15
  -OEChem-05192314333D
 Structure written by MMmdl.
 43 45  0     0  0  0  0  0  0999 V2000
   -6.3730   12.3647  -12.0124 C   0  0  0  0  0  0  0  0  0  0  0  0
   -6.5249   11.8167  -10.7375 C   0  0  0  0  0  0  0  0  0  0  0  0
   -7.7225   10.5819  -13.0270 C   0  0  0  0  0  0  0  0  0  0  0  0
   -6.9871   11.7813  -13.1320 C   0  0  0  0  0  0  0  0  0  0  0  0
   -7.8205   10.0150  -11.7538 C   0  0  0  0  0  0  0  0  0  0  0  0
   -7.2514   10.6217  -10.6093 C   0  0  0  0  0  0  0  0  0  0  0  0
   -7.6113    9.7463   -9.5119 C   0  0  0  0  0  0  0  0  0  0  0  0
   -8.2838    8.7282   -9.9768 N   0  0  0  0  0  0  0  0  0  0  0  0
   -8.4166    8.8609  -11.2984 N   0  0  0  0  0  0  0  0  0  0  0  0
   -7.3282    9.8959   -8.0269 C   0  0  0  0  0  0  0  0  0  0  0  0
   -4.4004   13.6489  -11.4541 N   0  0  0  0  0  0  0  0  0  0  0  0
   -3.4592   14.7715  -11.4916 C   0  0  0  0  0  0  0  0  0  0  0  0
   -5.5363   13.6231  -12.1917 C   0  0  0  0  0  0  0  0  0  0  0  0
   -5.8861   14.5056  -12.9557 O   0  0  0  0  0  0  0  0  0  0  0  0
   -5.9554   10.4909   -7.7390 C   0  0  0  0  0  0  0  0  0  0  0  0
   -5.8447   11.7612   -7.1661 C   0  0  0  0  0  0  0  0  0  0  0  0
   -4.5697   12.3054   -6.9214 C   0  0  0  0  0  0  0  0  0  0  0  0
   -3.4308   11.5801   -7.2259 C   0  0  0  0  0  0  0  0  0  0  0  0
   -3.5429   10.3015   -7.8076 C   0  0  0  0  0  0  0  0  0  0  0  0
   -4.8018    9.7661   -8.0596 C   0  0  0  0  0  0  0  0  0  0  0  0
   -4.4352   13.5609   -6.3638 O   0  0  0  0  0  0  0  0  0  0  0  0
   -3.6839   14.5445   -7.0766 C   0  0  0  0  0  0  0  0  0  0  0  0
   -2.1928   12.1397   -6.9410 O   0  0  0  0  0  0  0  0  0  0  0  0
   -1.0568   11.8071   -7.7386 C   0  0  0  0  0  0  0  0  0  0  0  0
   -6.0949   12.2992   -9.8722 H   0  0  0  0  0  0  0  0  0  0  0  0
   -8.1868   10.1246  -13.8882 H   0  0  0  0  0  0  0  0  0  0  0  0
   -6.8945   12.2613  -14.0950 H   0  0  0  0  0  0  0  0  0  0  0  0
   -8.6418    7.9709   -9.4306 H   0  0  0  0  0  0  0  0  0  0  0  0
   -8.0938   10.5530   -7.5887 H   0  0  0  0  0  0  0  0  0  0  0  0
   -7.3851    8.9027   -7.5575 H   0  0  0  0  0  0  0  0  0  0  0  0
   -4.1959   12.8707  -10.8602 H   0  0  0  0  0  0  0  0  0  0  0  0
   -2.6173   14.5676  -10.8136 H   0  0  0  0  0  0  0  0  0  0  0  0
   -3.0815   14.8991  -12.5168 H   0  0  0  0  0  0  0  0  0  0  0  0
   -3.9723   15.6908  -11.1728 H   0  0  0  0  0  0  0  0  0  0  0  0
   -6.7323   12.3219   -6.9127 H   0  0  0  0  0  0  0  0  0  0  0  0
   -2.6549    9.7395   -8.0568 H   0  0  0  0  0  0  0  0  0  0  0  0
   -4.8895    8.7861   -8.5049 H   0  0  0  0  0  0  0  0  0  0  0  0
   -3.6711   15.4833   -6.5034 H   0  0  0  0  0  0  0  0  0  0  0  0
   -2.6532   14.1872   -7.2178 H   0  0  0  0  0  0  0  0  0  0  0  0
   -4.1486   14.7205   -8.0580 H   0  0  0  0  0  0  0  0  0  0  0  0
   -0.1739   12.3445   -7.3623 H   0  0  0  0  0  0  0  0  0  0  0  0
   -0.8764   10.7233   -7.6856 H   0  0  0  0  0  0  0  0  0  0  0  0
   -1.2447   12.0969   -8.7830 H   0  0  0  0  0  0  0  0  0  0  0  0
  1  2  2  0  0  0  0
  1  4  1  0  0  0  0
  1 13  1  0  0  0  0
  2  6  1  0  0  0  0
  3  4  2  0  0  0  0
  3  5  1  0  0  0  0
  5  6  1  0  0  0  0
  5  9  2  0  0  0  0
  6  7  2  0  0  0  0
  7  8  1  0  0  0  0
  7 10  1  0  0  0  0
  8  9  1  0  0  0  0
 10 15  1  0  0  0  0
 11 12  1  0  0  0  0
 11 13  1  0  0  0  0
 13 14  2  0  0  0  0
 15 16  2  0  0  0  0
 15 20  1  0  0  0  0
 16 17  1  0  0  0  0
 17 18  2  0  0  0  0
 17 21  1  0  0  0  0
 18 19  1  0  0  0  0
 18 23  1  0  0  0  0
 19 20  2  0  0  0  0
 21 22  1  0  0  0  0
 23 24  1  0  0  0  0
  2 25  1  0  0  0  0
  3 26  1  0  0  0  0
  4 27  1  0  0  0  0
  8 28  1  0  0  0  0
 10 29  1  0  0  0  0
 10 30  1  0  0  0  0
 11 31  1  0  0  0  0
 12 32  1  0  0  0  0
 12 33  1  0  0  0  0
 12 34  1  0  0  0  0
 16 35  1  0  0  0  0
 19 36  1  0  0  0  0
 20 37  1  0  0  0  0
 22 38  1  0  0  0  0
 22 39  1  0  0  0  0
 22 40  1  0  0  0  0
 24 41  1  0  0  0  0
 24 42  1  0  0  0  0
 24 43  1  0  0  0  0
M  END
> <Name>
15

> <IC50[uM]>
2.5

$$$$
15
  -OEChem-05192314333D
 Structure written by MMmdl.
 43 45  0     0  0  0  0  0  0999 V2000
   -6.3730   12.3647  -12.0124 C   0  0  0  0  0  0  0  0  0  0  0  0
   -6.5249   11.8167  -10.7375 C   0  0  0  0  0  0  0  0  0  0  0  0
   -7.7225   10.5819  -13.0270 C   0  0  0  0  0  0  0  0  0  0  0  0
   -6.9871   11.7813  -13.1320 C   0  0  0  0  0  0  0  0  0  0  0  0
   -7.8205   10.0150  -11.7538 C   0  0  0  0  0  0  0  0  0  0  0  0
   -7.2514   10.6217  -10.6093 C   0  0  0  0  0  0  0  0  0  0  0  0
   -7.6113    9.7463   -9.5119 C   0  0  0  0  0  0  0  0  0  0  0  0
   -8.2838    8.7282   -9.9768 N   0  0  0  0  0  0  0  0  0  0  0  0
   -8.4166    8.8609  -11.2984 N   0  0  0  0  0  0  0  0  0  0  0  0
   -7.3282    9.8959   -8.0269 C   0  0  0  0  0  0  0  0  0  0  0  0
   -4.4004   13.6489  -11.4541 N   0  0  0  0  0  0  0  0  0  0  0  0
   -3.4592   14.7715  -11.4916 C   0  0  0  0  0  0  0  0  0  0  0  0
   -5.5363   13.6231  -12.1917 C   0  0  0  0  0  0  0  0  0  0  0  0
   -5.8861   14.5056  -12.9557 O   0  0  0  0  0  0  0  0  0  0  0  0
   -5.9554   10.4909   -7.7390 C   0  0  0  0  0  0  0  0  0  0  0  0
   -5.8447   11.7612   -7.1661 C   0  0  0  0  0  0  0  0  0  0  0  0
   -4.5697   12.3054   -6.9214 C   0  0  0  0  0  0  0  0  0  0  0  0
   -3.4308   11.5801   -7.2259 C   0  0  0  0  0  0  0  0  0  0  0  0
   -3.5429   10.3015   -7.8076 C   0  0  0  0  0  0  0  0  0  0  0  0
   -4.8018    9.7661   -8.0596 C   0  0  0  0  0  0  0  0  0  0  0  0
   -4.4352   13.5609   -6.3638 O   0  0  0  0  0  0  0  0  0  0  0  0
   -3.6839   14.5445   -7.0766 C   0  0  0  0  0  0  0  0  0  0  0  0
   -2.1928   12.1397   -6.9410 O   0  0  0  0  0  0  0  0  0  0  0  0
   -1.0568   11.8071   -7.7386 C   0  0  0  0  0  0  0  0  0  0  0  0
   -6.0949   12.2992   -9.8722 H   0  0  0  0  0  0  0  0  0  0  0  0
   -8.1868   10.1246  -13.8882 H   0  0  0  0  0  0  0  0  0  0  0  0
   -6.8945   12.2613  -14.0950 H   0  0  0  0  0  0  0  0  0  0  0  0
   -8.8902    8.2036  -11.8847 H   0  0  0  0  0  0  0  0  0  0  0  0
   -8.0938   10.5530   -7.5887 H   0  0  0  0  0  0  0  0  0  0  0  0
   -7.3851    8.9027   -7.5575 H   0  0  0  0  0  0  0  0  0  0  0  0
   -4.1959   12.8707  -10.8602 H   0  0  0  0  0  0  0  0  0  0  0  0
   -2.6173   14.5676  -10.8136 H   0  0  0  0  0  0  0  0  0  0  0  0
   -3.0815   14.8991  -12.5168 H   0  0  0  0  0  0  0  0  0  0  0  0
   -3.9723   15.6908  -11.1728 H   0  0  0  0  0  0  0  0  0  0  0  0
   -6.7323   12.3219   -6.9127 H   0  0  0  0  0  0  0  0  0  0  0  0
   -2.6549    9.7395   -8.0568 H   0  0  0  0  0  0  0  0  0  0  0  0
   -4.8895    8.7861   -8.5049 H   0  0  0  0  0  0  0  0  0  0  0  0
   -3.6711   15.4833   -6.5034 H   0  0  0  0  0  0  0  0  0  0  0  0
   -2.6532   14.1872   -7.2178 H   0  0  0  0  0  0  0  0  0  0  0  0
   -4.1486   14.7205   -8.0580 H   0  0  0  0  0  0  0  0  0  0  0  0
   -0.1739   12.3445   -7.3623 H   0  0  0  0  0  0  0  0  0  0  0  0
   -0.8764   10.7233   -7.6856 H   0  0  0  0  0  0  0  0  0  0  0  0
   -1.2447   12.0969   -8.7830 H   0  0  0  0  0  0  0  0  0  0  0  0
  1  2  2  0  0  0  0
  1  4  1  0  0  0  0
  1 13  1  0  0  0  0
  2  6  1  0  0  0  0
  3  4  2  0  0  0  0
  3  5  1  0  0  0  0
  5  6  2  0  0  0  0
  5  9  1  0  0  0  0
  6  7  1  0  0  0  0
  7  8  2  0  0  0  0
  7 10  1  0  0  0  0
  8  9  1  0  0  0  0
 10 15  1  0  0  0  0
 11 12  1  0  0  0  0
 11 13  1  0  0  0  0
 13 14  2  0  0  0  0
 15 16  2  0  0  0  0
 15 20  1  0  0  0  0
 16 17  1  0  0  0  0
 17 18  2  0  0  0  0
 17 21  1  0  0  0  0
 18 19  1  0  0  0  0
 18 23  1  0  0  0  0
 19 20  2  0  0  0  0
 21 22  1  0  0  0  0
 23 24  1  0  0  0  0
  2 25  1  0  0  0  0
  3 26  1  0  0  0  0
  4 27  1  0  0  0  0
  9 28  1  0  0  0  0
 10 29  1  0  0  0  0
 10 30  1  0  0  0  0
 11 31  1  0  0  0  0
 12 32  1  0  0  0  0
 12 33  1  0  0  0  0
 12 34  1  0  0  0  0
 16 35  1  0  0  0  0
 19 36  1  0  0  0  0
 20 37  1  0  0  0  0
 22 38  1  0  0  0  0
 22 39  1  0  0  0  0
 22 40  1  0  0  0  0
 24 41  1  0  0  0  0
 24 42  1  0  0  0  0
 24 43  1  0  0  0  0
M  END
> <Name>
15

> <IC50[uM]>
2.5

$$$$
15
  -OEChem-05192314333D
 Structure written by MMmdl.
 43 45  0     0  0  0  0  0  0999 V2000
   -6.3730   12.3647  -12.0124 C   0  0  0  0  0  0  0  0  0  0  0  0
   -6.5249   11.8167  -10.7375 C   0  0  0  0  0  0  0  0  0  0  0  0
   -7.7225   10.5819  -13.0270 C   0  0  0  0  0  0  0  0  0  0  0  0
   -6.9871   11.7813  -13.1320 C   0  0  0  0  0  0  0  0  0  0  0  0
   -7.8205   10.0150  -11.7538 C   0  0  0  0  0  0  0  0  0  0  0  0
   -7.2514   10.6217  -10.6093 C   0  0  0  0  0  0  0  0  0  0  0  0
   -7.6113    9.7463   -9.5119 C   0  0  0  0  0  0  0  0  0  0  0  0
   -8.2838    8.7282   -9.9768 N   0  0  0  0  0  0  0  0  0  0  0  0
   -8.4166    8.8609  -11.2984 N   0  0  0  0  0  0  0  0  0  0  0  0
   -7.3282    9.8959   -8.0269 C   0  0  0  0  0  0  0  0  0  0  0  0
   -4.4004   13.6489  -11.4541 N   0  0  0  0  0  0  0  0  0  0  0  0
   -3.4592   14.7715  -11.4916 C   0  0  0  0  0  0  0  0  0  0  0  0
   -5.5363   13.6231  -12.1917 C   0  0  0  0  0  0  0  0  0  0  0  0
   -5.8861   14.5056  -12.9557 O   0  0  0  0  0  0  0  0  0  0  0  0
   -5.9554   10.4909   -7.7390 C   0  0  0  0  0  0  0  0  0  0  0  0
   -5.8447   11.7612   -7.1661 C   0  0  0  0  0  0  0  0  0  0  0  0
   -4.5697   12.3054   -6.9214 C   0  0  0  0  0  0  0  0  0  0  0  0
   -3.4308   11.5801   -7.2259 C   0  0  0  0  0  0  0  0  0  0  0  0
   -3.5429   10.3015   -7.8076 C   0  0  0  0  0  0  0  0  0  0  0  0
   -4.8018    9.7661   -8.0596 C   0  0  0  0  0  0  0  0  0  0  0  0
   -4.4352   13.5609   -6.3638 O   0  0  0  0  0  0  0  0  0  0  0  0
   -3.6839   14.5445   -7.0766 C   0  0  0  0  0  0  0  0  0  0  0  0
   -2.1928   12.1397   -6.9410 O   0  0  0  0  0  0  0  0  0  0  0  0
   -1.0568   11.8071   -7.7386 C   0  0  0  0  0  0  0  0  0  0  0  0
   -6.0949   12.2992   -9.8722 H   0  0  0  0  0  0  0  0  0  0  0  0
   -8.1868   10.1246  -13.8882 H   0  0  0  0  0  0  0  0  0  0  0  0
   -6.8945   12.2613  -14.0950 H   0  0  0  0  0  0  0  0  0  0  0  0
   -8.6418    7.9709   -9.4306 H   0  0  0  0  0  0  0  0  0  0  0  0
   -8.0938   10.5530   -7.5887 H   0  0  0  0  0  0  0  0  0  0  0  0
   -7.3851    8.9027   -7.5575 H   0  0  0  0  0  0  0  0  0  0  0  0
   -2.6173   14.5676  -10.8136 H   0  0  0  0  0  0  0  0  0  0  0  0
   -3.0815   14.8991  -12.5168 H   0  0  0  0  0  0  0  0  0  0  0  0
   -3.9723   15.6908  -11.1728 H   0  0  0  0  0  0  0  0  0  0  0  0
   -5.2484   15.2095  -12.9404 H   0  0  0  0  0  0  0  0  0  0  0  0
   -6.7323   12.3219   -6.9127 H   0  0  0  0  0  0  0  0  0  0  0  0
   -2.6549    9.7395   -8.0568 H   0  0  0  0  0  0  0  0  0  0  0  0
   -4.8895    8.7861   -8.5049 H   0  0  0  0  0  0  0  0  0  0  0  0
   -3.6711   15.4833   -6.5034 H   0  0  0  0  0  0  0  0  0  0  0  0
   -2.6532   14.1872   -7.2178 H   0  0  0  0  0  0  0  0  0  0  0  0
   -4.1486   14.7205   -8.0580 H   0  0  0  0  0  0  0  0  0  0  0  0
   -0.1739   12.3445   -7.3623 H   0  0  0  0  0  0  0  0  0  0  0  0
   -0.8764   10.7233   -7.6856 H   0  0  0  0  0  0  0  0  0  0  0  0
   -1.2447   12.0969   -8.7830 H   0  0  0  0  0  0  0  0  0  0  0  0
  1  2  2  0  0  0  0
  1  4  1  0  0  0  0
  1 13  1  0  0  0  0
  2  6  1  0  0  0  0
  3  4  2  0  0  0  0
  3  5  1  0  0  0  0
  5  6  1  0  0  0  0
  5  9  2  0  0  0  0
  6  7  2  0  0  0  0
  7  8  1  0  0  0  0
  7 10  1  0  0  0  0
  8  9  1  0  0  0  0
 10 15  1  0  0  0  0
 11 12  1  0  0  0  0
 11 13  2  0  0  0  0
 13 14  1  0  0  0  0
 15 16  2  0  0  0  0
 15 20  1  0  0  0  0
 16 17  1  0  0  0  0
 17 18  2  0  0  0  0
 17 21  1  0  0  0  0
 18 19  1  0  0  0  0
 18 23  1  0  0  0  0
 19 20  2  0  0  0  0
 21 22  1  0  0  0  0
 23 24  1  0  0  0  0
  2 25  1  0  0  0  0
  3 26  1  0  0  0  0
  4 27  1  0  0  0  0
  8 28  1  0  0  0  0
 10 29  1  0  0  0  0
 10 30  1  0  0  0  0
 12 31  1  0  0  0  0
 12 32  1  0  0  0  0
 12 33  1  0  0  0  0
 14 34  1  0  0  0  0
 16 35  1  0  0  0  0
 19 36  1  0  0  0  0
 20 37  1  0  0  0  0
 22 38  1  0  0  0  0
 22 39  1  0  0  0  0
 22 40  1  0  0  0  0
 24 41  1  0  0  0  0
 24 42  1  0  0  0  0
 24 43  1  0  0  0  0
M  END
> <Name>
15

> <IC50[uM]>
2.5

$$$$
15
  -OEChem-05192314333D
 Structure written by MMmdl.
 43 45  0     0  0  0  0  0  0999 V2000
   -6.3730   12.3647  -12.0124 C   0  0  0  0  0  0  0  0  0  0  0  0
   -6.5249   11.8167  -10.7375 C   0  0  0  0  0  0  0  0  0  0  0  0
   -7.7225   10.5819  -13.0270 C   0  0  0  0  0  0  0  0  0  0  0  0
   -6.9871   11.7813  -13.1320 C   0  0  0  0  0  0  0  0  0  0  0  0
   -7.8205   10.0150  -11.7538 C   0  0  0  0  0  0  0  0  0  0  0  0
   -7.2514   10.6217  -10.6093 C   0  0  0  0  0  0  0  0  0  0  0  0
   -7.6113    9.7463   -9.5119 C   0  0  0  0  0  0  0  0  0  0  0  0
   -8.2838    8.7282   -9.9768 N   0  0  0  0  0  0  0  0  0  0  0  0
   -8.4166    8.8609  -11.2984 N   0  0  0  0  0  0  0  0  0  0  0  0
   -7.3282    9.8959   -8.0269 C   0  0  0  0  0  0  0  0  0  0  0  0
   -4.4004   13.6489  -11.4541 N   0  0  0  0  0  0  0  0  0  0  0  0
   -3.4592   14.7715  -11.4916 C   0  0  0  0  0  0  0  0  0  0  0  0
   -5.5363   13.6231  -12.1917 C   0  0  0  0  0  0  0  0  0  0  0  0
   -5.8861   14.5056  -12.9557 O   0  0  0  0  0  0  0  0  0  0  0  0
   -5.9554   10.4909   -7.7390 C   0  0  0  0  0  0  0  0  0  0  0  0
   -5.8447   11.7612   -7.1661 C   0  0  0  0  0  0  0  0  0  0  0  0
   -4.5697   12.3054   -6.9214 C   0  0  0  0  0  0  0  0  0  0  0  0
   -3.4308   11.5801   -7.2259 C   0  0  0  0  0  0  0  0  0  0  0  0
   -3.5429   10.3015   -7.8076 C   0  0  0  0  0  0  0  0  0  0  0  0
   -4.8018    9.7661   -8.0596 C   0  0  0  0  0  0  0  0  0  0  0  0
   -4.4352   13.5609   -6.3638 O   0  0  0  0  0  0  0  0  0  0  0  0
   -3.6839   14.5445   -7.0766 C   0  0  0  0  0  0  0  0  0  0  0  0
   -2.1928   12.1397   -6.9410 O   0  0  0  0  0  0  0  0  0  0  0  0
   -1.0568   11.8071   -7.7386 C   0  0  0  0  0  0  0  0  0  0  0  0
   -6.0949   12.2992   -9.8722 H   0  0  0  0  0  0  0  0  0  0  0  0
   -8.1868   10.1246  -13.8882 H   0  0  0  0  0  0  0  0  0  0  0  0
   -6.8945   12.2613  -14.0950 H   0  0  0  0  0  0  0  0  0  0  0  0
   -8.8902    8.2036  -11.8847 H   0  0  0  0  0  0  0  0  0  0  0  0
   -8.0938   10.5530   -7.5887 H   0  0  0  0  0  0  0  0  0  0  0  0
   -7.3851    8.9027   -7.5575 H   0  0  0  0  0  0  0  0  0  0  0  0
   -2.6173   14.5676  -10.8136 H   0  0  0  0  0  0  0  0  0  0  0  0
   -3.0815   14.8991  -12.5168 H   0  0  0  0  0  0  0  0  0  0  0  0
   -3.9723   15.6908  -11.1728 H   0  0  0  0  0  0  0  0  0  0  0  0
   -5.2484   15.2095  -12.9404 H   0  0  0  0  0  0  0  0  0  0  0  0
   -6.7323   12.3219   -6.9127 H   0  0  0  0  0  0  0  0  0  0  0  0
   -2.6549    9.7395   -8.0568 H   0  0  0  0  0  0  0  0  0  0  0  0
   -4.8895    8.7861   -8.5049 H   0  0  0  0  0  0  0  0  0  0  0  0
   -3.6711   15.4833   -6.5034 H   0  0  0  0  0  0  0  0  0  0  0  0
   -2.6532   14.1872   -7.2178 H   0  0  0  0  0  0  0  0  0  0  0  0
   -4.1486   14.7205   -8.0580 H   0  0  0  0  0  0  0  0  0  0  0  0
   -0.1739   12.3445   -7.3623 H   0  0  0  0  0  0  0  0  0  0  0  0
   -0.8764   10.7233   -7.6856 H   0  0  0  0  0  0  0  0  0  0  0  0
   -1.2447   12.0969   -8.7830 H   0  0  0  0  0  0  0  0  0  0  0  0
  1  2  2  0  0  0  0
  1  4  1  0  0  0  0
  1 13  1  0  0  0  0
  2  6  1  0  0  0  0
  3  4  2  0  0  0  0
  3  5  1  0  0  0  0
  5  6  2  0  0  0  0
  5  9  1  0  0  0  0
  6  7  1  0  0  0  0
  7  8  2  0  0  0  0
  7 10  1  0  0  0  0
  8  9  1  0  0  0  0
 10 15  1  0  0  0  0
 11 12  1  0  0  0  0
 11 13  2  0  0  0  0
 13 14  1  0  0  0  0
 15 16  2  0  0  0  0
 15 20  1  0  0  0  0
 16 17  1  0  0  0  0
 17 18  2  0  0  0  0
 17 21  1  0  0  0  0
 18 19  1  0  0  0  0
 18 23  1  0  0  0  0
 19 20  2  0  0  0  0
 21 22  1  0  0  0  0
 23 24  1  0  0  0  0
  2 25  1  0  0  0  0
  3 26  1  0  0  0  0
  4 27  1  0  0  0  0
  9 28  1  0  0  0  0
 10 29  1  0  0  0  0
 10 30  1  0  0  0  0
 12 31  1  0  0  0  0
 12 32  1  0  0  0  0
 12 33  1  0  0  0  0
 14 34  1  0  0  0  0
 16 35  1  0  0  0  0
 19 36  1  0  0  0  0
 20 37  1  0  0  0  0
 22 38  1  0  0  0  0
 22 39  1  0  0  0  0
 22 40  1  0  0  0  0
 24 41  1  0  0  0  0
 24 42  1  0  0  0  0
 24 43  1  0  0  0  0
M  END
> <Name>
15

> <IC50[uM]>
2.5

$$$$
15
  -OEChem-05192314333D
 Structure written by MMmdl.
 43 45  0     1  0  0  0  0  0999 V2000
   -6.3730   12.3647  -12.0124 C   0  0  0  0  0  0  0  0  0  0  0  0
   -6.5249   11.8167  -10.7375 C   0  0  0  0  0  0  0  0  0  0  0  0
   -7.7225   10.5819  -13.0270 C   0  0  0  0  0  0  0  0  0  0  0  0
   -6.9871   11.7813  -13.1320 C   0  0  0  0  0  0  0  0  0  0  0  0
   -7.8205   10.0150  -11.7538 C   0  0  0  0  0  0  0  0  0  0  0  0
   -7.2514   10.6217  -10.6093 C   0  0  0  0  0  0  0  0  0  0  0  0
   -7.6113    9.7463   -9.5119 C   0  0  3  0  0  0  0  0  0  0  0  0
   -8.2838    8.7282   -9.9768 N   0  0  0  0  0  0  0  0  0  0  0  0
   -8.4166    8.8609  -11.2984 N   0  0  0  0  0  0  0  0  0  0  0  0
   -7.3282    9.8959   -8.0269 C   0  0  0  0  0  0  0  0  0  0  0  0
   -4.4004   13.6489  -11.4541 N   0  0  0  0  0  0  0  0  0  0  0  0
   -3.4592   14.7715  -11.4916 C   0  0  0  0  0  0  0  0  0  0  0  0
   -5.5363   13.6231  -12.1917 C   0  0  0  0  0  0  0  0  0  0  0  0
   -5.8861   14.5056  -12.9557 O   0  0  0  0  0  0  0  0  0  0  0  0
   -5.9554   10.4909   -7.7390 C   0  0  0  0  0  0  0  0  0  0  0  0
   -5.8447   11.7612   -7.1661 C   0  0  0  0  0  0  0  0  0  0  0  0
   -4.5697   12.3054   -6.9214 C   0  0  0  0  0  0  0  0  0  0  0  0
   -3.4308   11.5801   -7.2259 C   0  0  0  0  0  0  0  0  0  0  0  0
   -3.5429   10.3015   -7.8076 C   0  0  0  0  0  0  0  0  0  0  0  0
   -4.8018    9.7661   -8.0596 C   0  0  0  0  0  0  0  0  0  0  0  0
   -4.4352   13.5609   -6.3638 O   0  0  0  0  0  0  0  0  0  0  0  0
   -3.6839   14.5445   -7.0766 C   0  0  0  0  0  0  0  0  0  0  0  0
   -2.1928   12.1397   -6.9410 O   0  0  0  0  0  0  0  0  0  0  0  0
   -1.0568   11.8071   -7.7386 C   0  0  0  0  0  0  0  0  0  0  0  0
   -6.0949   12.2992   -9.8722 H   0  0  0  0  0  0  0  0  0  0  0  0
   -8.1868   10.1246  -13.8882 H   0  0  0  0  0  0  0  0  0  0  0  0
   -6.8945   12.2613  -14.0950 H   0  0  0  0  0  0  0  0  0  0  0  0
   -6.6707    9.1906   -9.6401 H   0  0  0  0  0  0  0  0  0  0  0  0
   -8.0938   10.5530   -7.5887 H   0  0  0  0  0  0  0  0  0  0  0  0
   -7.3851    8.9027   -7.5575 H   0  0  0  0  0  0  0  0  0  0  0  0
   -4.1959   12.8707  -10.8602 H   0  0  0  0  0  0  0  0  0  0  0  0
   -2.6173   14.5676  -10.8136 H   0  0  0  0  0  0  0  0  0  0  0  0
   -3.0815   14.8991  -12.5168 H   0  0  0  0  0  0  0  0  0  0  0  0
   -3.9723   15.6908  -11.1728 H   0  0  0  0  0  0  0  0  0  0  0  0
   -6.7323   12.3219   -6.9127 H   0  0  0  0  0  0  0  0  0  0  0  0
   -2.6549    9.7395   -8.0568 H   0  0  0  0  0  0  0  0  0  0  0  0
   -4.8895    8.7861   -8.5049 H   0  0  0  0  0  0  0  0  0  0  0  0
   -3.6711   15.4833   -6.5034 H   0  0  0  0  0  0  0  0  0  0  0  0
   -2.6532   14.1872   -7.2178 H   0  0  0  0  0  0  0  0  0  0  0  0
   -4.1486   14.7205   -8.0580 H   0  0  0  0  0  0  0  0  0  0  0  0
   -0.1739   12.3445   -7.3623 H   0  0  0  0  0  0  0  0  0  0  0  0
   -0.8764   10.7233   -7.6856 H   0  0  0  0  0  0  0  0  0  0  0  0
   -1.2447   12.0969   -8.7830 H   0  0  0  0  0  0  0  0  0  0  0  0
  1  2  2  0  0  0  0
  1  4  1  0  0  0  0
  1 13  1  0  0  0  0
  2  6  1  0  0  0  0
  3  4  2  0  0  0  0
  3  5  1  0  0  0  0
  5  6  2  0  0  0  0
  5  9  1  0  0  0  0
  6  7  1  0  0  0  0
  7  8  1  0  0  0  0
  7 10  1  0  0  0  0
  8  9  2  0  0  0  0
 10 15  1  0  0  0  0
 11 12  1  0  0  0  0
 11 13  1  0  0  0  0
 13 14  2  0  0  0  0
 15 16  2  0  0  0  0
 15 20  1  0  0  0  0
 16 17  1  0  0  0  0
 17 18  2  0  0  0  0
 17 21  1  0  0  0  0
 18 19  1  0  0  0  0
 18 23  1  0  0  0  0
 19 20  2  0  0  0  0
 21 22  1  0  0  0  0
 23 24  1  0  0  0  0
  2 25  1  0  0  0  0
  3 26  1  0  0  0  0
  4 27  1  0  0  0  0
  7 28  1  0  0  0  0
 10 29  1  0  0  0  0
 10 30  1  0  0  0  0
 11 31  1  0  0  0  0
 12 32  1  0  0  0  0
 12 33  1  0  0  0  0
 12 34  1  0  0  0  0
 16 35  1  0  0  0  0
 19 36  1  0  0  0  0
 20 37  1  0  0  0  0
 22 38  1  0  0  0  0
 22 39  1  0  0  0  0
 22 40  1  0  0  0  0
 24 41  1  0  0  0  0
 24 42  1  0  0  0  0
 24 43  1  0  0  0  0
M  END
> <Name>
15

> <IC50[uM]>
2.5

$$$$
15
  -OEChem-05192314333D
 Structure written by MMmdl.
 43 45  0     1  0  0  0  0  0999 V2000
   -6.3730   12.3647  -12.0124 C   0  0  0  0  0  0  0  0  0  0  0  0
   -6.5249   11.8167  -10.7375 C   0  0  0  0  0  0  0  0  0  0  0  0
   -7.7225   10.5819  -13.0270 C   0  0  0  0  0  0  0  0  0  0  0  0
   -6.9871   11.7813  -13.1320 C   0  0  0  0  0  0  0  0  0  0  0  0
   -7.8205   10.0150  -11.7538 C   0  0  0  0  0  0  0  0  0  0  0  0
   -7.2514   10.6217  -10.6093 C   0  0  0  0  0  0  0  0  0  0  0  0
   -7.6113    9.7463   -9.5119 C   0  0  3  0  0  0  0  0  0  0  0  0
   -8.2838    8.7282   -9.9768 N   0  0  0  0  0  0  0  0  0  0  0  0
   -8.4166    8.8609  -11.2984 N   0  0  0  0  0  0  0  0  0  0  0  0
   -7.3282    9.8959   -8.0269 C   0  0  0  0  0  0  0  0  0  0  0  0
   -4.4004   13.6489  -11.4541 N   0  0  0  0  0  0  0  0  0  0  0  0
   -3.4592   14.7715  -11.4916 C   0  0  0  0  0  0  0  0  0  0  0  0
   -5.5363   13.6231  -12.1917 C   0  0  0  0  0  0  0  0  0  0  0  0
   -5.8861   14.5056  -12.9557 O   0  0  0  0  0  0  0  0  0  0  0  0
   -5.9554   10.4909   -7.7390 C   0  0  0  0  0  0  0  0  0  0  0  0
   -5.8447   11.7612   -7.1661 C   0  0  0  0  0  0  0  0  0  0  0  0
   -4.5697   12.3054   -6.9214 C   0  0  0  0  0  0  0  0  0  0  0  0
   -3.4308   11.5801   -7.2259 C   0  0  0  0  0  0  0  0  0  0  0  0
   -3.5429   10.3015   -7.8076 C   0  0  0  0  0  0  0  0  0  0  0  0
   -4.8018    9.7661   -8.0596 C   0  0  0  0  0  0  0  0  0  0  0  0
   -4.4352   13.5609   -6.3638 O   0  0  0  0  0  0  0  0  0  0  0  0
   -3.6839   14.5445   -7.0766 C   0  0  0  0  0  0  0  0  0  0  0  0
   -2.1928   12.1397   -6.9410 O   0  0  0  0  0  0  0  0  0  0  0  0
   -1.0568   11.8071   -7.7386 C   0  0  0  0  0  0  0  0  0  0  0  0
   -6.0949   12.2992   -9.8722 H   0  0  0  0  0  0  0  0  0  0  0  0
   -8.1868   10.1246  -13.8882 H   0  0  0  0  0  0  0  0  0  0  0  0
   -6.8945   12.2613  -14.0950 H   0  0  0  0  0  0  0  0  0  0  0  0
   -6.6707    9.1906   -9.6401 H   0  0  0  0  0  0  0  0  0  0  0  0
   -8.0938   10.5530   -7.5887 H   0  0  0  0  0  0  0  0  0  0  0  0
   -7.3851    8.9027   -7.5575 H   0  0  0  0  0  0  0  0  0  0  0  0
   -2.6173   14.5676  -10.8136 H   0  0  0  0  0  0  0  0  0  0  0  0
   -3.0815   14.8991  -12.5168 H   0  0  0  0  0  0  0  0  0  0  0  0
   -3.9723   15.6908  -11.1728 H   0  0  0  0  0  0  0  0  0  0  0  0
   -5.2484   15.2095  -12.9404 H   0  0  0  0  0  0  0  0  0  0  0  0
   -6.7323   12.3219   -6.9127 H   0  0  0  0  0  0  0  0  0  0  0  0
   -2.6549    9.7395   -8.0568 H   0  0  0  0  0  0  0  0  0  0  0  0
   -4.8895    8.7861   -8.5049 H   0  0  0  0  0  0  0  0  0  0  0  0
   -3.6711   15.4833   -6.5034 H   0  0  0  0  0  0  0  0  0  0  0  0
   -2.6532   14.1872   -7.2178 H   0  0  0  0  0  0  0  0  0  0  0  0
   -4.1486   14.7205   -8.0580 H   0  0  0  0  0  0  0  0  0  0  0  0
   -0.1739   12.3445   -7.3623 H   0  0  0  0  0  0  0  0  0  0  0  0
   -0.8764   10.7233   -7.6856 H   0  0  0  0  0  0  0  0  0  0  0  0
   -1.2447   12.0969   -8.7830 H   0  0  0  0  0  0  0  0  0  0  0  0
  1  2  2  0  0  0  0
  1  4  1  0  0  0  0
  1 13  1  0  0  0  0
  2  6  1  0  0  0  0
  3  4  2  0  0  0  0
  3  5  1  0  0  0  0
  5  6  2  0  0  0  0
  5  9  1  0  0  0  0
  6  7  1  0  0  0  0
  7  8  1  0  0  0  0
  7 10  1  0  0  0  0
  8  9  2  0  0  0  0
 10 15  1  0  0  0  0
 11 12  1  0  0  0  0
 11 13  2  0  0  0  0
 13 14  1  0  0  0  0
 15 16  2  0  0  0  0
 15 20  1  0  0  0  0
 16 17  1  0  0  0  0
 17 18  2  0  0  0  0
 17 21  1  0  0  0  0
 18 19  1  0  0  0  0
 18 23  1  0  0  0  0
 19 20  2  0  0  0  0
 21 22  1  0  0  0  0
 23 24  1  0  0  0  0
  2 25  1  0  0  0  0
  3 26  1  0  0  0  0
  4 27  1  0  0  0  0
  7 28  1  0  0  0  0
 10 29  1  0  0  0  0
 10 30  1  0  0  0  0
 12 31  1  0  0  0  0
 12 32  1  0  0  0  0
 12 33  1  0  0  0  0
 14 34  1  0  0  0  0
 16 35  1  0  0  0  0
 19 36  1  0  0  0  0
 20 37  1  0  0  0  0
 22 38  1  0  0  0  0
 22 39  1  0  0  0  0
 22 40  1  0  0  0  0
 24 41  1  0  0  0  0
 24 42  1  0  0  0  0
 24 43  1  0  0  0  0
M  END
> <Name>
15

> <IC50[uM]>
2.5

$$$$
15
  -OEChem-05192314333D
 Structure written by MMmdl.
 43 45  0     0  0  0  0  0  0999 V2000
   -6.3730   12.3647  -12.0124 C   0  0  0  0  0  0  0  0  0  0  0  0
   -6.5249   11.8167  -10.7375 C   0  0  0  0  0  0  0  0  0  0  0  0
   -7.7225   10.5819  -13.0270 C   0  0  0  0  0  0  0  0  0  0  0  0
   -6.9871   11.7813  -13.1320 C   0  0  0  0  0  0  0  0  0  0  0  0
   -7.8205   10.0150  -11.7538 C   0  0  0  0  0  0  0  0  0  0  0  0
   -7.2514   10.6217  -10.6093 C   0  0  0  0  0  0  0  0  0  0  0  0
   -7.6113    9.7463   -9.5119 C   0  0  0  0  0  0  0  0  0  0  0  0
   -8.2838    8.7282   -9.9768 N   0  0  0  0  0  0  0  0  0  0  0  0
   -8.4166    8.8609  -11.2984 N   0  0  0  0  0  0  0  0  0  0  0  0
   -7.3282    9.8959   -8.0269 C   0  0  0  0  0  0  0  0  0  0  0  0
   -4.4004   13.6489  -11.4541 N   0  0  0  0  0  0  0  0  0  0  0  0
   -3.4592   14.7715  -11.4916 C   0  0  0  0  0  0  0  0  0  0  0  0
   -5.5363   13.6231  -12.1917 C   0  0  0  0  0  0  0  0  0  0  0  0
   -5.8861   14.5056  -12.9557 O   0  0  0  0  0  0  0  0  0  0  0  0
   -5.9554   10.4909   -7.7390 C   0  0  0  0  0  0  0  0  0  0  0  0
   -5.8447   11.7612   -7.1661 C   0  0  0  0  0  0  0  0  0  0  0  0
   -4.5697   12.3054   -6.9214 C   0  0  0  0  0  0  0  0  0  0  0  0
   -3.4308   11.5801   -7.2259 C   0  0  0  0  0  0  0  0  0  0  0  0
   -3.5429   10.3015   -7.8076 C   0  0  0  0  0  0  0  0  0  0  0  0
   -4.8018    9.7661   -8.0596 C   0  0  0  0  0  0  0  0  0  0  0  0
   -4.4352   13.5609   -6.3638 O   0  0  0  0  0  0  0  0  0  0  0  0
   -3.6839   14.5445   -7.0766 C   0  0  0  0  0  0  0  0  0  0  0  0
   -2.1928   12.1397   -6.9410 O   0  0  0  0  0  0  0  0  0  0  0  0
   -1.0568   11.8071   -7.7386 C   0  0  0  0  0  0  0  0  0  0  0  0
   -6.0949   12.2992   -9.8722 H   0  0  0  0  0  0  0  0  0  0  0  0
   -8.1868   10.1246  -13.8882 H   0  0  0  0  0  0  0  0  0  0  0  0
   -6.8945   12.2613  -14.0950 H   0  0  0  0  0  0  0  0  0  0  0  0
   -7.7931    7.8811   -9.7727 H   0  0  0  0  0  0  0  0  0  0  0  0
   -9.3900    8.8868  -11.5258 H   0  0  0  0  0  0  0  0  0  0  0  0
   -8.0276    9.6101   -7.2552 H   0  0  0  0  0  0  0  0  0  0  0  0
   -4.1959   12.8707  -10.8602 H   0  0  0  0  0  0  0  0  0  0  0  0
   -2.6173   14.5676  -10.8136 H   0  0  0  0  0  0  0  0  0  0  0  0
   -3.0815   14.8991  -12.5168 H   0  0  0  0  0  0  0  0  0  0  0  0
   -3.9723   15.6908  -11.1728 H   0  0  0  0  0  0  0  0  0  0  0  0
   -6.7323   12.3219   -6.9127 H   0  0  0  0  0  0  0  0  0  0  0  0
   -2.6549    9.7395   -8.0568 H   0  0  0  0  0  0  0  0  0  0  0  0
   -4.8895    8.7861   -8.5049 H   0  0  0  0  0  0  0  0  0  0  0  0
   -3.6711   15.4833   -6.5034 H   0  0  0  0  0  0  0  0  0  0  0  0
   -2.6532   14.1872   -7.2178 H   0  0  0  0  0  0  0  0  0  0  0  0
   -4.1486   14.7205   -8.0580 H   0  0  0  0  0  0  0  0  0  0  0  0
   -0.1739   12.3445   -7.3623 H   0  0  0  0  0  0  0  0  0  0  0  0
   -0.8764   10.7233   -7.6856 H   0  0  0  0  0  0  0  0  0  0  0  0
   -1.2447   12.0969   -8.7830 H   0  0  0  0  0  0  0  0  0  0  0  0
  1  2  2  0  0  0  0
  1  4  1  0  0  0  0
  1 13  1  0  0  0  0
  2  6  1  0  0  0  0
  3  4  2  0  0  0  0
  3  5  1  0  0  0  0
  5  6  2  0  0  0  0
  5  9  1  0  0  0  0
  6  7  1  0  0  0  0
  7  8  1  0  0  0  0
  7 10  2  3  0  0  0
  8  9  1  0  0  0  0
 10 15  1  0  0  0  0
 11 12  1  0  0  0  0
 11 13  1  0  0  0  0
 13 14  2  0  0  0  0
 15 16  2  0  0  0  0
 15 20  1  0  0  0  0
 16 17  1  0  0  0  0
 17 18  2  0  0  0  0
 17 21  1  0  0  0  0
 18 19  1  0  0  0  0
 18 23  1  0  0  0  0
 19 20  2  0  0  0  0
 21 22  1  0  0  0  0
 23 24  1  0  0  0  0
  2 25  1  0  0  0  0
  3 26  1  0  0  0  0
  4 27  1  0  0  0  0
  8 28  1  0  0  0  0
  9 29  1  0  0  0  0
 10 30  1  0  0  0  0
 11 31  1  0  0  0  0
 12 32  1  0  0  0  0
 12 33  1  0  0  0  0
 12 34  1  0  0  0  0
 16 35  1  0  0  0  0
 19 36  1  0  0  0  0
 20 37  1  0  0  0  0
 22 38  1  0  0  0  0
 22 39  1  0  0  0  0
 22 40  1  0  0  0  0
 24 41  1  0  0  0  0
 24 42  1  0  0  0  0
 24 43  1  0  0  0  0
M  END
> <Name>
15

> <IC50[uM]>
2.5

$$$$
15
  -OEChem-05192314333D
 Structure written by MMmdl.
 43 45  0     0  0  0  0  0  0999 V2000
   -6.3730   12.3647  -12.0124 C   0  0  0  0  0  0  0  0  0  0  0  0
   -6.5249   11.8167  -10.7375 C   0  0  0  0  0  0  0  0  0  0  0  0
   -7.7225   10.5819  -13.0270 C   0  0  0  0  0  0  0  0  0  0  0  0
   -6.9871   11.7813  -13.1320 C   0  0  0  0  0  0  0  0  0  0  0  0
   -7.8205   10.0150  -11.7538 C   0  0  0  0  0  0  0  0  0  0  0  0
   -7.2514   10.6217  -10.6093 C   0  0  0  0  0  0  0  0  0  0  0  0
   -7.6113    9.7463   -9.5119 C   0  0  0  0  0  0  0  0  0  0  0  0
   -8.2838    8.7282   -9.9768 N   0  0  0  0  0  0  0  0  0  0  0  0
   -8.4166    8.8609  -11.2984 N   0  0  0  0  0  0  0  0  0  0  0  0
   -7.3282    9.8959   -8.0269 C   0  0  0  0  0  0  0  0  0  0  0  0
   -4.4004   13.6489  -11.4541 N   0  0  0  0  0  0  0  0  0  0  0  0
   -3.4592   14.7715  -11.4916 C   0  0  0  0  0  0  0  0  0  0  0  0
   -5.5363   13.6231  -12.1917 C   0  0  0  0  0  0  0  0  0  0  0  0
   -5.8861   14.5056  -12.9557 O   0  0  0  0  0  0  0  0  0  0  0  0
   -5.9554   10.4909   -7.7390 C   0  0  0  0  0  0  0  0  0  0  0  0
   -5.8447   11.7612   -7.1661 C   0  0  0  0  0  0  0  0  0  0  0  0
   -4.5697   12.3054   -6.9214 C   0  0  0  0  0  0  0  0  0  0  0  0
   -3.4308   11.5801   -7.2259 C   0  0  0  0  0  0  0  0  0  0  0  0
   -3.5429   10.3015   -7.8076 C   0  0  0  0  0  0  0  0  0  0  0  0
   -4.8018    9.7661   -8.0596 C   0  0  0  0  0  0  0  0  0  0  0  0
   -4.4352   13.5609   -6.3638 O   0  0  0  0  0  0  0  0  0  0  0  0
   -3.6839   14.5445   -7.0766 C   0  0  0  0  0  0  0  0  0  0  0  0
   -2.1928   12.1397   -6.9410 O   0  0  0  0  0  0  0  0  0  0  0  0
   -1.0568   11.8071   -7.7386 C   0  0  0  0  0  0  0  0  0  0  0  0
   -6.0949   12.2992   -9.8722 H   0  0  0  0  0  0  0  0  0  0  0  0
   -8.1868   10.1246  -13.8882 H   0  0  0  0  0  0  0  0  0  0  0  0
   -6.8945   12.2613  -14.0950 H   0  0  0  0  0  0  0  0  0  0  0  0
   -7.7931    7.8811   -9.7727 H   0  0  0  0  0  0  0  0  0  0  0  0
   -9.3900    8.8868  -11.5258 H   0  0  0  0  0  0  0  0  0  0  0  0
   -8.0276    9.6101   -7.2552 H   0  0  0  0  0  0  0  0  0  0  0  0
   -2.6173   14.5676  -10.8136 H   0  0  0  0  0  0  0  0  0  0  0  0
   -3.0815   14.8991  -12.5168 H   0  0  0  0  0  0  0  0  0  0  0  0
   -3.9723   15.6908  -11.1728 H   0  0  0  0  0  0  0  0  0  0  0  0
   -5.2484   15.2095  -12.9404 H   0  0  0  0  0  0  0  0  0  0  0  0
   -6.7323   12.3219   -6.9127 H   0  0  0  0  0  0  0  0  0  0  0  0
   -2.6549    9.7395   -8.0568 H   0  0  0  0  0  0  0  0  0  0  0  0
   -4.8895    8.7861   -8.5049 H   0  0  0  0  0  0  0  0  0  0  0  0
   -3.6711   15.4833   -6.5034 H   0  0  0  0  0  0  0  0  0  0  0  0
   -2.6532   14.1872   -7.2178 H   0  0  0  0  0  0  0  0  0  0  0  0
   -4.1486   14.7205   -8.0580 H   0  0  0  0  0  0  0  0  0  0  0  0
   -0.1739   12.3445   -7.3623 H   0  0  0  0  0  0  0  0  0  0  0  0
   -0.8764   10.7233   -7.6856 H   0  0  0  0  0  0  0  0  0  0  0  0
   -1.2447   12.0969   -8.7830 H   0  0  0  0  0  0  0  0  0  0  0  0
  1  2  2  0  0  0  0
  1  4  1  0  0  0  0
  1 13  1  0  0  0  0
  2  6  1  0  0  0  0
  3  4  2  0  0  0  0
  3  5  1  0  0  0  0
  5  6  2  0  0  0  0
  5  9  1  0  0  0  0
  6  7  1  0  0  0  0
  7  8  1  0  0  0  0
  7 10  2  3  0  0  0
  8  9  1  0  0  0  0
 10 15  1  0  0  0  0
 11 12  1  0  0  0  0
 11 13  2  0  0  0  0
 13 14  1  0  0  0  0
 15 16  2  0  0  0  0
 15 20  1  0  0  0  0
 16 17  1  0  0  0  0
 17 18  2  0  0  0  0
 17 21  1  0  0  0  0
 18 19  1  0  0  0  0
 18 23  1  0  0  0  0
 19 20  2  0  0  0  0
 21 22  1  0  0  0  0
 23 24  1  0  0  0  0
  2 25  1  0  0  0  0
  3 26  1  0  0  0  0
  4 27  1  0  0  0  0
  8 28  1  0  0  0  0
  9 29  1  0  0  0  0
 10 30  1  0  0  0  0
 12 31  1  0  0  0  0
 12 32  1  0  0  0  0
 12 33  1  0  0  0  0
 14 34  1  0  0  0  0
 16 35  1  0  0  0  0
 19 36  1  0  0  0  0
 20 37  1  0  0  0  0
 22 38  1  0  0  0  0
 22 39  1  0  0  0  0
 22 40  1  0  0  0  0
 24 41  1  0  0  0  0
 24 42  1  0  0  0  0
 24 43  1  0  0  0  0
M  END
> <Name>
15

> <IC50[uM]>
2.5

$$$$
15
  -OEChem-05192314333D
 Structure written by MMmdl.
 43 45  0     1  0  0  0  0  0999 V2000
   -6.3730   12.3647  -12.0124 C   0  0  3  0  0  0  0  0  0  0  0  0
   -6.5249   11.8167  -10.7375 C   0  0  0  0  0  0  0  0  0  0  0  0
   -7.7225   10.5819  -13.0270 C   0  0  0  0  0  0  0  0  0  0  0  0
   -6.9871   11.7813  -13.1320 C   0  0  0  0  0  0  0  0  0  0  0  0
   -7.8205   10.0150  -11.7538 C   0  0  0  0  0  0  0  0  0  0  0  0
   -7.2514   10.6217  -10.6093 C   0  0  0  0  0  0  0  0  0  0  0  0
   -7.6113    9.7463   -9.5119 C   0  0  0  0  0  0  0  0  0  0  0  0
   -8.2838    8.7282   -9.9768 N   0  0  0  0  0  0  0  0  0  0  0  0
   -8.4166    8.8609  -11.2984 N   0  0  0  0  0  0  0  0  0  0  0  0
   -7.3282    9.8959   -8.0269 C   0  0  0  0  0  0  0  0  0  0  0  0
   -4.4004   13.6489  -11.4541 N   0  0  0  0  0  0  0  0  0  0  0  0
   -3.4592   14.7715  -11.4916 C   0  0  0  0  0  0  0  0  0  0  0  0
   -5.5363   13.6231  -12.1917 C   0  0  0  0  0  0  0  0  0  0  0  0
   -5.8861   14.5056  -12.9557 O   0  0  0  0  0  0  0  0  0  0  0  0
   -5.9554   10.4909   -7.7390 C   0  0  0  0  0  0  0  0  0  0  0  0
   -5.8447   11.7612   -7.1661 C   0  0  0  0  0  0  0  0  0  0  0  0
   -4.5697   12.3054   -6.9214 C   0  0  0  0  0  0  0  0  0  0  0  0
   -3.4308   11.5801   -7.2259 C   0  0  0  0  0  0  0  0  0  0  0  0
   -3.5429   10.3015   -7.8076 C   0  0  0  0  0  0  0  0  0  0  0  0
   -4.8018    9.7661   -8.0596 C   0  0  0  0  0  0  0  0  0  0  0  0
   -4.4352   13.5609   -6.3638 O   0  0  0  0  0  0  0  0  0  0  0  0
   -3.6839   14.5445   -7.0766 C   0  0  0  0  0  0  0  0  0  0  0  0
   -2.1928   12.1397   -6.9410 O   0  0  0  0  0  0  0  0  0  0  0  0
   -1.0568   11.8071   -7.7386 C   0  0  0  0  0  0  0  0  0  0  0  0
   -5.4795   11.7442  -12.1757 H   0  0  0  0  0  0  0  0  0  0  0  0
   -6.0949   12.2992   -9.8722 H   0  0  0  0  0  0  0  0  0  0  0  0
   -8.1868   10.1246  -13.8882 H   0  0  0  0  0  0  0  0  0  0  0  0
   -6.8945   12.2613  -14.0950 H   0  0  0  0  0  0  0  0  0  0  0  0
   -8.6418    7.9709   -9.4306 H   0  0  0  0  0  0  0  0  0  0  0  0
   -8.0276    9.6101   -7.2552 H   0  0  0  0  0  0  0  0  0  0  0  0
   -4.1959   12.8707  -10.8602 H   0  0  0  0  0  0  0  0  0  0  0  0
   -2.6173   14.5676  -10.8136 H   0  0  0  0  0  0  0  0  0  0  0  0
   -3.0815   14.8991  -12.5168 H   0  0  0  0  0  0  0  0  0  0  0  0
   -3.9723   15.6908  -11.1728 H   0  0  0  0  0  0  0  0  0  0  0  0
   -6.7323   12.3219   -6.9127 H   0  0  0  0  0  0  0  0  0  0  0  0
   -2.6549    9.7395   -8.0568 H   0  0  0  0  0  0  0  0  0  0  0  0
   -4.8895    8.7861   -8.5049 H   0  0  0  0  0  0  0  0  0  0  0  0
   -3.6711   15.4833   -6.5034 H   0  0  0  0  0  0  0  0  0  0  0  0
   -2.6532   14.1872   -7.2178 H   0  0  0  0  0  0  0  0  0  0  0  0
   -4.1486   14.7205   -8.0580 H   0  0  0  0  0  0  0  0  0  0  0  0
   -0.1739   12.3445   -7.3623 H   0  0  0  0  0  0  0  0  0  0  0  0
   -0.8764   10.7233   -7.6856 H   0  0  0  0  0  0  0  0  0  0  0  0
   -1.2447   12.0969   -8.7830 H   0  0  0  0  0  0  0  0  0  0  0  0
  1  2  1  0  0  0  0
  1  4  1  0  0  0  0
  1 13  1  0  0  0  0
  2  6  2  0  0  0  0
  3  4  2  0  0  0  0
  3  5  1  0  0  0  0
  5  6  1  0  0  0  0
  5  9  2  0  0  0  0
  6  7  1  0  0  0  0
  7  8  1  0  0  0  0
  7 10  2  3  0  0  0
  8  9  1  0  0  0  0
 10 15  1  0  0  0  0
 11 12  1  0  0  0  0
 11 13  1  0  0  0  0
 13 14  2  0  0  0  0
 15 16  2  0  0  0  0
 15 20  1  0  0  0  0
 16 17  1  0  0  0  0
 17 18  2  0  0  0  0
 17 21  1  0  0  0  0
 18 19  1  0  0  0  0
 18 23  1  0  0  0  0
 19 20  2  0  0  0  0
 21 22  1  0  0  0  0
 23 24  1  0  0  0  0
  1 25  1  0  0  0  0
  2 26  1  0  0  0  0
  3 27  1  0  0  0  0
  4 28  1  0  0  0  0
  8 29  1  0  0  0  0
 10 30  1  0  0  0  0
 11 31  1  0  0  0  0
 12 32  1  0  0  0  0
 12 33  1  0  0  0  0
 12 34  1  0  0  0  0
 16 35  1  0  0  0  0
 19 36  1  0  0  0  0
 20 37  1  0  0  0  0
 22 38  1  0  0  0  0
 22 39  1  0  0  0  0
 22 40  1  0  0  0  0
 24 41  1  0  0  0  0
 24 42  1  0  0  0  0
 24 43  1  0  0  0  0
M  END
> <Name>
15

> <IC50[uM]>
2.5

$$$$
15
  -OEChem-05192314333D
 Structure written by MMmdl.
 43 45  0     0  0  0  0  0  0999 V2000
   -6.3730   12.3647  -12.0124 C   0  0  0  0  0  0  0  0  0  0  0  0
   -6.5249   11.8167  -10.7375 C   0  0  0  0  0  0  0  0  0  0  0  0
   -7.7225   10.5819  -13.0270 C   0  0  0  0  0  0  0  0  0  0  0  0
   -6.9871   11.7813  -13.1320 C   0  0  0  0  0  0  0  0  0  0  0  0
   -7.8205   10.0150  -11.7538 C   0  0  0  0  0  0  0  0  0  0  0  0
   -7.2514   10.6217  -10.6093 C   0  0  0  0  0  0  0  0  0  0  0  0
   -7.6113    9.7463   -9.5119 C   0  0  0  0  0  0  0  0  0  0  0  0
   -8.2838    8.7282   -9.9768 N   0  0  0  0  0  0  0  0  0  0  0  0
   -8.4166    8.8609  -11.2984 N   0  0  0  0  0  0  0  0  0  0  0  0
   -7.3282    9.8959   -8.0269 C   0  0  0  0  0  0  0  0  0  0  0  0
   -4.4004   13.6489  -11.4541 N   0  0  0  0  0  0  0  0  0  0  0  0
   -3.4592   14.7715  -11.4916 C   0  0  0  0  0  0  0  0  0  0  0  0
   -5.5363   13.6231  -12.1917 C   0  0  0  0  0  0  0  0  0  0  0  0
   -5.8861   14.5056  -12.9557 O   0  0  0  0  0  0  0  0  0  0  0  0
   -5.9554   10.4909   -7.7390 C   0  0  0  0  0  0  0  0  0  0  0  0
   -5.8447   11.7612   -7.1661 C   0  0  0  0  0  0  0  0  0  0  0  0
   -4.5697   12.3054   -6.9214 C   0  0  0  0  0  0  0  0  0  0  0  0
   -3.4308   11.5801   -7.2259 C   0  0  0  0  0  0  0  0  0  0  0  0
   -3.5429   10.3015   -7.8076 C   0  0  0  0  0  0  0  0  0  0  0  0
   -4.8018    9.7661   -8.0596 C   0  0  0  0  0  0  0  0  0  0  0  0
   -4.4352   13.5609   -6.3638 O   0  0  0  0  0  0  0  0  0  0  0  0
   -3.6839   14.5445   -7.0766 C   0  0  0  0  0  0  0  0  0  0  0  0
   -2.1928   12.1397   -6.9410 O   0  0  0  0  0  0  0  0  0  0  0  0
   -1.0568   11.8071   -7.7386 C   0  0  0  0  0  0  0  0  0  0  0  0
   -6.0949   12.2992   -9.8722 H   0  0  0  0  0  0  0  0  0  0  0  0
   -8.7440   10.7853  -13.3808 H   0  0  0  0  0  0  0  0  0  0  0  0
   -7.2470    9.8407  -13.6861 H   0  0  0  0  0  0  0  0  0  0  0  0
   -6.8945   12.2613  -14.0950 H   0  0  0  0  0  0  0  0  0  0  0  0
   -8.6418    7.9709   -9.4306 H   0  0  0  0  0  0  0  0  0  0  0  0
   -8.0276    9.6101   -7.2552 H   0  0  0  0  0  0  0  0  0  0  0  0
   -4.1959   12.8707  -10.8602 H   0  0  0  0  0  0  0  0  0  0  0  0
   -2.6173   14.5676  -10.8136 H   0  0  0  0  0  0  0  0  0  0  0  0
   -3.0815   14.8991  -12.5168 H   0  0  0  0  0  0  0  0  0  0  0  0
   -3.9723   15.6908  -11.1728 H   0  0  0  0  0  0  0  0  0  0  0  0
   -6.7323   12.3219   -6.9127 H   0  0  0  0  0  0  0  0  0  0  0  0
   -2.6549    9.7395   -8.0568 H   0  0  0  0  0  0  0  0  0  0  0  0
   -4.8895    8.7861   -8.5049 H   0  0  0  0  0  0  0  0  0  0  0  0
   -3.6711   15.4833   -6.5034 H   0  0  0  0  0  0  0  0  0  0  0  0
   -2.6532   14.1872   -7.2178 H   0  0  0  0  0  0  0  0  0  0  0  0
   -4.1486   14.7205   -8.0580 H   0  0  0  0  0  0  0  0  0  0  0  0
   -0.1739   12.3445   -7.3623 H   0  0  0  0  0  0  0  0  0  0  0  0
   -0.8764   10.7233   -7.6856 H   0  0  0  0  0  0  0  0  0  0  0  0
   -1.2447   12.0969   -8.7830 H   0  0  0  0  0  0  0  0  0  0  0  0
  1  2  1  0  0  0  0
  1  4  2  0  0  0  0
  1 13  1  0  0  0  0
  2  6  2  0  0  0  0
  3  4  1  0  0  0  0
  3  5  1  0  0  0  0
  5  6  1  0  0  0  0
  5  9  2  0  0  0  0
  6  7  1  0  0  0  0
  7  8  1  0  0  0  0
  7 10  2  3  0  0  0
  8  9  1  0  0  0  0
 10 15  1  0  0  0  0
 11 12  1  0  0  0  0
 11 13  1  0  0  0  0
 13 14  2  0  0  0  0
 15 16  2  0  0  0  0
 15 20  1  0  0  0  0
 16 17  1  0  0  0  0
 17 18  2  0  0  0  0
 17 21  1  0  0  0  0
 18 19  1  0  0  0  0
 18 23  1  0  0  0  0
 19 20  2  0  0  0  0
 21 22  1  0  0  0  0
 23 24  1  0  0  0  0
  2 25  1  0  0  0  0
  3 26  1  0  0  0  0
  3 27  1  0  0  0  0
  4 28  1  0  0  0  0
  8 29  1  0  0  0  0
 10 30  1  0  0  0  0
 11 31  1  0  0  0  0
 12 32  1  0  0  0  0
 12 33  1  0  0  0  0
 12 34  1  0  0  0  0
 16 35  1  0  0  0  0
 19 36  1  0  0  0  0
 20 37  1  0  0  0  0
 22 38  1  0  0  0  0
 22 39  1  0  0  0  0
 22 40  1  0  0  0  0
 24 41  1  0  0  0  0
 24 42  1  0  0  0  0
 24 43  1  0  0  0  0
M  END
> <Name>
15

> <IC50[uM]>
2.5

$$$$
15
  -OEChem-05192314333D
 Structure written by MMmdl.
 43 45  0     1  0  0  0  0  0999 V2000
   -6.3730   12.3647  -12.0124 C   0  0  3  0  0  0  0  0  0  0  0  0
   -6.5249   11.8167  -10.7375 C   0  0  0  0  0  0  0  0  0  0  0  0
   -7.7225   10.5819  -13.0270 C   0  0  0  0  0  0  0  0  0  0  0  0
   -6.9871   11.7813  -13.1320 C   0  0  0  0  0  0  0  0  0  0  0  0
   -7.8205   10.0150  -11.7538 C   0  0  0  0  0  0  0  0  0  0  0  0
   -7.2514   10.6217  -10.6093 C   0  0  0  0  0  0  0  0  0  0  0  0
   -7.6113    9.7463   -9.5119 C   0  0  0  0  0  0  0  0  0  0  0  0
   -8.2838    8.7282   -9.9768 N   0  0  0  0  0  0  0  0  0  0  0  0
   -8.4166    8.8609  -11.2984 N   0  0  0  0  0  0  0  0  0  0  0  0
   -7.3282    9.8959   -8.0269 C   0  0  0  0  0  0  0  0  0  0  0  0
   -4.4004   13.6489  -11.4541 N   0  0  0  0  0  0  0  0  0  0  0  0
   -3.4592   14.7715  -11.4916 C   0  0  0  0  0  0  0  0  0  0  0  0
   -5.5363   13.6231  -12.1917 C   0  0  0  0  0  0  0  0  0  0  0  0
   -5.8861   14.5056  -12.9557 O   0  0  0  0  0  0  0  0  0  0  0  0
   -5.9554   10.4909   -7.7390 C   0  0  0  0  0  0  0  0  0  0  0  0
   -5.8447   11.7612   -7.1661 C   0  0  0  0  0  0  0  0  0  0  0  0
   -4.5697   12.3054   -6.9214 C   0  0  0  0  0  0  0  0  0  0  0  0
   -3.4308   11.5801   -7.2259 C   0  0  0  0  0  0  0  0  0  0  0  0
   -3.5429   10.3015   -7.8076 C   0  0  0  0  0  0  0  0  0  0  0  0
   -4.8018    9.7661   -8.0596 C   0  0  0  0  0  0  0  0  0  0  0  0
   -4.4352   13.5609   -6.3638 O   0  0  0  0  0  0  0  0  0  0  0  0
   -3.6839   14.5445   -7.0766 C   0  0  0  0  0  0  0  0  0  0  0  0
   -2.1928   12.1397   -6.9410 O   0  0  0  0  0  0  0  0  0  0  0  0
   -1.0568   11.8071   -7.7386 C   0  0  0  0  0  0  0  0  0  0  0  0
   -5.4795   11.7442  -12.1757 H   0  0  0  0  0  0  0  0  0  0  0  0
   -6.0949   12.2992   -9.8722 H   0  0  0  0  0  0  0  0  0  0  0  0
   -8.1868   10.1246  -13.8882 H   0  0  0  0  0  0  0  0  0  0  0  0
   -6.8945   12.2613  -14.0950 H   0  0  0  0  0  0  0  0  0  0  0  0
   -8.6418    7.9709   -9.4306 H   0  0  0  0  0  0  0  0  0  0  0  0
   -8.0276    9.6101   -7.2552 H   0  0  0  0  0  0  0  0  0  0  0  0
   -2.6173   14.5676  -10.8136 H   0  0  0  0  0  0  0  0  0  0  0  0
   -3.0815   14.8991  -12.5168 H   0  0  0  0  0  0  0  0  0  0  0  0
   -3.9723   15.6908  -11.1728 H   0  0  0  0  0  0  0  0  0  0  0  0
   -5.2484   15.2095  -12.9404 H   0  0  0  0  0  0  0  0  0  0  0  0
   -6.7323   12.3219   -6.9127 H   0  0  0  0  0  0  0  0  0  0  0  0
   -2.6549    9.7395   -8.0568 H   0  0  0  0  0  0  0  0  0  0  0  0
   -4.8895    8.7861   -8.5049 H   0  0  0  0  0  0  0  0  0  0  0  0
   -3.6711   15.4833   -6.5034 H   0  0  0  0  0  0  0  0  0  0  0  0
   -2.6532   14.1872   -7.2178 H   0  0  0  0  0  0  0  0  0  0  0  0
   -4.1486   14.7205   -8.0580 H   0  0  0  0  0  0  0  0  0  0  0  0
   -0.1739   12.3445   -7.3623 H   0  0  0  0  0  0  0  0  0  0  0  0
   -0.8764   10.7233   -7.6856 H   0  0  0  0  0  0  0  0  0  0  0  0
   -1.2447   12.0969   -8.7830 H   0  0  0  0  0  0  0  0  0  0  0  0
  1  2  1  0  0  0  0
  1  4  1  0  0  0  0
  1 13  1  0  0  0  0
  2  6  2  0  0  0  0
  3  4  2  0  0  0  0
  3  5  1  0  0  0  0
  5  6  1  0  0  0  0
  5  9  2  0  0  0  0
  6  7  1  0  0  0  0
  7  8  1  0  0  0  0
  7 10  2  3  0  0  0
  8  9  1  0  0  0  0
 10 15  1  0  0  0  0
 11 12  1  0  0  0  0
 11 13  2  0  0  0  0
 13 14  1  0  0  0  0
 15 16  2  0  0  0  0
 15 20  1  0  0  0  0
 16 17  1  0  0  0  0
 17 18  2  0  0  0  0
 17 21  1  0  0  0  0
 18 19  1  0  0  0  0
 18 23  1  0  0  0  0
 19 20  2  0  0  0  0
 21 22  1  0  0  0  0
 23 24  1  0  0  0  0
  1 25  1  0  0  0  0
  2 26  1  0  0  0  0
  3 27  1  0  0  0  0
  4 28  1  0  0  0  0
  8 29  1  0  0  0  0
 10 30  1  0  0  0  0
 12 31  1  0  0  0  0
 12 32  1  0  0  0  0
 12 33  1  0  0  0  0
 14 34  1  0  0  0  0
 16 35  1  0  0  0  0
 19 36  1  0  0  0  0
 20 37  1  0  0  0  0
 22 38  1  0  0  0  0
 22 39  1  0  0  0  0
 22 40  1  0  0  0  0
 24 41  1  0  0  0  0
 24 42  1  0  0  0  0
 24 43  1  0  0  0  0
M  END
> <Name>
15

> <IC50[uM]>
2.5

$$$$
15
  -OEChem-05192314333D
 Structure written by MMmdl.
 43 45  0     0  0  0  0  0  0999 V2000
   -6.3730   12.3647  -12.0124 C   0  0  0  0  0  0  0  0  0  0  0  0
   -6.5249   11.8167  -10.7375 C   0  0  0  0  0  0  0  0  0  0  0  0
   -7.7225   10.5819  -13.0270 C   0  0  0  0  0  0  0  0  0  0  0  0
   -6.9871   11.7813  -13.1320 C   0  0  0  0  0  0  0  0  0  0  0  0
   -7.8205   10.0150  -11.7538 C   0  0  0  0  0  0  0  0  0  0  0  0
   -7.2514   10.6217  -10.6093 C   0  0  0  0  0  0  0  0  0  0  0  0
   -7.6113    9.7463   -9.5119 C   0  0  0  0  0  0  0  0  0  0  0  0
   -8.2838    8.7282   -9.9768 N   0  0  0  0  0  0  0  0  0  0  0  0
   -8.4166    8.8609  -11.2984 N   0  0  0  0  0  0  0  0  0  0  0  0
   -7.3282    9.8959   -8.0269 C   0  0  0  0  0  0  0  0  0  0  0  0
   -4.4004   13.6489  -11.4541 N   0  0  0  0  0  0  0  0  0  0  0  0
   -3.4592   14.7715  -11.4916 C   0  0  0  0  0  0  0  0  0  0  0  0
   -5.5363   13.6231  -12.1917 C   0  0  0  0  0  0  0  0  0  0  0  0
   -5.8861   14.5056  -12.9557 O   0  0  0  0  0  0  0  0  0  0  0  0
   -5.9554   10.4909   -7.7390 C   0  0  0  0  0  0  0  0  0  0  0  0
   -5.8447   11.7612   -7.1661 C   0  0  0  0  0  0  0  0  0  0  0  0
   -4.5697   12.3054   -6.9214 C   0  0  0  0  0  0  0  0  0  0  0  0
   -3.4308   11.5801   -7.2259 C   0  0  0  0  0  0  0  0  0  0  0  0
   -3.5429   10.3015   -7.8076 C   0  0  0  0  0  0  0  0  0  0  0  0
   -4.8018    9.7661   -8.0596 C   0  0  0  0  0  0  0  0  0  0  0  0
   -4.4352   13.5609   -6.3638 O   0  0  0  0  0  0  0  0  0  0  0  0
   -3.6839   14.5445   -7.0766 C   0  0  0  0  0  0  0  0  0  0  0  0
   -2.1928   12.1397   -6.9410 O   0  0  0  0  0  0  0  0  0  0  0  0
   -1.0568   11.8071   -7.7386 C   0  0  0  0  0  0  0  0  0  0  0  0
   -6.0949   12.2992   -9.8722 H   0  0  0  0  0  0  0  0  0  0  0  0
   -8.7440   10.7853  -13.3808 H   0  0  0  0  0  0  0  0  0  0  0  0
   -7.2470    9.8407  -13.6861 H   0  0  0  0  0  0  0  0  0  0  0  0
   -6.8945   12.2613  -14.0950 H   0  0  0  0  0  0  0  0  0  0  0  0
   -8.6418    7.9709   -9.4306 H   0  0  0  0  0  0  0  0  0  0  0  0
   -8.0276    9.6101   -7.2552 H   0  0  0  0  0  0  0  0  0  0  0  0
   -2.6173   14.5676  -10.8136 H   0  0  0  0  0  0  0  0  0  0  0  0
   -3.0815   14.8991  -12.5168 H   0  0  0  0  0  0  0  0  0  0  0  0
   -3.9723   15.6908  -11.1728 H   0  0  0  0  0  0  0  0  0  0  0  0
   -5.2484   15.2095  -12.9404 H   0  0  0  0  0  0  0  0  0  0  0  0
   -6.7323   12.3219   -6.9127 H   0  0  0  0  0  0  0  0  0  0  0  0
   -2.6549    9.7395   -8.0568 H   0  0  0  0  0  0  0  0  0  0  0  0
   -4.8895    8.7861   -8.5049 H   0  0  0  0  0  0  0  0  0  0  0  0
   -3.6711   15.4833   -6.5034 H   0  0  0  0  0  0  0  0  0  0  0  0
   -2.6532   14.1872   -7.2178 H   0  0  0  0  0  0  0  0  0  0  0  0
   -4.1486   14.7205   -8.0580 H   0  0  0  0  0  0  0  0  0  0  0  0
   -0.1739   12.3445   -7.3623 H   0  0  0  0  0  0  0  0  0  0  0  0
   -0.8764   10.7233   -7.6856 H   0  0  0  0  0  0  0  0  0  0  0  0
   -1.2447   12.0969   -8.7830 H   0  0  0  0  0  0  0  0  0  0  0  0
  1  2  1  0  0  0  0
  1  4  2  0  0  0  0
  1 13  1  0  0  0  0
  2  6  2  0  0  0  0
  3  4  1  0  0  0  0
  3  5  1  0  0  0  0
  5  6  1  0  0  0  0
  5  9  2  0  0  0  0
  6  7  1  0  0  0  0
  7  8  1  0  0  0  0
  7 10  2  3  0  0  0
  8  9  1  0  0  0  0
 10 15  1  0  0  0  0
 11 12  1  0  0  0  0
 11 13  2  0  0  0  0
 13 14  1  0  0  0  0
 15 16  2  0  0  0  0
 15 20  1  0  0  0  0
 16 17  1  0  0  0  0
 17 18  2  0  0  0  0
 17 21  1  0  0  0  0
 18 19  1  0  0  0  0
 18 23  1  0  0  0  0
 19 20  2  0  0  0  0
 21 22  1  0  0  0  0
 23 24  1  0  0  0  0
  2 25  1  0  0  0  0
  3 26  1  0  0  0  0
  3 27  1  0  0  0  0
  4 28  1  0  0  0  0
  8 29  1  0  0  0  0
 10 30  1  0  0  0  0
 12 31  1  0  0  0  0
 12 32  1  0  0  0  0
 12 33  1  0  0  0  0
 14 34  1  0  0  0  0
 16 35  1  0  0  0  0
 19 36  1  0  0  0  0
 20 37  1  0  0  0  0
 22 38  1  0  0  0  0
 22 39  1  0  0  0  0
 22 40  1  0  0  0  0
 24 41  1  0  0  0  0
 24 42  1  0  0  0  0
 24 43  1  0  0  0  0
M  END
> <Name>
15

> <IC50[uM]>
2.5

$$$$
15
  -OEChem-05192314333D
 Structure written by MMmdl.
 43 45  0     1  0  0  0  0  0999 V2000
   -6.3730   12.3647  -12.0124 C   0  0  0  0  0  0  0  0  0  0  0  0
   -6.5249   11.8167  -10.7375 C   0  0  0  0  0  0  0  0  0  0  0  0
   -7.7225   10.5819  -13.0270 C   0  0  0  0  0  0  0  0  0  0  0  0
   -6.9871   11.7813  -13.1320 C   0  0  0  0  0  0  0  0  0  0  0  0
   -7.8205   10.0150  -11.7538 C   0  0  0  0  0  0  0  0  0  0  0  0
   -7.2514   10.6217  -10.6093 C   0  0  0  0  0  0  0  0  0  0  0  0
   -7.6113    9.7463   -9.5119 C   0  0  0  0  0  0  0  0  0  0  0  0
   -8.2838    8.7282   -9.9768 N   0  0  0  0  0  0  0  0  0  0  0  0
   -8.4166    8.8609  -11.2984 N   0  0  0  0  0  0  0  0  0  0  0  0
   -7.3282    9.8959   -8.0269 C   0  0  0  0  0  0  0  0  0  0  0  0
   -4.4004   13.6489  -11.4541 N   0  0  0  0  0  0  0  0  0  0  0  0
   -3.4592   14.7715  -11.4916 C   0  0  0  0  0  0  0  0  0  0  0  0
   -5.5363   13.6231  -12.1917 C   0  0  0  0  0  0  0  0  0  0  0  0
   -5.8861   14.5056  -12.9557 O   0  0  0  0  0  0  0  0  0  0  0  0
   -5.9554   10.4909   -7.7390 C   0  0  0  0  0  0  0  0  0  0  0  0
   -5.8447   11.7612   -7.1661 C   0  0  0  0  0  0  0  0  0  0  0  0
   -4.5697   12.3054   -6.9214 C   0  0  0  0  0  0  0  0  0  0  0  0
   -3.4308   11.5801   -7.2259 C   0  0  3  0  0  0  0  0  0  0  0  0
   -3.5429   10.3015   -7.8076 C   0  0  0  0  0  0  0  0  0  0  0  0
   -4.8018    9.7661   -8.0596 C   0  0  0  0  0  0  0  0  0  0  0  0
   -4.4352   13.5609   -6.3638 O   0  0  0  0  0  0  0  0  0  0  0  0
   -3.6839   14.5445   -7.0766 C   0  0  0  0  0  0  0  0  0  0  0  0
   -2.1928   12.1397   -6.9410 O   0  0  0  0  0  0  0  0  0  0  0  0
   -1.0568   11.8071   -7.7386 C   0  0  0  0  0  0  0  0  0  0  0  0
   -6.0949   12.2992   -9.8722 H   0  0  0  0  0  0  0  0  0  0  0  0
   -8.1868   10.1246  -13.8882 H   0  0  0  0  0  0  0  0  0  0  0  0
   -6.8945   12.2613  -14.0950 H   0  0  0  0  0  0  0  0  0  0  0  0
   -8.6418    7.9709   -9.4306 H   0  0  0  0  0  0  0  0  0  0  0  0
   -8.0276    9.6101   -7.2552 H   0  0  0  0  0  0  0  0  0  0  0  0
   -4.1959   12.8707  -10.8602 H   0  0  0  0  0  0  0  0  0  0  0  0
   -2.6173   14.5676  -10.8136 H   0  0  0  0  0  0  0  0  0  0  0  0
   -3.0815   14.8991  -12.5168 H   0  0  0  0  0  0  0  0  0  0  0  0
   -3.9723   15.6908  -11.1728 H   0  0  0  0  0  0  0  0  0  0  0  0
   -6.7323   12.3219   -6.9127 H   0  0  0  0  0  0  0  0  0  0  0  0
   -3.4073   12.0349   -8.2272 H   0  0  0  0  0  0  0  0  0  0  0  0
   -2.6549    9.7395   -8.0568 H   0  0  0  0  0  0  0  0  0  0  0  0
   -4.8895    8.7861   -8.5049 H   0  0  0  0  0  0  0  0  0  0  0  0
   -3.6711   15.4833   -6.5034 H   0  0  0  0  0  0  0  0  0  0  0  0
   -2.6532   14.1872   -7.2178 H   0  0  0  0  0  0  0  0  0  0  0  0
   -4.1486   14.7205   -8.0580 H   0  0  0  0  0  0  0  0  0  0  0  0
   -0.1739   12.3445   -7.3623 H   0  0  0  0  0  0  0  0  0  0  0  0
   -0.8764   10.7233   -7.6856 H   0  0  0  0  0  0  0  0  0  0  0  0
   -1.2447   12.0969   -8.7830 H   0  0  0  0  0  0  0  0  0  0  0  0
  1  2  2  0  0  0  0
  1  4  1  0  0  0  0
  1 13  1  0  0  0  0
  2  6  1  0  0  0  0
  3  4  2  0  0  0  0
  3  5  1  0  0  0  0
  5  6  1  0  0  0  0
  5  9  2  0  0  0  0
  6  7  2  0  0  0  0
  7  8  1  0  0  0  0
  7 10  1  0  0  0  0
  8  9  1  0  0  0  0
 10 15  2  3  0  0  0
 11 12  1  0  0  0  0
 11 13  1  0  0  0  0
 13 14  2  0  0  0  0
 15 16  1  0  0  0  0
 15 20  1  0  0  0  0
 16 17  2  0  0  0  0
 17 18  1  0  0  0  0
 17 21  1  0  0  0  0
 18 19  1  0  0  0  0
 18 23  1  0  0  0  0
 19 20  2  0  0  0  0
 21 22  1  0  0  0  0
 23 24  1  0  0  0  0
  2 25  1  0  0  0  0
  3 26  1  0  0  0  0
  4 27  1  0  0  0  0
  8 28  1  0  0  0  0
 10 29  1  0  0  0  0
 11 30  1  0  0  0  0
 12 31  1  0  0  0  0
 12 32  1  0  0  0  0
 12 33  1  0  0  0  0
 16 34  1  0  0  0  0
 18 35  1  0  0  0  0
 19 36  1  0  0  0  0
 20 37  1  0  0  0  0
 22 38  1  0  0  0  0
 22 39  1  0  0  0  0
 22 40  1  0  0  0  0
 24 41  1  0  0  0  0
 24 42  1  0  0  0  0
 24 43  1  0  0  0  0
M  END
> <Name>
15

> <IC50[uM]>
2.5

$$$$
15
  -OEChem-05192314333D
 Structure written by MMmdl.
 43 45  0     1  0  0  0  0  0999 V2000
   -6.3730   12.3647  -12.0124 C   0  0  0  0  0  0  0  0  0  0  0  0
   -6.5249   11.8167  -10.7375 C   0  0  0  0  0  0  0  0  0  0  0  0
   -7.7225   10.5819  -13.0270 C   0  0  0  0  0  0  0  0  0  0  0  0
   -6.9871   11.7813  -13.1320 C   0  0  0  0  0  0  0  0  0  0  0  0
   -7.8205   10.0150  -11.7538 C   0  0  0  0  0  0  0  0  0  0  0  0
   -7.2514   10.6217  -10.6093 C   0  0  0  0  0  0  0  0  0  0  0  0
   -7.6113    9.7463   -9.5119 C   0  0  0  0  0  0  0  0  0  0  0  0
   -8.2838    8.7282   -9.9768 N   0  0  0  0  0  0  0  0  0  0  0  0
   -8.4166    8.8609  -11.2984 N   0  0  0  0  0  0  0  0  0  0  0  0
   -7.3282    9.8959   -8.0269 C   0  0  0  0  0  0  0  0  0  0  0  0
   -4.4004   13.6489  -11.4541 N   0  0  0  0  0  0  0  0  0  0  0  0
   -3.4592   14.7715  -11.4916 C   0  0  0  0  0  0  0  0  0  0  0  0
   -5.5363   13.6231  -12.1917 C   0  0  0  0  0  0  0  0  0  0  0  0
   -5.8861   14.5056  -12.9557 O   0  0  0  0  0  0  0  0  0  0  0  0
   -5.9554   10.4909   -7.7390 C   0  0  0  0  0  0  0  0  0  0  0  0
   -5.8447   11.7612   -7.1661 C   0  0  0  0  0  0  0  0  0  0  0  0
   -4.5697   12.3054   -6.9214 C   0  0  0  0  0  0  0  0  0  0  0  0
   -3.4308   11.5801   -7.2259 C   0  0  3  0  0  0  0  0  0  0  0  0
   -3.5429   10.3015   -7.8076 C   0  0  0  0  0  0  0  0  0  0  0  0
   -4.8018    9.7661   -8.0596 C   0  0  0  0  0  0  0  0  0  0  0  0
   -4.4352   13.5609   -6.3638 O   0  0  0  0  0  0  0  0  0  0  0  0
   -3.6839   14.5445   -7.0766 C   0  0  0  0  0  0  0  0  0  0  0  0
   -2.1928   12.1397   -6.9410 O   0  0  0  0  0  0  0  0  0  0  0  0
   -1.0568   11.8071   -7.7386 C   0  0  0  0  0  0  0  0  0  0  0  0
   -6.0949   12.2992   -9.8722 H   0  0  0  0  0  0  0  0  0  0  0  0
   -8.1868   10.1246  -13.8882 H   0  0  0  0  0  0  0  0  0  0  0  0
   -6.8945   12.2613  -14.0950 H   0  0  0  0  0  0  0  0  0  0  0  0
   -8.8902    8.2036  -11.8847 H   0  0  0  0  0  0  0  0  0  0  0  0
   -8.0276    9.6101   -7.2552 H   0  0  0  0  0  0  0  0  0  0  0  0
   -4.1959   12.8707  -10.8602 H   0  0  0  0  0  0  0  0  0  0  0  0
   -2.6173   14.5676  -10.8136 H   0  0  0  0  0  0  0  0  0  0  0  0
   -3.0815   14.8991  -12.5168 H   0  0  0  0  0  0  0  0  0  0  0  0
   -3.9723   15.6908  -11.1728 H   0  0  0  0  0  0  0  0  0  0  0  0
   -6.7323   12.3219   -6.9127 H   0  0  0  0  0  0  0  0  0  0  0  0
   -3.4073   12.0349   -8.2272 H   0  0  0  0  0  0  0  0  0  0  0  0
   -2.6549    9.7395   -8.0568 H   0  0  0  0  0  0  0  0  0  0  0  0
   -4.8895    8.7861   -8.5049 H   0  0  0  0  0  0  0  0  0  0  0  0
   -3.6711   15.4833   -6.5034 H   0  0  0  0  0  0  0  0  0  0  0  0
   -2.6532   14.1872   -7.2178 H   0  0  0  0  0  0  0  0  0  0  0  0
   -4.1486   14.7205   -8.0580 H   0  0  0  0  0  0  0  0  0  0  0  0
   -0.1739   12.3445   -7.3623 H   0  0  0  0  0  0  0  0  0  0  0  0
   -0.8764   10.7233   -7.6856 H   0  0  0  0  0  0  0  0  0  0  0  0
   -1.2447   12.0969   -8.7830 H   0  0  0  0  0  0  0  0  0  0  0  0
  1  2  2  0  0  0  0
  1  4  1  0  0  0  0
  1 13  1  0  0  0  0
  2  6  1  0  0  0  0
  3  4  2  0  0  0  0
  3  5  1  0  0  0  0
  5  6  2  0  0  0  0
  5  9  1  0  0  0  0
  6  7  1  0  0  0  0
  7  8  2  0  0  0  0
  7 10  1  0  0  0  0
  8  9  1  0  0  0  0
 10 15  2  3  0  0  0
 11 12  1  0  0  0  0
 11 13  1  0  0  0  0
 13 14  2  0  0  0  0
 15 16  1  0  0  0  0
 15 20  1  0  0  0  0
 16 17  2  0  0  0  0
 17 18  1  0  0  0  0
 17 21  1  0  0  0  0
 18 19  1  0  0  0  0
 18 23  1  0  0  0  0
 19 20  2  0  0  0  0
 21 22  1  0  0  0  0
 23 24  1  0  0  0  0
  2 25  1  0  0  0  0
  3 26  1  0  0  0  0
  4 27  1  0  0  0  0
  9 28  1  0  0  0  0
 10 29  1  0  0  0  0
 11 30  1  0  0  0  0
 12 31  1  0  0  0  0
 12 32  1  0  0  0  0
 12 33  1  0  0  0  0
 16 34  1  0  0  0  0
 18 35  1  0  0  0  0
 19 36  1  0  0  0  0
 20 37  1  0  0  0  0
 22 38  1  0  0  0  0
 22 39  1  0  0  0  0
 22 40  1  0  0  0  0
 24 41  1  0  0  0  0
 24 42  1  0  0  0  0
 24 43  1  0  0  0  0
M  END
> <Name>
15

> <IC50[uM]>
2.5

$$$$
15
  -OEChem-05192314333D
 Structure written by MMmdl.
 43 45  0     0  0  0  0  0  0999 V2000
   -6.3730   12.3647  -12.0124 C   0  0  0  0  0  0  0  0  0  0  0  0
   -6.5249   11.8167  -10.7375 C   0  0  0  0  0  0  0  0  0  0  0  0
   -7.7225   10.5819  -13.0270 C   0  0  0  0  0  0  0  0  0  0  0  0
   -6.9871   11.7813  -13.1320 C   0  0  0  0  0  0  0  0  0  0  0  0
   -7.8205   10.0150  -11.7538 C   0  0  0  0  0  0  0  0  0  0  0  0
   -7.2514   10.6217  -10.6093 C   0  0  0  0  0  0  0  0  0  0  0  0
   -7.6113    9.7463   -9.5119 C   0  0  0  0  0  0  0  0  0  0  0  0
   -8.2838    8.7282   -9.9768 N   0  0  0  0  0  0  0  0  0  0  0  0
   -8.4166    8.8609  -11.2984 N   0  0  0  0  0  0  0  0  0  0  0  0
   -7.3282    9.8959   -8.0269 C   0  0  0  0  0  0  0  0  0  0  0  0
   -4.4004   13.6489  -11.4541 N   0  0  0  0  0  0  0  0  0  0  0  0
   -3.4592   14.7715  -11.4916 C   0  0  0  0  0  0  0  0  0  0  0  0
   -5.5363   13.6231  -12.1917 C   0  0  0  0  0  0  0  0  0  0  0  0
   -5.8861   14.5056  -12.9557 O   0  0  0  0  0  0  0  0  0  0  0  0
   -5.9554   10.4909   -7.7390 C   0  0  0  0  0  0  0  0  0  0  0  0
   -5.8447   11.7612   -7.1661 C   0  0  0  0  0  0  0  0  0  0  0  0
   -4.5697   12.3054   -6.9214 C   0  0  0  0  0  0  0  0  0  0  0  0
   -3.4308   11.5801   -7.2259 C   0  0  0  0  0  0  0  0  0  0  0  0
   -3.5429   10.3015   -7.8076 C   0  0  0  0  0  0  0  0  0  0  0  0
   -4.8018    9.7661   -8.0596 C   0  0  0  0  0  0  0  0  0  0  0  0
   -4.4352   13.5609   -6.3638 O   0  0  0  0  0  0  0  0  0  0  0  0
   -3.6839   14.5445   -7.0766 C   0  0  0  0  0  0  0  0  0  0  0  0
   -2.1928   12.1397   -6.9410 O   0  0  0  0  0  0  0  0  0  0  0  0
   -1.0568   11.8071   -7.7386 C   0  0  0  0  0  0  0  0  0  0  0  0
   -6.0949   12.2992   -9.8722 H   0  0  0  0  0  0  0  0  0  0  0  0
   -8.1868   10.1246  -13.8882 H   0  0  0  0  0  0  0  0  0  0  0  0
   -6.8945   12.2613  -14.0950 H   0  0  0  0  0  0  0  0  0  0  0  0
   -8.6418    7.9709   -9.4306 H   0  0  0  0  0  0  0  0  0  0  0  0
   -8.0276    9.6101   -7.2552 H   0  0  0  0  0  0  0  0  0  0  0  0
   -4.1959   12.8707  -10.8602 H   0  0  0  0  0  0  0  0  0  0  0  0
   -2.6173   14.5676  -10.8136 H   0  0  0  0  0  0  0  0  0  0  0  0
   -3.0815   14.8991  -12.5168 H   0  0  0  0  0  0  0  0  0  0  0  0
   -3.9723   15.6908  -11.1728 H   0  0  0  0  0  0  0  0  0  0  0  0
   -6.7323   12.3219   -6.9127 H   0  0  0  0  0  0  0  0  0  0  0  0
   -2.6549    9.7395   -8.0568 H   0  0  0  0  0  0  0  0  0  0  0  0
   -4.8592    8.8187   -7.5036 H   0  0  0  0  0  0  0  0  0  0  0  0
   -4.8475    9.5609   -9.1393 H   0  0  0  0  0  0  0  0  0  0  0  0
   -3.6711   15.4833   -6.5034 H   0  0  0  0  0  0  0  0  0  0  0  0
   -2.6532   14.1872   -7.2178 H   0  0  0  0  0  0  0  0  0  0  0  0
   -4.1486   14.7205   -8.0580 H   0  0  0  0  0  0  0  0  0  0  0  0
   -0.1739   12.3445   -7.3623 H   0  0  0  0  0  0  0  0  0  0  0  0
   -0.8764   10.7233   -7.6856 H   0  0  0  0  0  0  0  0  0  0  0  0
   -1.2447   12.0969   -8.7830 H   0  0  0  0  0  0  0  0  0  0  0  0
  1  2  2  0  0  0  0
  1  4  1  0  0  0  0
  1 13  1  0  0  0  0
  2  6  1  0  0  0  0
  3  4  2  0  0  0  0
  3  5  1  0  0  0  0
  5  6  1  0  0  0  0
  5  9  2  0  0  0  0
  6  7  2  0  0  0  0
  7  8  1  0  0  0  0
  7 10  1  0  0  0  0
  8  9  1  0  0  0  0
 10 15  2  3  0  0  0
 11 12  1  0  0  0  0
 11 13  1  0  0  0  0
 13 14  2  0  0  0  0
 15 16  1  0  0  0  0
 15 20  1  0  0  0  0
 16 17  2  0  0  0  0
 17 18  1  0  0  0  0
 17 21  1  0  0  0  0
 18 19  2  0  0  0  0
 18 23  1  0  0  0  0
 19 20  1  0  0  0  0
 21 22  1  0  0  0  0
 23 24  1  0  0  0  0
  2 25  1  0  0  0  0
  3 26  1  0  0  0  0
  4 27  1  0  0  0  0
  8 28  1  0  0  0  0
 10 29  1  0  0  0  0
 11 30  1  0  0  0  0
 12 31  1  0  0  0  0
 12 32  1  0  0  0  0
 12 33  1  0  0  0  0
 16 34  1  0  0  0  0
 19 35  1  0  0  0  0
 20 36  1  0  0  0  0
 20 37  1  0  0  0  0
 22 38  1  0  0  0  0
 22 39  1  0  0  0  0
 22 40  1  0  0  0  0
 24 41  1  0  0  0  0
 24 42  1  0  0  0  0
 24 43  1  0  0  0  0
M  END
> <Name>
15

> <IC50[uM]>
2.5

$$$$
15
  -OEChem-05192314333D
 Structure written by MMmdl.
 43 45  0     0  0  0  0  0  0999 V2000
   -6.3730   12.3647  -12.0124 C   0  0  0  0  0  0  0  0  0  0  0  0
   -6.5249   11.8167  -10.7375 C   0  0  0  0  0  0  0  0  0  0  0  0
   -7.7225   10.5819  -13.0270 C   0  0  0  0  0  0  0  0  0  0  0  0
   -6.9871   11.7813  -13.1320 C   0  0  0  0  0  0  0  0  0  0  0  0
   -7.8205   10.0150  -11.7538 C   0  0  0  0  0  0  0  0  0  0  0  0
   -7.2514   10.6217  -10.6093 C   0  0  0  0  0  0  0  0  0  0  0  0
   -7.6113    9.7463   -9.5119 C   0  0  0  0  0  0  0  0  0  0  0  0
   -8.2838    8.7282   -9.9768 N   0  0  0  0  0  0  0  0  0  0  0  0
   -8.4166    8.8609  -11.2984 N   0  0  0  0  0  0  0  0  0  0  0  0
   -7.3282    9.8959   -8.0269 C   0  0  0  0  0  0  0  0  0  0  0  0
   -4.4004   13.6489  -11.4541 N   0  0  0  0  0  0  0  0  0  0  0  0
   -3.4592   14.7715  -11.4916 C   0  0  0  0  0  0  0  0  0  0  0  0
   -5.5363   13.6231  -12.1917 C   0  0  0  0  0  0  0  0  0  0  0  0
   -5.8861   14.5056  -12.9557 O   0  0  0  0  0  0  0  0  0  0  0  0
   -5.9554   10.4909   -7.7390 C   0  0  0  0  0  0  0  0  0  0  0  0
   -5.8447   11.7612   -7.1661 C   0  0  0  0  0  0  0  0  0  0  0  0
   -4.5697   12.3054   -6.9214 C   0  0  0  0  0  0  0  0  0  0  0  0
   -3.4308   11.5801   -7.2259 C   0  0  0  0  0  0  0  0  0  0  0  0
   -3.5429   10.3015   -7.8076 C   0  0  0  0  0  0  0  0  0  0  0  0
   -4.8018    9.7661   -8.0596 C   0  0  0  0  0  0  0  0  0  0  0  0
   -4.4352   13.5609   -6.3638 O   0  0  0  0  0  0  0  0  0  0  0  0
   -3.6839   14.5445   -7.0766 C   0  0  0  0  0  0  0  0  0  0  0  0
   -2.1928   12.1397   -6.9410 O   0  0  0  0  0  0  0  0  0  0  0  0
   -1.0568   11.8071   -7.7386 C   0  0  0  0  0  0  0  0  0  0  0  0
   -6.0949   12.2992   -9.8722 H   0  0  0  0  0  0  0  0  0  0  0  0
   -8.1868   10.1246  -13.8882 H   0  0  0  0  0  0  0  0  0  0  0  0
   -6.8945   12.2613  -14.0950 H   0  0  0  0  0  0  0  0  0  0  0  0
   -8.8902    8.2036  -11.8847 H   0  0  0  0  0  0  0  0  0  0  0  0
   -8.0276    9.6101   -7.2552 H   0  0  0  0  0  0  0  0  0  0  0  0
   -4.1959   12.8707  -10.8602 H   0  0  0  0  0  0  0  0  0  0  0  0
   -2.6173   14.5676  -10.8136 H   0  0  0  0  0  0  0  0  0  0  0  0
   -3.0815   14.8991  -12.5168 H   0  0  0  0  0  0  0  0  0  0  0  0
   -3.9723   15.6908  -11.1728 H   0  0  0  0  0  0  0  0  0  0  0  0
   -6.7323   12.3219   -6.9127 H   0  0  0  0  0  0  0  0  0  0  0  0
   -2.6549    9.7395   -8.0568 H   0  0  0  0  0  0  0  0  0  0  0  0
   -4.8592    8.8187   -7.5036 H   0  0  0  0  0  0  0  0  0  0  0  0
   -4.8475    9.5609   -9.1393 H   0  0  0  0  0  0  0  0  0  0  0  0
   -3.6711   15.4833   -6.5034 H   0  0  0  0  0  0  0  0  0  0  0  0
   -2.6532   14.1872   -7.2178 H   0  0  0  0  0  0  0  0  0  0  0  0
   -4.1486   14.7205   -8.0580 H   0  0  0  0  0  0  0  0  0  0  0  0
   -0.1739   12.3445   -7.3623 H   0  0  0  0  0  0  0  0  0  0  0  0
   -0.8764   10.7233   -7.6856 H   0  0  0  0  0  0  0  0  0  0  0  0
   -1.2447   12.0969   -8.7830 H   0  0  0  0  0  0  0  0  0  0  0  0
  1  2  2  0  0  0  0
  1  4  1  0  0  0  0
  1 13  1  0  0  0  0
  2  6  1  0  0  0  0
  3  4  2  0  0  0  0
  3  5  1  0  0  0  0
  5  6  2  0  0  0  0
  5  9  1  0  0  0  0
  6  7  1  0  0  0  0
  7  8  2  0  0  0  0
  7 10  1  0  0  0  0
  8  9  1  0  0  0  0
 10 15  2  3  0  0  0
 11 12  1  0  0  0  0
 11 13  1  0  0  0  0
 13 14  2  0  0  0  0
 15 16  1  0  0  0  0
 15 20  1  0  0  0  0
 16 17  2  0  0  0  0
 17 18  1  0  0  0  0
 17 21  1  0  0  0  0
 18 19  2  0  0  0  0
 18 23  1  0  0  0  0
 19 20  1  0  0  0  0
 21 22  1  0  0  0  0
 23 24  1  0  0  0  0
  2 25  1  0  0  0  0
  3 26  1  0  0  0  0
  4 27  1  0  0  0  0
  9 28  1  0  0  0  0
 10 29  1  0  0  0  0
 11 30  1  0  0  0  0
 12 31  1  0  0  0  0
 12 32  1  0  0  0  0
 12 33  1  0  0  0  0
 16 34  1  0  0  0  0
 19 35  1  0  0  0  0
 20 36  1  0  0  0  0
 20 37  1  0  0  0  0
 22 38  1  0  0  0  0
 22 39  1  0  0  0  0
 22 40  1  0  0  0  0
 24 41  1  0  0  0  0
 24 42  1  0  0  0  0
 24 43  1  0  0  0  0
M  END
> <Name>
15

> <IC50[uM]>
2.5

$$$$
15
  -OEChem-05192314333D
 Structure written by MMmdl.
 43 45  0     0  0  0  0  0  0999 V2000
   -6.3730   12.3647  -12.0124 C   0  0  0  0  0  0  0  0  0  0  0  0
   -6.5249   11.8167  -10.7375 C   0  0  0  0  0  0  0  0  0  0  0  0
   -7.7225   10.5819  -13.0270 C   0  0  0  0  0  0  0  0  0  0  0  0
   -6.9871   11.7813  -13.1320 C   0  0  0  0  0  0  0  0  0  0  0  0
   -7.8205   10.0150  -11.7538 C   0  0  0  0  0  0  0  0  0  0  0  0
   -7.2514   10.6217  -10.6093 C   0  0  0  0  0  0  0  0  0  0  0  0
   -7.6113    9.7463   -9.5119 C   0  0  0  0  0  0  0  0  0  0  0  0
   -8.2838    8.7282   -9.9768 N   0  0  0  0  0  0  0  0  0  0  0  0
   -8.4166    8.8609  -11.2984 N   0  0  0  0  0  0  0  0  0  0  0  0
   -7.3282    9.8959   -8.0269 C   0  0  0  0  0  0  0  0  0  0  0  0
   -4.4004   13.6489  -11.4541 N   0  0  0  0  0  0  0  0  0  0  0  0
   -3.4592   14.7715  -11.4916 C   0  0  0  0  0  0  0  0  0  0  0  0
   -5.5363   13.6231  -12.1917 C   0  0  0  0  0  0  0  0  0  0  0  0
   -5.8861   14.5056  -12.9557 O   0  0  0  0  0  0  0  0  0  0  0  0
   -5.9554   10.4909   -7.7390 C   0  0  0  0  0  0  0  0  0  0  0  0
   -5.8447   11.7612   -7.1661 C   0  0  0  0  0  0  0  0  0  0  0  0
   -4.5697   12.3054   -6.9214 C   0  0  0  0  0  0  0  0  0  0  0  0
   -3.4308   11.5801   -7.2259 C   0  0  0  0  0  0  0  0  0  0  0  0
   -3.5429   10.3015   -7.8076 C   0  0  0  0  0  0  0  0  0  0  0  0
   -4.8018    9.7661   -8.0596 C   0  0  0  0  0  0  0  0  0  0  0  0
   -4.4352   13.5609   -6.3638 O   0  0  0  0  0  0  0  0  0  0  0  0
   -3.6839   14.5445   -7.0766 C   0  0  0  0  0  0  0  0  0  0  0  0
   -2.1928   12.1397   -6.9410 O   0  0  0  0  0  0  0  0  0  0  0  0
   -1.0568   11.8071   -7.7386 C   0  0  0  0  0  0  0  0  0  0  0  0
   -6.0949   12.2992   -9.8722 H   0  0  0  0  0  0  0  0  0  0  0  0
   -8.1868   10.1246  -13.8882 H   0  0  0  0  0  0  0  0  0  0  0  0
   -6.8945   12.2613  -14.0950 H   0  0  0  0  0  0  0  0  0  0  0  0
   -8.6418    7.9709   -9.4306 H   0  0  0  0  0  0  0  0  0  0  0  0
   -8.0276    9.6101   -7.2552 H   0  0  0  0  0  0  0  0  0  0  0  0
   -4.1959   12.8707  -10.8602 H   0  0  0  0  0  0  0  0  0  0  0  0
   -2.6173   14.5676  -10.8136 H   0  0  0  0  0  0  0  0  0  0  0  0
   -3.0815   14.8991  -12.5168 H   0  0  0  0  0  0  0  0  0  0  0  0
   -3.9723   15.6908  -11.1728 H   0  0  0  0  0  0  0  0  0  0  0  0
   -6.3671   12.4602   -7.8358 H   0  0  0  0  0  0  0  0  0  0  0  0
   -6.3661   11.7216   -6.1984 H   0  0  0  0  0  0  0  0  0  0  0  0
   -2.6549    9.7395   -8.0568 H   0  0  0  0  0  0  0  0  0  0  0  0
   -4.8895    8.7861   -8.5049 H   0  0  0  0  0  0  0  0  0  0  0  0
   -3.6711   15.4833   -6.5034 H   0  0  0  0  0  0  0  0  0  0  0  0
   -2.6532   14.1872   -7.2178 H   0  0  0  0  0  0  0  0  0  0  0  0
   -4.1486   14.7205   -8.0580 H   0  0  0  0  0  0  0  0  0  0  0  0
   -0.1739   12.3445   -7.3623 H   0  0  0  0  0  0  0  0  0  0  0  0
   -0.8764   10.7233   -7.6856 H   0  0  0  0  0  0  0  0  0  0  0  0
   -1.2447   12.0969   -8.7830 H   0  0  0  0  0  0  0  0  0  0  0  0
  1  2  2  0  0  0  0
  1  4  1  0  0  0  0
  1 13  1  0  0  0  0
  2  6  1  0  0  0  0
  3  4  2  0  0  0  0
  3  5  1  0  0  0  0
  5  6  1  0  0  0  0
  5  9  2  0  0  0  0
  6  7  2  0  0  0  0
  7  8  1  0  0  0  0
  7 10  1  0  0  0  0
  8  9  1  0  0  0  0
 10 15  2  3  0  0  0
 11 12  1  0  0  0  0
 11 13  1  0  0  0  0
 13 14  2  0  0  0  0
 15 16  1  0  0  0  0
 15 20  1  0  0  0  0
 16 17  1  0  0  0  0
 17 18  2  0  0  0  0
 17 21  1  0  0  0  0
 18 19  1  0  0  0  0
 18 23  1  0  0  0  0
 19 20  2  0  0  0  0
 21 22  1  0  0  0  0
 23 24  1  0  0  0  0
  2 25  1  0  0  0  0
  3 26  1  0  0  0  0
  4 27  1  0  0  0  0
  8 28  1  0  0  0  0
 10 29  1  0  0  0  0
 11 30  1  0  0  0  0
 12 31  1  0  0  0  0
 12 32  1  0  0  0  0
 12 33  1  0  0  0  0
 16 34  1  0  0  0  0
 16 35  1  0  0  0  0
 19 36  1  0  0  0  0
 20 37  1  0  0  0  0
 22 38  1  0  0  0  0
 22 39  1  0  0  0  0
 22 40  1  0  0  0  0
 24 41  1  0  0  0  0
 24 42  1  0  0  0  0
 24 43  1  0  0  0  0
M  END
> <Name>
15

> <IC50[uM]>
2.5

$$$$
15
  -OEChem-05192314333D
 Structure written by MMmdl.
 43 45  0     0  0  0  0  0  0999 V2000
   -6.3730   12.3647  -12.0124 C   0  0  0  0  0  0  0  0  0  0  0  0
   -6.5249   11.8167  -10.7375 C   0  0  0  0  0  0  0  0  0  0  0  0
   -7.7225   10.5819  -13.0270 C   0  0  0  0  0  0  0  0  0  0  0  0
   -6.9871   11.7813  -13.1320 C   0  0  0  0  0  0  0  0  0  0  0  0
   -7.8205   10.0150  -11.7538 C   0  0  0  0  0  0  0  0  0  0  0  0
   -7.2514   10.6217  -10.6093 C   0  0  0  0  0  0  0  0  0  0  0  0
   -7.6113    9.7463   -9.5119 C   0  0  0  0  0  0  0  0  0  0  0  0
   -8.2838    8.7282   -9.9768 N   0  0  0  0  0  0  0  0  0  0  0  0
   -8.4166    8.8609  -11.2984 N   0  0  0  0  0  0  0  0  0  0  0  0
   -7.3282    9.8959   -8.0269 C   0  0  0  0  0  0  0  0  0  0  0  0
   -4.4004   13.6489  -11.4541 N   0  0  0  0  0  0  0  0  0  0  0  0
   -3.4592   14.7715  -11.4916 C   0  0  0  0  0  0  0  0  0  0  0  0
   -5.5363   13.6231  -12.1917 C   0  0  0  0  0  0  0  0  0  0  0  0
   -5.8861   14.5056  -12.9557 O   0  0  0  0  0  0  0  0  0  0  0  0
   -5.9554   10.4909   -7.7390 C   0  0  0  0  0  0  0  0  0  0  0  0
   -5.8447   11.7612   -7.1661 C   0  0  0  0  0  0  0  0  0  0  0  0
   -4.5697   12.3054   -6.9214 C   0  0  0  0  0  0  0  0  0  0  0  0
   -3.4308   11.5801   -7.2259 C   0  0  0  0  0  0  0  0  0  0  0  0
   -3.5429   10.3015   -7.8076 C   0  0  0  0  0  0  0  0  0  0  0  0
   -4.8018    9.7661   -8.0596 C   0  0  0  0  0  0  0  0  0  0  0  0
   -4.4352   13.5609   -6.3638 O   0  0  0  0  0  0  0  0  0  0  0  0
   -3.6839   14.5445   -7.0766 C   0  0  0  0  0  0  0  0  0  0  0  0
   -2.1928   12.1397   -6.9410 O   0  0  0  0  0  0  0  0  0  0  0  0
   -1.0568   11.8071   -7.7386 C   0  0  0  0  0  0  0  0  0  0  0  0
   -6.0949   12.2992   -9.8722 H   0  0  0  0  0  0  0  0  0  0  0  0
   -8.1868   10.1246  -13.8882 H   0  0  0  0  0  0  0  0  0  0  0  0
   -6.8945   12.2613  -14.0950 H   0  0  0  0  0  0  0  0  0  0  0  0
   -8.8902    8.2036  -11.8847 H   0  0  0  0  0  0  0  0  0  0  0  0
   -8.0276    9.6101   -7.2552 H   0  0  0  0  0  0  0  0  0  0  0  0
   -4.1959   12.8707  -10.8602 H   0  0  0  0  0  0  0  0  0  0  0  0
   -2.6173   14.5676  -10.8136 H   0  0  0  0  0  0  0  0  0  0  0  0
   -3.0815   14.8991  -12.5168 H   0  0  0  0  0  0  0  0  0  0  0  0
   -3.9723   15.6908  -11.1728 H   0  0  0  0  0  0  0  0  0  0  0  0
   -6.3671   12.4602   -7.8358 H   0  0  0  0  0  0  0  0  0  0  0  0
   -6.3661   11.7216   -6.1984 H   0  0  0  0  0  0  0  0  0  0  0  0
   -2.6549    9.7395   -8.0568 H   0  0  0  0  0  0  0  0  0  0  0  0
   -4.8895    8.7861   -8.5049 H   0  0  0  0  0  0  0  0  0  0  0  0
   -3.6711   15.4833   -6.5034 H   0  0  0  0  0  0  0  0  0  0  0  0
   -2.6532   14.1872   -7.2178 H   0  0  0  0  0  0  0  0  0  0  0  0
   -4.1486   14.7205   -8.0580 H   0  0  0  0  0  0  0  0  0  0  0  0
   -0.1739   12.3445   -7.3623 H   0  0  0  0  0  0  0  0  0  0  0  0
   -0.8764   10.7233   -7.6856 H   0  0  0  0  0  0  0  0  0  0  0  0
   -1.2447   12.0969   -8.7830 H   0  0  0  0  0  0  0  0  0  0  0  0
  1  2  2  0  0  0  0
  1  4  1  0  0  0  0
  1 13  1  0  0  0  0
  2  6  1  0  0  0  0
  3  4  2  0  0  0  0
  3  5  1  0  0  0  0
  5  6  2  0  0  0  0
  5  9  1  0  0  0  0
  6  7  1  0  0  0  0
  7  8  2  0  0  0  0
  7 10  1  0  0  0  0
  8  9  1  0  0  0  0
 10 15  2  3  0  0  0
 11 12  1  0  0  0  0
 11 13  1  0  0  0  0
 13 14  2  0  0  0  0
 15 16  1  0  0  0  0
 15 20  1  0  0  0  0
 16 17  1  0  0  0  0
 17 18  2  0  0  0  0
 17 21  1  0  0  0  0
 18 19  1  0  0  0  0
 18 23  1  0  0  0  0
 19 20  2  0  0  0  0
 21 22  1  0  0  0  0
 23 24  1  0  0  0  0
  2 25  1  0  0  0  0
  3 26  1  0  0  0  0
  4 27  1  0  0  0  0
  9 28  1  0  0  0  0
 10 29  1  0  0  0  0
 11 30  1  0  0  0  0
 12 31  1  0  0  0  0
 12 32  1  0  0  0  0
 12 33  1  0  0  0  0
 16 34  1  0  0  0  0
 16 35  1  0  0  0  0
 19 36  1  0  0  0  0
 20 37  1  0  0  0  0
 22 38  1  0  0  0  0
 22 39  1  0  0  0  0
 22 40  1  0  0  0  0
 24 41  1  0  0  0  0
 24 42  1  0  0  0  0
 24 43  1  0  0  0  0
M  END
> <Name>
15

> <IC50[uM]>
2.5

$$$$
15
  -OEChem-05192314333D
 Structure written by MMmdl.
 43 45  0     1  0  0  0  0  0999 V2000
   -6.3730   12.3647  -12.0124 C   0  0  0  0  0  0  0  0  0  0  0  0
   -6.5249   11.8167  -10.7375 C   0  0  0  0  0  0  0  0  0  0  0  0
   -7.7225   10.5819  -13.0270 C   0  0  0  0  0  0  0  0  0  0  0  0
   -6.9871   11.7813  -13.1320 C   0  0  0  0  0  0  0  0  0  0  0  0
   -7.8205   10.0150  -11.7538 C   0  0  0  0  0  0  0  0  0  0  0  0
   -7.2514   10.6217  -10.6093 C   0  0  0  0  0  0  0  0  0  0  0  0
   -7.6113    9.7463   -9.5119 C   0  0  0  0  0  0  0  0  0  0  0  0
   -8.2838    8.7282   -9.9768 N   0  0  0  0  0  0  0  0  0  0  0  0
   -8.4166    8.8609  -11.2984 N   0  0  0  0  0  0  0  0  0  0  0  0
   -7.3282    9.8959   -8.0269 C   0  0  0  0  0  0  0  0  0  0  0  0
   -4.4004   13.6489  -11.4541 N   0  0  0  0  0  0  0  0  0  0  0  0
   -3.4592   14.7715  -11.4916 C   0  0  0  0  0  0  0  0  0  0  0  0
   -5.5363   13.6231  -12.1917 C   0  0  0  0  0  0  0  0  0  0  0  0
   -5.8861   14.5056  -12.9557 O   0  0  0  0  0  0  0  0  0  0  0  0
   -5.9554   10.4909   -7.7390 C   0  0  0  0  0  0  0  0  0  0  0  0
   -5.8447   11.7612   -7.1661 C   0  0  0  0  0  0  0  0  0  0  0  0
   -4.5697   12.3054   -6.9214 C   0  0  0  0  0  0  0  0  0  0  0  0
   -3.4308   11.5801   -7.2259 C   0  0  3  0  0  0  0  0  0  0  0  0
   -3.5429   10.3015   -7.8076 C   0  0  0  0  0  0  0  0  0  0  0  0
   -4.8018    9.7661   -8.0596 C   0  0  0  0  0  0  0  0  0  0  0  0
   -4.4352   13.5609   -6.3638 O   0  0  0  0  0  0  0  0  0  0  0  0
   -3.6839   14.5445   -7.0766 C   0  0  0  0  0  0  0  0  0  0  0  0
   -2.1928   12.1397   -6.9410 O   0  0  0  0  0  0  0  0  0  0  0  0
   -1.0568   11.8071   -7.7386 C   0  0  0  0  0  0  0  0  0  0  0  0
   -6.0949   12.2992   -9.8722 H   0  0  0  0  0  0  0  0  0  0  0  0
   -8.1868   10.1246  -13.8882 H   0  0  0  0  0  0  0  0  0  0  0  0
   -6.8945   12.2613  -14.0950 H   0  0  0  0  0  0  0  0  0  0  0  0
   -8.6418    7.9709   -9.4306 H   0  0  0  0  0  0  0  0  0  0  0  0
   -8.0276    9.6101   -7.2552 H   0  0  0  0  0  0  0  0  0  0  0  0
   -2.6173   14.5676  -10.8136 H   0  0  0  0  0  0  0  0  0  0  0  0
   -3.0815   14.8991  -12.5168 H   0  0  0  0  0  0  0  0  0  0  0  0
   -3.9723   15.6908  -11.1728 H   0  0  0  0  0  0  0  0  0  0  0  0
   -5.2484   15.2095  -12.9404 H   0  0  0  0  0  0  0  0  0  0  0  0
   -6.7323   12.3219   -6.9127 H   0  0  0  0  0  0  0  0  0  0  0  0
   -3.4073   12.0349   -8.2272 H   0  0  0  0  0  0  0  0  0  0  0  0
   -2.6549    9.7395   -8.0568 H   0  0  0  0  0  0  0  0  0  0  0  0
   -4.8895    8.7861   -8.5049 H   0  0  0  0  0  0  0  0  0  0  0  0
   -3.6711   15.4833   -6.5034 H   0  0  0  0  0  0  0  0  0  0  0  0
   -2.6532   14.1872   -7.2178 H   0  0  0  0  0  0  0  0  0  0  0  0
   -4.1486   14.7205   -8.0580 H   0  0  0  0  0  0  0  0  0  0  0  0
   -0.1739   12.3445   -7.3623 H   0  0  0  0  0  0  0  0  0  0  0  0
   -0.8764   10.7233   -7.6856 H   0  0  0  0  0  0  0  0  0  0  0  0
   -1.2447   12.0969   -8.7830 H   0  0  0  0  0  0  0  0  0  0  0  0
  1  2  2  0  0  0  0
  1  4  1  0  0  0  0
  1 13  1  0  0  0  0
  2  6  1  0  0  0  0
  3  4  2  0  0  0  0
  3  5  1  0  0  0  0
  5  6  1  0  0  0  0
  5  9  2  0  0  0  0
  6  7  2  0  0  0  0
  7  8  1  0  0  0  0
  7 10  1  0  0  0  0
  8  9  1  0  0  0  0
 10 15  2  3  0  0  0
 11 12  1  0  0  0  0
 11 13  2  0  0  0  0
 13 14  1  0  0  0  0
 15 16  1  0  0  0  0
 15 20  1  0  0  0  0
 16 17  2  0  0  0  0
 17 18  1  0  0  0  0
 17 21  1  0  0  0  0
 18 19  1  0  0  0  0
 18 23  1  0  0  0  0
 19 20  2  0  0  0  0
 21 22  1  0  0  0  0
 23 24  1  0  0  0  0
  2 25  1  0  0  0  0
  3 26  1  0  0  0  0
  4 27  1  0  0  0  0
  8 28  1  0  0  0  0
 10 29  1  0  0  0  0
 12 30  1  0  0  0  0
 12 31  1  0  0  0  0
 12 32  1  0  0  0  0
 14 33  1  0  0  0  0
 16 34  1  0  0  0  0
 18 35  1  0  0  0  0
 19 36  1  0  0  0  0
 20 37  1  0  0  0  0
 22 38  1  0  0  0  0
 22 39  1  0  0  0  0
 22 40  1  0  0  0  0
 24 41  1  0  0  0  0
 24 42  1  0  0  0  0
 24 43  1  0  0  0  0
M  END
> <Name>
15

> <IC50[uM]>
2.5

$$$$
15
  -OEChem-05192314333D
 Structure written by MMmdl.
 43 45  0     1  0  0  0  0  0999 V2000
   -6.3730   12.3647  -12.0124 C   0  0  0  0  0  0  0  0  0  0  0  0
   -6.5249   11.8167  -10.7375 C   0  0  0  0  0  0  0  0  0  0  0  0
   -7.7225   10.5819  -13.0270 C   0  0  0  0  0  0  0  0  0  0  0  0
   -6.9871   11.7813  -13.1320 C   0  0  0  0  0  0  0  0  0  0  0  0
   -7.8205   10.0150  -11.7538 C   0  0  0  0  0  0  0  0  0  0  0  0
   -7.2514   10.6217  -10.6093 C   0  0  0  0  0  0  0  0  0  0  0  0
   -7.6113    9.7463   -9.5119 C   0  0  0  0  0  0  0  0  0  0  0  0
   -8.2838    8.7282   -9.9768 N   0  0  0  0  0  0  0  0  0  0  0  0
   -8.4166    8.8609  -11.2984 N   0  0  0  0  0  0  0  0  0  0  0  0
   -7.3282    9.8959   -8.0269 C   0  0  0  0  0  0  0  0  0  0  0  0
   -4.4004   13.6489  -11.4541 N   0  0  0  0  0  0  0  0  0  0  0  0
   -3.4592   14.7715  -11.4916 C   0  0  0  0  0  0  0  0  0  0  0  0
   -5.5363   13.6231  -12.1917 C   0  0  0  0  0  0  0  0  0  0  0  0
   -5.8861   14.5056  -12.9557 O   0  0  0  0  0  0  0  0  0  0  0  0
   -5.9554   10.4909   -7.7390 C   0  0  0  0  0  0  0  0  0  0  0  0
   -5.8447   11.7612   -7.1661 C   0  0  0  0  0  0  0  0  0  0  0  0
   -4.5697   12.3054   -6.9214 C   0  0  0  0  0  0  0  0  0  0  0  0
   -3.4308   11.5801   -7.2259 C   0  0  3  0  0  0  0  0  0  0  0  0
   -3.5429   10.3015   -7.8076 C   0  0  0  0  0  0  0  0  0  0  0  0
   -4.8018    9.7661   -8.0596 C   0  0  0  0  0  0  0  0  0  0  0  0
   -4.4352   13.5609   -6.3638 O   0  0  0  0  0  0  0  0  0  0  0  0
   -3.6839   14.5445   -7.0766 C   0  0  0  0  0  0  0  0  0  0  0  0
   -2.1928   12.1397   -6.9410 O   0  0  0  0  0  0  0  0  0  0  0  0
   -1.0568   11.8071   -7.7386 C   0  0  0  0  0  0  0  0  0  0  0  0
   -6.0949   12.2992   -9.8722 H   0  0  0  0  0  0  0  0  0  0  0  0
   -8.1868   10.1246  -13.8882 H   0  0  0  0  0  0  0  0  0  0  0  0
   -6.8945   12.2613  -14.0950 H   0  0  0  0  0  0  0  0  0  0  0  0
   -8.8902    8.2036  -11.8847 H   0  0  0  0  0  0  0  0  0  0  0  0
   -8.0276    9.6101   -7.2552 H   0  0  0  0  0  0  0  0  0  0  0  0
   -2.6173   14.5676  -10.8136 H   0  0  0  0  0  0  0  0  0  0  0  0
   -3.0815   14.8991  -12.5168 H   0  0  0  0  0  0  0  0  0  0  0  0
   -3.9723   15.6908  -11.1728 H   0  0  0  0  0  0  0  0  0  0  0  0
   -5.2484   15.2095  -12.9404 H   0  0  0  0  0  0  0  0  0  0  0  0
   -6.7323   12.3219   -6.9127 H   0  0  0  0  0  0  0  0  0  0  0  0
   -3.4073   12.0349   -8.2272 H   0  0  0  0  0  0  0  0  0  0  0  0
   -2.6549    9.7395   -8.0568 H   0  0  0  0  0  0  0  0  0  0  0  0
   -4.8895    8.7861   -8.5049 H   0  0  0  0  0  0  0  0  0  0  0  0
   -3.6711   15.4833   -6.5034 H   0  0  0  0  0  0  0  0  0  0  0  0
   -2.6532   14.1872   -7.2178 H   0  0  0  0  0  0  0  0  0  0  0  0
   -4.1486   14.7205   -8.0580 H   0  0  0  0  0  0  0  0  0  0  0  0
   -0.1739   12.3445   -7.3623 H   0  0  0  0  0  0  0  0  0  0  0  0
   -0.8764   10.7233   -7.6856 H   0  0  0  0  0  0  0  0  0  0  0  0
   -1.2447   12.0969   -8.7830 H   0  0  0  0  0  0  0  0  0  0  0  0
  1  2  2  0  0  0  0
  1  4  1  0  0  0  0
  1 13  1  0  0  0  0
  2  6  1  0  0  0  0
  3  4  2  0  0  0  0
  3  5  1  0  0  0  0
  5  6  2  0  0  0  0
  5  9  1  0  0  0  0
  6  7  1  0  0  0  0
  7  8  2  0  0  0  0
  7 10  1  0  0  0  0
  8  9  1  0  0  0  0
 10 15  2  3  0  0  0
 11 12  1  0  0  0  0
 11 13  2  0  0  0  0
 13 14  1  0  0  0  0
 15 16  1  0  0  0  0
 15 20  1  0  0  0  0
 16 17  2  0  0  0  0
 17 18  1  0  0  0  0
 17 21  1  0  0  0  0
 18 19  1  0  0  0  0
 18 23  1  0  0  0  0
 19 20  2  0  0  0  0
 21 22  1  0  0  0  0
 23 24  1  0  0  0  0
  2 25  1  0  0  0  0
  3 26  1  0  0  0  0
  4 27  1  0  0  0  0
  9 28  1  0  0  0  0
 10 29  1  0  0  0  0
 12 30  1  0  0  0  0
 12 31  1  0  0  0  0
 12 32  1  0  0  0  0
 14 33  1  0  0  0  0
 16 34  1  0  0  0  0
 18 35  1  0  0  0  0
 19 36  1  0  0  0  0
 20 37  1  0  0  0  0
 22 38  1  0  0  0  0
 22 39  1  0  0  0  0
 22 40  1  0  0  0  0
 24 41  1  0  0  0  0
 24 42  1  0  0  0  0
 24 43  1  0  0  0  0
M  END
> <Name>
15

> <IC50[uM]>
2.5

$$$$
15
  -OEChem-05192314333D
 Structure written by MMmdl.
 43 45  0     0  0  0  0  0  0999 V2000
   -6.3730   12.3647  -12.0124 C   0  0  0  0  0  0  0  0  0  0  0  0
   -6.5249   11.8167  -10.7375 C   0  0  0  0  0  0  0  0  0  0  0  0
   -7.7225   10.5819  -13.0270 C   0  0  0  0  0  0  0  0  0  0  0  0
   -6.9871   11.7813  -13.1320 C   0  0  0  0  0  0  0  0  0  0  0  0
   -7.8205   10.0150  -11.7538 C   0  0  0  0  0  0  0  0  0  0  0  0
   -7.2514   10.6217  -10.6093 C   0  0  0  0  0  0  0  0  0  0  0  0
   -7.6113    9.7463   -9.5119 C   0  0  0  0  0  0  0  0  0  0  0  0
   -8.2838    8.7282   -9.9768 N   0  0  0  0  0  0  0  0  0  0  0  0
   -8.4166    8.8609  -11.2984 N   0  0  0  0  0  0  0  0  0  0  0  0
   -7.3282    9.8959   -8.0269 C   0  0  0  0  0  0  0  0  0  0  0  0
   -4.4004   13.6489  -11.4541 N   0  0  0  0  0  0  0  0  0  0  0  0
   -3.4592   14.7715  -11.4916 C   0  0  0  0  0  0  0  0  0  0  0  0
   -5.5363   13.6231  -12.1917 C   0  0  0  0  0  0  0  0  0  0  0  0
   -5.8861   14.5056  -12.9557 O   0  0  0  0  0  0  0  0  0  0  0  0
   -5.9554   10.4909   -7.7390 C   0  0  0  0  0  0  0  0  0  0  0  0
   -5.8447   11.7612   -7.1661 C   0  0  0  0  0  0  0  0  0  0  0  0
   -4.5697   12.3054   -6.9214 C   0  0  0  0  0  0  0  0  0  0  0  0
   -3.4308   11.5801   -7.2259 C   0  0  0  0  0  0  0  0  0  0  0  0
   -3.5429   10.3015   -7.8076 C   0  0  0  0  0  0  0  0  0  0  0  0
   -4.8018    9.7661   -8.0596 C   0  0  0  0  0  0  0  0  0  0  0  0
   -4.4352   13.5609   -6.3638 O   0  0  0  0  0  0  0  0  0  0  0  0
   -3.6839   14.5445   -7.0766 C   0  0  0  0  0  0  0  0  0  0  0  0
   -2.1928   12.1397   -6.9410 O   0  0  0  0  0  0  0  0  0  0  0  0
   -1.0568   11.8071   -7.7386 C   0  0  0  0  0  0  0  0  0  0  0  0
   -6.0949   12.2992   -9.8722 H   0  0  0  0  0  0  0  0  0  0  0  0
   -8.1868   10.1246  -13.8882 H   0  0  0  0  0  0  0  0  0  0  0  0
   -6.8945   12.2613  -14.0950 H   0  0  0  0  0  0  0  0  0  0  0  0
   -8.6418    7.9709   -9.4306 H   0  0  0  0  0  0  0  0  0  0  0  0
   -8.0276    9.6101   -7.2552 H   0  0  0  0  0  0  0  0  0  0  0  0
   -2.6173   14.5676  -10.8136 H   0  0  0  0  0  0  0  0  0  0  0  0
   -3.0815   14.8991  -12.5168 H   0  0  0  0  0  0  0  0  0  0  0  0
   -3.9723   15.6908  -11.1728 H   0  0  0  0  0  0  0  0  0  0  0  0
   -5.2484   15.2095  -12.9404 H   0  0  0  0  0  0  0  0  0  0  0  0
   -6.7323   12.3219   -6.9127 H   0  0  0  0  0  0  0  0  0  0  0  0
   -2.6549    9.7395   -8.0568 H   0  0  0  0  0  0  0  0  0  0  0  0
   -4.8592    8.8187   -7.5036 H   0  0  0  0  0  0  0  0  0  0  0  0
   -4.8475    9.5609   -9.1393 H   0  0  0  0  0  0  0  0  0  0  0  0
   -3.6711   15.4833   -6.5034 H   0  0  0  0  0  0  0  0  0  0  0  0
   -2.6532   14.1872   -7.2178 H   0  0  0  0  0  0  0  0  0  0  0  0
   -4.1486   14.7205   -8.0580 H   0  0  0  0  0  0  0  0  0  0  0  0
   -0.1739   12.3445   -7.3623 H   0  0  0  0  0  0  0  0  0  0  0  0
   -0.8764   10.7233   -7.6856 H   0  0  0  0  0  0  0  0  0  0  0  0
   -1.2447   12.0969   -8.7830 H   0  0  0  0  0  0  0  0  0  0  0  0
  1  2  2  0  0  0  0
  1  4  1  0  0  0  0
  1 13  1  0  0  0  0
  2  6  1  0  0  0  0
  3  4  2  0  0  0  0
  3  5  1  0  0  0  0
  5  6  1  0  0  0  0
  5  9  2  0  0  0  0
  6  7  2  0  0  0  0
  7  8  1  0  0  0  0
  7 10  1  0  0  0  0
  8  9  1  0  0  0  0
 10 15  2  3  0  0  0
 11 12  1  0  0  0  0
 11 13  2  0  0  0  0
 13 14  1  0  0  0  0
 15 16  1  0  0  0  0
 15 20  1  0  0  0  0
 16 17  2  0  0  0  0
 17 18  1  0  0  0  0
 17 21  1  0  0  0  0
 18 19  2  0  0  0  0
 18 23  1  0  0  0  0
 19 20  1  0  0  0  0
 21 22  1  0  0  0  0
 23 24  1  0  0  0  0
  2 25  1  0  0  0  0
  3 26  1  0  0  0  0
  4 27  1  0  0  0  0
  8 28  1  0  0  0  0
 10 29  1  0  0  0  0
 12 30  1  0  0  0  0
 12 31  1  0  0  0  0
 12 32  1  0  0  0  0
 14 33  1  0  0  0  0
 16 34  1  0  0  0  0
 19 35  1  0  0  0  0
 20 36  1  0  0  0  0
 20 37  1  0  0  0  0
 22 38  1  0  0  0  0
 22 39  1  0  0  0  0
 22 40  1  0  0  0  0
 24 41  1  0  0  0  0
 24 42  1  0  0  0  0
 24 43  1  0  0  0  0
M  END
> <Name>
15

> <IC50[uM]>
2.5

$$$$
15
  -OEChem-05192314333D
 Structure written by MMmdl.
 43 45  0     0  0  0  0  0  0999 V2000
   -6.3730   12.3647  -12.0124 C   0  0  0  0  0  0  0  0  0  0  0  0
   -6.5249   11.8167  -10.7375 C   0  0  0  0  0  0  0  0  0  0  0  0
   -7.7225   10.5819  -13.0270 C   0  0  0  0  0  0  0  0  0  0  0  0
   -6.9871   11.7813  -13.1320 C   0  0  0  0  0  0  0  0  0  0  0  0
   -7.8205   10.0150  -11.7538 C   0  0  0  0  0  0  0  0  0  0  0  0
   -7.2514   10.6217  -10.6093 C   0  0  0  0  0  0  0  0  0  0  0  0
   -7.6113    9.7463   -9.5119 C   0  0  0  0  0  0  0  0  0  0  0  0
   -8.2838    8.7282   -9.9768 N   0  0  0  0  0  0  0  0  0  0  0  0
   -8.4166    8.8609  -11.2984 N   0  0  0  0  0  0  0  0  0  0  0  0
   -7.3282    9.8959   -8.0269 C   0  0  0  0  0  0  0  0  0  0  0  0
   -4.4004   13.6489  -11.4541 N   0  0  0  0  0  0  0  0  0  0  0  0
   -3.4592   14.7715  -11.4916 C   0  0  0  0  0  0  0  0  0  0  0  0
   -5.5363   13.6231  -12.1917 C   0  0  0  0  0  0  0  0  0  0  0  0
   -5.8861   14.5056  -12.9557 O   0  0  0  0  0  0  0  0  0  0  0  0
   -5.9554   10.4909   -7.7390 C   0  0  0  0  0  0  0  0  0  0  0  0
   -5.8447   11.7612   -7.1661 C   0  0  0  0  0  0  0  0  0  0  0  0
   -4.5697   12.3054   -6.9214 C   0  0  0  0  0  0  0  0  0  0  0  0
   -3.4308   11.5801   -7.2259 C   0  0  0  0  0  0  0  0  0  0  0  0
   -3.5429   10.3015   -7.8076 C   0  0  0  0  0  0  0  0  0  0  0  0
   -4.8018    9.7661   -8.0596 C   0  0  0  0  0  0  0  0  0  0  0  0
   -4.4352   13.5609   -6.3638 O   0  0  0  0  0  0  0  0  0  0  0  0
   -3.6839   14.5445   -7.0766 C   0  0  0  0  0  0  0  0  0  0  0  0
   -2.1928   12.1397   -6.9410 O   0  0  0  0  0  0  0  0  0  0  0  0
   -1.0568   11.8071   -7.7386 C   0  0  0  0  0  0  0  0  0  0  0  0
   -6.0949   12.2992   -9.8722 H   0  0  0  0  0  0  0  0  0  0  0  0
   -8.1868   10.1246  -13.8882 H   0  0  0  0  0  0  0  0  0  0  0  0
   -6.8945   12.2613  -14.0950 H   0  0  0  0  0  0  0  0  0  0  0  0
   -8.8902    8.2036  -11.8847 H   0  0  0  0  0  0  0  0  0  0  0  0
   -8.0276    9.6101   -7.2552 H   0  0  0  0  0  0  0  0  0  0  0  0
   -2.6173   14.5676  -10.8136 H   0  0  0  0  0  0  0  0  0  0  0  0
   -3.0815   14.8991  -12.5168 H   0  0  0  0  0  0  0  0  0  0  0  0
   -3.9723   15.6908  -11.1728 H   0  0  0  0  0  0  0  0  0  0  0  0
   -5.2484   15.2095  -12.9404 H   0  0  0  0  0  0  0  0  0  0  0  0
   -6.7323   12.3219   -6.9127 H   0  0  0  0  0  0  0  0  0  0  0  0
   -2.6549    9.7395   -8.0568 H   0  0  0  0  0  0  0  0  0  0  0  0
   -4.8592    8.8187   -7.5036 H   0  0  0  0  0  0  0  0  0  0  0  0
   -4.8475    9.5609   -9.1393 H   0  0  0  0  0  0  0  0  0  0  0  0
   -3.6711   15.4833   -6.5034 H   0  0  0  0  0  0  0  0  0  0  0  0
   -2.6532   14.1872   -7.2178 H   0  0  0  0  0  0  0  0  0  0  0  0
   -4.1486   14.7205   -8.0580 H   0  0  0  0  0  0  0  0  0  0  0  0
   -0.1739   12.3445   -7.3623 H   0  0  0  0  0  0  0  0  0  0  0  0
   -0.8764   10.7233   -7.6856 H   0  0  0  0  0  0  0  0  0  0  0  0
   -1.2447   12.0969   -8.7830 H   0  0  0  0  0  0  0  0  0  0  0  0
  1  2  2  0  0  0  0
  1  4  1  0  0  0  0
  1 13  1  0  0  0  0
  2  6  1  0  0  0  0
  3  4  2  0  0  0  0
  3  5  1  0  0  0  0
  5  6  2  0  0  0  0
  5  9  1  0  0  0  0
  6  7  1  0  0  0  0
  7  8  2  0  0  0  0
  7 10  1  0  0  0  0
  8  9  1  0  0  0  0
 10 15  2  3  0  0  0
 11 12  1  0  0  0  0
 11 13  2  0  0  0  0
 13 14  1  0  0  0  0
 15 16  1  0  0  0  0
 15 20  1  0  0  0  0
 16 17  2  0  0  0  0
 17 18  1  0  0  0  0
 17 21  1  0  0  0  0
 18 19  2  0  0  0  0
 18 23  1  0  0  0  0
 19 20  1  0  0  0  0
 21 22  1  0  0  0  0
 23 24  1  0  0  0  0
  2 25  1  0  0  0  0
  3 26  1  0  0  0  0
  4 27  1  0  0  0  0
  9 28  1  0  0  0  0
 10 29  1  0  0  0  0
 12 30  1  0  0  0  0
 12 31  1  0  0  0  0
 12 32  1  0  0  0  0
 14 33  1  0  0  0  0
 16 34  1  0  0  0  0
 19 35  1  0  0  0  0
 20 36  1  0  0  0  0
 20 37  1  0  0  0  0
 22 38  1  0  0  0  0
 22 39  1  0  0  0  0
 22 40  1  0  0  0  0
 24 41  1  0  0  0  0
 24 42  1  0  0  0  0
 24 43  1  0  0  0  0
M  END
> <Name>
15

> <IC50[uM]>
2.5

$$$$
15
  -OEChem-05192314333D
 Structure written by MMmdl.
 43 45  0     0  0  0  0  0  0999 V2000
   -6.3730   12.3647  -12.0124 C   0  0  0  0  0  0  0  0  0  0  0  0
   -6.5249   11.8167  -10.7375 C   0  0  0  0  0  0  0  0  0  0  0  0
   -7.7225   10.5819  -13.0270 C   0  0  0  0  0  0  0  0  0  0  0  0
   -6.9871   11.7813  -13.1320 C   0  0  0  0  0  0  0  0  0  0  0  0
   -7.8205   10.0150  -11.7538 C   0  0  0  0  0  0  0  0  0  0  0  0
   -7.2514   10.6217  -10.6093 C   0  0  0  0  0  0  0  0  0  0  0  0
   -7.6113    9.7463   -9.5119 C   0  0  0  0  0  0  0  0  0  0  0  0
   -8.2838    8.7282   -9.9768 N   0  0  0  0  0  0  0  0  0  0  0  0
   -8.4166    8.8609  -11.2984 N   0  0  0  0  0  0  0  0  0  0  0  0
   -7.3282    9.8959   -8.0269 C   0  0  0  0  0  0  0  0  0  0  0  0
   -4.4004   13.6489  -11.4541 N   0  0  0  0  0  0  0  0  0  0  0  0
   -3.4592   14.7715  -11.4916 C   0  0  0  0  0  0  0  0  0  0  0  0
   -5.5363   13.6231  -12.1917 C   0  0  0  0  0  0  0  0  0  0  0  0
   -5.8861   14.5056  -12.9557 O   0  0  0  0  0  0  0  0  0  0  0  0
   -5.9554   10.4909   -7.7390 C   0  0  0  0  0  0  0  0  0  0  0  0
   -5.8447   11.7612   -7.1661 C   0  0  0  0  0  0  0  0  0  0  0  0
   -4.5697   12.3054   -6.9214 C   0  0  0  0  0  0  0  0  0  0  0  0
   -3.4308   11.5801   -7.2259 C   0  0  0  0  0  0  0  0  0  0  0  0
   -3.5429   10.3015   -7.8076 C   0  0  0  0  0  0  0  0  0  0  0  0
   -4.8018    9.7661   -8.0596 C   0  0  0  0  0  0  0  0  0  0  0  0
   -4.4352   13.5609   -6.3638 O   0  0  0  0  0  0  0  0  0  0  0  0
   -3.6839   14.5445   -7.0766 C   0  0  0  0  0  0  0  0  0  0  0  0
   -2.1928   12.1397   -6.9410 O   0  0  0  0  0  0  0  0  0  0  0  0
   -1.0568   11.8071   -7.7386 C   0  0  0  0  0  0  0  0  0  0  0  0
   -6.0949   12.2992   -9.8722 H   0  0  0  0  0  0  0  0  0  0  0  0
   -8.1868   10.1246  -13.8882 H   0  0  0  0  0  0  0  0  0  0  0  0
   -6.8945   12.2613  -14.0950 H   0  0  0  0  0  0  0  0  0  0  0  0
   -8.6418    7.9709   -9.4306 H   0  0  0  0  0  0  0  0  0  0  0  0
   -8.0276    9.6101   -7.2552 H   0  0  0  0  0  0  0  0  0  0  0  0
   -2.6173   14.5676  -10.8136 H   0  0  0  0  0  0  0  0  0  0  0  0
   -3.0815   14.8991  -12.5168 H   0  0  0  0  0  0  0  0  0  0  0  0
   -3.9723   15.6908  -11.1728 H   0  0  0  0  0  0  0  0  0  0  0  0
   -5.2484   15.2095  -12.9404 H   0  0  0  0  0  0  0  0  0  0  0  0
   -6.3671   12.4602   -7.8358 H   0  0  0  0  0  0  0  0  0  0  0  0
   -6.3661   11.7216   -6.1984 H   0  0  0  0  0  0  0  0  0  0  0  0
   -2.6549    9.7395   -8.0568 H   0  0  0  0  0  0  0  0  0  0  0  0
   -4.8895    8.7861   -8.5049 H   0  0  0  0  0  0  0  0  0  0  0  0
   -3.6711   15.4833   -6.5034 H   0  0  0  0  0  0  0  0  0  0  0  0
   -2.6532   14.1872   -7.2178 H   0  0  0  0  0  0  0  0  0  0  0  0
   -4.1486   14.7205   -8.0580 H   0  0  0  0  0  0  0  0  0  0  0  0
   -0.1739   12.3445   -7.3623 H   0  0  0  0  0  0  0  0  0  0  0  0
   -0.8764   10.7233   -7.6856 H   0  0  0  0  0  0  0  0  0  0  0  0
   -1.2447   12.0969   -8.7830 H   0  0  0  0  0  0  0  0  0  0  0  0
  1  2  2  0  0  0  0
  1  4  1  0  0  0  0
  1 13  1  0  0  0  0
  2  6  1  0  0  0  0
  3  4  2  0  0  0  0
  3  5  1  0  0  0  0
  5  6  1  0  0  0  0
  5  9  2  0  0  0  0
  6  7  2  0  0  0  0
  7  8  1  0  0  0  0
  7 10  1  0  0  0  0
  8  9  1  0  0  0  0
 10 15  2  3  0  0  0
 11 12  1  0  0  0  0
 11 13  2  0  0  0  0
 13 14  1  0  0  0  0
 15 16  1  0  0  0  0
 15 20  1  0  0  0  0
 16 17  1  0  0  0  0
 17 18  2  0  0  0  0
 17 21  1  0  0  0  0
 18 19  1  0  0  0  0
 18 23  1  0  0  0  0
 19 20  2  0  0  0  0
 21 22  1  0  0  0  0
 23 24  1  0  0  0  0
  2 25  1  0  0  0  0
  3 26  1  0  0  0  0
  4 27  1  0  0  0  0
  8 28  1  0  0  0  0
 10 29  1  0  0  0  0
 12 30  1  0  0  0  0
 12 31  1  0  0  0  0
 12 32  1  0  0  0  0
 14 33  1  0  0  0  0
 16 34  1  0  0  0  0
 16 35  1  0  0  0  0
 19 36  1  0  0  0  0
 20 37  1  0  0  0  0
 22 38  1  0  0  0  0
 22 39  1  0  0  0  0
 22 40  1  0  0  0  0
 24 41  1  0  0  0  0
 24 42  1  0  0  0  0
 24 43  1  0  0  0  0
M  END
> <Name>
15

> <IC50[uM]>
2.5

$$$$
15
  -OEChem-05192314333D
 Structure written by MMmdl.
 43 45  0     0  0  0  0  0  0999 V2000
   -6.3730   12.3647  -12.0124 C   0  0  0  0  0  0  0  0  0  0  0  0
   -6.5249   11.8167  -10.7375 C   0  0  0  0  0  0  0  0  0  0  0  0
   -7.7225   10.5819  -13.0270 C   0  0  0  0  0  0  0  0  0  0  0  0
   -6.9871   11.7813  -13.1320 C   0  0  0  0  0  0  0  0  0  0  0  0
   -7.8205   10.0150  -11.7538 C   0  0  0  0  0  0  0  0  0  0  0  0
   -7.2514   10.6217  -10.6093 C   0  0  0  0  0  0  0  0  0  0  0  0
   -7.6113    9.7463   -9.5119 C   0  0  0  0  0  0  0  0  0  0  0  0
   -8.2838    8.7282   -9.9768 N   0  0  0  0  0  0  0  0  0  0  0  0
   -8.4166    8.8609  -11.2984 N   0  0  0  0  0  0  0  0  0  0  0  0
   -7.3282    9.8959   -8.0269 C   0  0  0  0  0  0  0  0  0  0  0  0
   -4.4004   13.6489  -11.4541 N   0  0  0  0  0  0  0  0  0  0  0  0
   -3.4592   14.7715  -11.4916 C   0  0  0  0  0  0  0  0  0  0  0  0
   -5.5363   13.6231  -12.1917 C   0  0  0  0  0  0  0  0  0  0  0  0
   -5.8861   14.5056  -12.9557 O   0  0  0  0  0  0  0  0  0  0  0  0
   -5.9554   10.4909   -7.7390 C   0  0  0  0  0  0  0  0  0  0  0  0
   -5.8447   11.7612   -7.1661 C   0  0  0  0  0  0  0  0  0  0  0  0
   -4.5697   12.3054   -6.9214 C   0  0  0  0  0  0  0  0  0  0  0  0
   -3.4308   11.5801   -7.2259 C   0  0  0  0  0  0  0  0  0  0  0  0
   -3.5429   10.3015   -7.8076 C   0  0  0  0  0  0  0  0  0  0  0  0
   -4.8018    9.7661   -8.0596 C   0  0  0  0  0  0  0  0  0  0  0  0
   -4.4352   13.5609   -6.3638 O   0  0  0  0  0  0  0  0  0  0  0  0
   -3.6839   14.5445   -7.0766 C   0  0  0  0  0  0  0  0  0  0  0  0
   -2.1928   12.1397   -6.9410 O   0  0  0  0  0  0  0  0  0  0  0  0
   -1.0568   11.8071   -7.7386 C   0  0  0  0  0  0  0  0  0  0  0  0
   -6.0949   12.2992   -9.8722 H   0  0  0  0  0  0  0  0  0  0  0  0
   -8.1868   10.1246  -13.8882 H   0  0  0  0  0  0  0  0  0  0  0  0
   -6.8945   12.2613  -14.0950 H   0  0  0  0  0  0  0  0  0  0  0  0
   -8.8902    8.2036  -11.8847 H   0  0  0  0  0  0  0  0  0  0  0  0
   -8.0276    9.6101   -7.2552 H   0  0  0  0  0  0  0  0  0  0  0  0
   -2.6173   14.5676  -10.8136 H   0  0  0  0  0  0  0  0  0  0  0  0
   -3.0815   14.8991  -12.5168 H   0  0  0  0  0  0  0  0  0  0  0  0
   -3.9723   15.6908  -11.1728 H   0  0  0  0  0  0  0  0  0  0  0  0
   -5.2484   15.2095  -12.9404 H   0  0  0  0  0  0  0  0  0  0  0  0
   -6.3671   12.4602   -7.8358 H   0  0  0  0  0  0  0  0  0  0  0  0
   -6.3661   11.7216   -6.1984 H   0  0  0  0  0  0  0  0  0  0  0  0
   -2.6549    9.7395   -8.0568 H   0  0  0  0  0  0  0  0  0  0  0  0
   -4.8895    8.7861   -8.5049 H   0  0  0  0  0  0  0  0  0  0  0  0
   -3.6711   15.4833   -6.5034 H   0  0  0  0  0  0  0  0  0  0  0  0
   -2.6532   14.1872   -7.2178 H   0  0  0  0  0  0  0  0  0  0  0  0
   -4.1486   14.7205   -8.0580 H   0  0  0  0  0  0  0  0  0  0  0  0
   -0.1739   12.3445   -7.3623 H   0  0  0  0  0  0  0  0  0  0  0  0
   -0.8764   10.7233   -7.6856 H   0  0  0  0  0  0  0  0  0  0  0  0
   -1.2447   12.0969   -8.7830 H   0  0  0  0  0  0  0  0  0  0  0  0
  1  2  2  0  0  0  0
  1  4  1  0  0  0  0
  1 13  1  0  0  0  0
  2  6  1  0  0  0  0
  3  4  2  0  0  0  0
  3  5  1  0  0  0  0
  5  6  2  0  0  0  0
  5  9  1  0  0  0  0
  6  7  1  0  0  0  0
  7  8  2  0  0  0  0
  7 10  1  0  0  0  0
  8  9  1  0  0  0  0
 10 15  2  3  0  0  0
 11 12  1  0  0  0  0
 11 13  2  0  0  0  0
 13 14  1  0  0  0  0
 15 16  1  0  0  0  0
 15 20  1  0  0  0  0
 16 17  1  0  0  0  0
 17 18  2  0  0  0  0
 17 21  1  0  0  0  0
 18 19  1  0  0  0  0
 18 23  1  0  0  0  0
 19 20  2  0  0  0  0
 21 22  1  0  0  0  0
 23 24  1  0  0  0  0
  2 25  1  0  0  0  0
  3 26  1  0  0  0  0
  4 27  1  0  0  0  0
  9 28  1  0  0  0  0
 10 29  1  0  0  0  0
 12 30  1  0  0  0  0
 12 31  1  0  0  0  0
 12 32  1  0  0  0  0
 14 33  1  0  0  0  0
 16 34  1  0  0  0  0
 16 35  1  0  0  0  0
 19 36  1  0  0  0  0
 20 37  1  0  0  0  0
 22 38  1  0  0  0  0
 22 39  1  0  0  0  0
 22 40  1  0  0  0  0
 24 41  1  0  0  0  0
 24 42  1  0  0  0  0
 24 43  1  0  0  0  0
M  END
> <Name>
15

> <IC50[uM]>
2.5

$$$$
15
  -OEChem-05192314333D
 Structure written by MMmdl.
 43 45  0     1  0  0  0  0  0999 V2000
   -6.3730   12.3647  -12.0124 C   0  0  3  0  0  0  0  0  0  0  0  0
   -6.5249   11.8167  -10.7375 C   0  0  0  0  0  0  0  0  0  0  0  0
   -7.7225   10.5819  -13.0270 C   0  0  0  0  0  0  0  0  0  0  0  0
   -6.9871   11.7813  -13.1320 C   0  0  0  0  0  0  0  0  0  0  0  0
   -7.8205   10.0150  -11.7538 C   0  0  0  0  0  0  0  0  0  0  0  0
   -7.2514   10.6217  -10.6093 C   0  0  0  0  0  0  0  0  0  0  0  0
   -7.6113    9.7463   -9.5119 C   0  0  0  0  0  0  0  0  0  0  0  0
   -8.2838    8.7282   -9.9768 N   0  0  0  0  0  0  0  0  0  0  0  0
   -8.4166    8.8609  -11.2984 N   0  0  0  0  0  0  0  0  0  0  0  0
   -7.3282    9.8959   -8.0269 C   0  0  0  0  0  0  0  0  0  0  0  0
   -4.4004   13.6489  -11.4541 N   0  0  0  0  0  0  0  0  0  0  0  0
   -3.4592   14.7715  -11.4916 C   0  0  0  0  0  0  0  0  0  0  0  0
   -5.5363   13.6231  -12.1917 C   0  0  0  0  0  0  0  0  0  0  0  0
   -5.8861   14.5056  -12.9557 O   0  0  0  0  0  0  0  0  0  0  0  0
   -5.9554   10.4909   -7.7390 C   0  0  0  0  0  0  0  0  0  0  0  0
   -5.8447   11.7612   -7.1661 C   0  0  0  0  0  0  0  0  0  0  0  0
   -4.5697   12.3054   -6.9214 C   0  0  0  0  0  0  0  0  0  0  0  0
   -3.4308   11.5801   -7.2259 C   0  0  0  0  0  0  0  0  0  0  0  0
   -3.5429   10.3015   -7.8076 C   0  0  0  0  0  0  0  0  0  0  0  0
   -4.8018    9.7661   -8.0596 C   0  0  0  0  0  0  0  0  0  0  0  0
   -4.4352   13.5609   -6.3638 O   0  0  0  0  0  0  0  0  0  0  0  0
   -3.6839   14.5445   -7.0766 C   0  0  0  0  0  0  0  0  0  0  0  0
   -2.1928   12.1397   -6.9410 O   0  0  0  0  0  0  0  0  0  0  0  0
   -1.0568   11.8071   -7.7386 C   0  0  0  0  0  0  0  0  0  0  0  0
   -5.4795   11.7442  -12.1757 H   0  0  0  0  0  0  0  0  0  0  0  0
   -6.0949   12.2992   -9.8722 H   0  0  0  0  0  0  0  0  0  0  0  0
   -8.1868   10.1246  -13.8882 H   0  0  0  0  0  0  0  0  0  0  0  0
   -6.8945   12.2613  -14.0950 H   0  0  0  0  0  0  0  0  0  0  0  0
   -8.0938   10.5530   -7.5887 H   0  0  0  0  0  0  0  0  0  0  0  0
   -7.3851    8.9027   -7.5575 H   0  0  0  0  0  0  0  0  0  0  0  0
   -4.1959   12.8707  -10.8602 H   0  0  0  0  0  0  0  0  0  0  0  0
   -2.6173   14.5676  -10.8136 H   0  0  0  0  0  0  0  0  0  0  0  0
   -3.0815   14.8991  -12.5168 H   0  0  0  0  0  0  0  0  0  0  0  0
   -3.9723   15.6908  -11.1728 H   0  0  0  0  0  0  0  0  0  0  0  0
   -6.7323   12.3219   -6.9127 H   0  0  0  0  0  0  0  0  0  0  0  0
   -2.6549    9.7395   -8.0568 H   0  0  0  0  0  0  0  0  0  0  0  0
   -4.8895    8.7861   -8.5049 H   0  0  0  0  0  0  0  0  0  0  0  0
   -3.6711   15.4833   -6.5034 H   0  0  0  0  0  0  0  0  0  0  0  0
   -2.6532   14.1872   -7.2178 H   0  0  0  0  0  0  0  0  0  0  0  0
   -4.1486   14.7205   -8.0580 H   0  0  0  0  0  0  0  0  0  0  0  0
   -0.1739   12.3445   -7.3623 H   0  0  0  0  0  0  0  0  0  0  0  0
   -0.8764   10.7233   -7.6856 H   0  0  0  0  0  0  0  0  0  0  0  0
   -1.2447   12.0969   -8.7830 H   0  0  0  0  0  0  0  0  0  0  0  0
  1  2  1  0  0  0  0
  1  4  1  0  0  0  0
  1 13  1  0  0  0  0
  2  6  2  0  0  0  0
  3  4  2  0  0  0  0
  3  5  1  0  0  0  0
  5  6  1  0  0  0  0
  5  9  2  0  0  0  0
  6  7  1  0  0  0  0
  7  8  2  0  0  0  0
  7 10  1  0  0  0  0
  8  9  1  0  0  0  0
 10 15  1  0  0  0  0
 11 12  1  0  0  0  0
 11 13  1  0  0  0  0
 13 14  2  0  0  0  0
 15 16  2  0  0  0  0
 15 20  1  0  0  0  0
 16 17  1  0  0  0  0
 17 18  2  0  0  0  0
 17 21  1  0  0  0  0
 18 19  1  0  0  0  0
 18 23  1  0  0  0  0
 19 20  2  0  0  0  0
 21 22  1  0  0  0  0
 23 24  1  0  0  0  0
  1 25  1  0  0  0  0
  2 26  1  0  0  0  0
  3 27  1  0  0  0  0
  4 28  1  0  0  0  0
 10 29  1  0  0  0  0
 10 30  1  0  0  0  0
 11 31  1  0  0  0  0
 12 32  1  0  0  0  0
 12 33  1  0  0  0  0
 12 34  1  0  0  0  0
 16 35  1  0  0  0  0
 19 36  1  0  0  0  0
 20 37  1  0  0  0  0
 22 38  1  0  0  0  0
 22 39  1  0  0  0  0
 22 40  1  0  0  0  0
 24 41  1  0  0  0  0
 24 42  1  0  0  0  0
 24 43  1  0  0  0  0
M  END
> <Name>
15

> <IC50[uM]>
2.5

$$$$
15
  -OEChem-05192314333D
 Structure written by MMmdl.
 43 45  0     1  0  0  0  0  0999 V2000
   -6.3730   12.3647  -12.0124 C   0  0  0  0  0  0  0  0  0  0  0  0
   -6.5249   11.8167  -10.7375 C   0  0  0  0  0  0  0  0  0  0  0  0
   -7.7225   10.5819  -13.0270 C   0  0  0  0  0  0  0  0  0  0  0  0
   -6.9871   11.7813  -13.1320 C   0  0  0  0  0  0  0  0  0  0  0  0
   -7.8205   10.0150  -11.7538 C   0  0  0  0  0  0  0  0  0  0  0  0
   -7.2514   10.6217  -10.6093 C   0  0  3  0  0  0  0  0  0  0  0  0
   -7.6113    9.7463   -9.5119 C   0  0  0  0  0  0  0  0  0  0  0  0
   -8.2838    8.7282   -9.9768 N   0  0  0  0  0  0  0  0  0  0  0  0
   -8.4166    8.8609  -11.2984 N   0  0  0  0  0  0  0  0  0  0  0  0
   -7.3282    9.8959   -8.0269 C   0  0  0  0  0  0  0  0  0  0  0  0
   -4.4004   13.6489  -11.4541 N   0  0  0  0  0  0  0  0  0  0  0  0
   -3.4592   14.7715  -11.4916 C   0  0  0  0  0  0  0  0  0  0  0  0
   -5.5363   13.6231  -12.1917 C   0  0  0  0  0  0  0  0  0  0  0  0
   -5.8861   14.5056  -12.9557 O   0  0  0  0  0  0  0  0  0  0  0  0
   -5.9554   10.4909   -7.7390 C   0  0  0  0  0  0  0  0  0  0  0  0
   -5.8447   11.7612   -7.1661 C   0  0  0  0  0  0  0  0  0  0  0  0
   -4.5697   12.3054   -6.9214 C   0  0  0  0  0  0  0  0  0  0  0  0
   -3.4308   11.5801   -7.2259 C   0  0  0  0  0  0  0  0  0  0  0  0
   -3.5429   10.3015   -7.8076 C   0  0  0  0  0  0  0  0  0  0  0  0
   -4.8018    9.7661   -8.0596 C   0  0  0  0  0  0  0  0  0  0  0  0
   -4.4352   13.5609   -6.3638 O   0  0  0  0  0  0  0  0  0  0  0  0
   -3.6839   14.5445   -7.0766 C   0  0  0  0  0  0  0  0  0  0  0  0
   -2.1928   12.1397   -6.9410 O   0  0  0  0  0  0  0  0  0  0  0  0
   -1.0568   11.8071   -7.7386 C   0  0  0  0  0  0  0  0  0  0  0  0
   -6.0949   12.2992   -9.8722 H   0  0  0  0  0  0  0  0  0  0  0  0
   -8.1868   10.1246  -13.8882 H   0  0  0  0  0  0  0  0  0  0  0  0
   -6.8945   12.2613  -14.0950 H   0  0  0  0  0  0  0  0  0  0  0  0
   -8.1752   11.1984  -10.4540 H   0  0  0  0  0  0  0  0  0  0  0  0
   -8.0938   10.5530   -7.5887 H   0  0  0  0  0  0  0  0  0  0  0  0
   -7.3851    8.9027   -7.5575 H   0  0  0  0  0  0  0  0  0  0  0  0
   -4.1959   12.8707  -10.8602 H   0  0  0  0  0  0  0  0  0  0  0  0
   -2.6173   14.5676  -10.8136 H   0  0  0  0  0  0  0  0  0  0  0  0
   -3.0815   14.8991  -12.5168 H   0  0  0  0  0  0  0  0  0  0  0  0
   -3.9723   15.6908  -11.1728 H   0  0  0  0  0  0  0  0  0  0  0  0
   -6.7323   12.3219   -6.9127 H   0  0  0  0  0  0  0  0  0  0  0  0
   -2.6549    9.7395   -8.0568 H   0  0  0  0  0  0  0  0  0  0  0  0
   -4.8895    8.7861   -8.5049 H   0  0  0  0  0  0  0  0  0  0  0  0
   -3.6711   15.4833   -6.5034 H   0  0  0  0  0  0  0  0  0  0  0  0
   -2.6532   14.1872   -7.2178 H   0  0  0  0  0  0  0  0  0  0  0  0
   -4.1486   14.7205   -8.0580 H   0  0  0  0  0  0  0  0  0  0  0  0
   -0.1739   12.3445   -7.3623 H   0  0  0  0  0  0  0  0  0  0  0  0
   -0.8764   10.7233   -7.6856 H   0  0  0  0  0  0  0  0  0  0  0  0
   -1.2447   12.0969   -8.7830 H   0  0  0  0  0  0  0  0  0  0  0  0
  1  2  2  0  0  0  0
  1  4  1  0  0  0  0
  1 13  1  0  0  0  0
  2  6  1  0  0  0  0
  3  4  2  0  0  0  0
  3  5  1  0  0  0  0
  5  6  1  0  0  0  0
  5  9  2  0  0  0  0
  6  7  1  0  0  0  0
  7  8  2  0  0  0  0
  7 10  1  0  0  0  0
  8  9  1  0  0  0  0
 10 15  1  0  0  0  0
 11 12  1  0  0  0  0
 11 13  1  0  0  0  0
 13 14  2  0  0  0  0
 15 16  2  0  0  0  0
 15 20  1  0  0  0  0
 16 17  1  0  0  0  0
 17 18  2  0  0  0  0
 17 21  1  0  0  0  0
 18 19  1  0  0  0  0
 18 23  1  0  0  0  0
 19 20  2  0  0  0  0
 21 22  1  0  0  0  0
 23 24  1  0  0  0  0
  2 25  1  0  0  0  0
  3 26  1  0  0  0  0
  4 27  1  0  0  0  0
  6 28  1  0  0  0  0
 10 29  1  0  0  0  0
 10 30  1  0  0  0  0
 11 31  1  0  0  0  0
 12 32  1  0  0  0  0
 12 33  1  0  0  0  0
 12 34  1  0  0  0  0
 16 35  1  0  0  0  0
 19 36  1  0  0  0  0
 20 37  1  0  0  0  0
 22 38  1  0  0  0  0
 22 39  1  0  0  0  0
 22 40  1  0  0  0  0
 24 41  1  0  0  0  0
 24 42  1  0  0  0  0
 24 43  1  0  0  0  0
M  END
> <Name>
15

> <IC50[uM]>
2.5

$$$$
15
  -OEChem-05192314333D
 Structure written by MMmdl.
 43 45  0     0  0  0  0  0  0999 V2000
   -6.3730   12.3647  -12.0124 C   0  0  0  0  0  0  0  0  0  0  0  0
   -6.5249   11.8167  -10.7375 C   0  0  0  0  0  0  0  0  0  0  0  0
   -7.7225   10.5819  -13.0270 C   0  0  0  0  0  0  0  0  0  0  0  0
   -6.9871   11.7813  -13.1320 C   0  0  0  0  0  0  0  0  0  0  0  0
   -7.8205   10.0150  -11.7538 C   0  0  0  0  0  0  0  0  0  0  0  0
   -7.2514   10.6217  -10.6093 C   0  0  0  0  0  0  0  0  0  0  0  0
   -7.6113    9.7463   -9.5119 C   0  0  0  0  0  0  0  0  0  0  0  0
   -8.2838    8.7282   -9.9768 N   0  0  0  0  0  0  0  0  0  0  0  0
   -8.4166    8.8609  -11.2984 N   0  0  0  0  0  0  0  0  0  0  0  0
   -7.3282    9.8959   -8.0269 C   0  0  0  0  0  0  0  0  0  0  0  0
   -4.4004   13.6489  -11.4541 N   0  0  0  0  0  0  0  0  0  0  0  0
   -3.4592   14.7715  -11.4916 C   0  0  0  0  0  0  0  0  0  0  0  0
   -5.5363   13.6231  -12.1917 C   0  0  0  0  0  0  0  0  0  0  0  0
   -5.8861   14.5056  -12.9557 O   0  0  0  0  0  0  0  0  0  0  0  0
   -5.9554   10.4909   -7.7390 C   0  0  0  0  0  0  0  0  0  0  0  0
   -5.8447   11.7612   -7.1661 C   0  0  0  0  0  0  0  0  0  0  0  0
   -4.5697   12.3054   -6.9214 C   0  0  0  0  0  0  0  0  0  0  0  0
   -3.4308   11.5801   -7.2259 C   0  0  0  0  0  0  0  0  0  0  0  0
   -3.5429   10.3015   -7.8076 C   0  0  0  0  0  0  0  0  0  0  0  0
   -4.8018    9.7661   -8.0596 C   0  0  0  0  0  0  0  0  0  0  0  0
   -4.4352   13.5609   -6.3638 O   0  0  0  0  0  0  0  0  0  0  0  0
   -3.6839   14.5445   -7.0766 C   0  0  0  0  0  0  0  0  0  0  0  0
   -2.1928   12.1397   -6.9410 O   0  0  0  0  0  0  0  0  0  0  0  0
   -1.0568   11.8071   -7.7386 C   0  0  0  0  0  0  0  0  0  0  0  0
   -6.0949   12.2992   -9.8722 H   0  0  0  0  0  0  0  0  0  0  0  0
   -8.7440   10.7853  -13.3808 H   0  0  0  0  0  0  0  0  0  0  0  0
   -7.2470    9.8407  -13.6861 H   0  0  0  0  0  0  0  0  0  0  0  0
   -6.8945   12.2613  -14.0950 H   0  0  0  0  0  0  0  0  0  0  0  0
   -8.0938   10.5530   -7.5887 H   0  0  0  0  0  0  0  0  0  0  0  0
   -7.3851    8.9027   -7.5575 H   0  0  0  0  0  0  0  0  0  0  0  0
   -4.1959   12.8707  -10.8602 H   0  0  0  0  0  0  0  0  0  0  0  0
   -2.6173   14.5676  -10.8136 H   0  0  0  0  0  0  0  0  0  0  0  0
   -3.0815   14.8991  -12.5168 H   0  0  0  0  0  0  0  0  0  0  0  0
   -3.9723   15.6908  -11.1728 H   0  0  0  0  0  0  0  0  0  0  0  0
   -6.7323   12.3219   -6.9127 H   0  0  0  0  0  0  0  0  0  0  0  0
   -2.6549    9.7395   -8.0568 H   0  0  0  0  0  0  0  0  0  0  0  0
   -4.8895    8.7861   -8.5049 H   0  0  0  0  0  0  0  0  0  0  0  0
   -3.6711   15.4833   -6.5034 H   0  0  0  0  0  0  0  0  0  0  0  0
   -2.6532   14.1872   -7.2178 H   0  0  0  0  0  0  0  0  0  0  0  0
   -4.1486   14.7205   -8.0580 H   0  0  0  0  0  0  0  0  0  0  0  0
   -0.1739   12.3445   -7.3623 H   0  0  0  0  0  0  0  0  0  0  0  0
   -0.8764   10.7233   -7.6856 H   0  0  0  0  0  0  0  0  0  0  0  0
   -1.2447   12.0969   -8.7830 H   0  0  0  0  0  0  0  0  0  0  0  0
  1  2  1  0  0  0  0
  1  4  2  0  0  0  0
  1 13  1  0  0  0  0
  2  6  2  0  0  0  0
  3  4  1  0  0  0  0
  3  5  1  0  0  0  0
  5  6  1  0  0  0  0
  5  9  2  0  0  0  0
  6  7  1  0  0  0  0
  7  8  2  0  0  0  0
  7 10  1  0  0  0  0
  8  9  1  0  0  0  0
 10 15  1  0  0  0  0
 11 12  1  0  0  0  0
 11 13  1  0  0  0  0
 13 14  2  0  0  0  0
 15 16  2  0  0  0  0
 15 20  1  0  0  0  0
 16 17  1  0  0  0  0
 17 18  2  0  0  0  0
 17 21  1  0  0  0  0
 18 19  1  0  0  0  0
 18 23  1  0  0  0  0
 19 20  2  0  0  0  0
 21 22  1  0  0  0  0
 23 24  1  0  0  0  0
  2 25  1  0  0  0  0
  3 26  1  0  0  0  0
  3 27  1  0  0  0  0
  4 28  1  0  0  0  0
 10 29  1  0  0  0  0
 10 30  1  0  0  0  0
 11 31  1  0  0  0  0
 12 32  1  0  0  0  0
 12 33  1  0  0  0  0
 12 34  1  0  0  0  0
 16 35  1  0  0  0  0
 19 36  1  0  0  0  0
 20 37  1  0  0  0  0
 22 38  1  0  0  0  0
 22 39  1  0  0  0  0
 22 40  1  0  0  0  0
 24 41  1  0  0  0  0
 24 42  1  0  0  0  0
 24 43  1  0  0  0  0
M  END
> <Name>
15

> <IC50[uM]>
2.5

$$$$
15
  -OEChem-05192314333D
 Structure written by MMmdl.
 43 45  0     1  0  0  0  0  0999 V2000
   -6.3730   12.3647  -12.0124 C   0  0  3  0  0  0  0  0  0  0  0  0
   -6.5249   11.8167  -10.7375 C   0  0  0  0  0  0  0  0  0  0  0  0
   -7.7225   10.5819  -13.0270 C   0  0  0  0  0  0  0  0  0  0  0  0
   -6.9871   11.7813  -13.1320 C   0  0  0  0  0  0  0  0  0  0  0  0
   -7.8205   10.0150  -11.7538 C   0  0  0  0  0  0  0  0  0  0  0  0
   -7.2514   10.6217  -10.6093 C   0  0  0  0  0  0  0  0  0  0  0  0
   -7.6113    9.7463   -9.5119 C   0  0  0  0  0  0  0  0  0  0  0  0
   -8.2838    8.7282   -9.9768 N   0  0  0  0  0  0  0  0  0  0  0  0
   -8.4166    8.8609  -11.2984 N   0  0  0  0  0  0  0  0  0  0  0  0
   -7.3282    9.8959   -8.0269 C   0  0  0  0  0  0  0  0  0  0  0  0
   -4.4004   13.6489  -11.4541 N   0  0  0  0  0  0  0  0  0  0  0  0
   -3.4592   14.7715  -11.4916 C   0  0  0  0  0  0  0  0  0  0  0  0
   -5.5363   13.6231  -12.1917 C   0  0  0  0  0  0  0  0  0  0  0  0
   -5.8861   14.5056  -12.9557 O   0  0  0  0  0  0  0  0  0  0  0  0
   -5.9554   10.4909   -7.7390 C   0  0  0  0  0  0  0  0  0  0  0  0
   -5.8447   11.7612   -7.1661 C   0  0  0  0  0  0  0  0  0  0  0  0
   -4.5697   12.3054   -6.9214 C   0  0  0  0  0  0  0  0  0  0  0  0
   -3.4308   11.5801   -7.2259 C   0  0  0  0  0  0  0  0  0  0  0  0
   -3.5429   10.3015   -7.8076 C   0  0  0  0  0  0  0  0  0  0  0  0
   -4.8018    9.7661   -8.0596 C   0  0  0  0  0  0  0  0  0  0  0  0
   -4.4352   13.5609   -6.3638 O   0  0  0  0  0  0  0  0  0  0  0  0
   -3.6839   14.5445   -7.0766 C   0  0  0  0  0  0  0  0  0  0  0  0
   -2.1928   12.1397   -6.9410 O   0  0  0  0  0  0  0  0  0  0  0  0
   -1.0568   11.8071   -7.7386 C   0  0  0  0  0  0  0  0  0  0  0  0
   -5.4795   11.7442  -12.1757 H   0  0  0  0  0  0  0  0  0  0  0  0
   -6.0949   12.2992   -9.8722 H   0  0  0  0  0  0  0  0  0  0  0  0
   -8.1868   10.1246  -13.8882 H   0  0  0  0  0  0  0  0  0  0  0  0
   -6.8945   12.2613  -14.0950 H   0  0  0  0  0  0  0  0  0  0  0  0
   -8.0938   10.5530   -7.5887 H   0  0  0  0  0  0  0  0  0  0  0  0
   -7.3851    8.9027   -7.5575 H   0  0  0  0  0  0  0  0  0  0  0  0
   -2.6173   14.5676  -10.8136 H   0  0  0  0  0  0  0  0  0  0  0  0
   -3.0815   14.8991  -12.5168 H   0  0  0  0  0  0  0  0  0  0  0  0
   -3.9723   15.6908  -11.1728 H   0  0  0  0  0  0  0  0  0  0  0  0
   -5.2484   15.2095  -12.9404 H   0  0  0  0  0  0  0  0  0  0  0  0
   -6.7323   12.3219   -6.9127 H   0  0  0  0  0  0  0  0  0  0  0  0
   -2.6549    9.7395   -8.0568 H   0  0  0  0  0  0  0  0  0  0  0  0
   -4.8895    8.7861   -8.5049 H   0  0  0  0  0  0  0  0  0  0  0  0
   -3.6711   15.4833   -6.5034 H   0  0  0  0  0  0  0  0  0  0  0  0
   -2.6532   14.1872   -7.2178 H   0  0  0  0  0  0  0  0  0  0  0  0
   -4.1486   14.7205   -8.0580 H   0  0  0  0  0  0  0  0  0  0  0  0
   -0.1739   12.3445   -7.3623 H   0  0  0  0  0  0  0  0  0  0  0  0
   -0.8764   10.7233   -7.6856 H   0  0  0  0  0  0  0  0  0  0  0  0
   -1.2447   12.0969   -8.7830 H   0  0  0  0  0  0  0  0  0  0  0  0
  1  2  1  0  0  0  0
  1  4  1  0  0  0  0
  1 13  1  0  0  0  0
  2  6  2  0  0  0  0
  3  4  2  0  0  0  0
  3  5  1  0  0  0  0
  5  6  1  0  0  0  0
  5  9  2  0  0  0  0
  6  7  1  0  0  0  0
  7  8  2  0  0  0  0
  7 10  1  0  0  0  0
  8  9  1  0  0  0  0
 10 15  1  0  0  0  0
 11 12  1  0  0  0  0
 11 13  2  0  0  0  0
 13 14  1  0  0  0  0
 15 16  2  0  0  0  0
 15 20  1  0  0  0  0
 16 17  1  0  0  0  0
 17 18  2  0  0  0  0
 17 21  1  0  0  0  0
 18 19  1  0  0  0  0
 18 23  1  0  0  0  0
 19 20  2  0  0  0  0
 21 22  1  0  0  0  0
 23 24  1  0  0  0  0
  1 25  1  0  0  0  0
  2 26  1  0  0  0  0
  3 27  1  0  0  0  0
  4 28  1  0  0  0  0
 10 29  1  0  0  0  0
 10 30  1  0  0  0  0
 12 31  1  0  0  0  0
 12 32  1  0  0  0  0
 12 33  1  0  0  0  0
 14 34  1  0  0  0  0
 16 35  1  0  0  0  0
 19 36  1  0  0  0  0
 20 37  1  0  0  0  0
 22 38  1  0  0  0  0
 22 39  1  0  0  0  0
 22 40  1  0  0  0  0
 24 41  1  0  0  0  0
 24 42  1  0  0  0  0
 24 43  1  0  0  0  0
M  END
> <Name>
15

> <IC50[uM]>
2.5

$$$$
15
  -OEChem-05192314333D
 Structure written by MMmdl.
 43 45  0     1  0  0  0  0  0999 V2000
   -6.3730   12.3647  -12.0124 C   0  0  0  0  0  0  0  0  0  0  0  0
   -6.5249   11.8167  -10.7375 C   0  0  0  0  0  0  0  0  0  0  0  0
   -7.7225   10.5819  -13.0270 C   0  0  0  0  0  0  0  0  0  0  0  0
   -6.9871   11.7813  -13.1320 C   0  0  0  0  0  0  0  0  0  0  0  0
   -7.8205   10.0150  -11.7538 C   0  0  0  0  0  0  0  0  0  0  0  0
   -7.2514   10.6217  -10.6093 C   0  0  3  0  0  0  0  0  0  0  0  0
   -7.6113    9.7463   -9.5119 C   0  0  0  0  0  0  0  0  0  0  0  0
   -8.2838    8.7282   -9.9768 N   0  0  0  0  0  0  0  0  0  0  0  0
   -8.4166    8.8609  -11.2984 N   0  0  0  0  0  0  0  0  0  0  0  0
   -7.3282    9.8959   -8.0269 C   0  0  0  0  0  0  0  0  0  0  0  0
   -4.4004   13.6489  -11.4541 N   0  0  0  0  0  0  0  0  0  0  0  0
   -3.4592   14.7715  -11.4916 C   0  0  0  0  0  0  0  0  0  0  0  0
   -5.5363   13.6231  -12.1917 C   0  0  0  0  0  0  0  0  0  0  0  0
   -5.8861   14.5056  -12.9557 O   0  0  0  0  0  0  0  0  0  0  0  0
   -5.9554   10.4909   -7.7390 C   0  0  0  0  0  0  0  0  0  0  0  0
   -5.8447   11.7612   -7.1661 C   0  0  0  0  0  0  0  0  0  0  0  0
   -4.5697   12.3054   -6.9214 C   0  0  0  0  0  0  0  0  0  0  0  0
   -3.4308   11.5801   -7.2259 C   0  0  0  0  0  0  0  0  0  0  0  0
   -3.5429   10.3015   -7.8076 C   0  0  0  0  0  0  0  0  0  0  0  0
   -4.8018    9.7661   -8.0596 C   0  0  0  0  0  0  0  0  0  0  0  0
   -4.4352   13.5609   -6.3638 O   0  0  0  0  0  0  0  0  0  0  0  0
   -3.6839   14.5445   -7.0766 C   0  0  0  0  0  0  0  0  0  0  0  0
   -2.1928   12.1397   -6.9410 O   0  0  0  0  0  0  0  0  0  0  0  0
   -1.0568   11.8071   -7.7386 C   0  0  0  0  0  0  0  0  0  0  0  0
   -6.0949   12.2992   -9.8722 H   0  0  0  0  0  0  0  0  0  0  0  0
   -8.1868   10.1246  -13.8882 H   0  0  0  0  0  0  0  0  0  0  0  0
   -6.8945   12.2613  -14.0950 H   0  0  0  0  0  0  0  0  0  0  0  0
   -8.1752   11.1984  -10.4540 H   0  0  0  0  0  0  0  0  0  0  0  0
   -8.0938   10.5530   -7.5887 H   0  0  0  0  0  0  0  0  0  0  0  0
   -7.3851    8.9027   -7.5575 H   0  0  0  0  0  0  0  0  0  0  0  0
   -2.6173   14.5676  -10.8136 H   0  0  0  0  0  0  0  0  0  0  0  0
   -3.0815   14.8991  -12.5168 H   0  0  0  0  0  0  0  0  0  0  0  0
   -3.9723   15.6908  -11.1728 H   0  0  0  0  0  0  0  0  0  0  0  0
   -5.2484   15.2095  -12.9404 H   0  0  0  0  0  0  0  0  0  0  0  0
   -6.7323   12.3219   -6.9127 H   0  0  0  0  0  0  0  0  0  0  0  0
   -2.6549    9.7395   -8.0568 H   0  0  0  0  0  0  0  0  0  0  0  0
   -4.8895    8.7861   -8.5049 H   0  0  0  0  0  0  0  0  0  0  0  0
   -3.6711   15.4833   -6.5034 H   0  0  0  0  0  0  0  0  0  0  0  0
   -2.6532   14.1872   -7.2178 H   0  0  0  0  0  0  0  0  0  0  0  0
   -4.1486   14.7205   -8.0580 H   0  0  0  0  0  0  0  0  0  0  0  0
   -0.1739   12.3445   -7.3623 H   0  0  0  0  0  0  0  0  0  0  0  0
   -0.8764   10.7233   -7.6856 H   0  0  0  0  0  0  0  0  0  0  0  0
   -1.2447   12.0969   -8.7830 H   0  0  0  0  0  0  0  0  0  0  0  0
  1  2  2  0  0  0  0
  1  4  1  0  0  0  0
  1 13  1  0  0  0  0
  2  6  1  0  0  0  0
  3  4  2  0  0  0  0
  3  5  1  0  0  0  0
  5  6  1  0  0  0  0
  5  9  2  0  0  0  0
  6  7  1  0  0  0  0
  7  8  2  0  0  0  0
  7 10  1  0  0  0  0
  8  9  1  0  0  0  0
 10 15  1  0  0  0  0
 11 12  1  0  0  0  0
 11 13  2  0  0  0  0
 13 14  1  0  0  0  0
 15 16  2  0  0  0  0
 15 20  1  0  0  0  0
 16 17  1  0  0  0  0
 17 18  2  0  0  0  0
 17 21  1  0  0  0  0
 18 19  1  0  0  0  0
 18 23  1  0  0  0  0
 19 20  2  0  0  0  0
 21 22  1  0  0  0  0
 23 24  1  0  0  0  0
  2 25  1  0  0  0  0
  3 26  1  0  0  0  0
  4 27  1  0  0  0  0
  6 28  1  0  0  0  0
 10 29  1  0  0  0  0
 10 30  1  0  0  0  0
 12 31  1  0  0  0  0
 12 32  1  0  0  0  0
 12 33  1  0  0  0  0
 14 34  1  0  0  0  0
 16 35  1  0  0  0  0
 19 36  1  0  0  0  0
 20 37  1  0  0  0  0
 22 38  1  0  0  0  0
 22 39  1  0  0  0  0
 22 40  1  0  0  0  0
 24 41  1  0  0  0  0
 24 42  1  0  0  0  0
 24 43  1  0  0  0  0
M  END
> <Name>
15

> <IC50[uM]>
2.5

$$$$
15
  -OEChem-05192314333D
 Structure written by MMmdl.
 43 45  0     0  0  0  0  0  0999 V2000
   -6.3730   12.3647  -12.0124 C   0  0  0  0  0  0  0  0  0  0  0  0
   -6.5249   11.8167  -10.7375 C   0  0  0  0  0  0  0  0  0  0  0  0
   -7.7225   10.5819  -13.0270 C   0  0  0  0  0  0  0  0  0  0  0  0
   -6.9871   11.7813  -13.1320 C   0  0  0  0  0  0  0  0  0  0  0  0
   -7.8205   10.0150  -11.7538 C   0  0  0  0  0  0  0  0  0  0  0  0
   -7.2514   10.6217  -10.6093 C   0  0  0  0  0  0  0  0  0  0  0  0
   -7.6113    9.7463   -9.5119 C   0  0  0  0  0  0  0  0  0  0  0  0
   -8.2838    8.7282   -9.9768 N   0  0  0  0  0  0  0  0  0  0  0  0
   -8.4166    8.8609  -11.2984 N   0  0  0  0  0  0  0  0  0  0  0  0
   -7.3282    9.8959   -8.0269 C   0  0  0  0  0  0  0  0  0  0  0  0
   -4.4004   13.6489  -11.4541 N   0  0  0  0  0  0  0  0  0  0  0  0
   -3.4592   14.7715  -11.4916 C   0  0  0  0  0  0  0  0  0  0  0  0
   -5.5363   13.6231  -12.1917 C   0  0  0  0  0  0  0  0  0  0  0  0
   -5.8861   14.5056  -12.9557 O   0  0  0  0  0  0  0  0  0  0  0  0
   -5.9554   10.4909   -7.7390 C   0  0  0  0  0  0  0  0  0  0  0  0
   -5.8447   11.7612   -7.1661 C   0  0  0  0  0  0  0  0  0  0  0  0
   -4.5697   12.3054   -6.9214 C   0  0  0  0  0  0  0  0  0  0  0  0
   -3.4308   11.5801   -7.2259 C   0  0  0  0  0  0  0  0  0  0  0  0
   -3.5429   10.3015   -7.8076 C   0  0  0  0  0  0  0  0  0  0  0  0
   -4.8018    9.7661   -8.0596 C   0  0  0  0  0  0  0  0  0  0  0  0
   -4.4352   13.5609   -6.3638 O   0  0  0  0  0  0  0  0  0  0  0  0
   -3.6839   14.5445   -7.0766 C   0  0  0  0  0  0  0  0  0  0  0  0
   -2.1928   12.1397   -6.9410 O   0  0  0  0  0  0  0  0  0  0  0  0
   -1.0568   11.8071   -7.7386 C   0  0  0  0  0  0  0  0  0  0  0  0
   -6.0949   12.2992   -9.8722 H   0  0  0  0  0  0  0  0  0  0  0  0
   -8.7440   10.7853  -13.3808 H   0  0  0  0  0  0  0  0  0  0  0  0
   -7.2470    9.8407  -13.6861 H   0  0  0  0  0  0  0  0  0  0  0  0
   -6.8945   12.2613  -14.0950 H   0  0  0  0  0  0  0  0  0  0  0  0
   -8.0938   10.5530   -7.5887 H   0  0  0  0  0  0  0  0  0  0  0  0
   -7.3851    8.9027   -7.5575 H   0  0  0  0  0  0  0  0  0  0  0  0
   -2.6173   14.5676  -10.8136 H   0  0  0  0  0  0  0  0  0  0  0  0
   -3.0815   14.8991  -12.5168 H   0  0  0  0  0  0  0  0  0  0  0  0
   -3.9723   15.6908  -11.1728 H   0  0  0  0  0  0  0  0  0  0  0  0
   -5.2484   15.2095  -12.9404 H   0  0  0  0  0  0  0  0  0  0  0  0
   -6.7323   12.3219   -6.9127 H   0  0  0  0  0  0  0  0  0  0  0  0
   -2.6549    9.7395   -8.0568 H   0  0  0  0  0  0  0  0  0  0  0  0
   -4.8895    8.7861   -8.5049 H   0  0  0  0  0  0  0  0  0  0  0  0
   -3.6711   15.4833   -6.5034 H   0  0  0  0  0  0  0  0  0  0  0  0
   -2.6532   14.1872   -7.2178 H   0  0  0  0  0  0  0  0  0  0  0  0
   -4.1486   14.7205   -8.0580 H   0  0  0  0  0  0  0  0  0  0  0  0
   -0.1739   12.3445   -7.3623 H   0  0  0  0  0  0  0  0  0  0  0  0
   -0.8764   10.7233   -7.6856 H   0  0  0  0  0  0  0  0  0  0  0  0
   -1.2447   12.0969   -8.7830 H   0  0  0  0  0  0  0  0  0  0  0  0
  1  2  1  0  0  0  0
  1  4  2  0  0  0  0
  1 13  1  0  0  0  0
  2  6  2  0  0  0  0
  3  4  1  0  0  0  0
  3  5  1  0  0  0  0
  5  6  1  0  0  0  0
  5  9  2  0  0  0  0
  6  7  1  0  0  0  0
  7  8  2  0  0  0  0
  7 10  1  0  0  0  0
  8  9  1  0  0  0  0
 10 15  1  0  0  0  0
 11 12  1  0  0  0  0
 11 13  2  0  0  0  0
 13 14  1  0  0  0  0
 15 16  2  0  0  0  0
 15 20  1  0  0  0  0
 16 17  1  0  0  0  0
 17 18  2  0  0  0  0
 17 21  1  0  0  0  0
 18 19  1  0  0  0  0
 18 23  1  0  0  0  0
 19 20  2  0  0  0  0
 21 22  1  0  0  0  0
 23 24  1  0  0  0  0
  2 25  1  0  0  0  0
  3 26  1  0  0  0  0
  3 27  1  0  0  0  0
  4 28  1  0  0  0  0
 10 29  1  0  0  0  0
 10 30  1  0  0  0  0
 12 31  1  0  0  0  0
 12 32  1  0  0  0  0
 12 33  1  0  0  0  0
 14 34  1  0  0  0  0
 16 35  1  0  0  0  0
 19 36  1  0  0  0  0
 20 37  1  0  0  0  0
 22 38  1  0  0  0  0
 22 39  1  0  0  0  0
 22 40  1  0  0  0  0
 24 41  1  0  0  0  0
 24 42  1  0  0  0  0
 24 43  1  0  0  0  0
M  END
> <Name>
15

> <IC50[uM]>
2.5

$$$$
15
  -OEChem-05192314333D
 Structure written by MMmdl.
 43 45  0     1  0  0  0  0  0999 V2000
   -6.3730   12.3647  -12.0124 C   0  0  3  0  0  0  0  0  0  0  0  0
   -6.5249   11.8167  -10.7375 C   0  0  0  0  0  0  0  0  0  0  0  0
   -7.7225   10.5819  -13.0270 C   0  0  0  0  0  0  0  0  0  0  0  0
   -6.9871   11.7813  -13.1320 C   0  0  0  0  0  0  0  0  0  0  0  0
   -7.8205   10.0150  -11.7538 C   0  0  3  0  0  0  0  0  0  0  0  0
   -7.2514   10.6217  -10.6093 C   0  0  0  0  0  0  0  0  0  0  0  0
   -7.6113    9.7463   -9.5119 C   0  0  0  0  0  0  0  0  0  0  0  0
   -8.2838    8.7282   -9.9768 N   0  0  0  0  0  0  0  0  0  0  0  0
   -8.4166    8.8609  -11.2984 N   0  0  0  0  0  0  0  0  0  0  0  0
   -7.3282    9.8959   -8.0269 C   0  0  0  0  0  0  0  0  0  0  0  0
   -4.4004   13.6489  -11.4541 N   0  0  0  0  0  0  0  0  0  0  0  0
   -3.4592   14.7715  -11.4916 C   0  0  0  0  0  0  0  0  0  0  0  0
   -5.5363   13.6231  -12.1917 C   0  0  0  0  0  0  0  0  0  0  0  0
   -5.8861   14.5056  -12.9557 O   0  0  0  0  0  0  0  0  0  0  0  0
   -5.9554   10.4909   -7.7390 C   0  0  0  0  0  0  0  0  0  0  0  0
   -5.8447   11.7612   -7.1661 C   0  0  0  0  0  0  0  0  0  0  0  0
   -4.5697   12.3054   -6.9214 C   0  0  0  0  0  0  0  0  0  0  0  0
   -3.4308   11.5801   -7.2259 C   0  0  0  0  0  0  0  0  0  0  0  0
   -3.5429   10.3015   -7.8076 C   0  0  0  0  0  0  0  0  0  0  0  0
   -4.8018    9.7661   -8.0596 C   0  0  0  0  0  0  0  0  0  0  0  0
   -4.4352   13.5609   -6.3638 O   0  0  0  0  0  0  0  0  0  0  0  0
   -3.6839   14.5445   -7.0766 C   0  0  0  0  0  0  0  0  0  0  0  0
   -2.1928   12.1397   -6.9410 O   0  0  0  0  0  0  0  0  0  0  0  0
   -1.0568   11.8071   -7.7386 C   0  0  0  0  0  0  0  0  0  0  0  0
   -5.4795   11.7442  -12.1757 H   0  0  0  0  0  0  0  0  0  0  0  0
   -6.0949   12.2992   -9.8722 H   0  0  0  0  0  0  0  0  0  0  0  0
   -8.1868   10.1246  -13.8882 H   0  0  0  0  0  0  0  0  0  0  0  0
   -6.8945   12.2613  -14.0950 H   0  0  0  0  0  0  0  0  0  0  0  0
   -6.8846    9.4635  -11.9271 H   0  0  0  0  0  0  0  0  0  0  0  0
   -8.0276    9.6101   -7.2552 H   0  0  0  0  0  0  0  0  0  0  0  0
   -4.1959   12.8707  -10.8602 H   0  0  0  0  0  0  0  0  0  0  0  0
   -2.6173   14.5676  -10.8136 H   0  0  0  0  0  0  0  0  0  0  0  0
   -3.0815   14.8991  -12.5168 H   0  0  0  0  0  0  0  0  0  0  0  0
   -3.9723   15.6908  -11.1728 H   0  0  0  0  0  0  0  0  0  0  0  0
   -6.7323   12.3219   -6.9127 H   0  0  0  0  0  0  0  0  0  0  0  0
   -2.6549    9.7395   -8.0568 H   0  0  0  0  0  0  0  0  0  0  0  0
   -4.8895    8.7861   -8.5049 H   0  0  0  0  0  0  0  0  0  0  0  0
   -3.6711   15.4833   -6.5034 H   0  0  0  0  0  0  0  0  0  0  0  0
   -2.6532   14.1872   -7.2178 H   0  0  0  0  0  0  0  0  0  0  0  0
   -4.1486   14.7205   -8.0580 H   0  0  0  0  0  0  0  0  0  0  0  0
   -0.1739   12.3445   -7.3623 H   0  0  0  0  0  0  0  0  0  0  0  0
   -0.8764   10.7233   -7.6856 H   0  0  0  0  0  0  0  0  0  0  0  0
   -1.2447   12.0969   -8.7830 H   0  0  0  0  0  0  0  0  0  0  0  0
  1  2  1  0  0  0  0
  1  4  1  0  0  0  0
  1 13  1  0  0  0  0
  2  6  2  0  0  0  0
  3  4  2  0  0  0  0
  3  5  1  0  0  0  0
  5  6  1  0  0  0  0
  5  9  1  0  0  0  0
  6  7  1  0  0  0  0
  7  8  1  0  0  0  0
  7 10  2  3  0  0  0
  8  9  2  0  0  0  0
 10 15  1  0  0  0  0
 11 12  1  0  0  0  0
 11 13  1  0  0  0  0
 13 14  2  0  0  0  0
 15 16  2  0  0  0  0
 15 20  1  0  0  0  0
 16 17  1  0  0  0  0
 17 18  2  0  0  0  0
 17 21  1  0  0  0  0
 18 19  1  0  0  0  0
 18 23  1  0  0  0  0
 19 20  2  0  0  0  0
 21 22  1  0  0  0  0
 23 24  1  0  0  0  0
  1 25  1  0  0  0  0
  2 26  1  0  0  0  0
  3 27  1  0  0  0  0
  4 28  1  0  0  0  0
  5 29  1  0  0  0  0
 10 30  1  0  0  0  0
 11 31  1  0  0  0  0
 12 32  1  0  0  0  0
 12 33  1  0  0  0  0
 12 34  1  0  0  0  0
 16 35  1  0  0  0  0
 19 36  1  0  0  0  0
 20 37  1  0  0  0  0
 22 38  1  0  0  0  0
 22 39  1  0  0  0  0
 22 40  1  0  0  0  0
 24 41  1  0  0  0  0
 24 42  1  0  0  0  0
 24 43  1  0  0  0  0
M  END
> <Name>
15

> <IC50[uM]>
2.5

$$$$
15
  -OEChem-05192314333D
 Structure written by MMmdl.
 43 45  0     1  0  0  0  0  0999 V2000
   -6.3730   12.3647  -12.0124 C   0  0  0  0  0  0  0  0  0  0  0  0
   -6.5249   11.8167  -10.7375 C   0  0  0  0  0  0  0  0  0  0  0  0
   -7.7225   10.5819  -13.0270 C   0  0  0  0  0  0  0  0  0  0  0  0
   -6.9871   11.7813  -13.1320 C   0  0  0  0  0  0  0  0  0  0  0  0
   -7.8205   10.0150  -11.7538 C   0  0  3  0  0  0  0  0  0  0  0  0
   -7.2514   10.6217  -10.6093 C   0  0  3  0  0  0  0  0  0  0  0  0
   -7.6113    9.7463   -9.5119 C   0  0  0  0  0  0  0  0  0  0  0  0
   -8.2838    8.7282   -9.9768 N   0  0  0  0  0  0  0  0  0  0  0  0
   -8.4166    8.8609  -11.2984 N   0  0  0  0  0  0  0  0  0  0  0  0
   -7.3282    9.8959   -8.0269 C   0  0  0  0  0  0  0  0  0  0  0  0
   -4.4004   13.6489  -11.4541 N   0  0  0  0  0  0  0  0  0  0  0  0
   -3.4592   14.7715  -11.4916 C   0  0  0  0  0  0  0  0  0  0  0  0
   -5.5363   13.6231  -12.1917 C   0  0  0  0  0  0  0  0  0  0  0  0
   -5.8861   14.5056  -12.9557 O   0  0  0  0  0  0  0  0  0  0  0  0
   -5.9554   10.4909   -7.7390 C   0  0  0  0  0  0  0  0  0  0  0  0
   -5.8447   11.7612   -7.1661 C   0  0  0  0  0  0  0  0  0  0  0  0
   -4.5697   12.3054   -6.9214 C   0  0  0  0  0  0  0  0  0  0  0  0
   -3.4308   11.5801   -7.2259 C   0  0  0  0  0  0  0  0  0  0  0  0
   -3.5429   10.3015   -7.8076 C   0  0  0  0  0  0  0  0  0  0  0  0
   -4.8018    9.7661   -8.0596 C   0  0  0  0  0  0  0  0  0  0  0  0
   -4.4352   13.5609   -6.3638 O   0  0  0  0  0  0  0  0  0  0  0  0
   -3.6839   14.5445   -7.0766 C   0  0  0  0  0  0  0  0  0  0  0  0
   -2.1928   12.1397   -6.9410 O   0  0  0  0  0  0  0  0  0  0  0  0
   -1.0568   11.8071   -7.7386 C   0  0  0  0  0  0  0  0  0  0  0  0
   -6.0949   12.2992   -9.8722 H   0  0  0  0  0  0  0  0  0  0  0  0
   -8.1868   10.1246  -13.8882 H   0  0  0  0  0  0  0  0  0  0  0  0
   -6.8945   12.2613  -14.0950 H   0  0  0  0  0  0  0  0  0  0  0  0
   -6.8846    9.4635  -11.9271 H   0  0  0  0  0  0  0  0  0  0  0  0
   -8.1752   11.1984  -10.4540 H   0  0  0  0  0  0  0  0  0  0  0  0
   -8.0276    9.6101   -7.2552 H   0  0  0  0  0  0  0  0  0  0  0  0
   -4.1959   12.8707  -10.8602 H   0  0  0  0  0  0  0  0  0  0  0  0
   -2.6173   14.5676  -10.8136 H   0  0  0  0  0  0  0  0  0  0  0  0
   -3.0815   14.8991  -12.5168 H   0  0  0  0  0  0  0  0  0  0  0  0
   -3.9723   15.6908  -11.1728 H   0  0  0  0  0  0  0  0  0  0  0  0
   -6.7323   12.3219   -6.9127 H   0  0  0  0  0  0  0  0  0  0  0  0
   -2.6549    9.7395   -8.0568 H   0  0  0  0  0  0  0  0  0  0  0  0
   -4.8895    8.7861   -8.5049 H   0  0  0  0  0  0  0  0  0  0  0  0
   -3.6711   15.4833   -6.5034 H   0  0  0  0  0  0  0  0  0  0  0  0
   -2.6532   14.1872   -7.2178 H   0  0  0  0  0  0  0  0  0  0  0  0
   -4.1486   14.7205   -8.0580 H   0  0  0  0  0  0  0  0  0  0  0  0
   -0.1739   12.3445   -7.3623 H   0  0  0  0  0  0  0  0  0  0  0  0
   -0.8764   10.7233   -7.6856 H   0  0  0  0  0  0  0  0  0  0  0  0
   -1.2447   12.0969   -8.7830 H   0  0  0  0  0  0  0  0  0  0  0  0
  1  2  2  0  0  0  0
  1  4  1  0  0  0  0
  1 13  1  0  0  0  0
  2  6  1  0  0  0  0
  3  4  2  0  0  0  0
  3  5  1  0  0  0  0
  5  6  1  0  0  0  0
  5  9  1  0  0  0  0
  6  7  1  0  0  0  0
  7  8  1  0  0  0  0
  7 10  2  3  0  0  0
  8  9  2  0  0  0  0
 10 15  1  0  0  0  0
 11 12  1  0  0  0  0
 11 13  1  0  0  0  0
 13 14  2  0  0  0  0
 15 16  2  0  0  0  0
 15 20  1  0  0  0  0
 16 17  1  0  0  0  0
 17 18  2  0  0  0  0
 17 21  1  0  0  0  0
 18 19  1  0  0  0  0
 18 23  1  0  0  0  0
 19 20  2  0  0  0  0
 21 22  1  0  0  0  0
 23 24  1  0  0  0  0
  2 25  1  0  0  0  0
  3 26  1  0  0  0  0
  4 27  1  0  0  0  0
  5 28  1  0  0  0  0
  6 29  1  0  0  0  0
 10 30  1  0  0  0  0
 11 31  1  0  0  0  0
 12 32  1  0  0  0  0
 12 33  1  0  0  0  0
 12 34  1  0  0  0  0
 16 35  1  0  0  0  0
 19 36  1  0  0  0  0
 20 37  1  0  0  0  0
 22 38  1  0  0  0  0
 22 39  1  0  0  0  0
 22 40  1  0  0  0  0
 24 41  1  0  0  0  0
 24 42  1  0  0  0  0
 24 43  1  0  0  0  0
M  END
> <Name>
15

> <IC50[uM]>
2.5

$$$$
15
  -OEChem-05192314333D
 Structure written by MMmdl.
 43 45  0     1  0  0  0  0  0999 V2000
   -6.3730   12.3647  -12.0124 C   0  0  0  0  0  0  0  0  0  0  0  0
   -6.5249   11.8167  -10.7375 C   0  0  0  0  0  0  0  0  0  0  0  0
   -7.7225   10.5819  -13.0270 C   0  0  0  0  0  0  0  0  0  0  0  0
   -6.9871   11.7813  -13.1320 C   0  0  0  0  0  0  0  0  0  0  0  0
   -7.8205   10.0150  -11.7538 C   0  0  0  0  0  0  0  0  0  0  0  0
   -7.2514   10.6217  -10.6093 C   0  0  0  0  0  0  0  0  0  0  0  0
   -7.6113    9.7463   -9.5119 C   0  0  0  0  0  0  0  0  0  0  0  0
   -8.2838    8.7282   -9.9768 N   0  0  0  0  0  0  0  0  0  0  0  0
   -8.4166    8.8609  -11.2984 N   0  0  0  0  0  0  0  0  0  0  0  0
   -7.3282    9.8959   -8.0269 C   0  0  0  0  0  0  0  0  0  0  0  0
   -4.4004   13.6489  -11.4541 N   0  0  0  0  0  0  0  0  0  0  0  0
   -3.4592   14.7715  -11.4916 C   0  0  0  0  0  0  0  0  0  0  0  0
   -5.5363   13.6231  -12.1917 C   0  0  0  0  0  0  0  0  0  0  0  0
   -5.8861   14.5056  -12.9557 O   0  0  0  0  0  0  0  0  0  0  0  0
   -5.9554   10.4909   -7.7390 C   0  0  3  0  0  0  0  0  0  0  0  0
   -5.8447   11.7612   -7.1661 C   0  0  0  0  0  0  0  0  0  0  0  0
   -4.5697   12.3054   -6.9214 C   0  0  0  0  0  0  0  0  0  0  0  0
   -3.4308   11.5801   -7.2259 C   0  0  3  0  0  0  0  0  0  0  0  0
   -3.5429   10.3015   -7.8076 C   0  0  0  0  0  0  0  0  0  0  0  0
   -4.8018    9.7661   -8.0596 C   0  0  0  0  0  0  0  0  0  0  0  0
   -4.4352   13.5609   -6.3638 O   0  0  0  0  0  0  0  0  0  0  0  0
   -3.6839   14.5445   -7.0766 C   0  0  0  0  0  0  0  0  0  0  0  0
   -2.1928   12.1397   -6.9410 O   0  0  0  0  0  0  0  0  0  0  0  0
   -1.0568   11.8071   -7.7386 C   0  0  0  0  0  0  0  0  0  0  0  0
   -6.0949   12.2992   -9.8722 H   0  0  0  0  0  0  0  0  0  0  0  0
   -8.1868   10.1246  -13.8882 H   0  0  0  0  0  0  0  0  0  0  0  0
   -6.8945   12.2613  -14.0950 H   0  0  0  0  0  0  0  0  0  0  0  0
   -8.0276    9.6101   -7.2552 H   0  0  0  0  0  0  0  0  0  0  0  0
   -4.1959   12.8707  -10.8602 H   0  0  0  0  0  0  0  0  0  0  0  0
   -2.6173   14.5676  -10.8136 H   0  0  0  0  0  0  0  0  0  0  0  0
   -3.0815   14.8991  -12.5168 H   0  0  0  0  0  0  0  0  0  0  0  0
   -3.9723   15.6908  -11.1728 H   0  0  0  0  0  0  0  0  0  0  0  0
   -5.9658   10.0368   -6.7372 H   0  0  0  0  0  0  0  0  0  0  0  0
   -6.7323   12.3219   -6.9127 H   0  0  0  0  0  0  0  0  0  0  0  0
   -3.4073   12.0349   -8.2272 H   0  0  0  0  0  0  0  0  0  0  0  0
   -2.6549    9.7395   -8.0568 H   0  0  0  0  0  0  0  0  0  0  0  0
   -4.8895    8.7861   -8.5049 H   0  0  0  0  0  0  0  0  0  0  0  0
   -3.6711   15.4833   -6.5034 H   0  0  0  0  0  0  0  0  0  0  0  0
   -2.6532   14.1872   -7.2178 H   0  0  0  0  0  0  0  0  0  0  0  0
   -4.1486   14.7205   -8.0580 H   0  0  0  0  0  0  0  0  0  0  0  0
   -0.1739   12.3445   -7.3623 H   0  0  0  0  0  0  0  0  0  0  0  0
   -0.8764   10.7233   -7.6856 H   0  0  0  0  0  0  0  0  0  0  0  0
   -1.2447   12.0969   -8.7830 H   0  0  0  0  0  0  0  0  0  0  0  0
  1  2  2  0  0  0  0
  1  4  1  0  0  0  0
  1 13  1  0  0  0  0
  2  6  1  0  0  0  0
  3  4  2  0  0  0  0
  3  5  1  0  0  0  0
  5  6  2  0  0  0  0
  5  9  1  0  0  0  0
  6  7  1  0  0  0  0
  7  8  1  0  0  0  0
  7 10  2  3  0  0  0
  8  9  2  0  0  0  0
 10 15  1  0  0  0  0
 11 12  1  0  0  0  0
 11 13  1  0  0  0  0
 13 14  2  0  0  0  0
 15 16  1  0  0  0  0
 15 20  1  0  0  0  0
 16 17  2  0  0  0  0
 17 18  1  0  0  0  0
 17 21  1  0  0  0  0
 18 19  1  0  0  0  0
 18 23  1  0  0  0  0
 19 20  2  0  0  0  0
 21 22  1  0  0  0  0
 23 24  1  0  0  0  0
  2 25  1  0  0  0  0
  3 26  1  0  0  0  0
  4 27  1  0  0  0  0
 10 28  1  0  0  0  0
 11 29  1  0  0  0  0
 12 30  1  0  0  0  0
 12 31  1  0  0  0  0
 12 32  1  0  0  0  0
 15 33  1  0  0  0  0
 16 34  1  0  0  0  0
 18 35  1  0  0  0  0
 19 36  1  0  0  0  0
 20 37  1  0  0  0  0
 22 38  1  0  0  0  0
 22 39  1  0  0  0  0
 22 40  1  0  0  0  0
 24 41  1  0  0  0  0
 24 42  1  0  0  0  0
 24 43  1  0  0  0  0
M  END
> <Name>
15

> <IC50[uM]>
2.5

$$$$
15
  -OEChem-05192314333D
 Structure written by MMmdl.
 43 45  0     1  0  0  0  0  0999 V2000
   -6.3730   12.3647  -12.0124 C   0  0  0  0  0  0  0  0  0  0  0  0
   -6.5249   11.8167  -10.7375 C   0  0  0  0  0  0  0  0  0  0  0  0
   -7.7225   10.5819  -13.0270 C   0  0  0  0  0  0  0  0  0  0  0  0
   -6.9871   11.7813  -13.1320 C   0  0  0  0  0  0  0  0  0  0  0  0
   -7.8205   10.0150  -11.7538 C   0  0  0  0  0  0  0  0  0  0  0  0
   -7.2514   10.6217  -10.6093 C   0  0  0  0  0  0  0  0  0  0  0  0
   -7.6113    9.7463   -9.5119 C   0  0  3  0  0  0  0  0  0  0  0  0
   -8.2838    8.7282   -9.9768 N   0  0  0  0  0  0  0  0  0  0  0  0
   -8.4166    8.8609  -11.2984 N   0  0  0  0  0  0  0  0  0  0  0  0
   -7.3282    9.8959   -8.0269 C   0  0  0  0  0  0  0  0  0  0  0  0
   -4.4004   13.6489  -11.4541 N   0  0  0  0  0  0  0  0  0  0  0  0
   -3.4592   14.7715  -11.4916 C   0  0  0  0  0  0  0  0  0  0  0  0
   -5.5363   13.6231  -12.1917 C   0  0  0  0  0  0  0  0  0  0  0  0
   -5.8861   14.5056  -12.9557 O   0  0  0  0  0  0  0  0  0  0  0  0
   -5.9554   10.4909   -7.7390 C   0  0  0  0  0  0  0  0  0  0  0  0
   -5.8447   11.7612   -7.1661 C   0  0  0  0  0  0  0  0  0  0  0  0
   -4.5697   12.3054   -6.9214 C   0  0  0  0  0  0  0  0  0  0  0  0
   -3.4308   11.5801   -7.2259 C   0  0  3  0  0  0  0  0  0  0  0  0
   -3.5429   10.3015   -7.8076 C   0  0  0  0  0  0  0  0  0  0  0  0
   -4.8018    9.7661   -8.0596 C   0  0  0  0  0  0  0  0  0  0  0  0
   -4.4352   13.5609   -6.3638 O   0  0  0  0  0  0  0  0  0  0  0  0
   -3.6839   14.5445   -7.0766 C   0  0  0  0  0  0  0  0  0  0  0  0
   -2.1928   12.1397   -6.9410 O   0  0  0  0  0  0  0  0  0  0  0  0
   -1.0568   11.8071   -7.7386 C   0  0  0  0  0  0  0  0  0  0  0  0
   -6.0949   12.2992   -9.8722 H   0  0  0  0  0  0  0  0  0  0  0  0
   -8.1868   10.1246  -13.8882 H   0  0  0  0  0  0  0  0  0  0  0  0
   -6.8945   12.2613  -14.0950 H   0  0  0  0  0  0  0  0  0  0  0  0
   -6.6707    9.1906   -9.6401 H   0  0  0  0  0  0  0  0  0  0  0  0
   -8.0276    9.6101   -7.2552 H   0  0  0  0  0  0  0  0  0  0  0  0
   -4.1959   12.8707  -10.8602 H   0  0  0  0  0  0  0  0  0  0  0  0
   -2.6173   14.5676  -10.8136 H   0  0  0  0  0  0  0  0  0  0  0  0
   -3.0815   14.8991  -12.5168 H   0  0  0  0  0  0  0  0  0  0  0  0
   -3.9723   15.6908  -11.1728 H   0  0  0  0  0  0  0  0  0  0  0  0
   -6.7323   12.3219   -6.9127 H   0  0  0  0  0  0  0  0  0  0  0  0
   -3.4073   12.0349   -8.2272 H   0  0  0  0  0  0  0  0  0  0  0  0
   -2.6549    9.7395   -8.0568 H   0  0  0  0  0  0  0  0  0  0  0  0
   -4.8895    8.7861   -8.5049 H   0  0  0  0  0  0  0  0  0  0  0  0
   -3.6711   15.4833   -6.5034 H   0  0  0  0  0  0  0  0  0  0  0  0
   -2.6532   14.1872   -7.2178 H   0  0  0  0  0  0  0  0  0  0  0  0
   -4.1486   14.7205   -8.0580 H   0  0  0  0  0  0  0  0  0  0  0  0
   -0.1739   12.3445   -7.3623 H   0  0  0  0  0  0  0  0  0  0  0  0
   -0.8764   10.7233   -7.6856 H   0  0  0  0  0  0  0  0  0  0  0  0
   -1.2447   12.0969   -8.7830 H   0  0  0  0  0  0  0  0  0  0  0  0
  1  2  2  0  0  0  0
  1  4  1  0  0  0  0
  1 13  1  0  0  0  0
  2  6  1  0  0  0  0
  3  4  2  0  0  0  0
  3  5  1  0  0  0  0
  5  6  2  0  0  0  0
  5  9  1  0  0  0  0
  6  7  1  0  0  0  0
  7  8  1  0  0  0  0
  7 10  1  0  0  0  0
  8  9  2  0  0  0  0
 10 15  2  3  0  0  0
 11 12  1  0  0  0  0
 11 13  1  0  0  0  0
 13 14  2  0  0  0  0
 15 16  1  0  0  0  0
 15 20  1  0  0  0  0
 16 17  2  0  0  0  0
 17 18  1  0  0  0  0
 17 21  1  0  0  0  0
 18 19  1  0  0  0  0
 18 23  1  0  0  0  0
 19 20  2  0  0  0  0
 21 22  1  0  0  0  0
 23 24  1  0  0  0  0
  2 25  1  0  0  0  0
  3 26  1  0  0  0  0
  4 27  1  0  0  0  0
  7 28  1  0  0  0  0
 10 29  1  0  0  0  0
 11 30  1  0  0  0  0
 12 31  1  0  0  0  0
 12 32  1  0  0  0  0
 12 33  1  0  0  0  0
 16 34  1  0  0  0  0
 18 35  1  0  0  0  0
 19 36  1  0  0  0  0
 20 37  1  0  0  0  0
 22 38  1  0  0  0  0
 22 39  1  0  0  0  0
 22 40  1  0  0  0  0
 24 41  1  0  0  0  0
 24 42  1  0  0  0  0
 24 43  1  0  0  0  0
M  END
> <Name>
15

> <IC50[uM]>
2.5

$$$$
15
  -OEChem-05192314333D
 Structure written by MMmdl.
 43 45  0     1  0  0  0  0  0999 V2000
   -6.3730   12.3647  -12.0124 C   0  0  0  0  0  0  0  0  0  0  0  0
   -6.5249   11.8167  -10.7375 C   0  0  0  0  0  0  0  0  0  0  0  0
   -7.7225   10.5819  -13.0270 C   0  0  0  0  0  0  0  0  0  0  0  0
   -6.9871   11.7813  -13.1320 C   0  0  0  0  0  0  0  0  0  0  0  0
   -7.8205   10.0150  -11.7538 C   0  0  0  0  0  0  0  0  0  0  0  0
   -7.2514   10.6217  -10.6093 C   0  0  0  0  0  0  0  0  0  0  0  0
   -7.6113    9.7463   -9.5119 C   0  0  0  0  0  0  0  0  0  0  0  0
   -8.2838    8.7282   -9.9768 N   0  0  0  0  0  0  0  0  0  0  0  0
   -8.4166    8.8609  -11.2984 N   0  0  0  0  0  0  0  0  0  0  0  0
   -7.3282    9.8959   -8.0269 C   0  0  0  0  0  0  0  0  0  0  0  0
   -4.4004   13.6489  -11.4541 N   0  0  0  0  0  0  0  0  0  0  0  0
   -3.4592   14.7715  -11.4916 C   0  0  0  0  0  0  0  0  0  0  0  0
   -5.5363   13.6231  -12.1917 C   0  0  0  0  0  0  0  0  0  0  0  0
   -5.8861   14.5056  -12.9557 O   0  0  0  0  0  0  0  0  0  0  0  0
   -5.9554   10.4909   -7.7390 C   0  0  0  0  0  0  0  0  0  0  0  0
   -5.8447   11.7612   -7.1661 C   0  0  0  0  0  0  0  0  0  0  0  0
   -4.5697   12.3054   -6.9214 C   0  0  3  0  0  0  0  0  0  0  0  0
   -3.4308   11.5801   -7.2259 C   0  0  3  0  0  0  0  0  0  0  0  0
   -3.5429   10.3015   -7.8076 C   0  0  0  0  0  0  0  0  0  0  0  0
   -4.8018    9.7661   -8.0596 C   0  0  0  0  0  0  0  0  0  0  0  0
   -4.4352   13.5609   -6.3638 O   0  0  0  0  0  0  0  0  0  0  0  0
   -3.6839   14.5445   -7.0766 C   0  0  0  0  0  0  0  0  0  0  0  0
   -2.1928   12.1397   -6.9410 O   0  0  0  0  0  0  0  0  0  0  0  0
   -1.0568   11.8071   -7.7386 C   0  0  0  0  0  0  0  0  0  0  0  0
   -6.0949   12.2992   -9.8722 H   0  0  0  0  0  0  0  0  0  0  0  0
   -8.1868   10.1246  -13.8882 H   0  0  0  0  0  0  0  0  0  0  0  0
   -6.8945   12.2613  -14.0950 H   0  0  0  0  0  0  0  0  0  0  0  0
   -8.0276    9.6101   -7.2552 H   0  0  0  0  0  0  0  0  0  0  0  0
   -4.1959   12.8707  -10.8602 H   0  0  0  0  0  0  0  0  0  0  0  0
   -2.6173   14.5676  -10.8136 H   0  0  0  0  0  0  0  0  0  0  0  0
   -3.0815   14.8991  -12.5168 H   0  0  0  0  0  0  0  0  0  0  0  0
   -3.9723   15.6908  -11.1728 H   0  0  0  0  0  0  0  0  0  0  0  0
   -6.7323   12.3219   -6.9127 H   0  0  0  0  0  0  0  0  0  0  0  0
   -4.5615   12.7479   -7.9284 H   0  0  0  0  0  0  0  0  0  0  0  0
   -3.4073   12.0349   -8.2272 H   0  0  0  0  0  0  0  0  0  0  0  0
   -2.6549    9.7395   -8.0568 H   0  0  0  0  0  0  0  0  0  0  0  0
   -4.8895    8.7861   -8.5049 H   0  0  0  0  0  0  0  0  0  0  0  0
   -3.6711   15.4833   -6.5034 H   0  0  0  0  0  0  0  0  0  0  0  0
   -2.6532   14.1872   -7.2178 H   0  0  0  0  0  0  0  0  0  0  0  0
   -4.1486   14.7205   -8.0580 H   0  0  0  0  0  0  0  0  0  0  0  0
   -0.1739   12.3445   -7.3623 H   0  0  0  0  0  0  0  0  0  0  0  0
   -0.8764   10.7233   -7.6856 H   0  0  0  0  0  0  0  0  0  0  0  0
   -1.2447   12.0969   -8.7830 H   0  0  0  0  0  0  0  0  0  0  0  0
  1  2  2  0  0  0  0
  1  4  1  0  0  0  0
  1 13  1  0  0  0  0
  2  6  1  0  0  0  0
  3  4  2  0  0  0  0
  3  5  1  0  0  0  0
  5  6  2  0  0  0  0
  5  9  1  0  0  0  0
  6  7  1  0  0  0  0
  7  8  1  0  0  0  0
  7 10  2  3  0  0  0
  8  9  2  0  0  0  0
 10 15  1  0  0  0  0
 11 12  1  0  0  0  0
 11 13  1  0  0  0  0
 13 14  2  0  0  0  0
 15 16  2  0  0  0  0
 15 20  1  0  0  0  0
 16 17  1  0  0  0  0
 17 18  1  0  0  0  0
 17 21  1  0  0  0  0
 18 19  1  0  0  0  0
 18 23  1  0  0  0  0
 19 20  2  0  0  0  0
 21 22  1  0  0  0  0
 23 24  1  0  0  0  0
  2 25  1  0  0  0  0
  3 26  1  0  0  0  0
  4 27  1  0  0  0  0
 10 28  1  0  0  0  0
 11 29  1  0  0  0  0
 12 30  1  0  0  0  0
 12 31  1  0  0  0  0
 12 32  1  0  0  0  0
 16 33  1  0  0  0  0
 17 34  1  0  0  0  0
 18 35  1  0  0  0  0
 19 36  1  0  0  0  0
 20 37  1  0  0  0  0
 22 38  1  0  0  0  0
 22 39  1  0  0  0  0
 22 40  1  0  0  0  0
 24 41  1  0  0  0  0
 24 42  1  0  0  0  0
 24 43  1  0  0  0  0
M  END
> <Name>
15

> <IC50[uM]>
2.5

$$$$
15
  -OEChem-05192314333D
 Structure written by MMmdl.
 43 45  0     1  0  0  0  0  0999 V2000
   -6.3730   12.3647  -12.0124 C   0  0  0  0  0  0  0  0  0  0  0  0
   -6.5249   11.8167  -10.7375 C   0  0  0  0  0  0  0  0  0  0  0  0
   -7.7225   10.5819  -13.0270 C   0  0  0  0  0  0  0  0  0  0  0  0
   -6.9871   11.7813  -13.1320 C   0  0  0  0  0  0  0  0  0  0  0  0
   -7.8205   10.0150  -11.7538 C   0  0  0  0  0  0  0  0  0  0  0  0
   -7.2514   10.6217  -10.6093 C   0  0  0  0  0  0  0  0  0  0  0  0
   -7.6113    9.7463   -9.5119 C   0  0  0  0  0  0  0  0  0  0  0  0
   -8.2838    8.7282   -9.9768 N   0  0  0  0  0  0  0  0  0  0  0  0
   -8.4166    8.8609  -11.2984 N   0  0  0  0  0  0  0  0  0  0  0  0
   -7.3282    9.8959   -8.0269 C   0  0  0  0  0  0  0  0  0  0  0  0
   -4.4004   13.6489  -11.4541 N   0  0  0  0  0  0  0  0  0  0  0  0
   -3.4592   14.7715  -11.4916 C   0  0  0  0  0  0  0  0  0  0  0  0
   -5.5363   13.6231  -12.1917 C   0  0  0  0  0  0  0  0  0  0  0  0
   -5.8861   14.5056  -12.9557 O   0  0  0  0  0  0  0  0  0  0  0  0
   -5.9554   10.4909   -7.7390 C   0  0  0  0  0  0  0  0  0  0  0  0
   -5.8447   11.7612   -7.1661 C   0  0  0  0  0  0  0  0  0  0  0  0
   -4.5697   12.3054   -6.9214 C   0  0  0  0  0  0  0  0  0  0  0  0
   -3.4308   11.5801   -7.2259 C   0  0  3  0  0  0  0  0  0  0  0  0
   -3.5429   10.3015   -7.8076 C   0  0  0  0  0  0  0  0  0  0  0  0
   -4.8018    9.7661   -8.0596 C   0  0  0  0  0  0  0  0  0  0  0  0
   -4.4352   13.5609   -6.3638 O   0  0  0  0  0  0  0  0  0  0  0  0
   -3.6839   14.5445   -7.0766 C   0  0  0  0  0  0  0  0  0  0  0  0
   -2.1928   12.1397   -6.9410 O   0  0  0  0  0  0  0  0  0  0  0  0
   -1.0568   11.8071   -7.7386 C   0  0  0  0  0  0  0  0  0  0  0  0
   -6.0949   12.2992   -9.8722 H   0  0  0  0  0  0  0  0  0  0  0  0
   -8.1868   10.1246  -13.8882 H   0  0  0  0  0  0  0  0  0  0  0  0
   -6.8945   12.2613  -14.0950 H   0  0  0  0  0  0  0  0  0  0  0  0
   -8.0276    9.6101   -7.2552 H   0  0  0  0  0  0  0  0  0  0  0  0
   -4.1959   12.8707  -10.8602 H   0  0  0  0  0  0  0  0  0  0  0  0
   -2.6173   14.5676  -10.8136 H   0  0  0  0  0  0  0  0  0  0  0  0
   -3.0815   14.8991  -12.5168 H   0  0  0  0  0  0  0  0  0  0  0  0
   -3.9723   15.6908  -11.1728 H   0  0  0  0  0  0  0  0  0  0  0  0
   -6.7323   12.3219   -6.9127 H   0  0  0  0  0  0  0  0  0  0  0  0
   -3.4073   12.0349   -8.2272 H   0  0  0  0  0  0  0  0  0  0  0  0
   -3.0151   10.3425   -8.7718 H   0  0  0  0  0  0  0  0  0  0  0  0
   -3.0264    9.5995   -7.1364 H   0  0  0  0  0  0  0  0  0  0  0  0
   -4.8895    8.7861   -8.5049 H   0  0  0  0  0  0  0  0  0  0  0  0
   -3.6711   15.4833   -6.5034 H   0  0  0  0  0  0  0  0  0  0  0  0
   -2.6532   14.1872   -7.2178 H   0  0  0  0  0  0  0  0  0  0  0  0
   -4.1486   14.7205   -8.0580 H   0  0  0  0  0  0  0  0  0  0  0  0
   -0.1739   12.3445   -7.3623 H   0  0  0  0  0  0  0  0  0  0  0  0
   -0.8764   10.7233   -7.6856 H   0  0  0  0  0  0  0  0  0  0  0  0
   -1.2447   12.0969   -8.7830 H   0  0  0  0  0  0  0  0  0  0  0  0
  1  2  2  0  0  0  0
  1  4  1  0  0  0  0
  1 13  1  0  0  0  0
  2  6  1  0  0  0  0
  3  4  2  0  0  0  0
  3  5  1  0  0  0  0
  5  6  2  0  0  0  0
  5  9  1  0  0  0  0
  6  7  1  0  0  0  0
  7  8  1  0  0  0  0
  7 10  2  3  0  0  0
  8  9  2  0  0  0  0
 10 15  1  0  0  0  0
 11 12  1  0  0  0  0
 11 13  1  0  0  0  0
 13 14  2  0  0  0  0
 15 16  1  0  0  0  0
 15 20  2  0  0  0  0
 16 17  2  0  0  0  0
 17 18  1  0  0  0  0
 17 21  1  0  0  0  0
 18 19  1  0  0  0  0
 18 23  1  0  0  0  0
 19 20  1  0  0  0  0
 21 22  1  0  0  0  0
 23 24  1  0  0  0  0
  2 25  1  0  0  0  0
  3 26  1  0  0  0  0
  4 27  1  0  0  0  0
 10 28  1  0  0  0  0
 11 29  1  0  0  0  0
 12 30  1  0  0  0  0
 12 31  1  0  0  0  0
 12 32  1  0  0  0  0
 16 33  1  0  0  0  0
 18 34  1  0  0  0  0
 19 35  1  0  0  0  0
 19 36  1  0  0  0  0
 20 37  1  0  0  0  0
 22 38  1  0  0  0  0
 22 39  1  0  0  0  0
 22 40  1  0  0  0  0
 24 41  1  0  0  0  0
 24 42  1  0  0  0  0
 24 43  1  0  0  0  0
M  END
> <Name>
15

> <IC50[uM]>
2.5

$$$$
15
  -OEChem-05192314333D
 Structure written by MMmdl.
 43 45  0     1  0  0  0  0  0999 V2000
   -6.3730   12.3647  -12.0124 C   0  0  0  0  0  0  0  0  0  0  0  0
   -6.5249   11.8167  -10.7375 C   0  0  0  0  0  0  0  0  0  0  0  0
   -7.7225   10.5819  -13.0270 C   0  0  0  0  0  0  0  0  0  0  0  0
   -6.9871   11.7813  -13.1320 C   0  0  0  0  0  0  0  0  0  0  0  0
   -7.8205   10.0150  -11.7538 C   0  0  3  0  0  0  0  0  0  0  0  0
   -7.2514   10.6217  -10.6093 C   0  0  0  0  0  0  0  0  0  0  0  0
   -7.6113    9.7463   -9.5119 C   0  0  0  0  0  0  0  0  0  0  0  0
   -8.2838    8.7282   -9.9768 N   0  0  0  0  0  0  0  0  0  0  0  0
   -8.4166    8.8609  -11.2984 N   0  0  0  0  0  0  0  0  0  0  0  0
   -7.3282    9.8959   -8.0269 C   0  0  0  0  0  0  0  0  0  0  0  0
   -4.4004   13.6489  -11.4541 N   0  0  0  0  0  0  0  0  0  0  0  0
   -3.4592   14.7715  -11.4916 C   0  0  0  0  0  0  0  0  0  0  0  0
   -5.5363   13.6231  -12.1917 C   0  0  0  0  0  0  0  0  0  0  0  0
   -5.8861   14.5056  -12.9557 O   0  0  0  0  0  0  0  0  0  0  0  0
   -5.9554   10.4909   -7.7390 C   0  0  0  0  0  0  0  0  0  0  0  0
   -5.8447   11.7612   -7.1661 C   0  0  0  0  0  0  0  0  0  0  0  0
   -4.5697   12.3054   -6.9214 C   0  0  0  0  0  0  0  0  0  0  0  0
   -3.4308   11.5801   -7.2259 C   0  0  0  0  0  0  0  0  0  0  0  0
   -3.5429   10.3015   -7.8076 C   0  0  0  0  0  0  0  0  0  0  0  0
   -4.8018    9.7661   -8.0596 C   0  0  0  0  0  0  0  0  0  0  0  0
   -4.4352   13.5609   -6.3638 O   0  0  0  0  0  0  0  0  0  0  0  0
   -3.6839   14.5445   -7.0766 C   0  0  0  0  0  0  0  0  0  0  0  0
   -2.1928   12.1397   -6.9410 O   0  0  0  0  0  0  0  0  0  0  0  0
   -1.0568   11.8071   -7.7386 C   0  0  0  0  0  0  0  0  0  0  0  0
   -6.0949   12.2992   -9.8722 H   0  0  0  0  0  0  0  0  0  0  0  0
   -8.7440   10.7853  -13.3808 H   0  0  0  0  0  0  0  0  0  0  0  0
   -7.2470    9.8407  -13.6861 H   0  0  0  0  0  0  0  0  0  0  0  0
   -6.8945   12.2613  -14.0950 H   0  0  0  0  0  0  0  0  0  0  0  0
   -6.8846    9.4635  -11.9271 H   0  0  0  0  0  0  0  0  0  0  0  0
   -8.0276    9.6101   -7.2552 H   0  0  0  0  0  0  0  0  0  0  0  0
   -4.1959   12.8707  -10.8602 H   0  0  0  0  0  0  0  0  0  0  0  0
   -2.6173   14.5676  -10.8136 H   0  0  0  0  0  0  0  0  0  0  0  0
   -3.0815   14.8991  -12.5168 H   0  0  0  0  0  0  0  0  0  0  0  0
   -3.9723   15.6908  -11.1728 H   0  0  0  0  0  0  0  0  0  0  0  0
   -6.7323   12.3219   -6.9127 H   0  0  0  0  0  0  0  0  0  0  0  0
   -2.6549    9.7395   -8.0568 H   0  0  0  0  0  0  0  0  0  0  0  0
   -4.8895    8.7861   -8.5049 H   0  0  0  0  0  0  0  0  0  0  0  0
   -3.6711   15.4833   -6.5034 H   0  0  0  0  0  0  0  0  0  0  0  0
   -2.6532   14.1872   -7.2178 H   0  0  0  0  0  0  0  0  0  0  0  0
   -4.1486   14.7205   -8.0580 H   0  0  0  0  0  0  0  0  0  0  0  0
   -0.1739   12.3445   -7.3623 H   0  0  0  0  0  0  0  0  0  0  0  0
   -0.8764   10.7233   -7.6856 H   0  0  0  0  0  0  0  0  0  0  0  0
   -1.2447   12.0969   -8.7830 H   0  0  0  0  0  0  0  0  0  0  0  0
  1  2  1  0  0  0  0
  1  4  2  0  0  0  0
  1 13  1  0  0  0  0
  2  6  2  0  0  0  0
  3  4  1  0  0  0  0
  3  5  1  0  0  0  0
  5  6  1  0  0  0  0
  5  9  1  0  0  0  0
  6  7  1  0  0  0  0
  7  8  1  0  0  0  0
  7 10  2  3  0  0  0
  8  9  2  0  0  0  0
 10 15  1  0  0  0  0
 11 12  1  0  0  0  0
 11 13  1  0  0  0  0
 13 14  2  0  0  0  0
 15 16  2  0  0  0  0
 15 20  1  0  0  0  0
 16 17  1  0  0  0  0
 17 18  2  0  0  0  0
 17 21  1  0  0  0  0
 18 19  1  0  0  0  0
 18 23  1  0  0  0  0
 19 20  2  0  0  0  0
 21 22  1  0  0  0  0
 23 24  1  0  0  0  0
  2 25  1  0  0  0  0
  3 26  1  0  0  0  0
  3 27  1  0  0  0  0
  4 28  1  0  0  0  0
  5 29  1  0  0  0  0
 10 30  1  0  0  0  0
 11 31  1  0  0  0  0
 12 32  1  0  0  0  0
 12 33  1  0  0  0  0
 12 34  1  0  0  0  0
 16 35  1  0  0  0  0
 19 36  1  0  0  0  0
 20 37  1  0  0  0  0
 22 38  1  0  0  0  0
 22 39  1  0  0  0  0
 22 40  1  0  0  0  0
 24 41  1  0  0  0  0
 24 42  1  0  0  0  0
 24 43  1  0  0  0  0
M  END
> <Name>
15

> <IC50[uM]>
2.5

$$$$
15
  -OEChem-05192314333D
 Structure written by MMmdl.
 43 45  0     1  0  0  0  0  0999 V2000
   -6.3730   12.3647  -12.0124 C   0  0  3  0  0  0  0  0  0  0  0  0
   -6.5249   11.8167  -10.7375 C   0  0  0  0  0  0  0  0  0  0  0  0
   -7.7225   10.5819  -13.0270 C   0  0  0  0  0  0  0  0  0  0  0  0
   -6.9871   11.7813  -13.1320 C   0  0  0  0  0  0  0  0  0  0  0  0
   -7.8205   10.0150  -11.7538 C   0  0  0  0  0  0  0  0  0  0  0  0
   -7.2514   10.6217  -10.6093 C   0  0  0  0  0  0  0  0  0  0  0  0
   -7.6113    9.7463   -9.5119 C   0  0  0  0  0  0  0  0  0  0  0  0
   -8.2838    8.7282   -9.9768 N   0  0  0  0  0  0  0  0  0  0  0  0
   -8.4166    8.8609  -11.2984 N   0  0  0  0  0  0  0  0  0  0  0  0
   -7.3282    9.8959   -8.0269 C   0  0  0  0  0  0  0  0  0  0  0  0
   -4.4004   13.6489  -11.4541 N   0  0  0  0  0  0  0  0  0  0  0  0
   -3.4592   14.7715  -11.4916 C   0  0  0  0  0  0  0  0  0  0  0  0
   -5.5363   13.6231  -12.1917 C   0  0  0  0  0  0  0  0  0  0  0  0
   -5.8861   14.5056  -12.9557 O   0  0  0  0  0  0  0  0  0  0  0  0
   -5.9554   10.4909   -7.7390 C   0  0  0  0  0  0  0  0  0  0  0  0
   -5.8447   11.7612   -7.1661 C   0  0  0  0  0  0  0  0  0  0  0  0
   -4.5697   12.3054   -6.9214 C   0  0  0  0  0  0  0  0  0  0  0  0
   -3.4308   11.5801   -7.2259 C   0  0  0  0  0  0  0  0  0  0  0  0
   -3.5429   10.3015   -7.8076 C   0  0  0  0  0  0  0  0  0  0  0  0
   -4.8018    9.7661   -8.0596 C   0  0  0  0  0  0  0  0  0  0  0  0
   -4.4352   13.5609   -6.3638 O   0  0  0  0  0  0  0  0  0  0  0  0
   -3.6839   14.5445   -7.0766 C   0  0  0  0  0  0  0  0  0  0  0  0
   -2.1928   12.1397   -6.9410 O   0  0  0  0  0  0  0  0  0  0  0  0
   -1.0568   11.8071   -7.7386 C   0  0  0  0  0  0  0  0  0  0  0  0
   -5.4795   11.7442  -12.1757 H   0  0  0  0  0  0  0  0  0  0  0  0
   -6.0949   12.2992   -9.8722 H   0  0  0  0  0  0  0  0  0  0  0  0
   -8.1868   10.1246  -13.8882 H   0  0  0  0  0  0  0  0  0  0  0  0
   -7.6791   12.5355  -13.5348 H   0  0  0  0  0  0  0  0  0  0  0  0
   -6.1862   11.5916  -13.8618 H   0  0  0  0  0  0  0  0  0  0  0  0
   -8.0276    9.6101   -7.2552 H   0  0  0  0  0  0  0  0  0  0  0  0
   -4.1959   12.8707  -10.8602 H   0  0  0  0  0  0  0  0  0  0  0  0
   -2.6173   14.5676  -10.8136 H   0  0  0  0  0  0  0  0  0  0  0  0
   -3.0815   14.8991  -12.5168 H   0  0  0  0  0  0  0  0  0  0  0  0
   -3.9723   15.6908  -11.1728 H   0  0  0  0  0  0  0  0  0  0  0  0
   -6.7323   12.3219   -6.9127 H   0  0  0  0  0  0  0  0  0  0  0  0
   -2.6549    9.7395   -8.0568 H   0  0  0  0  0  0  0  0  0  0  0  0
   -4.8895    8.7861   -8.5049 H   0  0  0  0  0  0  0  0  0  0  0  0
   -3.6711   15.4833   -6.5034 H   0  0  0  0  0  0  0  0  0  0  0  0
   -2.6532   14.1872   -7.2178 H   0  0  0  0  0  0  0  0  0  0  0  0
   -4.1486   14.7205   -8.0580 H   0  0  0  0  0  0  0  0  0  0  0  0
   -0.1739   12.3445   -7.3623 H   0  0  0  0  0  0  0  0  0  0  0  0
   -0.8764   10.7233   -7.6856 H   0  0  0  0  0  0  0  0  0  0  0  0
   -1.2447   12.0969   -8.7830 H   0  0  0  0  0  0  0  0  0  0  0  0
  1  2  1  0  0  0  0
  1  4  1  0  0  0  0
  1 13  1  0  0  0  0
  2  6  2  0  0  0  0
  3  4  1  0  0  0  0
  3  5  2  0  0  0  0
  5  6  1  0  0  0  0
  5  9  1  0  0  0  0
  6  7  1  0  0  0  0
  7  8  1  0  0  0  0
  7 10  2  3  0  0  0
  8  9  2  0  0  0  0
 10 15  1  0  0  0  0
 11 12  1  0  0  0  0
 11 13  1  0  0  0  0
 13 14  2  0  0  0  0
 15 16  2  0  0  0  0
 15 20  1  0  0  0  0
 16 17  1  0  0  0  0
 17 18  2  0  0  0  0
 17 21  1  0  0  0  0
 18 19  1  0  0  0  0
 18 23  1  0  0  0  0
 19 20  2  0  0  0  0
 21 22  1  0  0  0  0
 23 24  1  0  0  0  0
  1 25  1  0  0  0  0
  2 26  1  0  0  0  0
  3 27  1  0  0  0  0
  4 28  1  0  0  0  0
  4 29  1  0  0  0  0
 10 30  1  0  0  0  0
 11 31  1  0  0  0  0
 12 32  1  0  0  0  0
 12 33  1  0  0  0  0
 12 34  1  0  0  0  0
 16 35  1  0  0  0  0
 19 36  1  0  0  0  0
 20 37  1  0  0  0  0
 22 38  1  0  0  0  0
 22 39  1  0  0  0  0
 22 40  1  0  0  0  0
 24 41  1  0  0  0  0
 24 42  1  0  0  0  0
 24 43  1  0  0  0  0
M  END
> <Name>
15

> <IC50[uM]>
2.5

$$$$
15
  -OEChem-05192314333D
 Structure written by MMmdl.
 43 45  0     1  0  0  0  0  0999 V2000
   -6.3730   12.3647  -12.0124 C   0  0  0  0  0  0  0  0  0  0  0  0
   -6.5249   11.8167  -10.7375 C   0  0  0  0  0  0  0  0  0  0  0  0
   -7.7225   10.5819  -13.0270 C   0  0  0  0  0  0  0  0  0  0  0  0
   -6.9871   11.7813  -13.1320 C   0  0  0  0  0  0  0  0  0  0  0  0
   -7.8205   10.0150  -11.7538 C   0  0  0  0  0  0  0  0  0  0  0  0
   -7.2514   10.6217  -10.6093 C   0  0  3  0  0  0  0  0  0  0  0  0
   -7.6113    9.7463   -9.5119 C   0  0  0  0  0  0  0  0  0  0  0  0
   -8.2838    8.7282   -9.9768 N   0  0  0  0  0  0  0  0  0  0  0  0
   -8.4166    8.8609  -11.2984 N   0  0  0  0  0  0  0  0  0  0  0  0
   -7.3282    9.8959   -8.0269 C   0  0  0  0  0  0  0  0  0  0  0  0
   -4.4004   13.6489  -11.4541 N   0  0  0  0  0  0  0  0  0  0  0  0
   -3.4592   14.7715  -11.4916 C   0  0  0  0  0  0  0  0  0  0  0  0
   -5.5363   13.6231  -12.1917 C   0  0  0  0  0  0  0  0  0  0  0  0
   -5.8861   14.5056  -12.9557 O   0  0  0  0  0  0  0  0  0  0  0  0
   -5.9554   10.4909   -7.7390 C   0  0  0  0  0  0  0  0  0  0  0  0
   -5.8447   11.7612   -7.1661 C   0  0  0  0  0  0  0  0  0  0  0  0
   -4.5697   12.3054   -6.9214 C   0  0  0  0  0  0  0  0  0  0  0  0
   -3.4308   11.5801   -7.2259 C   0  0  0  0  0  0  0  0  0  0  0  0
   -3.5429   10.3015   -7.8076 C   0  0  0  0  0  0  0  0  0  0  0  0
   -4.8018    9.7661   -8.0596 C   0  0  0  0  0  0  0  0  0  0  0  0
   -4.4352   13.5609   -6.3638 O   0  0  0  0  0  0  0  0  0  0  0  0
   -3.6839   14.5445   -7.0766 C   0  0  0  0  0  0  0  0  0  0  0  0
   -2.1928   12.1397   -6.9410 O   0  0  0  0  0  0  0  0  0  0  0  0
   -1.0568   11.8071   -7.7386 C   0  0  0  0  0  0  0  0  0  0  0  0
   -6.0949   12.2992   -9.8722 H   0  0  0  0  0  0  0  0  0  0  0  0
   -8.1868   10.1246  -13.8882 H   0  0  0  0  0  0  0  0  0  0  0  0
   -7.6791   12.5355  -13.5348 H   0  0  0  0  0  0  0  0  0  0  0  0
   -6.1862   11.5916  -13.8618 H   0  0  0  0  0  0  0  0  0  0  0  0
   -8.1752   11.1984  -10.4540 H   0  0  0  0  0  0  0  0  0  0  0  0
   -8.0276    9.6101   -7.2552 H   0  0  0  0  0  0  0  0  0  0  0  0
   -4.1959   12.8707  -10.8602 H   0  0  0  0  0  0  0  0  0  0  0  0
   -2.6173   14.5676  -10.8136 H   0  0  0  0  0  0  0  0  0  0  0  0
   -3.0815   14.8991  -12.5168 H   0  0  0  0  0  0  0  0  0  0  0  0
   -3.9723   15.6908  -11.1728 H   0  0  0  0  0  0  0  0  0  0  0  0
   -6.7323   12.3219   -6.9127 H   0  0  0  0  0  0  0  0  0  0  0  0
   -2.6549    9.7395   -8.0568 H   0  0  0  0  0  0  0  0  0  0  0  0
   -4.8895    8.7861   -8.5049 H   0  0  0  0  0  0  0  0  0  0  0  0
   -3.6711   15.4833   -6.5034 H   0  0  0  0  0  0  0  0  0  0  0  0
   -2.6532   14.1872   -7.2178 H   0  0  0  0  0  0  0  0  0  0  0  0
   -4.1486   14.7205   -8.0580 H   0  0  0  0  0  0  0  0  0  0  0  0
   -0.1739   12.3445   -7.3623 H   0  0  0  0  0  0  0  0  0  0  0  0
   -0.8764   10.7233   -7.6856 H   0  0  0  0  0  0  0  0  0  0  0  0
   -1.2447   12.0969   -8.7830 H   0  0  0  0  0  0  0  0  0  0  0  0
  1  2  2  0  0  0  0
  1  4  1  0  0  0  0
  1 13  1  0  0  0  0
  2  6  1  0  0  0  0
  3  4  1  0  0  0  0
  3  5  2  0  0  0  0
  5  6  1  0  0  0  0
  5  9  1  0  0  0  0
  6  7  1  0  0  0  0
  7  8  1  0  0  0  0
  7 10  2  3  0  0  0
  8  9  2  0  0  0  0
 10 15  1  0  0  0  0
 11 12  1  0  0  0  0
 11 13  1  0  0  0  0
 13 14  2  0  0  0  0
 15 16  2  0  0  0  0
 15 20  1  0  0  0  0
 16 17  1  0  0  0  0
 17 18  2  0  0  0  0
 17 21  1  0  0  0  0
 18 19  1  0  0  0  0
 18 23  1  0  0  0  0
 19 20  2  0  0  0  0
 21 22  1  0  0  0  0
 23 24  1  0  0  0  0
  2 25  1  0  0  0  0
  3 26  1  0  0  0  0
  4 27  1  0  0  0  0
  4 28  1  0  0  0  0
  6 29  1  0  0  0  0
 10 30  1  0  0  0  0
 11 31  1  0  0  0  0
 12 32  1  0  0  0  0
 12 33  1  0  0  0  0
 12 34  1  0  0  0  0
 16 35  1  0  0  0  0
 19 36  1  0  0  0  0
 20 37  1  0  0  0  0
 22 38  1  0  0  0  0
 22 39  1  0  0  0  0
 22 40  1  0  0  0  0
 24 41  1  0  0  0  0
 24 42  1  0  0  0  0
 24 43  1  0  0  0  0
M  END
> <Name>
15

> <IC50[uM]>
2.5

$$$$
15
  -OEChem-05192314333D
 Structure written by MMmdl.
 43 45  0     0  0  0  0  0  0999 V2000
   -6.3730   12.3647  -12.0124 C   0  0  0  0  0  0  0  0  0  0  0  0
   -6.5249   11.8167  -10.7375 C   0  0  0  0  0  0  0  0  0  0  0  0
   -7.7225   10.5819  -13.0270 C   0  0  0  0  0  0  0  0  0  0  0  0
   -6.9871   11.7813  -13.1320 C   0  0  0  0  0  0  0  0  0  0  0  0
   -7.8205   10.0150  -11.7538 C   0  0  0  0  0  0  0  0  0  0  0  0
   -7.2514   10.6217  -10.6093 C   0  0  0  0  0  0  0  0  0  0  0  0
   -7.6113    9.7463   -9.5119 C   0  0  0  0  0  0  0  0  0  0  0  0
   -8.2838    8.7282   -9.9768 N   0  0  0  0  0  0  0  0  0  0  0  0
   -8.4166    8.8609  -11.2984 N   0  0  0  0  0  0  0  0  0  0  0  0
   -7.3282    9.8959   -8.0269 C   0  0  0  0  0  0  0  0  0  0  0  0
   -4.4004   13.6489  -11.4541 N   0  0  0  0  0  0  0  0  0  0  0  0
   -3.4592   14.7715  -11.4916 C   0  0  0  0  0  0  0  0  0  0  0  0
   -5.5363   13.6231  -12.1917 C   0  0  0  0  0  0  0  0  0  0  0  0
   -5.8861   14.5056  -12.9557 O   0  0  0  0  0  0  0  0  0  0  0  0
   -5.9554   10.4909   -7.7390 C   0  0  0  0  0  0  0  0  0  0  0  0
   -5.8447   11.7612   -7.1661 C   0  0  0  0  0  0  0  0  0  0  0  0
   -4.5697   12.3054   -6.9214 C   0  0  0  0  0  0  0  0  0  0  0  0
   -3.4308   11.5801   -7.2259 C   0  0  0  0  0  0  0  0  0  0  0  0
   -3.5429   10.3015   -7.8076 C   0  0  0  0  0  0  0  0  0  0  0  0
   -4.8018    9.7661   -8.0596 C   0  0  0  0  0  0  0  0  0  0  0  0
   -4.4352   13.5609   -6.3638 O   0  0  0  0  0  0  0  0  0  0  0  0
   -3.6839   14.5445   -7.0766 C   0  0  0  0  0  0  0  0  0  0  0  0
   -2.1928   12.1397   -6.9410 O   0  0  0  0  0  0  0  0  0  0  0  0
   -1.0568   11.8071   -7.7386 C   0  0  0  0  0  0  0  0  0  0  0  0
   -6.0949   12.2992   -9.8722 H   0  0  0  0  0  0  0  0  0  0  0  0
   -8.7440   10.7853  -13.3808 H   0  0  0  0  0  0  0  0  0  0  0  0
   -7.2470    9.8407  -13.6861 H   0  0  0  0  0  0  0  0  0  0  0  0
   -7.6791   12.5355  -13.5348 H   0  0  0  0  0  0  0  0  0  0  0  0
   -6.1862   11.5916  -13.8618 H   0  0  0  0  0  0  0  0  0  0  0  0
   -8.0276    9.6101   -7.2552 H   0  0  0  0  0  0  0  0  0  0  0  0
   -4.1959   12.8707  -10.8602 H   0  0  0  0  0  0  0  0  0  0  0  0
   -2.6173   14.5676  -10.8136 H   0  0  0  0  0  0  0  0  0  0  0  0
   -3.0815   14.8991  -12.5168 H   0  0  0  0  0  0  0  0  0  0  0  0
   -3.9723   15.6908  -11.1728 H   0  0  0  0  0  0  0  0  0  0  0  0
   -6.7323   12.3219   -6.9127 H   0  0  0  0  0  0  0  0  0  0  0  0
   -2.6549    9.7395   -8.0568 H   0  0  0  0  0  0  0  0  0  0  0  0
   -4.8895    8.7861   -8.5049 H   0  0  0  0  0  0  0  0  0  0  0  0
   -3.6711   15.4833   -6.5034 H   0  0  0  0  0  0  0  0  0  0  0  0
   -2.6532   14.1872   -7.2178 H   0  0  0  0  0  0  0  0  0  0  0  0
   -4.1486   14.7205   -8.0580 H   0  0  0  0  0  0  0  0  0  0  0  0
   -0.1739   12.3445   -7.3623 H   0  0  0  0  0  0  0  0  0  0  0  0
   -0.8764   10.7233   -7.6856 H   0  0  0  0  0  0  0  0  0  0  0  0
   -1.2447   12.0969   -8.7830 H   0  0  0  0  0  0  0  0  0  0  0  0
  1  2  2  0  0  0  0
  1  4  1  0  0  0  0
  1 13  1  0  0  0  0
  2  6  1  0  0  0  0
  3  4  1  0  0  0  0
  3  5  1  0  0  0  0
  5  6  2  0  0  0  0
  5  9  1  0  0  0  0
  6  7  1  0  0  0  0
  7  8  1  0  0  0  0
  7 10  2  3  0  0  0
  8  9  2  0  0  0  0
 10 15  1  0  0  0  0
 11 12  1  0  0  0  0
 11 13  1  0  0  0  0
 13 14  2  0  0  0  0
 15 16  2  0  0  0  0
 15 20  1  0  0  0  0
 16 17  1  0  0  0  0
 17 18  2  0  0  0  0
 17 21  1  0  0  0  0
 18 19  1  0  0  0  0
 18 23  1  0  0  0  0
 19 20  2  0  0  0  0
 21 22  1  0  0  0  0
 23 24  1  0  0  0  0
  2 25  1  0  0  0  0
  3 26  1  0  0  0  0
  3 27  1  0  0  0  0
  4 28  1  0  0  0  0
  4 29  1  0  0  0  0
 10 30  1  0  0  0  0
 11 31  1  0  0  0  0
 12 32  1  0  0  0  0
 12 33  1  0  0  0  0
 12 34  1  0  0  0  0
 16 35  1  0  0  0  0
 19 36  1  0  0  0  0
 20 37  1  0  0  0  0
 22 38  1  0  0  0  0
 22 39  1  0  0  0  0
 22 40  1  0  0  0  0
 24 41  1  0  0  0  0
 24 42  1  0  0  0  0
 24 43  1  0  0  0  0
M  END
> <Name>
15

> <IC50[uM]>
2.5

$$$$
15
  -OEChem-05192314333D
 Structure written by MMmdl.
 43 45  0     1  0  0  0  0  0999 V2000
   -6.3730   12.3647  -12.0124 C   0  0  0  0  0  0  0  0  0  0  0  0
   -6.5249   11.8167  -10.7375 C   0  0  0  0  0  0  0  0  0  0  0  0
   -7.7225   10.5819  -13.0270 C   0  0  0  0  0  0  0  0  0  0  0  0
   -6.9871   11.7813  -13.1320 C   0  0  0  0  0  0  0  0  0  0  0  0
   -7.8205   10.0150  -11.7538 C   0  0  0  0  0  0  0  0  0  0  0  0
   -7.2514   10.6217  -10.6093 C   0  0  0  0  0  0  0  0  0  0  0  0
   -7.6113    9.7463   -9.5119 C   0  0  0  0  0  0  0  0  0  0  0  0
   -8.2838    8.7282   -9.9768 N   0  0  0  0  0  0  0  0  0  0  0  0
   -8.4166    8.8609  -11.2984 N   0  0  0  0  0  0  0  0  0  0  0  0
   -7.3282    9.8959   -8.0269 C   0  0  0  0  0  0  0  0  0  0  0  0
   -4.4004   13.6489  -11.4541 N   0  0  0  0  0  0  0  0  0  0  0  0
   -3.4592   14.7715  -11.4916 C   0  0  0  0  0  0  0  0  0  0  0  0
   -5.5363   13.6231  -12.1917 C   0  0  0  0  0  0  0  0  0  0  0  0
   -5.8861   14.5056  -12.9557 O   0  0  0  0  0  0  0  0  0  0  0  0
   -5.9554   10.4909   -7.7390 C   0  0  3  0  0  0  0  0  0  0  0  0
   -5.8447   11.7612   -7.1661 C   0  0  0  0  0  0  0  0  0  0  0  0
   -4.5697   12.3054   -6.9214 C   0  0  0  0  0  0  0  0  0  0  0  0
   -3.4308   11.5801   -7.2259 C   0  0  0  0  0  0  0  0  0  0  0  0
   -3.5429   10.3015   -7.8076 C   0  0  0  0  0  0  0  0  0  0  0  0
   -4.8018    9.7661   -8.0596 C   0  0  0  0  0  0  0  0  0  0  0  0
   -4.4352   13.5609   -6.3638 O   0  0  0  0  0  0  0  0  0  0  0  0
   -3.6839   14.5445   -7.0766 C   0  0  0  0  0  0  0  0  0  0  0  0
   -2.1928   12.1397   -6.9410 O   0  0  0  0  0  0  0  0  0  0  0  0
   -1.0568   11.8071   -7.7386 C   0  0  0  0  0  0  0  0  0  0  0  0
   -6.0949   12.2992   -9.8722 H   0  0  0  0  0  0  0  0  0  0  0  0
   -8.1868   10.1246  -13.8882 H   0  0  0  0  0  0  0  0  0  0  0  0
   -6.8945   12.2613  -14.0950 H   0  0  0  0  0  0  0  0  0  0  0  0
   -8.0276    9.6101   -7.2552 H   0  0  0  0  0  0  0  0  0  0  0  0
   -4.1959   12.8707  -10.8602 H   0  0  0  0  0  0  0  0  0  0  0  0
   -2.6173   14.5676  -10.8136 H   0  0  0  0  0  0  0  0  0  0  0  0
   -3.0815   14.8991  -12.5168 H   0  0  0  0  0  0  0  0  0  0  0  0
   -3.9723   15.6908  -11.1728 H   0  0  0  0  0  0  0  0  0  0  0  0
   -5.9658   10.0368   -6.7372 H   0  0  0  0  0  0  0  0  0  0  0  0
   -6.7323   12.3219   -6.9127 H   0  0  0  0  0  0  0  0  0  0  0  0
   -2.6549    9.7395   -8.0568 H   0  0  0  0  0  0  0  0  0  0  0  0
   -4.8592    8.8187   -7.5036 H   0  0  0  0  0  0  0  0  0  0  0  0
   -4.8475    9.5609   -9.1393 H   0  0  0  0  0  0  0  0  0  0  0  0
   -3.6711   15.4833   -6.5034 H   0  0  0  0  0  0  0  0  0  0  0  0
   -2.6532   14.1872   -7.2178 H   0  0  0  0  0  0  0  0  0  0  0  0
   -4.1486   14.7205   -8.0580 H   0  0  0  0  0  0  0  0  0  0  0  0
   -0.1739   12.3445   -7.3623 H   0  0  0  0  0  0  0  0  0  0  0  0
   -0.8764   10.7233   -7.6856 H   0  0  0  0  0  0  0  0  0  0  0  0
   -1.2447   12.0969   -8.7830 H   0  0  0  0  0  0  0  0  0  0  0  0
  1  2  2  0  0  0  0
  1  4  1  0  0  0  0
  1 13  1  0  0  0  0
  2  6  1  0  0  0  0
  3  4  2  0  0  0  0
  3  5  1  0  0  0  0
  5  6  2  0  0  0  0
  5  9  1  0  0  0  0
  6  7  1  0  0  0  0
  7  8  1  0  0  0  0
  7 10  2  3  0  0  0
  8  9  2  0  0  0  0
 10 15  1  0  0  0  0
 11 12  1  0  0  0  0
 11 13  1  0  0  0  0
 13 14  2  0  0  0  0
 15 16  1  0  0  0  0
 15 20  1  0  0  0  0
 16 17  2  0  0  0  0
 17 18  1  0  0  0  0
 17 21  1  0  0  0  0
 18 19  2  0  0  0  0
 18 23  1  0  0  0  0
 19 20  1  0  0  0  0
 21 22  1  0  0  0  0
 23 24  1  0  0  0  0
  2 25  1  0  0  0  0
  3 26  1  0  0  0  0
  4 27  1  0  0  0  0
 10 28  1  0  0  0  0
 11 29  1  0  0  0  0
 12 30  1  0  0  0  0
 12 31  1  0  0  0  0
 12 32  1  0  0  0  0
 15 33  1  0  0  0  0
 16 34  1  0  0  0  0
 19 35  1  0  0  0  0
 20 36  1  0  0  0  0
 20 37  1  0  0  0  0
 22 38  1  0  0  0  0
 22 39  1  0  0  0  0
 22 40  1  0  0  0  0
 24 41  1  0  0  0  0
 24 42  1  0  0  0  0
 24 43  1  0  0  0  0
M  END
> <Name>
15

> <IC50[uM]>
2.5

$$$$
15
  -OEChem-05192314333D
 Structure written by MMmdl.
 43 45  0     1  0  0  0  0  0999 V2000
   -6.3730   12.3647  -12.0124 C   0  0  0  0  0  0  0  0  0  0  0  0
   -6.5249   11.8167  -10.7375 C   0  0  0  0  0  0  0  0  0  0  0  0
   -7.7225   10.5819  -13.0270 C   0  0  0  0  0  0  0  0  0  0  0  0
   -6.9871   11.7813  -13.1320 C   0  0  0  0  0  0  0  0  0  0  0  0
   -7.8205   10.0150  -11.7538 C   0  0  0  0  0  0  0  0  0  0  0  0
   -7.2514   10.6217  -10.6093 C   0  0  0  0  0  0  0  0  0  0  0  0
   -7.6113    9.7463   -9.5119 C   0  0  3  0  0  0  0  0  0  0  0  0
   -8.2838    8.7282   -9.9768 N   0  0  0  0  0  0  0  0  0  0  0  0
   -8.4166    8.8609  -11.2984 N   0  0  0  0  0  0  0  0  0  0  0  0
   -7.3282    9.8959   -8.0269 C   0  0  0  0  0  0  0  0  0  0  0  0
   -4.4004   13.6489  -11.4541 N   0  0  0  0  0  0  0  0  0  0  0  0
   -3.4592   14.7715  -11.4916 C   0  0  0  0  0  0  0  0  0  0  0  0
   -5.5363   13.6231  -12.1917 C   0  0  0  0  0  0  0  0  0  0  0  0
   -5.8861   14.5056  -12.9557 O   0  0  0  0  0  0  0  0  0  0  0  0
   -5.9554   10.4909   -7.7390 C   0  0  0  0  0  0  0  0  0  0  0  0
   -5.8447   11.7612   -7.1661 C   0  0  0  0  0  0  0  0  0  0  0  0
   -4.5697   12.3054   -6.9214 C   0  0  0  0  0  0  0  0  0  0  0  0
   -3.4308   11.5801   -7.2259 C   0  0  0  0  0  0  0  0  0  0  0  0
   -3.5429   10.3015   -7.8076 C   0  0  0  0  0  0  0  0  0  0  0  0
   -4.8018    9.7661   -8.0596 C   0  0  0  0  0  0  0  0  0  0  0  0
   -4.4352   13.5609   -6.3638 O   0  0  0  0  0  0  0  0  0  0  0  0
   -3.6839   14.5445   -7.0766 C   0  0  0  0  0  0  0  0  0  0  0  0
   -2.1928   12.1397   -6.9410 O   0  0  0  0  0  0  0  0  0  0  0  0
   -1.0568   11.8071   -7.7386 C   0  0  0  0  0  0  0  0  0  0  0  0
   -6.0949   12.2992   -9.8722 H   0  0  0  0  0  0  0  0  0  0  0  0
   -8.1868   10.1246  -13.8882 H   0  0  0  0  0  0  0  0  0  0  0  0
   -6.8945   12.2613  -14.0950 H   0  0  0  0  0  0  0  0  0  0  0  0
   -6.6707    9.1906   -9.6401 H   0  0  0  0  0  0  0  0  0  0  0  0
   -8.0276    9.6101   -7.2552 H   0  0  0  0  0  0  0  0  0  0  0  0
   -4.1959   12.8707  -10.8602 H   0  0  0  0  0  0  0  0  0  0  0  0
   -2.6173   14.5676  -10.8136 H   0  0  0  0  0  0  0  0  0  0  0  0
   -3.0815   14.8991  -12.5168 H   0  0  0  0  0  0  0  0  0  0  0  0
   -3.9723   15.6908  -11.1728 H   0  0  0  0  0  0  0  0  0  0  0  0
   -6.7323   12.3219   -6.9127 H   0  0  0  0  0  0  0  0  0  0  0  0
   -2.6549    9.7395   -8.0568 H   0  0  0  0  0  0  0  0  0  0  0  0
   -4.8592    8.8187   -7.5036 H   0  0  0  0  0  0  0  0  0  0  0  0
   -4.8475    9.5609   -9.1393 H   0  0  0  0  0  0  0  0  0  0  0  0
   -3.6711   15.4833   -6.5034 H   0  0  0  0  0  0  0  0  0  0  0  0
   -2.6532   14.1872   -7.2178 H   0  0  0  0  0  0  0  0  0  0  0  0
   -4.1486   14.7205   -8.0580 H   0  0  0  0  0  0  0  0  0  0  0  0
   -0.1739   12.3445   -7.3623 H   0  0  0  0  0  0  0  0  0  0  0  0
   -0.8764   10.7233   -7.6856 H   0  0  0  0  0  0  0  0  0  0  0  0
   -1.2447   12.0969   -8.7830 H   0  0  0  0  0  0  0  0  0  0  0  0
  1  2  2  0  0  0  0
  1  4  1  0  0  0  0
  1 13  1  0  0  0  0
  2  6  1  0  0  0  0
  3  4  2  0  0  0  0
  3  5  1  0  0  0  0
  5  6  2  0  0  0  0
  5  9  1  0  0  0  0
  6  7  1  0  0  0  0
  7  8  1  0  0  0  0
  7 10  1  0  0  0  0
  8  9  2  0  0  0  0
 10 15  2  3  0  0  0
 11 12  1  0  0  0  0
 11 13  1  0  0  0  0
 13 14  2  0  0  0  0
 15 16  1  0  0  0  0
 15 20  1  0  0  0  0
 16 17  2  0  0  0  0
 17 18  1  0  0  0  0
 17 21  1  0  0  0  0
 18 19  2  0  0  0  0
 18 23  1  0  0  0  0
 19 20  1  0  0  0  0
 21 22  1  0  0  0  0
 23 24  1  0  0  0  0
  2 25  1  0  0  0  0
  3 26  1  0  0  0  0
  4 27  1  0  0  0  0
  7 28  1  0  0  0  0
 10 29  1  0  0  0  0
 11 30  1  0  0  0  0
 12 31  1  0  0  0  0
 12 32  1  0  0  0  0
 12 33  1  0  0  0  0
 16 34  1  0  0  0  0
 19 35  1  0  0  0  0
 20 36  1  0  0  0  0
 20 37  1  0  0  0  0
 22 38  1  0  0  0  0
 22 39  1  0  0  0  0
 22 40  1  0  0  0  0
 24 41  1  0  0  0  0
 24 42  1  0  0  0  0
 24 43  1  0  0  0  0
M  END
> <Name>
15

> <IC50[uM]>
2.5

$$$$
15
  -OEChem-05192314333D
 Structure written by MMmdl.
 43 45  0     1  0  0  0  0  0999 V2000
   -6.3730   12.3647  -12.0124 C   0  0  0  0  0  0  0  0  0  0  0  0
   -6.5249   11.8167  -10.7375 C   0  0  0  0  0  0  0  0  0  0  0  0
   -7.7225   10.5819  -13.0270 C   0  0  0  0  0  0  0  0  0  0  0  0
   -6.9871   11.7813  -13.1320 C   0  0  0  0  0  0  0  0  0  0  0  0
   -7.8205   10.0150  -11.7538 C   0  0  0  0  0  0  0  0  0  0  0  0
   -7.2514   10.6217  -10.6093 C   0  0  0  0  0  0  0  0  0  0  0  0
   -7.6113    9.7463   -9.5119 C   0  0  0  0  0  0  0  0  0  0  0  0
   -8.2838    8.7282   -9.9768 N   0  0  0  0  0  0  0  0  0  0  0  0
   -8.4166    8.8609  -11.2984 N   0  0  0  0  0  0  0  0  0  0  0  0
   -7.3282    9.8959   -8.0269 C   0  0  0  0  0  0  0  0  0  0  0  0
   -4.4004   13.6489  -11.4541 N   0  0  0  0  0  0  0  0  0  0  0  0
   -3.4592   14.7715  -11.4916 C   0  0  0  0  0  0  0  0  0  0  0  0
   -5.5363   13.6231  -12.1917 C   0  0  0  0  0  0  0  0  0  0  0  0
   -5.8861   14.5056  -12.9557 O   0  0  0  0  0  0  0  0  0  0  0  0
   -5.9554   10.4909   -7.7390 C   0  0  0  0  0  0  0  0  0  0  0  0
   -5.8447   11.7612   -7.1661 C   0  0  0  0  0  0  0  0  0  0  0  0
   -4.5697   12.3054   -6.9214 C   0  0  3  0  0  0  0  0  0  0  0  0
   -3.4308   11.5801   -7.2259 C   0  0  0  0  0  0  0  0  0  0  0  0
   -3.5429   10.3015   -7.8076 C   0  0  0  0  0  0  0  0  0  0  0  0
   -4.8018    9.7661   -8.0596 C   0  0  0  0  0  0  0  0  0  0  0  0
   -4.4352   13.5609   -6.3638 O   0  0  0  0  0  0  0  0  0  0  0  0
   -3.6839   14.5445   -7.0766 C   0  0  0  0  0  0  0  0  0  0  0  0
   -2.1928   12.1397   -6.9410 O   0  0  0  0  0  0  0  0  0  0  0  0
   -1.0568   11.8071   -7.7386 C   0  0  0  0  0  0  0  0  0  0  0  0
   -6.0949   12.2992   -9.8722 H   0  0  0  0  0  0  0  0  0  0  0  0
   -8.1868   10.1246  -13.8882 H   0  0  0  0  0  0  0  0  0  0  0  0
   -6.8945   12.2613  -14.0950 H   0  0  0  0  0  0  0  0  0  0  0  0
   -8.0276    9.6101   -7.2552 H   0  0  0  0  0  0  0  0  0  0  0  0
   -4.1959   12.8707  -10.8602 H   0  0  0  0  0  0  0  0  0  0  0  0
   -2.6173   14.5676  -10.8136 H   0  0  0  0  0  0  0  0  0  0  0  0
   -3.0815   14.8991  -12.5168 H   0  0  0  0  0  0  0  0  0  0  0  0
   -3.9723   15.6908  -11.1728 H   0  0  0  0  0  0  0  0  0  0  0  0
   -6.7323   12.3219   -6.9127 H   0  0  0  0  0  0  0  0  0  0  0  0
   -4.5615   12.7479   -7.9284 H   0  0  0  0  0  0  0  0  0  0  0  0
   -2.6549    9.7395   -8.0568 H   0  0  0  0  0  0  0  0  0  0  0  0
   -4.8592    8.8187   -7.5036 H   0  0  0  0  0  0  0  0  0  0  0  0
   -4.8475    9.5609   -9.1393 H   0  0  0  0  0  0  0  0  0  0  0  0
   -3.6711   15.4833   -6.5034 H   0  0  0  0  0  0  0  0  0  0  0  0
   -2.6532   14.1872   -7.2178 H   0  0  0  0  0  0  0  0  0  0  0  0
   -4.1486   14.7205   -8.0580 H   0  0  0  0  0  0  0  0  0  0  0  0
   -0.1739   12.3445   -7.3623 H   0  0  0  0  0  0  0  0  0  0  0  0
   -0.8764   10.7233   -7.6856 H   0  0  0  0  0  0  0  0  0  0  0  0
   -1.2447   12.0969   -8.7830 H   0  0  0  0  0  0  0  0  0  0  0  0
  1  2  2  0  0  0  0
  1  4  1  0  0  0  0
  1 13  1  0  0  0  0
  2  6  1  0  0  0  0
  3  4  2  0  0  0  0
  3  5  1  0  0  0  0
  5  6  2  0  0  0  0
  5  9  1  0  0  0  0
  6  7  1  0  0  0  0
  7  8  1  0  0  0  0
  7 10  2  3  0  0  0
  8  9  2  0  0  0  0
 10 15  1  0  0  0  0
 11 12  1  0  0  0  0
 11 13  1  0  0  0  0
 13 14  2  0  0  0  0
 15 16  2  0  0  0  0
 15 20  1  0  0  0  0
 16 17  1  0  0  0  0
 17 18  1  0  0  0  0
 17 21  1  0  0  0  0
 18 19  2  0  0  0  0
 18 23  1  0  0  0  0
 19 20  1  0  0  0  0
 21 22  1  0  0  0  0
 23 24  1  0  0  0  0
  2 25  1  0  0  0  0
  3 26  1  0  0  0  0
  4 27  1  0  0  0  0
 10 28  1  0  0  0  0
 11 29  1  0  0  0  0
 12 30  1  0  0  0  0
 12 31  1  0  0  0  0
 12 32  1  0  0  0  0
 16 33  1  0  0  0  0
 17 34  1  0  0  0  0
 19 35  1  0  0  0  0
 20 36  1  0  0  0  0
 20 37  1  0  0  0  0
 22 38  1  0  0  0  0
 22 39  1  0  0  0  0
 22 40  1  0  0  0  0
 24 41  1  0  0  0  0
 24 42  1  0  0  0  0
 24 43  1  0  0  0  0
M  END
> <Name>
15

> <IC50[uM]>
2.5

$$$$
15
  -OEChem-05192314333D
 Structure written by MMmdl.
 43 45  0     0  0  0  0  0  0999 V2000
   -6.3730   12.3647  -12.0124 C   0  0  0  0  0  0  0  0  0  0  0  0
   -6.5249   11.8167  -10.7375 C   0  0  0  0  0  0  0  0  0  0  0  0
   -7.7225   10.5819  -13.0270 C   0  0  0  0  0  0  0  0  0  0  0  0
   -6.9871   11.7813  -13.1320 C   0  0  0  0  0  0  0  0  0  0  0  0
   -7.8205   10.0150  -11.7538 C   0  0  0  0  0  0  0  0  0  0  0  0
   -7.2514   10.6217  -10.6093 C   0  0  0  0  0  0  0  0  0  0  0  0
   -7.6113    9.7463   -9.5119 C   0  0  0  0  0  0  0  0  0  0  0  0
   -8.2838    8.7282   -9.9768 N   0  0  0  0  0  0  0  0  0  0  0  0
   -8.4166    8.8609  -11.2984 N   0  0  0  0  0  0  0  0  0  0  0  0
   -7.3282    9.8959   -8.0269 C   0  0  0  0  0  0  0  0  0  0  0  0
   -4.4004   13.6489  -11.4541 N   0  0  0  0  0  0  0  0  0  0  0  0
   -3.4592   14.7715  -11.4916 C   0  0  0  0  0  0  0  0  0  0  0  0
   -5.5363   13.6231  -12.1917 C   0  0  0  0  0  0  0  0  0  0  0  0
   -5.8861   14.5056  -12.9557 O   0  0  0  0  0  0  0  0  0  0  0  0
   -5.9554   10.4909   -7.7390 C   0  0  0  0  0  0  0  0  0  0  0  0
   -5.8447   11.7612   -7.1661 C   0  0  0  0  0  0  0  0  0  0  0  0
   -4.5697   12.3054   -6.9214 C   0  0  0  0  0  0  0  0  0  0  0  0
   -3.4308   11.5801   -7.2259 C   0  0  0  0  0  0  0  0  0  0  0  0
   -3.5429   10.3015   -7.8076 C   0  0  0  0  0  0  0  0  0  0  0  0
   -4.8018    9.7661   -8.0596 C   0  0  0  0  0  0  0  0  0  0  0  0
   -4.4352   13.5609   -6.3638 O   0  0  0  0  0  0  0  0  0  0  0  0
   -3.6839   14.5445   -7.0766 C   0  0  0  0  0  0  0  0  0  0  0  0
   -2.1928   12.1397   -6.9410 O   0  0  0  0  0  0  0  0  0  0  0  0
   -1.0568   11.8071   -7.7386 C   0  0  0  0  0  0  0  0  0  0  0  0
   -6.0949   12.2992   -9.8722 H   0  0  0  0  0  0  0  0  0  0  0  0
   -8.1868   10.1246  -13.8882 H   0  0  0  0  0  0  0  0  0  0  0  0
   -6.8945   12.2613  -14.0950 H   0  0  0  0  0  0  0  0  0  0  0  0
   -8.0276    9.6101   -7.2552 H   0  0  0  0  0  0  0  0  0  0  0  0
   -4.1959   12.8707  -10.8602 H   0  0  0  0  0  0  0  0  0  0  0  0
   -2.6173   14.5676  -10.8136 H   0  0  0  0  0  0  0  0  0  0  0  0
   -3.0815   14.8991  -12.5168 H   0  0  0  0  0  0  0  0  0  0  0  0
   -3.9723   15.6908  -11.1728 H   0  0  0  0  0  0  0  0  0  0  0  0
   -6.7323   12.3219   -6.9127 H   0  0  0  0  0  0  0  0  0  0  0  0
   -3.0151   10.3425   -8.7718 H   0  0  0  0  0  0  0  0  0  0  0  0
   -3.0264    9.5995   -7.1364 H   0  0  0  0  0  0  0  0  0  0  0  0
   -4.8592    8.8187   -7.5036 H   0  0  0  0  0  0  0  0  0  0  0  0
   -4.8475    9.5609   -9.1393 H   0  0  0  0  0  0  0  0  0  0  0  0
   -3.6711   15.4833   -6.5034 H   0  0  0  0  0  0  0  0  0  0  0  0
   -2.6532   14.1872   -7.2178 H   0  0  0  0  0  0  0  0  0  0  0  0
   -4.1486   14.7205   -8.0580 H   0  0  0  0  0  0  0  0  0  0  0  0
   -0.1739   12.3445   -7.3623 H   0  0  0  0  0  0  0  0  0  0  0  0
   -0.8764   10.7233   -7.6856 H   0  0  0  0  0  0  0  0  0  0  0  0
   -1.2447   12.0969   -8.7830 H   0  0  0  0  0  0  0  0  0  0  0  0
  1  2  2  0  0  0  0
  1  4  1  0  0  0  0
  1 13  1  0  0  0  0
  2  6  1  0  0  0  0
  3  4  2  0  0  0  0
  3  5  1  0  0  0  0
  5  6  2  0  0  0  0
  5  9  1  0  0  0  0
  6  7  1  0  0  0  0
  7  8  1  0  0  0  0
  7 10  2  3  0  0  0
  8  9  2  0  0  0  0
 10 15  1  0  0  0  0
 11 12  1  0  0  0  0
 11 13  1  0  0  0  0
 13 14  2  0  0  0  0
 15 16  2  0  0  0  0
 15 20  1  0  0  0  0
 16 17  1  0  0  0  0
 17 18  2  0  0  0  0
 17 21  1  0  0  0  0
 18 19  1  0  0  0  0
 18 23  1  0  0  0  0
 19 20  1  0  0  0  0
 21 22  1  0  0  0  0
 23 24  1  0  0  0  0
  2 25  1  0  0  0  0
  3 26  1  0  0  0  0
  4 27  1  0  0  0  0
 10 28  1  0  0  0  0
 11 29  1  0  0  0  0
 12 30  1  0  0  0  0
 12 31  1  0  0  0  0
 12 32  1  0  0  0  0
 16 33  1  0  0  0  0
 19 34  1  0  0  0  0
 19 35  1  0  0  0  0
 20 36  1  0  0  0  0
 20 37  1  0  0  0  0
 22 38  1  0  0  0  0
 22 39  1  0  0  0  0
 22 40  1  0  0  0  0
 24 41  1  0  0  0  0
 24 42  1  0  0  0  0
 24 43  1  0  0  0  0
M  END
> <Name>
15

> <IC50[uM]>
2.5

$$$$
15
  -OEChem-05192314333D
 Structure written by MMmdl.
 43 45  0     1  0  0  0  0  0999 V2000
   -6.3730   12.3647  -12.0124 C   0  0  3  0  0  0  0  0  0  0  0  0
   -6.5249   11.8167  -10.7375 C   0  0  0  0  0  0  0  0  0  0  0  0
   -7.7225   10.5819  -13.0270 C   0  0  0  0  0  0  0  0  0  0  0  0
   -6.9871   11.7813  -13.1320 C   0  0  0  0  0  0  0  0  0  0  0  0
   -7.8205   10.0150  -11.7538 C   0  0  0  0  0  0  0  0  0  0  0  0
   -7.2514   10.6217  -10.6093 C   0  0  0  0  0  0  0  0  0  0  0  0
   -7.6113    9.7463   -9.5119 C   0  0  0  0  0  0  0  0  0  0  0  0
   -8.2838    8.7282   -9.9768 N   0  0  0  0  0  0  0  0  0  0  0  0
   -8.4166    8.8609  -11.2984 N   0  0  0  0  0  0  0  0  0  0  0  0
   -7.3282    9.8959   -8.0269 C   0  0  0  0  0  0  0  0  0  0  0  0
   -4.4004   13.6489  -11.4541 N   0  0  0  0  0  0  0  0  0  0  0  0
   -3.4592   14.7715  -11.4916 C   0  0  0  0  0  0  0  0  0  0  0  0
   -5.5363   13.6231  -12.1917 C   0  0  0  0  0  0  0  0  0  0  0  0
   -5.8861   14.5056  -12.9557 O   0  0  0  0  0  0  0  0  0  0  0  0
   -5.9554   10.4909   -7.7390 C   0  0  0  0  0  0  0  0  0  0  0  0
   -5.8447   11.7612   -7.1661 C   0  0  0  0  0  0  0  0  0  0  0  0
   -4.5697   12.3054   -6.9214 C   0  0  0  0  0  0  0  0  0  0  0  0
   -3.4308   11.5801   -7.2259 C   0  0  0  0  0  0  0  0  0  0  0  0
   -3.5429   10.3015   -7.8076 C   0  0  0  0  0  0  0  0  0  0  0  0
   -4.8018    9.7661   -8.0596 C   0  0  0  0  0  0  0  0  0  0  0  0
   -4.4352   13.5609   -6.3638 O   0  0  0  0  0  0  0  0  0  0  0  0
   -3.6839   14.5445   -7.0766 C   0  0  0  0  0  0  0  0  0  0  0  0
   -2.1928   12.1397   -6.9410 O   0  0  0  0  0  0  0  0  0  0  0  0
   -1.0568   11.8071   -7.7386 C   0  0  0  0  0  0  0  0  0  0  0  0
   -5.4795   11.7442  -12.1757 H   0  0  0  0  0  0  0  0  0  0  0  0
   -5.5161   11.6287  -10.3414 H   0  0  0  0  0  0  0  0  0  0  0  0
   -7.0280   12.5721  -10.1160 H   0  0  0  0  0  0  0  0  0  0  0  0
   -8.1868   10.1246  -13.8882 H   0  0  0  0  0  0  0  0  0  0  0  0
   -6.8945   12.2613  -14.0950 H   0  0  0  0  0  0  0  0  0  0  0  0
   -8.0276    9.6101   -7.2552 H   0  0  0  0  0  0  0  0  0  0  0  0
   -4.1959   12.8707  -10.8602 H   0  0  0  0  0  0  0  0  0  0  0  0
   -2.6173   14.5676  -10.8136 H   0  0  0  0  0  0  0  0  0  0  0  0
   -3.0815   14.8991  -12.5168 H   0  0  0  0  0  0  0  0  0  0  0  0
   -3.9723   15.6908  -11.1728 H   0  0  0  0  0  0  0  0  0  0  0  0
   -6.7323   12.3219   -6.9127 H   0  0  0  0  0  0  0  0  0  0  0  0
   -2.6549    9.7395   -8.0568 H   0  0  0  0  0  0  0  0  0  0  0  0
   -4.8895    8.7861   -8.5049 H   0  0  0  0  0  0  0  0  0  0  0  0
   -3.6711   15.4833   -6.5034 H   0  0  0  0  0  0  0  0  0  0  0  0
   -2.6532   14.1872   -7.2178 H   0  0  0  0  0  0  0  0  0  0  0  0
   -4.1486   14.7205   -8.0580 H   0  0  0  0  0  0  0  0  0  0  0  0
   -0.1739   12.3445   -7.3623 H   0  0  0  0  0  0  0  0  0  0  0  0
   -0.8764   10.7233   -7.6856 H   0  0  0  0  0  0  0  0  0  0  0  0
   -1.2447   12.0969   -8.7830 H   0  0  0  0  0  0  0  0  0  0  0  0
  1  2  1  0  0  0  0
  1  4  1  0  0  0  0
  1 13  1  0  0  0  0
  2  6  1  0  0  0  0
  3  4  2  0  0  0  0
  3  5  1  0  0  0  0
  5  6  2  0  0  0  0
  5  9  1  0  0  0  0
  6  7  1  0  0  0  0
  7  8  1  0  0  0  0
  7 10  2  3  0  0  0
  8  9  2  0  0  0  0
 10 15  1  0  0  0  0
 11 12  1  0  0  0  0
 11 13  1  0  0  0  0
 13 14  2  0  0  0  0
 15 16  2  0  0  0  0
 15 20  1  0  0  0  0
 16 17  1  0  0  0  0
 17 18  2  0  0  0  0
 17 21  1  0  0  0  0
 18 19  1  0  0  0  0
 18 23  1  0  0  0  0
 19 20  2  0  0  0  0
 21 22  1  0  0  0  0
 23 24  1  0  0  0  0
  1 25  1  0  0  0  0
  2 26  1  0  0  0  0
  2 27  1  0  0  0  0
  3 28  1  0  0  0  0
  4 29  1  0  0  0  0
 10 30  1  0  0  0  0
 11 31  1  0  0  0  0
 12 32  1  0  0  0  0
 12 33  1  0  0  0  0
 12 34  1  0  0  0  0
 16 35  1  0  0  0  0
 19 36  1  0  0  0  0
 20 37  1  0  0  0  0
 22 38  1  0  0  0  0
 22 39  1  0  0  0  0
 22 40  1  0  0  0  0
 24 41  1  0  0  0  0
 24 42  1  0  0  0  0
 24 43  1  0  0  0  0
M  END
> <Name>
15

> <IC50[uM]>
2.5

$$$$
15
  -OEChem-05192314333D
 Structure written by MMmdl.
 43 45  0     1  0  0  0  0  0999 V2000
   -6.3730   12.3647  -12.0124 C   0  0  0  0  0  0  0  0  0  0  0  0
   -6.5249   11.8167  -10.7375 C   0  0  0  0  0  0  0  0  0  0  0  0
   -7.7225   10.5819  -13.0270 C   0  0  0  0  0  0  0  0  0  0  0  0
   -6.9871   11.7813  -13.1320 C   0  0  0  0  0  0  0  0  0  0  0  0
   -7.8205   10.0150  -11.7538 C   0  0  0  0  0  0  0  0  0  0  0  0
   -7.2514   10.6217  -10.6093 C   0  0  3  0  0  0  0  0  0  0  0  0
   -7.6113    9.7463   -9.5119 C   0  0  0  0  0  0  0  0  0  0  0  0
   -8.2838    8.7282   -9.9768 N   0  0  0  0  0  0  0  0  0  0  0  0
   -8.4166    8.8609  -11.2984 N   0  0  0  0  0  0  0  0  0  0  0  0
   -7.3282    9.8959   -8.0269 C   0  0  0  0  0  0  0  0  0  0  0  0
   -4.4004   13.6489  -11.4541 N   0  0  0  0  0  0  0  0  0  0  0  0
   -3.4592   14.7715  -11.4916 C   0  0  0  0  0  0  0  0  0  0  0  0
   -5.5363   13.6231  -12.1917 C   0  0  0  0  0  0  0  0  0  0  0  0
   -5.8861   14.5056  -12.9557 O   0  0  0  0  0  0  0  0  0  0  0  0
   -5.9554   10.4909   -7.7390 C   0  0  0  0  0  0  0  0  0  0  0  0
   -5.8447   11.7612   -7.1661 C   0  0  0  0  0  0  0  0  0  0  0  0
   -4.5697   12.3054   -6.9214 C   0  0  0  0  0  0  0  0  0  0  0  0
   -3.4308   11.5801   -7.2259 C   0  0  0  0  0  0  0  0  0  0  0  0
   -3.5429   10.3015   -7.8076 C   0  0  0  0  0  0  0  0  0  0  0  0
   -4.8018    9.7661   -8.0596 C   0  0  0  0  0  0  0  0  0  0  0  0
   -4.4352   13.5609   -6.3638 O   0  0  0  0  0  0  0  0  0  0  0  0
   -3.6839   14.5445   -7.0766 C   0  0  0  0  0  0  0  0  0  0  0  0
   -2.1928   12.1397   -6.9410 O   0  0  0  0  0  0  0  0  0  0  0  0
   -1.0568   11.8071   -7.7386 C   0  0  0  0  0  0  0  0  0  0  0  0
   -5.5161   11.6287  -10.3414 H   0  0  0  0  0  0  0  0  0  0  0  0
   -7.0280   12.5721  -10.1160 H   0  0  0  0  0  0  0  0  0  0  0  0
   -8.1868   10.1246  -13.8882 H   0  0  0  0  0  0  0  0  0  0  0  0
   -6.8945   12.2613  -14.0950 H   0  0  0  0  0  0  0  0  0  0  0  0
   -8.1752   11.1984  -10.4540 H   0  0  0  0  0  0  0  0  0  0  0  0
   -8.0276    9.6101   -7.2552 H   0  0  0  0  0  0  0  0  0  0  0  0
   -4.1959   12.8707  -10.8602 H   0  0  0  0  0  0  0  0  0  0  0  0
   -2.6173   14.5676  -10.8136 H   0  0  0  0  0  0  0  0  0  0  0  0
   -3.0815   14.8991  -12.5168 H   0  0  0  0  0  0  0  0  0  0  0  0
   -3.9723   15.6908  -11.1728 H   0  0  0  0  0  0  0  0  0  0  0  0
   -6.7323   12.3219   -6.9127 H   0  0  0  0  0  0  0  0  0  0  0  0
   -2.6549    9.7395   -8.0568 H   0  0  0  0  0  0  0  0  0  0  0  0
   -4.8895    8.7861   -8.5049 H   0  0  0  0  0  0  0  0  0  0  0  0
   -3.6711   15.4833   -6.5034 H   0  0  0  0  0  0  0  0  0  0  0  0
   -2.6532   14.1872   -7.2178 H   0  0  0  0  0  0  0  0  0  0  0  0
   -4.1486   14.7205   -8.0580 H   0  0  0  0  0  0  0  0  0  0  0  0
   -0.1739   12.3445   -7.3623 H   0  0  0  0  0  0  0  0  0  0  0  0
   -0.8764   10.7233   -7.6856 H   0  0  0  0  0  0  0  0  0  0  0  0
   -1.2447   12.0969   -8.7830 H   0  0  0  0  0  0  0  0  0  0  0  0
  1  2  1  0  0  0  0
  1  4  2  0  0  0  0
  1 13  1  0  0  0  0
  2  6  1  0  0  0  0
  3  4  1  0  0  0  0
  3  5  2  0  0  0  0
  5  6  1  0  0  0  0
  5  9  1  0  0  0  0
  6  7  1  0  0  0  0
  7  8  1  0  0  0  0
  7 10  2  3  0  0  0
  8  9  2  0  0  0  0
 10 15  1  0  0  0  0
 11 12  1  0  0  0  0
 11 13  1  0  0  0  0
 13 14  2  0  0  0  0
 15 16  2  0  0  0  0
 15 20  1  0  0  0  0
 16 17  1  0  0  0  0
 17 18  2  0  0  0  0
 17 21  1  0  0  0  0
 18 19  1  0  0  0  0
 18 23  1  0  0  0  0
 19 20  2  0  0  0  0
 21 22  1  0  0  0  0
 23 24  1  0  0  0  0
  2 25  1  0  0  0  0
  2 26  1  0  0  0  0
  3 27  1  0  0  0  0
  4 28  1  0  0  0  0
  6 29  1  0  0  0  0
 10 30  1  0  0  0  0
 11 31  1  0  0  0  0
 12 32  1  0  0  0  0
 12 33  1  0  0  0  0
 12 34  1  0  0  0  0
 16 35  1  0  0  0  0
 19 36  1  0  0  0  0
 20 37  1  0  0  0  0
 22 38  1  0  0  0  0
 22 39  1  0  0  0  0
 22 40  1  0  0  0  0
 24 41  1  0  0  0  0
 24 42  1  0  0  0  0
 24 43  1  0  0  0  0
M  END
> <Name>
15

> <IC50[uM]>
2.5

$$$$
15
  -OEChem-05192314333D
 Structure written by MMmdl.
 43 45  0     0  0  0  0  0  0999 V2000
   -6.3730   12.3647  -12.0124 C   0  0  0  0  0  0  0  0  0  0  0  0
   -6.5249   11.8167  -10.7375 C   0  0  0  0  0  0  0  0  0  0  0  0
   -7.7225   10.5819  -13.0270 C   0  0  0  0  0  0  0  0  0  0  0  0
   -6.9871   11.7813  -13.1320 C   0  0  0  0  0  0  0  0  0  0  0  0
   -7.8205   10.0150  -11.7538 C   0  0  0  0  0  0  0  0  0  0  0  0
   -7.2514   10.6217  -10.6093 C   0  0  0  0  0  0  0  0  0  0  0  0
   -7.6113    9.7463   -9.5119 C   0  0  0  0  0  0  0  0  0  0  0  0
   -8.2838    8.7282   -9.9768 N   0  0  0  0  0  0  0  0  0  0  0  0
   -8.4166    8.8609  -11.2984 N   0  0  0  0  0  0  0  0  0  0  0  0
   -7.3282    9.8959   -8.0269 C   0  0  0  0  0  0  0  0  0  0  0  0
   -4.4004   13.6489  -11.4541 N   0  0  0  0  0  0  0  0  0  0  0  0
   -3.4592   14.7715  -11.4916 C   0  0  0  0  0  0  0  0  0  0  0  0
   -5.5363   13.6231  -12.1917 C   0  0  0  0  0  0  0  0  0  0  0  0
   -5.8861   14.5056  -12.9557 O   0  0  0  0  0  0  0  0  0  0  0  0
   -5.9554   10.4909   -7.7390 C   0  0  0  0  0  0  0  0  0  0  0  0
   -5.8447   11.7612   -7.1661 C   0  0  0  0  0  0  0  0  0  0  0  0
   -4.5697   12.3054   -6.9214 C   0  0  0  0  0  0  0  0  0  0  0  0
   -3.4308   11.5801   -7.2259 C   0  0  0  0  0  0  0  0  0  0  0  0
   -3.5429   10.3015   -7.8076 C   0  0  0  0  0  0  0  0  0  0  0  0
   -4.8018    9.7661   -8.0596 C   0  0  0  0  0  0  0  0  0  0  0  0
   -4.4352   13.5609   -6.3638 O   0  0  0  0  0  0  0  0  0  0  0  0
   -3.6839   14.5445   -7.0766 C   0  0  0  0  0  0  0  0  0  0  0  0
   -2.1928   12.1397   -6.9410 O   0  0  0  0  0  0  0  0  0  0  0  0
   -1.0568   11.8071   -7.7386 C   0  0  0  0  0  0  0  0  0  0  0  0
   -5.5161   11.6287  -10.3414 H   0  0  0  0  0  0  0  0  0  0  0  0
   -7.0280   12.5721  -10.1160 H   0  0  0  0  0  0  0  0  0  0  0  0
   -8.7440   10.7853  -13.3808 H   0  0  0  0  0  0  0  0  0  0  0  0
   -7.2470    9.8407  -13.6861 H   0  0  0  0  0  0  0  0  0  0  0  0
   -6.8945   12.2613  -14.0950 H   0  0  0  0  0  0  0  0  0  0  0  0
   -8.0276    9.6101   -7.2552 H   0  0  0  0  0  0  0  0  0  0  0  0
   -4.1959   12.8707  -10.8602 H   0  0  0  0  0  0  0  0  0  0  0  0
   -2.6173   14.5676  -10.8136 H   0  0  0  0  0  0  0  0  0  0  0  0
   -3.0815   14.8991  -12.5168 H   0  0  0  0  0  0  0  0  0  0  0  0
   -3.9723   15.6908  -11.1728 H   0  0  0  0  0  0  0  0  0  0  0  0
   -6.7323   12.3219   -6.9127 H   0  0  0  0  0  0  0  0  0  0  0  0
   -2.6549    9.7395   -8.0568 H   0  0  0  0  0  0  0  0  0  0  0  0
   -4.8895    8.7861   -8.5049 H   0  0  0  0  0  0  0  0  0  0  0  0
   -3.6711   15.4833   -6.5034 H   0  0  0  0  0  0  0  0  0  0  0  0
   -2.6532   14.1872   -7.2178 H   0  0  0  0  0  0  0  0  0  0  0  0
   -4.1486   14.7205   -8.0580 H   0  0  0  0  0  0  0  0  0  0  0  0
   -0.1739   12.3445   -7.3623 H   0  0  0  0  0  0  0  0  0  0  0  0
   -0.8764   10.7233   -7.6856 H   0  0  0  0  0  0  0  0  0  0  0  0
   -1.2447   12.0969   -8.7830 H   0  0  0  0  0  0  0  0  0  0  0  0
  1  2  1  0  0  0  0
  1  4  2  0  0  0  0
  1 13  1  0  0  0  0
  2  6  1  0  0  0  0
  3  4  1  0  0  0  0
  3  5  1  0  0  0  0
  5  6  2  0  0  0  0
  5  9  1  0  0  0  0
  6  7  1  0  0  0  0
  7  8  1  0  0  0  0
  7 10  2  3  0  0  0
  8  9  2  0  0  0  0
 10 15  1  0  0  0  0
 11 12  1  0  0  0  0
 11 13  1  0  0  0  0
 13 14  2  0  0  0  0
 15 16  2  0  0  0  0
 15 20  1  0  0  0  0
 16 17  1  0  0  0  0
 17 18  2  0  0  0  0
 17 21  1  0  0  0  0
 18 19  1  0  0  0  0
 18 23  1  0  0  0  0
 19 20  2  0  0  0  0
 21 22  1  0  0  0  0
 23 24  1  0  0  0  0
  2 25  1  0  0  0  0
  2 26  1  0  0  0  0
  3 27  1  0  0  0  0
  3 28  1  0  0  0  0
  4 29  1  0  0  0  0
 10 30  1  0  0  0  0
 11 31  1  0  0  0  0
 12 32  1  0  0  0  0
 12 33  1  0  0  0  0
 12 34  1  0  0  0  0
 16 35  1  0  0  0  0
 19 36  1  0  0  0  0
 20 37  1  0  0  0  0
 22 38  1  0  0  0  0
 22 39  1  0  0  0  0
 22 40  1  0  0  0  0
 24 41  1  0  0  0  0
 24 42  1  0  0  0  0
 24 43  1  0  0  0  0
M  END
> <Name>
15

> <IC50[uM]>
2.5

$$$$
15
  -OEChem-05192314333D
 Structure written by MMmdl.
 43 45  0     1  0  0  0  0  0999 V2000
   -6.3730   12.3647  -12.0124 C   0  0  0  0  0  0  0  0  0  0  0  0
   -6.5249   11.8167  -10.7375 C   0  0  0  0  0  0  0  0  0  0  0  0
   -7.7225   10.5819  -13.0270 C   0  0  0  0  0  0  0  0  0  0  0  0
   -6.9871   11.7813  -13.1320 C   0  0  0  0  0  0  0  0  0  0  0  0
   -7.8205   10.0150  -11.7538 C   0  0  0  0  0  0  0  0  0  0  0  0
   -7.2514   10.6217  -10.6093 C   0  0  0  0  0  0  0  0  0  0  0  0
   -7.6113    9.7463   -9.5119 C   0  0  0  0  0  0  0  0  0  0  0  0
   -8.2838    8.7282   -9.9768 N   0  0  0  0  0  0  0  0  0  0  0  0
   -8.4166    8.8609  -11.2984 N   0  0  0  0  0  0  0  0  0  0  0  0
   -7.3282    9.8959   -8.0269 C   0  0  0  0  0  0  0  0  0  0  0  0
   -4.4004   13.6489  -11.4541 N   0  0  0  0  0  0  0  0  0  0  0  0
   -3.4592   14.7715  -11.4916 C   0  0  0  0  0  0  0  0  0  0  0  0
   -5.5363   13.6231  -12.1917 C   0  0  0  0  0  0  0  0  0  0  0  0
   -5.8861   14.5056  -12.9557 O   0  0  0  0  0  0  0  0  0  0  0  0
   -5.9554   10.4909   -7.7390 C   0  0  3  0  0  0  0  0  0  0  0  0
   -5.8447   11.7612   -7.1661 C   0  0  0  0  0  0  0  0  0  0  0  0
   -4.5697   12.3054   -6.9214 C   0  0  0  0  0  0  0  0  0  0  0  0
   -3.4308   11.5801   -7.2259 C   0  0  0  0  0  0  0  0  0  0  0  0
   -3.5429   10.3015   -7.8076 C   0  0  0  0  0  0  0  0  0  0  0  0
   -4.8018    9.7661   -8.0596 C   0  0  0  0  0  0  0  0  0  0  0  0
   -4.4352   13.5609   -6.3638 O   0  0  0  0  0  0  0  0  0  0  0  0
   -3.6839   14.5445   -7.0766 C   0  0  0  0  0  0  0  0  0  0  0  0
   -2.1928   12.1397   -6.9410 O   0  0  0  0  0  0  0  0  0  0  0  0
   -1.0568   11.8071   -7.7386 C   0  0  0  0  0  0  0  0  0  0  0  0
   -6.0949   12.2992   -9.8722 H   0  0  0  0  0  0  0  0  0  0  0  0
   -8.1868   10.1246  -13.8882 H   0  0  0  0  0  0  0  0  0  0  0  0
   -6.8945   12.2613  -14.0950 H   0  0  0  0  0  0  0  0  0  0  0  0
   -8.0276    9.6101   -7.2552 H   0  0  0  0  0  0  0  0  0  0  0  0
   -4.1959   12.8707  -10.8602 H   0  0  0  0  0  0  0  0  0  0  0  0
   -2.6173   14.5676  -10.8136 H   0  0  0  0  0  0  0  0  0  0  0  0
   -3.0815   14.8991  -12.5168 H   0  0  0  0  0  0  0  0  0  0  0  0
   -3.9723   15.6908  -11.1728 H   0  0  0  0  0  0  0  0  0  0  0  0
   -5.9658   10.0368   -6.7372 H   0  0  0  0  0  0  0  0  0  0  0  0
   -6.3671   12.4602   -7.8358 H   0  0  0  0  0  0  0  0  0  0  0  0
   -6.3661   11.7216   -6.1984 H   0  0  0  0  0  0  0  0  0  0  0  0
   -2.6549    9.7395   -8.0568 H   0  0  0  0  0  0  0  0  0  0  0  0
   -4.8895    8.7861   -8.5049 H   0  0  0  0  0  0  0  0  0  0  0  0
   -3.6711   15.4833   -6.5034 H   0  0  0  0  0  0  0  0  0  0  0  0
   -2.6532   14.1872   -7.2178 H   0  0  0  0  0  0  0  0  0  0  0  0
   -4.1486   14.7205   -8.0580 H   0  0  0  0  0  0  0  0  0  0  0  0
   -0.1739   12.3445   -7.3623 H   0  0  0  0  0  0  0  0  0  0  0  0
   -0.8764   10.7233   -7.6856 H   0  0  0  0  0  0  0  0  0  0  0  0
   -1.2447   12.0969   -8.7830 H   0  0  0  0  0  0  0  0  0  0  0  0
  1  2  2  0  0  0  0
  1  4  1  0  0  0  0
  1 13  1  0  0  0  0
  2  6  1  0  0  0  0
  3  4  2  0  0  0  0
  3  5  1  0  0  0  0
  5  6  2  0  0  0  0
  5  9  1  0  0  0  0
  6  7  1  0  0  0  0
  7  8  1  0  0  0  0
  7 10  2  3  0  0  0
  8  9  2  0  0  0  0
 10 15  1  0  0  0  0
 11 12  1  0  0  0  0
 11 13  1  0  0  0  0
 13 14  2  0  0  0  0
 15 16  1  0  0  0  0
 15 20  1  0  0  0  0
 16 17  1  0  0  0  0
 17 18  2  0  0  0  0
 17 21  1  0  0  0  0
 18 19  1  0  0  0  0
 18 23  1  0  0  0  0
 19 20  2  0  0  0  0
 21 22  1  0  0  0  0
 23 24  1  0  0  0  0
  2 25  1  0  0  0  0
  3 26  1  0  0  0  0
  4 27  1  0  0  0  0
 10 28  1  0  0  0  0
 11 29  1  0  0  0  0
 12 30  1  0  0  0  0
 12 31  1  0  0  0  0
 12 32  1  0  0  0  0
 15 33  1  0  0  0  0
 16 34  1  0  0  0  0
 16 35  1  0  0  0  0
 19 36  1  0  0  0  0
 20 37  1  0  0  0  0
 22 38  1  0  0  0  0
 22 39  1  0  0  0  0
 22 40  1  0  0  0  0
 24 41  1  0  0  0  0
 24 42  1  0  0  0  0
 24 43  1  0  0  0  0
M  END
> <Name>
15

> <IC50[uM]>
2.5

$$$$
15
  -OEChem-05192314333D
 Structure written by MMmdl.
 43 45  0     1  0  0  0  0  0999 V2000
   -6.3730   12.3647  -12.0124 C   0  0  0  0  0  0  0  0  0  0  0  0
   -6.5249   11.8167  -10.7375 C   0  0  0  0  0  0  0  0  0  0  0  0
   -7.7225   10.5819  -13.0270 C   0  0  0  0  0  0  0  0  0  0  0  0
   -6.9871   11.7813  -13.1320 C   0  0  0  0  0  0  0  0  0  0  0  0
   -7.8205   10.0150  -11.7538 C   0  0  0  0  0  0  0  0  0  0  0  0
   -7.2514   10.6217  -10.6093 C   0  0  0  0  0  0  0  0  0  0  0  0
   -7.6113    9.7463   -9.5119 C   0  0  3  0  0  0  0  0  0  0  0  0
   -8.2838    8.7282   -9.9768 N   0  0  0  0  0  0  0  0  0  0  0  0
   -8.4166    8.8609  -11.2984 N   0  0  0  0  0  0  0  0  0  0  0  0
   -7.3282    9.8959   -8.0269 C   0  0  0  0  0  0  0  0  0  0  0  0
   -4.4004   13.6489  -11.4541 N   0  0  0  0  0  0  0  0  0  0  0  0
   -3.4592   14.7715  -11.4916 C   0  0  0  0  0  0  0  0  0  0  0  0
   -5.5363   13.6231  -12.1917 C   0  0  0  0  0  0  0  0  0  0  0  0
   -5.8861   14.5056  -12.9557 O   0  0  0  0  0  0  0  0  0  0  0  0
   -5.9554   10.4909   -7.7390 C   0  0  0  0  0  0  0  0  0  0  0  0
   -5.8447   11.7612   -7.1661 C   0  0  0  0  0  0  0  0  0  0  0  0
   -4.5697   12.3054   -6.9214 C   0  0  0  0  0  0  0  0  0  0  0  0
   -3.4308   11.5801   -7.2259 C   0  0  0  0  0  0  0  0  0  0  0  0
   -3.5429   10.3015   -7.8076 C   0  0  0  0  0  0  0  0  0  0  0  0
   -4.8018    9.7661   -8.0596 C   0  0  0  0  0  0  0  0  0  0  0  0
   -4.4352   13.5609   -6.3638 O   0  0  0  0  0  0  0  0  0  0  0  0
   -3.6839   14.5445   -7.0766 C   0  0  0  0  0  0  0  0  0  0  0  0
   -2.1928   12.1397   -6.9410 O   0  0  0  0  0  0  0  0  0  0  0  0
   -1.0568   11.8071   -7.7386 C   0  0  0  0  0  0  0  0  0  0  0  0
   -6.0949   12.2992   -9.8722 H   0  0  0  0  0  0  0  0  0  0  0  0
   -8.1868   10.1246  -13.8882 H   0  0  0  0  0  0  0  0  0  0  0  0
   -6.8945   12.2613  -14.0950 H   0  0  0  0  0  0  0  0  0  0  0  0
   -6.6707    9.1906   -9.6401 H   0  0  0  0  0  0  0  0  0  0  0  0
   -8.0276    9.6101   -7.2552 H   0  0  0  0  0  0  0  0  0  0  0  0
   -4.1959   12.8707  -10.8602 H   0  0  0  0  0  0  0  0  0  0  0  0
   -2.6173   14.5676  -10.8136 H   0  0  0  0  0  0  0  0  0  0  0  0
   -3.0815   14.8991  -12.5168 H   0  0  0  0  0  0  0  0  0  0  0  0
   -3.9723   15.6908  -11.1728 H   0  0  0  0  0  0  0  0  0  0  0  0
   -6.3671   12.4602   -7.8358 H   0  0  0  0  0  0  0  0  0  0  0  0
   -6.3661   11.7216   -6.1984 H   0  0  0  0  0  0  0  0  0  0  0  0
   -2.6549    9.7395   -8.0568 H   0  0  0  0  0  0  0  0  0  0  0  0
   -4.8895    8.7861   -8.5049 H   0  0  0  0  0  0  0  0  0  0  0  0
   -3.6711   15.4833   -6.5034 H   0  0  0  0  0  0  0  0  0  0  0  0
   -2.6532   14.1872   -7.2178 H   0  0  0  0  0  0  0  0  0  0  0  0
   -4.1486   14.7205   -8.0580 H   0  0  0  0  0  0  0  0  0  0  0  0
   -0.1739   12.3445   -7.3623 H   0  0  0  0  0  0  0  0  0  0  0  0
   -0.8764   10.7233   -7.6856 H   0  0  0  0  0  0  0  0  0  0  0  0
   -1.2447   12.0969   -8.7830 H   0  0  0  0  0  0  0  0  0  0  0  0
  1  2  2  0  0  0  0
  1  4  1  0  0  0  0
  1 13  1  0  0  0  0
  2  6  1  0  0  0  0
  3  4  2  0  0  0  0
  3  5  1  0  0  0  0
  5  6  2  0  0  0  0
  5  9  1  0  0  0  0
  6  7  1  0  0  0  0
  7  8  1  0  0  0  0
  7 10  1  0  0  0  0
  8  9  2  0  0  0  0
 10 15  2  3  0  0  0
 11 12  1  0  0  0  0
 11 13  1  0  0  0  0
 13 14  2  0  0  0  0
 15 16  1  0  0  0  0
 15 20  1  0  0  0  0
 16 17  1  0  0  0  0
 17 18  2  0  0  0  0
 17 21  1  0  0  0  0
 18 19  1  0  0  0  0
 18 23  1  0  0  0  0
 19 20  2  0  0  0  0
 21 22  1  0  0  0  0
 23 24  1  0  0  0  0
  2 25  1  0  0  0  0
  3 26  1  0  0  0  0
  4 27  1  0  0  0  0
  7 28  1  0  0  0  0
 10 29  1  0  0  0  0
 11 30  1  0  0  0  0
 12 31  1  0  0  0  0
 12 32  1  0  0  0  0
 12 33  1  0  0  0  0
 16 34  1  0  0  0  0
 16 35  1  0  0  0  0
 19 36  1  0  0  0  0
 20 37  1  0  0  0  0
 22 38  1  0  0  0  0
 22 39  1  0  0  0  0
 22 40  1  0  0  0  0
 24 41  1  0  0  0  0
 24 42  1  0  0  0  0
 24 43  1  0  0  0  0
M  END
> <Name>
15

> <IC50[uM]>
2.5

$$$$
15
  -OEChem-05192314333D
 Structure written by MMmdl.
 43 45  0     1  0  0  0  0  0999 V2000
   -6.3730   12.3647  -12.0124 C   0  0  0  0  0  0  0  0  0  0  0  0
   -6.5249   11.8167  -10.7375 C   0  0  0  0  0  0  0  0  0  0  0  0
   -7.7225   10.5819  -13.0270 C   0  0  0  0  0  0  0  0  0  0  0  0
   -6.9871   11.7813  -13.1320 C   0  0  0  0  0  0  0  0  0  0  0  0
   -7.8205   10.0150  -11.7538 C   0  0  0  0  0  0  0  0  0  0  0  0
   -7.2514   10.6217  -10.6093 C   0  0  0  0  0  0  0  0  0  0  0  0
   -7.6113    9.7463   -9.5119 C   0  0  0  0  0  0  0  0  0  0  0  0
   -8.2838    8.7282   -9.9768 N   0  0  0  0  0  0  0  0  0  0  0  0
   -8.4166    8.8609  -11.2984 N   0  0  0  0  0  0  0  0  0  0  0  0
   -7.3282    9.8959   -8.0269 C   0  0  0  0  0  0  0  0  0  0  0  0
   -4.4004   13.6489  -11.4541 N   0  0  0  0  0  0  0  0  0  0  0  0
   -3.4592   14.7715  -11.4916 C   0  0  0  0  0  0  0  0  0  0  0  0
   -5.5363   13.6231  -12.1917 C   0  0  0  0  0  0  0  0  0  0  0  0
   -5.8861   14.5056  -12.9557 O   0  0  0  0  0  0  0  0  0  0  0  0
   -5.9554   10.4909   -7.7390 C   0  0  0  0  0  0  0  0  0  0  0  0
   -5.8447   11.7612   -7.1661 C   0  0  0  0  0  0  0  0  0  0  0  0
   -4.5697   12.3054   -6.9214 C   0  0  3  0  0  0  0  0  0  0  0  0
   -3.4308   11.5801   -7.2259 C   0  0  0  0  0  0  0  0  0  0  0  0
   -3.5429   10.3015   -7.8076 C   0  0  0  0  0  0  0  0  0  0  0  0
   -4.8018    9.7661   -8.0596 C   0  0  0  0  0  0  0  0  0  0  0  0
   -4.4352   13.5609   -6.3638 O   0  0  0  0  0  0  0  0  0  0  0  0
   -3.6839   14.5445   -7.0766 C   0  0  0  0  0  0  0  0  0  0  0  0
   -2.1928   12.1397   -6.9410 O   0  0  0  0  0  0  0  0  0  0  0  0
   -1.0568   11.8071   -7.7386 C   0  0  0  0  0  0  0  0  0  0  0  0
   -6.0949   12.2992   -9.8722 H   0  0  0  0  0  0  0  0  0  0  0  0
   -8.1868   10.1246  -13.8882 H   0  0  0  0  0  0  0  0  0  0  0  0
   -6.8945   12.2613  -14.0950 H   0  0  0  0  0  0  0  0  0  0  0  0
   -8.0276    9.6101   -7.2552 H   0  0  0  0  0  0  0  0  0  0  0  0
   -4.1959   12.8707  -10.8602 H   0  0  0  0  0  0  0  0  0  0  0  0
   -2.6173   14.5676  -10.8136 H   0  0  0  0  0  0  0  0  0  0  0  0
   -3.0815   14.8991  -12.5168 H   0  0  0  0  0  0  0  0  0  0  0  0
   -3.9723   15.6908  -11.1728 H   0  0  0  0  0  0  0  0  0  0  0  0
   -6.3671   12.4602   -7.8358 H   0  0  0  0  0  0  0  0  0  0  0  0
   -6.3661   11.7216   -6.1984 H   0  0  0  0  0  0  0  0  0  0  0  0
   -4.5615   12.7479   -7.9284 H   0  0  0  0  0  0  0  0  0  0  0  0
   -2.6549    9.7395   -8.0568 H   0  0  0  0  0  0  0  0  0  0  0  0
   -4.8895    8.7861   -8.5049 H   0  0  0  0  0  0  0  0  0  0  0  0
   -3.6711   15.4833   -6.5034 H   0  0  0  0  0  0  0  0  0  0  0  0
   -2.6532   14.1872   -7.2178 H   0  0  0  0  0  0  0  0  0  0  0  0
   -4.1486   14.7205   -8.0580 H   0  0  0  0  0  0  0  0  0  0  0  0
   -0.1739   12.3445   -7.3623 H   0  0  0  0  0  0  0  0  0  0  0  0
   -0.8764   10.7233   -7.6856 H   0  0  0  0  0  0  0  0  0  0  0  0
   -1.2447   12.0969   -8.7830 H   0  0  0  0  0  0  0  0  0  0  0  0
  1  2  2  0  0  0  0
  1  4  1  0  0  0  0
  1 13  1  0  0  0  0
  2  6  1  0  0  0  0
  3  4  2  0  0  0  0
  3  5  1  0  0  0  0
  5  6  2  0  0  0  0
  5  9  1  0  0  0  0
  6  7  1  0  0  0  0
  7  8  1  0  0  0  0
  7 10  2  3  0  0  0
  8  9  2  0  0  0  0
 10 15  1  0  0  0  0
 11 12  1  0  0  0  0
 11 13  1  0  0  0  0
 13 14  2  0  0  0  0
 15 16  1  0  0  0  0
 15 20  2  0  0  0  0
 16 17  1  0  0  0  0
 17 18  1  0  0  0  0
 17 21  1  0  0  0  0
 18 19  2  0  0  0  0
 18 23  1  0  0  0  0
 19 20  1  0  0  0  0
 21 22  1  0  0  0  0
 23 24  1  0  0  0  0
  2 25  1  0  0  0  0
  3 26  1  0  0  0  0
  4 27  1  0  0  0  0
 10 28  1  0  0  0  0
 11 29  1  0  0  0  0
 12 30  1  0  0  0  0
 12 31  1  0  0  0  0
 12 32  1  0  0  0  0
 16 33  1  0  0  0  0
 16 34  1  0  0  0  0
 17 35  1  0  0  0  0
 19 36  1  0  0  0  0
 20 37  1  0  0  0  0
 22 38  1  0  0  0  0
 22 39  1  0  0  0  0
 22 40  1  0  0  0  0
 24 41  1  0  0  0  0
 24 42  1  0  0  0  0
 24 43  1  0  0  0  0
M  END
> <Name>
15

> <IC50[uM]>
2.5

$$$$
15
  -OEChem-05192314333D
 Structure written by MMmdl.
 43 45  0     0  0  0  0  0  0999 V2000
   -6.3730   12.3647  -12.0124 C   0  0  0  0  0  0  0  0  0  0  0  0
   -6.5249   11.8167  -10.7375 C   0  0  0  0  0  0  0  0  0  0  0  0
   -7.7225   10.5819  -13.0270 C   0  0  0  0  0  0  0  0  0  0  0  0
   -6.9871   11.7813  -13.1320 C   0  0  0  0  0  0  0  0  0  0  0  0
   -7.8205   10.0150  -11.7538 C   0  0  0  0  0  0  0  0  0  0  0  0
   -7.2514   10.6217  -10.6093 C   0  0  0  0  0  0  0  0  0  0  0  0
   -7.6113    9.7463   -9.5119 C   0  0  0  0  0  0  0  0  0  0  0  0
   -8.2838    8.7282   -9.9768 N   0  0  0  0  0  0  0  0  0  0  0  0
   -8.4166    8.8609  -11.2984 N   0  0  0  0  0  0  0  0  0  0  0  0
   -7.3282    9.8959   -8.0269 C   0  0  0  0  0  0  0  0  0  0  0  0
   -4.4004   13.6489  -11.4541 N   0  0  0  0  0  0  0  0  0  0  0  0
   -3.4592   14.7715  -11.4916 C   0  0  0  0  0  0  0  0  0  0  0  0
   -5.5363   13.6231  -12.1917 C   0  0  0  0  0  0  0  0  0  0  0  0
   -5.8861   14.5056  -12.9557 O   0  0  0  0  0  0  0  0  0  0  0  0
   -5.9554   10.4909   -7.7390 C   0  0  0  0  0  0  0  0  0  0  0  0
   -5.8447   11.7612   -7.1661 C   0  0  0  0  0  0  0  0  0  0  0  0
   -4.5697   12.3054   -6.9214 C   0  0  0  0  0  0  0  0  0  0  0  0
   -3.4308   11.5801   -7.2259 C   0  0  0  0  0  0  0  0  0  0  0  0
   -3.5429   10.3015   -7.8076 C   0  0  0  0  0  0  0  0  0  0  0  0
   -4.8018    9.7661   -8.0596 C   0  0  0  0  0  0  0  0  0  0  0  0
   -4.4352   13.5609   -6.3638 O   0  0  0  0  0  0  0  0  0  0  0  0
   -3.6839   14.5445   -7.0766 C   0  0  0  0  0  0  0  0  0  0  0  0
   -2.1928   12.1397   -6.9410 O   0  0  0  0  0  0  0  0  0  0  0  0
   -1.0568   11.8071   -7.7386 C   0  0  0  0  0  0  0  0  0  0  0  0
   -6.0949   12.2992   -9.8722 H   0  0  0  0  0  0  0  0  0  0  0  0
   -8.1868   10.1246  -13.8882 H   0  0  0  0  0  0  0  0  0  0  0  0
   -6.8945   12.2613  -14.0950 H   0  0  0  0  0  0  0  0  0  0  0  0
   -8.0276    9.6101   -7.2552 H   0  0  0  0  0  0  0  0  0  0  0  0
   -4.1959   12.8707  -10.8602 H   0  0  0  0  0  0  0  0  0  0  0  0
   -2.6173   14.5676  -10.8136 H   0  0  0  0  0  0  0  0  0  0  0  0
   -3.0815   14.8991  -12.5168 H   0  0  0  0  0  0  0  0  0  0  0  0
   -3.9723   15.6908  -11.1728 H   0  0  0  0  0  0  0  0  0  0  0  0
   -6.3671   12.4602   -7.8358 H   0  0  0  0  0  0  0  0  0  0  0  0
   -6.3661   11.7216   -6.1984 H   0  0  0  0  0  0  0  0  0  0  0  0
   -3.0151   10.3425   -8.7718 H   0  0  0  0  0  0  0  0  0  0  0  0
   -3.0264    9.5995   -7.1364 H   0  0  0  0  0  0  0  0  0  0  0  0
   -4.8895    8.7861   -8.5049 H   0  0  0  0  0  0  0  0  0  0  0  0
   -3.6711   15.4833   -6.5034 H   0  0  0  0  0  0  0  0  0  0  0  0
   -2.6532   14.1872   -7.2178 H   0  0  0  0  0  0  0  0  0  0  0  0
   -4.1486   14.7205   -8.0580 H   0  0  0  0  0  0  0  0  0  0  0  0
   -0.1739   12.3445   -7.3623 H   0  0  0  0  0  0  0  0  0  0  0  0
   -0.8764   10.7233   -7.6856 H   0  0  0  0  0  0  0  0  0  0  0  0
   -1.2447   12.0969   -8.7830 H   0  0  0  0  0  0  0  0  0  0  0  0
  1  2  2  0  0  0  0
  1  4  1  0  0  0  0
  1 13  1  0  0  0  0
  2  6  1  0  0  0  0
  3  4  2  0  0  0  0
  3  5  1  0  0  0  0
  5  6  2  0  0  0  0
  5  9  1  0  0  0  0
  6  7  1  0  0  0  0
  7  8  1  0  0  0  0
  7 10  2  3  0  0  0
  8  9  2  0  0  0  0
 10 15  1  0  0  0  0
 11 12  1  0  0  0  0
 11 13  1  0  0  0  0
 13 14  2  0  0  0  0
 15 16  1  0  0  0  0
 15 20  2  0  0  0  0
 16 17  1  0  0  0  0
 17 18  2  0  0  0  0
 17 21  1  0  0  0  0
 18 19  1  0  0  0  0
 18 23  1  0  0  0  0
 19 20  1  0  0  0  0
 21 22  1  0  0  0  0
 23 24  1  0  0  0  0
  2 25  1  0  0  0  0
  3 26  1  0  0  0  0
  4 27  1  0  0  0  0
 10 28  1  0  0  0  0
 11 29  1  0  0  0  0
 12 30  1  0  0  0  0
 12 31  1  0  0  0  0
 12 32  1  0  0  0  0
 16 33  1  0  0  0  0
 16 34  1  0  0  0  0
 19 35  1  0  0  0  0
 19 36  1  0  0  0  0
 20 37  1  0  0  0  0
 22 38  1  0  0  0  0
 22 39  1  0  0  0  0
 22 40  1  0  0  0  0
 24 41  1  0  0  0  0
 24 42  1  0  0  0  0
 24 43  1  0  0  0  0
M  END
> <Name>
15

> <IC50[uM]>
2.5

$$$$
15
  -OEChem-05192314333D
 Structure written by MMmdl.
 43 45  0     1  0  0  0  0  0999 V2000
   -6.3730   12.3647  -12.0124 C   0  0  0  0  0  0  0  0  0  0  0  0
   -6.5249   11.8167  -10.7375 C   0  0  0  0  0  0  0  0  0  0  0  0
   -7.7225   10.5819  -13.0270 C   0  0  0  0  0  0  0  0  0  0  0  0
   -6.9871   11.7813  -13.1320 C   0  0  0  0  0  0  0  0  0  0  0  0
   -7.8205   10.0150  -11.7538 C   0  0  3  0  0  0  0  0  0  0  0  0
   -7.2514   10.6217  -10.6093 C   0  0  0  0  0  0  0  0  0  0  0  0
   -7.6113    9.7463   -9.5119 C   0  0  0  0  0  0  0  0  0  0  0  0
   -8.2838    8.7282   -9.9768 N   0  0  0  0  0  0  0  0  0  0  0  0
   -8.4166    8.8609  -11.2984 N   0  0  0  0  0  0  0  0  0  0  0  0
   -7.3282    9.8959   -8.0269 C   0  0  0  0  0  0  0  0  0  0  0  0
   -4.4004   13.6489  -11.4541 N   0  0  0  0  0  0  0  0  0  0  0  0
   -3.4592   14.7715  -11.4916 C   0  0  0  0  0  0  0  0  0  0  0  0
   -5.5363   13.6231  -12.1917 C   0  0  0  0  0  0  0  0  0  0  0  0
   -5.8861   14.5056  -12.9557 O   0  0  0  0  0  0  0  0  0  0  0  0
   -5.9554   10.4909   -7.7390 C   0  0  0  0  0  0  0  0  0  0  0  0
   -5.8447   11.7612   -7.1661 C   0  0  0  0  0  0  0  0  0  0  0  0
   -4.5697   12.3054   -6.9214 C   0  0  0  0  0  0  0  0  0  0  0  0
   -3.4308   11.5801   -7.2259 C   0  0  0  0  0  0  0  0  0  0  0  0
   -3.5429   10.3015   -7.8076 C   0  0  0  0  0  0  0  0  0  0  0  0
   -4.8018    9.7661   -8.0596 C   0  0  0  0  0  0  0  0  0  0  0  0
   -4.4352   13.5609   -6.3638 O   0  0  0  0  0  0  0  0  0  0  0  0
   -3.6839   14.5445   -7.0766 C   0  0  0  0  0  0  0  0  0  0  0  0
   -2.1928   12.1397   -6.9410 O   0  0  0  0  0  0  0  0  0  0  0  0
   -1.0568   11.8071   -7.7386 C   0  0  0  0  0  0  0  0  0  0  0  0
   -6.0949   12.2992   -9.8722 H   0  0  0  0  0  0  0  0  0  0  0  0
   -8.1868   10.1246  -13.8882 H   0  0  0  0  0  0  0  0  0  0  0  0
   -6.8945   12.2613  -14.0950 H   0  0  0  0  0  0  0  0  0  0  0  0
   -6.8846    9.4635  -11.9271 H   0  0  0  0  0  0  0  0  0  0  0  0
   -8.0938   10.5530   -7.5887 H   0  0  0  0  0  0  0  0  0  0  0  0
   -7.3851    8.9027   -7.5575 H   0  0  0  0  0  0  0  0  0  0  0  0
   -4.1959   12.8707  -10.8602 H   0  0  0  0  0  0  0  0  0  0  0  0
   -2.6173   14.5676  -10.8136 H   0  0  0  0  0  0  0  0  0  0  0  0
   -3.0815   14.8991  -12.5168 H   0  0  0  0  0  0  0  0  0  0  0  0
   -3.9723   15.6908  -11.1728 H   0  0  0  0  0  0  0  0  0  0  0  0
   -6.7323   12.3219   -6.9127 H   0  0  0  0  0  0  0  0  0  0  0  0
   -2.6549    9.7395   -8.0568 H   0  0  0  0  0  0  0  0  0  0  0  0
   -4.8895    8.7861   -8.5049 H   0  0  0  0  0  0  0  0  0  0  0  0
   -3.6711   15.4833   -6.5034 H   0  0  0  0  0  0  0  0  0  0  0  0
   -2.6532   14.1872   -7.2178 H   0  0  0  0  0  0  0  0  0  0  0  0
   -4.1486   14.7205   -8.0580 H   0  0  0  0  0  0  0  0  0  0  0  0
   -0.1739   12.3445   -7.3623 H   0  0  0  0  0  0  0  0  0  0  0  0
   -0.8764   10.7233   -7.6856 H   0  0  0  0  0  0  0  0  0  0  0  0
   -1.2447   12.0969   -8.7830 H   0  0  0  0  0  0  0  0  0  0  0  0
  1  2  2  0  0  0  0
  1  4  1  0  0  0  0
  1 13  1  0  0  0  0
  2  6  1  0  0  0  0
  3  4  2  0  0  0  0
  3  5  1  0  0  0  0
  5  6  1  0  0  0  0
  5  9  1  0  0  0  0
  6  7  2  0  0  0  0
  7  8  1  0  0  0  0
  7 10  1  0  0  0  0
  8  9  2  0  0  0  0
 10 15  1  0  0  0  0
 11 12  1  0  0  0  0
 11 13  1  0  0  0  0
 13 14  2  0  0  0  0
 15 16  2  0  0  0  0
 15 20  1  0  0  0  0
 16 17  1  0  0  0  0
 17 18  2  0  0  0  0
 17 21  1  0  0  0  0
 18 19  1  0  0  0  0
 18 23  1  0  0  0  0
 19 20  2  0  0  0  0
 21 22  1  0  0  0  0
 23 24  1  0  0  0  0
  2 25  1  0  0  0  0
  3 26  1  0  0  0  0
  4 27  1  0  0  0  0
  5 28  1  0  0  0  0
 10 29  1  0  0  0  0
 10 30  1  0  0  0  0
 11 31  1  0  0  0  0
 12 32  1  0  0  0  0
 12 33  1  0  0  0  0
 12 34  1  0  0  0  0
 16 35  1  0  0  0  0
 19 36  1  0  0  0  0
 20 37  1  0  0  0  0
 22 38  1  0  0  0  0
 22 39  1  0  0  0  0
 22 40  1  0  0  0  0
 24 41  1  0  0  0  0
 24 42  1  0  0  0  0
 24 43  1  0  0  0  0
M  END
> <Name>
15

> <IC50[uM]>
2.5

$$$$
15
  -OEChem-05192314333D
 Structure written by MMmdl.
 43 45  0     0  0  0  0  0  0999 V2000
   -6.3730   12.3647  -12.0124 C   0  0  0  0  0  0  0  0  0  0  0  0
   -6.5249   11.8167  -10.7375 C   0  0  0  0  0  0  0  0  0  0  0  0
   -7.7225   10.5819  -13.0270 C   0  0  0  0  0  0  0  0  0  0  0  0
   -6.9871   11.7813  -13.1320 C   0  0  0  0  0  0  0  0  0  0  0  0
   -7.8205   10.0150  -11.7538 C   0  0  0  0  0  0  0  0  0  0  0  0
   -7.2514   10.6217  -10.6093 C   0  0  0  0  0  0  0  0  0  0  0  0
   -7.6113    9.7463   -9.5119 C   0  0  0  0  0  0  0  0  0  0  0  0
   -8.2838    8.7282   -9.9768 N   0  0  0  0  0  0  0  0  0  0  0  0
   -8.4166    8.8609  -11.2984 N   0  0  0  0  0  0  0  0  0  0  0  0
   -7.3282    9.8959   -8.0269 C   0  0  0  0  0  0  0  0  0  0  0  0
   -4.4004   13.6489  -11.4541 N   0  0  0  0  0  0  0  0  0  0  0  0
   -3.4592   14.7715  -11.4916 C   0  0  0  0  0  0  0  0  0  0  0  0
   -5.5363   13.6231  -12.1917 C   0  0  0  0  0  0  0  0  0  0  0  0
   -5.8861   14.5056  -12.9557 O   0  0  0  0  0  0  0  0  0  0  0  0
   -5.9554   10.4909   -7.7390 C   0  0  0  0  0  0  0  0  0  0  0  0
   -5.8447   11.7612   -7.1661 C   0  0  0  0  0  0  0  0  0  0  0  0
   -4.5697   12.3054   -6.9214 C   0  0  0  0  0  0  0  0  0  0  0  0
   -3.4308   11.5801   -7.2259 C   0  0  0  0  0  0  0  0  0  0  0  0
   -3.5429   10.3015   -7.8076 C   0  0  0  0  0  0  0  0  0  0  0  0
   -4.8018    9.7661   -8.0596 C   0  0  0  0  0  0  0  0  0  0  0  0
   -4.4352   13.5609   -6.3638 O   0  0  0  0  0  0  0  0  0  0  0  0
   -3.6839   14.5445   -7.0766 C   0  0  0  0  0  0  0  0  0  0  0  0
   -2.1928   12.1397   -6.9410 O   0  0  0  0  0  0  0  0  0  0  0  0
   -1.0568   11.8071   -7.7386 C   0  0  0  0  0  0  0  0  0  0  0  0
   -6.0949   12.2992   -9.8722 H   0  0  0  0  0  0  0  0  0  0  0  0
   -8.1868   10.1246  -13.8882 H   0  0  0  0  0  0  0  0  0  0  0  0
   -7.6791   12.5355  -13.5348 H   0  0  0  0  0  0  0  0  0  0  0  0
   -6.1862   11.5916  -13.8618 H   0  0  0  0  0  0  0  0  0  0  0  0
   -8.0938   10.5530   -7.5887 H   0  0  0  0  0  0  0  0  0  0  0  0
   -7.3851    8.9027   -7.5575 H   0  0  0  0  0  0  0  0  0  0  0  0
   -4.1959   12.8707  -10.8602 H   0  0  0  0  0  0  0  0  0  0  0  0
   -2.6173   14.5676  -10.8136 H   0  0  0  0  0  0  0  0  0  0  0  0
   -3.0815   14.8991  -12.5168 H   0  0  0  0  0  0  0  0  0  0  0  0
   -3.9723   15.6908  -11.1728 H   0  0  0  0  0  0  0  0  0  0  0  0
   -6.7323   12.3219   -6.9127 H   0  0  0  0  0  0  0  0  0  0  0  0
   -2.6549    9.7395   -8.0568 H   0  0  0  0  0  0  0  0  0  0  0  0
   -4.8895    8.7861   -8.5049 H   0  0  0  0  0  0  0  0  0  0  0  0
   -3.6711   15.4833   -6.5034 H   0  0  0  0  0  0  0  0  0  0  0  0
   -2.6532   14.1872   -7.2178 H   0  0  0  0  0  0  0  0  0  0  0  0
   -4.1486   14.7205   -8.0580 H   0  0  0  0  0  0  0  0  0  0  0  0
   -0.1739   12.3445   -7.3623 H   0  0  0  0  0  0  0  0  0  0  0  0
   -0.8764   10.7233   -7.6856 H   0  0  0  0  0  0  0  0  0  0  0  0
   -1.2447   12.0969   -8.7830 H   0  0  0  0  0  0  0  0  0  0  0  0
  1  2  2  0  0  0  0
  1  4  1  0  0  0  0
  1 13  1  0  0  0  0
  2  6  1  0  0  0  0
  3  4  1  0  0  0  0
  3  5  2  0  0  0  0
  5  6  1  0  0  0  0
  5  9  1  0  0  0  0
  6  7  2  0  0  0  0
  7  8  1  0  0  0  0
  7 10  1  0  0  0  0
  8  9  2  0  0  0  0
 10 15  1  0  0  0  0
 11 12  1  0  0  0  0
 11 13  1  0  0  0  0
 13 14  2  0  0  0  0
 15 16  2  0  0  0  0
 15 20  1  0  0  0  0
 16 17  1  0  0  0  0
 17 18  2  0  0  0  0
 17 21  1  0  0  0  0
 18 19  1  0  0  0  0
 18 23  1  0  0  0  0
 19 20  2  0  0  0  0
 21 22  1  0  0  0  0
 23 24  1  0  0  0  0
  2 25  1  0  0  0  0
  3 26  1  0  0  0  0
  4 27  1  0  0  0  0
  4 28  1  0  0  0  0
 10 29  1  0  0  0  0
 10 30  1  0  0  0  0
 11 31  1  0  0  0  0
 12 32  1  0  0  0  0
 12 33  1  0  0  0  0
 12 34  1  0  0  0  0
 16 35  1  0  0  0  0
 19 36  1  0  0  0  0
 20 37  1  0  0  0  0
 22 38  1  0  0  0  0
 22 39  1  0  0  0  0
 22 40  1  0  0  0  0
 24 41  1  0  0  0  0
 24 42  1  0  0  0  0
 24 43  1  0  0  0  0
M  END
> <Name>
15

> <IC50[uM]>
2.5

$$$$
15
  -OEChem-05192314333D
 Structure written by MMmdl.
 43 45  0     0  0  0  0  0  0999 V2000
   -6.3730   12.3647  -12.0124 C   0  0  0  0  0  0  0  0  0  0  0  0
   -6.5249   11.8167  -10.7375 C   0  0  0  0  0  0  0  0  0  0  0  0
   -7.7225   10.5819  -13.0270 C   0  0  0  0  0  0  0  0  0  0  0  0
   -6.9871   11.7813  -13.1320 C   0  0  0  0  0  0  0  0  0  0  0  0
   -7.8205   10.0150  -11.7538 C   0  0  0  0  0  0  0  0  0  0  0  0
   -7.2514   10.6217  -10.6093 C   0  0  0  0  0  0  0  0  0  0  0  0
   -7.6113    9.7463   -9.5119 C   0  0  0  0  0  0  0  0  0  0  0  0
   -8.2838    8.7282   -9.9768 N   0  0  0  0  0  0  0  0  0  0  0  0
   -8.4166    8.8609  -11.2984 N   0  0  0  0  0  0  0  0  0  0  0  0
   -7.3282    9.8959   -8.0269 C   0  0  0  0  0  0  0  0  0  0  0  0
   -4.4004   13.6489  -11.4541 N   0  0  0  0  0  0  0  0  0  0  0  0
   -3.4592   14.7715  -11.4916 C   0  0  0  0  0  0  0  0  0  0  0  0
   -5.5363   13.6231  -12.1917 C   0  0  0  0  0  0  0  0  0  0  0  0
   -5.8861   14.5056  -12.9557 O   0  0  0  0  0  0  0  0  0  0  0  0
   -5.9554   10.4909   -7.7390 C   0  0  0  0  0  0  0  0  0  0  0  0
   -5.8447   11.7612   -7.1661 C   0  0  0  0  0  0  0  0  0  0  0  0
   -4.5697   12.3054   -6.9214 C   0  0  0  0  0  0  0  0  0  0  0  0
   -3.4308   11.5801   -7.2259 C   0  0  0  0  0  0  0  0  0  0  0  0
   -3.5429   10.3015   -7.8076 C   0  0  0  0  0  0  0  0  0  0  0  0
   -4.8018    9.7661   -8.0596 C   0  0  0  0  0  0  0  0  0  0  0  0
   -4.4352   13.5609   -6.3638 O   0  0  0  0  0  0  0  0  0  0  0  0
   -3.6839   14.5445   -7.0766 C   0  0  0  0  0  0  0  0  0  0  0  0
   -2.1928   12.1397   -6.9410 O   0  0  0  0  0  0  0  0  0  0  0  0
   -1.0568   11.8071   -7.7386 C   0  0  0  0  0  0  0  0  0  0  0  0
   -5.5161   11.6287  -10.3414 H   0  0  0  0  0  0  0  0  0  0  0  0
   -7.0280   12.5721  -10.1160 H   0  0  0  0  0  0  0  0  0  0  0  0
   -8.1868   10.1246  -13.8882 H   0  0  0  0  0  0  0  0  0  0  0  0
   -6.8945   12.2613  -14.0950 H   0  0  0  0  0  0  0  0  0  0  0  0
   -8.0938   10.5530   -7.5887 H   0  0  0  0  0  0  0  0  0  0  0  0
   -7.3851    8.9027   -7.5575 H   0  0  0  0  0  0  0  0  0  0  0  0
   -4.1959   12.8707  -10.8602 H   0  0  0  0  0  0  0  0  0  0  0  0
   -2.6173   14.5676  -10.8136 H   0  0  0  0  0  0  0  0  0  0  0  0
   -3.0815   14.8991  -12.5168 H   0  0  0  0  0  0  0  0  0  0  0  0
   -3.9723   15.6908  -11.1728 H   0  0  0  0  0  0  0  0  0  0  0  0
   -6.7323   12.3219   -6.9127 H   0  0  0  0  0  0  0  0  0  0  0  0
   -2.6549    9.7395   -8.0568 H   0  0  0  0  0  0  0  0  0  0  0  0
   -4.8895    8.7861   -8.5049 H   0  0  0  0  0  0  0  0  0  0  0  0
   -3.6711   15.4833   -6.5034 H   0  0  0  0  0  0  0  0  0  0  0  0
   -2.6532   14.1872   -7.2178 H   0  0  0  0  0  0  0  0  0  0  0  0
   -4.1486   14.7205   -8.0580 H   0  0  0  0  0  0  0  0  0  0  0  0
   -0.1739   12.3445   -7.3623 H   0  0  0  0  0  0  0  0  0  0  0  0
   -0.8764   10.7233   -7.6856 H   0  0  0  0  0  0  0  0  0  0  0  0
   -1.2447   12.0969   -8.7830 H   0  0  0  0  0  0  0  0  0  0  0  0
  1  2  1  0  0  0  0
  1  4  2  0  0  0  0
  1 13  1  0  0  0  0
  2  6  1  0  0  0  0
  3  4  1  0  0  0  0
  3  5  2  0  0  0  0
  5  6  1  0  0  0  0
  5  9  1  0  0  0  0
  6  7  2  0  0  0  0
  7  8  1  0  0  0  0
  7 10  1  0  0  0  0
  8  9  2  0  0  0  0
 10 15  1  0  0  0  0
 11 12  1  0  0  0  0
 11 13  1  0  0  0  0
 13 14  2  0  0  0  0
 15 16  2  0  0  0  0
 15 20  1  0  0  0  0
 16 17  1  0  0  0  0
 17 18  2  0  0  0  0
 17 21  1  0  0  0  0
 18 19  1  0  0  0  0
 18 23  1  0  0  0  0
 19 20  2  0  0  0  0
 21 22  1  0  0  0  0
 23 24  1  0  0  0  0
  2 25  1  0  0  0  0
  2 26  1  0  0  0  0
  3 27  1  0  0  0  0
  4 28  1  0  0  0  0
 10 29  1  0  0  0  0
 10 30  1  0  0  0  0
 11 31  1  0  0  0  0
 12 32  1  0  0  0  0
 12 33  1  0  0  0  0
 12 34  1  0  0  0  0
 16 35  1  0  0  0  0
 19 36  1  0  0  0  0
 20 37  1  0  0  0  0
 22 38  1  0  0  0  0
 22 39  1  0  0  0  0
 22 40  1  0  0  0  0
 24 41  1  0  0  0  0
 24 42  1  0  0  0  0
 24 43  1  0  0  0  0
M  END
> <Name>
15

> <IC50[uM]>
2.5

$$$$
15
  -OEChem-05192314333D
 Structure written by MMmdl.
 43 45  0     1  0  0  0  0  0999 V2000
   -6.3730   12.3647  -12.0124 C   0  0  0  0  0  0  0  0  0  0  0  0
   -6.5249   11.8167  -10.7375 C   0  0  0  0  0  0  0  0  0  0  0  0
   -7.7225   10.5819  -13.0270 C   0  0  0  0  0  0  0  0  0  0  0  0
   -6.9871   11.7813  -13.1320 C   0  0  0  0  0  0  0  0  0  0  0  0
   -7.8205   10.0150  -11.7538 C   0  0  0  0  0  0  0  0  0  0  0  0
   -7.2514   10.6217  -10.6093 C   0  0  3  0  0  0  0  0  0  0  0  0
   -7.6113    9.7463   -9.5119 C   0  0  0  0  0  0  0  0  0  0  0  0
   -8.2838    8.7282   -9.9768 N   0  0  0  0  0  0  0  0  0  0  0  0
   -8.4166    8.8609  -11.2984 N   0  0  0  0  0  0  0  0  0  0  0  0
   -7.3282    9.8959   -8.0269 C   0  0  0  0  0  0  0  0  0  0  0  0
   -4.4004   13.6489  -11.4541 N   0  0  0  0  0  0  0  0  0  0  0  0
   -3.4592   14.7715  -11.4916 C   0  0  0  0  0  0  0  0  0  0  0  0
   -5.5363   13.6231  -12.1917 C   0  0  0  0  0  0  0  0  0  0  0  0
   -5.8861   14.5056  -12.9557 O   0  0  0  0  0  0  0  0  0  0  0  0
   -5.9554   10.4909   -7.7390 C   0  0  0  0  0  0  0  0  0  0  0  0
   -5.8447   11.7612   -7.1661 C   0  0  0  0  0  0  0  0  0  0  0  0
   -4.5697   12.3054   -6.9214 C   0  0  0  0  0  0  0  0  0  0  0  0
   -3.4308   11.5801   -7.2259 C   0  0  0  0  0  0  0  0  0  0  0  0
   -3.5429   10.3015   -7.8076 C   0  0  0  0  0  0  0  0  0  0  0  0
   -4.8018    9.7661   -8.0596 C   0  0  0  0  0  0  0  0  0  0  0  0
   -4.4352   13.5609   -6.3638 O   0  0  0  0  0  0  0  0  0  0  0  0
   -3.6839   14.5445   -7.0766 C   0  0  0  0  0  0  0  0  0  0  0  0
   -2.1928   12.1397   -6.9410 O   0  0  0  0  0  0  0  0  0  0  0  0
   -1.0568   11.8071   -7.7386 C   0  0  0  0  0  0  0  0  0  0  0  0
   -6.0949   12.2992   -9.8722 H   0  0  0  0  0  0  0  0  0  0  0  0
   -8.1868   10.1246  -13.8882 H   0  0  0  0  0  0  0  0  0  0  0  0
   -6.8945   12.2613  -14.0950 H   0  0  0  0  0  0  0  0  0  0  0  0
   -8.1752   11.1984  -10.4540 H   0  0  0  0  0  0  0  0  0  0  0  0
   -8.6418    7.9709   -9.4306 H   0  0  0  0  0  0  0  0  0  0  0  0
   -8.0276    9.6101   -7.2552 H   0  0  0  0  0  0  0  0  0  0  0  0
   -4.1959   12.8707  -10.8602 H   0  0  0  0  0  0  0  0  0  0  0  0
   -2.6173   14.5676  -10.8136 H   0  0  0  0  0  0  0  0  0  0  0  0
   -3.0815   14.8991  -12.5168 H   0  0  0  0  0  0  0  0  0  0  0  0
   -3.9723   15.6908  -11.1728 H   0  0  0  0  0  0  0  0  0  0  0  0
   -6.7323   12.3219   -6.9127 H   0  0  0  0  0  0  0  0  0  0  0  0
   -2.6549    9.7395   -8.0568 H   0  0  0  0  0  0  0  0  0  0  0  0
   -4.8895    8.7861   -8.5049 H   0  0  0  0  0  0  0  0  0  0  0  0
   -3.6711   15.4833   -6.5034 H   0  0  0  0  0  0  0  0  0  0  0  0
   -2.6532   14.1872   -7.2178 H   0  0  0  0  0  0  0  0  0  0  0  0
   -4.1486   14.7205   -8.0580 H   0  0  0  0  0  0  0  0  0  0  0  0
   -0.1739   12.3445   -7.3623 H   0  0  0  0  0  0  0  0  0  0  0  0
   -0.8764   10.7233   -7.6856 H   0  0  0  0  0  0  0  0  0  0  0  0
   -1.2447   12.0969   -8.7830 H   0  0  0  0  0  0  0  0  0  0  0  0
  1  2  2  0  0  0  0
  1  4  1  0  0  0  0
  1 13  1  0  0  0  0
  2  6  1  0  0  0  0
  3  4  2  0  0  0  0
  3  5  1  0  0  0  0
  5  6  1  0  0  0  0
  5  9  2  0  0  0  0
  6  7  1  0  0  0  0
  7  8  1  0  0  0  0
  7 10  2  3  0  0  0
  8  9  1  0  0  0  0
 10 15  1  0  0  0  0
 11 12  1  0  0  0  0
 11 13  1  0  0  0  0
 13 14  2  0  0  0  0
 15 16  2  0  0  0  0
 15 20  1  0  0  0  0
 16 17  1  0  0  0  0
 17 18  2  0  0  0  0
 17 21  1  0  0  0  0
 18 19  1  0  0  0  0
 18 23  1  0  0  0  0
 19 20  2  0  0  0  0
 21 22  1  0  0  0  0
 23 24  1  0  0  0  0
  2 25  1  0  0  0  0
  3 26  1  0  0  0  0
  4 27  1  0  0  0  0
  6 28  1  0  0  0  0
  8 29  1  0  0  0  0
 10 30  1  0  0  0  0
 11 31  1  0  0  0  0
 12 32  1  0  0  0  0
 12 33  1  0  0  0  0
 12 34  1  0  0  0  0
 16 35  1  0  0  0  0
 19 36  1  0  0  0  0
 20 37  1  0  0  0  0
 22 38  1  0  0  0  0
 22 39  1  0  0  0  0
 22 40  1  0  0  0  0
 24 41  1  0  0  0  0
 24 42  1  0  0  0  0
 24 43  1  0  0  0  0
M  END
> <Name>
15

> <IC50[uM]>
2.5

$$$$
15
  -OEChem-05192314333D
 Structure written by MMmdl.
 43 45  0     1  0  0  0  0  0999 V2000
   -6.3730   12.3647  -12.0124 C   0  0  3  0  0  0  0  0  0  0  0  0
   -6.5249   11.8167  -10.7375 C   0  0  0  0  0  0  0  0  0  0  0  0
   -7.7225   10.5819  -13.0270 C   0  0  0  0  0  0  0  0  0  0  0  0
   -6.9871   11.7813  -13.1320 C   0  0  0  0  0  0  0  0  0  0  0  0
   -7.8205   10.0150  -11.7538 C   0  0  3  0  0  0  0  0  0  0  0  0
   -7.2514   10.6217  -10.6093 C   0  0  0  0  0  0  0  0  0  0  0  0
   -7.6113    9.7463   -9.5119 C   0  0  0  0  0  0  0  0  0  0  0  0
   -8.2838    8.7282   -9.9768 N   0  0  0  0  0  0  0  0  0  0  0  0
   -8.4166    8.8609  -11.2984 N   0  0  0  0  0  0  0  0  0  0  0  0
   -7.3282    9.8959   -8.0269 C   0  0  0  0  0  0  0  0  0  0  0  0
   -4.4004   13.6489  -11.4541 N   0  0  0  0  0  0  0  0  0  0  0  0
   -3.4592   14.7715  -11.4916 C   0  0  0  0  0  0  0  0  0  0  0  0
   -5.5363   13.6231  -12.1917 C   0  0  0  0  0  0  0  0  0  0  0  0
   -5.8861   14.5056  -12.9557 O   0  0  0  0  0  0  0  0  0  0  0  0
   -5.9554   10.4909   -7.7390 C   0  0  0  0  0  0  0  0  0  0  0  0
   -5.8447   11.7612   -7.1661 C   0  0  0  0  0  0  0  0  0  0  0  0
   -4.5697   12.3054   -6.9214 C   0  0  0  0  0  0  0  0  0  0  0  0
   -3.4308   11.5801   -7.2259 C   0  0  0  0  0  0  0  0  0  0  0  0
   -3.5429   10.3015   -7.8076 C   0  0  0  0  0  0  0  0  0  0  0  0
   -4.8018    9.7661   -8.0596 C   0  0  0  0  0  0  0  0  0  0  0  0
   -4.4352   13.5609   -6.3638 O   0  0  0  0  0  0  0  0  0  0  0  0
   -3.6839   14.5445   -7.0766 C   0  0  0  0  0  0  0  0  0  0  0  0
   -2.1928   12.1397   -6.9410 O   0  0  0  0  0  0  0  0  0  0  0  0
   -1.0568   11.8071   -7.7386 C   0  0  0  0  0  0  0  0  0  0  0  0
   -5.4795   11.7442  -12.1757 H   0  0  0  0  0  0  0  0  0  0  0  0
   -6.0949   12.2992   -9.8722 H   0  0  0  0  0  0  0  0  0  0  0  0
   -8.1868   10.1246  -13.8882 H   0  0  0  0  0  0  0  0  0  0  0  0
   -6.8945   12.2613  -14.0950 H   0  0  0  0  0  0  0  0  0  0  0  0
   -6.8846    9.4635  -11.9271 H   0  0  0  0  0  0  0  0  0  0  0  0
   -8.0276    9.6101   -7.2552 H   0  0  0  0  0  0  0  0  0  0  0  0
   -2.6173   14.5676  -10.8136 H   0  0  0  0  0  0  0  0  0  0  0  0
   -3.0815   14.8991  -12.5168 H   0  0  0  0  0  0  0  0  0  0  0  0
   -3.9723   15.6908  -11.1728 H   0  0  0  0  0  0  0  0  0  0  0  0
   -5.2484   15.2095  -12.9404 H   0  0  0  0  0  0  0  0  0  0  0  0
   -6.7323   12.3219   -6.9127 H   0  0  0  0  0  0  0  0  0  0  0  0
   -2.6549    9.7395   -8.0568 H   0  0  0  0  0  0  0  0  0  0  0  0
   -4.8895    8.7861   -8.5049 H   0  0  0  0  0  0  0  0  0  0  0  0
   -3.6711   15.4833   -6.5034 H   0  0  0  0  0  0  0  0  0  0  0  0
   -2.6532   14.1872   -7.2178 H   0  0  0  0  0  0  0  0  0  0  0  0
   -4.1486   14.7205   -8.0580 H   0  0  0  0  0  0  0  0  0  0  0  0
   -0.1739   12.3445   -7.3623 H   0  0  0  0  0  0  0  0  0  0  0  0
   -0.8764   10.7233   -7.6856 H   0  0  0  0  0  0  0  0  0  0  0  0
   -1.2447   12.0969   -8.7830 H   0  0  0  0  0  0  0  0  0  0  0  0
  1  2  1  0  0  0  0
  1  4  1  0  0  0  0
  1 13  1  0  0  0  0
  2  6  2  0  0  0  0
  3  4  2  0  0  0  0
  3  5  1  0  0  0  0
  5  6  1  0  0  0  0
  5  9  1  0  0  0  0
  6  7  1  0  0  0  0
  7  8  1  0  0  0  0
  7 10  2  3  0  0  0
  8  9  2  0  0  0  0
 10 15  1  0  0  0  0
 11 12  1  0  0  0  0
 11 13  2  0  0  0  0
 13 14  1  0  0  0  0
 15 16  2  0  0  0  0
 15 20  1  0  0  0  0
 16 17  1  0  0  0  0
 17 18  2  0  0  0  0
 17 21  1  0  0  0  0
 18 19  1  0  0  0  0
 18 23  1  0  0  0  0
 19 20  2  0  0  0  0
 21 22  1  0  0  0  0
 23 24  1  0  0  0  0
  1 25  1  0  0  0  0
  2 26  1  0  0  0  0
  3 27  1  0  0  0  0
  4 28  1  0  0  0  0
  5 29  1  0  0  0  0
 10 30  1  0  0  0  0
 12 31  1  0  0  0  0
 12 32  1  0  0  0  0
 12 33  1  0  0  0  0
 14 34  1  0  0  0  0
 16 35  1  0  0  0  0
 19 36  1  0  0  0  0
 20 37  1  0  0  0  0
 22 38  1  0  0  0  0
 22 39  1  0  0  0  0
 22 40  1  0  0  0  0
 24 41  1  0  0  0  0
 24 42  1  0  0  0  0
 24 43  1  0  0  0  0
M  END
> <Name>
15

> <IC50[uM]>
2.5

$$$$
15
  -OEChem-05192314333D
 Structure written by MMmdl.
 43 45  0     1  0  0  0  0  0999 V2000
   -6.3730   12.3647  -12.0124 C   0  0  0  0  0  0  0  0  0  0  0  0
   -6.5249   11.8167  -10.7375 C   0  0  0  0  0  0  0  0  0  0  0  0
   -7.7225   10.5819  -13.0270 C   0  0  0  0  0  0  0  0  0  0  0  0
   -6.9871   11.7813  -13.1320 C   0  0  0  0  0  0  0  0  0  0  0  0
   -7.8205   10.0150  -11.7538 C   0  0  3  0  0  0  0  0  0  0  0  0
   -7.2514   10.6217  -10.6093 C   0  0  3  0  0  0  0  0  0  0  0  0
   -7.6113    9.7463   -9.5119 C   0  0  0  0  0  0  0  0  0  0  0  0
   -8.2838    8.7282   -9.9768 N   0  0  0  0  0  0  0  0  0  0  0  0
   -8.4166    8.8609  -11.2984 N   0  0  0  0  0  0  0  0  0  0  0  0
   -7.3282    9.8959   -8.0269 C   0  0  0  0  0  0  0  0  0  0  0  0
   -4.4004   13.6489  -11.4541 N   0  0  0  0  0  0  0  0  0  0  0  0
   -3.4592   14.7715  -11.4916 C   0  0  0  0  0  0  0  0  0  0  0  0
   -5.5363   13.6231  -12.1917 C   0  0  0  0  0  0  0  0  0  0  0  0
   -5.8861   14.5056  -12.9557 O   0  0  0  0  0  0  0  0  0  0  0  0
   -5.9554   10.4909   -7.7390 C   0  0  0  0  0  0  0  0  0  0  0  0
   -5.8447   11.7612   -7.1661 C   0  0  0  0  0  0  0  0  0  0  0  0
   -4.5697   12.3054   -6.9214 C   0  0  0  0  0  0  0  0  0  0  0  0
   -3.4308   11.5801   -7.2259 C   0  0  0  0  0  0  0  0  0  0  0  0
   -3.5429   10.3015   -7.8076 C   0  0  0  0  0  0  0  0  0  0  0  0
   -4.8018    9.7661   -8.0596 C   0  0  0  0  0  0  0  0  0  0  0  0
   -4.4352   13.5609   -6.3638 O   0  0  0  0  0  0  0  0  0  0  0  0
   -3.6839   14.5445   -7.0766 C   0  0  0  0  0  0  0  0  0  0  0  0
   -2.1928   12.1397   -6.9410 O   0  0  0  0  0  0  0  0  0  0  0  0
   -1.0568   11.8071   -7.7386 C   0  0  0  0  0  0  0  0  0  0  0  0
   -6.0949   12.2992   -9.8722 H   0  0  0  0  0  0  0  0  0  0  0  0
   -8.1868   10.1246  -13.8882 H   0  0  0  0  0  0  0  0  0  0  0  0
   -6.8945   12.2613  -14.0950 H   0  0  0  0  0  0  0  0  0  0  0  0
   -6.8846    9.4635  -11.9271 H   0  0  0  0  0  0  0  0  0  0  0  0
   -8.1752   11.1984  -10.4540 H   0  0  0  0  0  0  0  0  0  0  0  0
   -8.0276    9.6101   -7.2552 H   0  0  0  0  0  0  0  0  0  0  0  0
   -2.6173   14.5676  -10.8136 H   0  0  0  0  0  0  0  0  0  0  0  0
   -3.0815   14.8991  -12.5168 H   0  0  0  0  0  0  0  0  0  0  0  0
   -3.9723   15.6908  -11.1728 H   0  0  0  0  0  0  0  0  0  0  0  0
   -5.2484   15.2095  -12.9404 H   0  0  0  0  0  0  0  0  0  0  0  0
   -6.7323   12.3219   -6.9127 H   0  0  0  0  0  0  0  0  0  0  0  0
   -2.6549    9.7395   -8.0568 H   0  0  0  0  0  0  0  0  0  0  0  0
   -4.8895    8.7861   -8.5049 H   0  0  0  0  0  0  0  0  0  0  0  0
   -3.6711   15.4833   -6.5034 H   0  0  0  0  0  0  0  0  0  0  0  0
   -2.6532   14.1872   -7.2178 H   0  0  0  0  0  0  0  0  0  0  0  0
   -4.1486   14.7205   -8.0580 H   0  0  0  0  0  0  0  0  0  0  0  0
   -0.1739   12.3445   -7.3623 H   0  0  0  0  0  0  0  0  0  0  0  0
   -0.8764   10.7233   -7.6856 H   0  0  0  0  0  0  0  0  0  0  0  0
   -1.2447   12.0969   -8.7830 H   0  0  0  0  0  0  0  0  0  0  0  0
  1  2  2  0  0  0  0
  1  4  1  0  0  0  0
  1 13  1  0  0  0  0
  2  6  1  0  0  0  0
  3  4  2  0  0  0  0
  3  5  1  0  0  0  0
  5  6  1  0  0  0  0
  5  9  1  0  0  0  0
  6  7  1  0  0  0  0
  7  8  1  0  0  0  0
  7 10  2  3  0  0  0
  8  9  2  0  0  0  0
 10 15  1  0  0  0  0
 11 12  1  0  0  0  0
 11 13  2  0  0  0  0
 13 14  1  0  0  0  0
 15 16  2  0  0  0  0
 15 20  1  0  0  0  0
 16 17  1  0  0  0  0
 17 18  2  0  0  0  0
 17 21  1  0  0  0  0
 18 19  1  0  0  0  0
 18 23  1  0  0  0  0
 19 20  2  0  0  0  0
 21 22  1  0  0  0  0
 23 24  1  0  0  0  0
  2 25  1  0  0  0  0
  3 26  1  0  0  0  0
  4 27  1  0  0  0  0
  5 28  1  0  0  0  0
  6 29  1  0  0  0  0
 10 30  1  0  0  0  0
 12 31  1  0  0  0  0
 12 32  1  0  0  0  0
 12 33  1  0  0  0  0
 14 34  1  0  0  0  0
 16 35  1  0  0  0  0
 19 36  1  0  0  0  0
 20 37  1  0  0  0  0
 22 38  1  0  0  0  0
 22 39  1  0  0  0  0
 22 40  1  0  0  0  0
 24 41  1  0  0  0  0
 24 42  1  0  0  0  0
 24 43  1  0  0  0  0
M  END
> <Name>
15

> <IC50[uM]>
2.5

$$$$
15
  -OEChem-05192314333D
 Structure written by MMmdl.
 43 45  0     1  0  0  0  0  0999 V2000
   -6.3730   12.3647  -12.0124 C   0  0  0  0  0  0  0  0  0  0  0  0
   -6.5249   11.8167  -10.7375 C   0  0  0  0  0  0  0  0  0  0  0  0
   -7.7225   10.5819  -13.0270 C   0  0  0  0  0  0  0  0  0  0  0  0
   -6.9871   11.7813  -13.1320 C   0  0  0  0  0  0  0  0  0  0  0  0
   -7.8205   10.0150  -11.7538 C   0  0  0  0  0  0  0  0  0  0  0  0
   -7.2514   10.6217  -10.6093 C   0  0  0  0  0  0  0  0  0  0  0  0
   -7.6113    9.7463   -9.5119 C   0  0  0  0  0  0  0  0  0  0  0  0
   -8.2838    8.7282   -9.9768 N   0  0  0  0  0  0  0  0  0  0  0  0
   -8.4166    8.8609  -11.2984 N   0  0  0  0  0  0  0  0  0  0  0  0
   -7.3282    9.8959   -8.0269 C   0  0  0  0  0  0  0  0  0  0  0  0
   -4.4004   13.6489  -11.4541 N   0  0  0  0  0  0  0  0  0  0  0  0
   -3.4592   14.7715  -11.4916 C   0  0  0  0  0  0  0  0  0  0  0  0
   -5.5363   13.6231  -12.1917 C   0  0  0  0  0  0  0  0  0  0  0  0
   -5.8861   14.5056  -12.9557 O   0  0  0  0  0  0  0  0  0  0  0  0
   -5.9554   10.4909   -7.7390 C   0  0  3  0  0  0  0  0  0  0  0  0
   -5.8447   11.7612   -7.1661 C   0  0  0  0  0  0  0  0  0  0  0  0
   -4.5697   12.3054   -6.9214 C   0  0  0  0  0  0  0  0  0  0  0  0
   -3.4308   11.5801   -7.2259 C   0  0  3  0  0  0  0  0  0  0  0  0
   -3.5429   10.3015   -7.8076 C   0  0  0  0  0  0  0  0  0  0  0  0
   -4.8018    9.7661   -8.0596 C   0  0  0  0  0  0  0  0  0  0  0  0
   -4.4352   13.5609   -6.3638 O   0  0  0  0  0  0  0  0  0  0  0  0
   -3.6839   14.5445   -7.0766 C   0  0  0  0  0  0  0  0  0  0  0  0
   -2.1928   12.1397   -6.9410 O   0  0  0  0  0  0  0  0  0  0  0  0
   -1.0568   11.8071   -7.7386 C   0  0  0  0  0  0  0  0  0  0  0  0
   -6.0949   12.2992   -9.8722 H   0  0  0  0  0  0  0  0  0  0  0  0
   -8.1868   10.1246  -13.8882 H   0  0  0  0  0  0  0  0  0  0  0  0
   -6.8945   12.2613  -14.0950 H   0  0  0  0  0  0  0  0  0  0  0  0
   -8.0276    9.6101   -7.2552 H   0  0  0  0  0  0  0  0  0  0  0  0
   -2.6173   14.5676  -10.8136 H   0  0  0  0  0  0  0  0  0  0  0  0
   -3.0815   14.8991  -12.5168 H   0  0  0  0  0  0  0  0  0  0  0  0
   -3.9723   15.6908  -11.1728 H   0  0  0  0  0  0  0  0  0  0  0  0
   -5.2484   15.2095  -12.9404 H   0  0  0  0  0  0  0  0  0  0  0  0
   -5.9658   10.0368   -6.7372 H   0  0  0  0  0  0  0  0  0  0  0  0
   -6.7323   12.3219   -6.9127 H   0  0  0  0  0  0  0  0  0  0  0  0
   -3.4073   12.0349   -8.2272 H   0  0  0  0  0  0  0  0  0  0  0  0
   -2.6549    9.7395   -8.0568 H   0  0  0  0  0  0  0  0  0  0  0  0
   -4.8895    8.7861   -8.5049 H   0  0  0  0  0  0  0  0  0  0  0  0
   -3.6711   15.4833   -6.5034 H   0  0  0  0  0  0  0  0  0  0  0  0
   -2.6532   14.1872   -7.2178 H   0  0  0  0  0  0  0  0  0  0  0  0
   -4.1486   14.7205   -8.0580 H   0  0  0  0  0  0  0  0  0  0  0  0
   -0.1739   12.3445   -7.3623 H   0  0  0  0  0  0  0  0  0  0  0  0
   -0.8764   10.7233   -7.6856 H   0  0  0  0  0  0  0  0  0  0  0  0
   -1.2447   12.0969   -8.7830 H   0  0  0  0  0  0  0  0  0  0  0  0
  1  2  2  0  0  0  0
  1  4  1  0  0  0  0
  1 13  1  0  0  0  0
  2  6  1  0  0  0  0
  3  4  2  0  0  0  0
  3  5  1  0  0  0  0
  5  6  2  0  0  0  0
  5  9  1  0  0  0  0
  6  7  1  0  0  0  0
  7  8  1  0  0  0  0
  7 10  2  3  0  0  0
  8  9  2  0  0  0  0
 10 15  1  0  0  0  0
 11 12  1  0  0  0  0
 11 13  2  0  0  0  0
 13 14  1  0  0  0  0
 15 16  1  0  0  0  0
 15 20  1  0  0  0  0
 16 17  2  0  0  0  0
 17 18  1  0  0  0  0
 17 21  1  0  0  0  0
 18 19  1  0  0  0  0
 18 23  1  0  0  0  0
 19 20  2  0  0  0  0
 21 22  1  0  0  0  0
 23 24  1  0  0  0  0
  2 25  1  0  0  0  0
  3 26  1  0  0  0  0
  4 27  1  0  0  0  0
 10 28  1  0  0  0  0
 12 29  1  0  0  0  0
 12 30  1  0  0  0  0
 12 31  1  0  0  0  0
 14 32  1  0  0  0  0
 15 33  1  0  0  0  0
 16 34  1  0  0  0  0
 18 35  1  0  0  0  0
 19 36  1  0  0  0  0
 20 37  1  0  0  0  0
 22 38  1  0  0  0  0
 22 39  1  0  0  0  0
 22 40  1  0  0  0  0
 24 41  1  0  0  0  0
 24 42  1  0  0  0  0
 24 43  1  0  0  0  0
M  END
> <Name>
15

> <IC50[uM]>
2.5

$$$$
15
  -OEChem-05192314333D
 Structure written by MMmdl.
 43 45  0     1  0  0  0  0  0999 V2000
   -6.3730   12.3647  -12.0124 C   0  0  0  0  0  0  0  0  0  0  0  0
   -6.5249   11.8167  -10.7375 C   0  0  0  0  0  0  0  0  0  0  0  0
   -7.7225   10.5819  -13.0270 C   0  0  0  0  0  0  0  0  0  0  0  0
   -6.9871   11.7813  -13.1320 C   0  0  0  0  0  0  0  0  0  0  0  0
   -7.8205   10.0150  -11.7538 C   0  0  0  0  0  0  0  0  0  0  0  0
   -7.2514   10.6217  -10.6093 C   0  0  0  0  0  0  0  0  0  0  0  0
   -7.6113    9.7463   -9.5119 C   0  0  3  0  0  0  0  0  0  0  0  0
   -8.2838    8.7282   -9.9768 N   0  0  0  0  0  0  0  0  0  0  0  0
   -8.4166    8.8609  -11.2984 N   0  0  0  0  0  0  0  0  0  0  0  0
   -7.3282    9.8959   -8.0269 C   0  0  0  0  0  0  0  0  0  0  0  0
   -4.4004   13.6489  -11.4541 N   0  0  0  0  0  0  0  0  0  0  0  0
   -3.4592   14.7715  -11.4916 C   0  0  0  0  0  0  0  0  0  0  0  0
   -5.5363   13.6231  -12.1917 C   0  0  0  0  0  0  0  0  0  0  0  0
   -5.8861   14.5056  -12.9557 O   0  0  0  0  0  0  0  0  0  0  0  0
   -5.9554   10.4909   -7.7390 C   0  0  0  0  0  0  0  0  0  0  0  0
   -5.8447   11.7612   -7.1661 C   0  0  0  0  0  0  0  0  0  0  0  0
   -4.5697   12.3054   -6.9214 C   0  0  0  0  0  0  0  0  0  0  0  0
   -3.4308   11.5801   -7.2259 C   0  0  3  0  0  0  0  0  0  0  0  0
   -3.5429   10.3015   -7.8076 C   0  0  0  0  0  0  0  0  0  0  0  0
   -4.8018    9.7661   -8.0596 C   0  0  0  0  0  0  0  0  0  0  0  0
   -4.4352   13.5609   -6.3638 O   0  0  0  0  0  0  0  0  0  0  0  0
   -3.6839   14.5445   -7.0766 C   0  0  0  0  0  0  0  0  0  0  0  0
   -2.1928   12.1397   -6.9410 O   0  0  0  0  0  0  0  0  0  0  0  0
   -1.0568   11.8071   -7.7386 C   0  0  0  0  0  0  0  0  0  0  0  0
   -6.0949   12.2992   -9.8722 H   0  0  0  0  0  0  0  0  0  0  0  0
   -8.1868   10.1246  -13.8882 H   0  0  0  0  0  0  0  0  0  0  0  0
   -6.8945   12.2613  -14.0950 H   0  0  0  0  0  0  0  0  0  0  0  0
   -6.6707    9.1906   -9.6401 H   0  0  0  0  0  0  0  0  0  0  0  0
   -8.0276    9.6101   -7.2552 H   0  0  0  0  0  0  0  0  0  0  0  0
   -2.6173   14.5676  -10.8136 H   0  0  0  0  0  0  0  0  0  0  0  0
   -3.0815   14.8991  -12.5168 H   0  0  0  0  0  0  0  0  0  0  0  0
   -3.9723   15.6908  -11.1728 H   0  0  0  0  0  0  0  0  0  0  0  0
   -5.2484   15.2095  -12.9404 H   0  0  0  0  0  0  0  0  0  0  0  0
   -6.7323   12.3219   -6.9127 H   0  0  0  0  0  0  0  0  0  0  0  0
   -3.4073   12.0349   -8.2272 H   0  0  0  0  0  0  0  0  0  0  0  0
   -2.6549    9.7395   -8.0568 H   0  0  0  0  0  0  0  0  0  0  0  0
   -4.8895    8.7861   -8.5049 H   0  0  0  0  0  0  0  0  0  0  0  0
   -3.6711   15.4833   -6.5034 H   0  0  0  0  0  0  0  0  0  0  0  0
   -2.6532   14.1872   -7.2178 H   0  0  0  0  0  0  0  0  0  0  0  0
   -4.1486   14.7205   -8.0580 H   0  0  0  0  0  0  0  0  0  0  0  0
   -0.1739   12.3445   -7.3623 H   0  0  0  0  0  0  0  0  0  0  0  0
   -0.8764   10.7233   -7.6856 H   0  0  0  0  0  0  0  0  0  0  0  0
   -1.2447   12.0969   -8.7830 H   0  0  0  0  0  0  0  0  0  0  0  0
  1  2  2  0  0  0  0
  1  4  1  0  0  0  0
  1 13  1  0  0  0  0
  2  6  1  0  0  0  0
  3  4  2  0  0  0  0
  3  5  1  0  0  0  0
  5  6  2  0  0  0  0
  5  9  1  0  0  0  0
  6  7  1  0  0  0  0
  7  8  1  0  0  0  0
  7 10  1  0  0  0  0
  8  9  2  0  0  0  0
 10 15  2  3  0  0  0
 11 12  1  0  0  0  0
 11 13  2  0  0  0  0
 13 14  1  0  0  0  0
 15 16  1  0  0  0  0
 15 20  1  0  0  0  0
 16 17  2  0  0  0  0
 17 18  1  0  0  0  0
 17 21  1  0  0  0  0
 18 19  1  0  0  0  0
 18 23  1  0  0  0  0
 19 20  2  0  0  0  0
 21 22  1  0  0  0  0
 23 24  1  0  0  0  0
  2 25  1  0  0  0  0
  3 26  1  0  0  0  0
  4 27  1  0  0  0  0
  7 28  1  0  0  0  0
 10 29  1  0  0  0  0
 12 30  1  0  0  0  0
 12 31  1  0  0  0  0
 12 32  1  0  0  0  0
 14 33  1  0  0  0  0
 16 34  1  0  0  0  0
 18 35  1  0  0  0  0
 19 36  1  0  0  0  0
 20 37  1  0  0  0  0
 22 38  1  0  0  0  0
 22 39  1  0  0  0  0
 22 40  1  0  0  0  0
 24 41  1  0  0  0  0
 24 42  1  0  0  0  0
 24 43  1  0  0  0  0
M  END
> <Name>
15

> <IC50[uM]>
2.5

$$$$
15
  -OEChem-05192314333D
 Structure written by MMmdl.
 43 45  0     1  0  0  0  0  0999 V2000
   -6.3730   12.3647  -12.0124 C   0  0  0  0  0  0  0  0  0  0  0  0
   -6.5249   11.8167  -10.7375 C   0  0  0  0  0  0  0  0  0  0  0  0
   -7.7225   10.5819  -13.0270 C   0  0  0  0  0  0  0  0  0  0  0  0
   -6.9871   11.7813  -13.1320 C   0  0  0  0  0  0  0  0  0  0  0  0
   -7.8205   10.0150  -11.7538 C   0  0  0  0  0  0  0  0  0  0  0  0
   -7.2514   10.6217  -10.6093 C   0  0  0  0  0  0  0  0  0  0  0  0
   -7.6113    9.7463   -9.5119 C   0  0  0  0  0  0  0  0  0  0  0  0
   -8.2838    8.7282   -9.9768 N   0  0  0  0  0  0  0  0  0  0  0  0
   -8.4166    8.8609  -11.2984 N   0  0  0  0  0  0  0  0  0  0  0  0
   -7.3282    9.8959   -8.0269 C   0  0  0  0  0  0  0  0  0  0  0  0
   -4.4004   13.6489  -11.4541 N   0  0  0  0  0  0  0  0  0  0  0  0
   -3.4592   14.7715  -11.4916 C   0  0  0  0  0  0  0  0  0  0  0  0
   -5.5363   13.6231  -12.1917 C   0  0  0  0  0  0  0  0  0  0  0  0
   -5.8861   14.5056  -12.9557 O   0  0  0  0  0  0  0  0  0  0  0  0
   -5.9554   10.4909   -7.7390 C   0  0  0  0  0  0  0  0  0  0  0  0
   -5.8447   11.7612   -7.1661 C   0  0  0  0  0  0  0  0  0  0  0  0
   -4.5697   12.3054   -6.9214 C   0  0  3  0  0  0  0  0  0  0  0  0
   -3.4308   11.5801   -7.2259 C   0  0  3  0  0  0  0  0  0  0  0  0
   -3.5429   10.3015   -7.8076 C   0  0  0  0  0  0  0  0  0  0  0  0
   -4.8018    9.7661   -8.0596 C   0  0  0  0  0  0  0  0  0  0  0  0
   -4.4352   13.5609   -6.3638 O   0  0  0  0  0  0  0  0  0  0  0  0
   -3.6839   14.5445   -7.0766 C   0  0  0  0  0  0  0  0  0  0  0  0
   -2.1928   12.1397   -6.9410 O   0  0  0  0  0  0  0  0  0  0  0  0
   -1.0568   11.8071   -7.7386 C   0  0  0  0  0  0  0  0  0  0  0  0
   -6.0949   12.2992   -9.8722 H   0  0  0  0  0  0  0  0  0  0  0  0
   -8.1868   10.1246  -13.8882 H   0  0  0  0  0  0  0  0  0  0  0  0
   -6.8945   12.2613  -14.0950 H   0  0  0  0  0  0  0  0  0  0  0  0
   -8.0276    9.6101   -7.2552 H   0  0  0  0  0  0  0  0  0  0  0  0
   -2.6173   14.5676  -10.8136 H   0  0  0  0  0  0  0  0  0  0  0  0
   -3.0815   14.8991  -12.5168 H   0  0  0  0  0  0  0  0  0  0  0  0
   -3.9723   15.6908  -11.1728 H   0  0  0  0  0  0  0  0  0  0  0  0
   -5.2484   15.2095  -12.9404 H   0  0  0  0  0  0  0  0  0  0  0  0
   -6.7323   12.3219   -6.9127 H   0  0  0  0  0  0  0  0  0  0  0  0
   -4.5615   12.7479   -7.9284 H   0  0  0  0  0  0  0  0  0  0  0  0
   -3.4073   12.0349   -8.2272 H   0  0  0  0  0  0  0  0  0  0  0  0
   -2.6549    9.7395   -8.0568 H   0  0  0  0  0  0  0  0  0  0  0  0
   -4.8895    8.7861   -8.5049 H   0  0  0  0  0  0  0  0  0  0  0  0
   -3.6711   15.4833   -6.5034 H   0  0  0  0  0  0  0  0  0  0  0  0
   -2.6532   14.1872   -7.2178 H   0  0  0  0  0  0  0  0  0  0  0  0
   -4.1486   14.7205   -8.0580 H   0  0  0  0  0  0  0  0  0  0  0  0
   -0.1739   12.3445   -7.3623 H   0  0  0  0  0  0  0  0  0  0  0  0
   -0.8764   10.7233   -7.6856 H   0  0  0  0  0  0  0  0  0  0  0  0
   -1.2447   12.0969   -8.7830 H   0  0  0  0  0  0  0  0  0  0  0  0
  1  2  2  0  0  0  0
  1  4  1  0  0  0  0
  1 13  1  0  0  0  0
  2  6  1  0  0  0  0
  3  4  2  0  0  0  0
  3  5  1  0  0  0  0
  5  6  2  0  0  0  0
  5  9  1  0  0  0  0
  6  7  1  0  0  0  0
  7  8  1  0  0  0  0
  7 10  2  3  0  0  0
  8  9  2  0  0  0  0
 10 15  1  0  0  0  0
 11 12  1  0  0  0  0
 11 13  2  0  0  0  0
 13 14  1  0  0  0  0
 15 16  2  0  0  0  0
 15 20  1  0  0  0  0
 16 17  1  0  0  0  0
 17 18  1  0  0  0  0
 17 21  1  0  0  0  0
 18 19  1  0  0  0  0
 18 23  1  0  0  0  0
 19 20  2  0  0  0  0
 21 22  1  0  0  0  0
 23 24  1  0  0  0  0
  2 25  1  0  0  0  0
  3 26  1  0  0  0  0
  4 27  1  0  0  0  0
 10 28  1  0  0  0  0
 12 29  1  0  0  0  0
 12 30  1  0  0  0  0
 12 31  1  0  0  0  0
 14 32  1  0  0  0  0
 16 33  1  0  0  0  0
 17 34  1  0  0  0  0
 18 35  1  0  0  0  0
 19 36  1  0  0  0  0
 20 37  1  0  0  0  0
 22 38  1  0  0  0  0
 22 39  1  0  0  0  0
 22 40  1  0  0  0  0
 24 41  1  0  0  0  0
 24 42  1  0  0  0  0
 24 43  1  0  0  0  0
M  END
> <Name>
15

> <IC50[uM]>
2.5

$$$$
15
  -OEChem-05192314333D
 Structure written by MMmdl.
 43 45  0     1  0  0  0  0  0999 V2000
   -6.3730   12.3647  -12.0124 C   0  0  0  0  0  0  0  0  0  0  0  0
   -6.5249   11.8167  -10.7375 C   0  0  0  0  0  0  0  0  0  0  0  0
   -7.7225   10.5819  -13.0270 C   0  0  0  0  0  0  0  0  0  0  0  0
   -6.9871   11.7813  -13.1320 C   0  0  0  0  0  0  0  0  0  0  0  0
   -7.8205   10.0150  -11.7538 C   0  0  0  0  0  0  0  0  0  0  0  0
   -7.2514   10.6217  -10.6093 C   0  0  0  0  0  0  0  0  0  0  0  0
   -7.6113    9.7463   -9.5119 C   0  0  0  0  0  0  0  0  0  0  0  0
   -8.2838    8.7282   -9.9768 N   0  0  0  0  0  0  0  0  0  0  0  0
   -8.4166    8.8609  -11.2984 N   0  0  0  0  0  0  0  0  0  0  0  0
   -7.3282    9.8959   -8.0269 C   0  0  0  0  0  0  0  0  0  0  0  0
   -4.4004   13.6489  -11.4541 N   0  0  0  0  0  0  0  0  0  0  0  0
   -3.4592   14.7715  -11.4916 C   0  0  0  0  0  0  0  0  0  0  0  0
   -5.5363   13.6231  -12.1917 C   0  0  0  0  0  0  0  0  0  0  0  0
   -5.8861   14.5056  -12.9557 O   0  0  0  0  0  0  0  0  0  0  0  0
   -5.9554   10.4909   -7.7390 C   0  0  0  0  0  0  0  0  0  0  0  0
   -5.8447   11.7612   -7.1661 C   0  0  0  0  0  0  0  0  0  0  0  0
   -4.5697   12.3054   -6.9214 C   0  0  0  0  0  0  0  0  0  0  0  0
   -3.4308   11.5801   -7.2259 C   0  0  3  0  0  0  0  0  0  0  0  0
   -3.5429   10.3015   -7.8076 C   0  0  0  0  0  0  0  0  0  0  0  0
   -4.8018    9.7661   -8.0596 C   0  0  0  0  0  0  0  0  0  0  0  0
   -4.4352   13.5609   -6.3638 O   0  0  0  0  0  0  0  0  0  0  0  0
   -3.6839   14.5445   -7.0766 C   0  0  0  0  0  0  0  0  0  0  0  0
   -2.1928   12.1397   -6.9410 O   0  0  0  0  0  0  0  0  0  0  0  0
   -1.0568   11.8071   -7.7386 C   0  0  0  0  0  0  0  0  0  0  0  0
   -6.0949   12.2992   -9.8722 H   0  0  0  0  0  0  0  0  0  0  0  0
   -8.1868   10.1246  -13.8882 H   0  0  0  0  0  0  0  0  0  0  0  0
   -6.8945   12.2613  -14.0950 H   0  0  0  0  0  0  0  0  0  0  0  0
   -8.0276    9.6101   -7.2552 H   0  0  0  0  0  0  0  0  0  0  0  0
   -2.6173   14.5676  -10.8136 H   0  0  0  0  0  0  0  0  0  0  0  0
   -3.0815   14.8991  -12.5168 H   0  0  0  0  0  0  0  0  0  0  0  0
   -3.9723   15.6908  -11.1728 H   0  0  0  0  0  0  0  0  0  0  0  0
   -5.2484   15.2095  -12.9404 H   0  0  0  0  0  0  0  0  0  0  0  0
   -6.7323   12.3219   -6.9127 H   0  0  0  0  0  0  0  0  0  0  0  0
   -3.4073   12.0349   -8.2272 H   0  0  0  0  0  0  0  0  0  0  0  0
   -3.0151   10.3425   -8.7718 H   0  0  0  0  0  0  0  0  0  0  0  0
   -3.0264    9.5995   -7.1364 H   0  0  0  0  0  0  0  0  0  0  0  0
   -4.8895    8.7861   -8.5049 H   0  0  0  0  0  0  0  0  0  0  0  0
   -3.6711   15.4833   -6.5034 H   0  0  0  0  0  0  0  0  0  0  0  0
   -2.6532   14.1872   -7.2178 H   0  0  0  0  0  0  0  0  0  0  0  0
   -4.1486   14.7205   -8.0580 H   0  0  0  0  0  0  0  0  0  0  0  0
   -0.1739   12.3445   -7.3623 H   0  0  0  0  0  0  0  0  0  0  0  0
   -0.8764   10.7233   -7.6856 H   0  0  0  0  0  0  0  0  0  0  0  0
   -1.2447   12.0969   -8.7830 H   0  0  0  0  0  0  0  0  0  0  0  0
  1  2  2  0  0  0  0
  1  4  1  0  0  0  0
  1 13  1  0  0  0  0
  2  6  1  0  0  0  0
  3  4  2  0  0  0  0
  3  5  1  0  0  0  0
  5  6  2  0  0  0  0
  5  9  1  0  0  0  0
  6  7  1  0  0  0  0
  7  8  1  0  0  0  0
  7 10  2  3  0  0  0
  8  9  2  0  0  0  0
 10 15  1  0  0  0  0
 11 12  1  0  0  0  0
 11 13  2  0  0  0  0
 13 14  1  0  0  0  0
 15 16  1  0  0  0  0
 15 20  2  0  0  0  0
 16 17  2  0  0  0  0
 17 18  1  0  0  0  0
 17 21  1  0  0  0  0
 18 19  1  0  0  0  0
 18 23  1  0  0  0  0
 19 20  1  0  0  0  0
 21 22  1  0  0  0  0
 23 24  1  0  0  0  0
  2 25  1  0  0  0  0
  3 26  1  0  0  0  0
  4 27  1  0  0  0  0
 10 28  1  0  0  0  0
 12 29  1  0  0  0  0
 12 30  1  0  0  0  0
 12 31  1  0  0  0  0
 14 32  1  0  0  0  0
 16 33  1  0  0  0  0
 18 34  1  0  0  0  0
 19 35  1  0  0  0  0
 19 36  1  0  0  0  0
 20 37  1  0  0  0  0
 22 38  1  0  0  0  0
 22 39  1  0  0  0  0
 22 40  1  0  0  0  0
 24 41  1  0  0  0  0
 24 42  1  0  0  0  0
 24 43  1  0  0  0  0
M  END
> <Name>
15

> <IC50[uM]>
2.5

$$$$
15
  -OEChem-05192314333D
 Structure written by MMmdl.
 43 45  0     1  0  0  0  0  0999 V2000
   -6.3730   12.3647  -12.0124 C   0  0  0  0  0  0  0  0  0  0  0  0
   -6.5249   11.8167  -10.7375 C   0  0  0  0  0  0  0  0  0  0  0  0
   -7.7225   10.5819  -13.0270 C   0  0  0  0  0  0  0  0  0  0  0  0
   -6.9871   11.7813  -13.1320 C   0  0  0  0  0  0  0  0  0  0  0  0
   -7.8205   10.0150  -11.7538 C   0  0  3  0  0  0  0  0  0  0  0  0
   -7.2514   10.6217  -10.6093 C   0  0  0  0  0  0  0  0  0  0  0  0
   -7.6113    9.7463   -9.5119 C   0  0  0  0  0  0  0  0  0  0  0  0
   -8.2838    8.7282   -9.9768 N   0  0  0  0  0  0  0  0  0  0  0  0
   -8.4166    8.8609  -11.2984 N   0  0  0  0  0  0  0  0  0  0  0  0
   -7.3282    9.8959   -8.0269 C   0  0  0  0  0  0  0  0  0  0  0  0
   -4.4004   13.6489  -11.4541 N   0  0  0  0  0  0  0  0  0  0  0  0
   -3.4592   14.7715  -11.4916 C   0  0  0  0  0  0  0  0  0  0  0  0
   -5.5363   13.6231  -12.1917 C   0  0  0  0  0  0  0  0  0  0  0  0
   -5.8861   14.5056  -12.9557 O   0  0  0  0  0  0  0  0  0  0  0  0
   -5.9554   10.4909   -7.7390 C   0  0  0  0  0  0  0  0  0  0  0  0
   -5.8447   11.7612   -7.1661 C   0  0  0  0  0  0  0  0  0  0  0  0
   -4.5697   12.3054   -6.9214 C   0  0  0  0  0  0  0  0  0  0  0  0
   -3.4308   11.5801   -7.2259 C   0  0  0  0  0  0  0  0  0  0  0  0
   -3.5429   10.3015   -7.8076 C   0  0  0  0  0  0  0  0  0  0  0  0
   -4.8018    9.7661   -8.0596 C   0  0  0  0  0  0  0  0  0  0  0  0
   -4.4352   13.5609   -6.3638 O   0  0  0  0  0  0  0  0  0  0  0  0
   -3.6839   14.5445   -7.0766 C   0  0  0  0  0  0  0  0  0  0  0  0
   -2.1928   12.1397   -6.9410 O   0  0  0  0  0  0  0  0  0  0  0  0
   -1.0568   11.8071   -7.7386 C   0  0  0  0  0  0  0  0  0  0  0  0
   -6.0949   12.2992   -9.8722 H   0  0  0  0  0  0  0  0  0  0  0  0
   -8.7440   10.7853  -13.3808 H   0  0  0  0  0  0  0  0  0  0  0  0
   -7.2470    9.8407  -13.6861 H   0  0  0  0  0  0  0  0  0  0  0  0
   -6.8945   12.2613  -14.0950 H   0  0  0  0  0  0  0  0  0  0  0  0
   -6.8846    9.4635  -11.9271 H   0  0  0  0  0  0  0  0  0  0  0  0
   -8.0276    9.6101   -7.2552 H   0  0  0  0  0  0  0  0  0  0  0  0
   -2.6173   14.5676  -10.8136 H   0  0  0  0  0  0  0  0  0  0  0  0
   -3.0815   14.8991  -12.5168 H   0  0  0  0  0  0  0  0  0  0  0  0
   -3.9723   15.6908  -11.1728 H   0  0  0  0  0  0  0  0  0  0  0  0
   -5.2484   15.2095  -12.9404 H   0  0  0  0  0  0  0  0  0  0  0  0
   -6.7323   12.3219   -6.9127 H   0  0  0  0  0  0  0  0  0  0  0  0
   -2.6549    9.7395   -8.0568 H   0  0  0  0  0  0  0  0  0  0  0  0
   -4.8895    8.7861   -8.5049 H   0  0  0  0  0  0  0  0  0  0  0  0
   -3.6711   15.4833   -6.5034 H   0  0  0  0  0  0  0  0  0  0  0  0
   -2.6532   14.1872   -7.2178 H   0  0  0  0  0  0  0  0  0  0  0  0
   -4.1486   14.7205   -8.0580 H   0  0  0  0  0  0  0  0  0  0  0  0
   -0.1739   12.3445   -7.3623 H   0  0  0  0  0  0  0  0  0  0  0  0
   -0.8764   10.7233   -7.6856 H   0  0  0  0  0  0  0  0  0  0  0  0
   -1.2447   12.0969   -8.7830 H   0  0  0  0  0  0  0  0  0  0  0  0
  1  2  1  0  0  0  0
  1  4  2  0  0  0  0
  1 13  1  0  0  0  0
  2  6  2  0  0  0  0
  3  4  1  0  0  0  0
  3  5  1  0  0  0  0
  5  6  1  0  0  0  0
  5  9  1  0  0  0  0
  6  7  1  0  0  0  0
  7  8  1  0  0  0  0
  7 10  2  3  0  0  0
  8  9  2  0  0  0  0
 10 15  1  0  0  0  0
 11 12  1  0  0  0  0
 11 13  2  0  0  0  0
 13 14  1  0  0  0  0
 15 16  2  0  0  0  0
 15 20  1  0  0  0  0
 16 17  1  0  0  0  0
 17 18  2  0  0  0  0
 17 21  1  0  0  0  0
 18 19  1  0  0  0  0
 18 23  1  0  0  0  0
 19 20  2  0  0  0  0
 21 22  1  0  0  0  0
 23 24  1  0  0  0  0
  2 25  1  0  0  0  0
  3 26  1  0  0  0  0
  3 27  1  0  0  0  0
  4 28  1  0  0  0  0
  5 29  1  0  0  0  0
 10 30  1  0  0  0  0
 12 31  1  0  0  0  0
 12 32  1  0  0  0  0
 12 33  1  0  0  0  0
 14 34  1  0  0  0  0
 16 35  1  0  0  0  0
 19 36  1  0  0  0  0
 20 37  1  0  0  0  0
 22 38  1  0  0  0  0
 22 39  1  0  0  0  0
 22 40  1  0  0  0  0
 24 41  1  0  0  0  0
 24 42  1  0  0  0  0
 24 43  1  0  0  0  0
M  END
> <Name>
15

> <IC50[uM]>
2.5

$$$$
15
  -OEChem-05192314333D
 Structure written by MMmdl.
 43 45  0     1  0  0  0  0  0999 V2000
   -6.3730   12.3647  -12.0124 C   0  0  3  0  0  0  0  0  0  0  0  0
   -6.5249   11.8167  -10.7375 C   0  0  0  0  0  0  0  0  0  0  0  0
   -7.7225   10.5819  -13.0270 C   0  0  0  0  0  0  0  0  0  0  0  0
   -6.9871   11.7813  -13.1320 C   0  0  0  0  0  0  0  0  0  0  0  0
   -7.8205   10.0150  -11.7538 C   0  0  0  0  0  0  0  0  0  0  0  0
   -7.2514   10.6217  -10.6093 C   0  0  0  0  0  0  0  0  0  0  0  0
   -7.6113    9.7463   -9.5119 C   0  0  0  0  0  0  0  0  0  0  0  0
   -8.2838    8.7282   -9.9768 N   0  0  0  0  0  0  0  0  0  0  0  0
   -8.4166    8.8609  -11.2984 N   0  0  0  0  0  0  0  0  0  0  0  0
   -7.3282    9.8959   -8.0269 C   0  0  0  0  0  0  0  0  0  0  0  0
   -4.4004   13.6489  -11.4541 N   0  0  0  0  0  0  0  0  0  0  0  0
   -3.4592   14.7715  -11.4916 C   0  0  0  0  0  0  0  0  0  0  0  0
   -5.5363   13.6231  -12.1917 C   0  0  0  0  0  0  0  0  0  0  0  0
   -5.8861   14.5056  -12.9557 O   0  0  0  0  0  0  0  0  0  0  0  0
   -5.9554   10.4909   -7.7390 C   0  0  0  0  0  0  0  0  0  0  0  0
   -5.8447   11.7612   -7.1661 C   0  0  0  0  0  0  0  0  0  0  0  0
   -4.5697   12.3054   -6.9214 C   0  0  0  0  0  0  0  0  0  0  0  0
   -3.4308   11.5801   -7.2259 C   0  0  0  0  0  0  0  0  0  0  0  0
   -3.5429   10.3015   -7.8076 C   0  0  0  0  0  0  0  0  0  0  0  0
   -4.8018    9.7661   -8.0596 C   0  0  0  0  0  0  0  0  0  0  0  0
   -4.4352   13.5609   -6.3638 O   0  0  0  0  0  0  0  0  0  0  0  0
   -3.6839   14.5445   -7.0766 C   0  0  0  0  0  0  0  0  0  0  0  0
   -2.1928   12.1397   -6.9410 O   0  0  0  0  0  0  0  0  0  0  0  0
   -1.0568   11.8071   -7.7386 C   0  0  0  0  0  0  0  0  0  0  0  0
   -5.4795   11.7442  -12.1757 H   0  0  0  0  0  0  0  0  0  0  0  0
   -6.0949   12.2992   -9.8722 H   0  0  0  0  0  0  0  0  0  0  0  0
   -8.1868   10.1246  -13.8882 H   0  0  0  0  0  0  0  0  0  0  0  0
   -7.6791   12.5355  -13.5348 H   0  0  0  0  0  0  0  0  0  0  0  0
   -6.1862   11.5916  -13.8618 H   0  0  0  0  0  0  0  0  0  0  0  0
   -8.0276    9.6101   -7.2552 H   0  0  0  0  0  0  0  0  0  0  0  0
   -2.6173   14.5676  -10.8136 H   0  0  0  0  0  0  0  0  0  0  0  0
   -3.0815   14.8991  -12.5168 H   0  0  0  0  0  0  0  0  0  0  0  0
   -3.9723   15.6908  -11.1728 H   0  0  0  0  0  0  0  0  0  0  0  0
   -5.2484   15.2095  -12.9404 H   0  0  0  0  0  0  0  0  0  0  0  0
   -6.7323   12.3219   -6.9127 H   0  0  0  0  0  0  0  0  0  0  0  0
   -2.6549    9.7395   -8.0568 H   0  0  0  0  0  0  0  0  0  0  0  0
   -4.8895    8.7861   -8.5049 H   0  0  0  0  0  0  0  0  0  0  0  0
   -3.6711   15.4833   -6.5034 H   0  0  0  0  0  0  0  0  0  0  0  0
   -2.6532   14.1872   -7.2178 H   0  0  0  0  0  0  0  0  0  0  0  0
   -4.1486   14.7205   -8.0580 H   0  0  0  0  0  0  0  0  0  0  0  0
   -0.1739   12.3445   -7.3623 H   0  0  0  0  0  0  0  0  0  0  0  0
   -0.8764   10.7233   -7.6856 H   0  0  0  0  0  0  0  0  0  0  0  0
   -1.2447   12.0969   -8.7830 H   0  0  0  0  0  0  0  0  0  0  0  0
  1  2  1  0  0  0  0
  1  4  1  0  0  0  0
  1 13  1  0  0  0  0
  2  6  2  0  0  0  0
  3  4  1  0  0  0  0
  3  5  2  0  0  0  0
  5  6  1  0  0  0  0
  5  9  1  0  0  0  0
  6  7  1  0  0  0  0
  7  8  1  0  0  0  0
  7 10  2  3  0  0  0
  8  9  2  0  0  0  0
 10 15  1  0  0  0  0
 11 12  1  0  0  0  0
 11 13  2  0  0  0  0
 13 14  1  0  0  0  0
 15 16  2  0  0  0  0
 15 20  1  0  0  0  0
 16 17  1  0  0  0  0
 17 18  2  0  0  0  0
 17 21  1  0  0  0  0
 18 19  1  0  0  0  0
 18 23  1  0  0  0  0
 19 20  2  0  0  0  0
 21 22  1  0  0  0  0
 23 24  1  0  0  0  0
  1 25  1  0  0  0  0
  2 26  1  0  0  0  0
  3 27  1  0  0  0  0
  4 28  1  0  0  0  0
  4 29  1  0  0  0  0
 10 30  1  0  0  0  0
 12 31  1  0  0  0  0
 12 32  1  0  0  0  0
 12 33  1  0  0  0  0
 14 34  1  0  0  0  0
 16 35  1  0  0  0  0
 19 36  1  0  0  0  0
 20 37  1  0  0  0  0
 22 38  1  0  0  0  0
 22 39  1  0  0  0  0
 22 40  1  0  0  0  0
 24 41  1  0  0  0  0
 24 42  1  0  0  0  0
 24 43  1  0  0  0  0
M  END
> <Name>
15

> <IC50[uM]>
2.5

$$$$
15
  -OEChem-05192314333D
 Structure written by MMmdl.
 43 45  0     1  0  0  0  0  0999 V2000
   -6.3730   12.3647  -12.0124 C   0  0  0  0  0  0  0  0  0  0  0  0
   -6.5249   11.8167  -10.7375 C   0  0  0  0  0  0  0  0  0  0  0  0
   -7.7225   10.5819  -13.0270 C   0  0  0  0  0  0  0  0  0  0  0  0
   -6.9871   11.7813  -13.1320 C   0  0  0  0  0  0  0  0  0  0  0  0
   -7.8205   10.0150  -11.7538 C   0  0  0  0  0  0  0  0  0  0  0  0
   -7.2514   10.6217  -10.6093 C   0  0  3  0  0  0  0  0  0  0  0  0
   -7.6113    9.7463   -9.5119 C   0  0  0  0  0  0  0  0  0  0  0  0
   -8.2838    8.7282   -9.9768 N   0  0  0  0  0  0  0  0  0  0  0  0
   -8.4166    8.8609  -11.2984 N   0  0  0  0  0  0  0  0  0  0  0  0
   -7.3282    9.8959   -8.0269 C   0  0  0  0  0  0  0  0  0  0  0  0
   -4.4004   13.6489  -11.4541 N   0  0  0  0  0  0  0  0  0  0  0  0
   -3.4592   14.7715  -11.4916 C   0  0  0  0  0  0  0  0  0  0  0  0
   -5.5363   13.6231  -12.1917 C   0  0  0  0  0  0  0  0  0  0  0  0
   -5.8861   14.5056  -12.9557 O   0  0  0  0  0  0  0  0  0  0  0  0
   -5.9554   10.4909   -7.7390 C   0  0  0  0  0  0  0  0  0  0  0  0
   -5.8447   11.7612   -7.1661 C   0  0  0  0  0  0  0  0  0  0  0  0
   -4.5697   12.3054   -6.9214 C   0  0  0  0  0  0  0  0  0  0  0  0
   -3.4308   11.5801   -7.2259 C   0  0  0  0  0  0  0  0  0  0  0  0
   -3.5429   10.3015   -7.8076 C   0  0  0  0  0  0  0  0  0  0  0  0
   -4.8018    9.7661   -8.0596 C   0  0  0  0  0  0  0  0  0  0  0  0
   -4.4352   13.5609   -6.3638 O   0  0  0  0  0  0  0  0  0  0  0  0
   -3.6839   14.5445   -7.0766 C   0  0  0  0  0  0  0  0  0  0  0  0
   -2.1928   12.1397   -6.9410 O   0  0  0  0  0  0  0  0  0  0  0  0
   -1.0568   11.8071   -7.7386 C   0  0  0  0  0  0  0  0  0  0  0  0
   -6.0949   12.2992   -9.8722 H   0  0  0  0  0  0  0  0  0  0  0  0
   -8.1868   10.1246  -13.8882 H   0  0  0  0  0  0  0  0  0  0  0  0
   -7.6791   12.5355  -13.5348 H   0  0  0  0  0  0  0  0  0  0  0  0
   -6.1862   11.5916  -13.8618 H   0  0  0  0  0  0  0  0  0  0  0  0
   -8.1752   11.1984  -10.4540 H   0  0  0  0  0  0  0  0  0  0  0  0
   -8.0276    9.6101   -7.2552 H   0  0  0  0  0  0  0  0  0  0  0  0
   -2.6173   14.5676  -10.8136 H   0  0  0  0  0  0  0  0  0  0  0  0
   -3.0815   14.8991  -12.5168 H   0  0  0  0  0  0  0  0  0  0  0  0
   -3.9723   15.6908  -11.1728 H   0  0  0  0  0  0  0  0  0  0  0  0
   -5.2484   15.2095  -12.9404 H   0  0  0  0  0  0  0  0  0  0  0  0
   -6.7323   12.3219   -6.9127 H   0  0  0  0  0  0  0  0  0  0  0  0
   -2.6549    9.7395   -8.0568 H   0  0  0  0  0  0  0  0  0  0  0  0
   -4.8895    8.7861   -8.5049 H   0  0  0  0  0  0  0  0  0  0  0  0
   -3.6711   15.4833   -6.5034 H   0  0  0  0  0  0  0  0  0  0  0  0
   -2.6532   14.1872   -7.2178 H   0  0  0  0  0  0  0  0  0  0  0  0
   -4.1486   14.7205   -8.0580 H   0  0  0  0  0  0  0  0  0  0  0  0
   -0.1739   12.3445   -7.3623 H   0  0  0  0  0  0  0  0  0  0  0  0
   -0.8764   10.7233   -7.6856 H   0  0  0  0  0  0  0  0  0  0  0  0
   -1.2447   12.0969   -8.7830 H   0  0  0  0  0  0  0  0  0  0  0  0
  1  2  2  0  0  0  0
  1  4  1  0  0  0  0
  1 13  1  0  0  0  0
  2  6  1  0  0  0  0
  3  4  1  0  0  0  0
  3  5  2  0  0  0  0
  5  6  1  0  0  0  0
  5  9  1  0  0  0  0
  6  7  1  0  0  0  0
  7  8  1  0  0  0  0
  7 10  2  3  0  0  0
  8  9  2  0  0  0  0
 10 15  1  0  0  0  0
 11 12  1  0  0  0  0
 11 13  2  0  0  0  0
 13 14  1  0  0  0  0
 15 16  2  0  0  0  0
 15 20  1  0  0  0  0
 16 17  1  0  0  0  0
 17 18  2  0  0  0  0
 17 21  1  0  0  0  0
 18 19  1  0  0  0  0
 18 23  1  0  0  0  0
 19 20  2  0  0  0  0
 21 22  1  0  0  0  0
 23 24  1  0  0  0  0
  2 25  1  0  0  0  0
  3 26  1  0  0  0  0
  4 27  1  0  0  0  0
  4 28  1  0  0  0  0
  6 29  1  0  0  0  0
 10 30  1  0  0  0  0
 12 31  1  0  0  0  0
 12 32  1  0  0  0  0
 12 33  1  0  0  0  0
 14 34  1  0  0  0  0
 16 35  1  0  0  0  0
 19 36  1  0  0  0  0
 20 37  1  0  0  0  0
 22 38  1  0  0  0  0
 22 39  1  0  0  0  0
 22 40  1  0  0  0  0
 24 41  1  0  0  0  0
 24 42  1  0  0  0  0
 24 43  1  0  0  0  0
M  END
> <Name>
15

> <IC50[uM]>
2.5

$$$$
15
  -OEChem-05192314333D
 Structure written by MMmdl.
 43 45  0     0  0  0  0  0  0999 V2000
   -6.3730   12.3647  -12.0124 C   0  0  0  0  0  0  0  0  0  0  0  0
   -6.5249   11.8167  -10.7375 C   0  0  0  0  0  0  0  0  0  0  0  0
   -7.7225   10.5819  -13.0270 C   0  0  0  0  0  0  0  0  0  0  0  0
   -6.9871   11.7813  -13.1320 C   0  0  0  0  0  0  0  0  0  0  0  0
   -7.8205   10.0150  -11.7538 C   0  0  0  0  0  0  0  0  0  0  0  0
   -7.2514   10.6217  -10.6093 C   0  0  0  0  0  0  0  0  0  0  0  0
   -7.6113    9.7463   -9.5119 C   0  0  0  0  0  0  0  0  0  0  0  0
   -8.2838    8.7282   -9.9768 N   0  0  0  0  0  0  0  0  0  0  0  0
   -8.4166    8.8609  -11.2984 N   0  0  0  0  0  0  0  0  0  0  0  0
   -7.3282    9.8959   -8.0269 C   0  0  0  0  0  0  0  0  0  0  0  0
   -4.4004   13.6489  -11.4541 N   0  0  0  0  0  0  0  0  0  0  0  0
   -3.4592   14.7715  -11.4916 C   0  0  0  0  0  0  0  0  0  0  0  0
   -5.5363   13.6231  -12.1917 C   0  0  0  0  0  0  0  0  0  0  0  0
   -5.8861   14.5056  -12.9557 O   0  0  0  0  0  0  0  0  0  0  0  0
   -5.9554   10.4909   -7.7390 C   0  0  0  0  0  0  0  0  0  0  0  0
   -5.8447   11.7612   -7.1661 C   0  0  0  0  0  0  0  0  0  0  0  0
   -4.5697   12.3054   -6.9214 C   0  0  0  0  0  0  0  0  0  0  0  0
   -3.4308   11.5801   -7.2259 C   0  0  0  0  0  0  0  0  0  0  0  0
   -3.5429   10.3015   -7.8076 C   0  0  0  0  0  0  0  0  0  0  0  0
   -4.8018    9.7661   -8.0596 C   0  0  0  0  0  0  0  0  0  0  0  0
   -4.4352   13.5609   -6.3638 O   0  0  0  0  0  0  0  0  0  0  0  0
   -3.6839   14.5445   -7.0766 C   0  0  0  0  0  0  0  0  0  0  0  0
   -2.1928   12.1397   -6.9410 O   0  0  0  0  0  0  0  0  0  0  0  0
   -1.0568   11.8071   -7.7386 C   0  0  0  0  0  0  0  0  0  0  0  0
   -6.0949   12.2992   -9.8722 H   0  0  0  0  0  0  0  0  0  0  0  0
   -8.7440   10.7853  -13.3808 H   0  0  0  0  0  0  0  0  0  0  0  0
   -7.2470    9.8407  -13.6861 H   0  0  0  0  0  0  0  0  0  0  0  0
   -7.6791   12.5355  -13.5348 H   0  0  0  0  0  0  0  0  0  0  0  0
   -6.1862   11.5916  -13.8618 H   0  0  0  0  0  0  0  0  0  0  0  0
   -8.0276    9.6101   -7.2552 H   0  0  0  0  0  0  0  0  0  0  0  0
   -2.6173   14.5676  -10.8136 H   0  0  0  0  0  0  0  0  0  0  0  0
   -3.0815   14.8991  -12.5168 H   0  0  0  0  0  0  0  0  0  0  0  0
   -3.9723   15.6908  -11.1728 H   0  0  0  0  0  0  0  0  0  0  0  0
   -5.2484   15.2095  -12.9404 H   0  0  0  0  0  0  0  0  0  0  0  0
   -6.7323   12.3219   -6.9127 H   0  0  0  0  0  0  0  0  0  0  0  0
   -2.6549    9.7395   -8.0568 H   0  0  0  0  0  0  0  0  0  0  0  0
   -4.8895    8.7861   -8.5049 H   0  0  0  0  0  0  0  0  0  0  0  0
   -3.6711   15.4833   -6.5034 H   0  0  0  0  0  0  0  0  0  0  0  0
   -2.6532   14.1872   -7.2178 H   0  0  0  0  0  0  0  0  0  0  0  0
   -4.1486   14.7205   -8.0580 H   0  0  0  0  0  0  0  0  0  0  0  0
   -0.1739   12.3445   -7.3623 H   0  0  0  0  0  0  0  0  0  0  0  0
   -0.8764   10.7233   -7.6856 H   0  0  0  0  0  0  0  0  0  0  0  0
   -1.2447   12.0969   -8.7830 H   0  0  0  0  0  0  0  0  0  0  0  0
  1  2  2  0  0  0  0
  1  4  1  0  0  0  0
  1 13  1  0  0  0  0
  2  6  1  0  0  0  0
  3  4  1  0  0  0  0
  3  5  1  0  0  0  0
  5  6  2  0  0  0  0
  5  9  1  0  0  0  0
  6  7  1  0  0  0  0
  7  8  1  0  0  0  0
  7 10  2  3  0  0  0
  8  9  2  0  0  0  0
 10 15  1  0  0  0  0
 11 12  1  0  0  0  0
 11 13  2  0  0  0  0
 13 14  1  0  0  0  0
 15 16  2  0  0  0  0
 15 20  1  0  0  0  0
 16 17  1  0  0  0  0
 17 18  2  0  0  0  0
 17 21  1  0  0  0  0
 18 19  1  0  0  0  0
 18 23  1  0  0  0  0
 19 20  2  0  0  0  0
 21 22  1  0  0  0  0
 23 24  1  0  0  0  0
  2 25  1  0  0  0  0
  3 26  1  0  0  0  0
  3 27  1  0  0  0  0
  4 28  1  0  0  0  0
  4 29  1  0  0  0  0
 10 30  1  0  0  0  0
 12 31  1  0  0  0  0
 12 32  1  0  0  0  0
 12 33  1  0  0  0  0
 14 34  1  0  0  0  0
 16 35  1  0  0  0  0
 19 36  1  0  0  0  0
 20 37  1  0  0  0  0
 22 38  1  0  0  0  0
 22 39  1  0  0  0  0
 22 40  1  0  0  0  0
 24 41  1  0  0  0  0
 24 42  1  0  0  0  0
 24 43  1  0  0  0  0
M  END
> <Name>
15

> <IC50[uM]>
2.5

$$$$
15
  -OEChem-05192314333D
 Structure written by MMmdl.
 43 45  0     1  0  0  0  0  0999 V2000
   -6.3730   12.3647  -12.0124 C   0  0  0  0  0  0  0  0  0  0  0  0
   -6.5249   11.8167  -10.7375 C   0  0  0  0  0  0  0  0  0  0  0  0
   -7.7225   10.5819  -13.0270 C   0  0  0  0  0  0  0  0  0  0  0  0
   -6.9871   11.7813  -13.1320 C   0  0  0  0  0  0  0  0  0  0  0  0
   -7.8205   10.0150  -11.7538 C   0  0  0  0  0  0  0  0  0  0  0  0
   -7.2514   10.6217  -10.6093 C   0  0  0  0  0  0  0  0  0  0  0  0
   -7.6113    9.7463   -9.5119 C   0  0  0  0  0  0  0  0  0  0  0  0
   -8.2838    8.7282   -9.9768 N   0  0  0  0  0  0  0  0  0  0  0  0
   -8.4166    8.8609  -11.2984 N   0  0  0  0  0  0  0  0  0  0  0  0
   -7.3282    9.8959   -8.0269 C   0  0  0  0  0  0  0  0  0  0  0  0
   -4.4004   13.6489  -11.4541 N   0  0  0  0  0  0  0  0  0  0  0  0
   -3.4592   14.7715  -11.4916 C   0  0  0  0  0  0  0  0  0  0  0  0
   -5.5363   13.6231  -12.1917 C   0  0  0  0  0  0  0  0  0  0  0  0
   -5.8861   14.5056  -12.9557 O   0  0  0  0  0  0  0  0  0  0  0  0
   -5.9554   10.4909   -7.7390 C   0  0  3  0  0  0  0  0  0  0  0  0
   -5.8447   11.7612   -7.1661 C   0  0  0  0  0  0  0  0  0  0  0  0
   -4.5697   12.3054   -6.9214 C   0  0  0  0  0  0  0  0  0  0  0  0
   -3.4308   11.5801   -7.2259 C   0  0  0  0  0  0  0  0  0  0  0  0
   -3.5429   10.3015   -7.8076 C   0  0  0  0  0  0  0  0  0  0  0  0
   -4.8018    9.7661   -8.0596 C   0  0  0  0  0  0  0  0  0  0  0  0
   -4.4352   13.5609   -6.3638 O   0  0  0  0  0  0  0  0  0  0  0  0
   -3.6839   14.5445   -7.0766 C   0  0  0  0  0  0  0  0  0  0  0  0
   -2.1928   12.1397   -6.9410 O   0  0  0  0  0  0  0  0  0  0  0  0
   -1.0568   11.8071   -7.7386 C   0  0  0  0  0  0  0  0  0  0  0  0
   -6.0949   12.2992   -9.8722 H   0  0  0  0  0  0  0  0  0  0  0  0
   -8.1868   10.1246  -13.8882 H   0  0  0  0  0  0  0  0  0  0  0  0
   -6.8945   12.2613  -14.0950 H   0  0  0  0  0  0  0  0  0  0  0  0
   -8.0276    9.6101   -7.2552 H   0  0  0  0  0  0  0  0  0  0  0  0
   -2.6173   14.5676  -10.8136 H   0  0  0  0  0  0  0  0  0  0  0  0
   -3.0815   14.8991  -12.5168 H   0  0  0  0  0  0  0  0  0  0  0  0
   -3.9723   15.6908  -11.1728 H   0  0  0  0  0  0  0  0  0  0  0  0
   -5.2484   15.2095  -12.9404 H   0  0  0  0  0  0  0  0  0  0  0  0
   -5.9658   10.0368   -6.7372 H   0  0  0  0  0  0  0  0  0  0  0  0
   -6.7323   12.3219   -6.9127 H   0  0  0  0  0  0  0  0  0  0  0  0
   -2.6549    9.7395   -8.0568 H   0  0  0  0  0  0  0  0  0  0  0  0
   -4.8592    8.8187   -7.5036 H   0  0  0  0  0  0  0  0  0  0  0  0
   -4.8475    9.5609   -9.1393 H   0  0  0  0  0  0  0  0  0  0  0  0
   -3.6711   15.4833   -6.5034 H   0  0  0  0  0  0  0  0  0  0  0  0
   -2.6532   14.1872   -7.2178 H   0  0  0  0  0  0  0  0  0  0  0  0
   -4.1486   14.7205   -8.0580 H   0  0  0  0  0  0  0  0  0  0  0  0
   -0.1739   12.3445   -7.3623 H   0  0  0  0  0  0  0  0  0  0  0  0
   -0.8764   10.7233   -7.6856 H   0  0  0  0  0  0  0  0  0  0  0  0
   -1.2447   12.0969   -8.7830 H   0  0  0  0  0  0  0  0  0  0  0  0
  1  2  2  0  0  0  0
  1  4  1  0  0  0  0
  1 13  1  0  0  0  0
  2  6  1  0  0  0  0
  3  4  2  0  0  0  0
  3  5  1  0  0  0  0
  5  6  2  0  0  0  0
  5  9  1  0  0  0  0
  6  7  1  0  0  0  0
  7  8  1  0  0  0  0
  7 10  2  3  0  0  0
  8  9  2  0  0  0  0
 10 15  1  0  0  0  0
 11 12  1  0  0  0  0
 11 13  2  0  0  0  0
 13 14  1  0  0  0  0
 15 16  1  0  0  0  0
 15 20  1  0  0  0  0
 16 17  2  0  0  0  0
 17 18  1  0  0  0  0
 17 21  1  0  0  0  0
 18 19  2  0  0  0  0
 18 23  1  0  0  0  0
 19 20  1  0  0  0  0
 21 22  1  0  0  0  0
 23 24  1  0  0  0  0
  2 25  1  0  0  0  0
  3 26  1  0  0  0  0
  4 27  1  0  0  0  0
 10 28  1  0  0  0  0
 12 29  1  0  0  0  0
 12 30  1  0  0  0  0
 12 31  1  0  0  0  0
 14 32  1  0  0  0  0
 15 33  1  0  0  0  0
 16 34  1  0  0  0  0
 19 35  1  0  0  0  0
 20 36  1  0  0  0  0
 20 37  1  0  0  0  0
 22 38  1  0  0  0  0
 22 39  1  0  0  0  0
 22 40  1  0  0  0  0
 24 41  1  0  0  0  0
 24 42  1  0  0  0  0
 24 43  1  0  0  0  0
M  END
> <Name>
15

> <IC50[uM]>
2.5

$$$$
15
  -OEChem-05192314333D
 Structure written by MMmdl.
 43 45  0     1  0  0  0  0  0999 V2000
   -6.3730   12.3647  -12.0124 C   0  0  0  0  0  0  0  0  0  0  0  0
   -6.5249   11.8167  -10.7375 C   0  0  0  0  0  0  0  0  0  0  0  0
   -7.7225   10.5819  -13.0270 C   0  0  0  0  0  0  0  0  0  0  0  0
   -6.9871   11.7813  -13.1320 C   0  0  0  0  0  0  0  0  0  0  0  0
   -7.8205   10.0150  -11.7538 C   0  0  0  0  0  0  0  0  0  0  0  0
   -7.2514   10.6217  -10.6093 C   0  0  0  0  0  0  0  0  0  0  0  0
   -7.6113    9.7463   -9.5119 C   0  0  3  0  0  0  0  0  0  0  0  0
   -8.2838    8.7282   -9.9768 N   0  0  0  0  0  0  0  0  0  0  0  0
   -8.4166    8.8609  -11.2984 N   0  0  0  0  0  0  0  0  0  0  0  0
   -7.3282    9.8959   -8.0269 C   0  0  0  0  0  0  0  0  0  0  0  0
   -4.4004   13.6489  -11.4541 N   0  0  0  0  0  0  0  0  0  0  0  0
   -3.4592   14.7715  -11.4916 C   0  0  0  0  0  0  0  0  0  0  0  0
   -5.5363   13.6231  -12.1917 C   0  0  0  0  0  0  0  0  0  0  0  0
   -5.8861   14.5056  -12.9557 O   0  0  0  0  0  0  0  0  0  0  0  0
   -5.9554   10.4909   -7.7390 C   0  0  0  0  0  0  0  0  0  0  0  0
   -5.8447   11.7612   -7.1661 C   0  0  0  0  0  0  0  0  0  0  0  0
   -4.5697   12.3054   -6.9214 C   0  0  0  0  0  0  0  0  0  0  0  0
   -3.4308   11.5801   -7.2259 C   0  0  0  0  0  0  0  0  0  0  0  0
   -3.5429   10.3015   -7.8076 C   0  0  0  0  0  0  0  0  0  0  0  0
   -4.8018    9.7661   -8.0596 C   0  0  0  0  0  0  0  0  0  0  0  0
   -4.4352   13.5609   -6.3638 O   0  0  0  0  0  0  0  0  0  0  0  0
   -3.6839   14.5445   -7.0766 C   0  0  0  0  0  0  0  0  0  0  0  0
   -2.1928   12.1397   -6.9410 O   0  0  0  0  0  0  0  0  0  0  0  0
   -1.0568   11.8071   -7.7386 C   0  0  0  0  0  0  0  0  0  0  0  0
   -6.0949   12.2992   -9.8722 H   0  0  0  0  0  0  0  0  0  0  0  0
   -8.1868   10.1246  -13.8882 H   0  0  0  0  0  0  0  0  0  0  0  0
   -6.8945   12.2613  -14.0950 H   0  0  0  0  0  0  0  0  0  0  0  0
   -6.6707    9.1906   -9.6401 H   0  0  0  0  0  0  0  0  0  0  0  0
   -8.0276    9.6101   -7.2552 H   0  0  0  0  0  0  0  0  0  0  0  0
   -2.6173   14.5676  -10.8136 H   0  0  0  0  0  0  0  0  0  0  0  0
   -3.0815   14.8991  -12.5168 H   0  0  0  0  0  0  0  0  0  0  0  0
   -3.9723   15.6908  -11.1728 H   0  0  0  0  0  0  0  0  0  0  0  0
   -5.2484   15.2095  -12.9404 H   0  0  0  0  0  0  0  0  0  0  0  0
   -6.7323   12.3219   -6.9127 H   0  0  0  0  0  0  0  0  0  0  0  0
   -2.6549    9.7395   -8.0568 H   0  0  0  0  0  0  0  0  0  0  0  0
   -4.8592    8.8187   -7.5036 H   0  0  0  0  0  0  0  0  0  0  0  0
   -4.8475    9.5609   -9.1393 H   0  0  0  0  0  0  0  0  0  0  0  0
   -3.6711   15.4833   -6.5034 H   0  0  0  0  0  0  0  0  0  0  0  0
   -2.6532   14.1872   -7.2178 H   0  0  0  0  0  0  0  0  0  0  0  0
   -4.1486   14.7205   -8.0580 H   0  0  0  0  0  0  0  0  0  0  0  0
   -0.1739   12.3445   -7.3623 H   0  0  0  0  0  0  0  0  0  0  0  0
   -0.8764   10.7233   -7.6856 H   0  0  0  0  0  0  0  0  0  0  0  0
   -1.2447   12.0969   -8.7830 H   0  0  0  0  0  0  0  0  0  0  0  0
  1  2  2  0  0  0  0
  1  4  1  0  0  0  0
  1 13  1  0  0  0  0
  2  6  1  0  0  0  0
  3  4  2  0  0  0  0
  3  5  1  0  0  0  0
  5  6  2  0  0  0  0
  5  9  1  0  0  0  0
  6  7  1  0  0  0  0
  7  8  1  0  0  0  0
  7 10  1  0  0  0  0
  8  9  2  0  0  0  0
 10 15  2  3  0  0  0
 11 12  1  0  0  0  0
 11 13  2  0  0  0  0
 13 14  1  0  0  0  0
 15 16  1  0  0  0  0
 15 20  1  0  0  0  0
 16 17  2  0  0  0  0
 17 18  1  0  0  0  0
 17 21  1  0  0  0  0
 18 19  2  0  0  0  0
 18 23  1  0  0  0  0
 19 20  1  0  0  0  0
 21 22  1  0  0  0  0
 23 24  1  0  0  0  0
  2 25  1  0  0  0  0
  3 26  1  0  0  0  0
  4 27  1  0  0  0  0
  7 28  1  0  0  0  0
 10 29  1  0  0  0  0
 12 30  1  0  0  0  0
 12 31  1  0  0  0  0
 12 32  1  0  0  0  0
 14 33  1  0  0  0  0
 16 34  1  0  0  0  0
 19 35  1  0  0  0  0
 20 36  1  0  0  0  0
 20 37  1  0  0  0  0
 22 38  1  0  0  0  0
 22 39  1  0  0  0  0
 22 40  1  0  0  0  0
 24 41  1  0  0  0  0
 24 42  1  0  0  0  0
 24 43  1  0  0  0  0
M  END
> <Name>
15

> <IC50[uM]>
2.5

$$$$
15
  -OEChem-05192314333D
 Structure written by MMmdl.
 43 45  0     1  0  0  0  0  0999 V2000
   -6.3730   12.3647  -12.0124 C   0  0  0  0  0  0  0  0  0  0  0  0
   -6.5249   11.8167  -10.7375 C   0  0  0  0  0  0  0  0  0  0  0  0
   -7.7225   10.5819  -13.0270 C   0  0  0  0  0  0  0  0  0  0  0  0
   -6.9871   11.7813  -13.1320 C   0  0  0  0  0  0  0  0  0  0  0  0
   -7.8205   10.0150  -11.7538 C   0  0  0  0  0  0  0  0  0  0  0  0
   -7.2514   10.6217  -10.6093 C   0  0  0  0  0  0  0  0  0  0  0  0
   -7.6113    9.7463   -9.5119 C   0  0  0  0  0  0  0  0  0  0  0  0
   -8.2838    8.7282   -9.9768 N   0  0  0  0  0  0  0  0  0  0  0  0
   -8.4166    8.8609  -11.2984 N   0  0  0  0  0  0  0  0  0  0  0  0
   -7.3282    9.8959   -8.0269 C   0  0  0  0  0  0  0  0  0  0  0  0
   -4.4004   13.6489  -11.4541 N   0  0  0  0  0  0  0  0  0  0  0  0
   -3.4592   14.7715  -11.4916 C   0  0  0  0  0  0  0  0  0  0  0  0
   -5.5363   13.6231  -12.1917 C   0  0  0  0  0  0  0  0  0  0  0  0
   -5.8861   14.5056  -12.9557 O   0  0  0  0  0  0  0  0  0  0  0  0
   -5.9554   10.4909   -7.7390 C   0  0  0  0  0  0  0  0  0  0  0  0
   -5.8447   11.7612   -7.1661 C   0  0  0  0  0  0  0  0  0  0  0  0
   -4.5697   12.3054   -6.9214 C   0  0  3  0  0  0  0  0  0  0  0  0
   -3.4308   11.5801   -7.2259 C   0  0  0  0  0  0  0  0  0  0  0  0
   -3.5429   10.3015   -7.8076 C   0  0  0  0  0  0  0  0  0  0  0  0
   -4.8018    9.7661   -8.0596 C   0  0  0  0  0  0  0  0  0  0  0  0
   -4.4352   13.5609   -6.3638 O   0  0  0  0  0  0  0  0  0  0  0  0
   -3.6839   14.5445   -7.0766 C   0  0  0  0  0  0  0  0  0  0  0  0
   -2.1928   12.1397   -6.9410 O   0  0  0  0  0  0  0  0  0  0  0  0
   -1.0568   11.8071   -7.7386 C   0  0  0  0  0  0  0  0  0  0  0  0
   -6.0949   12.2992   -9.8722 H   0  0  0  0  0  0  0  0  0  0  0  0
   -8.1868   10.1246  -13.8882 H   0  0  0  0  0  0  0  0  0  0  0  0
   -6.8945   12.2613  -14.0950 H   0  0  0  0  0  0  0  0  0  0  0  0
   -8.0276    9.6101   -7.2552 H   0  0  0  0  0  0  0  0  0  0  0  0
   -2.6173   14.5676  -10.8136 H   0  0  0  0  0  0  0  0  0  0  0  0
   -3.0815   14.8991  -12.5168 H   0  0  0  0  0  0  0  0  0  0  0  0
   -3.9723   15.6908  -11.1728 H   0  0  0  0  0  0  0  0  0  0  0  0
   -5.2484   15.2095  -12.9404 H   0  0  0  0  0  0  0  0  0  0  0  0
   -6.7323   12.3219   -6.9127 H   0  0  0  0  0  0  0  0  0  0  0  0
   -4.5615   12.7479   -7.9284 H   0  0  0  0  0  0  0  0  0  0  0  0
   -2.6549    9.7395   -8.0568 H   0  0  0  0  0  0  0  0  0  0  0  0
   -4.8592    8.8187   -7.5036 H   0  0  0  0  0  0  0  0  0  0  0  0
   -4.8475    9.5609   -9.1393 H   0  0  0  0  0  0  0  0  0  0  0  0
   -3.6711   15.4833   -6.5034 H   0  0  0  0  0  0  0  0  0  0  0  0
   -2.6532   14.1872   -7.2178 H   0  0  0  0  0  0  0  0  0  0  0  0
   -4.1486   14.7205   -8.0580 H   0  0  0  0  0  0  0  0  0  0  0  0
   -0.1739   12.3445   -7.3623 H   0  0  0  0  0  0  0  0  0  0  0  0
   -0.8764   10.7233   -7.6856 H   0  0  0  0  0  0  0  0  0  0  0  0
   -1.2447   12.0969   -8.7830 H   0  0  0  0  0  0  0  0  0  0  0  0
  1  2  2  0  0  0  0
  1  4  1  0  0  0  0
  1 13  1  0  0  0  0
  2  6  1  0  0  0  0
  3  4  2  0  0  0  0
  3  5  1  0  0  0  0
  5  6  2  0  0  0  0
  5  9  1  0  0  0  0
  6  7  1  0  0  0  0
  7  8  1  0  0  0  0
  7 10  2  3  0  0  0
  8  9  2  0  0  0  0
 10 15  1  0  0  0  0
 11 12  1  0  0  0  0
 11 13  2  0  0  0  0
 13 14  1  0  0  0  0
 15 16  2  0  0  0  0
 15 20  1  0  0  0  0
 16 17  1  0  0  0  0
 17 18  1  0  0  0  0
 17 21  1  0  0  0  0
 18 19  2  0  0  0  0
 18 23  1  0  0  0  0
 19 20  1  0  0  0  0
 21 22  1  0  0  0  0
 23 24  1  0  0  0  0
  2 25  1  0  0  0  0
  3 26  1  0  0  0  0
  4 27  1  0  0  0  0
 10 28  1  0  0  0  0
 12 29  1  0  0  0  0
 12 30  1  0  0  0  0
 12 31  1  0  0  0  0
 14 32  1  0  0  0  0
 16 33  1  0  0  0  0
 17 34  1  0  0  0  0
 19 35  1  0  0  0  0
 20 36  1  0  0  0  0
 20 37  1  0  0  0  0
 22 38  1  0  0  0  0
 22 39  1  0  0  0  0
 22 40  1  0  0  0  0
 24 41  1  0  0  0  0
 24 42  1  0  0  0  0
 24 43  1  0  0  0  0
M  END
> <Name>
15

> <IC50[uM]>
2.5

$$$$
15
  -OEChem-05192314333D
 Structure written by MMmdl.
 43 45  0     0  0  0  0  0  0999 V2000
   -6.3730   12.3647  -12.0124 C   0  0  0  0  0  0  0  0  0  0  0  0
   -6.5249   11.8167  -10.7375 C   0  0  0  0  0  0  0  0  0  0  0  0
   -7.7225   10.5819  -13.0270 C   0  0  0  0  0  0  0  0  0  0  0  0
   -6.9871   11.7813  -13.1320 C   0  0  0  0  0  0  0  0  0  0  0  0
   -7.8205   10.0150  -11.7538 C   0  0  0  0  0  0  0  0  0  0  0  0
   -7.2514   10.6217  -10.6093 C   0  0  0  0  0  0  0  0  0  0  0  0
   -7.6113    9.7463   -9.5119 C   0  0  0  0  0  0  0  0  0  0  0  0
   -8.2838    8.7282   -9.9768 N   0  0  0  0  0  0  0  0  0  0  0  0
   -8.4166    8.8609  -11.2984 N   0  0  0  0  0  0  0  0  0  0  0  0
   -7.3282    9.8959   -8.0269 C   0  0  0  0  0  0  0  0  0  0  0  0
   -4.4004   13.6489  -11.4541 N   0  0  0  0  0  0  0  0  0  0  0  0
   -3.4592   14.7715  -11.4916 C   0  0  0  0  0  0  0  0  0  0  0  0
   -5.5363   13.6231  -12.1917 C   0  0  0  0  0  0  0  0  0  0  0  0
   -5.8861   14.5056  -12.9557 O   0  0  0  0  0  0  0  0  0  0  0  0
   -5.9554   10.4909   -7.7390 C   0  0  0  0  0  0  0  0  0  0  0  0
   -5.8447   11.7612   -7.1661 C   0  0  0  0  0  0  0  0  0  0  0  0
   -4.5697   12.3054   -6.9214 C   0  0  0  0  0  0  0  0  0  0  0  0
   -3.4308   11.5801   -7.2259 C   0  0  0  0  0  0  0  0  0  0  0  0
   -3.5429   10.3015   -7.8076 C   0  0  0  0  0  0  0  0  0  0  0  0
   -4.8018    9.7661   -8.0596 C   0  0  0  0  0  0  0  0  0  0  0  0
   -4.4352   13.5609   -6.3638 O   0  0  0  0  0  0  0  0  0  0  0  0
   -3.6839   14.5445   -7.0766 C   0  0  0  0  0  0  0  0  0  0  0  0
   -2.1928   12.1397   -6.9410 O   0  0  0  0  0  0  0  0  0  0  0  0
   -1.0568   11.8071   -7.7386 C   0  0  0  0  0  0  0  0  0  0  0  0
   -6.0949   12.2992   -9.8722 H   0  0  0  0  0  0  0  0  0  0  0  0
   -8.1868   10.1246  -13.8882 H   0  0  0  0  0  0  0  0  0  0  0  0
   -6.8945   12.2613  -14.0950 H   0  0  0  0  0  0  0  0  0  0  0  0
   -8.0276    9.6101   -7.2552 H   0  0  0  0  0  0  0  0  0  0  0  0
   -2.6173   14.5676  -10.8136 H   0  0  0  0  0  0  0  0  0  0  0  0
   -3.0815   14.8991  -12.5168 H   0  0  0  0  0  0  0  0  0  0  0  0
   -3.9723   15.6908  -11.1728 H   0  0  0  0  0  0  0  0  0  0  0  0
   -5.2484   15.2095  -12.9404 H   0  0  0  0  0  0  0  0  0  0  0  0
   -6.7323   12.3219   -6.9127 H   0  0  0  0  0  0  0  0  0  0  0  0
   -3.0151   10.3425   -8.7718 H   0  0  0  0  0  0  0  0  0  0  0  0
   -3.0264    9.5995   -7.1364 H   0  0  0  0  0  0  0  0  0  0  0  0
   -4.8592    8.8187   -7.5036 H   0  0  0  0  0  0  0  0  0  0  0  0
   -4.8475    9.5609   -9.1393 H   0  0  0  0  0  0  0  0  0  0  0  0
   -3.6711   15.4833   -6.5034 H   0  0  0  0  0  0  0  0  0  0  0  0
   -2.6532   14.1872   -7.2178 H   0  0  0  0  0  0  0  0  0  0  0  0
   -4.1486   14.7205   -8.0580 H   0  0  0  0  0  0  0  0  0  0  0  0
   -0.1739   12.3445   -7.3623 H   0  0  0  0  0  0  0  0  0  0  0  0
   -0.8764   10.7233   -7.6856 H   0  0  0  0  0  0  0  0  0  0  0  0
   -1.2447   12.0969   -8.7830 H   0  0  0  0  0  0  0  0  0  0  0  0
  1  2  2  0  0  0  0
  1  4  1  0  0  0  0
  1 13  1  0  0  0  0
  2  6  1  0  0  0  0
  3  4  2  0  0  0  0
  3  5  1  0  0  0  0
  5  6  2  0  0  0  0
  5  9  1  0  0  0  0
  6  7  1  0  0  0  0
  7  8  1  0  0  0  0
  7 10  2  3  0  0  0
  8  9  2  0  0  0  0
 10 15  1  0  0  0  0
 11 12  1  0  0  0  0
 11 13  2  0  0  0  0
 13 14  1  0  0  0  0
 15 16  2  0  0  0  0
 15 20  1  0  0  0  0
 16 17  1  0  0  0  0
 17 18  2  0  0  0  0
 17 21  1  0  0  0  0
 18 19  1  0  0  0  0
 18 23  1  0  0  0  0
 19 20  1  0  0  0  0
 21 22  1  0  0  0  0
 23 24  1  0  0  0  0
  2 25  1  0  0  0  0
  3 26  1  0  0  0  0
  4 27  1  0  0  0  0
 10 28  1  0  0  0  0
 12 29  1  0  0  0  0
 12 30  1  0  0  0  0
 12 31  1  0  0  0  0
 14 32  1  0  0  0  0
 16 33  1  0  0  0  0
 19 34  1  0  0  0  0
 19 35  1  0  0  0  0
 20 36  1  0  0  0  0
 20 37  1  0  0  0  0
 22 38  1  0  0  0  0
 22 39  1  0  0  0  0
 22 40  1  0  0  0  0
 24 41  1  0  0  0  0
 24 42  1  0  0  0  0
 24 43  1  0  0  0  0
M  END
> <Name>
15

> <IC50[uM]>
2.5

$$$$
15
  -OEChem-05192314333D
 Structure written by MMmdl.
 43 45  0     1  0  0  0  0  0999 V2000
   -6.3730   12.3647  -12.0124 C   0  0  3  0  0  0  0  0  0  0  0  0
   -6.5249   11.8167  -10.7375 C   0  0  0  0  0  0  0  0  0  0  0  0
   -7.7225   10.5819  -13.0270 C   0  0  0  0  0  0  0  0  0  0  0  0
   -6.9871   11.7813  -13.1320 C   0  0  0  0  0  0  0  0  0  0  0  0
   -7.8205   10.0150  -11.7538 C   0  0  0  0  0  0  0  0  0  0  0  0
   -7.2514   10.6217  -10.6093 C   0  0  0  0  0  0  0  0  0  0  0  0
   -7.6113    9.7463   -9.5119 C   0  0  0  0  0  0  0  0  0  0  0  0
   -8.2838    8.7282   -9.9768 N   0  0  0  0  0  0  0  0  0  0  0  0
   -8.4166    8.8609  -11.2984 N   0  0  0  0  0  0  0  0  0  0  0  0
   -7.3282    9.8959   -8.0269 C   0  0  0  0  0  0  0  0  0  0  0  0
   -4.4004   13.6489  -11.4541 N   0  0  0  0  0  0  0  0  0  0  0  0
   -3.4592   14.7715  -11.4916 C   0  0  0  0  0  0  0  0  0  0  0  0
   -5.5363   13.6231  -12.1917 C   0  0  0  0  0  0  0  0  0  0  0  0
   -5.8861   14.5056  -12.9557 O   0  0  0  0  0  0  0  0  0  0  0  0
   -5.9554   10.4909   -7.7390 C   0  0  0  0  0  0  0  0  0  0  0  0
   -5.8447   11.7612   -7.1661 C   0  0  0  0  0  0  0  0  0  0  0  0
   -4.5697   12.3054   -6.9214 C   0  0  0  0  0  0  0  0  0  0  0  0
   -3.4308   11.5801   -7.2259 C   0  0  0  0  0  0  0  0  0  0  0  0
   -3.5429   10.3015   -7.8076 C   0  0  0  0  0  0  0  0  0  0  0  0
   -4.8018    9.7661   -8.0596 C   0  0  0  0  0  0  0  0  0  0  0  0
   -4.4352   13.5609   -6.3638 O   0  0  0  0  0  0  0  0  0  0  0  0
   -3.6839   14.5445   -7.0766 C   0  0  0  0  0  0  0  0  0  0  0  0
   -2.1928   12.1397   -6.9410 O   0  0  0  0  0  0  0  0  0  0  0  0
   -1.0568   11.8071   -7.7386 C   0  0  0  0  0  0  0  0  0  0  0  0
   -5.4795   11.7442  -12.1757 H   0  0  0  0  0  0  0  0  0  0  0  0
   -5.5161   11.6287  -10.3414 H   0  0  0  0  0  0  0  0  0  0  0  0
   -7.0280   12.5721  -10.1160 H   0  0  0  0  0  0  0  0  0  0  0  0
   -8.1868   10.1246  -13.8882 H   0  0  0  0  0  0  0  0  0  0  0  0
   -6.8945   12.2613  -14.0950 H   0  0  0  0  0  0  0  0  0  0  0  0
   -8.0276    9.6101   -7.2552 H   0  0  0  0  0  0  0  0  0  0  0  0
   -2.6173   14.5676  -10.8136 H   0  0  0  0  0  0  0  0  0  0  0  0
   -3.0815   14.8991  -12.5168 H   0  0  0  0  0  0  0  0  0  0  0  0
   -3.9723   15.6908  -11.1728 H   0  0  0  0  0  0  0  0  0  0  0  0
   -5.2484   15.2095  -12.9404 H   0  0  0  0  0  0  0  0  0  0  0  0
   -6.7323   12.3219   -6.9127 H   0  0  0  0  0  0  0  0  0  0  0  0
   -2.6549    9.7395   -8.0568 H   0  0  0  0  0  0  0  0  0  0  0  0
   -4.8895    8.7861   -8.5049 H   0  0  0  0  0  0  0  0  0  0  0  0
   -3.6711   15.4833   -6.5034 H   0  0  0  0  0  0  0  0  0  0  0  0
   -2.6532   14.1872   -7.2178 H   0  0  0  0  0  0  0  0  0  0  0  0
   -4.1486   14.7205   -8.0580 H   0  0  0  0  0  0  0  0  0  0  0  0
   -0.1739   12.3445   -7.3623 H   0  0  0  0  0  0  0  0  0  0  0  0
   -0.8764   10.7233   -7.6856 H   0  0  0  0  0  0  0  0  0  0  0  0
   -1.2447   12.0969   -8.7830 H   0  0  0  0  0  0  0  0  0  0  0  0
  1  2  1  0  0  0  0
  1  4  1  0  0  0  0
  1 13  1  0  0  0  0
  2  6  1  0  0  0  0
  3  4  2  0  0  0  0
  3  5  1  0  0  0  0
  5  6  2  0  0  0  0
  5  9  1  0  0  0  0
  6  7  1  0  0  0  0
  7  8  1  0  0  0  0
  7 10  2  3  0  0  0
  8  9  2  0  0  0  0
 10 15  1  0  0  0  0
 11 12  1  0  0  0  0
 11 13  2  0  0  0  0
 13 14  1  0  0  0  0
 15 16  2  0  0  0  0
 15 20  1  0  0  0  0
 16 17  1  0  0  0  0
 17 18  2  0  0  0  0
 17 21  1  0  0  0  0
 18 19  1  0  0  0  0
 18 23  1  0  0  0  0
 19 20  2  0  0  0  0
 21 22  1  0  0  0  0
 23 24  1  0  0  0  0
  1 25  1  0  0  0  0
  2 26  1  0  0  0  0
  2 27  1  0  0  0  0
  3 28  1  0  0  0  0
  4 29  1  0  0  0  0
 10 30  1  0  0  0  0
 12 31  1  0  0  0  0
 12 32  1  0  0  0  0
 12 33  1  0  0  0  0
 14 34  1  0  0  0  0
 16 35  1  0  0  0  0
 19 36  1  0  0  0  0
 20 37  1  0  0  0  0
 22 38  1  0  0  0  0
 22 39  1  0  0  0  0
 22 40  1  0  0  0  0
 24 41  1  0  0  0  0
 24 42  1  0  0  0  0
 24 43  1  0  0  0  0
M  END
> <Name>
15

> <IC50[uM]>
2.5

$$$$
15
  -OEChem-05192314333D
 Structure written by MMmdl.
 43 45  0     1  0  0  0  0  0999 V2000
   -6.3730   12.3647  -12.0124 C   0  0  0  0  0  0  0  0  0  0  0  0
   -6.5249   11.8167  -10.7375 C   0  0  0  0  0  0  0  0  0  0  0  0
   -7.7225   10.5819  -13.0270 C   0  0  0  0  0  0  0  0  0  0  0  0
   -6.9871   11.7813  -13.1320 C   0  0  0  0  0  0  0  0  0  0  0  0
   -7.8205   10.0150  -11.7538 C   0  0  0  0  0  0  0  0  0  0  0  0
   -7.2514   10.6217  -10.6093 C   0  0  3  0  0  0  0  0  0  0  0  0
   -7.6113    9.7463   -9.5119 C   0  0  0  0  0  0  0  0  0  0  0  0
   -8.2838    8.7282   -9.9768 N   0  0  0  0  0  0  0  0  0  0  0  0
   -8.4166    8.8609  -11.2984 N   0  0  0  0  0  0  0  0  0  0  0  0
   -7.3282    9.8959   -8.0269 C   0  0  0  0  0  0  0  0  0  0  0  0
   -4.4004   13.6489  -11.4541 N   0  0  0  0  0  0  0  0  0  0  0  0
   -3.4592   14.7715  -11.4916 C   0  0  0  0  0  0  0  0  0  0  0  0
   -5.5363   13.6231  -12.1917 C   0  0  0  0  0  0  0  0  0  0  0  0
   -5.8861   14.5056  -12.9557 O   0  0  0  0  0  0  0  0  0  0  0  0
   -5.9554   10.4909   -7.7390 C   0  0  0  0  0  0  0  0  0  0  0  0
   -5.8447   11.7612   -7.1661 C   0  0  0  0  0  0  0  0  0  0  0  0
   -4.5697   12.3054   -6.9214 C   0  0  0  0  0  0  0  0  0  0  0  0
   -3.4308   11.5801   -7.2259 C   0  0  0  0  0  0  0  0  0  0  0  0
   -3.5429   10.3015   -7.8076 C   0  0  0  0  0  0  0  0  0  0  0  0
   -4.8018    9.7661   -8.0596 C   0  0  0  0  0  0  0  0  0  0  0  0
   -4.4352   13.5609   -6.3638 O   0  0  0  0  0  0  0  0  0  0  0  0
   -3.6839   14.5445   -7.0766 C   0  0  0  0  0  0  0  0  0  0  0  0
   -2.1928   12.1397   -6.9410 O   0  0  0  0  0  0  0  0  0  0  0  0
   -1.0568   11.8071   -7.7386 C   0  0  0  0  0  0  0  0  0  0  0  0
   -5.5161   11.6287  -10.3414 H   0  0  0  0  0  0  0  0  0  0  0  0
   -7.0280   12.5721  -10.1160 H   0  0  0  0  0  0  0  0  0  0  0  0
   -8.1868   10.1246  -13.8882 H   0  0  0  0  0  0  0  0  0  0  0  0
   -6.8945   12.2613  -14.0950 H   0  0  0  0  0  0  0  0  0  0  0  0
   -8.1752   11.1984  -10.4540 H   0  0  0  0  0  0  0  0  0  0  0  0
   -8.0276    9.6101   -7.2552 H   0  0  0  0  0  0  0  0  0  0  0  0
   -2.6173   14.5676  -10.8136 H   0  0  0  0  0  0  0  0  0  0  0  0
   -3.0815   14.8991  -12.5168 H   0  0  0  0  0  0  0  0  0  0  0  0
   -3.9723   15.6908  -11.1728 H   0  0  0  0  0  0  0  0  0  0  0  0
   -5.2484   15.2095  -12.9404 H   0  0  0  0  0  0  0  0  0  0  0  0
   -6.7323   12.3219   -6.9127 H   0  0  0  0  0  0  0  0  0  0  0  0
   -2.6549    9.7395   -8.0568 H   0  0  0  0  0  0  0  0  0  0  0  0
   -4.8895    8.7861   -8.5049 H   0  0  0  0  0  0  0  0  0  0  0  0
   -3.6711   15.4833   -6.5034 H   0  0  0  0  0  0  0  0  0  0  0  0
   -2.6532   14.1872   -7.2178 H   0  0  0  0  0  0  0  0  0  0  0  0
   -4.1486   14.7205   -8.0580 H   0  0  0  0  0  0  0  0  0  0  0  0
   -0.1739   12.3445   -7.3623 H   0  0  0  0  0  0  0  0  0  0  0  0
   -0.8764   10.7233   -7.6856 H   0  0  0  0  0  0  0  0  0  0  0  0
   -1.2447   12.0969   -8.7830 H   0  0  0  0  0  0  0  0  0  0  0  0
  1  2  1  0  0  0  0
  1  4  2  0  0  0  0
  1 13  1  0  0  0  0
  2  6  1  0  0  0  0
  3  4  1  0  0  0  0
  3  5  2  0  0  0  0
  5  6  1  0  0  0  0
  5  9  1  0  0  0  0
  6  7  1  0  0  0  0
  7  8  1  0  0  0  0
  7 10  2  3  0  0  0
  8  9  2  0  0  0  0
 10 15  1  0  0  0  0
 11 12  1  0  0  0  0
 11 13  2  0  0  0  0
 13 14  1  0  0  0  0
 15 16  2  0  0  0  0
 15 20  1  0  0  0  0
 16 17  1  0  0  0  0
 17 18  2  0  0  0  0
 17 21  1  0  0  0  0
 18 19  1  0  0  0  0
 18 23  1  0  0  0  0
 19 20  2  0  0  0  0
 21 22  1  0  0  0  0
 23 24  1  0  0  0  0
  2 25  1  0  0  0  0
  2 26  1  0  0  0  0
  3 27  1  0  0  0  0
  4 28  1  0  0  0  0
  6 29  1  0  0  0  0
 10 30  1  0  0  0  0
 12 31  1  0  0  0  0
 12 32  1  0  0  0  0
 12 33  1  0  0  0  0
 14 34  1  0  0  0  0
 16 35  1  0  0  0  0
 19 36  1  0  0  0  0
 20 37  1  0  0  0  0
 22 38  1  0  0  0  0
 22 39  1  0  0  0  0
 22 40  1  0  0  0  0
 24 41  1  0  0  0  0
 24 42  1  0  0  0  0
 24 43  1  0  0  0  0
M  END
> <Name>
15

> <IC50[uM]>
2.5

$$$$
15
  -OEChem-05192314333D
 Structure written by MMmdl.
 43 45  0     0  0  0  0  0  0999 V2000
   -6.3730   12.3647  -12.0124 C   0  0  0  0  0  0  0  0  0  0  0  0
   -6.5249   11.8167  -10.7375 C   0  0  0  0  0  0  0  0  0  0  0  0
   -7.7225   10.5819  -13.0270 C   0  0  0  0  0  0  0  0  0  0  0  0
   -6.9871   11.7813  -13.1320 C   0  0  0  0  0  0  0  0  0  0  0  0
   -7.8205   10.0150  -11.7538 C   0  0  0  0  0  0  0  0  0  0  0  0
   -7.2514   10.6217  -10.6093 C   0  0  0  0  0  0  0  0  0  0  0  0
   -7.6113    9.7463   -9.5119 C   0  0  0  0  0  0  0  0  0  0  0  0
   -8.2838    8.7282   -9.9768 N   0  0  0  0  0  0  0  0  0  0  0  0
   -8.4166    8.8609  -11.2984 N   0  0  0  0  0  0  0  0  0  0  0  0
   -7.3282    9.8959   -8.0269 C   0  0  0  0  0  0  0  0  0  0  0  0
   -4.4004   13.6489  -11.4541 N   0  0  0  0  0  0  0  0  0  0  0  0
   -3.4592   14.7715  -11.4916 C   0  0  0  0  0  0  0  0  0  0  0  0
   -5.5363   13.6231  -12.1917 C   0  0  0  0  0  0  0  0  0  0  0  0
   -5.8861   14.5056  -12.9557 O   0  0  0  0  0  0  0  0  0  0  0  0
   -5.9554   10.4909   -7.7390 C   0  0  0  0  0  0  0  0  0  0  0  0
   -5.8447   11.7612   -7.1661 C   0  0  0  0  0  0  0  0  0  0  0  0
   -4.5697   12.3054   -6.9214 C   0  0  0  0  0  0  0  0  0  0  0  0
   -3.4308   11.5801   -7.2259 C   0  0  0  0  0  0  0  0  0  0  0  0
   -3.5429   10.3015   -7.8076 C   0  0  0  0  0  0  0  0  0  0  0  0
   -4.8018    9.7661   -8.0596 C   0  0  0  0  0  0  0  0  0  0  0  0
   -4.4352   13.5609   -6.3638 O   0  0  0  0  0  0  0  0  0  0  0  0
   -3.6839   14.5445   -7.0766 C   0  0  0  0  0  0  0  0  0  0  0  0
   -2.1928   12.1397   -6.9410 O   0  0  0  0  0  0  0  0  0  0  0  0
   -1.0568   11.8071   -7.7386 C   0  0  0  0  0  0  0  0  0  0  0  0
   -5.5161   11.6287  -10.3414 H   0  0  0  0  0  0  0  0  0  0  0  0
   -7.0280   12.5721  -10.1160 H   0  0  0  0  0  0  0  0  0  0  0  0
   -8.7440   10.7853  -13.3808 H   0  0  0  0  0  0  0  0  0  0  0  0
   -7.2470    9.8407  -13.6861 H   0  0  0  0  0  0  0  0  0  0  0  0
   -6.8945   12.2613  -14.0950 H   0  0  0  0  0  0  0  0  0  0  0  0
   -8.0276    9.6101   -7.2552 H   0  0  0  0  0  0  0  0  0  0  0  0
   -2.6173   14.5676  -10.8136 H   0  0  0  0  0  0  0  0  0  0  0  0
   -3.0815   14.8991  -12.5168 H   0  0  0  0  0  0  0  0  0  0  0  0
   -3.9723   15.6908  -11.1728 H   0  0  0  0  0  0  0  0  0  0  0  0
   -5.2484   15.2095  -12.9404 H   0  0  0  0  0  0  0  0  0  0  0  0
   -6.7323   12.3219   -6.9127 H   0  0  0  0  0  0  0  0  0  0  0  0
   -2.6549    9.7395   -8.0568 H   0  0  0  0  0  0  0  0  0  0  0  0
   -4.8895    8.7861   -8.5049 H   0  0  0  0  0  0  0  0  0  0  0  0
   -3.6711   15.4833   -6.5034 H   0  0  0  0  0  0  0  0  0  0  0  0
   -2.6532   14.1872   -7.2178 H   0  0  0  0  0  0  0  0  0  0  0  0
   -4.1486   14.7205   -8.0580 H   0  0  0  0  0  0  0  0  0  0  0  0
   -0.1739   12.3445   -7.3623 H   0  0  0  0  0  0  0  0  0  0  0  0
   -0.8764   10.7233   -7.6856 H   0  0  0  0  0  0  0  0  0  0  0  0
   -1.2447   12.0969   -8.7830 H   0  0  0  0  0  0  0  0  0  0  0  0
  1  2  1  0  0  0  0
  1  4  2  0  0  0  0
  1 13  1  0  0  0  0
  2  6  1  0  0  0  0
  3  4  1  0  0  0  0
  3  5  1  0  0  0  0
  5  6  2  0  0  0  0
  5  9  1  0  0  0  0
  6  7  1  0  0  0  0
  7  8  1  0  0  0  0
  7 10  2  3  0  0  0
  8  9  2  0  0  0  0
 10 15  1  0  0  0  0
 11 12  1  0  0  0  0
 11 13  2  0  0  0  0
 13 14  1  0  0  0  0
 15 16  2  0  0  0  0
 15 20  1  0  0  0  0
 16 17  1  0  0  0  0
 17 18  2  0  0  0  0
 17 21  1  0  0  0  0
 18 19  1  0  0  0  0
 18 23  1  0  0  0  0
 19 20  2  0  0  0  0
 21 22  1  0  0  0  0
 23 24  1  0  0  0  0
  2 25  1  0  0  0  0
  2 26  1  0  0  0  0
  3 27  1  0  0  0  0
  3 28  1  0  0  0  0
  4 29  1  0  0  0  0
 10 30  1  0  0  0  0
 12 31  1  0  0  0  0
 12 32  1  0  0  0  0
 12 33  1  0  0  0  0
 14 34  1  0  0  0  0
 16 35  1  0  0  0  0
 19 36  1  0  0  0  0
 20 37  1  0  0  0  0
 22 38  1  0  0  0  0
 22 39  1  0  0  0  0
 22 40  1  0  0  0  0
 24 41  1  0  0  0  0
 24 42  1  0  0  0  0
 24 43  1  0  0  0  0
M  END
> <Name>
15

> <IC50[uM]>
2.5

$$$$
15
  -OEChem-05192314333D
 Structure written by MMmdl.
 43 45  0     1  0  0  0  0  0999 V2000
   -6.3730   12.3647  -12.0124 C   0  0  0  0  0  0  0  0  0  0  0  0
   -6.5249   11.8167  -10.7375 C   0  0  0  0  0  0  0  0  0  0  0  0
   -7.7225   10.5819  -13.0270 C   0  0  0  0  0  0  0  0  0  0  0  0
   -6.9871   11.7813  -13.1320 C   0  0  0  0  0  0  0  0  0  0  0  0
   -7.8205   10.0150  -11.7538 C   0  0  0  0  0  0  0  0  0  0  0  0
   -7.2514   10.6217  -10.6093 C   0  0  0  0  0  0  0  0  0  0  0  0
   -7.6113    9.7463   -9.5119 C   0  0  0  0  0  0  0  0  0  0  0  0
   -8.2838    8.7282   -9.9768 N   0  0  0  0  0  0  0  0  0  0  0  0
   -8.4166    8.8609  -11.2984 N   0  0  0  0  0  0  0  0  0  0  0  0
   -7.3282    9.8959   -8.0269 C   0  0  0  0  0  0  0  0  0  0  0  0
   -4.4004   13.6489  -11.4541 N   0  0  0  0  0  0  0  0  0  0  0  0
   -3.4592   14.7715  -11.4916 C   0  0  0  0  0  0  0  0  0  0  0  0
   -5.5363   13.6231  -12.1917 C   0  0  0  0  0  0  0  0  0  0  0  0
   -5.8861   14.5056  -12.9557 O   0  0  0  0  0  0  0  0  0  0  0  0
   -5.9554   10.4909   -7.7390 C   0  0  3  0  0  0  0  0  0  0  0  0
   -5.8447   11.7612   -7.1661 C   0  0  0  0  0  0  0  0  0  0  0  0
   -4.5697   12.3054   -6.9214 C   0  0  0  0  0  0  0  0  0  0  0  0
   -3.4308   11.5801   -7.2259 C   0  0  0  0  0  0  0  0  0  0  0  0
   -3.5429   10.3015   -7.8076 C   0  0  0  0  0  0  0  0  0  0  0  0
   -4.8018    9.7661   -8.0596 C   0  0  0  0  0  0  0  0  0  0  0  0
   -4.4352   13.5609   -6.3638 O   0  0  0  0  0  0  0  0  0  0  0  0
   -3.6839   14.5445   -7.0766 C   0  0  0  0  0  0  0  0  0  0  0  0
   -2.1928   12.1397   -6.9410 O   0  0  0  0  0  0  0  0  0  0  0  0
   -1.0568   11.8071   -7.7386 C   0  0  0  0  0  0  0  0  0  0  0  0
   -6.0949   12.2992   -9.8722 H   0  0  0  0  0  0  0  0  0  0  0  0
   -8.1868   10.1246  -13.8882 H   0  0  0  0  0  0  0  0  0  0  0  0
   -6.8945   12.2613  -14.0950 H   0  0  0  0  0  0  0  0  0  0  0  0
   -8.0276    9.6101   -7.2552 H   0  0  0  0  0  0  0  0  0  0  0  0
   -2.6173   14.5676  -10.8136 H   0  0  0  0  0  0  0  0  0  0  0  0
   -3.0815   14.8991  -12.5168 H   0  0  0  0  0  0  0  0  0  0  0  0
   -3.9723   15.6908  -11.1728 H   0  0  0  0  0  0  0  0  0  0  0  0
   -5.2484   15.2095  -12.9404 H   0  0  0  0  0  0  0  0  0  0  0  0
   -5.9658   10.0368   -6.7372 H   0  0  0  0  0  0  0  0  0  0  0  0
   -6.3671   12.4602   -7.8358 H   0  0  0  0  0  0  0  0  0  0  0  0
   -6.3661   11.7216   -6.1984 H   0  0  0  0  0  0  0  0  0  0  0  0
   -2.6549    9.7395   -8.0568 H   0  0  0  0  0  0  0  0  0  0  0  0
   -4.8895    8.7861   -8.5049 H   0  0  0  0  0  0  0  0  0  0  0  0
   -3.6711   15.4833   -6.5034 H   0  0  0  0  0  0  0  0  0  0  0  0
   -2.6532   14.1872   -7.2178 H   0  0  0  0  0  0  0  0  0  0  0  0
   -4.1486   14.7205   -8.0580 H   0  0  0  0  0  0  0  0  0  0  0  0
   -0.1739   12.3445   -7.3623 H   0  0  0  0  0  0  0  0  0  0  0  0
   -0.8764   10.7233   -7.6856 H   0  0  0  0  0  0  0  0  0  0  0  0
   -1.2447   12.0969   -8.7830 H   0  0  0  0  0  0  0  0  0  0  0  0
  1  2  2  0  0  0  0
  1  4  1  0  0  0  0
  1 13  1  0  0  0  0
  2  6  1  0  0  0  0
  3  4  2  0  0  0  0
  3  5  1  0  0  0  0
  5  6  2  0  0  0  0
  5  9  1  0  0  0  0
  6  7  1  0  0  0  0
  7  8  1  0  0  0  0
  7 10  2  3  0  0  0
  8  9  2  0  0  0  0
 10 15  1  0  0  0  0
 11 12  1  0  0  0  0
 11 13  2  0  0  0  0
 13 14  1  0  0  0  0
 15 16  1  0  0  0  0
 15 20  1  0  0  0  0
 16 17  1  0  0  0  0
 17 18  2  0  0  0  0
 17 21  1  0  0  0  0
 18 19  1  0  0  0  0
 18 23  1  0  0  0  0
 19 20  2  0  0  0  0
 21 22  1  0  0  0  0
 23 24  1  0  0  0  0
  2 25  1  0  0  0  0
  3 26  1  0  0  0  0
  4 27  1  0  0  0  0
 10 28  1  0  0  0  0
 12 29  1  0  0  0  0
 12 30  1  0  0  0  0
 12 31  1  0  0  0  0
 14 32  1  0  0  0  0
 15 33  1  0  0  0  0
 16 34  1  0  0  0  0
 16 35  1  0  0  0  0
 19 36  1  0  0  0  0
 20 37  1  0  0  0  0
 22 38  1  0  0  0  0
 22 39  1  0  0  0  0
 22 40  1  0  0  0  0
 24 41  1  0  0  0  0
 24 42  1  0  0  0  0
 24 43  1  0  0  0  0
M  END
> <Name>
15

> <IC50[uM]>
2.5

$$$$
15
  -OEChem-05192314333D
 Structure written by MMmdl.
 43 45  0     1  0  0  0  0  0999 V2000
   -6.3730   12.3647  -12.0124 C   0  0  0  0  0  0  0  0  0  0  0  0
   -6.5249   11.8167  -10.7375 C   0  0  0  0  0  0  0  0  0  0  0  0
   -7.7225   10.5819  -13.0270 C   0  0  0  0  0  0  0  0  0  0  0  0
   -6.9871   11.7813  -13.1320 C   0  0  0  0  0  0  0  0  0  0  0  0
   -7.8205   10.0150  -11.7538 C   0  0  0  0  0  0  0  0  0  0  0  0
   -7.2514   10.6217  -10.6093 C   0  0  0  0  0  0  0  0  0  0  0  0
   -7.6113    9.7463   -9.5119 C   0  0  3  0  0  0  0  0  0  0  0  0
   -8.2838    8.7282   -9.9768 N   0  0  0  0  0  0  0  0  0  0  0  0
   -8.4166    8.8609  -11.2984 N   0  0  0  0  0  0  0  0  0  0  0  0
   -7.3282    9.8959   -8.0269 C   0  0  0  0  0  0  0  0  0  0  0  0
   -4.4004   13.6489  -11.4541 N   0  0  0  0  0  0  0  0  0  0  0  0
   -3.4592   14.7715  -11.4916 C   0  0  0  0  0  0  0  0  0  0  0  0
   -5.5363   13.6231  -12.1917 C   0  0  0  0  0  0  0  0  0  0  0  0
   -5.8861   14.5056  -12.9557 O   0  0  0  0  0  0  0  0  0  0  0  0
   -5.9554   10.4909   -7.7390 C   0  0  0  0  0  0  0  0  0  0  0  0
   -5.8447   11.7612   -7.1661 C   0  0  0  0  0  0  0  0  0  0  0  0
   -4.5697   12.3054   -6.9214 C   0  0  0  0  0  0  0  0  0  0  0  0
   -3.4308   11.5801   -7.2259 C   0  0  0  0  0  0  0  0  0  0  0  0
   -3.5429   10.3015   -7.8076 C   0  0  0  0  0  0  0  0  0  0  0  0
   -4.8018    9.7661   -8.0596 C   0  0  0  0  0  0  0  0  0  0  0  0
   -4.4352   13.5609   -6.3638 O   0  0  0  0  0  0  0  0  0  0  0  0
   -3.6839   14.5445   -7.0766 C   0  0  0  0  0  0  0  0  0  0  0  0
   -2.1928   12.1397   -6.9410 O   0  0  0  0  0  0  0  0  0  0  0  0
   -1.0568   11.8071   -7.7386 C   0  0  0  0  0  0  0  0  0  0  0  0
   -6.0949   12.2992   -9.8722 H   0  0  0  0  0  0  0  0  0  0  0  0
   -8.1868   10.1246  -13.8882 H   0  0  0  0  0  0  0  0  0  0  0  0
   -6.8945   12.2613  -14.0950 H   0  0  0  0  0  0  0  0  0  0  0  0
   -6.6707    9.1906   -9.6401 H   0  0  0  0  0  0  0  0  0  0  0  0
   -8.0276    9.6101   -7.2552 H   0  0  0  0  0  0  0  0  0  0  0  0
   -2.6173   14.5676  -10.8136 H   0  0  0  0  0  0  0  0  0  0  0  0
   -3.0815   14.8991  -12.5168 H   0  0  0  0  0  0  0  0  0  0  0  0
   -3.9723   15.6908  -11.1728 H   0  0  0  0  0  0  0  0  0  0  0  0
   -5.2484   15.2095  -12.9404 H   0  0  0  0  0  0  0  0  0  0  0  0
   -6.3671   12.4602   -7.8358 H   0  0  0  0  0  0  0  0  0  0  0  0
   -6.3661   11.7216   -6.1984 H   0  0  0  0  0  0  0  0  0  0  0  0
   -2.6549    9.7395   -8.0568 H   0  0  0  0  0  0  0  0  0  0  0  0
   -4.8895    8.7861   -8.5049 H   0  0  0  0  0  0  0  0  0  0  0  0
   -3.6711   15.4833   -6.5034 H   0  0  0  0  0  0  0  0  0  0  0  0
   -2.6532   14.1872   -7.2178 H   0  0  0  0  0  0  0  0  0  0  0  0
   -4.1486   14.7205   -8.0580 H   0  0  0  0  0  0  0  0  0  0  0  0
   -0.1739   12.3445   -7.3623 H   0  0  0  0  0  0  0  0  0  0  0  0
   -0.8764   10.7233   -7.6856 H   0  0  0  0  0  0  0  0  0  0  0  0
   -1.2447   12.0969   -8.7830 H   0  0  0  0  0  0  0  0  0  0  0  0
  1  2  2  0  0  0  0
  1  4  1  0  0  0  0
  1 13  1  0  0  0  0
  2  6  1  0  0  0  0
  3  4  2  0  0  0  0
  3  5  1  0  0  0  0
  5  6  2  0  0  0  0
  5  9  1  0  0  0  0
  6  7  1  0  0  0  0
  7  8  1  0  0  0  0
  7 10  1  0  0  0  0
  8  9  2  0  0  0  0
 10 15  2  3  0  0  0
 11 12  1  0  0  0  0
 11 13  2  0  0  0  0
 13 14  1  0  0  0  0
 15 16  1  0  0  0  0
 15 20  1  0  0  0  0
 16 17  1  0  0  0  0
 17 18  2  0  0  0  0
 17 21  1  0  0  0  0
 18 19  1  0  0  0  0
 18 23  1  0  0  0  0
 19 20  2  0  0  0  0
 21 22  1  0  0  0  0
 23 24  1  0  0  0  0
  2 25  1  0  0  0  0
  3 26  1  0  0  0  0
  4 27  1  0  0  0  0
  7 28  1  0  0  0  0
 10 29  1  0  0  0  0
 12 30  1  0  0  0  0
 12 31  1  0  0  0  0
 12 32  1  0  0  0  0
 14 33  1  0  0  0  0
 16 34  1  0  0  0  0
 16 35  1  0  0  0  0
 19 36  1  0  0  0  0
 20 37  1  0  0  0  0
 22 38  1  0  0  0  0
 22 39  1  0  0  0  0
 22 40  1  0  0  0  0
 24 41  1  0  0  0  0
 24 42  1  0  0  0  0
 24 43  1  0  0  0  0
M  END
> <Name>
15

> <IC50[uM]>
2.5

$$$$
15
  -OEChem-05192314333D
 Structure written by MMmdl.
 43 45  0     1  0  0  0  0  0999 V2000
   -6.3730   12.3647  -12.0124 C   0  0  0  0  0  0  0  0  0  0  0  0
   -6.5249   11.8167  -10.7375 C   0  0  0  0  0  0  0  0  0  0  0  0
   -7.7225   10.5819  -13.0270 C   0  0  0  0  0  0  0  0  0  0  0  0
   -6.9871   11.7813  -13.1320 C   0  0  0  0  0  0  0  0  0  0  0  0
   -7.8205   10.0150  -11.7538 C   0  0  0  0  0  0  0  0  0  0  0  0
   -7.2514   10.6217  -10.6093 C   0  0  0  0  0  0  0  0  0  0  0  0
   -7.6113    9.7463   -9.5119 C   0  0  0  0  0  0  0  0  0  0  0  0
   -8.2838    8.7282   -9.9768 N   0  0  0  0  0  0  0  0  0  0  0  0
   -8.4166    8.8609  -11.2984 N   0  0  0  0  0  0  0  0  0  0  0  0
   -7.3282    9.8959   -8.0269 C   0  0  0  0  0  0  0  0  0  0  0  0
   -4.4004   13.6489  -11.4541 N   0  0  0  0  0  0  0  0  0  0  0  0
   -3.4592   14.7715  -11.4916 C   0  0  0  0  0  0  0  0  0  0  0  0
   -5.5363   13.6231  -12.1917 C   0  0  0  0  0  0  0  0  0  0  0  0
   -5.8861   14.5056  -12.9557 O   0  0  0  0  0  0  0  0  0  0  0  0
   -5.9554   10.4909   -7.7390 C   0  0  0  0  0  0  0  0  0  0  0  0
   -5.8447   11.7612   -7.1661 C   0  0  0  0  0  0  0  0  0  0  0  0
   -4.5697   12.3054   -6.9214 C   0  0  3  0  0  0  0  0  0  0  0  0
   -3.4308   11.5801   -7.2259 C   0  0  0  0  0  0  0  0  0  0  0  0
   -3.5429   10.3015   -7.8076 C   0  0  0  0  0  0  0  0  0  0  0  0
   -4.8018    9.7661   -8.0596 C   0  0  0  0  0  0  0  0  0  0  0  0
   -4.4352   13.5609   -6.3638 O   0  0  0  0  0  0  0  0  0  0  0  0
   -3.6839   14.5445   -7.0766 C   0  0  0  0  0  0  0  0  0  0  0  0
   -2.1928   12.1397   -6.9410 O   0  0  0  0  0  0  0  0  0  0  0  0
   -1.0568   11.8071   -7.7386 C   0  0  0  0  0  0  0  0  0  0  0  0
   -6.0949   12.2992   -9.8722 H   0  0  0  0  0  0  0  0  0  0  0  0
   -8.1868   10.1246  -13.8882 H   0  0  0  0  0  0  0  0  0  0  0  0
   -6.8945   12.2613  -14.0950 H   0  0  0  0  0  0  0  0  0  0  0  0
   -8.0276    9.6101   -7.2552 H   0  0  0  0  0  0  0  0  0  0  0  0
   -2.6173   14.5676  -10.8136 H   0  0  0  0  0  0  0  0  0  0  0  0
   -3.0815   14.8991  -12.5168 H   0  0  0  0  0  0  0  0  0  0  0  0
   -3.9723   15.6908  -11.1728 H   0  0  0  0  0  0  0  0  0  0  0  0
   -5.2484   15.2095  -12.9404 H   0  0  0  0  0  0  0  0  0  0  0  0
   -6.3671   12.4602   -7.8358 H   0  0  0  0  0  0  0  0  0  0  0  0
   -6.3661   11.7216   -6.1984 H   0  0  0  0  0  0  0  0  0  0  0  0
   -4.5615   12.7479   -7.9284 H   0  0  0  0  0  0  0  0  0  0  0  0
   -2.6549    9.7395   -8.0568 H   0  0  0  0  0  0  0  0  0  0  0  0
   -4.8895    8.7861   -8.5049 H   0  0  0  0  0  0  0  0  0  0  0  0
   -3.6711   15.4833   -6.5034 H   0  0  0  0  0  0  0  0  0  0  0  0
   -2.6532   14.1872   -7.2178 H   0  0  0  0  0  0  0  0  0  0  0  0
   -4.1486   14.7205   -8.0580 H   0  0  0  0  0  0  0  0  0  0  0  0
   -0.1739   12.3445   -7.3623 H   0  0  0  0  0  0  0  0  0  0  0  0
   -0.8764   10.7233   -7.6856 H   0  0  0  0  0  0  0  0  0  0  0  0
   -1.2447   12.0969   -8.7830 H   0  0  0  0  0  0  0  0  0  0  0  0
  1  2  2  0  0  0  0
  1  4  1  0  0  0  0
  1 13  1  0  0  0  0
  2  6  1  0  0  0  0
  3  4  2  0  0  0  0
  3  5  1  0  0  0  0
  5  6  2  0  0  0  0
  5  9  1  0  0  0  0
  6  7  1  0  0  0  0
  7  8  1  0  0  0  0
  7 10  2  3  0  0  0
  8  9  2  0  0  0  0
 10 15  1  0  0  0  0
 11 12  1  0  0  0  0
 11 13  2  0  0  0  0
 13 14  1  0  0  0  0
 15 16  1  0  0  0  0
 15 20  2  0  0  0  0
 16 17  1  0  0  0  0
 17 18  1  0  0  0  0
 17 21  1  0  0  0  0
 18 19  2  0  0  0  0
 18 23  1  0  0  0  0
 19 20  1  0  0  0  0
 21 22  1  0  0  0  0
 23 24  1  0  0  0  0
  2 25  1  0  0  0  0
  3 26  1  0  0  0  0
  4 27  1  0  0  0  0
 10 28  1  0  0  0  0
 12 29  1  0  0  0  0
 12 30  1  0  0  0  0
 12 31  1  0  0  0  0
 14 32  1  0  0  0  0
 16 33  1  0  0  0  0
 16 34  1  0  0  0  0
 17 35  1  0  0  0  0
 19 36  1  0  0  0  0
 20 37  1  0  0  0  0
 22 38  1  0  0  0  0
 22 39  1  0  0  0  0
 22 40  1  0  0  0  0
 24 41  1  0  0  0  0
 24 42  1  0  0  0  0
 24 43  1  0  0  0  0
M  END
> <Name>
15

> <IC50[uM]>
2.5

$$$$
15
  -OEChem-05192314333D
 Structure written by MMmdl.
 43 45  0     0  0  0  0  0  0999 V2000
   -6.3730   12.3647  -12.0124 C   0  0  0  0  0  0  0  0  0  0  0  0
   -6.5249   11.8167  -10.7375 C   0  0  0  0  0  0  0  0  0  0  0  0
   -7.7225   10.5819  -13.0270 C   0  0  0  0  0  0  0  0  0  0  0  0
   -6.9871   11.7813  -13.1320 C   0  0  0  0  0  0  0  0  0  0  0  0
   -7.8205   10.0150  -11.7538 C   0  0  0  0  0  0  0  0  0  0  0  0
   -7.2514   10.6217  -10.6093 C   0  0  0  0  0  0  0  0  0  0  0  0
   -7.6113    9.7463   -9.5119 C   0  0  0  0  0  0  0  0  0  0  0  0
   -8.2838    8.7282   -9.9768 N   0  0  0  0  0  0  0  0  0  0  0  0
   -8.4166    8.8609  -11.2984 N   0  0  0  0  0  0  0  0  0  0  0  0
   -7.3282    9.8959   -8.0269 C   0  0  0  0  0  0  0  0  0  0  0  0
   -4.4004   13.6489  -11.4541 N   0  0  0  0  0  0  0  0  0  0  0  0
   -3.4592   14.7715  -11.4916 C   0  0  0  0  0  0  0  0  0  0  0  0
   -5.5363   13.6231  -12.1917 C   0  0  0  0  0  0  0  0  0  0  0  0
   -5.8861   14.5056  -12.9557 O   0  0  0  0  0  0  0  0  0  0  0  0
   -5.9554   10.4909   -7.7390 C   0  0  0  0  0  0  0  0  0  0  0  0
   -5.8447   11.7612   -7.1661 C   0  0  0  0  0  0  0  0  0  0  0  0
   -4.5697   12.3054   -6.9214 C   0  0  0  0  0  0  0  0  0  0  0  0
   -3.4308   11.5801   -7.2259 C   0  0  0  0  0  0  0  0  0  0  0  0
   -3.5429   10.3015   -7.8076 C   0  0  0  0  0  0  0  0  0  0  0  0
   -4.8018    9.7661   -8.0596 C   0  0  0  0  0  0  0  0  0  0  0  0
   -4.4352   13.5609   -6.3638 O   0  0  0  0  0  0  0  0  0  0  0  0
   -3.6839   14.5445   -7.0766 C   0  0  0  0  0  0  0  0  0  0  0  0
   -2.1928   12.1397   -6.9410 O   0  0  0  0  0  0  0  0  0  0  0  0
   -1.0568   11.8071   -7.7386 C   0  0  0  0  0  0  0  0  0  0  0  0
   -6.0949   12.2992   -9.8722 H   0  0  0  0  0  0  0  0  0  0  0  0
   -8.1868   10.1246  -13.8882 H   0  0  0  0  0  0  0  0  0  0  0  0
   -6.8945   12.2613  -14.0950 H   0  0  0  0  0  0  0  0  0  0  0  0
   -8.0276    9.6101   -7.2552 H   0  0  0  0  0  0  0  0  0  0  0  0
   -2.6173   14.5676  -10.8136 H   0  0  0  0  0  0  0  0  0  0  0  0
   -3.0815   14.8991  -12.5168 H   0  0  0  0  0  0  0  0  0  0  0  0
   -3.9723   15.6908  -11.1728 H   0  0  0  0  0  0  0  0  0  0  0  0
   -5.2484   15.2095  -12.9404 H   0  0  0  0  0  0  0  0  0  0  0  0
   -6.3671   12.4602   -7.8358 H   0  0  0  0  0  0  0  0  0  0  0  0
   -6.3661   11.7216   -6.1984 H   0  0  0  0  0  0  0  0  0  0  0  0
   -3.0151   10.3425   -8.7718 H   0  0  0  0  0  0  0  0  0  0  0  0
   -3.0264    9.5995   -7.1364 H   0  0  0  0  0  0  0  0  0  0  0  0
   -4.8895    8.7861   -8.5049 H   0  0  0  0  0  0  0  0  0  0  0  0
   -3.6711   15.4833   -6.5034 H   0  0  0  0  0  0  0  0  0  0  0  0
   -2.6532   14.1872   -7.2178 H   0  0  0  0  0  0  0  0  0  0  0  0
   -4.1486   14.7205   -8.0580 H   0  0  0  0  0  0  0  0  0  0  0  0
   -0.1739   12.3445   -7.3623 H   0  0  0  0  0  0  0  0  0  0  0  0
   -0.8764   10.7233   -7.6856 H   0  0  0  0  0  0  0  0  0  0  0  0
   -1.2447   12.0969   -8.7830 H   0  0  0  0  0  0  0  0  0  0  0  0
  1  2  2  0  0  0  0
  1  4  1  0  0  0  0
  1 13  1  0  0  0  0
  2  6  1  0  0  0  0
  3  4  2  0  0  0  0
  3  5  1  0  0  0  0
  5  6  2  0  0  0  0
  5  9  1  0  0  0  0
  6  7  1  0  0  0  0
  7  8  1  0  0  0  0
  7 10  2  3  0  0  0
  8  9  2  0  0  0  0
 10 15  1  0  0  0  0
 11 12  1  0  0  0  0
 11 13  2  0  0  0  0
 13 14  1  0  0  0  0
 15 16  1  0  0  0  0
 15 20  2  0  0  0  0
 16 17  1  0  0  0  0
 17 18  2  0  0  0  0
 17 21  1  0  0  0  0
 18 19  1  0  0  0  0
 18 23  1  0  0  0  0
 19 20  1  0  0  0  0
 21 22  1  0  0  0  0
 23 24  1  0  0  0  0
  2 25  1  0  0  0  0
  3 26  1  0  0  0  0
  4 27  1  0  0  0  0
 10 28  1  0  0  0  0
 12 29  1  0  0  0  0
 12 30  1  0  0  0  0
 12 31  1  0  0  0  0
 14 32  1  0  0  0  0
 16 33  1  0  0  0  0
 16 34  1  0  0  0  0
 19 35  1  0  0  0  0
 19 36  1  0  0  0  0
 20 37  1  0  0  0  0
 22 38  1  0  0  0  0
 22 39  1  0  0  0  0
 22 40  1  0  0  0  0
 24 41  1  0  0  0  0
 24 42  1  0  0  0  0
 24 43  1  0  0  0  0
M  END
> <Name>
15

> <IC50[uM]>
2.5

$$$$
15
  -OEChem-05192314333D
 Structure written by MMmdl.
 43 45  0     1  0  0  0  0  0999 V2000
   -6.3730   12.3647  -12.0124 C   0  0  0  0  0  0  0  0  0  0  0  0
   -6.5249   11.8167  -10.7375 C   0  0  0  0  0  0  0  0  0  0  0  0
   -7.7225   10.5819  -13.0270 C   0  0  0  0  0  0  0  0  0  0  0  0
   -6.9871   11.7813  -13.1320 C   0  0  0  0  0  0  0  0  0  0  0  0
   -7.8205   10.0150  -11.7538 C   0  0  3  0  0  0  0  0  0  0  0  0
   -7.2514   10.6217  -10.6093 C   0  0  0  0  0  0  0  0  0  0  0  0
   -7.6113    9.7463   -9.5119 C   0  0  0  0  0  0  0  0  0  0  0  0
   -8.2838    8.7282   -9.9768 N   0  0  0  0  0  0  0  0  0  0  0  0
   -8.4166    8.8609  -11.2984 N   0  0  0  0  0  0  0  0  0  0  0  0
   -7.3282    9.8959   -8.0269 C   0  0  0  0  0  0  0  0  0  0  0  0
   -4.4004   13.6489  -11.4541 N   0  0  0  0  0  0  0  0  0  0  0  0
   -3.4592   14.7715  -11.4916 C   0  0  0  0  0  0  0  0  0  0  0  0
   -5.5363   13.6231  -12.1917 C   0  0  0  0  0  0  0  0  0  0  0  0
   -5.8861   14.5056  -12.9557 O   0  0  0  0  0  0  0  0  0  0  0  0
   -5.9554   10.4909   -7.7390 C   0  0  0  0  0  0  0  0  0  0  0  0
   -5.8447   11.7612   -7.1661 C   0  0  0  0  0  0  0  0  0  0  0  0
   -4.5697   12.3054   -6.9214 C   0  0  0  0  0  0  0  0  0  0  0  0
   -3.4308   11.5801   -7.2259 C   0  0  0  0  0  0  0  0  0  0  0  0
   -3.5429   10.3015   -7.8076 C   0  0  0  0  0  0  0  0  0  0  0  0
   -4.8018    9.7661   -8.0596 C   0  0  0  0  0  0  0  0  0  0  0  0
   -4.4352   13.5609   -6.3638 O   0  0  0  0  0  0  0  0  0  0  0  0
   -3.6839   14.5445   -7.0766 C   0  0  0  0  0  0  0  0  0  0  0  0
   -2.1928   12.1397   -6.9410 O   0  0  0  0  0  0  0  0  0  0  0  0
   -1.0568   11.8071   -7.7386 C   0  0  0  0  0  0  0  0  0  0  0  0
   -6.0949   12.2992   -9.8722 H   0  0  0  0  0  0  0  0  0  0  0  0
   -8.1868   10.1246  -13.8882 H   0  0  0  0  0  0  0  0  0  0  0  0
   -6.8945   12.2613  -14.0950 H   0  0  0  0  0  0  0  0  0  0  0  0
   -6.8846    9.4635  -11.9271 H   0  0  0  0  0  0  0  0  0  0  0  0
   -8.0938   10.5530   -7.5887 H   0  0  0  0  0  0  0  0  0  0  0  0
   -7.3851    8.9027   -7.5575 H   0  0  0  0  0  0  0  0  0  0  0  0
   -2.6173   14.5676  -10.8136 H   0  0  0  0  0  0  0  0  0  0  0  0
   -3.0815   14.8991  -12.5168 H   0  0  0  0  0  0  0  0  0  0  0  0
   -3.9723   15.6908  -11.1728 H   0  0  0  0  0  0  0  0  0  0  0  0
   -5.2484   15.2095  -12.9404 H   0  0  0  0  0  0  0  0  0  0  0  0
   -6.7323   12.3219   -6.9127 H   0  0  0  0  0  0  0  0  0  0  0  0
   -2.6549    9.7395   -8.0568 H   0  0  0  0  0  0  0  0  0  0  0  0
   -4.8895    8.7861   -8.5049 H   0  0  0  0  0  0  0  0  0  0  0  0
   -3.6711   15.4833   -6.5034 H   0  0  0  0  0  0  0  0  0  0  0  0
   -2.6532   14.1872   -7.2178 H   0  0  0  0  0  0  0  0  0  0  0  0
   -4.1486   14.7205   -8.0580 H   0  0  0  0  0  0  0  0  0  0  0  0
   -0.1739   12.3445   -7.3623 H   0  0  0  0  0  0  0  0  0  0  0  0
   -0.8764   10.7233   -7.6856 H   0  0  0  0  0  0  0  0  0  0  0  0
   -1.2447   12.0969   -8.7830 H   0  0  0  0  0  0  0  0  0  0  0  0
  1  2  2  0  0  0  0
  1  4  1  0  0  0  0
  1 13  1  0  0  0  0
  2  6  1  0  0  0  0
  3  4  2  0  0  0  0
  3  5  1  0  0  0  0
  5  6  1  0  0  0  0
  5  9  1  0  0  0  0
  6  7  2  0  0  0  0
  7  8  1  0  0  0  0
  7 10  1  0  0  0  0
  8  9  2  0  0  0  0
 10 15  1  0  0  0  0
 11 12  1  0  0  0  0
 11 13  2  0  0  0  0
 13 14  1  0  0  0  0
 15 16  2  0  0  0  0
 15 20  1  0  0  0  0
 16 17  1  0  0  0  0
 17 18  2  0  0  0  0
 17 21  1  0  0  0  0
 18 19  1  0  0  0  0
 18 23  1  0  0  0  0
 19 20  2  0  0  0  0
 21 22  1  0  0  0  0
 23 24  1  0  0  0  0
  2 25  1  0  0  0  0
  3 26  1  0  0  0  0
  4 27  1  0  0  0  0
  5 28  1  0  0  0  0
 10 29  1  0  0  0  0
 10 30  1  0  0  0  0
 12 31  1  0  0  0  0
 12 32  1  0  0  0  0
 12 33  1  0  0  0  0
 14 34  1  0  0  0  0
 16 35  1  0  0  0  0
 19 36  1  0  0  0  0
 20 37  1  0  0  0  0
 22 38  1  0  0  0  0
 22 39  1  0  0  0  0
 22 40  1  0  0  0  0
 24 41  1  0  0  0  0
 24 42  1  0  0  0  0
 24 43  1  0  0  0  0
M  END
> <Name>
15

> <IC50[uM]>
2.5

$$$$
15
  -OEChem-05192314333D
 Structure written by MMmdl.
 43 45  0     0  0  0  0  0  0999 V2000
   -6.3730   12.3647  -12.0124 C   0  0  0  0  0  0  0  0  0  0  0  0
   -6.5249   11.8167  -10.7375 C   0  0  0  0  0  0  0  0  0  0  0  0
   -7.7225   10.5819  -13.0270 C   0  0  0  0  0  0  0  0  0  0  0  0
   -6.9871   11.7813  -13.1320 C   0  0  0  0  0  0  0  0  0  0  0  0
   -7.8205   10.0150  -11.7538 C   0  0  0  0  0  0  0  0  0  0  0  0
   -7.2514   10.6217  -10.6093 C   0  0  0  0  0  0  0  0  0  0  0  0
   -7.6113    9.7463   -9.5119 C   0  0  0  0  0  0  0  0  0  0  0  0
   -8.2838    8.7282   -9.9768 N   0  0  0  0  0  0  0  0  0  0  0  0
   -8.4166    8.8609  -11.2984 N   0  0  0  0  0  0  0  0  0  0  0  0
   -7.3282    9.8959   -8.0269 C   0  0  0  0  0  0  0  0  0  0  0  0
   -4.4004   13.6489  -11.4541 N   0  0  0  0  0  0  0  0  0  0  0  0
   -3.4592   14.7715  -11.4916 C   0  0  0  0  0  0  0  0  0  0  0  0
   -5.5363   13.6231  -12.1917 C   0  0  0  0  0  0  0  0  0  0  0  0
   -5.8861   14.5056  -12.9557 O   0  0  0  0  0  0  0  0  0  0  0  0
   -5.9554   10.4909   -7.7390 C   0  0  0  0  0  0  0  0  0  0  0  0
   -5.8447   11.7612   -7.1661 C   0  0  0  0  0  0  0  0  0  0  0  0
   -4.5697   12.3054   -6.9214 C   0  0  0  0  0  0  0  0  0  0  0  0
   -3.4308   11.5801   -7.2259 C   0  0  0  0  0  0  0  0  0  0  0  0
   -3.5429   10.3015   -7.8076 C   0  0  0  0  0  0  0  0  0  0  0  0
   -4.8018    9.7661   -8.0596 C   0  0  0  0  0  0  0  0  0  0  0  0
   -4.4352   13.5609   -6.3638 O   0  0  0  0  0  0  0  0  0  0  0  0
   -3.6839   14.5445   -7.0766 C   0  0  0  0  0  0  0  0  0  0  0  0
   -2.1928   12.1397   -6.9410 O   0  0  0  0  0  0  0  0  0  0  0  0
   -1.0568   11.8071   -7.7386 C   0  0  0  0  0  0  0  0  0  0  0  0
   -6.0949   12.2992   -9.8722 H   0  0  0  0  0  0  0  0  0  0  0  0
   -8.1868   10.1246  -13.8882 H   0  0  0  0  0  0  0  0  0  0  0  0
   -7.6791   12.5355  -13.5348 H   0  0  0  0  0  0  0  0  0  0  0  0
   -6.1862   11.5916  -13.8618 H   0  0  0  0  0  0  0  0  0  0  0  0
   -8.0938   10.5530   -7.5887 H   0  0  0  0  0  0  0  0  0  0  0  0
   -7.3851    8.9027   -7.5575 H   0  0  0  0  0  0  0  0  0  0  0  0
   -2.6173   14.5676  -10.8136 H   0  0  0  0  0  0  0  0  0  0  0  0
   -3.0815   14.8991  -12.5168 H   0  0  0  0  0  0  0  0  0  0  0  0
   -3.9723   15.6908  -11.1728 H   0  0  0  0  0  0  0  0  0  0  0  0
   -5.2484   15.2095  -12.9404 H   0  0  0  0  0  0  0  0  0  0  0  0
   -6.7323   12.3219   -6.9127 H   0  0  0  0  0  0  0  0  0  0  0  0
   -2.6549    9.7395   -8.0568 H   0  0  0  0  0  0  0  0  0  0  0  0
   -4.8895    8.7861   -8.5049 H   0  0  0  0  0  0  0  0  0  0  0  0
   -3.6711   15.4833   -6.5034 H   0  0  0  0  0  0  0  0  0  0  0  0
   -2.6532   14.1872   -7.2178 H   0  0  0  0  0  0  0  0  0  0  0  0
   -4.1486   14.7205   -8.0580 H   0  0  0  0  0  0  0  0  0  0  0  0
   -0.1739   12.3445   -7.3623 H   0  0  0  0  0  0  0  0  0  0  0  0
   -0.8764   10.7233   -7.6856 H   0  0  0  0  0  0  0  0  0  0  0  0
   -1.2447   12.0969   -8.7830 H   0  0  0  0  0  0  0  0  0  0  0  0
  1  2  2  0  0  0  0
  1  4  1  0  0  0  0
  1 13  1  0  0  0  0
  2  6  1  0  0  0  0
  3  4  1  0  0  0  0
  3  5  2  0  0  0  0
  5  6  1  0  0  0  0
  5  9  1  0  0  0  0
  6  7  2  0  0  0  0
  7  8  1  0  0  0  0
  7 10  1  0  0  0  0
  8  9  2  0  0  0  0
 10 15  1  0  0  0  0
 11 12  1  0  0  0  0
 11 13  2  0  0  0  0
 13 14  1  0  0  0  0
 15 16  2  0  0  0  0
 15 20  1  0  0  0  0
 16 17  1  0  0  0  0
 17 18  2  0  0  0  0
 17 21  1  0  0  0  0
 18 19  1  0  0  0  0
 18 23  1  0  0  0  0
 19 20  2  0  0  0  0
 21 22  1  0  0  0  0
 23 24  1  0  0  0  0
  2 25  1  0  0  0  0
  3 26  1  0  0  0  0
  4 27  1  0  0  0  0
  4 28  1  0  0  0  0
 10 29  1  0  0  0  0
 10 30  1  0  0  0  0
 12 31  1  0  0  0  0
 12 32  1  0  0  0  0
 12 33  1  0  0  0  0
 14 34  1  0  0  0  0
 16 35  1  0  0  0  0
 19 36  1  0  0  0  0
 20 37  1  0  0  0  0
 22 38  1  0  0  0  0
 22 39  1  0  0  0  0
 22 40  1  0  0  0  0
 24 41  1  0  0  0  0
 24 42  1  0  0  0  0
 24 43  1  0  0  0  0
M  END
> <Name>
15

> <IC50[uM]>
2.5

$$$$
15
  -OEChem-05192314333D
 Structure written by MMmdl.
 43 45  0     0  0  0  0  0  0999 V2000
   -6.3730   12.3647  -12.0124 C   0  0  0  0  0  0  0  0  0  0  0  0
   -6.5249   11.8167  -10.7375 C   0  0  0  0  0  0  0  0  0  0  0  0
   -7.7225   10.5819  -13.0270 C   0  0  0  0  0  0  0  0  0  0  0  0
   -6.9871   11.7813  -13.1320 C   0  0  0  0  0  0  0  0  0  0  0  0
   -7.8205   10.0150  -11.7538 C   0  0  0  0  0  0  0  0  0  0  0  0
   -7.2514   10.6217  -10.6093 C   0  0  0  0  0  0  0  0  0  0  0  0
   -7.6113    9.7463   -9.5119 C   0  0  0  0  0  0  0  0  0  0  0  0
   -8.2838    8.7282   -9.9768 N   0  0  0  0  0  0  0  0  0  0  0  0
   -8.4166    8.8609  -11.2984 N   0  0  0  0  0  0  0  0  0  0  0  0
   -7.3282    9.8959   -8.0269 C   0  0  0  0  0  0  0  0  0  0  0  0
   -4.4004   13.6489  -11.4541 N   0  0  0  0  0  0  0  0  0  0  0  0
   -3.4592   14.7715  -11.4916 C   0  0  0  0  0  0  0  0  0  0  0  0
   -5.5363   13.6231  -12.1917 C   0  0  0  0  0  0  0  0  0  0  0  0
   -5.8861   14.5056  -12.9557 O   0  0  0  0  0  0  0  0  0  0  0  0
   -5.9554   10.4909   -7.7390 C   0  0  0  0  0  0  0  0  0  0  0  0
   -5.8447   11.7612   -7.1661 C   0  0  0  0  0  0  0  0  0  0  0  0
   -4.5697   12.3054   -6.9214 C   0  0  0  0  0  0  0  0  0  0  0  0
   -3.4308   11.5801   -7.2259 C   0  0  0  0  0  0  0  0  0  0  0  0
   -3.5429   10.3015   -7.8076 C   0  0  0  0  0  0  0  0  0  0  0  0
   -4.8018    9.7661   -8.0596 C   0  0  0  0  0  0  0  0  0  0  0  0
   -4.4352   13.5609   -6.3638 O   0  0  0  0  0  0  0  0  0  0  0  0
   -3.6839   14.5445   -7.0766 C   0  0  0  0  0  0  0  0  0  0  0  0
   -2.1928   12.1397   -6.9410 O   0  0  0  0  0  0  0  0  0  0  0  0
   -1.0568   11.8071   -7.7386 C   0  0  0  0  0  0  0  0  0  0  0  0
   -5.5161   11.6287  -10.3414 H   0  0  0  0  0  0  0  0  0  0  0  0
   -7.0280   12.5721  -10.1160 H   0  0  0  0  0  0  0  0  0  0  0  0
   -8.1868   10.1246  -13.8882 H   0  0  0  0  0  0  0  0  0  0  0  0
   -6.8945   12.2613  -14.0950 H   0  0  0  0  0  0  0  0  0  0  0  0
   -8.0938   10.5530   -7.5887 H   0  0  0  0  0  0  0  0  0  0  0  0
   -7.3851    8.9027   -7.5575 H   0  0  0  0  0  0  0  0  0  0  0  0
   -2.6173   14.5676  -10.8136 H   0  0  0  0  0  0  0  0  0  0  0  0
   -3.0815   14.8991  -12.5168 H   0  0  0  0  0  0  0  0  0  0  0  0
   -3.9723   15.6908  -11.1728 H   0  0  0  0  0  0  0  0  0  0  0  0
   -5.2484   15.2095  -12.9404 H   0  0  0  0  0  0  0  0  0  0  0  0
   -6.7323   12.3219   -6.9127 H   0  0  0  0  0  0  0  0  0  0  0  0
   -2.6549    9.7395   -8.0568 H   0  0  0  0  0  0  0  0  0  0  0  0
   -4.8895    8.7861   -8.5049 H   0  0  0  0  0  0  0  0  0  0  0  0
   -3.6711   15.4833   -6.5034 H   0  0  0  0  0  0  0  0  0  0  0  0
   -2.6532   14.1872   -7.2178 H   0  0  0  0  0  0  0  0  0  0  0  0
   -4.1486   14.7205   -8.0580 H   0  0  0  0  0  0  0  0  0  0  0  0
   -0.1739   12.3445   -7.3623 H   0  0  0  0  0  0  0  0  0  0  0  0
   -0.8764   10.7233   -7.6856 H   0  0  0  0  0  0  0  0  0  0  0  0
   -1.2447   12.0969   -8.7830 H   0  0  0  0  0  0  0  0  0  0  0  0
  1  2  1  0  0  0  0
  1  4  2  0  0  0  0
  1 13  1  0  0  0  0
  2  6  1  0  0  0  0
  3  4  1  0  0  0  0
  3  5  2  0  0  0  0
  5  6  1  0  0  0  0
  5  9  1  0  0  0  0
  6  7  2  0  0  0  0
  7  8  1  0  0  0  0
  7 10  1  0  0  0  0
  8  9  2  0  0  0  0
 10 15  1  0  0  0  0
 11 12  1  0  0  0  0
 11 13  2  0  0  0  0
 13 14  1  0  0  0  0
 15 16  2  0  0  0  0
 15 20  1  0  0  0  0
 16 17  1  0  0  0  0
 17 18  2  0  0  0  0
 17 21  1  0  0  0  0
 18 19  1  0  0  0  0
 18 23  1  0  0  0  0
 19 20  2  0  0  0  0
 21 22  1  0  0  0  0
 23 24  1  0  0  0  0
  2 25  1  0  0  0  0
  2 26  1  0  0  0  0
  3 27  1  0  0  0  0
  4 28  1  0  0  0  0
 10 29  1  0  0  0  0
 10 30  1  0  0  0  0
 12 31  1  0  0  0  0
 12 32  1  0  0  0  0
 12 33  1  0  0  0  0
 14 34  1  0  0  0  0
 16 35  1  0  0  0  0
 19 36  1  0  0  0  0
 20 37  1  0  0  0  0
 22 38  1  0  0  0  0
 22 39  1  0  0  0  0
 22 40  1  0  0  0  0
 24 41  1  0  0  0  0
 24 42  1  0  0  0  0
 24 43  1  0  0  0  0
M  END
> <Name>
15

> <IC50[uM]>
2.5

$$$$
15
  -OEChem-05192314333D
 Structure written by MMmdl.
 43 45  0     1  0  0  0  0  0999 V2000
   -6.3730   12.3647  -12.0124 C   0  0  0  0  0  0  0  0  0  0  0  0
   -6.5249   11.8167  -10.7375 C   0  0  0  0  0  0  0  0  0  0  0  0
   -7.7225   10.5819  -13.0270 C   0  0  0  0  0  0  0  0  0  0  0  0
   -6.9871   11.7813  -13.1320 C   0  0  0  0  0  0  0  0  0  0  0  0
   -7.8205   10.0150  -11.7538 C   0  0  0  0  0  0  0  0  0  0  0  0
   -7.2514   10.6217  -10.6093 C   0  0  3  0  0  0  0  0  0  0  0  0
   -7.6113    9.7463   -9.5119 C   0  0  0  0  0  0  0  0  0  0  0  0
   -8.2838    8.7282   -9.9768 N   0  0  0  0  0  0  0  0  0  0  0  0
   -8.4166    8.8609  -11.2984 N   0  0  0  0  0  0  0  0  0  0  0  0
   -7.3282    9.8959   -8.0269 C   0  0  0  0  0  0  0  0  0  0  0  0
   -4.4004   13.6489  -11.4541 N   0  0  0  0  0  0  0  0  0  0  0  0
   -3.4592   14.7715  -11.4916 C   0  0  0  0  0  0  0  0  0  0  0  0
   -5.5363   13.6231  -12.1917 C   0  0  0  0  0  0  0  0  0  0  0  0
   -5.8861   14.5056  -12.9557 O   0  0  0  0  0  0  0  0  0  0  0  0
   -5.9554   10.4909   -7.7390 C   0  0  0  0  0  0  0  0  0  0  0  0
   -5.8447   11.7612   -7.1661 C   0  0  0  0  0  0  0  0  0  0  0  0
   -4.5697   12.3054   -6.9214 C   0  0  0  0  0  0  0  0  0  0  0  0
   -3.4308   11.5801   -7.2259 C   0  0  0  0  0  0  0  0  0  0  0  0
   -3.5429   10.3015   -7.8076 C   0  0  0  0  0  0  0  0  0  0  0  0
   -4.8018    9.7661   -8.0596 C   0  0  0  0  0  0  0  0  0  0  0  0
   -4.4352   13.5609   -6.3638 O   0  0  0  0  0  0  0  0  0  0  0  0
   -3.6839   14.5445   -7.0766 C   0  0  0  0  0  0  0  0  0  0  0  0
   -2.1928   12.1397   -6.9410 O   0  0  0  0  0  0  0  0  0  0  0  0
   -1.0568   11.8071   -7.7386 C   0  0  0  0  0  0  0  0  0  0  0  0
   -6.0949   12.2992   -9.8722 H   0  0  0  0  0  0  0  0  0  0  0  0
   -8.1868   10.1246  -13.8882 H   0  0  0  0  0  0  0  0  0  0  0  0
   -6.8945   12.2613  -14.0950 H   0  0  0  0  0  0  0  0  0  0  0  0
   -8.1752   11.1984  -10.4540 H   0  0  0  0  0  0  0  0  0  0  0  0
   -8.6418    7.9709   -9.4306 H   0  0  0  0  0  0  0  0  0  0  0  0
   -8.0276    9.6101   -7.2552 H   0  0  0  0  0  0  0  0  0  0  0  0
   -2.6173   14.5676  -10.8136 H   0  0  0  0  0  0  0  0  0  0  0  0
   -3.0815   14.8991  -12.5168 H   0  0  0  0  0  0  0  0  0  0  0  0
   -3.9723   15.6908  -11.1728 H   0  0  0  0  0  0  0  0  0  0  0  0
   -5.2484   15.2095  -12.9404 H   0  0  0  0  0  0  0  0  0  0  0  0
   -6.7323   12.3219   -6.9127 H   0  0  0  0  0  0  0  0  0  0  0  0
   -2.6549    9.7395   -8.0568 H   0  0  0  0  0  0  0  0  0  0  0  0
   -4.8895    8.7861   -8.5049 H   0  0  0  0  0  0  0  0  0  0  0  0
   -3.6711   15.4833   -6.5034 H   0  0  0  0  0  0  0  0  0  0  0  0
   -2.6532   14.1872   -7.2178 H   0  0  0  0  0  0  0  0  0  0  0  0
   -4.1486   14.7205   -8.0580 H   0  0  0  0  0  0  0  0  0  0  0  0
   -0.1739   12.3445   -7.3623 H   0  0  0  0  0  0  0  0  0  0  0  0
   -0.8764   10.7233   -7.6856 H   0  0  0  0  0  0  0  0  0  0  0  0
   -1.2447   12.0969   -8.7830 H   0  0  0  0  0  0  0  0  0  0  0  0
  1  2  2  0  0  0  0
  1  4  1  0  0  0  0
  1 13  1  0  0  0  0
  2  6  1  0  0  0  0
  3  4  2  0  0  0  0
  3  5  1  0  0  0  0
  5  6  1  0  0  0  0
  5  9  2  0  0  0  0
  6  7  1  0  0  0  0
  7  8  1  0  0  0  0
  7 10  2  3  0  0  0
  8  9  1  0  0  0  0
 10 15  1  0  0  0  0
 11 12  1  0  0  0  0
 11 13  2  0  0  0  0
 13 14  1  0  0  0  0
 15 16  2  0  0  0  0
 15 20  1  0  0  0  0
 16 17  1  0  0  0  0
 17 18  2  0  0  0  0
 17 21  1  0  0  0  0
 18 19  1  0  0  0  0
 18 23  1  0  0  0  0
 19 20  2  0  0  0  0
 21 22  1  0  0  0  0
 23 24  1  0  0  0  0
  2 25  1  0  0  0  0
  3 26  1  0  0  0  0
  4 27  1  0  0  0  0
  6 28  1  0  0  0  0
  8 29  1  0  0  0  0
 10 30  1  0  0  0  0
 12 31  1  0  0  0  0
 12 32  1  0  0  0  0
 12 33  1  0  0  0  0
 14 34  1  0  0  0  0
 16 35  1  0  0  0  0
 19 36  1  0  0  0  0
 20 37  1  0  0  0  0
 22 38  1  0  0  0  0
 22 39  1  0  0  0  0
 22 40  1  0  0  0  0
 24 41  1  0  0  0  0
 24 42  1  0  0  0  0
 24 43  1  0  0  0  0
M  END
> <Name>
15

> <IC50[uM]>
2.5

$$$$
15
  -OEChem-05192314333D
 Structure written by MMmdl.
 43 45  0     1  0  0  0  0  0999 V2000
   -6.3730   12.3647  -12.0124 C   0  0  3  0  0  0  0  0  0  0  0  0
   -6.5249   11.8167  -10.7375 C   0  0  0  0  0  0  0  0  0  0  0  0
   -7.7225   10.5819  -13.0270 C   0  0  0  0  0  0  0  0  0  0  0  0
   -6.9871   11.7813  -13.1320 C   0  0  0  0  0  0  0  0  0  0  0  0
   -7.8205   10.0150  -11.7538 C   0  0  0  0  0  0  0  0  0  0  0  0
   -7.2514   10.6217  -10.6093 C   0  0  0  0  0  0  0  0  0  0  0  0
   -7.6113    9.7463   -9.5119 C   0  0  0  0  0  0  0  0  0  0  0  0
   -8.2838    8.7282   -9.9768 N   0  0  0  0  0  0  0  0  0  0  0  0
   -8.4166    8.8609  -11.2984 N   0  0  0  0  0  0  0  0  0  0  0  0
   -7.3282    9.8959   -8.0269 C   0  0  0  0  0  0  0  0  0  0  0  0
   -4.4004   13.6489  -11.4541 N   0  0  0  0  0  0  0  0  0  0  0  0
   -3.4592   14.7715  -11.4916 C   0  0  0  0  0  0  0  0  0  0  0  0
   -5.5363   13.6231  -12.1917 C   0  0  0  0  0  0  0  0  0  0  0  0
   -5.8861   14.5056  -12.9557 O   0  0  0  0  0  0  0  0  0  0  0  0
   -5.9554   10.4909   -7.7390 C   0  0  0  0  0  0  0  0  0  0  0  0
   -5.8447   11.7612   -7.1661 C   0  0  0  0  0  0  0  0  0  0  0  0
   -4.5697   12.3054   -6.9214 C   0  0  0  0  0  0  0  0  0  0  0  0
   -3.4308   11.5801   -7.2259 C   0  0  3  0  0  0  0  0  0  0  0  0
   -3.5429   10.3015   -7.8076 C   0  0  0  0  0  0  0  0  0  0  0  0
   -4.8018    9.7661   -8.0596 C   0  0  0  0  0  0  0  0  0  0  0  0
   -4.4352   13.5609   -6.3638 O   0  0  0  0  0  0  0  0  0  0  0  0
   -3.6839   14.5445   -7.0766 C   0  0  0  0  0  0  0  0  0  0  0  0
   -2.1928   12.1397   -6.9410 O   0  0  0  0  0  0  0  0  0  0  0  0
   -1.0568   11.8071   -7.7386 C   0  0  0  0  0  0  0  0  0  0  0  0
   -5.4795   11.7442  -12.1757 H   0  0  0  0  0  0  0  0  0  0  0  0
   -6.0949   12.2992   -9.8722 H   0  0  0  0  0  0  0  0  0  0  0  0
   -8.1868   10.1246  -13.8882 H   0  0  0  0  0  0  0  0  0  0  0  0
   -6.8945   12.2613  -14.0950 H   0  0  0  0  0  0  0  0  0  0  0  0
   -8.0276    9.6101   -7.2552 H   0  0  0  0  0  0  0  0  0  0  0  0
   -4.1959   12.8707  -10.8602 H   0  0  0  0  0  0  0  0  0  0  0  0
   -2.6173   14.5676  -10.8136 H   0  0  0  0  0  0  0  0  0  0  0  0
   -3.0815   14.8991  -12.5168 H   0  0  0  0  0  0  0  0  0  0  0  0
   -3.9723   15.6908  -11.1728 H   0  0  0  0  0  0  0  0  0  0  0  0
   -6.7323   12.3219   -6.9127 H   0  0  0  0  0  0  0  0  0  0  0  0
   -3.4073   12.0349   -8.2272 H   0  0  0  0  0  0  0  0  0  0  0  0
   -2.6549    9.7395   -8.0568 H   0  0  0  0  0  0  0  0  0  0  0  0
   -4.8895    8.7861   -8.5049 H   0  0  0  0  0  0  0  0  0  0  0  0
   -3.6711   15.4833   -6.5034 H   0  0  0  0  0  0  0  0  0  0  0  0
   -2.6532   14.1872   -7.2178 H   0  0  0  0  0  0  0  0  0  0  0  0
   -4.1486   14.7205   -8.0580 H   0  0  0  0  0  0  0  0  0  0  0  0
   -0.1739   12.3445   -7.3623 H   0  0  0  0  0  0  0  0  0  0  0  0
   -0.8764   10.7233   -7.6856 H   0  0  0  0  0  0  0  0  0  0  0  0
   -1.2447   12.0969   -8.7830 H   0  0  0  0  0  0  0  0  0  0  0  0
  1  2  1  0  0  0  0
  1  4  1  0  0  0  0
  1 13  1  0  0  0  0
  2  6  2  0  0  0  0
  3  4  2  0  0  0  0
  3  5  1  0  0  0  0
  5  6  1  0  0  0  0
  5  9  2  0  0  0  0
  6  7  1  0  0  0  0
  7  8  2  0  0  0  0
  7 10  1  0  0  0  0
  8  9  1  0  0  0  0
 10 15  2  3  0  0  0
 11 12  1  0  0  0  0
 11 13  1  0  0  0  0
 13 14  2  0  0  0  0
 15 16  1  0  0  0  0
 15 20  1  0  0  0  0
 16 17  2  0  0  0  0
 17 18  1  0  0  0  0
 17 21  1  0  0  0  0
 18 19  1  0  0  0  0
 18 23  1  0  0  0  0
 19 20  2  0  0  0  0
 21 22  1  0  0  0  0
 23 24  1  0  0  0  0
  1 25  1  0  0  0  0
  2 26  1  0  0  0  0
  3 27  1  0  0  0  0
  4 28  1  0  0  0  0
 10 29  1  0  0  0  0
 11 30  1  0  0  0  0
 12 31  1  0  0  0  0
 12 32  1  0  0  0  0
 12 33  1  0  0  0  0
 16 34  1  0  0  0  0
 18 35  1  0  0  0  0
 19 36  1  0  0  0  0
 20 37  1  0  0  0  0
 22 38  1  0  0  0  0
 22 39  1  0  0  0  0
 22 40  1  0  0  0  0
 24 41  1  0  0  0  0
 24 42  1  0  0  0  0
 24 43  1  0  0  0  0
M  END
> <Name>
15

> <IC50[uM]>
2.5

$$$$
15
  -OEChem-05192314333D
 Structure written by MMmdl.
 43 45  0     1  0  0  0  0  0999 V2000
   -6.3730   12.3647  -12.0124 C   0  0  0  0  0  0  0  0  0  0  0  0
   -6.5249   11.8167  -10.7375 C   0  0  0  0  0  0  0  0  0  0  0  0
   -7.7225   10.5819  -13.0270 C   0  0  0  0  0  0  0  0  0  0  0  0
   -6.9871   11.7813  -13.1320 C   0  0  0  0  0  0  0  0  0  0  0  0
   -7.8205   10.0150  -11.7538 C   0  0  0  0  0  0  0  0  0  0  0  0
   -7.2514   10.6217  -10.6093 C   0  0  3  0  0  0  0  0  0  0  0  0
   -7.6113    9.7463   -9.5119 C   0  0  0  0  0  0  0  0  0  0  0  0
   -8.2838    8.7282   -9.9768 N   0  0  0  0  0  0  0  0  0  0  0  0
   -8.4166    8.8609  -11.2984 N   0  0  0  0  0  0  0  0  0  0  0  0
   -7.3282    9.8959   -8.0269 C   0  0  0  0  0  0  0  0  0  0  0  0
   -4.4004   13.6489  -11.4541 N   0  0  0  0  0  0  0  0  0  0  0  0
   -3.4592   14.7715  -11.4916 C   0  0  0  0  0  0  0  0  0  0  0  0
   -5.5363   13.6231  -12.1917 C   0  0  0  0  0  0  0  0  0  0  0  0
   -5.8861   14.5056  -12.9557 O   0  0  0  0  0  0  0  0  0  0  0  0
   -5.9554   10.4909   -7.7390 C   0  0  0  0  0  0  0  0  0  0  0  0
   -5.8447   11.7612   -7.1661 C   0  0  0  0  0  0  0  0  0  0  0  0
   -4.5697   12.3054   -6.9214 C   0  0  0  0  0  0  0  0  0  0  0  0
   -3.4308   11.5801   -7.2259 C   0  0  3  0  0  0  0  0  0  0  0  0
   -3.5429   10.3015   -7.8076 C   0  0  0  0  0  0  0  0  0  0  0  0
   -4.8018    9.7661   -8.0596 C   0  0  0  0  0  0  0  0  0  0  0  0
   -4.4352   13.5609   -6.3638 O   0  0  0  0  0  0  0  0  0  0  0  0
   -3.6839   14.5445   -7.0766 C   0  0  0  0  0  0  0  0  0  0  0  0
   -2.1928   12.1397   -6.9410 O   0  0  0  0  0  0  0  0  0  0  0  0
   -1.0568   11.8071   -7.7386 C   0  0  0  0  0  0  0  0  0  0  0  0
   -6.0949   12.2992   -9.8722 H   0  0  0  0  0  0  0  0  0  0  0  0
   -8.1868   10.1246  -13.8882 H   0  0  0  0  0  0  0  0  0  0  0  0
   -6.8945   12.2613  -14.0950 H   0  0  0  0  0  0  0  0  0  0  0  0
   -8.1752   11.1984  -10.4540 H   0  0  0  0  0  0  0  0  0  0  0  0
   -8.0276    9.6101   -7.2552 H   0  0  0  0  0  0  0  0  0  0  0  0
   -4.1959   12.8707  -10.8602 H   0  0  0  0  0  0  0  0  0  0  0  0
   -2.6173   14.5676  -10.8136 H   0  0  0  0  0  0  0  0  0  0  0  0
   -3.0815   14.8991  -12.5168 H   0  0  0  0  0  0  0  0  0  0  0  0
   -3.9723   15.6908  -11.1728 H   0  0  0  0  0  0  0  0  0  0  0  0
   -6.7323   12.3219   -6.9127 H   0  0  0  0  0  0  0  0  0  0  0  0
   -3.4073   12.0349   -8.2272 H   0  0  0  0  0  0  0  0  0  0  0  0
   -2.6549    9.7395   -8.0568 H   0  0  0  0  0  0  0  0  0  0  0  0
   -4.8895    8.7861   -8.5049 H   0  0  0  0  0  0  0  0  0  0  0  0
   -3.6711   15.4833   -6.5034 H   0  0  0  0  0  0  0  0  0  0  0  0
   -2.6532   14.1872   -7.2178 H   0  0  0  0  0  0  0  0  0  0  0  0
   -4.1486   14.7205   -8.0580 H   0  0  0  0  0  0  0  0  0  0  0  0
   -0.1739   12.3445   -7.3623 H   0  0  0  0  0  0  0  0  0  0  0  0
   -0.8764   10.7233   -7.6856 H   0  0  0  0  0  0  0  0  0  0  0  0
   -1.2447   12.0969   -8.7830 H   0  0  0  0  0  0  0  0  0  0  0  0
  1  2  2  0  0  0  0
  1  4  1  0  0  0  0
  1 13  1  0  0  0  0
  2  6  1  0  0  0  0
  3  4  2  0  0  0  0
  3  5  1  0  0  0  0
  5  6  1  0  0  0  0
  5  9  2  0  0  0  0
  6  7  1  0  0  0  0
  7  8  2  0  0  0  0
  7 10  1  0  0  0  0
  8  9  1  0  0  0  0
 10 15  2  3  0  0  0
 11 12  1  0  0  0  0
 11 13  1  0  0  0  0
 13 14  2  0  0  0  0
 15 16  1  0  0  0  0
 15 20  1  0  0  0  0
 16 17  2  0  0  0  0
 17 18  1  0  0  0  0
 17 21  1  0  0  0  0
 18 19  1  0  0  0  0
 18 23  1  0  0  0  0
 19 20  2  0  0  0  0
 21 22  1  0  0  0  0
 23 24  1  0  0  0  0
  2 25  1  0  0  0  0
  3 26  1  0  0  0  0
  4 27  1  0  0  0  0
  6 28  1  0  0  0  0
 10 29  1  0  0  0  0
 11 30  1  0  0  0  0
 12 31  1  0  0  0  0
 12 32  1  0  0  0  0
 12 33  1  0  0  0  0
 16 34  1  0  0  0  0
 18 35  1  0  0  0  0
 19 36  1  0  0  0  0
 20 37  1  0  0  0  0
 22 38  1  0  0  0  0
 22 39  1  0  0  0  0
 22 40  1  0  0  0  0
 24 41  1  0  0  0  0
 24 42  1  0  0  0  0
 24 43  1  0  0  0  0
M  END
> <Name>
15

> <IC50[uM]>
2.5

$$$$
15
  -OEChem-05192314333D
 Structure written by MMmdl.
 43 45  0     1  0  0  0  0  0999 V2000
   -6.3730   12.3647  -12.0124 C   0  0  0  0  0  0  0  0  0  0  0  0
   -6.5249   11.8167  -10.7375 C   0  0  0  0  0  0  0  0  0  0  0  0
   -7.7225   10.5819  -13.0270 C   0  0  0  0  0  0  0  0  0  0  0  0
   -6.9871   11.7813  -13.1320 C   0  0  0  0  0  0  0  0  0  0  0  0
   -7.8205   10.0150  -11.7538 C   0  0  0  0  0  0  0  0  0  0  0  0
   -7.2514   10.6217  -10.6093 C   0  0  0  0  0  0  0  0  0  0  0  0
   -7.6113    9.7463   -9.5119 C   0  0  0  0  0  0  0  0  0  0  0  0
   -8.2838    8.7282   -9.9768 N   0  0  0  0  0  0  0  0  0  0  0  0
   -8.4166    8.8609  -11.2984 N   0  0  0  0  0  0  0  0  0  0  0  0
   -7.3282    9.8959   -8.0269 C   0  0  0  0  0  0  0  0  0  0  0  0
   -4.4004   13.6489  -11.4541 N   0  0  0  0  0  0  0  0  0  0  0  0
   -3.4592   14.7715  -11.4916 C   0  0  0  0  0  0  0  0  0  0  0  0
   -5.5363   13.6231  -12.1917 C   0  0  0  0  0  0  0  0  0  0  0  0
   -5.8861   14.5056  -12.9557 O   0  0  0  0  0  0  0  0  0  0  0  0
   -5.9554   10.4909   -7.7390 C   0  0  0  0  0  0  0  0  0  0  0  0
   -5.8447   11.7612   -7.1661 C   0  0  0  0  0  0  0  0  0  0  0  0
   -4.5697   12.3054   -6.9214 C   0  0  0  0  0  0  0  0  0  0  0  0
   -3.4308   11.5801   -7.2259 C   0  0  3  0  0  0  0  0  0  0  0  0
   -3.5429   10.3015   -7.8076 C   0  0  0  0  0  0  0  0  0  0  0  0
   -4.8018    9.7661   -8.0596 C   0  0  0  0  0  0  0  0  0  0  0  0
   -4.4352   13.5609   -6.3638 O   0  0  0  0  0  0  0  0  0  0  0  0
   -3.6839   14.5445   -7.0766 C   0  0  0  0  0  0  0  0  0  0  0  0
   -2.1928   12.1397   -6.9410 O   0  0  0  0  0  0  0  0  0  0  0  0
   -1.0568   11.8071   -7.7386 C   0  0  0  0  0  0  0  0  0  0  0  0
   -6.0949   12.2992   -9.8722 H   0  0  0  0  0  0  0  0  0  0  0  0
   -8.7440   10.7853  -13.3808 H   0  0  0  0  0  0  0  0  0  0  0  0
   -7.2470    9.8407  -13.6861 H   0  0  0  0  0  0  0  0  0  0  0  0
   -6.8945   12.2613  -14.0950 H   0  0  0  0  0  0  0  0  0  0  0  0
   -8.0276    9.6101   -7.2552 H   0  0  0  0  0  0  0  0  0  0  0  0
   -4.1959   12.8707  -10.8602 H   0  0  0  0  0  0  0  0  0  0  0  0
   -2.6173   14.5676  -10.8136 H   0  0  0  0  0  0  0  0  0  0  0  0
   -3.0815   14.8991  -12.5168 H   0  0  0  0  0  0  0  0  0  0  0  0
   -3.9723   15.6908  -11.1728 H   0  0  0  0  0  0  0  0  0  0  0  0
   -6.7323   12.3219   -6.9127 H   0  0  0  0  0  0  0  0  0  0  0  0
   -3.4073   12.0349   -8.2272 H   0  0  0  0  0  0  0  0  0  0  0  0
   -2.6549    9.7395   -8.0568 H   0  0  0  0  0  0  0  0  0  0  0  0
   -4.8895    8.7861   -8.5049 H   0  0  0  0  0  0  0  0  0  0  0  0
   -3.6711   15.4833   -6.5034 H   0  0  0  0  0  0  0  0  0  0  0  0
   -2.6532   14.1872   -7.2178 H   0  0  0  0  0  0  0  0  0  0  0  0
   -4.1486   14.7205   -8.0580 H   0  0  0  0  0  0  0  0  0  0  0  0
   -0.1739   12.3445   -7.3623 H   0  0  0  0  0  0  0  0  0  0  0  0
   -0.8764   10.7233   -7.6856 H   0  0  0  0  0  0  0  0  0  0  0  0
   -1.2447   12.0969   -8.7830 H   0  0  0  0  0  0  0  0  0  0  0  0
  1  2  1  0  0  0  0
  1  4  2  0  0  0  0
  1 13  1  0  0  0  0
  2  6  2  0  0  0  0
  3  4  1  0  0  0  0
  3  5  1  0  0  0  0
  5  6  1  0  0  0  0
  5  9  2  0  0  0  0
  6  7  1  0  0  0  0
  7  8  2  0  0  0  0
  7 10  1  0  0  0  0
  8  9  1  0  0  0  0
 10 15  2  3  0  0  0
 11 12  1  0  0  0  0
 11 13  1  0  0  0  0
 13 14  2  0  0  0  0
 15 16  1  0  0  0  0
 15 20  1  0  0  0  0
 16 17  2  0  0  0  0
 17 18  1  0  0  0  0
 17 21  1  0  0  0  0
 18 19  1  0  0  0  0
 18 23  1  0  0  0  0
 19 20  2  0  0  0  0
 21 22  1  0  0  0  0
 23 24  1  0  0  0  0
  2 25  1  0  0  0  0
  3 26  1  0  0  0  0
  3 27  1  0  0  0  0
  4 28  1  0  0  0  0
 10 29  1  0  0  0  0
 11 30  1  0  0  0  0
 12 31  1  0  0  0  0
 12 32  1  0  0  0  0
 12 33  1  0  0  0  0
 16 34  1  0  0  0  0
 18 35  1  0  0  0  0
 19 36  1  0  0  0  0
 20 37  1  0  0  0  0
 22 38  1  0  0  0  0
 22 39  1  0  0  0  0
 22 40  1  0  0  0  0
 24 41  1  0  0  0  0
 24 42  1  0  0  0  0
 24 43  1  0  0  0  0
M  END
> <Name>
15

> <IC50[uM]>
2.5

$$$$
15
  -OEChem-05192314333D
 Structure written by MMmdl.
 43 45  0     1  0  0  0  0  0999 V2000
   -6.3730   12.3647  -12.0124 C   0  0  3  0  0  0  0  0  0  0  0  0
   -6.5249   11.8167  -10.7375 C   0  0  0  0  0  0  0  0  0  0  0  0
   -7.7225   10.5819  -13.0270 C   0  0  0  0  0  0  0  0  0  0  0  0
   -6.9871   11.7813  -13.1320 C   0  0  0  0  0  0  0  0  0  0  0  0
   -7.8205   10.0150  -11.7538 C   0  0  0  0  0  0  0  0  0  0  0  0
   -7.2514   10.6217  -10.6093 C   0  0  0  0  0  0  0  0  0  0  0  0
   -7.6113    9.7463   -9.5119 C   0  0  0  0  0  0  0  0  0  0  0  0
   -8.2838    8.7282   -9.9768 N   0  0  0  0  0  0  0  0  0  0  0  0
   -8.4166    8.8609  -11.2984 N   0  0  0  0  0  0  0  0  0  0  0  0
   -7.3282    9.8959   -8.0269 C   0  0  0  0  0  0  0  0  0  0  0  0
   -4.4004   13.6489  -11.4541 N   0  0  0  0  0  0  0  0  0  0  0  0
   -3.4592   14.7715  -11.4916 C   0  0  0  0  0  0  0  0  0  0  0  0
   -5.5363   13.6231  -12.1917 C   0  0  0  0  0  0  0  0  0  0  0  0
   -5.8861   14.5056  -12.9557 O   0  0  0  0  0  0  0  0  0  0  0  0
   -5.9554   10.4909   -7.7390 C   0  0  0  0  0  0  0  0  0  0  0  0
   -5.8447   11.7612   -7.1661 C   0  0  0  0  0  0  0  0  0  0  0  0
   -4.5697   12.3054   -6.9214 C   0  0  0  0  0  0  0  0  0  0  0  0
   -3.4308   11.5801   -7.2259 C   0  0  0  0  0  0  0  0  0  0  0  0
   -3.5429   10.3015   -7.8076 C   0  0  0  0  0  0  0  0  0  0  0  0
   -4.8018    9.7661   -8.0596 C   0  0  0  0  0  0  0  0  0  0  0  0
   -4.4352   13.5609   -6.3638 O   0  0  0  0  0  0  0  0  0  0  0  0
   -3.6839   14.5445   -7.0766 C   0  0  0  0  0  0  0  0  0  0  0  0
   -2.1928   12.1397   -6.9410 O   0  0  0  0  0  0  0  0  0  0  0  0
   -1.0568   11.8071   -7.7386 C   0  0  0  0  0  0  0  0  0  0  0  0
   -5.4795   11.7442  -12.1757 H   0  0  0  0  0  0  0  0  0  0  0  0
   -6.0949   12.2992   -9.8722 H   0  0  0  0  0  0  0  0  0  0  0  0
   -8.1868   10.1246  -13.8882 H   0  0  0  0  0  0  0  0  0  0  0  0
   -6.8945   12.2613  -14.0950 H   0  0  0  0  0  0  0  0  0  0  0  0
   -8.0276    9.6101   -7.2552 H   0  0  0  0  0  0  0  0  0  0  0  0
   -4.1959   12.8707  -10.8602 H   0  0  0  0  0  0  0  0  0  0  0  0
   -2.6173   14.5676  -10.8136 H   0  0  0  0  0  0  0  0  0  0  0  0
   -3.0815   14.8991  -12.5168 H   0  0  0  0  0  0  0  0  0  0  0  0
   -3.9723   15.6908  -11.1728 H   0  0  0  0  0  0  0  0  0  0  0  0
   -6.7323   12.3219   -6.9127 H   0  0  0  0  0  0  0  0  0  0  0  0
   -2.6549    9.7395   -8.0568 H   0  0  0  0  0  0  0  0  0  0  0  0
   -4.8592    8.8187   -7.5036 H   0  0  0  0  0  0  0  0  0  0  0  0
   -4.8475    9.5609   -9.1393 H   0  0  0  0  0  0  0  0  0  0  0  0
   -3.6711   15.4833   -6.5034 H   0  0  0  0  0  0  0  0  0  0  0  0
   -2.6532   14.1872   -7.2178 H   0  0  0  0  0  0  0  0  0  0  0  0
   -4.1486   14.7205   -8.0580 H   0  0  0  0  0  0  0  0  0  0  0  0
   -0.1739   12.3445   -7.3623 H   0  0  0  0  0  0  0  0  0  0  0  0
   -0.8764   10.7233   -7.6856 H   0  0  0  0  0  0  0  0  0  0  0  0
   -1.2447   12.0969   -8.7830 H   0  0  0  0  0  0  0  0  0  0  0  0
  1  2  1  0  0  0  0
  1  4  1  0  0  0  0
  1 13  1  0  0  0  0
  2  6  2  0  0  0  0
  3  4  2  0  0  0  0
  3  5  1  0  0  0  0
  5  6  1  0  0  0  0
  5  9  2  0  0  0  0
  6  7  1  0  0  0  0
  7  8  2  0  0  0  0
  7 10  1  0  0  0  0
  8  9  1  0  0  0  0
 10 15  2  3  0  0  0
 11 12  1  0  0  0  0
 11 13  1  0  0  0  0
 13 14  2  0  0  0  0
 15 16  1  0  0  0  0
 15 20  1  0  0  0  0
 16 17  2  0  0  0  0
 17 18  1  0  0  0  0
 17 21  1  0  0  0  0
 18 19  2  0  0  0  0
 18 23  1  0  0  0  0
 19 20  1  0  0  0  0
 21 22  1  0  0  0  0
 23 24  1  0  0  0  0
  1 25  1  0  0  0  0
  2 26  1  0  0  0  0
  3 27  1  0  0  0  0
  4 28  1  0  0  0  0
 10 29  1  0  0  0  0
 11 30  1  0  0  0  0
 12 31  1  0  0  0  0
 12 32  1  0  0  0  0
 12 33  1  0  0  0  0
 16 34  1  0  0  0  0
 19 35  1  0  0  0  0
 20 36  1  0  0  0  0
 20 37  1  0  0  0  0
 22 38  1  0  0  0  0
 22 39  1  0  0  0  0
 22 40  1  0  0  0  0
 24 41  1  0  0  0  0
 24 42  1  0  0  0  0
 24 43  1  0  0  0  0
M  END
> <Name>
15

> <IC50[uM]>
2.5

$$$$
15
  -OEChem-05192314333D
 Structure written by MMmdl.
 43 45  0     1  0  0  0  0  0999 V2000
   -6.3730   12.3647  -12.0124 C   0  0  0  0  0  0  0  0  0  0  0  0
   -6.5249   11.8167  -10.7375 C   0  0  0  0  0  0  0  0  0  0  0  0
   -7.7225   10.5819  -13.0270 C   0  0  0  0  0  0  0  0  0  0  0  0
   -6.9871   11.7813  -13.1320 C   0  0  0  0  0  0  0  0  0  0  0  0
   -7.8205   10.0150  -11.7538 C   0  0  0  0  0  0  0  0  0  0  0  0
   -7.2514   10.6217  -10.6093 C   0  0  3  0  0  0  0  0  0  0  0  0
   -7.6113    9.7463   -9.5119 C   0  0  0  0  0  0  0  0  0  0  0  0
   -8.2838    8.7282   -9.9768 N   0  0  0  0  0  0  0  0  0  0  0  0
   -8.4166    8.8609  -11.2984 N   0  0  0  0  0  0  0  0  0  0  0  0
   -7.3282    9.8959   -8.0269 C   0  0  0  0  0  0  0  0  0  0  0  0
   -4.4004   13.6489  -11.4541 N   0  0  0  0  0  0  0  0  0  0  0  0
   -3.4592   14.7715  -11.4916 C   0  0  0  0  0  0  0  0  0  0  0  0
   -5.5363   13.6231  -12.1917 C   0  0  0  0  0  0  0  0  0  0  0  0
   -5.8861   14.5056  -12.9557 O   0  0  0  0  0  0  0  0  0  0  0  0
   -5.9554   10.4909   -7.7390 C   0  0  0  0  0  0  0  0  0  0  0  0
   -5.8447   11.7612   -7.1661 C   0  0  0  0  0  0  0  0  0  0  0  0
   -4.5697   12.3054   -6.9214 C   0  0  0  0  0  0  0  0  0  0  0  0
   -3.4308   11.5801   -7.2259 C   0  0  0  0  0  0  0  0  0  0  0  0
   -3.5429   10.3015   -7.8076 C   0  0  0  0  0  0  0  0  0  0  0  0
   -4.8018    9.7661   -8.0596 C   0  0  0  0  0  0  0  0  0  0  0  0
   -4.4352   13.5609   -6.3638 O   0  0  0  0  0  0  0  0  0  0  0  0
   -3.6839   14.5445   -7.0766 C   0  0  0  0  0  0  0  0  0  0  0  0
   -2.1928   12.1397   -6.9410 O   0  0  0  0  0  0  0  0  0  0  0  0
   -1.0568   11.8071   -7.7386 C   0  0  0  0  0  0  0  0  0  0  0  0
   -6.0949   12.2992   -9.8722 H   0  0  0  0  0  0  0  0  0  0  0  0
   -8.1868   10.1246  -13.8882 H   0  0  0  0  0  0  0  0  0  0  0  0
   -6.8945   12.2613  -14.0950 H   0  0  0  0  0  0  0  0  0  0  0  0
   -8.1752   11.1984  -10.4540 H   0  0  0  0  0  0  0  0  0  0  0  0
   -8.0276    9.6101   -7.2552 H   0  0  0  0  0  0  0  0  0  0  0  0
   -4.1959   12.8707  -10.8602 H   0  0  0  0  0  0  0  0  0  0  0  0
   -2.6173   14.5676  -10.8136 H   0  0  0  0  0  0  0  0  0  0  0  0
   -3.0815   14.8991  -12.5168 H   0  0  0  0  0  0  0  0  0  0  0  0
   -3.9723   15.6908  -11.1728 H   0  0  0  0  0  0  0  0  0  0  0  0
   -6.7323   12.3219   -6.9127 H   0  0  0  0  0  0  0  0  0  0  0  0
   -2.6549    9.7395   -8.0568 H   0  0  0  0  0  0  0  0  0  0  0  0
   -4.8592    8.8187   -7.5036 H   0  0  0  0  0  0  0  0  0  0  0  0
   -4.8475    9.5609   -9.1393 H   0  0  0  0  0  0  0  0  0  0  0  0
   -3.6711   15.4833   -6.5034 H   0  0  0  0  0  0  0  0  0  0  0  0
   -2.6532   14.1872   -7.2178 H   0  0  0  0  0  0  0  0  0  0  0  0
   -4.1486   14.7205   -8.0580 H   0  0  0  0  0  0  0  0  0  0  0  0
   -0.1739   12.3445   -7.3623 H   0  0  0  0  0  0  0  0  0  0  0  0
   -0.8764   10.7233   -7.6856 H   0  0  0  0  0  0  0  0  0  0  0  0
   -1.2447   12.0969   -8.7830 H   0  0  0  0  0  0  0  0  0  0  0  0
  1  2  2  0  0  0  0
  1  4  1  0  0  0  0
  1 13  1  0  0  0  0
  2  6  1  0  0  0  0
  3  4  2  0  0  0  0
  3  5  1  0  0  0  0
  5  6  1  0  0  0  0
  5  9  2  0  0  0  0
  6  7  1  0  0  0  0
  7  8  2  0  0  0  0
  7 10  1  0  0  0  0
  8  9  1  0  0  0  0
 10 15  2  3  0  0  0
 11 12  1  0  0  0  0
 11 13  1  0  0  0  0
 13 14  2  0  0  0  0
 15 16  1  0  0  0  0
 15 20  1  0  0  0  0
 16 17  2  0  0  0  0
 17 18  1  0  0  0  0
 17 21  1  0  0  0  0
 18 19  2  0  0  0  0
 18 23  1  0  0  0  0
 19 20  1  0  0  0  0
 21 22  1  0  0  0  0
 23 24  1  0  0  0  0
  2 25  1  0  0  0  0
  3 26  1  0  0  0  0
  4 27  1  0  0  0  0
  6 28  1  0  0  0  0
 10 29  1  0  0  0  0
 11 30  1  0  0  0  0
 12 31  1  0  0  0  0
 12 32  1  0  0  0  0
 12 33  1  0  0  0  0
 16 34  1  0  0  0  0
 19 35  1  0  0  0  0
 20 36  1  0  0  0  0
 20 37  1  0  0  0  0
 22 38  1  0  0  0  0
 22 39  1  0  0  0  0
 22 40  1  0  0  0  0
 24 41  1  0  0  0  0
 24 42  1  0  0  0  0
 24 43  1  0  0  0  0
M  END
> <Name>
15

> <IC50[uM]>
2.5

$$$$
15
  -OEChem-05192314333D
 Structure written by MMmdl.
 43 45  0     0  0  0  0  0  0999 V2000
   -6.3730   12.3647  -12.0124 C   0  0  0  0  0  0  0  0  0  0  0  0
   -6.5249   11.8167  -10.7375 C   0  0  0  0  0  0  0  0  0  0  0  0
   -7.7225   10.5819  -13.0270 C   0  0  0  0  0  0  0  0  0  0  0  0
   -6.9871   11.7813  -13.1320 C   0  0  0  0  0  0  0  0  0  0  0  0
   -7.8205   10.0150  -11.7538 C   0  0  0  0  0  0  0  0  0  0  0  0
   -7.2514   10.6217  -10.6093 C   0  0  0  0  0  0  0  0  0  0  0  0
   -7.6113    9.7463   -9.5119 C   0  0  0  0  0  0  0  0  0  0  0  0
   -8.2838    8.7282   -9.9768 N   0  0  0  0  0  0  0  0  0  0  0  0
   -8.4166    8.8609  -11.2984 N   0  0  0  0  0  0  0  0  0  0  0  0
   -7.3282    9.8959   -8.0269 C   0  0  0  0  0  0  0  0  0  0  0  0
   -4.4004   13.6489  -11.4541 N   0  0  0  0  0  0  0  0  0  0  0  0
   -3.4592   14.7715  -11.4916 C   0  0  0  0  0  0  0  0  0  0  0  0
   -5.5363   13.6231  -12.1917 C   0  0  0  0  0  0  0  0  0  0  0  0
   -5.8861   14.5056  -12.9557 O   0  0  0  0  0  0  0  0  0  0  0  0
   -5.9554   10.4909   -7.7390 C   0  0  0  0  0  0  0  0  0  0  0  0
   -5.8447   11.7612   -7.1661 C   0  0  0  0  0  0  0  0  0  0  0  0
   -4.5697   12.3054   -6.9214 C   0  0  0  0  0  0  0  0  0  0  0  0
   -3.4308   11.5801   -7.2259 C   0  0  0  0  0  0  0  0  0  0  0  0
   -3.5429   10.3015   -7.8076 C   0  0  0  0  0  0  0  0  0  0  0  0
   -4.8018    9.7661   -8.0596 C   0  0  0  0  0  0  0  0  0  0  0  0
   -4.4352   13.5609   -6.3638 O   0  0  0  0  0  0  0  0  0  0  0  0
   -3.6839   14.5445   -7.0766 C   0  0  0  0  0  0  0  0  0  0  0  0
   -2.1928   12.1397   -6.9410 O   0  0  0  0  0  0  0  0  0  0  0  0
   -1.0568   11.8071   -7.7386 C   0  0  0  0  0  0  0  0  0  0  0  0
   -6.0949   12.2992   -9.8722 H   0  0  0  0  0  0  0  0  0  0  0  0
   -8.7440   10.7853  -13.3808 H   0  0  0  0  0  0  0  0  0  0  0  0
   -7.2470    9.8407  -13.6861 H   0  0  0  0  0  0  0  0  0  0  0  0
   -6.8945   12.2613  -14.0950 H   0  0  0  0  0  0  0  0  0  0  0  0
   -8.0276    9.6101   -7.2552 H   0  0  0  0  0  0  0  0  0  0  0  0
   -4.1959   12.8707  -10.8602 H   0  0  0  0  0  0  0  0  0  0  0  0
   -2.6173   14.5676  -10.8136 H   0  0  0  0  0  0  0  0  0  0  0  0
   -3.0815   14.8991  -12.5168 H   0  0  0  0  0  0  0  0  0  0  0  0
   -3.9723   15.6908  -11.1728 H   0  0  0  0  0  0  0  0  0  0  0  0
   -6.7323   12.3219   -6.9127 H   0  0  0  0  0  0  0  0  0  0  0  0
   -2.6549    9.7395   -8.0568 H   0  0  0  0  0  0  0  0  0  0  0  0
   -4.8592    8.8187   -7.5036 H   0  0  0  0  0  0  0  0  0  0  0  0
   -4.8475    9.5609   -9.1393 H   0  0  0  0  0  0  0  0  0  0  0  0
   -3.6711   15.4833   -6.5034 H   0  0  0  0  0  0  0  0  0  0  0  0
   -2.6532   14.1872   -7.2178 H   0  0  0  0  0  0  0  0  0  0  0  0
   -4.1486   14.7205   -8.0580 H   0  0  0  0  0  0  0  0  0  0  0  0
   -0.1739   12.3445   -7.3623 H   0  0  0  0  0  0  0  0  0  0  0  0
   -0.8764   10.7233   -7.6856 H   0  0  0  0  0  0  0  0  0  0  0  0
   -1.2447   12.0969   -8.7830 H   0  0  0  0  0  0  0  0  0  0  0  0
  1  2  1  0  0  0  0
  1  4  2  0  0  0  0
  1 13  1  0  0  0  0
  2  6  2  0  0  0  0
  3  4  1  0  0  0  0
  3  5  1  0  0  0  0
  5  6  1  0  0  0  0
  5  9  2  0  0  0  0
  6  7  1  0  0  0  0
  7  8  2  0  0  0  0
  7 10  1  0  0  0  0
  8  9  1  0  0  0  0
 10 15  2  3  0  0  0
 11 12  1  0  0  0  0
 11 13  1  0  0  0  0
 13 14  2  0  0  0  0
 15 16  1  0  0  0  0
 15 20  1  0  0  0  0
 16 17  2  0  0  0  0
 17 18  1  0  0  0  0
 17 21  1  0  0  0  0
 18 19  2  0  0  0  0
 18 23  1  0  0  0  0
 19 20  1  0  0  0  0
 21 22  1  0  0  0  0
 23 24  1  0  0  0  0
  2 25  1  0  0  0  0
  3 26  1  0  0  0  0
  3 27  1  0  0  0  0
  4 28  1  0  0  0  0
 10 29  1  0  0  0  0
 11 30  1  0  0  0  0
 12 31  1  0  0  0  0
 12 32  1  0  0  0  0
 12 33  1  0  0  0  0
 16 34  1  0  0  0  0
 19 35  1  0  0  0  0
 20 36  1  0  0  0  0
 20 37  1  0  0  0  0
 22 38  1  0  0  0  0
 22 39  1  0  0  0  0
 22 40  1  0  0  0  0
 24 41  1  0  0  0  0
 24 42  1  0  0  0  0
 24 43  1  0  0  0  0
M  END
> <Name>
15

> <IC50[uM]>
2.5

$$$$
15
  -OEChem-05192314333D
 Structure written by MMmdl.
 43 45  0     1  0  0  0  0  0999 V2000
   -6.3730   12.3647  -12.0124 C   0  0  3  0  0  0  0  0  0  0  0  0
   -6.5249   11.8167  -10.7375 C   0  0  0  0  0  0  0  0  0  0  0  0
   -7.7225   10.5819  -13.0270 C   0  0  0  0  0  0  0  0  0  0  0  0
   -6.9871   11.7813  -13.1320 C   0  0  0  0  0  0  0  0  0  0  0  0
   -7.8205   10.0150  -11.7538 C   0  0  0  0  0  0  0  0  0  0  0  0
   -7.2514   10.6217  -10.6093 C   0  0  0  0  0  0  0  0  0  0  0  0
   -7.6113    9.7463   -9.5119 C   0  0  0  0  0  0  0  0  0  0  0  0
   -8.2838    8.7282   -9.9768 N   0  0  0  0  0  0  0  0  0  0  0  0
   -8.4166    8.8609  -11.2984 N   0  0  0  0  0  0  0  0  0  0  0  0
   -7.3282    9.8959   -8.0269 C   0  0  0  0  0  0  0  0  0  0  0  0
   -4.4004   13.6489  -11.4541 N   0  0  0  0  0  0  0  0  0  0  0  0
   -3.4592   14.7715  -11.4916 C   0  0  0  0  0  0  0  0  0  0  0  0
   -5.5363   13.6231  -12.1917 C   0  0  0  0  0  0  0  0  0  0  0  0
   -5.8861   14.5056  -12.9557 O   0  0  0  0  0  0  0  0  0  0  0  0
   -5.9554   10.4909   -7.7390 C   0  0  0  0  0  0  0  0  0  0  0  0
   -5.8447   11.7612   -7.1661 C   0  0  0  0  0  0  0  0  0  0  0  0
   -4.5697   12.3054   -6.9214 C   0  0  0  0  0  0  0  0  0  0  0  0
   -3.4308   11.5801   -7.2259 C   0  0  0  0  0  0  0  0  0  0  0  0
   -3.5429   10.3015   -7.8076 C   0  0  0  0  0  0  0  0  0  0  0  0
   -4.8018    9.7661   -8.0596 C   0  0  0  0  0  0  0  0  0  0  0  0
   -4.4352   13.5609   -6.3638 O   0  0  0  0  0  0  0  0  0  0  0  0
   -3.6839   14.5445   -7.0766 C   0  0  0  0  0  0  0  0  0  0  0  0
   -2.1928   12.1397   -6.9410 O   0  0  0  0  0  0  0  0  0  0  0  0
   -1.0568   11.8071   -7.7386 C   0  0  0  0  0  0  0  0  0  0  0  0
   -5.4795   11.7442  -12.1757 H   0  0  0  0  0  0  0  0  0  0  0  0
   -6.0949   12.2992   -9.8722 H   0  0  0  0  0  0  0  0  0  0  0  0
   -8.1868   10.1246  -13.8882 H   0  0  0  0  0  0  0  0  0  0  0  0
   -6.8945   12.2613  -14.0950 H   0  0  0  0  0  0  0  0  0  0  0  0
   -8.0276    9.6101   -7.2552 H   0  0  0  0  0  0  0  0  0  0  0  0
   -4.1959   12.8707  -10.8602 H   0  0  0  0  0  0  0  0  0  0  0  0
   -2.6173   14.5676  -10.8136 H   0  0  0  0  0  0  0  0  0  0  0  0
   -3.0815   14.8991  -12.5168 H   0  0  0  0  0  0  0  0  0  0  0  0
   -3.9723   15.6908  -11.1728 H   0  0  0  0  0  0  0  0  0  0  0  0
   -6.3671   12.4602   -7.8358 H   0  0  0  0  0  0  0  0  0  0  0  0
   -6.3661   11.7216   -6.1984 H   0  0  0  0  0  0  0  0  0  0  0  0
   -2.6549    9.7395   -8.0568 H   0  0  0  0  0  0  0  0  0  0  0  0
   -4.8895    8.7861   -8.5049 H   0  0  0  0  0  0  0  0  0  0  0  0
   -3.6711   15.4833   -6.5034 H   0  0  0  0  0  0  0  0  0  0  0  0
   -2.6532   14.1872   -7.2178 H   0  0  0  0  0  0  0  0  0  0  0  0
   -4.1486   14.7205   -8.0580 H   0  0  0  0  0  0  0  0  0  0  0  0
   -0.1739   12.3445   -7.3623 H   0  0  0  0  0  0  0  0  0  0  0  0
   -0.8764   10.7233   -7.6856 H   0  0  0  0  0  0  0  0  0  0  0  0
   -1.2447   12.0969   -8.7830 H   0  0  0  0  0  0  0  0  0  0  0  0
  1  2  1  0  0  0  0
  1  4  1  0  0  0  0
  1 13  1  0  0  0  0
  2  6  2  0  0  0  0
  3  4  2  0  0  0  0
  3  5  1  0  0  0  0
  5  6  1  0  0  0  0
  5  9  2  0  0  0  0
  6  7  1  0  0  0  0
  7  8  2  0  0  0  0
  7 10  1  0  0  0  0
  8  9  1  0  0  0  0
 10 15  2  3  0  0  0
 11 12  1  0  0  0  0
 11 13  1  0  0  0  0
 13 14  2  0  0  0  0
 15 16  1  0  0  0  0
 15 20  1  0  0  0  0
 16 17  1  0  0  0  0
 17 18  2  0  0  0  0
 17 21  1  0  0  0  0
 18 19  1  0  0  0  0
 18 23  1  0  0  0  0
 19 20  2  0  0  0  0
 21 22  1  0  0  0  0
 23 24  1  0  0  0  0
  1 25  1  0  0  0  0
  2 26  1  0  0  0  0
  3 27  1  0  0  0  0
  4 28  1  0  0  0  0
 10 29  1  0  0  0  0
 11 30  1  0  0  0  0
 12 31  1  0  0  0  0
 12 32  1  0  0  0  0
 12 33  1  0  0  0  0
 16 34  1  0  0  0  0
 16 35  1  0  0  0  0
 19 36  1  0  0  0  0
 20 37  1  0  0  0  0
 22 38  1  0  0  0  0
 22 39  1  0  0  0  0
 22 40  1  0  0  0  0
 24 41  1  0  0  0  0
 24 42  1  0  0  0  0
 24 43  1  0  0  0  0
M  END
> <Name>
15

> <IC50[uM]>
2.5

$$$$
15
  -OEChem-05192314333D
 Structure written by MMmdl.
 43 45  0     1  0  0  0  0  0999 V2000
   -6.3730   12.3647  -12.0124 C   0  0  0  0  0  0  0  0  0  0  0  0
   -6.5249   11.8167  -10.7375 C   0  0  0  0  0  0  0  0  0  0  0  0
   -7.7225   10.5819  -13.0270 C   0  0  0  0  0  0  0  0  0  0  0  0
   -6.9871   11.7813  -13.1320 C   0  0  0  0  0  0  0  0  0  0  0  0
   -7.8205   10.0150  -11.7538 C   0  0  0  0  0  0  0  0  0  0  0  0
   -7.2514   10.6217  -10.6093 C   0  0  3  0  0  0  0  0  0  0  0  0
   -7.6113    9.7463   -9.5119 C   0  0  0  0  0  0  0  0  0  0  0  0
   -8.2838    8.7282   -9.9768 N   0  0  0  0  0  0  0  0  0  0  0  0
   -8.4166    8.8609  -11.2984 N   0  0  0  0  0  0  0  0  0  0  0  0
   -7.3282    9.8959   -8.0269 C   0  0  0  0  0  0  0  0  0  0  0  0
   -4.4004   13.6489  -11.4541 N   0  0  0  0  0  0  0  0  0  0  0  0
   -3.4592   14.7715  -11.4916 C   0  0  0  0  0  0  0  0  0  0  0  0
   -5.5363   13.6231  -12.1917 C   0  0  0  0  0  0  0  0  0  0  0  0
   -5.8861   14.5056  -12.9557 O   0  0  0  0  0  0  0  0  0  0  0  0
   -5.9554   10.4909   -7.7390 C   0  0  0  0  0  0  0  0  0  0  0  0
   -5.8447   11.7612   -7.1661 C   0  0  0  0  0  0  0  0  0  0  0  0
   -4.5697   12.3054   -6.9214 C   0  0  0  0  0  0  0  0  0  0  0  0
   -3.4308   11.5801   -7.2259 C   0  0  0  0  0  0  0  0  0  0  0  0
   -3.5429   10.3015   -7.8076 C   0  0  0  0  0  0  0  0  0  0  0  0
   -4.8018    9.7661   -8.0596 C   0  0  0  0  0  0  0  0  0  0  0  0
   -4.4352   13.5609   -6.3638 O   0  0  0  0  0  0  0  0  0  0  0  0
   -3.6839   14.5445   -7.0766 C   0  0  0  0  0  0  0  0  0  0  0  0
   -2.1928   12.1397   -6.9410 O   0  0  0  0  0  0  0  0  0  0  0  0
   -1.0568   11.8071   -7.7386 C   0  0  0  0  0  0  0  0  0  0  0  0
   -6.0949   12.2992   -9.8722 H   0  0  0  0  0  0  0  0  0  0  0  0
   -8.1868   10.1246  -13.8882 H   0  0  0  0  0  0  0  0  0  0  0  0
   -6.8945   12.2613  -14.0950 H   0  0  0  0  0  0  0  0  0  0  0  0
   -8.1752   11.1984  -10.4540 H   0  0  0  0  0  0  0  0  0  0  0  0
   -8.0276    9.6101   -7.2552 H   0  0  0  0  0  0  0  0  0  0  0  0
   -4.1959   12.8707  -10.8602 H   0  0  0  0  0  0  0  0  0  0  0  0
   -2.6173   14.5676  -10.8136 H   0  0  0  0  0  0  0  0  0  0  0  0
   -3.0815   14.8991  -12.5168 H   0  0  0  0  0  0  0  0  0  0  0  0
   -3.9723   15.6908  -11.1728 H   0  0  0  0  0  0  0  0  0  0  0  0
   -6.3671   12.4602   -7.8358 H   0  0  0  0  0  0  0  0  0  0  0  0
   -6.3661   11.7216   -6.1984 H   0  0  0  0  0  0  0  0  0  0  0  0
   -2.6549    9.7395   -8.0568 H   0  0  0  0  0  0  0  0  0  0  0  0
   -4.8895    8.7861   -8.5049 H   0  0  0  0  0  0  0  0  0  0  0  0
   -3.6711   15.4833   -6.5034 H   0  0  0  0  0  0  0  0  0  0  0  0
   -2.6532   14.1872   -7.2178 H   0  0  0  0  0  0  0  0  0  0  0  0
   -4.1486   14.7205   -8.0580 H   0  0  0  0  0  0  0  0  0  0  0  0
   -0.1739   12.3445   -7.3623 H   0  0  0  0  0  0  0  0  0  0  0  0
   -0.8764   10.7233   -7.6856 H   0  0  0  0  0  0  0  0  0  0  0  0
   -1.2447   12.0969   -8.7830 H   0  0  0  0  0  0  0  0  0  0  0  0
  1  2  2  0  0  0  0
  1  4  1  0  0  0  0
  1 13  1  0  0  0  0
  2  6  1  0  0  0  0
  3  4  2  0  0  0  0
  3  5  1  0  0  0  0
  5  6  1  0  0  0  0
  5  9  2  0  0  0  0
  6  7  1  0  0  0  0
  7  8  2  0  0  0  0
  7 10  1  0  0  0  0
  8  9  1  0  0  0  0
 10 15  2  3  0  0  0
 11 12  1  0  0  0  0
 11 13  1  0  0  0  0
 13 14  2  0  0  0  0
 15 16  1  0  0  0  0
 15 20  1  0  0  0  0
 16 17  1  0  0  0  0
 17 18  2  0  0  0  0
 17 21  1  0  0  0  0
 18 19  1  0  0  0  0
 18 23  1  0  0  0  0
 19 20  2  0  0  0  0
 21 22  1  0  0  0  0
 23 24  1  0  0  0  0
  2 25  1  0  0  0  0
  3 26  1  0  0  0  0
  4 27  1  0  0  0  0
  6 28  1  0  0  0  0
 10 29  1  0  0  0  0
 11 30  1  0  0  0  0
 12 31  1  0  0  0  0
 12 32  1  0  0  0  0
 12 33  1  0  0  0  0
 16 34  1  0  0  0  0
 16 35  1  0  0  0  0
 19 36  1  0  0  0  0
 20 37  1  0  0  0  0
 22 38  1  0  0  0  0
 22 39  1  0  0  0  0
 22 40  1  0  0  0  0
 24 41  1  0  0  0  0
 24 42  1  0  0  0  0
 24 43  1  0  0  0  0
M  END
> <Name>
15

> <IC50[uM]>
2.5

$$$$
15
  -OEChem-05192314333D
 Structure written by MMmdl.
 43 45  0     0  0  0  0  0  0999 V2000
   -6.3730   12.3647  -12.0124 C   0  0  0  0  0  0  0  0  0  0  0  0
   -6.5249   11.8167  -10.7375 C   0  0  0  0  0  0  0  0  0  0  0  0
   -7.7225   10.5819  -13.0270 C   0  0  0  0  0  0  0  0  0  0  0  0
   -6.9871   11.7813  -13.1320 C   0  0  0  0  0  0  0  0  0  0  0  0
   -7.8205   10.0150  -11.7538 C   0  0  0  0  0  0  0  0  0  0  0  0
   -7.2514   10.6217  -10.6093 C   0  0  0  0  0  0  0  0  0  0  0  0
   -7.6113    9.7463   -9.5119 C   0  0  0  0  0  0  0  0  0  0  0  0
   -8.2838    8.7282   -9.9768 N   0  0  0  0  0  0  0  0  0  0  0  0
   -8.4166    8.8609  -11.2984 N   0  0  0  0  0  0  0  0  0  0  0  0
   -7.3282    9.8959   -8.0269 C   0  0  0  0  0  0  0  0  0  0  0  0
   -4.4004   13.6489  -11.4541 N   0  0  0  0  0  0  0  0  0  0  0  0
   -3.4592   14.7715  -11.4916 C   0  0  0  0  0  0  0  0  0  0  0  0
   -5.5363   13.6231  -12.1917 C   0  0  0  0  0  0  0  0  0  0  0  0
   -5.8861   14.5056  -12.9557 O   0  0  0  0  0  0  0  0  0  0  0  0
   -5.9554   10.4909   -7.7390 C   0  0  0  0  0  0  0  0  0  0  0  0
   -5.8447   11.7612   -7.1661 C   0  0  0  0  0  0  0  0  0  0  0  0
   -4.5697   12.3054   -6.9214 C   0  0  0  0  0  0  0  0  0  0  0  0
   -3.4308   11.5801   -7.2259 C   0  0  0  0  0  0  0  0  0  0  0  0
   -3.5429   10.3015   -7.8076 C   0  0  0  0  0  0  0  0  0  0  0  0
   -4.8018    9.7661   -8.0596 C   0  0  0  0  0  0  0  0  0  0  0  0
   -4.4352   13.5609   -6.3638 O   0  0  0  0  0  0  0  0  0  0  0  0
   -3.6839   14.5445   -7.0766 C   0  0  0  0  0  0  0  0  0  0  0  0
   -2.1928   12.1397   -6.9410 O   0  0  0  0  0  0  0  0  0  0  0  0
   -1.0568   11.8071   -7.7386 C   0  0  0  0  0  0  0  0  0  0  0  0
   -6.0949   12.2992   -9.8722 H   0  0  0  0  0  0  0  0  0  0  0  0
   -8.7440   10.7853  -13.3808 H   0  0  0  0  0  0  0  0  0  0  0  0
   -7.2470    9.8407  -13.6861 H   0  0  0  0  0  0  0  0  0  0  0  0
   -6.8945   12.2613  -14.0950 H   0  0  0  0  0  0  0  0  0  0  0  0
   -8.0276    9.6101   -7.2552 H   0  0  0  0  0  0  0  0  0  0  0  0
   -4.1959   12.8707  -10.8602 H   0  0  0  0  0  0  0  0  0  0  0  0
   -2.6173   14.5676  -10.8136 H   0  0  0  0  0  0  0  0  0  0  0  0
   -3.0815   14.8991  -12.5168 H   0  0  0  0  0  0  0  0  0  0  0  0
   -3.9723   15.6908  -11.1728 H   0  0  0  0  0  0  0  0  0  0  0  0
   -6.3671   12.4602   -7.8358 H   0  0  0  0  0  0  0  0  0  0  0  0
   -6.3661   11.7216   -6.1984 H   0  0  0  0  0  0  0  0  0  0  0  0
   -2.6549    9.7395   -8.0568 H   0  0  0  0  0  0  0  0  0  0  0  0
   -4.8895    8.7861   -8.5049 H   0  0  0  0  0  0  0  0  0  0  0  0
   -3.6711   15.4833   -6.5034 H   0  0  0  0  0  0  0  0  0  0  0  0
   -2.6532   14.1872   -7.2178 H   0  0  0  0  0  0  0  0  0  0  0  0
   -4.1486   14.7205   -8.0580 H   0  0  0  0  0  0  0  0  0  0  0  0
   -0.1739   12.3445   -7.3623 H   0  0  0  0  0  0  0  0  0  0  0  0
   -0.8764   10.7233   -7.6856 H   0  0  0  0  0  0  0  0  0  0  0  0
   -1.2447   12.0969   -8.7830 H   0  0  0  0  0  0  0  0  0  0  0  0
  1  2  1  0  0  0  0
  1  4  2  0  0  0  0
  1 13  1  0  0  0  0
  2  6  2  0  0  0  0
  3  4  1  0  0  0  0
  3  5  1  0  0  0  0
  5  6  1  0  0  0  0
  5  9  2  0  0  0  0
  6  7  1  0  0  0  0
  7  8  2  0  0  0  0
  7 10  1  0  0  0  0
  8  9  1  0  0  0  0
 10 15  2  3  0  0  0
 11 12  1  0  0  0  0
 11 13  1  0  0  0  0
 13 14  2  0  0  0  0
 15 16  1  0  0  0  0
 15 20  1  0  0  0  0
 16 17  1  0  0  0  0
 17 18  2  0  0  0  0
 17 21  1  0  0  0  0
 18 19  1  0  0  0  0
 18 23  1  0  0  0  0
 19 20  2  0  0  0  0
 21 22  1  0  0  0  0
 23 24  1  0  0  0  0
  2 25  1  0  0  0  0
  3 26  1  0  0  0  0
  3 27  1  0  0  0  0
  4 28  1  0  0  0  0
 10 29  1  0  0  0  0
 11 30  1  0  0  0  0
 12 31  1  0  0  0  0
 12 32  1  0  0  0  0
 12 33  1  0  0  0  0
 16 34  1  0  0  0  0
 16 35  1  0  0  0  0
 19 36  1  0  0  0  0
 20 37  1  0  0  0  0
 22 38  1  0  0  0  0
 22 39  1  0  0  0  0
 22 40  1  0  0  0  0
 24 41  1  0  0  0  0
 24 42  1  0  0  0  0
 24 43  1  0  0  0  0
M  END
> <Name>
15

> <IC50[uM]>
2.5

$$$$
15
  -OEChem-05192314333D
 Structure written by MMmdl.
 43 45  0     1  0  0  0  0  0999 V2000
   -6.3730   12.3647  -12.0124 C   0  0  3  0  0  0  0  0  0  0  0  0
   -6.5249   11.8167  -10.7375 C   0  0  0  0  0  0  0  0  0  0  0  0
   -7.7225   10.5819  -13.0270 C   0  0  0  0  0  0  0  0  0  0  0  0
   -6.9871   11.7813  -13.1320 C   0  0  0  0  0  0  0  0  0  0  0  0
   -7.8205   10.0150  -11.7538 C   0  0  0  0  0  0  0  0  0  0  0  0
   -7.2514   10.6217  -10.6093 C   0  0  0  0  0  0  0  0  0  0  0  0
   -7.6113    9.7463   -9.5119 C   0  0  0  0  0  0  0  0  0  0  0  0
   -8.2838    8.7282   -9.9768 N   0  0  0  0  0  0  0  0  0  0  0  0
   -8.4166    8.8609  -11.2984 N   0  0  0  0  0  0  0  0  0  0  0  0
   -7.3282    9.8959   -8.0269 C   0  0  0  0  0  0  0  0  0  0  0  0
   -4.4004   13.6489  -11.4541 N   0  0  0  0  0  0  0  0  0  0  0  0
   -3.4592   14.7715  -11.4916 C   0  0  0  0  0  0  0  0  0  0  0  0
   -5.5363   13.6231  -12.1917 C   0  0  0  0  0  0  0  0  0  0  0  0
   -5.8861   14.5056  -12.9557 O   0  0  0  0  0  0  0  0  0  0  0  0
   -5.9554   10.4909   -7.7390 C   0  0  0  0  0  0  0  0  0  0  0  0
   -5.8447   11.7612   -7.1661 C   0  0  0  0  0  0  0  0  0  0  0  0
   -4.5697   12.3054   -6.9214 C   0  0  0  0  0  0  0  0  0  0  0  0
   -3.4308   11.5801   -7.2259 C   0  0  3  0  0  0  0  0  0  0  0  0
   -3.5429   10.3015   -7.8076 C   0  0  0  0  0  0  0  0  0  0  0  0
   -4.8018    9.7661   -8.0596 C   0  0  0  0  0  0  0  0  0  0  0  0
   -4.4352   13.5609   -6.3638 O   0  0  0  0  0  0  0  0  0  0  0  0
   -3.6839   14.5445   -7.0766 C   0  0  0  0  0  0  0  0  0  0  0  0
   -2.1928   12.1397   -6.9410 O   0  0  0  0  0  0  0  0  0  0  0  0
   -1.0568   11.8071   -7.7386 C   0  0  0  0  0  0  0  0  0  0  0  0
   -5.4795   11.7442  -12.1757 H   0  0  0  0  0  0  0  0  0  0  0  0
   -6.0949   12.2992   -9.8722 H   0  0  0  0  0  0  0  0  0  0  0  0
   -8.1868   10.1246  -13.8882 H   0  0  0  0  0  0  0  0  0  0  0  0
   -6.8945   12.2613  -14.0950 H   0  0  0  0  0  0  0  0  0  0  0  0
   -8.0276    9.6101   -7.2552 H   0  0  0  0  0  0  0  0  0  0  0  0
   -2.6173   14.5676  -10.8136 H   0  0  0  0  0  0  0  0  0  0  0  0
   -3.0815   14.8991  -12.5168 H   0  0  0  0  0  0  0  0  0  0  0  0
   -3.9723   15.6908  -11.1728 H   0  0  0  0  0  0  0  0  0  0  0  0
   -5.2484   15.2095  -12.9404 H   0  0  0  0  0  0  0  0  0  0  0  0
   -6.7323   12.3219   -6.9127 H   0  0  0  0  0  0  0  0  0  0  0  0
   -3.4073   12.0349   -8.2272 H   0  0  0  0  0  0  0  0  0  0  0  0
   -2.6549    9.7395   -8.0568 H   0  0  0  0  0  0  0  0  0  0  0  0
   -4.8895    8.7861   -8.5049 H   0  0  0  0  0  0  0  0  0  0  0  0
   -3.6711   15.4833   -6.5034 H   0  0  0  0  0  0  0  0  0  0  0  0
   -2.6532   14.1872   -7.2178 H   0  0  0  0  0  0  0  0  0  0  0  0
   -4.1486   14.7205   -8.0580 H   0  0  0  0  0  0  0  0  0  0  0  0
   -0.1739   12.3445   -7.3623 H   0  0  0  0  0  0  0  0  0  0  0  0
   -0.8764   10.7233   -7.6856 H   0  0  0  0  0  0  0  0  0  0  0  0
   -1.2447   12.0969   -8.7830 H   0  0  0  0  0  0  0  0  0  0  0  0
  1  2  1  0  0  0  0
  1  4  1  0  0  0  0
  1 13  1  0  0  0  0
  2  6  2  0  0  0  0
  3  4  2  0  0  0  0
  3  5  1  0  0  0  0
  5  6  1  0  0  0  0
  5  9  2  0  0  0  0
  6  7  1  0  0  0  0
  7  8  2  0  0  0  0
  7 10  1  0  0  0  0
  8  9  1  0  0  0  0
 10 15  2  3  0  0  0
 11 12  1  0  0  0  0
 11 13  2  0  0  0  0
 13 14  1  0  0  0  0
 15 16  1  0  0  0  0
 15 20  1  0  0  0  0
 16 17  2  0  0  0  0
 17 18  1  0  0  0  0
 17 21  1  0  0  0  0
 18 19  1  0  0  0  0
 18 23  1  0  0  0  0
 19 20  2  0  0  0  0
 21 22  1  0  0  0  0
 23 24  1  0  0  0  0
  1 25  1  0  0  0  0
  2 26  1  0  0  0  0
  3 27  1  0  0  0  0
  4 28  1  0  0  0  0
 10 29  1  0  0  0  0
 12 30  1  0  0  0  0
 12 31  1  0  0  0  0
 12 32  1  0  0  0  0
 14 33  1  0  0  0  0
 16 34  1  0  0  0  0
 18 35  1  0  0  0  0
 19 36  1  0  0  0  0
 20 37  1  0  0  0  0
 22 38  1  0  0  0  0
 22 39  1  0  0  0  0
 22 40  1  0  0  0  0
 24 41  1  0  0  0  0
 24 42  1  0  0  0  0
 24 43  1  0  0  0  0
M  END
> <Name>
15

> <IC50[uM]>
2.5

$$$$
15
  -OEChem-05192314333D
 Structure written by MMmdl.
 43 45  0     1  0  0  0  0  0999 V2000
   -6.3730   12.3647  -12.0124 C   0  0  0  0  0  0  0  0  0  0  0  0
   -6.5249   11.8167  -10.7375 C   0  0  0  0  0  0  0  0  0  0  0  0
   -7.7225   10.5819  -13.0270 C   0  0  0  0  0  0  0  0  0  0  0  0
   -6.9871   11.7813  -13.1320 C   0  0  0  0  0  0  0  0  0  0  0  0
   -7.8205   10.0150  -11.7538 C   0  0  0  0  0  0  0  0  0  0  0  0
   -7.2514   10.6217  -10.6093 C   0  0  3  0  0  0  0  0  0  0  0  0
   -7.6113    9.7463   -9.5119 C   0  0  0  0  0  0  0  0  0  0  0  0
   -8.2838    8.7282   -9.9768 N   0  0  0  0  0  0  0  0  0  0  0  0
   -8.4166    8.8609  -11.2984 N   0  0  0  0  0  0  0  0  0  0  0  0
   -7.3282    9.8959   -8.0269 C   0  0  0  0  0  0  0  0  0  0  0  0
   -4.4004   13.6489  -11.4541 N   0  0  0  0  0  0  0  0  0  0  0  0
   -3.4592   14.7715  -11.4916 C   0  0  0  0  0  0  0  0  0  0  0  0
   -5.5363   13.6231  -12.1917 C   0  0  0  0  0  0  0  0  0  0  0  0
   -5.8861   14.5056  -12.9557 O   0  0  0  0  0  0  0  0  0  0  0  0
   -5.9554   10.4909   -7.7390 C   0  0  0  0  0  0  0  0  0  0  0  0
   -5.8447   11.7612   -7.1661 C   0  0  0  0  0  0  0  0  0  0  0  0
   -4.5697   12.3054   -6.9214 C   0  0  0  0  0  0  0  0  0  0  0  0
   -3.4308   11.5801   -7.2259 C   0  0  3  0  0  0  0  0  0  0  0  0
   -3.5429   10.3015   -7.8076 C   0  0  0  0  0  0  0  0  0  0  0  0
   -4.8018    9.7661   -8.0596 C   0  0  0  0  0  0  0  0  0  0  0  0
   -4.4352   13.5609   -6.3638 O   0  0  0  0  0  0  0  0  0  0  0  0
   -3.6839   14.5445   -7.0766 C   0  0  0  0  0  0  0  0  0  0  0  0
   -2.1928   12.1397   -6.9410 O   0  0  0  0  0  0  0  0  0  0  0  0
   -1.0568   11.8071   -7.7386 C   0  0  0  0  0  0  0  0  0  0  0  0
   -6.0949   12.2992   -9.8722 H   0  0  0  0  0  0  0  0  0  0  0  0
   -8.1868   10.1246  -13.8882 H   0  0  0  0  0  0  0  0  0  0  0  0
   -6.8945   12.2613  -14.0950 H   0  0  0  0  0  0  0  0  0  0  0  0
   -8.1752   11.1984  -10.4540 H   0  0  0  0  0  0  0  0  0  0  0  0
   -8.0276    9.6101   -7.2552 H   0  0  0  0  0  0  0  0  0  0  0  0
   -2.6173   14.5676  -10.8136 H   0  0  0  0  0  0  0  0  0  0  0  0
   -3.0815   14.8991  -12.5168 H   0  0  0  0  0  0  0  0  0  0  0  0
   -3.9723   15.6908  -11.1728 H   0  0  0  0  0  0  0  0  0  0  0  0
   -5.2484   15.2095  -12.9404 H   0  0  0  0  0  0  0  0  0  0  0  0
   -6.7323   12.3219   -6.9127 H   0  0  0  0  0  0  0  0  0  0  0  0
   -3.4073   12.0349   -8.2272 H   0  0  0  0  0  0  0  0  0  0  0  0
   -2.6549    9.7395   -8.0568 H   0  0  0  0  0  0  0  0  0  0  0  0
   -4.8895    8.7861   -8.5049 H   0  0  0  0  0  0  0  0  0  0  0  0
   -3.6711   15.4833   -6.5034 H   0  0  0  0  0  0  0  0  0  0  0  0
   -2.6532   14.1872   -7.2178 H   0  0  0  0  0  0  0  0  0  0  0  0
   -4.1486   14.7205   -8.0580 H   0  0  0  0  0  0  0  0  0  0  0  0
   -0.1739   12.3445   -7.3623 H   0  0  0  0  0  0  0  0  0  0  0  0
   -0.8764   10.7233   -7.6856 H   0  0  0  0  0  0  0  0  0  0  0  0
   -1.2447   12.0969   -8.7830 H   0  0  0  0  0  0  0  0  0  0  0  0
  1  2  2  0  0  0  0
  1  4  1  0  0  0  0
  1 13  1  0  0  0  0
  2  6  1  0  0  0  0
  3  4  2  0  0  0  0
  3  5  1  0  0  0  0
  5  6  1  0  0  0  0
  5  9  2  0  0  0  0
  6  7  1  0  0  0  0
  7  8  2  0  0  0  0
  7 10  1  0  0  0  0
  8  9  1  0  0  0  0
 10 15  2  3  0  0  0
 11 12  1  0  0  0  0
 11 13  2  0  0  0  0
 13 14  1  0  0  0  0
 15 16  1  0  0  0  0
 15 20  1  0  0  0  0
 16 17  2  0  0  0  0
 17 18  1  0  0  0  0
 17 21  1  0  0  0  0
 18 19  1  0  0  0  0
 18 23  1  0  0  0  0
 19 20  2  0  0  0  0
 21 22  1  0  0  0  0
 23 24  1  0  0  0  0
  2 25  1  0  0  0  0
  3 26  1  0  0  0  0
  4 27  1  0  0  0  0
  6 28  1  0  0  0  0
 10 29  1  0  0  0  0
 12 30  1  0  0  0  0
 12 31  1  0  0  0  0
 12 32  1  0  0  0  0
 14 33  1  0  0  0  0
 16 34  1  0  0  0  0
 18 35  1  0  0  0  0
 19 36  1  0  0  0  0
 20 37  1  0  0  0  0
 22 38  1  0  0  0  0
 22 39  1  0  0  0  0
 22 40  1  0  0  0  0
 24 41  1  0  0  0  0
 24 42  1  0  0  0  0
 24 43  1  0  0  0  0
M  END
> <Name>
15

> <IC50[uM]>
2.5

$$$$
15
  -OEChem-05192314333D
 Structure written by MMmdl.
 43 45  0     1  0  0  0  0  0999 V2000
   -6.3730   12.3647  -12.0124 C   0  0  0  0  0  0  0  0  0  0  0  0
   -6.5249   11.8167  -10.7375 C   0  0  0  0  0  0  0  0  0  0  0  0
   -7.7225   10.5819  -13.0270 C   0  0  0  0  0  0  0  0  0  0  0  0
   -6.9871   11.7813  -13.1320 C   0  0  0  0  0  0  0  0  0  0  0  0
   -7.8205   10.0150  -11.7538 C   0  0  0  0  0  0  0  0  0  0  0  0
   -7.2514   10.6217  -10.6093 C   0  0  0  0  0  0  0  0  0  0  0  0
   -7.6113    9.7463   -9.5119 C   0  0  0  0  0  0  0  0  0  0  0  0
   -8.2838    8.7282   -9.9768 N   0  0  0  0  0  0  0  0  0  0  0  0
   -8.4166    8.8609  -11.2984 N   0  0  0  0  0  0  0  0  0  0  0  0
   -7.3282    9.8959   -8.0269 C   0  0  0  0  0  0  0  0  0  0  0  0
   -4.4004   13.6489  -11.4541 N   0  0  0  0  0  0  0  0  0  0  0  0
   -3.4592   14.7715  -11.4916 C   0  0  0  0  0  0  0  0  0  0  0  0
   -5.5363   13.6231  -12.1917 C   0  0  0  0  0  0  0  0  0  0  0  0
   -5.8861   14.5056  -12.9557 O   0  0  0  0  0  0  0  0  0  0  0  0
   -5.9554   10.4909   -7.7390 C   0  0  0  0  0  0  0  0  0  0  0  0
   -5.8447   11.7612   -7.1661 C   0  0  0  0  0  0  0  0  0  0  0  0
   -4.5697   12.3054   -6.9214 C   0  0  0  0  0  0  0  0  0  0  0  0
   -3.4308   11.5801   -7.2259 C   0  0  3  0  0  0  0  0  0  0  0  0
   -3.5429   10.3015   -7.8076 C   0  0  0  0  0  0  0  0  0  0  0  0
   -4.8018    9.7661   -8.0596 C   0  0  0  0  0  0  0  0  0  0  0  0
   -4.4352   13.5609   -6.3638 O   0  0  0  0  0  0  0  0  0  0  0  0
   -3.6839   14.5445   -7.0766 C   0  0  0  0  0  0  0  0  0  0  0  0
   -2.1928   12.1397   -6.9410 O   0  0  0  0  0  0  0  0  0  0  0  0
   -1.0568   11.8071   -7.7386 C   0  0  0  0  0  0  0  0  0  0  0  0
   -6.0949   12.2992   -9.8722 H   0  0  0  0  0  0  0  0  0  0  0  0
   -8.7440   10.7853  -13.3808 H   0  0  0  0  0  0  0  0  0  0  0  0
   -7.2470    9.8407  -13.6861 H   0  0  0  0  0  0  0  0  0  0  0  0
   -6.8945   12.2613  -14.0950 H   0  0  0  0  0  0  0  0  0  0  0  0
   -8.0276    9.6101   -7.2552 H   0  0  0  0  0  0  0  0  0  0  0  0
   -2.6173   14.5676  -10.8136 H   0  0  0  0  0  0  0  0  0  0  0  0
   -3.0815   14.8991  -12.5168 H   0  0  0  0  0  0  0  0  0  0  0  0
   -3.9723   15.6908  -11.1728 H   0  0  0  0  0  0  0  0  0  0  0  0
   -5.2484   15.2095  -12.9404 H   0  0  0  0  0  0  0  0  0  0  0  0
   -6.7323   12.3219   -6.9127 H   0  0  0  0  0  0  0  0  0  0  0  0
   -3.4073   12.0349   -8.2272 H   0  0  0  0  0  0  0  0  0  0  0  0
   -2.6549    9.7395   -8.0568 H   0  0  0  0  0  0  0  0  0  0  0  0
   -4.8895    8.7861   -8.5049 H   0  0  0  0  0  0  0  0  0  0  0  0
   -3.6711   15.4833   -6.5034 H   0  0  0  0  0  0  0  0  0  0  0  0
   -2.6532   14.1872   -7.2178 H   0  0  0  0  0  0  0  0  0  0  0  0
   -4.1486   14.7205   -8.0580 H   0  0  0  0  0  0  0  0  0  0  0  0
   -0.1739   12.3445   -7.3623 H   0  0  0  0  0  0  0  0  0  0  0  0
   -0.8764   10.7233   -7.6856 H   0  0  0  0  0  0  0  0  0  0  0  0
   -1.2447   12.0969   -8.7830 H   0  0  0  0  0  0  0  0  0  0  0  0
  1  2  1  0  0  0  0
  1  4  2  0  0  0  0
  1 13  1  0  0  0  0
  2  6  2  0  0  0  0
  3  4  1  0  0  0  0
  3  5  1  0  0  0  0
  5  6  1  0  0  0  0
  5  9  2  0  0  0  0
  6  7  1  0  0  0  0
  7  8  2  0  0  0  0
  7 10  1  0  0  0  0
  8  9  1  0  0  0  0
 10 15  2  3  0  0  0
 11 12  1  0  0  0  0
 11 13  2  0  0  0  0
 13 14  1  0  0  0  0
 15 16  1  0  0  0  0
 15 20  1  0  0  0  0
 16 17  2  0  0  0  0
 17 18  1  0  0  0  0
 17 21  1  0  0  0  0
 18 19  1  0  0  0  0
 18 23  1  0  0  0  0
 19 20  2  0  0  0  0
 21 22  1  0  0  0  0
 23 24  1  0  0  0  0
  2 25  1  0  0  0  0
  3 26  1  0  0  0  0
  3 27  1  0  0  0  0
  4 28  1  0  0  0  0
 10 29  1  0  0  0  0
 12 30  1  0  0  0  0
 12 31  1  0  0  0  0
 12 32  1  0  0  0  0
 14 33  1  0  0  0  0
 16 34  1  0  0  0  0
 18 35  1  0  0  0  0
 19 36  1  0  0  0  0
 20 37  1  0  0  0  0
 22 38  1  0  0  0  0
 22 39  1  0  0  0  0
 22 40  1  0  0  0  0
 24 41  1  0  0  0  0
 24 42  1  0  0  0  0
 24 43  1  0  0  0  0
M  END
> <Name>
15

> <IC50[uM]>
2.5

$$$$
15
  -OEChem-05192314333D
 Structure written by MMmdl.
 43 45  0     1  0  0  0  0  0999 V2000
   -6.3730   12.3647  -12.0124 C   0  0  3  0  0  0  0  0  0  0  0  0
   -6.5249   11.8167  -10.7375 C   0  0  0  0  0  0  0  0  0  0  0  0
   -7.7225   10.5819  -13.0270 C   0  0  0  0  0  0  0  0  0  0  0  0
   -6.9871   11.7813  -13.1320 C   0  0  0  0  0  0  0  0  0  0  0  0
   -7.8205   10.0150  -11.7538 C   0  0  0  0  0  0  0  0  0  0  0  0
   -7.2514   10.6217  -10.6093 C   0  0  0  0  0  0  0  0  0  0  0  0
   -7.6113    9.7463   -9.5119 C   0  0  0  0  0  0  0  0  0  0  0  0
   -8.2838    8.7282   -9.9768 N   0  0  0  0  0  0  0  0  0  0  0  0
   -8.4166    8.8609  -11.2984 N   0  0  0  0  0  0  0  0  0  0  0  0
   -7.3282    9.8959   -8.0269 C   0  0  0  0  0  0  0  0  0  0  0  0
   -4.4004   13.6489  -11.4541 N   0  0  0  0  0  0  0  0  0  0  0  0
   -3.4592   14.7715  -11.4916 C   0  0  0  0  0  0  0  0  0  0  0  0
   -5.5363   13.6231  -12.1917 C   0  0  0  0  0  0  0  0  0  0  0  0
   -5.8861   14.5056  -12.9557 O   0  0  0  0  0  0  0  0  0  0  0  0
   -5.9554   10.4909   -7.7390 C   0  0  0  0  0  0  0  0  0  0  0  0
   -5.8447   11.7612   -7.1661 C   0  0  0  0  0  0  0  0  0  0  0  0
   -4.5697   12.3054   -6.9214 C   0  0  0  0  0  0  0  0  0  0  0  0
   -3.4308   11.5801   -7.2259 C   0  0  0  0  0  0  0  0  0  0  0  0
   -3.5429   10.3015   -7.8076 C   0  0  0  0  0  0  0  0  0  0  0  0
   -4.8018    9.7661   -8.0596 C   0  0  0  0  0  0  0  0  0  0  0  0
   -4.4352   13.5609   -6.3638 O   0  0  0  0  0  0  0  0  0  0  0  0
   -3.6839   14.5445   -7.0766 C   0  0  0  0  0  0  0  0  0  0  0  0
   -2.1928   12.1397   -6.9410 O   0  0  0  0  0  0  0  0  0  0  0  0
   -1.0568   11.8071   -7.7386 C   0  0  0  0  0  0  0  0  0  0  0  0
   -5.4795   11.7442  -12.1757 H   0  0  0  0  0  0  0  0  0  0  0  0
   -6.0949   12.2992   -9.8722 H   0  0  0  0  0  0  0  0  0  0  0  0
   -8.1868   10.1246  -13.8882 H   0  0  0  0  0  0  0  0  0  0  0  0
   -6.8945   12.2613  -14.0950 H   0  0  0  0  0  0  0  0  0  0  0  0
   -8.0276    9.6101   -7.2552 H   0  0  0  0  0  0  0  0  0  0  0  0
   -2.6173   14.5676  -10.8136 H   0  0  0  0  0  0  0  0  0  0  0  0
   -3.0815   14.8991  -12.5168 H   0  0  0  0  0  0  0  0  0  0  0  0
   -3.9723   15.6908  -11.1728 H   0  0  0  0  0  0  0  0  0  0  0  0
   -5.2484   15.2095  -12.9404 H   0  0  0  0  0  0  0  0  0  0  0  0
   -6.7323   12.3219   -6.9127 H   0  0  0  0  0  0  0  0  0  0  0  0
   -2.6549    9.7395   -8.0568 H   0  0  0  0  0  0  0  0  0  0  0  0
   -4.8592    8.8187   -7.5036 H   0  0  0  0  0  0  0  0  0  0  0  0
   -4.8475    9.5609   -9.1393 H   0  0  0  0  0  0  0  0  0  0  0  0
   -3.6711   15.4833   -6.5034 H   0  0  0  0  0  0  0  0  0  0  0  0
   -2.6532   14.1872   -7.2178 H   0  0  0  0  0  0  0  0  0  0  0  0
   -4.1486   14.7205   -8.0580 H   0  0  0  0  0  0  0  0  0  0  0  0
   -0.1739   12.3445   -7.3623 H   0  0  0  0  0  0  0  0  0  0  0  0
   -0.8764   10.7233   -7.6856 H   0  0  0  0  0  0  0  0  0  0  0  0
   -1.2447   12.0969   -8.7830 H   0  0  0  0  0  0  0  0  0  0  0  0
  1  2  1  0  0  0  0
  1  4  1  0  0  0  0
  1 13  1  0  0  0  0
  2  6  2  0  0  0  0
  3  4  2  0  0  0  0
  3  5  1  0  0  0  0
  5  6  1  0  0  0  0
  5  9  2  0  0  0  0
  6  7  1  0  0  0  0
  7  8  2  0  0  0  0
  7 10  1  0  0  0  0
  8  9  1  0  0  0  0
 10 15  2  3  0  0  0
 11 12  1  0  0  0  0
 11 13  2  0  0  0  0
 13 14  1  0  0  0  0
 15 16  1  0  0  0  0
 15 20  1  0  0  0  0
 16 17  2  0  0  0  0
 17 18  1  0  0  0  0
 17 21  1  0  0  0  0
 18 19  2  0  0  0  0
 18 23  1  0  0  0  0
 19 20  1  0  0  0  0
 21 22  1  0  0  0  0
 23 24  1  0  0  0  0
  1 25  1  0  0  0  0
  2 26  1  0  0  0  0
  3 27  1  0  0  0  0
  4 28  1  0  0  0  0
 10 29  1  0  0  0  0
 12 30  1  0  0  0  0
 12 31  1  0  0  0  0
 12 32  1  0  0  0  0
 14 33  1  0  0  0  0
 16 34  1  0  0  0  0
 19 35  1  0  0  0  0
 20 36  1  0  0  0  0
 20 37  1  0  0  0  0
 22 38  1  0  0  0  0
 22 39  1  0  0  0  0
 22 40  1  0  0  0  0
 24 41  1  0  0  0  0
 24 42  1  0  0  0  0
 24 43  1  0  0  0  0
M  END
> <Name>
15

> <IC50[uM]>
2.5

$$$$
15
  -OEChem-05192314333D
 Structure written by MMmdl.
 43 45  0     1  0  0  0  0  0999 V2000
   -6.3730   12.3647  -12.0124 C   0  0  0  0  0  0  0  0  0  0  0  0
   -6.5249   11.8167  -10.7375 C   0  0  0  0  0  0  0  0  0  0  0  0
   -7.7225   10.5819  -13.0270 C   0  0  0  0  0  0  0  0  0  0  0  0
   -6.9871   11.7813  -13.1320 C   0  0  0  0  0  0  0  0  0  0  0  0
   -7.8205   10.0150  -11.7538 C   0  0  0  0  0  0  0  0  0  0  0  0
   -7.2514   10.6217  -10.6093 C   0  0  3  0  0  0  0  0  0  0  0  0
   -7.6113    9.7463   -9.5119 C   0  0  0  0  0  0  0  0  0  0  0  0
   -8.2838    8.7282   -9.9768 N   0  0  0  0  0  0  0  0  0  0  0  0
   -8.4166    8.8609  -11.2984 N   0  0  0  0  0  0  0  0  0  0  0  0
   -7.3282    9.8959   -8.0269 C   0  0  0  0  0  0  0  0  0  0  0  0
   -4.4004   13.6489  -11.4541 N   0  0  0  0  0  0  0  0  0  0  0  0
   -3.4592   14.7715  -11.4916 C   0  0  0  0  0  0  0  0  0  0  0  0
   -5.5363   13.6231  -12.1917 C   0  0  0  0  0  0  0  0  0  0  0  0
   -5.8861   14.5056  -12.9557 O   0  0  0  0  0  0  0  0  0  0  0  0
   -5.9554   10.4909   -7.7390 C   0  0  0  0  0  0  0  0  0  0  0  0
   -5.8447   11.7612   -7.1661 C   0  0  0  0  0  0  0  0  0  0  0  0
   -4.5697   12.3054   -6.9214 C   0  0  0  0  0  0  0  0  0  0  0  0
   -3.4308   11.5801   -7.2259 C   0  0  0  0  0  0  0  0  0  0  0  0
   -3.5429   10.3015   -7.8076 C   0  0  0  0  0  0  0  0  0  0  0  0
   -4.8018    9.7661   -8.0596 C   0  0  0  0  0  0  0  0  0  0  0  0
   -4.4352   13.5609   -6.3638 O   0  0  0  0  0  0  0  0  0  0  0  0
   -3.6839   14.5445   -7.0766 C   0  0  0  0  0  0  0  0  0  0  0  0
   -2.1928   12.1397   -6.9410 O   0  0  0  0  0  0  0  0  0  0  0  0
   -1.0568   11.8071   -7.7386 C   0  0  0  0  0  0  0  0  0  0  0  0
   -6.0949   12.2992   -9.8722 H   0  0  0  0  0  0  0  0  0  0  0  0
   -8.1868   10.1246  -13.8882 H   0  0  0  0  0  0  0  0  0  0  0  0
   -6.8945   12.2613  -14.0950 H   0  0  0  0  0  0  0  0  0  0  0  0
   -8.1752   11.1984  -10.4540 H   0  0  0  0  0  0  0  0  0  0  0  0
   -8.0276    9.6101   -7.2552 H   0  0  0  0  0  0  0  0  0  0  0  0
   -2.6173   14.5676  -10.8136 H   0  0  0  0  0  0  0  0  0  0  0  0
   -3.0815   14.8991  -12.5168 H   0  0  0  0  0  0  0  0  0  0  0  0
   -3.9723   15.6908  -11.1728 H   0  0  0  0  0  0  0  0  0  0  0  0
   -5.2484   15.2095  -12.9404 H   0  0  0  0  0  0  0  0  0  0  0  0
   -6.7323   12.3219   -6.9127 H   0  0  0  0  0  0  0  0  0  0  0  0
   -2.6549    9.7395   -8.0568 H   0  0  0  0  0  0  0  0  0  0  0  0
   -4.8592    8.8187   -7.5036 H   0  0  0  0  0  0  0  0  0  0  0  0
   -4.8475    9.5609   -9.1393 H   0  0  0  0  0  0  0  0  0  0  0  0
   -3.6711   15.4833   -6.5034 H   0  0  0  0  0  0  0  0  0  0  0  0
   -2.6532   14.1872   -7.2178 H   0  0  0  0  0  0  0  0  0  0  0  0
   -4.1486   14.7205   -8.0580 H   0  0  0  0  0  0  0  0  0  0  0  0
   -0.1739   12.3445   -7.3623 H   0  0  0  0  0  0  0  0  0  0  0  0
   -0.8764   10.7233   -7.6856 H   0  0  0  0  0  0  0  0  0  0  0  0
   -1.2447   12.0969   -8.7830 H   0  0  0  0  0  0  0  0  0  0  0  0
  1  2  2  0  0  0  0
  1  4  1  0  0  0  0
  1 13  1  0  0  0  0
  2  6  1  0  0  0  0
  3  4  2  0  0  0  0
  3  5  1  0  0  0  0
  5  6  1  0  0  0  0
  5  9  2  0  0  0  0
  6  7  1  0  0  0  0
  7  8  2  0  0  0  0
  7 10  1  0  0  0  0
  8  9  1  0  0  0  0
 10 15  2  3  0  0  0
 11 12  1  0  0  0  0
 11 13  2  0  0  0  0
 13 14  1  0  0  0  0
 15 16  1  0  0  0  0
 15 20  1  0  0  0  0
 16 17  2  0  0  0  0
 17 18  1  0  0  0  0
 17 21  1  0  0  0  0
 18 19  2  0  0  0  0
 18 23  1  0  0  0  0
 19 20  1  0  0  0  0
 21 22  1  0  0  0  0
 23 24  1  0  0  0  0
  2 25  1  0  0  0  0
  3 26  1  0  0  0  0
  4 27  1  0  0  0  0
  6 28  1  0  0  0  0
 10 29  1  0  0  0  0
 12 30  1  0  0  0  0
 12 31  1  0  0  0  0
 12 32  1  0  0  0  0
 14 33  1  0  0  0  0
 16 34  1  0  0  0  0
 19 35  1  0  0  0  0
 20 36  1  0  0  0  0
 20 37  1  0  0  0  0
 22 38  1  0  0  0  0
 22 39  1  0  0  0  0
 22 40  1  0  0  0  0
 24 41  1  0  0  0  0
 24 42  1  0  0  0  0
 24 43  1  0  0  0  0
M  END
> <Name>
15

> <IC50[uM]>
2.5

$$$$
15
  -OEChem-05192314333D
 Structure written by MMmdl.
 43 45  0     0  0  0  0  0  0999 V2000
   -6.3730   12.3647  -12.0124 C   0  0  0  0  0  0  0  0  0  0  0  0
   -6.5249   11.8167  -10.7375 C   0  0  0  0  0  0  0  0  0  0  0  0
   -7.7225   10.5819  -13.0270 C   0  0  0  0  0  0  0  0  0  0  0  0
   -6.9871   11.7813  -13.1320 C   0  0  0  0  0  0  0  0  0  0  0  0
   -7.8205   10.0150  -11.7538 C   0  0  0  0  0  0  0  0  0  0  0  0
   -7.2514   10.6217  -10.6093 C   0  0  0  0  0  0  0  0  0  0  0  0
   -7.6113    9.7463   -9.5119 C   0  0  0  0  0  0  0  0  0  0  0  0
   -8.2838    8.7282   -9.9768 N   0  0  0  0  0  0  0  0  0  0  0  0
   -8.4166    8.8609  -11.2984 N   0  0  0  0  0  0  0  0  0  0  0  0
   -7.3282    9.8959   -8.0269 C   0  0  0  0  0  0  0  0  0  0  0  0
   -4.4004   13.6489  -11.4541 N   0  0  0  0  0  0  0  0  0  0  0  0
   -3.4592   14.7715  -11.4916 C   0  0  0  0  0  0  0  0  0  0  0  0
   -5.5363   13.6231  -12.1917 C   0  0  0  0  0  0  0  0  0  0  0  0
   -5.8861   14.5056  -12.9557 O   0  0  0  0  0  0  0  0  0  0  0  0
   -5.9554   10.4909   -7.7390 C   0  0  0  0  0  0  0  0  0  0  0  0
   -5.8447   11.7612   -7.1661 C   0  0  0  0  0  0  0  0  0  0  0  0
   -4.5697   12.3054   -6.9214 C   0  0  0  0  0  0  0  0  0  0  0  0
   -3.4308   11.5801   -7.2259 C   0  0  0  0  0  0  0  0  0  0  0  0
   -3.5429   10.3015   -7.8076 C   0  0  0  0  0  0  0  0  0  0  0  0
   -4.8018    9.7661   -8.0596 C   0  0  0  0  0  0  0  0  0  0  0  0
   -4.4352   13.5609   -6.3638 O   0  0  0  0  0  0  0  0  0  0  0  0
   -3.6839   14.5445   -7.0766 C   0  0  0  0  0  0  0  0  0  0  0  0
   -2.1928   12.1397   -6.9410 O   0  0  0  0  0  0  0  0  0  0  0  0
   -1.0568   11.8071   -7.7386 C   0  0  0  0  0  0  0  0  0  0  0  0
   -6.0949   12.2992   -9.8722 H   0  0  0  0  0  0  0  0  0  0  0  0
   -8.7440   10.7853  -13.3808 H   0  0  0  0  0  0  0  0  0  0  0  0
   -7.2470    9.8407  -13.6861 H   0  0  0  0  0  0  0  0  0  0  0  0
   -6.8945   12.2613  -14.0950 H   0  0  0  0  0  0  0  0  0  0  0  0
   -8.0276    9.6101   -7.2552 H   0  0  0  0  0  0  0  0  0  0  0  0
   -2.6173   14.5676  -10.8136 H   0  0  0  0  0  0  0  0  0  0  0  0
   -3.0815   14.8991  -12.5168 H   0  0  0  0  0  0  0  0  0  0  0  0
   -3.9723   15.6908  -11.1728 H   0  0  0  0  0  0  0  0  0  0  0  0
   -5.2484   15.2095  -12.9404 H   0  0  0  0  0  0  0  0  0  0  0  0
   -6.7323   12.3219   -6.9127 H   0  0  0  0  0  0  0  0  0  0  0  0
   -2.6549    9.7395   -8.0568 H   0  0  0  0  0  0  0  0  0  0  0  0
   -4.8592    8.8187   -7.5036 H   0  0  0  0  0  0  0  0  0  0  0  0
   -4.8475    9.5609   -9.1393 H   0  0  0  0  0  0  0  0  0  0  0  0
   -3.6711   15.4833   -6.5034 H   0  0  0  0  0  0  0  0  0  0  0  0
   -2.6532   14.1872   -7.2178 H   0  0  0  0  0  0  0  0  0  0  0  0
   -4.1486   14.7205   -8.0580 H   0  0  0  0  0  0  0  0  0  0  0  0
   -0.1739   12.3445   -7.3623 H   0  0  0  0  0  0  0  0  0  0  0  0
   -0.8764   10.7233   -7.6856 H   0  0  0  0  0  0  0  0  0  0  0  0
   -1.2447   12.0969   -8.7830 H   0  0  0  0  0  0  0  0  0  0  0  0
  1  2  1  0  0  0  0
  1  4  2  0  0  0  0
  1 13  1  0  0  0  0
  2  6  2  0  0  0  0
  3  4  1  0  0  0  0
  3  5  1  0  0  0  0
  5  6  1  0  0  0  0
  5  9  2  0  0  0  0
  6  7  1  0  0  0  0
  7  8  2  0  0  0  0
  7 10  1  0  0  0  0
  8  9  1  0  0  0  0
 10 15  2  3  0  0  0
 11 12  1  0  0  0  0
 11 13  2  0  0  0  0
 13 14  1  0  0  0  0
 15 16  1  0  0  0  0
 15 20  1  0  0  0  0
 16 17  2  0  0  0  0
 17 18  1  0  0  0  0
 17 21  1  0  0  0  0
 18 19  2  0  0  0  0
 18 23  1  0  0  0  0
 19 20  1  0  0  0  0
 21 22  1  0  0  0  0
 23 24  1  0  0  0  0
  2 25  1  0  0  0  0
  3 26  1  0  0  0  0
  3 27  1  0  0  0  0
  4 28  1  0  0  0  0
 10 29  1  0  0  0  0
 12 30  1  0  0  0  0
 12 31  1  0  0  0  0
 12 32  1  0  0  0  0
 14 33  1  0  0  0  0
 16 34  1  0  0  0  0
 19 35  1  0  0  0  0
 20 36  1  0  0  0  0
 20 37  1  0  0  0  0
 22 38  1  0  0  0  0
 22 39  1  0  0  0  0
 22 40  1  0  0  0  0
 24 41  1  0  0  0  0
 24 42  1  0  0  0  0
 24 43  1  0  0  0  0
M  END
> <Name>
15

> <IC50[uM]>
2.5

$$$$
15
  -OEChem-05192314333D
 Structure written by MMmdl.
 43 45  0     1  0  0  0  0  0999 V2000
   -6.3730   12.3647  -12.0124 C   0  0  3  0  0  0  0  0  0  0  0  0
   -6.5249   11.8167  -10.7375 C   0  0  0  0  0  0  0  0  0  0  0  0
   -7.7225   10.5819  -13.0270 C   0  0  0  0  0  0  0  0  0  0  0  0
   -6.9871   11.7813  -13.1320 C   0  0  0  0  0  0  0  0  0  0  0  0
   -7.8205   10.0150  -11.7538 C   0  0  0  0  0  0  0  0  0  0  0  0
   -7.2514   10.6217  -10.6093 C   0  0  0  0  0  0  0  0  0  0  0  0
   -7.6113    9.7463   -9.5119 C   0  0  0  0  0  0  0  0  0  0  0  0
   -8.2838    8.7282   -9.9768 N   0  0  0  0  0  0  0  0  0  0  0  0
   -8.4166    8.8609  -11.2984 N   0  0  0  0  0  0  0  0  0  0  0  0
   -7.3282    9.8959   -8.0269 C   0  0  0  0  0  0  0  0  0  0  0  0
   -4.4004   13.6489  -11.4541 N   0  0  0  0  0  0  0  0  0  0  0  0
   -3.4592   14.7715  -11.4916 C   0  0  0  0  0  0  0  0  0  0  0  0
   -5.5363   13.6231  -12.1917 C   0  0  0  0  0  0  0  0  0  0  0  0
   -5.8861   14.5056  -12.9557 O   0  0  0  0  0  0  0  0  0  0  0  0
   -5.9554   10.4909   -7.7390 C   0  0  0  0  0  0  0  0  0  0  0  0
   -5.8447   11.7612   -7.1661 C   0  0  0  0  0  0  0  0  0  0  0  0
   -4.5697   12.3054   -6.9214 C   0  0  0  0  0  0  0  0  0  0  0  0
   -3.4308   11.5801   -7.2259 C   0  0  0  0  0  0  0  0  0  0  0  0
   -3.5429   10.3015   -7.8076 C   0  0  0  0  0  0  0  0  0  0  0  0
   -4.8018    9.7661   -8.0596 C   0  0  0  0  0  0  0  0  0  0  0  0
   -4.4352   13.5609   -6.3638 O   0  0  0  0  0  0  0  0  0  0  0  0
   -3.6839   14.5445   -7.0766 C   0  0  0  0  0  0  0  0  0  0  0  0
   -2.1928   12.1397   -6.9410 O   0  0  0  0  0  0  0  0  0  0  0  0
   -1.0568   11.8071   -7.7386 C   0  0  0  0  0  0  0  0  0  0  0  0
   -5.4795   11.7442  -12.1757 H   0  0  0  0  0  0  0  0  0  0  0  0
   -6.0949   12.2992   -9.8722 H   0  0  0  0  0  0  0  0  0  0  0  0
   -8.1868   10.1246  -13.8882 H   0  0  0  0  0  0  0  0  0  0  0  0
   -6.8945   12.2613  -14.0950 H   0  0  0  0  0  0  0  0  0  0  0  0
   -8.0276    9.6101   -7.2552 H   0  0  0  0  0  0  0  0  0  0  0  0
   -2.6173   14.5676  -10.8136 H   0  0  0  0  0  0  0  0  0  0  0  0
   -3.0815   14.8991  -12.5168 H   0  0  0  0  0  0  0  0  0  0  0  0
   -3.9723   15.6908  -11.1728 H   0  0  0  0  0  0  0  0  0  0  0  0
   -5.2484   15.2095  -12.9404 H   0  0  0  0  0  0  0  0  0  0  0  0
   -6.3671   12.4602   -7.8358 H   0  0  0  0  0  0  0  0  0  0  0  0
   -6.3661   11.7216   -6.1984 H   0  0  0  0  0  0  0  0  0  0  0  0
   -2.6549    9.7395   -8.0568 H   0  0  0  0  0  0  0  0  0  0  0  0
   -4.8895    8.7861   -8.5049 H   0  0  0  0  0  0  0  0  0  0  0  0
   -3.6711   15.4833   -6.5034 H   0  0  0  0  0  0  0  0  0  0  0  0
   -2.6532   14.1872   -7.2178 H   0  0  0  0  0  0  0  0  0  0  0  0
   -4.1486   14.7205   -8.0580 H   0  0  0  0  0  0  0  0  0  0  0  0
   -0.1739   12.3445   -7.3623 H   0  0  0  0  0  0  0  0  0  0  0  0
   -0.8764   10.7233   -7.6856 H   0  0  0  0  0  0  0  0  0  0  0  0
   -1.2447   12.0969   -8.7830 H   0  0  0  0  0  0  0  0  0  0  0  0
  1  2  1  0  0  0  0
  1  4  1  0  0  0  0
  1 13  1  0  0  0  0
  2  6  2  0  0  0  0
  3  4  2  0  0  0  0
  3  5  1  0  0  0  0
  5  6  1  0  0  0  0
  5  9  2  0  0  0  0
  6  7  1  0  0  0  0
  7  8  2  0  0  0  0
  7 10  1  0  0  0  0
  8  9  1  0  0  0  0
 10 15  2  3  0  0  0
 11 12  1  0  0  0  0
 11 13  2  0  0  0  0
 13 14  1  0  0  0  0
 15 16  1  0  0  0  0
 15 20  1  0  0  0  0
 16 17  1  0  0  0  0
 17 18  2  0  0  0  0
 17 21  1  0  0  0  0
 18 19  1  0  0  0  0
 18 23  1  0  0  0  0
 19 20  2  0  0  0  0
 21 22  1  0  0  0  0
 23 24  1  0  0  0  0
  1 25  1  0  0  0  0
  2 26  1  0  0  0  0
  3 27  1  0  0  0  0
  4 28  1  0  0  0  0
 10 29  1  0  0  0  0
 12 30  1  0  0  0  0
 12 31  1  0  0  0  0
 12 32  1  0  0  0  0
 14 33  1  0  0  0  0
 16 34  1  0  0  0  0
 16 35  1  0  0  0  0
 19 36  1  0  0  0  0
 20 37  1  0  0  0  0
 22 38  1  0  0  0  0
 22 39  1  0  0  0  0
 22 40  1  0  0  0  0
 24 41  1  0  0  0  0
 24 42  1  0  0  0  0
 24 43  1  0  0  0  0
M  END
> <Name>
15

> <IC50[uM]>
2.5

$$$$
15
  -OEChem-05192314333D
 Structure written by MMmdl.
 43 45  0     1  0  0  0  0  0999 V2000
   -6.3730   12.3647  -12.0124 C   0  0  0  0  0  0  0  0  0  0  0  0
   -6.5249   11.8167  -10.7375 C   0  0  0  0  0  0  0  0  0  0  0  0
   -7.7225   10.5819  -13.0270 C   0  0  0  0  0  0  0  0  0  0  0  0
   -6.9871   11.7813  -13.1320 C   0  0  0  0  0  0  0  0  0  0  0  0
   -7.8205   10.0150  -11.7538 C   0  0  0  0  0  0  0  0  0  0  0  0
   -7.2514   10.6217  -10.6093 C   0  0  3  0  0  0  0  0  0  0  0  0
   -7.6113    9.7463   -9.5119 C   0  0  0  0  0  0  0  0  0  0  0  0
   -8.2838    8.7282   -9.9768 N   0  0  0  0  0  0  0  0  0  0  0  0
   -8.4166    8.8609  -11.2984 N   0  0  0  0  0  0  0  0  0  0  0  0
   -7.3282    9.8959   -8.0269 C   0  0  0  0  0  0  0  0  0  0  0  0
   -4.4004   13.6489  -11.4541 N   0  0  0  0  0  0  0  0  0  0  0  0
   -3.4592   14.7715  -11.4916 C   0  0  0  0  0  0  0  0  0  0  0  0
   -5.5363   13.6231  -12.1917 C   0  0  0  0  0  0  0  0  0  0  0  0
   -5.8861   14.5056  -12.9557 O   0  0  0  0  0  0  0  0  0  0  0  0
   -5.9554   10.4909   -7.7390 C   0  0  0  0  0  0  0  0  0  0  0  0
   -5.8447   11.7612   -7.1661 C   0  0  0  0  0  0  0  0  0  0  0  0
   -4.5697   12.3054   -6.9214 C   0  0  0  0  0  0  0  0  0  0  0  0
   -3.4308   11.5801   -7.2259 C   0  0  0  0  0  0  0  0  0  0  0  0
   -3.5429   10.3015   -7.8076 C   0  0  0  0  0  0  0  0  0  0  0  0
   -4.8018    9.7661   -8.0596 C   0  0  0  0  0  0  0  0  0  0  0  0
   -4.4352   13.5609   -6.3638 O   0  0  0  0  0  0  0  0  0  0  0  0
   -3.6839   14.5445   -7.0766 C   0  0  0  0  0  0  0  0  0  0  0  0
   -2.1928   12.1397   -6.9410 O   0  0  0  0  0  0  0  0  0  0  0  0
   -1.0568   11.8071   -7.7386 C   0  0  0  0  0  0  0  0  0  0  0  0
   -6.0949   12.2992   -9.8722 H   0  0  0  0  0  0  0  0  0  0  0  0
   -8.1868   10.1246  -13.8882 H   0  0  0  0  0  0  0  0  0  0  0  0
   -6.8945   12.2613  -14.0950 H   0  0  0  0  0  0  0  0  0  0  0  0
   -8.1752   11.1984  -10.4540 H   0  0  0  0  0  0  0  0  0  0  0  0
   -8.0276    9.6101   -7.2552 H   0  0  0  0  0  0  0  0  0  0  0  0
   -2.6173   14.5676  -10.8136 H   0  0  0  0  0  0  0  0  0  0  0  0
   -3.0815   14.8991  -12.5168 H   0  0  0  0  0  0  0  0  0  0  0  0
   -3.9723   15.6908  -11.1728 H   0  0  0  0  0  0  0  0  0  0  0  0
   -5.2484   15.2095  -12.9404 H   0  0  0  0  0  0  0  0  0  0  0  0
   -6.3671   12.4602   -7.8358 H   0  0  0  0  0  0  0  0  0  0  0  0
   -6.3661   11.7216   -6.1984 H   0  0  0  0  0  0  0  0  0  0  0  0
   -2.6549    9.7395   -8.0568 H   0  0  0  0  0  0  0  0  0  0  0  0
   -4.8895    8.7861   -8.5049 H   0  0  0  0  0  0  0  0  0  0  0  0
   -3.6711   15.4833   -6.5034 H   0  0  0  0  0  0  0  0  0  0  0  0
   -2.6532   14.1872   -7.2178 H   0  0  0  0  0  0  0  0  0  0  0  0
   -4.1486   14.7205   -8.0580 H   0  0  0  0  0  0  0  0  0  0  0  0
   -0.1739   12.3445   -7.3623 H   0  0  0  0  0  0  0  0  0  0  0  0
   -0.8764   10.7233   -7.6856 H   0  0  0  0  0  0  0  0  0  0  0  0
   -1.2447   12.0969   -8.7830 H   0  0  0  0  0  0  0  0  0  0  0  0
  1  2  2  0  0  0  0
  1  4  1  0  0  0  0
  1 13  1  0  0  0  0
  2  6  1  0  0  0  0
  3  4  2  0  0  0  0
  3  5  1  0  0  0  0
  5  6  1  0  0  0  0
  5  9  2  0  0  0  0
  6  7  1  0  0  0  0
  7  8  2  0  0  0  0
  7 10  1  0  0  0  0
  8  9  1  0  0  0  0
 10 15  2  3  0  0  0
 11 12  1  0  0  0  0
 11 13  2  0  0  0  0
 13 14  1  0  0  0  0
 15 16  1  0  0  0  0
 15 20  1  0  0  0  0
 16 17  1  0  0  0  0
 17 18  2  0  0  0  0
 17 21  1  0  0  0  0
 18 19  1  0  0  0  0
 18 23  1  0  0  0  0
 19 20  2  0  0  0  0
 21 22  1  0  0  0  0
 23 24  1  0  0  0  0
  2 25  1  0  0  0  0
  3 26  1  0  0  0  0
  4 27  1  0  0  0  0
  6 28  1  0  0  0  0
 10 29  1  0  0  0  0
 12 30  1  0  0  0  0
 12 31  1  0  0  0  0
 12 32  1  0  0  0  0
 14 33  1  0  0  0  0
 16 34  1  0  0  0  0
 16 35  1  0  0  0  0
 19 36  1  0  0  0  0
 20 37  1  0  0  0  0
 22 38  1  0  0  0  0
 22 39  1  0  0  0  0
 22 40  1  0  0  0  0
 24 41  1  0  0  0  0
 24 42  1  0  0  0  0
 24 43  1  0  0  0  0
M  END
> <Name>
15

> <IC50[uM]>
2.5

$$$$
15
  -OEChem-05192314333D
 Structure written by MMmdl.
 43 45  0     0  0  0  0  0  0999 V2000
   -6.3730   12.3647  -12.0124 C   0  0  0  0  0  0  0  0  0  0  0  0
   -6.5249   11.8167  -10.7375 C   0  0  0  0  0  0  0  0  0  0  0  0
   -7.7225   10.5819  -13.0270 C   0  0  0  0  0  0  0  0  0  0  0  0
   -6.9871   11.7813  -13.1320 C   0  0  0  0  0  0  0  0  0  0  0  0
   -7.8205   10.0150  -11.7538 C   0  0  0  0  0  0  0  0  0  0  0  0
   -7.2514   10.6217  -10.6093 C   0  0  0  0  0  0  0  0  0  0  0  0
   -7.6113    9.7463   -9.5119 C   0  0  0  0  0  0  0  0  0  0  0  0
   -8.2838    8.7282   -9.9768 N   0  0  0  0  0  0  0  0  0  0  0  0
   -8.4166    8.8609  -11.2984 N   0  0  0  0  0  0  0  0  0  0  0  0
   -7.3282    9.8959   -8.0269 C   0  0  0  0  0  0  0  0  0  0  0  0
   -4.4004   13.6489  -11.4541 N   0  0  0  0  0  0  0  0  0  0  0  0
   -3.4592   14.7715  -11.4916 C   0  0  0  0  0  0  0  0  0  0  0  0
   -5.5363   13.6231  -12.1917 C   0  0  0  0  0  0  0  0  0  0  0  0
   -5.8861   14.5056  -12.9557 O   0  0  0  0  0  0  0  0  0  0  0  0
   -5.9554   10.4909   -7.7390 C   0  0  0  0  0  0  0  0  0  0  0  0
   -5.8447   11.7612   -7.1661 C   0  0  0  0  0  0  0  0  0  0  0  0
   -4.5697   12.3054   -6.9214 C   0  0  0  0  0  0  0  0  0  0  0  0
   -3.4308   11.5801   -7.2259 C   0  0  0  0  0  0  0  0  0  0  0  0
   -3.5429   10.3015   -7.8076 C   0  0  0  0  0  0  0  0  0  0  0  0
   -4.8018    9.7661   -8.0596 C   0  0  0  0  0  0  0  0  0  0  0  0
   -4.4352   13.5609   -6.3638 O   0  0  0  0  0  0  0  0  0  0  0  0
   -3.6839   14.5445   -7.0766 C   0  0  0  0  0  0  0  0  0  0  0  0
   -2.1928   12.1397   -6.9410 O   0  0  0  0  0  0  0  0  0  0  0  0
   -1.0568   11.8071   -7.7386 C   0  0  0  0  0  0  0  0  0  0  0  0
   -6.0949   12.2992   -9.8722 H   0  0  0  0  0  0  0  0  0  0  0  0
   -8.7440   10.7853  -13.3808 H   0  0  0  0  0  0  0  0  0  0  0  0
   -7.2470    9.8407  -13.6861 H   0  0  0  0  0  0  0  0  0  0  0  0
   -6.8945   12.2613  -14.0950 H   0  0  0  0  0  0  0  0  0  0  0  0
   -8.0276    9.6101   -7.2552 H   0  0  0  0  0  0  0  0  0  0  0  0
   -2.6173   14.5676  -10.8136 H   0  0  0  0  0  0  0  0  0  0  0  0
   -3.0815   14.8991  -12.5168 H   0  0  0  0  0  0  0  0  0  0  0  0
   -3.9723   15.6908  -11.1728 H   0  0  0  0  0  0  0  0  0  0  0  0
   -5.2484   15.2095  -12.9404 H   0  0  0  0  0  0  0  0  0  0  0  0
   -6.3671   12.4602   -7.8358 H   0  0  0  0  0  0  0  0  0  0  0  0
   -6.3661   11.7216   -6.1984 H   0  0  0  0  0  0  0  0  0  0  0  0
   -2.6549    9.7395   -8.0568 H   0  0  0  0  0  0  0  0  0  0  0  0
   -4.8895    8.7861   -8.5049 H   0  0  0  0  0  0  0  0  0  0  0  0
   -3.6711   15.4833   -6.5034 H   0  0  0  0  0  0  0  0  0  0  0  0
   -2.6532   14.1872   -7.2178 H   0  0  0  0  0  0  0  0  0  0  0  0
   -4.1486   14.7205   -8.0580 H   0  0  0  0  0  0  0  0  0  0  0  0
   -0.1739   12.3445   -7.3623 H   0  0  0  0  0  0  0  0  0  0  0  0
   -0.8764   10.7233   -7.6856 H   0  0  0  0  0  0  0  0  0  0  0  0
   -1.2447   12.0969   -8.7830 H   0  0  0  0  0  0  0  0  0  0  0  0
  1  2  1  0  0  0  0
  1  4  2  0  0  0  0
  1 13  1  0  0  0  0
  2  6  2  0  0  0  0
  3  4  1  0  0  0  0
  3  5  1  0  0  0  0
  5  6  1  0  0  0  0
  5  9  2  0  0  0  0
  6  7  1  0  0  0  0
  7  8  2  0  0  0  0
  7 10  1  0  0  0  0
  8  9  1  0  0  0  0
 10 15  2  3  0  0  0
 11 12  1  0  0  0  0
 11 13  2  0  0  0  0
 13 14  1  0  0  0  0
 15 16  1  0  0  0  0
 15 20  1  0  0  0  0
 16 17  1  0  0  0  0
 17 18  2  0  0  0  0
 17 21  1  0  0  0  0
 18 19  1  0  0  0  0
 18 23  1  0  0  0  0
 19 20  2  0  0  0  0
 21 22  1  0  0  0  0
 23 24  1  0  0  0  0
  2 25  1  0  0  0  0
  3 26  1  0  0  0  0
  3 27  1  0  0  0  0
  4 28  1  0  0  0  0
 10 29  1  0  0  0  0
 12 30  1  0  0  0  0
 12 31  1  0  0  0  0
 12 32  1  0  0  0  0
 14 33  1  0  0  0  0
 16 34  1  0  0  0  0
 16 35  1  0  0  0  0
 19 36  1  0  0  0  0
 20 37  1  0  0  0  0
 22 38  1  0  0  0  0
 22 39  1  0  0  0  0
 22 40  1  0  0  0  0
 24 41  1  0  0  0  0
 24 42  1  0  0  0  0
 24 43  1  0  0  0  0
M  END
> <Name>
15

> <IC50[uM]>
2.5

$$$$
15
  -OEChem-05192314333D
 Structure written by MMmdl.
 43 45  0     1  0  0  0  0  0999 V2000
   -6.3730   12.3647  -12.0124 C   0  0  0  0  0  0  0  0  0  0  0  0
   -6.5249   11.8167  -10.7375 C   0  0  0  0  0  0  0  0  0  0  0  0
   -7.7225   10.5819  -13.0270 C   0  0  0  0  0  0  0  0  0  0  0  0
   -6.9871   11.7813  -13.1320 C   0  0  0  0  0  0  0  0  0  0  0  0
   -7.8205   10.0150  -11.7538 C   0  0  3  0  0  0  0  0  0  0  0  0
   -7.2514   10.6217  -10.6093 C   0  0  0  0  0  0  0  0  0  0  0  0
   -7.6113    9.7463   -9.5119 C   0  0  0  0  0  0  0  0  0  0  0  0
   -8.2838    8.7282   -9.9768 N   0  0  0  0  0  0  0  0  0  0  0  0
   -8.4166    8.8609  -11.2984 N   0  0  0  0  0  0  0  0  0  0  0  0
   -7.3282    9.8959   -8.0269 C   0  0  0  0  0  0  0  0  0  0  0  0
   -4.4004   13.6489  -11.4541 N   0  0  0  0  0  0  0  0  0  0  0  0
   -3.4592   14.7715  -11.4916 C   0  0  0  0  0  0  0  0  0  0  0  0
   -5.5363   13.6231  -12.1917 C   0  0  0  0  0  0  0  0  0  0  0  0
   -5.8861   14.5056  -12.9557 O   0  0  0  0  0  0  0  0  0  0  0  0
   -5.9554   10.4909   -7.7390 C   0  0  0  0  0  0  0  0  0  0  0  0
   -5.8447   11.7612   -7.1661 C   0  0  0  0  0  0  0  0  0  0  0  0
   -4.5697   12.3054   -6.9214 C   0  0  0  0  0  0  0  0  0  0  0  0
   -3.4308   11.5801   -7.2259 C   0  0  3  0  0  0  0  0  0  0  0  0
   -3.5429   10.3015   -7.8076 C   0  0  0  0  0  0  0  0  0  0  0  0
   -4.8018    9.7661   -8.0596 C   0  0  0  0  0  0  0  0  0  0  0  0
   -4.4352   13.5609   -6.3638 O   0  0  0  0  0  0  0  0  0  0  0  0
   -3.6839   14.5445   -7.0766 C   0  0  0  0  0  0  0  0  0  0  0  0
   -2.1928   12.1397   -6.9410 O   0  0  0  0  0  0  0  0  0  0  0  0
   -1.0568   11.8071   -7.7386 C   0  0  0  0  0  0  0  0  0  0  0  0
   -6.0949   12.2992   -9.8722 H   0  0  0  0  0  0  0  0  0  0  0  0
   -8.1868   10.1246  -13.8882 H   0  0  0  0  0  0  0  0  0  0  0  0
   -6.8945   12.2613  -14.0950 H   0  0  0  0  0  0  0  0  0  0  0  0
   -6.8846    9.4635  -11.9271 H   0  0  0  0  0  0  0  0  0  0  0  0
   -8.0276    9.6101   -7.2552 H   0  0  0  0  0  0  0  0  0  0  0  0
   -4.1959   12.8707  -10.8602 H   0  0  0  0  0  0  0  0  0  0  0  0
   -2.6173   14.5676  -10.8136 H   0  0  0  0  0  0  0  0  0  0  0  0
   -3.0815   14.8991  -12.5168 H   0  0  0  0  0  0  0  0  0  0  0  0
   -3.9723   15.6908  -11.1728 H   0  0  0  0  0  0  0  0  0  0  0  0
   -6.7323   12.3219   -6.9127 H   0  0  0  0  0  0  0  0  0  0  0  0
   -3.4073   12.0349   -8.2272 H   0  0  0  0  0  0  0  0  0  0  0  0
   -2.6549    9.7395   -8.0568 H   0  0  0  0  0  0  0  0  0  0  0  0
   -4.8895    8.7861   -8.5049 H   0  0  0  0  0  0  0  0  0  0  0  0
   -3.6711   15.4833   -6.5034 H   0  0  0  0  0  0  0  0  0  0  0  0
   -2.6532   14.1872   -7.2178 H   0  0  0  0  0  0  0  0  0  0  0  0
   -4.1486   14.7205   -8.0580 H   0  0  0  0  0  0  0  0  0  0  0  0
   -0.1739   12.3445   -7.3623 H   0  0  0  0  0  0  0  0  0  0  0  0
   -0.8764   10.7233   -7.6856 H   0  0  0  0  0  0  0  0  0  0  0  0
   -1.2447   12.0969   -8.7830 H   0  0  0  0  0  0  0  0  0  0  0  0
  1  2  2  0  0  0  0
  1  4  1  0  0  0  0
  1 13  1  0  0  0  0
  2  6  1  0  0  0  0
  3  4  2  0  0  0  0
  3  5  1  0  0  0  0
  5  6  1  0  0  0  0
  5  9  1  0  0  0  0
  6  7  2  0  0  0  0
  7  8  1  0  0  0  0
  7 10  1  0  0  0  0
  8  9  2  0  0  0  0
 10 15  2  3  0  0  0
 11 12  1  0  0  0  0
 11 13  1  0  0  0  0
 13 14  2  0  0  0  0
 15 16  1  0  0  0  0
 15 20  1  0  0  0  0
 16 17  2  0  0  0  0
 17 18  1  0  0  0  0
 17 21  1  0  0  0  0
 18 19  1  0  0  0  0
 18 23  1  0  0  0  0
 19 20  2  0  0  0  0
 21 22  1  0  0  0  0
 23 24  1  0  0  0  0
  2 25  1  0  0  0  0
  3 26  1  0  0  0  0
  4 27  1  0  0  0  0
  5 28  1  0  0  0  0
 10 29  1  0  0  0  0
 11 30  1  0  0  0  0
 12 31  1  0  0  0  0
 12 32  1  0  0  0  0
 12 33  1  0  0  0  0
 16 34  1  0  0  0  0
 18 35  1  0  0  0  0
 19 36  1  0  0  0  0
 20 37  1  0  0  0  0
 22 38  1  0  0  0  0
 22 39  1  0  0  0  0
 22 40  1  0  0  0  0
 24 41  1  0  0  0  0
 24 42  1  0  0  0  0
 24 43  1  0  0  0  0
M  END
> <Name>
15

> <IC50[uM]>
2.5

$$$$
15
  -OEChem-05192314333D
 Structure written by MMmdl.
 43 45  0     1  0  0  0  0  0999 V2000
   -6.3730   12.3647  -12.0124 C   0  0  0  0  0  0  0  0  0  0  0  0
   -6.5249   11.8167  -10.7375 C   0  0  0  0  0  0  0  0  0  0  0  0
   -7.7225   10.5819  -13.0270 C   0  0  0  0  0  0  0  0  0  0  0  0
   -6.9871   11.7813  -13.1320 C   0  0  0  0  0  0  0  0  0  0  0  0
   -7.8205   10.0150  -11.7538 C   0  0  0  0  0  0  0  0  0  0  0  0
   -7.2514   10.6217  -10.6093 C   0  0  0  0  0  0  0  0  0  0  0  0
   -7.6113    9.7463   -9.5119 C   0  0  0  0  0  0  0  0  0  0  0  0
   -8.2838    8.7282   -9.9768 N   0  0  0  0  0  0  0  0  0  0  0  0
   -8.4166    8.8609  -11.2984 N   0  0  0  0  0  0  0  0  0  0  0  0
   -7.3282    9.8959   -8.0269 C   0  0  0  0  0  0  0  0  0  0  0  0
   -4.4004   13.6489  -11.4541 N   0  0  0  0  0  0  0  0  0  0  0  0
   -3.4592   14.7715  -11.4916 C   0  0  0  0  0  0  0  0  0  0  0  0
   -5.5363   13.6231  -12.1917 C   0  0  0  0  0  0  0  0  0  0  0  0
   -5.8861   14.5056  -12.9557 O   0  0  0  0  0  0  0  0  0  0  0  0
   -5.9554   10.4909   -7.7390 C   0  0  0  0  0  0  0  0  0  0  0  0
   -5.8447   11.7612   -7.1661 C   0  0  0  0  0  0  0  0  0  0  0  0
   -4.5697   12.3054   -6.9214 C   0  0  0  0  0  0  0  0  0  0  0  0
   -3.4308   11.5801   -7.2259 C   0  0  3  0  0  0  0  0  0  0  0  0
   -3.5429   10.3015   -7.8076 C   0  0  0  0  0  0  0  0  0  0  0  0
   -4.8018    9.7661   -8.0596 C   0  0  0  0  0  0  0  0  0  0  0  0
   -4.4352   13.5609   -6.3638 O   0  0  0  0  0  0  0  0  0  0  0  0
   -3.6839   14.5445   -7.0766 C   0  0  0  0  0  0  0  0  0  0  0  0
   -2.1928   12.1397   -6.9410 O   0  0  0  0  0  0  0  0  0  0  0  0
   -1.0568   11.8071   -7.7386 C   0  0  0  0  0  0  0  0  0  0  0  0
   -6.0949   12.2992   -9.8722 H   0  0  0  0  0  0  0  0  0  0  0  0
   -8.1868   10.1246  -13.8882 H   0  0  0  0  0  0  0  0  0  0  0  0
   -7.6791   12.5355  -13.5348 H   0  0  0  0  0  0  0  0  0  0  0  0
   -6.1862   11.5916  -13.8618 H   0  0  0  0  0  0  0  0  0  0  0  0
   -8.0276    9.6101   -7.2552 H   0  0  0  0  0  0  0  0  0  0  0  0
   -4.1959   12.8707  -10.8602 H   0  0  0  0  0  0  0  0  0  0  0  0
   -2.6173   14.5676  -10.8136 H   0  0  0  0  0  0  0  0  0  0  0  0
   -3.0815   14.8991  -12.5168 H   0  0  0  0  0  0  0  0  0  0  0  0
   -3.9723   15.6908  -11.1728 H   0  0  0  0  0  0  0  0  0  0  0  0
   -6.7323   12.3219   -6.9127 H   0  0  0  0  0  0  0  0  0  0  0  0
   -3.4073   12.0349   -8.2272 H   0  0  0  0  0  0  0  0  0  0  0  0
   -2.6549    9.7395   -8.0568 H   0  0  0  0  0  0  0  0  0  0  0  0
   -4.8895    8.7861   -8.5049 H   0  0  0  0  0  0  0  0  0  0  0  0
   -3.6711   15.4833   -6.5034 H   0  0  0  0  0  0  0  0  0  0  0  0
   -2.6532   14.1872   -7.2178 H   0  0  0  0  0  0  0  0  0  0  0  0
   -4.1486   14.7205   -8.0580 H   0  0  0  0  0  0  0  0  0  0  0  0
   -0.1739   12.3445   -7.3623 H   0  0  0  0  0  0  0  0  0  0  0  0
   -0.8764   10.7233   -7.6856 H   0  0  0  0  0  0  0  0  0  0  0  0
   -1.2447   12.0969   -8.7830 H   0  0  0  0  0  0  0  0  0  0  0  0
  1  2  2  0  0  0  0
  1  4  1  0  0  0  0
  1 13  1  0  0  0  0
  2  6  1  0  0  0  0
  3  4  1  0  0  0  0
  3  5  2  0  0  0  0
  5  6  1  0  0  0  0
  5  9  1  0  0  0  0
  6  7  2  0  0  0  0
  7  8  1  0  0  0  0
  7 10  1  0  0  0  0
  8  9  2  0  0  0  0
 10 15  2  3  0  0  0
 11 12  1  0  0  0  0
 11 13  1  0  0  0  0
 13 14  2  0  0  0  0
 15 16  1  0  0  0  0
 15 20  1  0  0  0  0
 16 17  2  0  0  0  0
 17 18  1  0  0  0  0
 17 21  1  0  0  0  0
 18 19  1  0  0  0  0
 18 23  1  0  0  0  0
 19 20  2  0  0  0  0
 21 22  1  0  0  0  0
 23 24  1  0  0  0  0
  2 25  1  0  0  0  0
  3 26  1  0  0  0  0
  4 27  1  0  0  0  0
  4 28  1  0  0  0  0
 10 29  1  0  0  0  0
 11 30  1  0  0  0  0
 12 31  1  0  0  0  0
 12 32  1  0  0  0  0
 12 33  1  0  0  0  0
 16 34  1  0  0  0  0
 18 35  1  0  0  0  0
 19 36  1  0  0  0  0
 20 37  1  0  0  0  0
 22 38  1  0  0  0  0
 22 39  1  0  0  0  0
 22 40  1  0  0  0  0
 24 41  1  0  0  0  0
 24 42  1  0  0  0  0
 24 43  1  0  0  0  0
M  END
> <Name>
15

> <IC50[uM]>
2.5

$$$$
15
  -OEChem-05192314333D
 Structure written by MMmdl.
 43 45  0     1  0  0  0  0  0999 V2000
   -6.3730   12.3647  -12.0124 C   0  0  0  0  0  0  0  0  0  0  0  0
   -6.5249   11.8167  -10.7375 C   0  0  0  0  0  0  0  0  0  0  0  0
   -7.7225   10.5819  -13.0270 C   0  0  0  0  0  0  0  0  0  0  0  0
   -6.9871   11.7813  -13.1320 C   0  0  0  0  0  0  0  0  0  0  0  0
   -7.8205   10.0150  -11.7538 C   0  0  3  0  0  0  0  0  0  0  0  0
   -7.2514   10.6217  -10.6093 C   0  0  0  0  0  0  0  0  0  0  0  0
   -7.6113    9.7463   -9.5119 C   0  0  0  0  0  0  0  0  0  0  0  0
   -8.2838    8.7282   -9.9768 N   0  0  0  0  0  0  0  0  0  0  0  0
   -8.4166    8.8609  -11.2984 N   0  0  0  0  0  0  0  0  0  0  0  0
   -7.3282    9.8959   -8.0269 C   0  0  0  0  0  0  0  0  0  0  0  0
   -4.4004   13.6489  -11.4541 N   0  0  0  0  0  0  0  0  0  0  0  0
   -3.4592   14.7715  -11.4916 C   0  0  0  0  0  0  0  0  0  0  0  0
   -5.5363   13.6231  -12.1917 C   0  0  0  0  0  0  0  0  0  0  0  0
   -5.8861   14.5056  -12.9557 O   0  0  0  0  0  0  0  0  0  0  0  0
   -5.9554   10.4909   -7.7390 C   0  0  0  0  0  0  0  0  0  0  0  0
   -5.8447   11.7612   -7.1661 C   0  0  0  0  0  0  0  0  0  0  0  0
   -4.5697   12.3054   -6.9214 C   0  0  0  0  0  0  0  0  0  0  0  0
   -3.4308   11.5801   -7.2259 C   0  0  0  0  0  0  0  0  0  0  0  0
   -3.5429   10.3015   -7.8076 C   0  0  0  0  0  0  0  0  0  0  0  0
   -4.8018    9.7661   -8.0596 C   0  0  0  0  0  0  0  0  0  0  0  0
   -4.4352   13.5609   -6.3638 O   0  0  0  0  0  0  0  0  0  0  0  0
   -3.6839   14.5445   -7.0766 C   0  0  0  0  0  0  0  0  0  0  0  0
   -2.1928   12.1397   -6.9410 O   0  0  0  0  0  0  0  0  0  0  0  0
   -1.0568   11.8071   -7.7386 C   0  0  0  0  0  0  0  0  0  0  0  0
   -6.0949   12.2992   -9.8722 H   0  0  0  0  0  0  0  0  0  0  0  0
   -8.1868   10.1246  -13.8882 H   0  0  0  0  0  0  0  0  0  0  0  0
   -6.8945   12.2613  -14.0950 H   0  0  0  0  0  0  0  0  0  0  0  0
   -6.8846    9.4635  -11.9271 H   0  0  0  0  0  0  0  0  0  0  0  0
   -8.0276    9.6101   -7.2552 H   0  0  0  0  0  0  0  0  0  0  0  0
   -4.1959   12.8707  -10.8602 H   0  0  0  0  0  0  0  0  0  0  0  0
   -2.6173   14.5676  -10.8136 H   0  0  0  0  0  0  0  0  0  0  0  0
   -3.0815   14.8991  -12.5168 H   0  0  0  0  0  0  0  0  0  0  0  0
   -3.9723   15.6908  -11.1728 H   0  0  0  0  0  0  0  0  0  0  0  0
   -6.7323   12.3219   -6.9127 H   0  0  0  0  0  0  0  0  0  0  0  0
   -2.6549    9.7395   -8.0568 H   0  0  0  0  0  0  0  0  0  0  0  0
   -4.8592    8.8187   -7.5036 H   0  0  0  0  0  0  0  0  0  0  0  0
   -4.8475    9.5609   -9.1393 H   0  0  0  0  0  0  0  0  0  0  0  0
   -3.6711   15.4833   -6.5034 H   0  0  0  0  0  0  0  0  0  0  0  0
   -2.6532   14.1872   -7.2178 H   0  0  0  0  0  0  0  0  0  0  0  0
   -4.1486   14.7205   -8.0580 H   0  0  0  0  0  0  0  0  0  0  0  0
   -0.1739   12.3445   -7.3623 H   0  0  0  0  0  0  0  0  0  0  0  0
   -0.8764   10.7233   -7.6856 H   0  0  0  0  0  0  0  0  0  0  0  0
   -1.2447   12.0969   -8.7830 H   0  0  0  0  0  0  0  0  0  0  0  0
  1  2  2  0  0  0  0
  1  4  1  0  0  0  0
  1 13  1  0  0  0  0
  2  6  1  0  0  0  0
  3  4  2  0  0  0  0
  3  5  1  0  0  0  0
  5  6  1  0  0  0  0
  5  9  1  0  0  0  0
  6  7  2  0  0  0  0
  7  8  1  0  0  0  0
  7 10  1  0  0  0  0
  8  9  2  0  0  0  0
 10 15  2  3  0  0  0
 11 12  1  0  0  0  0
 11 13  1  0  0  0  0
 13 14  2  0  0  0  0
 15 16  1  0  0  0  0
 15 20  1  0  0  0  0
 16 17  2  0  0  0  0
 17 18  1  0  0  0  0
 17 21  1  0  0  0  0
 18 19  2  0  0  0  0
 18 23  1  0  0  0  0
 19 20  1  0  0  0  0
 21 22  1  0  0  0  0
 23 24  1  0  0  0  0
  2 25  1  0  0  0  0
  3 26  1  0  0  0  0
  4 27  1  0  0  0  0
  5 28  1  0  0  0  0
 10 29  1  0  0  0  0
 11 30  1  0  0  0  0
 12 31  1  0  0  0  0
 12 32  1  0  0  0  0
 12 33  1  0  0  0  0
 16 34  1  0  0  0  0
 19 35  1  0  0  0  0
 20 36  1  0  0  0  0
 20 37  1  0  0  0  0
 22 38  1  0  0  0  0
 22 39  1  0  0  0  0
 22 40  1  0  0  0  0
 24 41  1  0  0  0  0
 24 42  1  0  0  0  0
 24 43  1  0  0  0  0
M  END
> <Name>
15

> <IC50[uM]>
2.5

$$$$
15
  -OEChem-05192314333D
 Structure written by MMmdl.
 43 45  0     0  0  0  0  0  0999 V2000
   -6.3730   12.3647  -12.0124 C   0  0  0  0  0  0  0  0  0  0  0  0
   -6.5249   11.8167  -10.7375 C   0  0  0  0  0  0  0  0  0  0  0  0
   -7.7225   10.5819  -13.0270 C   0  0  0  0  0  0  0  0  0  0  0  0
   -6.9871   11.7813  -13.1320 C   0  0  0  0  0  0  0  0  0  0  0  0
   -7.8205   10.0150  -11.7538 C   0  0  0  0  0  0  0  0  0  0  0  0
   -7.2514   10.6217  -10.6093 C   0  0  0  0  0  0  0  0  0  0  0  0
   -7.6113    9.7463   -9.5119 C   0  0  0  0  0  0  0  0  0  0  0  0
   -8.2838    8.7282   -9.9768 N   0  0  0  0  0  0  0  0  0  0  0  0
   -8.4166    8.8609  -11.2984 N   0  0  0  0  0  0  0  0  0  0  0  0
   -7.3282    9.8959   -8.0269 C   0  0  0  0  0  0  0  0  0  0  0  0
   -4.4004   13.6489  -11.4541 N   0  0  0  0  0  0  0  0  0  0  0  0
   -3.4592   14.7715  -11.4916 C   0  0  0  0  0  0  0  0  0  0  0  0
   -5.5363   13.6231  -12.1917 C   0  0  0  0  0  0  0  0  0  0  0  0
   -5.8861   14.5056  -12.9557 O   0  0  0  0  0  0  0  0  0  0  0  0
   -5.9554   10.4909   -7.7390 C   0  0  0  0  0  0  0  0  0  0  0  0
   -5.8447   11.7612   -7.1661 C   0  0  0  0  0  0  0  0  0  0  0  0
   -4.5697   12.3054   -6.9214 C   0  0  0  0  0  0  0  0  0  0  0  0
   -3.4308   11.5801   -7.2259 C   0  0  0  0  0  0  0  0  0  0  0  0
   -3.5429   10.3015   -7.8076 C   0  0  0  0  0  0  0  0  0  0  0  0
   -4.8018    9.7661   -8.0596 C   0  0  0  0  0  0  0  0  0  0  0  0
   -4.4352   13.5609   -6.3638 O   0  0  0  0  0  0  0  0  0  0  0  0
   -3.6839   14.5445   -7.0766 C   0  0  0  0  0  0  0  0  0  0  0  0
   -2.1928   12.1397   -6.9410 O   0  0  0  0  0  0  0  0  0  0  0  0
   -1.0568   11.8071   -7.7386 C   0  0  0  0  0  0  0  0  0  0  0  0
   -6.0949   12.2992   -9.8722 H   0  0  0  0  0  0  0  0  0  0  0  0
   -8.1868   10.1246  -13.8882 H   0  0  0  0  0  0  0  0  0  0  0  0
   -7.6791   12.5355  -13.5348 H   0  0  0  0  0  0  0  0  0  0  0  0
   -6.1862   11.5916  -13.8618 H   0  0  0  0  0  0  0  0  0  0  0  0
   -8.0276    9.6101   -7.2552 H   0  0  0  0  0  0  0  0  0  0  0  0
   -4.1959   12.8707  -10.8602 H   0  0  0  0  0  0  0  0  0  0  0  0
   -2.6173   14.5676  -10.8136 H   0  0  0  0  0  0  0  0  0  0  0  0
   -3.0815   14.8991  -12.5168 H   0  0  0  0  0  0  0  0  0  0  0  0
   -3.9723   15.6908  -11.1728 H   0  0  0  0  0  0  0  0  0  0  0  0
   -6.7323   12.3219   -6.9127 H   0  0  0  0  0  0  0  0  0  0  0  0
   -2.6549    9.7395   -8.0568 H   0  0  0  0  0  0  0  0  0  0  0  0
   -4.8592    8.8187   -7.5036 H   0  0  0  0  0  0  0  0  0  0  0  0
   -4.8475    9.5609   -9.1393 H   0  0  0  0  0  0  0  0  0  0  0  0
   -3.6711   15.4833   -6.5034 H   0  0  0  0  0  0  0  0  0  0  0  0
   -2.6532   14.1872   -7.2178 H   0  0  0  0  0  0  0  0  0  0  0  0
   -4.1486   14.7205   -8.0580 H   0  0  0  0  0  0  0  0  0  0  0  0
   -0.1739   12.3445   -7.3623 H   0  0  0  0  0  0  0  0  0  0  0  0
   -0.8764   10.7233   -7.6856 H   0  0  0  0  0  0  0  0  0  0  0  0
   -1.2447   12.0969   -8.7830 H   0  0  0  0  0  0  0  0  0  0  0  0
  1  2  2  0  0  0  0
  1  4  1  0  0  0  0
  1 13  1  0  0  0  0
  2  6  1  0  0  0  0
  3  4  1  0  0  0  0
  3  5  2  0  0  0  0
  5  6  1  0  0  0  0
  5  9  1  0  0  0  0
  6  7  2  0  0  0  0
  7  8  1  0  0  0  0
  7 10  1  0  0  0  0
  8  9  2  0  0  0  0
 10 15  2  3  0  0  0
 11 12  1  0  0  0  0
 11 13  1  0  0  0  0
 13 14  2  0  0  0  0
 15 16  1  0  0  0  0
 15 20  1  0  0  0  0
 16 17  2  0  0  0  0
 17 18  1  0  0  0  0
 17 21  1  0  0  0  0
 18 19  2  0  0  0  0
 18 23  1  0  0  0  0
 19 20  1  0  0  0  0
 21 22  1  0  0  0  0
 23 24  1  0  0  0  0
  2 25  1  0  0  0  0
  3 26  1  0  0  0  0
  4 27  1  0  0  0  0
  4 28  1  0  0  0  0
 10 29  1  0  0  0  0
 11 30  1  0  0  0  0
 12 31  1  0  0  0  0
 12 32  1  0  0  0  0
 12 33  1  0  0  0  0
 16 34  1  0  0  0  0
 19 35  1  0  0  0  0
 20 36  1  0  0  0  0
 20 37  1  0  0  0  0
 22 38  1  0  0  0  0
 22 39  1  0  0  0  0
 22 40  1  0  0  0  0
 24 41  1  0  0  0  0
 24 42  1  0  0  0  0
 24 43  1  0  0  0  0
M  END
> <Name>
15

> <IC50[uM]>
2.5

$$$$
15
  -OEChem-05192314333D
 Structure written by MMmdl.
 43 45  0     1  0  0  0  0  0999 V2000
   -6.3730   12.3647  -12.0124 C   0  0  0  0  0  0  0  0  0  0  0  0
   -6.5249   11.8167  -10.7375 C   0  0  0  0  0  0  0  0  0  0  0  0
   -7.7225   10.5819  -13.0270 C   0  0  0  0  0  0  0  0  0  0  0  0
   -6.9871   11.7813  -13.1320 C   0  0  0  0  0  0  0  0  0  0  0  0
   -7.8205   10.0150  -11.7538 C   0  0  0  0  0  0  0  0  0  0  0  0
   -7.2514   10.6217  -10.6093 C   0  0  0  0  0  0  0  0  0  0  0  0
   -7.6113    9.7463   -9.5119 C   0  0  0  0  0  0  0  0  0  0  0  0
   -8.2838    8.7282   -9.9768 N   0  0  0  0  0  0  0  0  0  0  0  0
   -8.4166    8.8609  -11.2984 N   0  0  0  0  0  0  0  0  0  0  0  0
   -7.3282    9.8959   -8.0269 C   0  0  0  0  0  0  0  0  0  0  0  0
   -4.4004   13.6489  -11.4541 N   0  0  0  0  0  0  0  0  0  0  0  0
   -3.4592   14.7715  -11.4916 C   0  0  0  0  0  0  0  0  0  0  0  0
   -5.5363   13.6231  -12.1917 C   0  0  0  0  0  0  0  0  0  0  0  0
   -5.8861   14.5056  -12.9557 O   0  0  0  0  0  0  0  0  0  0  0  0
   -5.9554   10.4909   -7.7390 C   0  0  0  0  0  0  0  0  0  0  0  0
   -5.8447   11.7612   -7.1661 C   0  0  0  0  0  0  0  0  0  0  0  0
   -4.5697   12.3054   -6.9214 C   0  0  0  0  0  0  0  0  0  0  0  0
   -3.4308   11.5801   -7.2259 C   0  0  3  0  0  0  0  0  0  0  0  0
   -3.5429   10.3015   -7.8076 C   0  0  0  0  0  0  0  0  0  0  0  0
   -4.8018    9.7661   -8.0596 C   0  0  0  0  0  0  0  0  0  0  0  0
   -4.4352   13.5609   -6.3638 O   0  0  0  0  0  0  0  0  0  0  0  0
   -3.6839   14.5445   -7.0766 C   0  0  0  0  0  0  0  0  0  0  0  0
   -2.1928   12.1397   -6.9410 O   0  0  0  0  0  0  0  0  0  0  0  0
   -1.0568   11.8071   -7.7386 C   0  0  0  0  0  0  0  0  0  0  0  0
   -5.5161   11.6287  -10.3414 H   0  0  0  0  0  0  0  0  0  0  0  0
   -7.0280   12.5721  -10.1160 H   0  0  0  0  0  0  0  0  0  0  0  0
   -8.1868   10.1246  -13.8882 H   0  0  0  0  0  0  0  0  0  0  0  0
   -6.8945   12.2613  -14.0950 H   0  0  0  0  0  0  0  0  0  0  0  0
   -8.0276    9.6101   -7.2552 H   0  0  0  0  0  0  0  0  0  0  0  0
   -4.1959   12.8707  -10.8602 H   0  0  0  0  0  0  0  0  0  0  0  0
   -2.6173   14.5676  -10.8136 H   0  0  0  0  0  0  0  0  0  0  0  0
   -3.0815   14.8991  -12.5168 H   0  0  0  0  0  0  0  0  0  0  0  0
   -3.9723   15.6908  -11.1728 H   0  0  0  0  0  0  0  0  0  0  0  0
   -6.7323   12.3219   -6.9127 H   0  0  0  0  0  0  0  0  0  0  0  0
   -3.4073   12.0349   -8.2272 H   0  0  0  0  0  0  0  0  0  0  0  0
   -2.6549    9.7395   -8.0568 H   0  0  0  0  0  0  0  0  0  0  0  0
   -4.8895    8.7861   -8.5049 H   0  0  0  0  0  0  0  0  0  0  0  0
   -3.6711   15.4833   -6.5034 H   0  0  0  0  0  0  0  0  0  0  0  0
   -2.6532   14.1872   -7.2178 H   0  0  0  0  0  0  0  0  0  0  0  0
   -4.1486   14.7205   -8.0580 H   0  0  0  0  0  0  0  0  0  0  0  0
   -0.1739   12.3445   -7.3623 H   0  0  0  0  0  0  0  0  0  0  0  0
   -0.8764   10.7233   -7.6856 H   0  0  0  0  0  0  0  0  0  0  0  0
   -1.2447   12.0969   -8.7830 H   0  0  0  0  0  0  0  0  0  0  0  0
  1  2  1  0  0  0  0
  1  4  2  0  0  0  0
  1 13  1  0  0  0  0
  2  6  1  0  0  0  0
  3  4  1  0  0  0  0
  3  5  2  0  0  0  0
  5  6  1  0  0  0  0
  5  9  1  0  0  0  0
  6  7  2  0  0  0  0
  7  8  1  0  0  0  0
  7 10  1  0  0  0  0
  8  9  2  0  0  0  0
 10 15  2  3  0  0  0
 11 12  1  0  0  0  0
 11 13  1  0  0  0  0
 13 14  2  0  0  0  0
 15 16  1  0  0  0  0
 15 20  1  0  0  0  0
 16 17  2  0  0  0  0
 17 18  1  0  0  0  0
 17 21  1  0  0  0  0
 18 19  1  0  0  0  0
 18 23  1  0  0  0  0
 19 20  2  0  0  0  0
 21 22  1  0  0  0  0
 23 24  1  0  0  0  0
  2 25  1  0  0  0  0
  2 26  1  0  0  0  0
  3 27  1  0  0  0  0
  4 28  1  0  0  0  0
 10 29  1  0  0  0  0
 11 30  1  0  0  0  0
 12 31  1  0  0  0  0
 12 32  1  0  0  0  0
 12 33  1  0  0  0  0
 16 34  1  0  0  0  0
 18 35  1  0  0  0  0
 19 36  1  0  0  0  0
 20 37  1  0  0  0  0
 22 38  1  0  0  0  0
 22 39  1  0  0  0  0
 22 40  1  0  0  0  0
 24 41  1  0  0  0  0
 24 42  1  0  0  0  0
 24 43  1  0  0  0  0
M  END
> <Name>
15

> <IC50[uM]>
2.5

$$$$
15
  -OEChem-05192314333D
 Structure written by MMmdl.
 43 45  0     0  0  0  0  0  0999 V2000
   -6.3730   12.3647  -12.0124 C   0  0  0  0  0  0  0  0  0  0  0  0
   -6.5249   11.8167  -10.7375 C   0  0  0  0  0  0  0  0  0  0  0  0
   -7.7225   10.5819  -13.0270 C   0  0  0  0  0  0  0  0  0  0  0  0
   -6.9871   11.7813  -13.1320 C   0  0  0  0  0  0  0  0  0  0  0  0
   -7.8205   10.0150  -11.7538 C   0  0  0  0  0  0  0  0  0  0  0  0
   -7.2514   10.6217  -10.6093 C   0  0  0  0  0  0  0  0  0  0  0  0
   -7.6113    9.7463   -9.5119 C   0  0  0  0  0  0  0  0  0  0  0  0
   -8.2838    8.7282   -9.9768 N   0  0  0  0  0  0  0  0  0  0  0  0
   -8.4166    8.8609  -11.2984 N   0  0  0  0  0  0  0  0  0  0  0  0
   -7.3282    9.8959   -8.0269 C   0  0  0  0  0  0  0  0  0  0  0  0
   -4.4004   13.6489  -11.4541 N   0  0  0  0  0  0  0  0  0  0  0  0
   -3.4592   14.7715  -11.4916 C   0  0  0  0  0  0  0  0  0  0  0  0
   -5.5363   13.6231  -12.1917 C   0  0  0  0  0  0  0  0  0  0  0  0
   -5.8861   14.5056  -12.9557 O   0  0  0  0  0  0  0  0  0  0  0  0
   -5.9554   10.4909   -7.7390 C   0  0  0  0  0  0  0  0  0  0  0  0
   -5.8447   11.7612   -7.1661 C   0  0  0  0  0  0  0  0  0  0  0  0
   -4.5697   12.3054   -6.9214 C   0  0  0  0  0  0  0  0  0  0  0  0
   -3.4308   11.5801   -7.2259 C   0  0  0  0  0  0  0  0  0  0  0  0
   -3.5429   10.3015   -7.8076 C   0  0  0  0  0  0  0  0  0  0  0  0
   -4.8018    9.7661   -8.0596 C   0  0  0  0  0  0  0  0  0  0  0  0
   -4.4352   13.5609   -6.3638 O   0  0  0  0  0  0  0  0  0  0  0  0
   -3.6839   14.5445   -7.0766 C   0  0  0  0  0  0  0  0  0  0  0  0
   -2.1928   12.1397   -6.9410 O   0  0  0  0  0  0  0  0  0  0  0  0
   -1.0568   11.8071   -7.7386 C   0  0  0  0  0  0  0  0  0  0  0  0
   -5.5161   11.6287  -10.3414 H   0  0  0  0  0  0  0  0  0  0  0  0
   -7.0280   12.5721  -10.1160 H   0  0  0  0  0  0  0  0  0  0  0  0
   -8.1868   10.1246  -13.8882 H   0  0  0  0  0  0  0  0  0  0  0  0
   -6.8945   12.2613  -14.0950 H   0  0  0  0  0  0  0  0  0  0  0  0
   -8.0276    9.6101   -7.2552 H   0  0  0  0  0  0  0  0  0  0  0  0
   -4.1959   12.8707  -10.8602 H   0  0  0  0  0  0  0  0  0  0  0  0
   -2.6173   14.5676  -10.8136 H   0  0  0  0  0  0  0  0  0  0  0  0
   -3.0815   14.8991  -12.5168 H   0  0  0  0  0  0  0  0  0  0  0  0
   -3.9723   15.6908  -11.1728 H   0  0  0  0  0  0  0  0  0  0  0  0
   -6.7323   12.3219   -6.9127 H   0  0  0  0  0  0  0  0  0  0  0  0
   -2.6549    9.7395   -8.0568 H   0  0  0  0  0  0  0  0  0  0  0  0
   -4.8592    8.8187   -7.5036 H   0  0  0  0  0  0  0  0  0  0  0  0
   -4.8475    9.5609   -9.1393 H   0  0  0  0  0  0  0  0  0  0  0  0
   -3.6711   15.4833   -6.5034 H   0  0  0  0  0  0  0  0  0  0  0  0
   -2.6532   14.1872   -7.2178 H   0  0  0  0  0  0  0  0  0  0  0  0
   -4.1486   14.7205   -8.0580 H   0  0  0  0  0  0  0  0  0  0  0  0
   -0.1739   12.3445   -7.3623 H   0  0  0  0  0  0  0  0  0  0  0  0
   -0.8764   10.7233   -7.6856 H   0  0  0  0  0  0  0  0  0  0  0  0
   -1.2447   12.0969   -8.7830 H   0  0  0  0  0  0  0  0  0  0  0  0
  1  2  1  0  0  0  0
  1  4  2  0  0  0  0
  1 13  1  0  0  0  0
  2  6  1  0  0  0  0
  3  4  1  0  0  0  0
  3  5  2  0  0  0  0
  5  6  1  0  0  0  0
  5  9  1  0  0  0  0
  6  7  2  0  0  0  0
  7  8  1  0  0  0  0
  7 10  1  0  0  0  0
  8  9  2  0  0  0  0
 10 15  2  3  0  0  0
 11 12  1  0  0  0  0
 11 13  1  0  0  0  0
 13 14  2  0  0  0  0
 15 16  1  0  0  0  0
 15 20  1  0  0  0  0
 16 17  2  0  0  0  0
 17 18  1  0  0  0  0
 17 21  1  0  0  0  0
 18 19  2  0  0  0  0
 18 23  1  0  0  0  0
 19 20  1  0  0  0  0
 21 22  1  0  0  0  0
 23 24  1  0  0  0  0
  2 25  1  0  0  0  0
  2 26  1  0  0  0  0
  3 27  1  0  0  0  0
  4 28  1  0  0  0  0
 10 29  1  0  0  0  0
 11 30  1  0  0  0  0
 12 31  1  0  0  0  0
 12 32  1  0  0  0  0
 12 33  1  0  0  0  0
 16 34  1  0  0  0  0
 19 35  1  0  0  0  0
 20 36  1  0  0  0  0
 20 37  1  0  0  0  0
 22 38  1  0  0  0  0
 22 39  1  0  0  0  0
 22 40  1  0  0  0  0
 24 41  1  0  0  0  0
 24 42  1  0  0  0  0
 24 43  1  0  0  0  0
M  END
> <Name>
15

> <IC50[uM]>
2.5

$$$$
15
  -OEChem-05192314333D
 Structure written by MMmdl.
 43 45  0     1  0  0  0  0  0999 V2000
   -6.3730   12.3647  -12.0124 C   0  0  0  0  0  0  0  0  0  0  0  0
   -6.5249   11.8167  -10.7375 C   0  0  0  0  0  0  0  0  0  0  0  0
   -7.7225   10.5819  -13.0270 C   0  0  0  0  0  0  0  0  0  0  0  0
   -6.9871   11.7813  -13.1320 C   0  0  0  0  0  0  0  0  0  0  0  0
   -7.8205   10.0150  -11.7538 C   0  0  3  0  0  0  0  0  0  0  0  0
   -7.2514   10.6217  -10.6093 C   0  0  0  0  0  0  0  0  0  0  0  0
   -7.6113    9.7463   -9.5119 C   0  0  0  0  0  0  0  0  0  0  0  0
   -8.2838    8.7282   -9.9768 N   0  0  0  0  0  0  0  0  0  0  0  0
   -8.4166    8.8609  -11.2984 N   0  0  0  0  0  0  0  0  0  0  0  0
   -7.3282    9.8959   -8.0269 C   0  0  0  0  0  0  0  0  0  0  0  0
   -4.4004   13.6489  -11.4541 N   0  0  0  0  0  0  0  0  0  0  0  0
   -3.4592   14.7715  -11.4916 C   0  0  0  0  0  0  0  0  0  0  0  0
   -5.5363   13.6231  -12.1917 C   0  0  0  0  0  0  0  0  0  0  0  0
   -5.8861   14.5056  -12.9557 O   0  0  0  0  0  0  0  0  0  0  0  0
   -5.9554   10.4909   -7.7390 C   0  0  0  0  0  0  0  0  0  0  0  0
   -5.8447   11.7612   -7.1661 C   0  0  0  0  0  0  0  0  0  0  0  0
   -4.5697   12.3054   -6.9214 C   0  0  0  0  0  0  0  0  0  0  0  0
   -3.4308   11.5801   -7.2259 C   0  0  0  0  0  0  0  0  0  0  0  0
   -3.5429   10.3015   -7.8076 C   0  0  0  0  0  0  0  0  0  0  0  0
   -4.8018    9.7661   -8.0596 C   0  0  0  0  0  0  0  0  0  0  0  0
   -4.4352   13.5609   -6.3638 O   0  0  0  0  0  0  0  0  0  0  0  0
   -3.6839   14.5445   -7.0766 C   0  0  0  0  0  0  0  0  0  0  0  0
   -2.1928   12.1397   -6.9410 O   0  0  0  0  0  0  0  0  0  0  0  0
   -1.0568   11.8071   -7.7386 C   0  0  0  0  0  0  0  0  0  0  0  0
   -6.0949   12.2992   -9.8722 H   0  0  0  0  0  0  0  0  0  0  0  0
   -8.1868   10.1246  -13.8882 H   0  0  0  0  0  0  0  0  0  0  0  0
   -6.8945   12.2613  -14.0950 H   0  0  0  0  0  0  0  0  0  0  0  0
   -6.8846    9.4635  -11.9271 H   0  0  0  0  0  0  0  0  0  0  0  0
   -8.0276    9.6101   -7.2552 H   0  0  0  0  0  0  0  0  0  0  0  0
   -4.1959   12.8707  -10.8602 H   0  0  0  0  0  0  0  0  0  0  0  0
   -2.6173   14.5676  -10.8136 H   0  0  0  0  0  0  0  0  0  0  0  0
   -3.0815   14.8991  -12.5168 H   0  0  0  0  0  0  0  0  0  0  0  0
   -3.9723   15.6908  -11.1728 H   0  0  0  0  0  0  0  0  0  0  0  0
   -6.3671   12.4602   -7.8358 H   0  0  0  0  0  0  0  0  0  0  0  0
   -6.3661   11.7216   -6.1984 H   0  0  0  0  0  0  0  0  0  0  0  0
   -2.6549    9.7395   -8.0568 H   0  0  0  0  0  0  0  0  0  0  0  0
   -4.8895    8.7861   -8.5049 H   0  0  0  0  0  0  0  0  0  0  0  0
   -3.6711   15.4833   -6.5034 H   0  0  0  0  0  0  0  0  0  0  0  0
   -2.6532   14.1872   -7.2178 H   0  0  0  0  0  0  0  0  0  0  0  0
   -4.1486   14.7205   -8.0580 H   0  0  0  0  0  0  0  0  0  0  0  0
   -0.1739   12.3445   -7.3623 H   0  0  0  0  0  0  0  0  0  0  0  0
   -0.8764   10.7233   -7.6856 H   0  0  0  0  0  0  0  0  0  0  0  0
   -1.2447   12.0969   -8.7830 H   0  0  0  0  0  0  0  0  0  0  0  0
  1  2  2  0  0  0  0
  1  4  1  0  0  0  0
  1 13  1  0  0  0  0
  2  6  1  0  0  0  0
  3  4  2  0  0  0  0
  3  5  1  0  0  0  0
  5  6  1  0  0  0  0
  5  9  1  0  0  0  0
  6  7  2  0  0  0  0
  7  8  1  0  0  0  0
  7 10  1  0  0  0  0
  8  9  2  0  0  0  0
 10 15  2  3  0  0  0
 11 12  1  0  0  0  0
 11 13  1  0  0  0  0
 13 14  2  0  0  0  0
 15 16  1  0  0  0  0
 15 20  1  0  0  0  0
 16 17  1  0  0  0  0
 17 18  2  0  0  0  0
 17 21  1  0  0  0  0
 18 19  1  0  0  0  0
 18 23  1  0  0  0  0
 19 20  2  0  0  0  0
 21 22  1  0  0  0  0
 23 24  1  0  0  0  0
  2 25  1  0  0  0  0
  3 26  1  0  0  0  0
  4 27  1  0  0  0  0
  5 28  1  0  0  0  0
 10 29  1  0  0  0  0
 11 30  1  0  0  0  0
 12 31  1  0  0  0  0
 12 32  1  0  0  0  0
 12 33  1  0  0  0  0
 16 34  1  0  0  0  0
 16 35  1  0  0  0  0
 19 36  1  0  0  0  0
 20 37  1  0  0  0  0
 22 38  1  0  0  0  0
 22 39  1  0  0  0  0
 22 40  1  0  0  0  0
 24 41  1  0  0  0  0
 24 42  1  0  0  0  0
 24 43  1  0  0  0  0
M  END
> <Name>
15

> <IC50[uM]>
2.5

$$$$
15
  -OEChem-05192314333D
 Structure written by MMmdl.
 43 45  0     0  0  0  0  0  0999 V2000
   -6.3730   12.3647  -12.0124 C   0  0  0  0  0  0  0  0  0  0  0  0
   -6.5249   11.8167  -10.7375 C   0  0  0  0  0  0  0  0  0  0  0  0
   -7.7225   10.5819  -13.0270 C   0  0  0  0  0  0  0  0  0  0  0  0
   -6.9871   11.7813  -13.1320 C   0  0  0  0  0  0  0  0  0  0  0  0
   -7.8205   10.0150  -11.7538 C   0  0  0  0  0  0  0  0  0  0  0  0
   -7.2514   10.6217  -10.6093 C   0  0  0  0  0  0  0  0  0  0  0  0
   -7.6113    9.7463   -9.5119 C   0  0  0  0  0  0  0  0  0  0  0  0
   -8.2838    8.7282   -9.9768 N   0  0  0  0  0  0  0  0  0  0  0  0
   -8.4166    8.8609  -11.2984 N   0  0  0  0  0  0  0  0  0  0  0  0
   -7.3282    9.8959   -8.0269 C   0  0  0  0  0  0  0  0  0  0  0  0
   -4.4004   13.6489  -11.4541 N   0  0  0  0  0  0  0  0  0  0  0  0
   -3.4592   14.7715  -11.4916 C   0  0  0  0  0  0  0  0  0  0  0  0
   -5.5363   13.6231  -12.1917 C   0  0  0  0  0  0  0  0  0  0  0  0
   -5.8861   14.5056  -12.9557 O   0  0  0  0  0  0  0  0  0  0  0  0
   -5.9554   10.4909   -7.7390 C   0  0  0  0  0  0  0  0  0  0  0  0
   -5.8447   11.7612   -7.1661 C   0  0  0  0  0  0  0  0  0  0  0  0
   -4.5697   12.3054   -6.9214 C   0  0  0  0  0  0  0  0  0  0  0  0
   -3.4308   11.5801   -7.2259 C   0  0  0  0  0  0  0  0  0  0  0  0
   -3.5429   10.3015   -7.8076 C   0  0  0  0  0  0  0  0  0  0  0  0
   -4.8018    9.7661   -8.0596 C   0  0  0  0  0  0  0  0  0  0  0  0
   -4.4352   13.5609   -6.3638 O   0  0  0  0  0  0  0  0  0  0  0  0
   -3.6839   14.5445   -7.0766 C   0  0  0  0  0  0  0  0  0  0  0  0
   -2.1928   12.1397   -6.9410 O   0  0  0  0  0  0  0  0  0  0  0  0
   -1.0568   11.8071   -7.7386 C   0  0  0  0  0  0  0  0  0  0  0  0
   -6.0949   12.2992   -9.8722 H   0  0  0  0  0  0  0  0  0  0  0  0
   -8.1868   10.1246  -13.8882 H   0  0  0  0  0  0  0  0  0  0  0  0
   -7.6791   12.5355  -13.5348 H   0  0  0  0  0  0  0  0  0  0  0  0
   -6.1862   11.5916  -13.8618 H   0  0  0  0  0  0  0  0  0  0  0  0
   -8.0276    9.6101   -7.2552 H   0  0  0  0  0  0  0  0  0  0  0  0
   -4.1959   12.8707  -10.8602 H   0  0  0  0  0  0  0  0  0  0  0  0
   -2.6173   14.5676  -10.8136 H   0  0  0  0  0  0  0  0  0  0  0  0
   -3.0815   14.8991  -12.5168 H   0  0  0  0  0  0  0  0  0  0  0  0
   -3.9723   15.6908  -11.1728 H   0  0  0  0  0  0  0  0  0  0  0  0
   -6.3671   12.4602   -7.8358 H   0  0  0  0  0  0  0  0  0  0  0  0
   -6.3661   11.7216   -6.1984 H   0  0  0  0  0  0  0  0  0  0  0  0
   -2.6549    9.7395   -8.0568 H   0  0  0  0  0  0  0  0  0  0  0  0
   -4.8895    8.7861   -8.5049 H   0  0  0  0  0  0  0  0  0  0  0  0
   -3.6711   15.4833   -6.5034 H   0  0  0  0  0  0  0  0  0  0  0  0
   -2.6532   14.1872   -7.2178 H   0  0  0  0  0  0  0  0  0  0  0  0
   -4.1486   14.7205   -8.0580 H   0  0  0  0  0  0  0  0  0  0  0  0
   -0.1739   12.3445   -7.3623 H   0  0  0  0  0  0  0  0  0  0  0  0
   -0.8764   10.7233   -7.6856 H   0  0  0  0  0  0  0  0  0  0  0  0
   -1.2447   12.0969   -8.7830 H   0  0  0  0  0  0  0  0  0  0  0  0
  1  2  2  0  0  0  0
  1  4  1  0  0  0  0
  1 13  1  0  0  0  0
  2  6  1  0  0  0  0
  3  4  1  0  0  0  0
  3  5  2  0  0  0  0
  5  6  1  0  0  0  0
  5  9  1  0  0  0  0
  6  7  2  0  0  0  0
  7  8  1  0  0  0  0
  7 10  1  0  0  0  0
  8  9  2  0  0  0  0
 10 15  2  3  0  0  0
 11 12  1  0  0  0  0
 11 13  1  0  0  0  0
 13 14  2  0  0  0  0
 15 16  1  0  0  0  0
 15 20  1  0  0  0  0
 16 17  1  0  0  0  0
 17 18  2  0  0  0  0
 17 21  1  0  0  0  0
 18 19  1  0  0  0  0
 18 23  1  0  0  0  0
 19 20  2  0  0  0  0
 21 22  1  0  0  0  0
 23 24  1  0  0  0  0
  2 25  1  0  0  0  0
  3 26  1  0  0  0  0
  4 27  1  0  0  0  0
  4 28  1  0  0  0  0
 10 29  1  0  0  0  0
 11 30  1  0  0  0  0
 12 31  1  0  0  0  0
 12 32  1  0  0  0  0
 12 33  1  0  0  0  0
 16 34  1  0  0  0  0
 16 35  1  0  0  0  0
 19 36  1  0  0  0  0
 20 37  1  0  0  0  0
 22 38  1  0  0  0  0
 22 39  1  0  0  0  0
 22 40  1  0  0  0  0
 24 41  1  0  0  0  0
 24 42  1  0  0  0  0
 24 43  1  0  0  0  0
M  END
> <Name>
15

> <IC50[uM]>
2.5

$$$$
15
  -OEChem-05192314333D
 Structure written by MMmdl.
 43 45  0     0  0  0  0  0  0999 V2000
   -6.3730   12.3647  -12.0124 C   0  0  0  0  0  0  0  0  0  0  0  0
   -6.5249   11.8167  -10.7375 C   0  0  0  0  0  0  0  0  0  0  0  0
   -7.7225   10.5819  -13.0270 C   0  0  0  0  0  0  0  0  0  0  0  0
   -6.9871   11.7813  -13.1320 C   0  0  0  0  0  0  0  0  0  0  0  0
   -7.8205   10.0150  -11.7538 C   0  0  0  0  0  0  0  0  0  0  0  0
   -7.2514   10.6217  -10.6093 C   0  0  0  0  0  0  0  0  0  0  0  0
   -7.6113    9.7463   -9.5119 C   0  0  0  0  0  0  0  0  0  0  0  0
   -8.2838    8.7282   -9.9768 N   0  0  0  0  0  0  0  0  0  0  0  0
   -8.4166    8.8609  -11.2984 N   0  0  0  0  0  0  0  0  0  0  0  0
   -7.3282    9.8959   -8.0269 C   0  0  0  0  0  0  0  0  0  0  0  0
   -4.4004   13.6489  -11.4541 N   0  0  0  0  0  0  0  0  0  0  0  0
   -3.4592   14.7715  -11.4916 C   0  0  0  0  0  0  0  0  0  0  0  0
   -5.5363   13.6231  -12.1917 C   0  0  0  0  0  0  0  0  0  0  0  0
   -5.8861   14.5056  -12.9557 O   0  0  0  0  0  0  0  0  0  0  0  0
   -5.9554   10.4909   -7.7390 C   0  0  0  0  0  0  0  0  0  0  0  0
   -5.8447   11.7612   -7.1661 C   0  0  0  0  0  0  0  0  0  0  0  0
   -4.5697   12.3054   -6.9214 C   0  0  0  0  0  0  0  0  0  0  0  0
   -3.4308   11.5801   -7.2259 C   0  0  0  0  0  0  0  0  0  0  0  0
   -3.5429   10.3015   -7.8076 C   0  0  0  0  0  0  0  0  0  0  0  0
   -4.8018    9.7661   -8.0596 C   0  0  0  0  0  0  0  0  0  0  0  0
   -4.4352   13.5609   -6.3638 O   0  0  0  0  0  0  0  0  0  0  0  0
   -3.6839   14.5445   -7.0766 C   0  0  0  0  0  0  0  0  0  0  0  0
   -2.1928   12.1397   -6.9410 O   0  0  0  0  0  0  0  0  0  0  0  0
   -1.0568   11.8071   -7.7386 C   0  0  0  0  0  0  0  0  0  0  0  0
   -5.5161   11.6287  -10.3414 H   0  0  0  0  0  0  0  0  0  0  0  0
   -7.0280   12.5721  -10.1160 H   0  0  0  0  0  0  0  0  0  0  0  0
   -8.1868   10.1246  -13.8882 H   0  0  0  0  0  0  0  0  0  0  0  0
   -6.8945   12.2613  -14.0950 H   0  0  0  0  0  0  0  0  0  0  0  0
   -8.0276    9.6101   -7.2552 H   0  0  0  0  0  0  0  0  0  0  0  0
   -4.1959   12.8707  -10.8602 H   0  0  0  0  0  0  0  0  0  0  0  0
   -2.6173   14.5676  -10.8136 H   0  0  0  0  0  0  0  0  0  0  0  0
   -3.0815   14.8991  -12.5168 H   0  0  0  0  0  0  0  0  0  0  0  0
   -3.9723   15.6908  -11.1728 H   0  0  0  0  0  0  0  0  0  0  0  0
   -6.3671   12.4602   -7.8358 H   0  0  0  0  0  0  0  0  0  0  0  0
   -6.3661   11.7216   -6.1984 H   0  0  0  0  0  0  0  0  0  0  0  0
   -2.6549    9.7395   -8.0568 H   0  0  0  0  0  0  0  0  0  0  0  0
   -4.8895    8.7861   -8.5049 H   0  0  0  0  0  0  0  0  0  0  0  0
   -3.6711   15.4833   -6.5034 H   0  0  0  0  0  0  0  0  0  0  0  0
   -2.6532   14.1872   -7.2178 H   0  0  0  0  0  0  0  0  0  0  0  0
   -4.1486   14.7205   -8.0580 H   0  0  0  0  0  0  0  0  0  0  0  0
   -0.1739   12.3445   -7.3623 H   0  0  0  0  0  0  0  0  0  0  0  0
   -0.8764   10.7233   -7.6856 H   0  0  0  0  0  0  0  0  0  0  0  0
   -1.2447   12.0969   -8.7830 H   0  0  0  0  0  0  0  0  0  0  0  0
  1  2  1  0  0  0  0
  1  4  2  0  0  0  0
  1 13  1  0  0  0  0
  2  6  1  0  0  0  0
  3  4  1  0  0  0  0
  3  5  2  0  0  0  0
  5  6  1  0  0  0  0
  5  9  1  0  0  0  0
  6  7  2  0  0  0  0
  7  8  1  0  0  0  0
  7 10  1  0  0  0  0
  8  9  2  0  0  0  0
 10 15  2  3  0  0  0
 11 12  1  0  0  0  0
 11 13  1  0  0  0  0
 13 14  2  0  0  0  0
 15 16  1  0  0  0  0
 15 20  1  0  0  0  0
 16 17  1  0  0  0  0
 17 18  2  0  0  0  0
 17 21  1  0  0  0  0
 18 19  1  0  0  0  0
 18 23  1  0  0  0  0
 19 20  2  0  0  0  0
 21 22  1  0  0  0  0
 23 24  1  0  0  0  0
  2 25  1  0  0  0  0
  2 26  1  0  0  0  0
  3 27  1  0  0  0  0
  4 28  1  0  0  0  0
 10 29  1  0  0  0  0
 11 30  1  0  0  0  0
 12 31  1  0  0  0  0
 12 32  1  0  0  0  0
 12 33  1  0  0  0  0
 16 34  1  0  0  0  0
 16 35  1  0  0  0  0
 19 36  1  0  0  0  0
 20 37  1  0  0  0  0
 22 38  1  0  0  0  0
 22 39  1  0  0  0  0
 22 40  1  0  0  0  0
 24 41  1  0  0  0  0
 24 42  1  0  0  0  0
 24 43  1  0  0  0  0
M  END
> <Name>
15

> <IC50[uM]>
2.5

$$$$
15
  -OEChem-05192314333D
 Structure written by MMmdl.
 43 45  0     1  0  0  0  0  0999 V2000
   -6.3730   12.3647  -12.0124 C   0  0  0  0  0  0  0  0  0  0  0  0
   -6.5249   11.8167  -10.7375 C   0  0  0  0  0  0  0  0  0  0  0  0
   -7.7225   10.5819  -13.0270 C   0  0  0  0  0  0  0  0  0  0  0  0
   -6.9871   11.7813  -13.1320 C   0  0  0  0  0  0  0  0  0  0  0  0
   -7.8205   10.0150  -11.7538 C   0  0  3  0  0  0  0  0  0  0  0  0
   -7.2514   10.6217  -10.6093 C   0  0  0  0  0  0  0  0  0  0  0  0
   -7.6113    9.7463   -9.5119 C   0  0  0  0  0  0  0  0  0  0  0  0
   -8.2838    8.7282   -9.9768 N   0  0  0  0  0  0  0  0  0  0  0  0
   -8.4166    8.8609  -11.2984 N   0  0  0  0  0  0  0  0  0  0  0  0
   -7.3282    9.8959   -8.0269 C   0  0  0  0  0  0  0  0  0  0  0  0
   -4.4004   13.6489  -11.4541 N   0  0  0  0  0  0  0  0  0  0  0  0
   -3.4592   14.7715  -11.4916 C   0  0  0  0  0  0  0  0  0  0  0  0
   -5.5363   13.6231  -12.1917 C   0  0  0  0  0  0  0  0  0  0  0  0
   -5.8861   14.5056  -12.9557 O   0  0  0  0  0  0  0  0  0  0  0  0
   -5.9554   10.4909   -7.7390 C   0  0  0  0  0  0  0  0  0  0  0  0
   -5.8447   11.7612   -7.1661 C   0  0  0  0  0  0  0  0  0  0  0  0
   -4.5697   12.3054   -6.9214 C   0  0  0  0  0  0  0  0  0  0  0  0
   -3.4308   11.5801   -7.2259 C   0  0  3  0  0  0  0  0  0  0  0  0
   -3.5429   10.3015   -7.8076 C   0  0  0  0  0  0  0  0  0  0  0  0
   -4.8018    9.7661   -8.0596 C   0  0  0  0  0  0  0  0  0  0  0  0
   -4.4352   13.5609   -6.3638 O   0  0  0  0  0  0  0  0  0  0  0  0
   -3.6839   14.5445   -7.0766 C   0  0  0  0  0  0  0  0  0  0  0  0
   -2.1928   12.1397   -6.9410 O   0  0  0  0  0  0  0  0  0  0  0  0
   -1.0568   11.8071   -7.7386 C   0  0  0  0  0  0  0  0  0  0  0  0
   -6.0949   12.2992   -9.8722 H   0  0  0  0  0  0  0  0  0  0  0  0
   -8.1868   10.1246  -13.8882 H   0  0  0  0  0  0  0  0  0  0  0  0
   -6.8945   12.2613  -14.0950 H   0  0  0  0  0  0  0  0  0  0  0  0
   -6.8846    9.4635  -11.9271 H   0  0  0  0  0  0  0  0  0  0  0  0
   -8.0276    9.6101   -7.2552 H   0  0  0  0  0  0  0  0  0  0  0  0
   -2.6173   14.5676  -10.8136 H   0  0  0  0  0  0  0  0  0  0  0  0
   -3.0815   14.8991  -12.5168 H   0  0  0  0  0  0  0  0  0  0  0  0
   -3.9723   15.6908  -11.1728 H   0  0  0  0  0  0  0  0  0  0  0  0
   -5.2484   15.2095  -12.9404 H   0  0  0  0  0  0  0  0  0  0  0  0
   -6.7323   12.3219   -6.9127 H   0  0  0  0  0  0  0  0  0  0  0  0
   -3.4073   12.0349   -8.2272 H   0  0  0  0  0  0  0  0  0  0  0  0
   -2.6549    9.7395   -8.0568 H   0  0  0  0  0  0  0  0  0  0  0  0
   -4.8895    8.7861   -8.5049 H   0  0  0  0  0  0  0  0  0  0  0  0
   -3.6711   15.4833   -6.5034 H   0  0  0  0  0  0  0  0  0  0  0  0
   -2.6532   14.1872   -7.2178 H   0  0  0  0  0  0  0  0  0  0  0  0
   -4.1486   14.7205   -8.0580 H   0  0  0  0  0  0  0  0  0  0  0  0
   -0.1739   12.3445   -7.3623 H   0  0  0  0  0  0  0  0  0  0  0  0
   -0.8764   10.7233   -7.6856 H   0  0  0  0  0  0  0  0  0  0  0  0
   -1.2447   12.0969   -8.7830 H   0  0  0  0  0  0  0  0  0  0  0  0
  1  2  2  0  0  0  0
  1  4  1  0  0  0  0
  1 13  1  0  0  0  0
  2  6  1  0  0  0  0
  3  4  2  0  0  0  0
  3  5  1  0  0  0  0
  5  6  1  0  0  0  0
  5  9  1  0  0  0  0
  6  7  2  0  0  0  0
  7  8  1  0  0  0  0
  7 10  1  0  0  0  0
  8  9  2  0  0  0  0
 10 15  2  3  0  0  0
 11 12  1  0  0  0  0
 11 13  2  0  0  0  0
 13 14  1  0  0  0  0
 15 16  1  0  0  0  0
 15 20  1  0  0  0  0
 16 17  2  0  0  0  0
 17 18  1  0  0  0  0
 17 21  1  0  0  0  0
 18 19  1  0  0  0  0
 18 23  1  0  0  0  0
 19 20  2  0  0  0  0
 21 22  1  0  0  0  0
 23 24  1  0  0  0  0
  2 25  1  0  0  0  0
  3 26  1  0  0  0  0
  4 27  1  0  0  0  0
  5 28  1  0  0  0  0
 10 29  1  0  0  0  0
 12 30  1  0  0  0  0
 12 31  1  0  0  0  0
 12 32  1  0  0  0  0
 14 33  1  0  0  0  0
 16 34  1  0  0  0  0
 18 35  1  0  0  0  0
 19 36  1  0  0  0  0
 20 37  1  0  0  0  0
 22 38  1  0  0  0  0
 22 39  1  0  0  0  0
 22 40  1  0  0  0  0
 24 41  1  0  0  0  0
 24 42  1  0  0  0  0
 24 43  1  0  0  0  0
M  END
> <Name>
15

> <IC50[uM]>
2.5

$$$$
15
  -OEChem-05192314333D
 Structure written by MMmdl.
 43 45  0     1  0  0  0  0  0999 V2000
   -6.3730   12.3647  -12.0124 C   0  0  0  0  0  0  0  0  0  0  0  0
   -6.5249   11.8167  -10.7375 C   0  0  0  0  0  0  0  0  0  0  0  0
   -7.7225   10.5819  -13.0270 C   0  0  0  0  0  0  0  0  0  0  0  0
   -6.9871   11.7813  -13.1320 C   0  0  0  0  0  0  0  0  0  0  0  0
   -7.8205   10.0150  -11.7538 C   0  0  0  0  0  0  0  0  0  0  0  0
   -7.2514   10.6217  -10.6093 C   0  0  0  0  0  0  0  0  0  0  0  0
   -7.6113    9.7463   -9.5119 C   0  0  0  0  0  0  0  0  0  0  0  0
   -8.2838    8.7282   -9.9768 N   0  0  0  0  0  0  0  0  0  0  0  0
   -8.4166    8.8609  -11.2984 N   0  0  0  0  0  0  0  0  0  0  0  0
   -7.3282    9.8959   -8.0269 C   0  0  0  0  0  0  0  0  0  0  0  0
   -4.4004   13.6489  -11.4541 N   0  0  0  0  0  0  0  0  0  0  0  0
   -3.4592   14.7715  -11.4916 C   0  0  0  0  0  0  0  0  0  0  0  0
   -5.5363   13.6231  -12.1917 C   0  0  0  0  0  0  0  0  0  0  0  0
   -5.8861   14.5056  -12.9557 O   0  0  0  0  0  0  0  0  0  0  0  0
   -5.9554   10.4909   -7.7390 C   0  0  0  0  0  0  0  0  0  0  0  0
   -5.8447   11.7612   -7.1661 C   0  0  0  0  0  0  0  0  0  0  0  0
   -4.5697   12.3054   -6.9214 C   0  0  0  0  0  0  0  0  0  0  0  0
   -3.4308   11.5801   -7.2259 C   0  0  3  0  0  0  0  0  0  0  0  0
   -3.5429   10.3015   -7.8076 C   0  0  0  0  0  0  0  0  0  0  0  0
   -4.8018    9.7661   -8.0596 C   0  0  0  0  0  0  0  0  0  0  0  0
   -4.4352   13.5609   -6.3638 O   0  0  0  0  0  0  0  0  0  0  0  0
   -3.6839   14.5445   -7.0766 C   0  0  0  0  0  0  0  0  0  0  0  0
   -2.1928   12.1397   -6.9410 O   0  0  0  0  0  0  0  0  0  0  0  0
   -1.0568   11.8071   -7.7386 C   0  0  0  0  0  0  0  0  0  0  0  0
   -6.0949   12.2992   -9.8722 H   0  0  0  0  0  0  0  0  0  0  0  0
   -8.1868   10.1246  -13.8882 H   0  0  0  0  0  0  0  0  0  0  0  0
   -7.6791   12.5355  -13.5348 H   0  0  0  0  0  0  0  0  0  0  0  0
   -6.1862   11.5916  -13.8618 H   0  0  0  0  0  0  0  0  0  0  0  0
   -8.0276    9.6101   -7.2552 H   0  0  0  0  0  0  0  0  0  0  0  0
   -2.6173   14.5676  -10.8136 H   0  0  0  0  0  0  0  0  0  0  0  0
   -3.0815   14.8991  -12.5168 H   0  0  0  0  0  0  0  0  0  0  0  0
   -3.9723   15.6908  -11.1728 H   0  0  0  0  0  0  0  0  0  0  0  0
   -5.2484   15.2095  -12.9404 H   0  0  0  0  0  0  0  0  0  0  0  0
   -6.7323   12.3219   -6.9127 H   0  0  0  0  0  0  0  0  0  0  0  0
   -3.4073   12.0349   -8.2272 H   0  0  0  0  0  0  0  0  0  0  0  0
   -2.6549    9.7395   -8.0568 H   0  0  0  0  0  0  0  0  0  0  0  0
   -4.8895    8.7861   -8.5049 H   0  0  0  0  0  0  0  0  0  0  0  0
   -3.6711   15.4833   -6.5034 H   0  0  0  0  0  0  0  0  0  0  0  0
   -2.6532   14.1872   -7.2178 H   0  0  0  0  0  0  0  0  0  0  0  0
   -4.1486   14.7205   -8.0580 H   0  0  0  0  0  0  0  0  0  0  0  0
   -0.1739   12.3445   -7.3623 H   0  0  0  0  0  0  0  0  0  0  0  0
   -0.8764   10.7233   -7.6856 H   0  0  0  0  0  0  0  0  0  0  0  0
   -1.2447   12.0969   -8.7830 H   0  0  0  0  0  0  0  0  0  0  0  0
  1  2  2  0  0  0  0
  1  4  1  0  0  0  0
  1 13  1  0  0  0  0
  2  6  1  0  0  0  0
  3  4  1  0  0  0  0
  3  5  2  0  0  0  0
  5  6  1  0  0  0  0
  5  9  1  0  0  0  0
  6  7  2  0  0  0  0
  7  8  1  0  0  0  0
  7 10  1  0  0  0  0
  8  9  2  0  0  0  0
 10 15  2  3  0  0  0
 11 12  1  0  0  0  0
 11 13  2  0  0  0  0
 13 14  1  0  0  0  0
 15 16  1  0  0  0  0
 15 20  1  0  0  0  0
 16 17  2  0  0  0  0
 17 18  1  0  0  0  0
 17 21  1  0  0  0  0
 18 19  1  0  0  0  0
 18 23  1  0  0  0  0
 19 20  2  0  0  0  0
 21 22  1  0  0  0  0
 23 24  1  0  0  0  0
  2 25  1  0  0  0  0
  3 26  1  0  0  0  0
  4 27  1  0  0  0  0
  4 28  1  0  0  0  0
 10 29  1  0  0  0  0
 12 30  1  0  0  0  0
 12 31  1  0  0  0  0
 12 32  1  0  0  0  0
 14 33  1  0  0  0  0
 16 34  1  0  0  0  0
 18 35  1  0  0  0  0
 19 36  1  0  0  0  0
 20 37  1  0  0  0  0
 22 38  1  0  0  0  0
 22 39  1  0  0  0  0
 22 40  1  0  0  0  0
 24 41  1  0  0  0  0
 24 42  1  0  0  0  0
 24 43  1  0  0  0  0
M  END
> <Name>
15

> <IC50[uM]>
2.5

$$$$
15
  -OEChem-05192314333D
 Structure written by MMmdl.
 43 45  0     1  0  0  0  0  0999 V2000
   -6.3730   12.3647  -12.0124 C   0  0  0  0  0  0  0  0  0  0  0  0
   -6.5249   11.8167  -10.7375 C   0  0  0  0  0  0  0  0  0  0  0  0
   -7.7225   10.5819  -13.0270 C   0  0  0  0  0  0  0  0  0  0  0  0
   -6.9871   11.7813  -13.1320 C   0  0  0  0  0  0  0  0  0  0  0  0
   -7.8205   10.0150  -11.7538 C   0  0  3  0  0  0  0  0  0  0  0  0
   -7.2514   10.6217  -10.6093 C   0  0  0  0  0  0  0  0  0  0  0  0
   -7.6113    9.7463   -9.5119 C   0  0  0  0  0  0  0  0  0  0  0  0
   -8.2838    8.7282   -9.9768 N   0  0  0  0  0  0  0  0  0  0  0  0
   -8.4166    8.8609  -11.2984 N   0  0  0  0  0  0  0  0  0  0  0  0
   -7.3282    9.8959   -8.0269 C   0  0  0  0  0  0  0  0  0  0  0  0
   -4.4004   13.6489  -11.4541 N   0  0  0  0  0  0  0  0  0  0  0  0
   -3.4592   14.7715  -11.4916 C   0  0  0  0  0  0  0  0  0  0  0  0
   -5.5363   13.6231  -12.1917 C   0  0  0  0  0  0  0  0  0  0  0  0
   -5.8861   14.5056  -12.9557 O   0  0  0  0  0  0  0  0  0  0  0  0
   -5.9554   10.4909   -7.7390 C   0  0  0  0  0  0  0  0  0  0  0  0
   -5.8447   11.7612   -7.1661 C   0  0  0  0  0  0  0  0  0  0  0  0
   -4.5697   12.3054   -6.9214 C   0  0  0  0  0  0  0  0  0  0  0  0
   -3.4308   11.5801   -7.2259 C   0  0  0  0  0  0  0  0  0  0  0  0
   -3.5429   10.3015   -7.8076 C   0  0  0  0  0  0  0  0  0  0  0  0
   -4.8018    9.7661   -8.0596 C   0  0  0  0  0  0  0  0  0  0  0  0
   -4.4352   13.5609   -6.3638 O   0  0  0  0  0  0  0  0  0  0  0  0
   -3.6839   14.5445   -7.0766 C   0  0  0  0  0  0  0  0  0  0  0  0
   -2.1928   12.1397   -6.9410 O   0  0  0  0  0  0  0  0  0  0  0  0
   -1.0568   11.8071   -7.7386 C   0  0  0  0  0  0  0  0  0  0  0  0
   -6.0949   12.2992   -9.8722 H   0  0  0  0  0  0  0  0  0  0  0  0
   -8.1868   10.1246  -13.8882 H   0  0  0  0  0  0  0  0  0  0  0  0
   -6.8945   12.2613  -14.0950 H   0  0  0  0  0  0  0  0  0  0  0  0
   -6.8846    9.4635  -11.9271 H   0  0  0  0  0  0  0  0  0  0  0  0
   -8.0276    9.6101   -7.2552 H   0  0  0  0  0  0  0  0  0  0  0  0
   -2.6173   14.5676  -10.8136 H   0  0  0  0  0  0  0  0  0  0  0  0
   -3.0815   14.8991  -12.5168 H   0  0  0  0  0  0  0  0  0  0  0  0
   -3.9723   15.6908  -11.1728 H   0  0  0  0  0  0  0  0  0  0  0  0
   -5.2484   15.2095  -12.9404 H   0  0  0  0  0  0  0  0  0  0  0  0
   -6.7323   12.3219   -6.9127 H   0  0  0  0  0  0  0  0  0  0  0  0
   -2.6549    9.7395   -8.0568 H   0  0  0  0  0  0  0  0  0  0  0  0
   -4.8592    8.8187   -7.5036 H   0  0  0  0  0  0  0  0  0  0  0  0
   -4.8475    9.5609   -9.1393 H   0  0  0  0  0  0  0  0  0  0  0  0
   -3.6711   15.4833   -6.5034 H   0  0  0  0  0  0  0  0  0  0  0  0
   -2.6532   14.1872   -7.2178 H   0  0  0  0  0  0  0  0  0  0  0  0
   -4.1486   14.7205   -8.0580 H   0  0  0  0  0  0  0  0  0  0  0  0
   -0.1739   12.3445   -7.3623 H   0  0  0  0  0  0  0  0  0  0  0  0
   -0.8764   10.7233   -7.6856 H   0  0  0  0  0  0  0  0  0  0  0  0
   -1.2447   12.0969   -8.7830 H   0  0  0  0  0  0  0  0  0  0  0  0
  1  2  2  0  0  0  0
  1  4  1  0  0  0  0
  1 13  1  0  0  0  0
  2  6  1  0  0  0  0
  3  4  2  0  0  0  0
  3  5  1  0  0  0  0
  5  6  1  0  0  0  0
  5  9  1  0  0  0  0
  6  7  2  0  0  0  0
  7  8  1  0  0  0  0
  7 10  1  0  0  0  0
  8  9  2  0  0  0  0
 10 15  2  3  0  0  0
 11 12  1  0  0  0  0
 11 13  2  0  0  0  0
 13 14  1  0  0  0  0
 15 16  1  0  0  0  0
 15 20  1  0  0  0  0
 16 17  2  0  0  0  0
 17 18  1  0  0  0  0
 17 21  1  0  0  0  0
 18 19  2  0  0  0  0
 18 23  1  0  0  0  0
 19 20  1  0  0  0  0
 21 22  1  0  0  0  0
 23 24  1  0  0  0  0
  2 25  1  0  0  0  0
  3 26  1  0  0  0  0
  4 27  1  0  0  0  0
  5 28  1  0  0  0  0
 10 29  1  0  0  0  0
 12 30  1  0  0  0  0
 12 31  1  0  0  0  0
 12 32  1  0  0  0  0
 14 33  1  0  0  0  0
 16 34  1  0  0  0  0
 19 35  1  0  0  0  0
 20 36  1  0  0  0  0
 20 37  1  0  0  0  0
 22 38  1  0  0  0  0
 22 39  1  0  0  0  0
 22 40  1  0  0  0  0
 24 41  1  0  0  0  0
 24 42  1  0  0  0  0
 24 43  1  0  0  0  0
M  END
> <Name>
15

> <IC50[uM]>
2.5

$$$$
15
  -OEChem-05192314333D
 Structure written by MMmdl.
 43 45  0     0  0  0  0  0  0999 V2000
   -6.3730   12.3647  -12.0124 C   0  0  0  0  0  0  0  0  0  0  0  0
   -6.5249   11.8167  -10.7375 C   0  0  0  0  0  0  0  0  0  0  0  0
   -7.7225   10.5819  -13.0270 C   0  0  0  0  0  0  0  0  0  0  0  0
   -6.9871   11.7813  -13.1320 C   0  0  0  0  0  0  0  0  0  0  0  0
   -7.8205   10.0150  -11.7538 C   0  0  0  0  0  0  0  0  0  0  0  0
   -7.2514   10.6217  -10.6093 C   0  0  0  0  0  0  0  0  0  0  0  0
   -7.6113    9.7463   -9.5119 C   0  0  0  0  0  0  0  0  0  0  0  0
   -8.2838    8.7282   -9.9768 N   0  0  0  0  0  0  0  0  0  0  0  0
   -8.4166    8.8609  -11.2984 N   0  0  0  0  0  0  0  0  0  0  0  0
   -7.3282    9.8959   -8.0269 C   0  0  0  0  0  0  0  0  0  0  0  0
   -4.4004   13.6489  -11.4541 N   0  0  0  0  0  0  0  0  0  0  0  0
   -3.4592   14.7715  -11.4916 C   0  0  0  0  0  0  0  0  0  0  0  0
   -5.5363   13.6231  -12.1917 C   0  0  0  0  0  0  0  0  0  0  0  0
   -5.8861   14.5056  -12.9557 O   0  0  0  0  0  0  0  0  0  0  0  0
   -5.9554   10.4909   -7.7390 C   0  0  0  0  0  0  0  0  0  0  0  0
   -5.8447   11.7612   -7.1661 C   0  0  0  0  0  0  0  0  0  0  0  0
   -4.5697   12.3054   -6.9214 C   0  0  0  0  0  0  0  0  0  0  0  0
   -3.4308   11.5801   -7.2259 C   0  0  0  0  0  0  0  0  0  0  0  0
   -3.5429   10.3015   -7.8076 C   0  0  0  0  0  0  0  0  0  0  0  0
   -4.8018    9.7661   -8.0596 C   0  0  0  0  0  0  0  0  0  0  0  0
   -4.4352   13.5609   -6.3638 O   0  0  0  0  0  0  0  0  0  0  0  0
   -3.6839   14.5445   -7.0766 C   0  0  0  0  0  0  0  0  0  0  0  0
   -2.1928   12.1397   -6.9410 O   0  0  0  0  0  0  0  0  0  0  0  0
   -1.0568   11.8071   -7.7386 C   0  0  0  0  0  0  0  0  0  0  0  0
   -6.0949   12.2992   -9.8722 H   0  0  0  0  0  0  0  0  0  0  0  0
   -8.1868   10.1246  -13.8882 H   0  0  0  0  0  0  0  0  0  0  0  0
   -7.6791   12.5355  -13.5348 H   0  0  0  0  0  0  0  0  0  0  0  0
   -6.1862   11.5916  -13.8618 H   0  0  0  0  0  0  0  0  0  0  0  0
   -8.0276    9.6101   -7.2552 H   0  0  0  0  0  0  0  0  0  0  0  0
   -2.6173   14.5676  -10.8136 H   0  0  0  0  0  0  0  0  0  0  0  0
   -3.0815   14.8991  -12.5168 H   0  0  0  0  0  0  0  0  0  0  0  0
   -3.9723   15.6908  -11.1728 H   0  0  0  0  0  0  0  0  0  0  0  0
   -5.2484   15.2095  -12.9404 H   0  0  0  0  0  0  0  0  0  0  0  0
   -6.7323   12.3219   -6.9127 H   0  0  0  0  0  0  0  0  0  0  0  0
   -2.6549    9.7395   -8.0568 H   0  0  0  0  0  0  0  0  0  0  0  0
   -4.8592    8.8187   -7.5036 H   0  0  0  0  0  0  0  0  0  0  0  0
   -4.8475    9.5609   -9.1393 H   0  0  0  0  0  0  0  0  0  0  0  0
   -3.6711   15.4833   -6.5034 H   0  0  0  0  0  0  0  0  0  0  0  0
   -2.6532   14.1872   -7.2178 H   0  0  0  0  0  0  0  0  0  0  0  0
   -4.1486   14.7205   -8.0580 H   0  0  0  0  0  0  0  0  0  0  0  0
   -0.1739   12.3445   -7.3623 H   0  0  0  0  0  0  0  0  0  0  0  0
   -0.8764   10.7233   -7.6856 H   0  0  0  0  0  0  0  0  0  0  0  0
   -1.2447   12.0969   -8.7830 H   0  0  0  0  0  0  0  0  0  0  0  0
  1  2  2  0  0  0  0
  1  4  1  0  0  0  0
  1 13  1  0  0  0  0
  2  6  1  0  0  0  0
  3  4  1  0  0  0  0
  3  5  2  0  0  0  0
  5  6  1  0  0  0  0
  5  9  1  0  0  0  0
  6  7  2  0  0  0  0
  7  8  1  0  0  0  0
  7 10  1  0  0  0  0
  8  9  2  0  0  0  0
 10 15  2  3  0  0  0
 11 12  1  0  0  0  0
 11 13  2  0  0  0  0
 13 14  1  0  0  0  0
 15 16  1  0  0  0  0
 15 20  1  0  0  0  0
 16 17  2  0  0  0  0
 17 18  1  0  0  0  0
 17 21  1  0  0  0  0
 18 19  2  0  0  0  0
 18 23  1  0  0  0  0
 19 20  1  0  0  0  0
 21 22  1  0  0  0  0
 23 24  1  0  0  0  0
  2 25  1  0  0  0  0
  3 26  1  0  0  0  0
  4 27  1  0  0  0  0
  4 28  1  0  0  0  0
 10 29  1  0  0  0  0
 12 30  1  0  0  0  0
 12 31  1  0  0  0  0
 12 32  1  0  0  0  0
 14 33  1  0  0  0  0
 16 34  1  0  0  0  0
 19 35  1  0  0  0  0
 20 36  1  0  0  0  0
 20 37  1  0  0  0  0
 22 38  1  0  0  0  0
 22 39  1  0  0  0  0
 22 40  1  0  0  0  0
 24 41  1  0  0  0  0
 24 42  1  0  0  0  0
 24 43  1  0  0  0  0
M  END
> <Name>
15

> <IC50[uM]>
2.5

$$$$
15
  -OEChem-05192314333D
 Structure written by MMmdl.
 43 45  0     1  0  0  0  0  0999 V2000
   -6.3730   12.3647  -12.0124 C   0  0  0  0  0  0  0  0  0  0  0  0
   -6.5249   11.8167  -10.7375 C   0  0  0  0  0  0  0  0  0  0  0  0
   -7.7225   10.5819  -13.0270 C   0  0  0  0  0  0  0  0  0  0  0  0
   -6.9871   11.7813  -13.1320 C   0  0  0  0  0  0  0  0  0  0  0  0
   -7.8205   10.0150  -11.7538 C   0  0  0  0  0  0  0  0  0  0  0  0
   -7.2514   10.6217  -10.6093 C   0  0  0  0  0  0  0  0  0  0  0  0
   -7.6113    9.7463   -9.5119 C   0  0  0  0  0  0  0  0  0  0  0  0
   -8.2838    8.7282   -9.9768 N   0  0  0  0  0  0  0  0  0  0  0  0
   -8.4166    8.8609  -11.2984 N   0  0  0  0  0  0  0  0  0  0  0  0
   -7.3282    9.8959   -8.0269 C   0  0  0  0  0  0  0  0  0  0  0  0
   -4.4004   13.6489  -11.4541 N   0  0  0  0  0  0  0  0  0  0  0  0
   -3.4592   14.7715  -11.4916 C   0  0  0  0  0  0  0  0  0  0  0  0
   -5.5363   13.6231  -12.1917 C   0  0  0  0  0  0  0  0  0  0  0  0
   -5.8861   14.5056  -12.9557 O   0  0  0  0  0  0  0  0  0  0  0  0
   -5.9554   10.4909   -7.7390 C   0  0  0  0  0  0  0  0  0  0  0  0
   -5.8447   11.7612   -7.1661 C   0  0  0  0  0  0  0  0  0  0  0  0
   -4.5697   12.3054   -6.9214 C   0  0  0  0  0  0  0  0  0  0  0  0
   -3.4308   11.5801   -7.2259 C   0  0  3  0  0  0  0  0  0  0  0  0
   -3.5429   10.3015   -7.8076 C   0  0  0  0  0  0  0  0  0  0  0  0
   -4.8018    9.7661   -8.0596 C   0  0  0  0  0  0  0  0  0  0  0  0
   -4.4352   13.5609   -6.3638 O   0  0  0  0  0  0  0  0  0  0  0  0
   -3.6839   14.5445   -7.0766 C   0  0  0  0  0  0  0  0  0  0  0  0
   -2.1928   12.1397   -6.9410 O   0  0  0  0  0  0  0  0  0  0  0  0
   -1.0568   11.8071   -7.7386 C   0  0  0  0  0  0  0  0  0  0  0  0
   -5.5161   11.6287  -10.3414 H   0  0  0  0  0  0  0  0  0  0  0  0
   -7.0280   12.5721  -10.1160 H   0  0  0  0  0  0  0  0  0  0  0  0
   -8.1868   10.1246  -13.8882 H   0  0  0  0  0  0  0  0  0  0  0  0
   -6.8945   12.2613  -14.0950 H   0  0  0  0  0  0  0  0  0  0  0  0
   -8.0276    9.6101   -7.2552 H   0  0  0  0  0  0  0  0  0  0  0  0
   -2.6173   14.5676  -10.8136 H   0  0  0  0  0  0  0  0  0  0  0  0
   -3.0815   14.8991  -12.5168 H   0  0  0  0  0  0  0  0  0  0  0  0
   -3.9723   15.6908  -11.1728 H   0  0  0  0  0  0  0  0  0  0  0  0
   -5.2484   15.2095  -12.9404 H   0  0  0  0  0  0  0  0  0  0  0  0
   -6.7323   12.3219   -6.9127 H   0  0  0  0  0  0  0  0  0  0  0  0
   -3.4073   12.0349   -8.2272 H   0  0  0  0  0  0  0  0  0  0  0  0
   -2.6549    9.7395   -8.0568 H   0  0  0  0  0  0  0  0  0  0  0  0
   -4.8895    8.7861   -8.5049 H   0  0  0  0  0  0  0  0  0  0  0  0
   -3.6711   15.4833   -6.5034 H   0  0  0  0  0  0  0  0  0  0  0  0
   -2.6532   14.1872   -7.2178 H   0  0  0  0  0  0  0  0  0  0  0  0
   -4.1486   14.7205   -8.0580 H   0  0  0  0  0  0  0  0  0  0  0  0
   -0.1739   12.3445   -7.3623 H   0  0  0  0  0  0  0  0  0  0  0  0
   -0.8764   10.7233   -7.6856 H   0  0  0  0  0  0  0  0  0  0  0  0
   -1.2447   12.0969   -8.7830 H   0  0  0  0  0  0  0  0  0  0  0  0
  1  2  1  0  0  0  0
  1  4  2  0  0  0  0
  1 13  1  0  0  0  0
  2  6  1  0  0  0  0
  3  4  1  0  0  0  0
  3  5  2  0  0  0  0
  5  6  1  0  0  0  0
  5  9  1  0  0  0  0
  6  7  2  0  0  0  0
  7  8  1  0  0  0  0
  7 10  1  0  0  0  0
  8  9  2  0  0  0  0
 10 15  2  3  0  0  0
 11 12  1  0  0  0  0
 11 13  2  0  0  0  0
 13 14  1  0  0  0  0
 15 16  1  0  0  0  0
 15 20  1  0  0  0  0
 16 17  2  0  0  0  0
 17 18  1  0  0  0  0
 17 21  1  0  0  0  0
 18 19  1  0  0  0  0
 18 23  1  0  0  0  0
 19 20  2  0  0  0  0
 21 22  1  0  0  0  0
 23 24  1  0  0  0  0
  2 25  1  0  0  0  0
  2 26  1  0  0  0  0
  3 27  1  0  0  0  0
  4 28  1  0  0  0  0
 10 29  1  0  0  0  0
 12 30  1  0  0  0  0
 12 31  1  0  0  0  0
 12 32  1  0  0  0  0
 14 33  1  0  0  0  0
 16 34  1  0  0  0  0
 18 35  1  0  0  0  0
 19 36  1  0  0  0  0
 20 37  1  0  0  0  0
 22 38  1  0  0  0  0
 22 39  1  0  0  0  0
 22 40  1  0  0  0  0
 24 41  1  0  0  0  0
 24 42  1  0  0  0  0
 24 43  1  0  0  0  0
M  END
> <Name>
15

> <IC50[uM]>
2.5

$$$$
15
  -OEChem-05192314333D
 Structure written by MMmdl.
 43 45  0     0  0  0  0  0  0999 V2000
   -6.3730   12.3647  -12.0124 C   0  0  0  0  0  0  0  0  0  0  0  0
   -6.5249   11.8167  -10.7375 C   0  0  0  0  0  0  0  0  0  0  0  0
   -7.7225   10.5819  -13.0270 C   0  0  0  0  0  0  0  0  0  0  0  0
   -6.9871   11.7813  -13.1320 C   0  0  0  0  0  0  0  0  0  0  0  0
   -7.8205   10.0150  -11.7538 C   0  0  0  0  0  0  0  0  0  0  0  0
   -7.2514   10.6217  -10.6093 C   0  0  0  0  0  0  0  0  0  0  0  0
   -7.6113    9.7463   -9.5119 C   0  0  0  0  0  0  0  0  0  0  0  0
   -8.2838    8.7282   -9.9768 N   0  0  0  0  0  0  0  0  0  0  0  0
   -8.4166    8.8609  -11.2984 N   0  0  0  0  0  0  0  0  0  0  0  0
   -7.3282    9.8959   -8.0269 C   0  0  0  0  0  0  0  0  0  0  0  0
   -4.4004   13.6489  -11.4541 N   0  0  0  0  0  0  0  0  0  0  0  0
   -3.4592   14.7715  -11.4916 C   0  0  0  0  0  0  0  0  0  0  0  0
   -5.5363   13.6231  -12.1917 C   0  0  0  0  0  0  0  0  0  0  0  0
   -5.8861   14.5056  -12.9557 O   0  0  0  0  0  0  0  0  0  0  0  0
   -5.9554   10.4909   -7.7390 C   0  0  0  0  0  0  0  0  0  0  0  0
   -5.8447   11.7612   -7.1661 C   0  0  0  0  0  0  0  0  0  0  0  0
   -4.5697   12.3054   -6.9214 C   0  0  0  0  0  0  0  0  0  0  0  0
   -3.4308   11.5801   -7.2259 C   0  0  0  0  0  0  0  0  0  0  0  0
   -3.5429   10.3015   -7.8076 C   0  0  0  0  0  0  0  0  0  0  0  0
   -4.8018    9.7661   -8.0596 C   0  0  0  0  0  0  0  0  0  0  0  0
   -4.4352   13.5609   -6.3638 O   0  0  0  0  0  0  0  0  0  0  0  0
   -3.6839   14.5445   -7.0766 C   0  0  0  0  0  0  0  0  0  0  0  0
   -2.1928   12.1397   -6.9410 O   0  0  0  0  0  0  0  0  0  0  0  0
   -1.0568   11.8071   -7.7386 C   0  0  0  0  0  0  0  0  0  0  0  0
   -5.5161   11.6287  -10.3414 H   0  0  0  0  0  0  0  0  0  0  0  0
   -7.0280   12.5721  -10.1160 H   0  0  0  0  0  0  0  0  0  0  0  0
   -8.1868   10.1246  -13.8882 H   0  0  0  0  0  0  0  0  0  0  0  0
   -6.8945   12.2613  -14.0950 H   0  0  0  0  0  0  0  0  0  0  0  0
   -8.0276    9.6101   -7.2552 H   0  0  0  0  0  0  0  0  0  0  0  0
   -2.6173   14.5676  -10.8136 H   0  0  0  0  0  0  0  0  0  0  0  0
   -3.0815   14.8991  -12.5168 H   0  0  0  0  0  0  0  0  0  0  0  0
   -3.9723   15.6908  -11.1728 H   0  0  0  0  0  0  0  0  0  0  0  0
   -5.2484   15.2095  -12.9404 H   0  0  0  0  0  0  0  0  0  0  0  0
   -6.7323   12.3219   -6.9127 H   0  0  0  0  0  0  0  0  0  0  0  0
   -2.6549    9.7395   -8.0568 H   0  0  0  0  0  0  0  0  0  0  0  0
   -4.8592    8.8187   -7.5036 H   0  0  0  0  0  0  0  0  0  0  0  0
   -4.8475    9.5609   -9.1393 H   0  0  0  0  0  0  0  0  0  0  0  0
   -3.6711   15.4833   -6.5034 H   0  0  0  0  0  0  0  0  0  0  0  0
   -2.6532   14.1872   -7.2178 H   0  0  0  0  0  0  0  0  0  0  0  0
   -4.1486   14.7205   -8.0580 H   0  0  0  0  0  0  0  0  0  0  0  0
   -0.1739   12.3445   -7.3623 H   0  0  0  0  0  0  0  0  0  0  0  0
   -0.8764   10.7233   -7.6856 H   0  0  0  0  0  0  0  0  0  0  0  0
   -1.2447   12.0969   -8.7830 H   0  0  0  0  0  0  0  0  0  0  0  0
  1  2  1  0  0  0  0
  1  4  2  0  0  0  0
  1 13  1  0  0  0  0
  2  6  1  0  0  0  0
  3  4  1  0  0  0  0
  3  5  2  0  0  0  0
  5  6  1  0  0  0  0
  5  9  1  0  0  0  0
  6  7  2  0  0  0  0
  7  8  1  0  0  0  0
  7 10  1  0  0  0  0
  8  9  2  0  0  0  0
 10 15  2  3  0  0  0
 11 12  1  0  0  0  0
 11 13  2  0  0  0  0
 13 14  1  0  0  0  0
 15 16  1  0  0  0  0
 15 20  1  0  0  0  0
 16 17  2  0  0  0  0
 17 18  1  0  0  0  0
 17 21  1  0  0  0  0
 18 19  2  0  0  0  0
 18 23  1  0  0  0  0
 19 20  1  0  0  0  0
 21 22  1  0  0  0  0
 23 24  1  0  0  0  0
  2 25  1  0  0  0  0
  2 26  1  0  0  0  0
  3 27  1  0  0  0  0
  4 28  1  0  0  0  0
 10 29  1  0  0  0  0
 12 30  1  0  0  0  0
 12 31  1  0  0  0  0
 12 32  1  0  0  0  0
 14 33  1  0  0  0  0
 16 34  1  0  0  0  0
 19 35  1  0  0  0  0
 20 36  1  0  0  0  0
 20 37  1  0  0  0  0
 22 38  1  0  0  0  0
 22 39  1  0  0  0  0
 22 40  1  0  0  0  0
 24 41  1  0  0  0  0
 24 42  1  0  0  0  0
 24 43  1  0  0  0  0
M  END
> <Name>
15

> <IC50[uM]>
2.5

$$$$
15
  -OEChem-05192314333D
 Structure written by MMmdl.
 43 45  0     1  0  0  0  0  0999 V2000
   -6.3730   12.3647  -12.0124 C   0  0  0  0  0  0  0  0  0  0  0  0
   -6.5249   11.8167  -10.7375 C   0  0  0  0  0  0  0  0  0  0  0  0
   -7.7225   10.5819  -13.0270 C   0  0  0  0  0  0  0  0  0  0  0  0
   -6.9871   11.7813  -13.1320 C   0  0  0  0  0  0  0  0  0  0  0  0
   -7.8205   10.0150  -11.7538 C   0  0  3  0  0  0  0  0  0  0  0  0
   -7.2514   10.6217  -10.6093 C   0  0  0  0  0  0  0  0  0  0  0  0
   -7.6113    9.7463   -9.5119 C   0  0  0  0  0  0  0  0  0  0  0  0
   -8.2838    8.7282   -9.9768 N   0  0  0  0  0  0  0  0  0  0  0  0
   -8.4166    8.8609  -11.2984 N   0  0  0  0  0  0  0  0  0  0  0  0
   -7.3282    9.8959   -8.0269 C   0  0  0  0  0  0  0  0  0  0  0  0
   -4.4004   13.6489  -11.4541 N   0  0  0  0  0  0  0  0  0  0  0  0
   -3.4592   14.7715  -11.4916 C   0  0  0  0  0  0  0  0  0  0  0  0
   -5.5363   13.6231  -12.1917 C   0  0  0  0  0  0  0  0  0  0  0  0
   -5.8861   14.5056  -12.9557 O   0  0  0  0  0  0  0  0  0  0  0  0
   -5.9554   10.4909   -7.7390 C   0  0  0  0  0  0  0  0  0  0  0  0
   -5.8447   11.7612   -7.1661 C   0  0  0  0  0  0  0  0  0  0  0  0
   -4.5697   12.3054   -6.9214 C   0  0  0  0  0  0  0  0  0  0  0  0
   -3.4308   11.5801   -7.2259 C   0  0  0  0  0  0  0  0  0  0  0  0
   -3.5429   10.3015   -7.8076 C   0  0  0  0  0  0  0  0  0  0  0  0
   -4.8018    9.7661   -8.0596 C   0  0  0  0  0  0  0  0  0  0  0  0
   -4.4352   13.5609   -6.3638 O   0  0  0  0  0  0  0  0  0  0  0  0
   -3.6839   14.5445   -7.0766 C   0  0  0  0  0  0  0  0  0  0  0  0
   -2.1928   12.1397   -6.9410 O   0  0  0  0  0  0  0  0  0  0  0  0
   -1.0568   11.8071   -7.7386 C   0  0  0  0  0  0  0  0  0  0  0  0
   -6.0949   12.2992   -9.8722 H   0  0  0  0  0  0  0  0  0  0  0  0
   -8.1868   10.1246  -13.8882 H   0  0  0  0  0  0  0  0  0  0  0  0
   -6.8945   12.2613  -14.0950 H   0  0  0  0  0  0  0  0  0  0  0  0
   -6.8846    9.4635  -11.9271 H   0  0  0  0  0  0  0  0  0  0  0  0
   -8.0276    9.6101   -7.2552 H   0  0  0  0  0  0  0  0  0  0  0  0
   -2.6173   14.5676  -10.8136 H   0  0  0  0  0  0  0  0  0  0  0  0
   -3.0815   14.8991  -12.5168 H   0  0  0  0  0  0  0  0  0  0  0  0
   -3.9723   15.6908  -11.1728 H   0  0  0  0  0  0  0  0  0  0  0  0
   -5.2484   15.2095  -12.9404 H   0  0  0  0  0  0  0  0  0  0  0  0
   -6.3671   12.4602   -7.8358 H   0  0  0  0  0  0  0  0  0  0  0  0
   -6.3661   11.7216   -6.1984 H   0  0  0  0  0  0  0  0  0  0  0  0
   -2.6549    9.7395   -8.0568 H   0  0  0  0  0  0  0  0  0  0  0  0
   -4.8895    8.7861   -8.5049 H   0  0  0  0  0  0  0  0  0  0  0  0
   -3.6711   15.4833   -6.5034 H   0  0  0  0  0  0  0  0  0  0  0  0
   -2.6532   14.1872   -7.2178 H   0  0  0  0  0  0  0  0  0  0  0  0
   -4.1486   14.7205   -8.0580 H   0  0  0  0  0  0  0  0  0  0  0  0
   -0.1739   12.3445   -7.3623 H   0  0  0  0  0  0  0  0  0  0  0  0
   -0.8764   10.7233   -7.6856 H   0  0  0  0  0  0  0  0  0  0  0  0
   -1.2447   12.0969   -8.7830 H   0  0  0  0  0  0  0  0  0  0  0  0
  1  2  2  0  0  0  0
  1  4  1  0  0  0  0
  1 13  1  0  0  0  0
  2  6  1  0  0  0  0
  3  4  2  0  0  0  0
  3  5  1  0  0  0  0
  5  6  1  0  0  0  0
  5  9  1  0  0  0  0
  6  7  2  0  0  0  0
  7  8  1  0  0  0  0
  7 10  1  0  0  0  0
  8  9  2  0  0  0  0
 10 15  2  3  0  0  0
 11 12  1  0  0  0  0
 11 13  2  0  0  0  0
 13 14  1  0  0  0  0
 15 16  1  0  0  0  0
 15 20  1  0  0  0  0
 16 17  1  0  0  0  0
 17 18  2  0  0  0  0
 17 21  1  0  0  0  0
 18 19  1  0  0  0  0
 18 23  1  0  0  0  0
 19 20  2  0  0  0  0
 21 22  1  0  0  0  0
 23 24  1  0  0  0  0
  2 25  1  0  0  0  0
  3 26  1  0  0  0  0
  4 27  1  0  0  0  0
  5 28  1  0  0  0  0
 10 29  1  0  0  0  0
 12 30  1  0  0  0  0
 12 31  1  0  0  0  0
 12 32  1  0  0  0  0
 14 33  1  0  0  0  0
 16 34  1  0  0  0  0
 16 35  1  0  0  0  0
 19 36  1  0  0  0  0
 20 37  1  0  0  0  0
 22 38  1  0  0  0  0
 22 39  1  0  0  0  0
 22 40  1  0  0  0  0
 24 41  1  0  0  0  0
 24 42  1  0  0  0  0
 24 43  1  0  0  0  0
M  END
> <Name>
15

> <IC50[uM]>
2.5

$$$$
15
  -OEChem-05192314333D
 Structure written by MMmdl.
 43 45  0     0  0  0  0  0  0999 V2000
   -6.3730   12.3647  -12.0124 C   0  0  0  0  0  0  0  0  0  0  0  0
   -6.5249   11.8167  -10.7375 C   0  0  0  0  0  0  0  0  0  0  0  0
   -7.7225   10.5819  -13.0270 C   0  0  0  0  0  0  0  0  0  0  0  0
   -6.9871   11.7813  -13.1320 C   0  0  0  0  0  0  0  0  0  0  0  0
   -7.8205   10.0150  -11.7538 C   0  0  0  0  0  0  0  0  0  0  0  0
   -7.2514   10.6217  -10.6093 C   0  0  0  0  0  0  0  0  0  0  0  0
   -7.6113    9.7463   -9.5119 C   0  0  0  0  0  0  0  0  0  0  0  0
   -8.2838    8.7282   -9.9768 N   0  0  0  0  0  0  0  0  0  0  0  0
   -8.4166    8.8609  -11.2984 N   0  0  0  0  0  0  0  0  0  0  0  0
   -7.3282    9.8959   -8.0269 C   0  0  0  0  0  0  0  0  0  0  0  0
   -4.4004   13.6489  -11.4541 N   0  0  0  0  0  0  0  0  0  0  0  0
   -3.4592   14.7715  -11.4916 C   0  0  0  0  0  0  0  0  0  0  0  0
   -5.5363   13.6231  -12.1917 C   0  0  0  0  0  0  0  0  0  0  0  0
   -5.8861   14.5056  -12.9557 O   0  0  0  0  0  0  0  0  0  0  0  0
   -5.9554   10.4909   -7.7390 C   0  0  0  0  0  0  0  0  0  0  0  0
   -5.8447   11.7612   -7.1661 C   0  0  0  0  0  0  0  0  0  0  0  0
   -4.5697   12.3054   -6.9214 C   0  0  0  0  0  0  0  0  0  0  0  0
   -3.4308   11.5801   -7.2259 C   0  0  0  0  0  0  0  0  0  0  0  0
   -3.5429   10.3015   -7.8076 C   0  0  0  0  0  0  0  0  0  0  0  0
   -4.8018    9.7661   -8.0596 C   0  0  0  0  0  0  0  0  0  0  0  0
   -4.4352   13.5609   -6.3638 O   0  0  0  0  0  0  0  0  0  0  0  0
   -3.6839   14.5445   -7.0766 C   0  0  0  0  0  0  0  0  0  0  0  0
   -2.1928   12.1397   -6.9410 O   0  0  0  0  0  0  0  0  0  0  0  0
   -1.0568   11.8071   -7.7386 C   0  0  0  0  0  0  0  0  0  0  0  0
   -6.0949   12.2992   -9.8722 H   0  0  0  0  0  0  0  0  0  0  0  0
   -8.1868   10.1246  -13.8882 H   0  0  0  0  0  0  0  0  0  0  0  0
   -7.6791   12.5355  -13.5348 H   0  0  0  0  0  0  0  0  0  0  0  0
   -6.1862   11.5916  -13.8618 H   0  0  0  0  0  0  0  0  0  0  0  0
   -8.0276    9.6101   -7.2552 H   0  0  0  0  0  0  0  0  0  0  0  0
   -2.6173   14.5676  -10.8136 H   0  0  0  0  0  0  0  0  0  0  0  0
   -3.0815   14.8991  -12.5168 H   0  0  0  0  0  0  0  0  0  0  0  0
   -3.9723   15.6908  -11.1728 H   0  0  0  0  0  0  0  0  0  0  0  0
   -5.2484   15.2095  -12.9404 H   0  0  0  0  0  0  0  0  0  0  0  0
   -6.3671   12.4602   -7.8358 H   0  0  0  0  0  0  0  0  0  0  0  0
   -6.3661   11.7216   -6.1984 H   0  0  0  0  0  0  0  0  0  0  0  0
   -2.6549    9.7395   -8.0568 H   0  0  0  0  0  0  0  0  0  0  0  0
   -4.8895    8.7861   -8.5049 H   0  0  0  0  0  0  0  0  0  0  0  0
   -3.6711   15.4833   -6.5034 H   0  0  0  0  0  0  0  0  0  0  0  0
   -2.6532   14.1872   -7.2178 H   0  0  0  0  0  0  0  0  0  0  0  0
   -4.1486   14.7205   -8.0580 H   0  0  0  0  0  0  0  0  0  0  0  0
   -0.1739   12.3445   -7.3623 H   0  0  0  0  0  0  0  0  0  0  0  0
   -0.8764   10.7233   -7.6856 H   0  0  0  0  0  0  0  0  0  0  0  0
   -1.2447   12.0969   -8.7830 H   0  0  0  0  0  0  0  0  0  0  0  0
  1  2  2  0  0  0  0
  1  4  1  0  0  0  0
  1 13  1  0  0  0  0
  2  6  1  0  0  0  0
  3  4  1  0  0  0  0
  3  5  2  0  0  0  0
  5  6  1  0  0  0  0
  5  9  1  0  0  0  0
  6  7  2  0  0  0  0
  7  8  1  0  0  0  0
  7 10  1  0  0  0  0
  8  9  2  0  0  0  0
 10 15  2  3  0  0  0
 11 12  1  0  0  0  0
 11 13  2  0  0  0  0
 13 14  1  0  0  0  0
 15 16  1  0  0  0  0
 15 20  1  0  0  0  0
 16 17  1  0  0  0  0
 17 18  2  0  0  0  0
 17 21  1  0  0  0  0
 18 19  1  0  0  0  0
 18 23  1  0  0  0  0
 19 20  2  0  0  0  0
 21 22  1  0  0  0  0
 23 24  1  0  0  0  0
  2 25  1  0  0  0  0
  3 26  1  0  0  0  0
  4 27  1  0  0  0  0
  4 28  1  0  0  0  0
 10 29  1  0  0  0  0
 12 30  1  0  0  0  0
 12 31  1  0  0  0  0
 12 32  1  0  0  0  0
 14 33  1  0  0  0  0
 16 34  1  0  0  0  0
 16 35  1  0  0  0  0
 19 36  1  0  0  0  0
 20 37  1  0  0  0  0
 22 38  1  0  0  0  0
 22 39  1  0  0  0  0
 22 40  1  0  0  0  0
 24 41  1  0  0  0  0
 24 42  1  0  0  0  0
 24 43  1  0  0  0  0
M  END
> <Name>
15

> <IC50[uM]>
2.5

$$$$
15
  -OEChem-05192314333D
 Structure written by MMmdl.
 43 45  0     0  0  0  0  0  0999 V2000
   -6.3730   12.3647  -12.0124 C   0  0  0  0  0  0  0  0  0  0  0  0
   -6.5249   11.8167  -10.7375 C   0  0  0  0  0  0  0  0  0  0  0  0
   -7.7225   10.5819  -13.0270 C   0  0  0  0  0  0  0  0  0  0  0  0
   -6.9871   11.7813  -13.1320 C   0  0  0  0  0  0  0  0  0  0  0  0
   -7.8205   10.0150  -11.7538 C   0  0  0  0  0  0  0  0  0  0  0  0
   -7.2514   10.6217  -10.6093 C   0  0  0  0  0  0  0  0  0  0  0  0
   -7.6113    9.7463   -9.5119 C   0  0  0  0  0  0  0  0  0  0  0  0
   -8.2838    8.7282   -9.9768 N   0  0  0  0  0  0  0  0  0  0  0  0
   -8.4166    8.8609  -11.2984 N   0  0  0  0  0  0  0  0  0  0  0  0
   -7.3282    9.8959   -8.0269 C   0  0  0  0  0  0  0  0  0  0  0  0
   -4.4004   13.6489  -11.4541 N   0  0  0  0  0  0  0  0  0  0  0  0
   -3.4592   14.7715  -11.4916 C   0  0  0  0  0  0  0  0  0  0  0  0
   -5.5363   13.6231  -12.1917 C   0  0  0  0  0  0  0  0  0  0  0  0
   -5.8861   14.5056  -12.9557 O   0  0  0  0  0  0  0  0  0  0  0  0
   -5.9554   10.4909   -7.7390 C   0  0  0  0  0  0  0  0  0  0  0  0
   -5.8447   11.7612   -7.1661 C   0  0  0  0  0  0  0  0  0  0  0  0
   -4.5697   12.3054   -6.9214 C   0  0  0  0  0  0  0  0  0  0  0  0
   -3.4308   11.5801   -7.2259 C   0  0  0  0  0  0  0  0  0  0  0  0
   -3.5429   10.3015   -7.8076 C   0  0  0  0  0  0  0  0  0  0  0  0
   -4.8018    9.7661   -8.0596 C   0  0  0  0  0  0  0  0  0  0  0  0
   -4.4352   13.5609   -6.3638 O   0  0  0  0  0  0  0  0  0  0  0  0
   -3.6839   14.5445   -7.0766 C   0  0  0  0  0  0  0  0  0  0  0  0
   -2.1928   12.1397   -6.9410 O   0  0  0  0  0  0  0  0  0  0  0  0
   -1.0568   11.8071   -7.7386 C   0  0  0  0  0  0  0  0  0  0  0  0
   -5.5161   11.6287  -10.3414 H   0  0  0  0  0  0  0  0  0  0  0  0
   -7.0280   12.5721  -10.1160 H   0  0  0  0  0  0  0  0  0  0  0  0
   -8.1868   10.1246  -13.8882 H   0  0  0  0  0  0  0  0  0  0  0  0
   -6.8945   12.2613  -14.0950 H   0  0  0  0  0  0  0  0  0  0  0  0
   -8.0276    9.6101   -7.2552 H   0  0  0  0  0  0  0  0  0  0  0  0
   -2.6173   14.5676  -10.8136 H   0  0  0  0  0  0  0  0  0  0  0  0
   -3.0815   14.8991  -12.5168 H   0  0  0  0  0  0  0  0  0  0  0  0
   -3.9723   15.6908  -11.1728 H   0  0  0  0  0  0  0  0  0  0  0  0
   -5.2484   15.2095  -12.9404 H   0  0  0  0  0  0  0  0  0  0  0  0
   -6.3671   12.4602   -7.8358 H   0  0  0  0  0  0  0  0  0  0  0  0
   -6.3661   11.7216   -6.1984 H   0  0  0  0  0  0  0  0  0  0  0  0
   -2.6549    9.7395   -8.0568 H   0  0  0  0  0  0  0  0  0  0  0  0
   -4.8895    8.7861   -8.5049 H   0  0  0  0  0  0  0  0  0  0  0  0
   -3.6711   15.4833   -6.5034 H   0  0  0  0  0  0  0  0  0  0  0  0
   -2.6532   14.1872   -7.2178 H   0  0  0  0  0  0  0  0  0  0  0  0
   -4.1486   14.7205   -8.0580 H   0  0  0  0  0  0  0  0  0  0  0  0
   -0.1739   12.3445   -7.3623 H   0  0  0  0  0  0  0  0  0  0  0  0
   -0.8764   10.7233   -7.6856 H   0  0  0  0  0  0  0  0  0  0  0  0
   -1.2447   12.0969   -8.7830 H   0  0  0  0  0  0  0  0  0  0  0  0
  1  2  1  0  0  0  0
  1  4  2  0  0  0  0
  1 13  1  0  0  0  0
  2  6  1  0  0  0  0
  3  4  1  0  0  0  0
  3  5  2  0  0  0  0
  5  6  1  0  0  0  0
  5  9  1  0  0  0  0
  6  7  2  0  0  0  0
  7  8  1  0  0  0  0
  7 10  1  0  0  0  0
  8  9  2  0  0  0  0
 10 15  2  3  0  0  0
 11 12  1  0  0  0  0
 11 13  2  0  0  0  0
 13 14  1  0  0  0  0
 15 16  1  0  0  0  0
 15 20  1  0  0  0  0
 16 17  1  0  0  0  0
 17 18  2  0  0  0  0
 17 21  1  0  0  0  0
 18 19  1  0  0  0  0
 18 23  1  0  0  0  0
 19 20  2  0  0  0  0
 21 22  1  0  0  0  0
 23 24  1  0  0  0  0
  2 25  1  0  0  0  0
  2 26  1  0  0  0  0
  3 27  1  0  0  0  0
  4 28  1  0  0  0  0
 10 29  1  0  0  0  0
 12 30  1  0  0  0  0
 12 31  1  0  0  0  0
 12 32  1  0  0  0  0
 14 33  1  0  0  0  0
 16 34  1  0  0  0  0
 16 35  1  0  0  0  0
 19 36  1  0  0  0  0
 20 37  1  0  0  0  0
 22 38  1  0  0  0  0
 22 39  1  0  0  0  0
 22 40  1  0  0  0  0
 24 41  1  0  0  0  0
 24 42  1  0  0  0  0
 24 43  1  0  0  0  0
M  END
> <Name>
15

> <IC50[uM]>
2.5

$$$$
15
  -OEChem-05192314333D
 Structure written by MMmdl.
 43 45  0     0  0  0  0  0  0999 V2000
   -6.3730   12.3647  -12.0124 C   0  0  0  0  0  0  0  0  0  0  0  0
   -6.5249   11.8167  -10.7375 C   0  0  0  0  0  0  0  0  0  0  0  0
   -7.7225   10.5819  -13.0270 C   0  0  0  0  0  0  0  0  0  0  0  0
   -6.9871   11.7813  -13.1320 C   0  0  0  0  0  0  0  0  0  0  0  0
   -7.8205   10.0150  -11.7538 C   0  0  0  0  0  0  0  0  0  0  0  0
   -7.2514   10.6217  -10.6093 C   0  0  0  0  0  0  0  0  0  0  0  0
   -7.6113    9.7463   -9.5119 C   0  0  0  0  0  0  0  0  0  0  0  0
   -8.2838    8.7282   -9.9768 N   0  0  0  0  0  0  0  0  0  0  0  0
   -8.4166    8.8609  -11.2984 N   0  0  0  0  0  0  0  0  0  0  0  0
   -7.3282    9.8959   -8.0269 C   0  0  0  0  0  0  0  0  0  0  0  0
   -4.4004   13.6489  -11.4541 N   0  0  0  0  0  0  0  0  0  0  0  0
   -3.4592   14.7715  -11.4916 C   0  0  0  0  0  0  0  0  0  0  0  0
   -5.5363   13.6231  -12.1917 C   0  0  0  0  0  0  0  0  0  0  0  0
   -5.8861   14.5056  -12.9557 O   0  0  0  0  0  0  0  0  0  0  0  0
   -5.9554   10.4909   -7.7390 C   0  0  0  0  0  0  0  0  0  0  0  0
   -5.8447   11.7612   -7.1661 C   0  0  0  0  0  0  0  0  0  0  0  0
   -4.5697   12.3054   -6.9214 C   0  0  0  0  0  0  0  0  0  0  0  0
   -3.4308   11.5801   -7.2259 C   0  0  0  0  0  0  0  0  0  0  0  0
   -3.5429   10.3015   -7.8076 C   0  0  0  0  0  0  0  0  0  0  0  0
   -4.8018    9.7661   -8.0596 C   0  0  0  0  0  0  0  0  0  0  0  0
   -4.4352   13.5609   -6.3638 O   0  0  0  0  0  0  0  0  0  0  0  0
   -3.6839   14.5445   -7.0766 C   0  0  0  0  0  0  0  0  0  0  0  0
   -2.1928   12.1397   -6.9410 O   0  0  0  0  0  0  0  0  0  0  0  0
   -1.0568   11.8071   -7.7386 C   0  0  0  0  0  0  0  0  0  0  0  0
   -6.0949   12.2992   -9.8722 H   0  0  0  0  0  0  0  0  0  0  0  0
   -8.1868   10.1246  -13.8882 H   0  0  0  0  0  0  0  0  0  0  0  0
   -6.8945   12.2613  -14.0950 H   0  0  0  0  0  0  0  0  0  0  0  0
   -8.6418    7.9709   -9.4306 H   0  0  0  0  0  0  0  0  0  0  0  0
   -8.0276    9.6101   -7.2552 H   0  0  0  0  0  0  0  0  0  0  0  0
   -3.8775   12.8398  -11.7222 H   0  0  0  0  0  0  0  0  0  0  0  0
   -2.6173   14.5676  -10.8136 H   0  0  0  0  0  0  0  0  0  0  0  0
   -3.0815   14.8991  -12.5168 H   0  0  0  0  0  0  0  0  0  0  0  0
   -3.9723   15.6908  -11.1728 H   0  0  0  0  0  0  0  0  0  0  0  0
   -5.2484   15.2095  -12.9404 H   0  0  0  0  0  0  0  0  0  0  0  0
   -6.7323   12.3219   -6.9127 H   0  0  0  0  0  0  0  0  0  0  0  0
   -2.6549    9.7395   -8.0568 H   0  0  0  0  0  0  0  0  0  0  0  0
   -4.8895    8.7861   -8.5049 H   0  0  0  0  0  0  0  0  0  0  0  0
   -3.6711   15.4833   -6.5034 H   0  0  0  0  0  0  0  0  0  0  0  0
   -2.6532   14.1872   -7.2178 H   0  0  0  0  0  0  0  0  0  0  0  0
   -4.1486   14.7205   -8.0580 H   0  0  0  0  0  0  0  0  0  0  0  0
   -0.1739   12.3445   -7.3623 H   0  0  0  0  0  0  0  0  0  0  0  0
   -0.8764   10.7233   -7.6856 H   0  0  0  0  0  0  0  0  0  0  0  0
   -1.2447   12.0969   -8.7830 H   0  0  0  0  0  0  0  0  0  0  0  0
  1  2  1  0  0  0  0
  1  4  1  0  0  0  0
  1 13  2  3  0  0  0
  2  6  2  0  0  0  0
  3  4  2  0  0  0  0
  3  5  1  0  0  0  0
  5  6  1  0  0  0  0
  5  9  2  0  0  0  0
  6  7  1  0  0  0  0
  7  8  1  0  0  0  0
  7 10  2  3  0  0  0
  8  9  1  0  0  0  0
 10 15  1  0  0  0  0
 11 12  1  0  0  0  0
 11 13  1  0  0  0  0
 13 14  1  0  0  0  0
 15 16  2  0  0  0  0
 15 20  1  0  0  0  0
 16 17  1  0  0  0  0
 17 18  2  0  0  0  0
 17 21  1  0  0  0  0
 18 19  1  0  0  0  0
 18 23  1  0  0  0  0
 19 20  2  0  0  0  0
 21 22  1  0  0  0  0
 23 24  1  0  0  0  0
  2 25  1  0  0  0  0
  3 26  1  0  0  0  0
  4 27  1  0  0  0  0
  8 28  1  0  0  0  0
 10 29  1  0  0  0  0
 11 30  1  0  0  0  0
 12 31  1  0  0  0  0
 12 32  1  0  0  0  0
 12 33  1  0  0  0  0
 14 34  1  0  0  0  0
 16 35  1  0  0  0  0
 19 36  1  0  0  0  0
 20 37  1  0  0  0  0
 22 38  1  0  0  0  0
 22 39  1  0  0  0  0
 22 40  1  0  0  0  0
 24 41  1  0  0  0  0
 24 42  1  0  0  0  0
 24 43  1  0  0  0  0
M  END
> <Name>
15

> <IC50[uM]>
2.5

$$$$
15
  -OEChem-05192314333D
 Structure written by MMmdl.
 43 45  0     1  0  0  0  0  0999 V2000
   -6.3730   12.3647  -12.0124 C   0  0  0  0  0  0  0  0  0  0  0  0
   -6.5249   11.8167  -10.7375 C   0  0  0  0  0  0  0  0  0  0  0  0
   -7.7225   10.5819  -13.0270 C   0  0  0  0  0  0  0  0  0  0  0  0
   -6.9871   11.7813  -13.1320 C   0  0  0  0  0  0  0  0  0  0  0  0
   -7.8205   10.0150  -11.7538 C   0  0  0  0  0  0  0  0  0  0  0  0
   -7.2514   10.6217  -10.6093 C   0  0  0  0  0  0  0  0  0  0  0  0
   -7.6113    9.7463   -9.5119 C   0  0  0  0  0  0  0  0  0  0  0  0
   -8.2838    8.7282   -9.9768 N   0  0  0  0  0  0  0  0  0  0  0  0
   -8.4166    8.8609  -11.2984 N   0  0  0  0  0  0  0  0  0  0  0  0
   -7.3282    9.8959   -8.0269 C   0  0  0  0  0  0  0  0  0  0  0  0
   -4.4004   13.6489  -11.4541 N   0  0  0  0  0  0  0  0  0  0  0  0
   -3.4592   14.7715  -11.4916 C   0  0  0  0  0  0  0  0  0  0  0  0
   -5.5363   13.6231  -12.1917 C   0  0  3  0  0  0  0  0  0  0  0  0
   -5.8861   14.5056  -12.9557 O   0  0  0  0  0  0  0  0  0  0  0  0
   -5.9554   10.4909   -7.7390 C   0  0  0  0  0  0  0  0  0  0  0  0
   -5.8447   11.7612   -7.1661 C   0  0  0  0  0  0  0  0  0  0  0  0
   -4.5697   12.3054   -6.9214 C   0  0  0  0  0  0  0  0  0  0  0  0
   -3.4308   11.5801   -7.2259 C   0  0  0  0  0  0  0  0  0  0  0  0
   -3.5429   10.3015   -7.8076 C   0  0  0  0  0  0  0  0  0  0  0  0
   -4.8018    9.7661   -8.0596 C   0  0  0  0  0  0  0  0  0  0  0  0
   -4.4352   13.5609   -6.3638 O   0  0  0  0  0  0  0  0  0  0  0  0
   -3.6839   14.5445   -7.0766 C   0  0  0  0  0  0  0  0  0  0  0  0
   -2.1928   12.1397   -6.9410 O   0  0  0  0  0  0  0  0  0  0  0  0
   -1.0568   11.8071   -7.7386 C   0  0  0  0  0  0  0  0  0  0  0  0
   -6.0949   12.2992   -9.8722 H   0  0  0  0  0  0  0  0  0  0  0  0
   -8.1868   10.1246  -13.8882 H   0  0  0  0  0  0  0  0  0  0  0  0
   -6.8945   12.2613  -14.0950 H   0  0  0  0  0  0  0  0  0  0  0  0
   -8.0276    9.6101   -7.2552 H   0  0  0  0  0  0  0  0  0  0  0  0
   -3.8775   12.8398  -11.7222 H   0  0  0  0  0  0  0  0  0  0  0  0
   -2.6173   14.5676  -10.8136 H   0  0  0  0  0  0  0  0  0  0  0  0
   -3.0815   14.8991  -12.5168 H   0  0  0  0  0  0  0  0  0  0  0  0
   -3.9723   15.6908  -11.1728 H   0  0  0  0  0  0  0  0  0  0  0  0
   -6.0849   14.1092  -11.3715 H   0  0  0  0  0  0  0  0  0  0  0  0
   -5.2484   15.2095  -12.9404 H   0  0  0  0  0  0  0  0  0  0  0  0
   -6.7323   12.3219   -6.9127 H   0  0  0  0  0  0  0  0  0  0  0  0
   -2.6549    9.7395   -8.0568 H   0  0  0  0  0  0  0  0  0  0  0  0
   -4.8895    8.7861   -8.5049 H   0  0  0  0  0  0  0  0  0  0  0  0
   -3.6711   15.4833   -6.5034 H   0  0  0  0  0  0  0  0  0  0  0  0
   -2.6532   14.1872   -7.2178 H   0  0  0  0  0  0  0  0  0  0  0  0
   -4.1486   14.7205   -8.0580 H   0  0  0  0  0  0  0  0  0  0  0  0
   -0.1739   12.3445   -7.3623 H   0  0  0  0  0  0  0  0  0  0  0  0
   -0.8764   10.7233   -7.6856 H   0  0  0  0  0  0  0  0  0  0  0  0
   -1.2447   12.0969   -8.7830 H   0  0  0  0  0  0  0  0  0  0  0  0
  1  2  2  0  0  0  0
  1  4  1  0  0  0  0
  1 13  1  0  0  0  0
  2  6  1  0  0  0  0
  3  4  2  0  0  0  0
  3  5  1  0  0  0  0
  5  6  2  0  0  0  0
  5  9  1  0  0  0  0
  6  7  1  0  0  0  0
  7  8  1  0  0  0  0
  7 10  2  3  0  0  0
  8  9  2  0  0  0  0
 10 15  1  0  0  0  0
 11 12  1  0  0  0  0
 11 13  1  0  0  0  0
 13 14  1  0  0  0  0
 15 16  2  0  0  0  0
 15 20  1  0  0  0  0
 16 17  1  0  0  0  0
 17 18  2  0  0  0  0
 17 21  1  0  0  0  0
 18 19  1  0  0  0  0
 18 23  1  0  0  0  0
 19 20  2  0  0  0  0
 21 22  1  0  0  0  0
 23 24  1  0  0  0  0
  2 25  1  0  0  0  0
  3 26  1  0  0  0  0
  4 27  1  0  0  0  0
 10 28  1  0  0  0  0
 11 29  1  0  0  0  0
 12 30  1  0  0  0  0
 12 31  1  0  0  0  0
 12 32  1  0  0  0  0
 13 33  1  0  0  0  0
 14 34  1  0  0  0  0
 16 35  1  0  0  0  0
 19 36  1  0  0  0  0
 20 37  1  0  0  0  0
 22 38  1  0  0  0  0
 22 39  1  0  0  0  0
 22 40  1  0  0  0  0
 24 41  1  0  0  0  0
 24 42  1  0  0  0  0
 24 43  1  0  0  0  0
M  END
> <Name>
15

> <IC50[uM]>
2.5

$$$$
15
  -OEChem-05192314333D
 Structure written by MMmdl.
 43 45  0     0  0  0  0  0  0999 V2000
   -6.3730   12.3647  -12.0124 C   0  0  0  0  0  0  0  0  0  0  0  0
   -6.5249   11.8167  -10.7375 C   0  0  0  0  0  0  0  0  0  0  0  0
   -7.7225   10.5819  -13.0270 C   0  0  0  0  0  0  0  0  0  0  0  0
   -6.9871   11.7813  -13.1320 C   0  0  0  0  0  0  0  0  0  0  0  0
   -7.8205   10.0150  -11.7538 C   0  0  0  0  0  0  0  0  0  0  0  0
   -7.2514   10.6217  -10.6093 C   0  0  0  0  0  0  0  0  0  0  0  0
   -7.6113    9.7463   -9.5119 C   0  0  0  0  0  0  0  0  0  0  0  0
   -8.2838    8.7282   -9.9768 N   0  0  0  0  0  0  0  0  0  0  0  0
   -8.4166    8.8609  -11.2984 N   0  0  0  0  0  0  0  0  0  0  0  0
   -7.3282    9.8959   -8.0269 C   0  0  0  0  0  0  0  0  0  0  0  0
   -4.4004   13.6489  -11.4541 N   0  0  0  0  0  0  0  0  0  0  0  0
   -3.4592   14.7715  -11.4916 C   0  0  0  0  0  0  0  0  0  0  0  0
   -5.5363   13.6231  -12.1917 C   0  0  0  0  0  0  0  0  0  0  0  0
   -5.8861   14.5056  -12.9557 O   0  0  0  0  0  0  0  0  0  0  0  0
   -5.9554   10.4909   -7.7390 C   0  0  0  0  0  0  0  0  0  0  0  0
   -5.8447   11.7612   -7.1661 C   0  0  0  0  0  0  0  0  0  0  0  0
   -4.5697   12.3054   -6.9214 C   0  0  0  0  0  0  0  0  0  0  0  0
   -3.4308   11.5801   -7.2259 C   0  0  0  0  0  0  0  0  0  0  0  0
   -3.5429   10.3015   -7.8076 C   0  0  0  0  0  0  0  0  0  0  0  0
   -4.8018    9.7661   -8.0596 C   0  0  0  0  0  0  0  0  0  0  0  0
   -4.4352   13.5609   -6.3638 O   0  0  0  0  0  0  0  0  0  0  0  0
   -3.6839   14.5445   -7.0766 C   0  0  0  0  0  0  0  0  0  0  0  0
   -2.1928   12.1397   -6.9410 O   0  0  0  0  0  0  0  0  0  0  0  0
   -1.0568   11.8071   -7.7386 C   0  0  0  0  0  0  0  0  0  0  0  0
   -6.0949   12.2992   -9.8722 H   0  0  0  0  0  0  0  0  0  0  0  0
   -8.1868   10.1246  -13.8882 H   0  0  0  0  0  0  0  0  0  0  0  0
   -6.8945   12.2613  -14.0950 H   0  0  0  0  0  0  0  0  0  0  0  0
   -8.0938   10.5530   -7.5887 H   0  0  0  0  0  0  0  0  0  0  0  0
   -7.3851    8.9027   -7.5575 H   0  0  0  0  0  0  0  0  0  0  0  0
   -3.8775   12.8398  -11.7222 H   0  0  0  0  0  0  0  0  0  0  0  0
   -2.6173   14.5676  -10.8136 H   0  0  0  0  0  0  0  0  0  0  0  0
   -3.0815   14.8991  -12.5168 H   0  0  0  0  0  0  0  0  0  0  0  0
   -3.9723   15.6908  -11.1728 H   0  0  0  0  0  0  0  0  0  0  0  0
   -5.2484   15.2095  -12.9404 H   0  0  0  0  0  0  0  0  0  0  0  0
   -6.7323   12.3219   -6.9127 H   0  0  0  0  0  0  0  0  0  0  0  0
   -2.6549    9.7395   -8.0568 H   0  0  0  0  0  0  0  0  0  0  0  0
   -4.8895    8.7861   -8.5049 H   0  0  0  0  0  0  0  0  0  0  0  0
   -3.6711   15.4833   -6.5034 H   0  0  0  0  0  0  0  0  0  0  0  0
   -2.6532   14.1872   -7.2178 H   0  0  0  0  0  0  0  0  0  0  0  0
   -4.1486   14.7205   -8.0580 H   0  0  0  0  0  0  0  0  0  0  0  0
   -0.1739   12.3445   -7.3623 H   0  0  0  0  0  0  0  0  0  0  0  0
   -0.8764   10.7233   -7.6856 H   0  0  0  0  0  0  0  0  0  0  0  0
   -1.2447   12.0969   -8.7830 H   0  0  0  0  0  0  0  0  0  0  0  0
  1  2  1  0  0  0  0
  1  4  1  0  0  0  0
  1 13  2  3  0  0  0
  2  6  2  0  0  0  0
  3  4  2  0  0  0  0
  3  5  1  0  0  0  0
  5  6  1  0  0  0  0
  5  9  2  0  0  0  0
  6  7  1  0  0  0  0
  7  8  2  0  0  0  0
  7 10  1  0  0  0  0
  8  9  1  0  0  0  0
 10 15  1  0  0  0  0
 11 12  1  0  0  0  0
 11 13  1  0  0  0  0
 13 14  1  0  0  0  0
 15 16  2  0  0  0  0
 15 20  1  0  0  0  0
 16 17  1  0  0  0  0
 17 18  2  0  0  0  0
 17 21  1  0  0  0  0
 18 19  1  0  0  0  0
 18 23  1  0  0  0  0
 19 20  2  0  0  0  0
 21 22  1  0  0  0  0
 23 24  1  0  0  0  0
  2 25  1  0  0  0  0
  3 26  1  0  0  0  0
  4 27  1  0  0  0  0
 10 28  1  0  0  0  0
 10 29  1  0  0  0  0
 11 30  1  0  0  0  0
 12 31  1  0  0  0  0
 12 32  1  0  0  0  0
 12 33  1  0  0  0  0
 14 34  1  0  0  0  0
 16 35  1  0  0  0  0
 19 36  1  0  0  0  0
 20 37  1  0  0  0  0
 22 38  1  0  0  0  0
 22 39  1  0  0  0  0
 22 40  1  0  0  0  0
 24 41  1  0  0  0  0
 24 42  1  0  0  0  0
 24 43  1  0  0  0  0
M  END
> <Name>
15

> <IC50[uM]>
2.5

$$$$
15
  -OEChem-05192314333D
 Structure written by MMmdl.
 43 45  0     1  0  0  0  0  0999 V2000
   -6.3730   12.3647  -12.0124 C   0  0  0  0  0  0  0  0  0  0  0  0
   -6.5249   11.8167  -10.7375 C   0  0  0  0  0  0  0  0  0  0  0  0
   -7.7225   10.5819  -13.0270 C   0  0  0  0  0  0  0  0  0  0  0  0
   -6.9871   11.7813  -13.1320 C   0  0  0  0  0  0  0  0  0  0  0  0
   -7.8205   10.0150  -11.7538 C   0  0  3  0  0  0  0  0  0  0  0  0
   -7.2514   10.6217  -10.6093 C   0  0  0  0  0  0  0  0  0  0  0  0
   -7.6113    9.7463   -9.5119 C   0  0  0  0  0  0  0  0  0  0  0  0
   -8.2838    8.7282   -9.9768 N   0  0  0  0  0  0  0  0  0  0  0  0
   -8.4166    8.8609  -11.2984 N   0  0  0  0  0  0  0  0  0  0  0  0
   -7.3282    9.8959   -8.0269 C   0  0  0  0  0  0  0  0  0  0  0  0
   -4.4004   13.6489  -11.4541 N   0  0  0  0  0  0  0  0  0  0  0  0
   -3.4592   14.7715  -11.4916 C   0  0  0  0  0  0  0  0  0  0  0  0
   -5.5363   13.6231  -12.1917 C   0  0  0  0  0  0  0  0  0  0  0  0
   -5.8861   14.5056  -12.9557 O   0  0  0  0  0  0  0  0  0  0  0  0
   -5.9554   10.4909   -7.7390 C   0  0  0  0  0  0  0  0  0  0  0  0
   -5.8447   11.7612   -7.1661 C   0  0  0  0  0  0  0  0  0  0  0  0
   -4.5697   12.3054   -6.9214 C   0  0  0  0  0  0  0  0  0  0  0  0
   -3.4308   11.5801   -7.2259 C   0  0  0  0  0  0  0  0  0  0  0  0
   -3.5429   10.3015   -7.8076 C   0  0  0  0  0  0  0  0  0  0  0  0
   -4.8018    9.7661   -8.0596 C   0  0  0  0  0  0  0  0  0  0  0  0
   -4.4352   13.5609   -6.3638 O   0  0  0  0  0  0  0  0  0  0  0  0
   -3.6839   14.5445   -7.0766 C   0  0  0  0  0  0  0  0  0  0  0  0
   -2.1928   12.1397   -6.9410 O   0  0  0  0  0  0  0  0  0  0  0  0
   -1.0568   11.8071   -7.7386 C   0  0  0  0  0  0  0  0  0  0  0  0
   -6.0949   12.2992   -9.8722 H   0  0  0  0  0  0  0  0  0  0  0  0
   -8.1868   10.1246  -13.8882 H   0  0  0  0  0  0  0  0  0  0  0  0
   -6.8945   12.2613  -14.0950 H   0  0  0  0  0  0  0  0  0  0  0  0
   -6.8846    9.4635  -11.9271 H   0  0  0  0  0  0  0  0  0  0  0  0
   -8.0276    9.6101   -7.2552 H   0  0  0  0  0  0  0  0  0  0  0  0
   -3.8775   12.8398  -11.7222 H   0  0  0  0  0  0  0  0  0  0  0  0
   -2.6173   14.5676  -10.8136 H   0  0  0  0  0  0  0  0  0  0  0  0
   -3.0815   14.8991  -12.5168 H   0  0  0  0  0  0  0  0  0  0  0  0
   -3.9723   15.6908  -11.1728 H   0  0  0  0  0  0  0  0  0  0  0  0
   -5.2484   15.2095  -12.9404 H   0  0  0  0  0  0  0  0  0  0  0  0
   -6.7323   12.3219   -6.9127 H   0  0  0  0  0  0  0  0  0  0  0  0
   -2.6549    9.7395   -8.0568 H   0  0  0  0  0  0  0  0  0  0  0  0
   -4.8895    8.7861   -8.5049 H   0  0  0  0  0  0  0  0  0  0  0  0
   -3.6711   15.4833   -6.5034 H   0  0  0  0  0  0  0  0  0  0  0  0
   -2.6532   14.1872   -7.2178 H   0  0  0  0  0  0  0  0  0  0  0  0
   -4.1486   14.7205   -8.0580 H   0  0  0  0  0  0  0  0  0  0  0  0
   -0.1739   12.3445   -7.3623 H   0  0  0  0  0  0  0  0  0  0  0  0
   -0.8764   10.7233   -7.6856 H   0  0  0  0  0  0  0  0  0  0  0  0
   -1.2447   12.0969   -8.7830 H   0  0  0  0  0  0  0  0  0  0  0  0
  1  2  1  0  0  0  0
  1  4  1  0  0  0  0
  1 13  2  3  0  0  0
  2  6  2  0  0  0  0
  3  4  2  0  0  0  0
  3  5  1  0  0  0  0
  5  6  1  0  0  0  0
  5  9  1  0  0  0  0
  6  7  1  0  0  0  0
  7  8  1  0  0  0  0
  7 10  2  3  0  0  0
  8  9  2  0  0  0  0
 10 15  1  0  0  0  0
 11 12  1  0  0  0  0
 11 13  1  0  0  0  0
 13 14  1  0  0  0  0
 15 16  2  0  0  0  0
 15 20  1  0  0  0  0
 16 17  1  0  0  0  0
 17 18  2  0  0  0  0
 17 21  1  0  0  0  0
 18 19  1  0  0  0  0
 18 23  1  0  0  0  0
 19 20  2  0  0  0  0
 21 22  1  0  0  0  0
 23 24  1  0  0  0  0
  2 25  1  0  0  0  0
  3 26  1  0  0  0  0
  4 27  1  0  0  0  0
  5 28  1  0  0  0  0
 10 29  1  0  0  0  0
 11 30  1  0  0  0  0
 12 31  1  0  0  0  0
 12 32  1  0  0  0  0
 12 33  1  0  0  0  0
 14 34  1  0  0  0  0
 16 35  1  0  0  0  0
 19 36  1  0  0  0  0
 20 37  1  0  0  0  0
 22 38  1  0  0  0  0
 22 39  1  0  0  0  0
 22 40  1  0  0  0  0
 24 41  1  0  0  0  0
 24 42  1  0  0  0  0
 24 43  1  0  0  0  0
M  END
> <Name>
15

> <IC50[uM]>
2.5

$$$$
15
  -OEChem-05192314333D
 Structure written by MMmdl.
 43 45  0     0  0  0  0  0  0999 V2000
   -6.3730   12.3647  -12.0124 C   0  0  0  0  0  0  0  0  0  0  0  0
   -6.5249   11.8167  -10.7375 C   0  0  0  0  0  0  0  0  0  0  0  0
   -7.7225   10.5819  -13.0270 C   0  0  0  0  0  0  0  0  0  0  0  0
   -6.9871   11.7813  -13.1320 C   0  0  0  0  0  0  0  0  0  0  0  0
   -7.8205   10.0150  -11.7538 C   0  0  0  0  0  0  0  0  0  0  0  0
   -7.2514   10.6217  -10.6093 C   0  0  0  0  0  0  0  0  0  0  0  0
   -7.6113    9.7463   -9.5119 C   0  0  0  0  0  0  0  0  0  0  0  0
   -8.2838    8.7282   -9.9768 N   0  0  0  0  0  0  0  0  0  0  0  0
   -8.4166    8.8609  -11.2984 N   0  0  0  0  0  0  0  0  0  0  0  0
   -7.3282    9.8959   -8.0269 C   0  0  0  0  0  0  0  0  0  0  0  0
   -4.4004   13.6489  -11.4541 N   0  0  0  0  0  0  0  0  0  0  0  0
   -3.4592   14.7715  -11.4916 C   0  0  0  0  0  0  0  0  0  0  0  0
   -5.5363   13.6231  -12.1917 C   0  0  0  0  0  0  0  0  0  0  0  0
   -5.8861   14.5056  -12.9557 O   0  0  0  0  0  0  0  0  0  0  0  0
   -5.9554   10.4909   -7.7390 C   0  0  0  0  0  0  0  0  0  0  0  0
   -5.8447   11.7612   -7.1661 C   0  0  0  0  0  0  0  0  0  0  0  0
   -4.5697   12.3054   -6.9214 C   0  0  0  0  0  0  0  0  0  0  0  0
   -3.4308   11.5801   -7.2259 C   0  0  0  0  0  0  0  0  0  0  0  0
   -3.5429   10.3015   -7.8076 C   0  0  0  0  0  0  0  0  0  0  0  0
   -4.8018    9.7661   -8.0596 C   0  0  0  0  0  0  0  0  0  0  0  0
   -4.4352   13.5609   -6.3638 O   0  0  0  0  0  0  0  0  0  0  0  0
   -3.6839   14.5445   -7.0766 C   0  0  0  0  0  0  0  0  0  0  0  0
   -2.1928   12.1397   -6.9410 O   0  0  0  0  0  0  0  0  0  0  0  0
   -1.0568   11.8071   -7.7386 C   0  0  0  0  0  0  0  0  0  0  0  0
   -6.0949   12.2992   -9.8722 H   0  0  0  0  0  0  0  0  0  0  0  0
   -8.1868   10.1246  -13.8882 H   0  0  0  0  0  0  0  0  0  0  0  0
   -7.6791   12.5355  -13.5348 H   0  0  0  0  0  0  0  0  0  0  0  0
   -6.1862   11.5916  -13.8618 H   0  0  0  0  0  0  0  0  0  0  0  0
   -8.0276    9.6101   -7.2552 H   0  0  0  0  0  0  0  0  0  0  0  0
   -3.8775   12.8398  -11.7222 H   0  0  0  0  0  0  0  0  0  0  0  0
   -2.6173   14.5676  -10.8136 H   0  0  0  0  0  0  0  0  0  0  0  0
   -3.0815   14.8991  -12.5168 H   0  0  0  0  0  0  0  0  0  0  0  0
   -3.9723   15.6908  -11.1728 H   0  0  0  0  0  0  0  0  0  0  0  0
   -5.2484   15.2095  -12.9404 H   0  0  0  0  0  0  0  0  0  0  0  0
   -6.7323   12.3219   -6.9127 H   0  0  0  0  0  0  0  0  0  0  0  0
   -2.6549    9.7395   -8.0568 H   0  0  0  0  0  0  0  0  0  0  0  0
   -4.8895    8.7861   -8.5049 H   0  0  0  0  0  0  0  0  0  0  0  0
   -3.6711   15.4833   -6.5034 H   0  0  0  0  0  0  0  0  0  0  0  0
   -2.6532   14.1872   -7.2178 H   0  0  0  0  0  0  0  0  0  0  0  0
   -4.1486   14.7205   -8.0580 H   0  0  0  0  0  0  0  0  0  0  0  0
   -0.1739   12.3445   -7.3623 H   0  0  0  0  0  0  0  0  0  0  0  0
   -0.8764   10.7233   -7.6856 H   0  0  0  0  0  0  0  0  0  0  0  0
   -1.2447   12.0969   -8.7830 H   0  0  0  0  0  0  0  0  0  0  0  0
  1  2  1  0  0  0  0
  1  4  1  0  0  0  0
  1 13  2  3  0  0  0
  2  6  2  0  0  0  0
  3  4  1  0  0  0  0
  3  5  2  0  0  0  0
  5  6  1  0  0  0  0
  5  9  1  0  0  0  0
  6  7  1  0  0  0  0
  7  8  1  0  0  0  0
  7 10  2  3  0  0  0
  8  9  2  0  0  0  0
 10 15  1  0  0  0  0
 11 12  1  0  0  0  0
 11 13  1  0  0  0  0
 13 14  1  0  0  0  0
 15 16  2  0  0  0  0
 15 20  1  0  0  0  0
 16 17  1  0  0  0  0
 17 18  2  0  0  0  0
 17 21  1  0  0  0  0
 18 19  1  0  0  0  0
 18 23  1  0  0  0  0
 19 20  2  0  0  0  0
 21 22  1  0  0  0  0
 23 24  1  0  0  0  0
  2 25  1  0  0  0  0
  3 26  1  0  0  0  0
  4 27  1  0  0  0  0
  4 28  1  0  0  0  0
 10 29  1  0  0  0  0
 11 30  1  0  0  0  0
 12 31  1  0  0  0  0
 12 32  1  0  0  0  0
 12 33  1  0  0  0  0
 14 34  1  0  0  0  0
 16 35  1  0  0  0  0
 19 36  1  0  0  0  0
 20 37  1  0  0  0  0
 22 38  1  0  0  0  0
 22 39  1  0  0  0  0
 22 40  1  0  0  0  0
 24 41  1  0  0  0  0
 24 42  1  0  0  0  0
 24 43  1  0  0  0  0
M  END
> <Name>
15

> <IC50[uM]>
2.5

$$$$
15
  -OEChem-05192314333D
 Structure written by MMmdl.
 43 45  0     0  0  0  0  0  0999 V2000
   -6.3730   12.3647  -12.0124 C   0  0  0  0  0  0  0  0  0  0  0  0
   -6.5249   11.8167  -10.7375 C   0  0  0  0  0  0  0  0  0  0  0  0
   -7.7225   10.5819  -13.0270 C   0  0  0  0  0  0  0  0  0  0  0  0
   -6.9871   11.7813  -13.1320 C   0  0  0  0  0  0  0  0  0  0  0  0
   -7.8205   10.0150  -11.7538 C   0  0  0  0  0  0  0  0  0  0  0  0
   -7.2514   10.6217  -10.6093 C   0  0  0  0  0  0  0  0  0  0  0  0
   -7.6113    9.7463   -9.5119 C   0  0  0  0  0  0  0  0  0  0  0  0
   -8.2838    8.7282   -9.9768 N   0  0  0  0  0  0  0  0  0  0  0  0
   -8.4166    8.8609  -11.2984 N   0  0  0  0  0  0  0  0  0  0  0  0
   -7.3282    9.8959   -8.0269 C   0  0  0  0  0  0  0  0  0  0  0  0
   -4.4004   13.6489  -11.4541 N   0  0  0  0  0  0  0  0  0  0  0  0
   -3.4592   14.7715  -11.4916 C   0  0  0  0  0  0  0  0  0  0  0  0
   -5.5363   13.6231  -12.1917 C   0  0  0  0  0  0  0  0  0  0  0  0
   -5.8861   14.5056  -12.9557 O   0  0  0  0  0  0  0  0  0  0  0  0
   -5.9554   10.4909   -7.7390 C   0  0  0  0  0  0  0  0  0  0  0  0
   -5.8447   11.7612   -7.1661 C   0  0  0  0  0  0  0  0  0  0  0  0
   -4.5697   12.3054   -6.9214 C   0  0  0  0  0  0  0  0  0  0  0  0
   -3.4308   11.5801   -7.2259 C   0  0  0  0  0  0  0  0  0  0  0  0
   -3.5429   10.3015   -7.8076 C   0  0  0  0  0  0  0  0  0  0  0  0
   -4.8018    9.7661   -8.0596 C   0  0  0  0  0  0  0  0  0  0  0  0
   -4.4352   13.5609   -6.3638 O   0  0  0  0  0  0  0  0  0  0  0  0
   -3.6839   14.5445   -7.0766 C   0  0  0  0  0  0  0  0  0  0  0  0
   -2.1928   12.1397   -6.9410 O   0  0  0  0  0  0  0  0  0  0  0  0
   -1.0568   11.8071   -7.7386 C   0  0  0  0  0  0  0  0  0  0  0  0
   -5.5161   11.6287  -10.3414 H   0  0  0  0  0  0  0  0  0  0  0  0
   -7.0280   12.5721  -10.1160 H   0  0  0  0  0  0  0  0  0  0  0  0
   -8.1868   10.1246  -13.8882 H   0  0  0  0  0  0  0  0  0  0  0  0
   -6.8945   12.2613  -14.0950 H   0  0  0  0  0  0  0  0  0  0  0  0
   -8.0276    9.6101   -7.2552 H   0  0  0  0  0  0  0  0  0  0  0  0
   -3.8775   12.8398  -11.7222 H   0  0  0  0  0  0  0  0  0  0  0  0
   -2.6173   14.5676  -10.8136 H   0  0  0  0  0  0  0  0  0  0  0  0
   -3.0815   14.8991  -12.5168 H   0  0  0  0  0  0  0  0  0  0  0  0
   -3.9723   15.6908  -11.1728 H   0  0  0  0  0  0  0  0  0  0  0  0
   -5.2484   15.2095  -12.9404 H   0  0  0  0  0  0  0  0  0  0  0  0
   -6.7323   12.3219   -6.9127 H   0  0  0  0  0  0  0  0  0  0  0  0
   -2.6549    9.7395   -8.0568 H   0  0  0  0  0  0  0  0  0  0  0  0
   -4.8895    8.7861   -8.5049 H   0  0  0  0  0  0  0  0  0  0  0  0
   -3.6711   15.4833   -6.5034 H   0  0  0  0  0  0  0  0  0  0  0  0
   -2.6532   14.1872   -7.2178 H   0  0  0  0  0  0  0  0  0  0  0  0
   -4.1486   14.7205   -8.0580 H   0  0  0  0  0  0  0  0  0  0  0  0
   -0.1739   12.3445   -7.3623 H   0  0  0  0  0  0  0  0  0  0  0  0
   -0.8764   10.7233   -7.6856 H   0  0  0  0  0  0  0  0  0  0  0  0
   -1.2447   12.0969   -8.7830 H   0  0  0  0  0  0  0  0  0  0  0  0
  1  2  1  0  0  0  0
  1  4  1  0  0  0  0
  1 13  2  3  0  0  0
  2  6  1  0  0  0  0
  3  4  2  0  0  0  0
  3  5  1  0  0  0  0
  5  6  2  0  0  0  0
  5  9  1  0  0  0  0
  6  7  1  0  0  0  0
  7  8  1  0  0  0  0
  7 10  2  3  0  0  0
  8  9  2  0  0  0  0
 10 15  1  0  0  0  0
 11 12  1  0  0  0  0
 11 13  1  0  0  0  0
 13 14  1  0  0  0  0
 15 16  2  0  0  0  0
 15 20  1  0  0  0  0
 16 17  1  0  0  0  0
 17 18  2  0  0  0  0
 17 21  1  0  0  0  0
 18 19  1  0  0  0  0
 18 23  1  0  0  0  0
 19 20  2  0  0  0  0
 21 22  1  0  0  0  0
 23 24  1  0  0  0  0
  2 25  1  0  0  0  0
  2 26  1  0  0  0  0
  3 27  1  0  0  0  0
  4 28  1  0  0  0  0
 10 29  1  0  0  0  0
 11 30  1  0  0  0  0
 12 31  1  0  0  0  0
 12 32  1  0  0  0  0
 12 33  1  0  0  0  0
 14 34  1  0  0  0  0
 16 35  1  0  0  0  0
 19 36  1  0  0  0  0
 20 37  1  0  0  0  0
 22 38  1  0  0  0  0
 22 39  1  0  0  0  0
 22 40  1  0  0  0  0
 24 41  1  0  0  0  0
 24 42  1  0  0  0  0
 24 43  1  0  0  0  0
M  END
> <Name>
15

> <IC50[uM]>
2.5

$$$$
15
  -OEChem-05192314333D
 Structure written by MMmdl.
 43 45  0     1  0  0  0  0  0999 V2000
   -6.3730   12.3647  -12.0124 C   0  0  0  0  0  0  0  0  0  0  0  0
   -6.5249   11.8167  -10.7375 C   0  0  0  0  0  0  0  0  0  0  0  0
   -7.7225   10.5819  -13.0270 C   0  0  0  0  0  0  0  0  0  0  0  0
   -6.9871   11.7813  -13.1320 C   0  0  0  0  0  0  0  0  0  0  0  0
   -7.8205   10.0150  -11.7538 C   0  0  0  0  0  0  0  0  0  0  0  0
   -7.2514   10.6217  -10.6093 C   0  0  0  0  0  0  0  0  0  0  0  0
   -7.6113    9.7463   -9.5119 C   0  0  0  0  0  0  0  0  0  0  0  0
   -8.2838    8.7282   -9.9768 N   0  0  0  0  0  0  0  0  0  0  0  0
   -8.4166    8.8609  -11.2984 N   0  0  0  0  0  0  0  0  0  0  0  0
   -7.3282    9.8959   -8.0269 C   0  0  0  0  0  0  0  0  0  0  0  0
   -4.4004   13.6489  -11.4541 N   0  0  0  0  0  0  0  0  0  0  0  0
   -3.4592   14.7715  -11.4916 C   0  0  0  0  0  0  0  0  0  0  0  0
   -5.5363   13.6231  -12.1917 C   0  0  0  0  0  0  0  0  0  0  0  0
   -5.8861   14.5056  -12.9557 O   0  0  0  0  0  0  0  0  0  0  0  0
   -5.9554   10.4909   -7.7390 C   0  0  0  0  0  0  0  0  0  0  0  0
   -5.8447   11.7612   -7.1661 C   0  0  0  0  0  0  0  0  0  0  0  0
   -4.5697   12.3054   -6.9214 C   0  0  0  0  0  0  0  0  0  0  0  0
   -3.4308   11.5801   -7.2259 C   0  0  3  0  0  0  0  0  0  0  0  0
   -3.5429   10.3015   -7.8076 C   0  0  0  0  0  0  0  0  0  0  0  0
   -4.8018    9.7661   -8.0596 C   0  0  0  0  0  0  0  0  0  0  0  0
   -4.4352   13.5609   -6.3638 O   0  0  0  0  0  0  0  0  0  0  0  0
   -3.6839   14.5445   -7.0766 C   0  0  0  0  0  0  0  0  0  0  0  0
   -2.1928   12.1397   -6.9410 O   0  0  0  0  0  0  0  0  0  0  0  0
   -1.0568   11.8071   -7.7386 C   0  0  0  0  0  0  0  0  0  0  0  0
   -6.0949   12.2992   -9.8722 H   0  0  0  0  0  0  0  0  0  0  0  0
   -8.1868   10.1246  -13.8882 H   0  0  0  0  0  0  0  0  0  0  0  0
   -6.8945   12.2613  -14.0950 H   0  0  0  0  0  0  0  0  0  0  0  0
   -8.0276    9.6101   -7.2552 H   0  0  0  0  0  0  0  0  0  0  0  0
   -3.8775   12.8398  -11.7222 H   0  0  0  0  0  0  0  0  0  0  0  0
   -2.6173   14.5676  -10.8136 H   0  0  0  0  0  0  0  0  0  0  0  0
   -3.0815   14.8991  -12.5168 H   0  0  0  0  0  0  0  0  0  0  0  0
   -3.9723   15.6908  -11.1728 H   0  0  0  0  0  0  0  0  0  0  0  0
   -5.2484   15.2095  -12.9404 H   0  0  0  0  0  0  0  0  0  0  0  0
   -6.7323   12.3219   -6.9127 H   0  0  0  0  0  0  0  0  0  0  0  0
   -3.4073   12.0349   -8.2272 H   0  0  0  0  0  0  0  0  0  0  0  0
   -2.6549    9.7395   -8.0568 H   0  0  0  0  0  0  0  0  0  0  0  0
   -4.8895    8.7861   -8.5049 H   0  0  0  0  0  0  0  0  0  0  0  0
   -3.6711   15.4833   -6.5034 H   0  0  0  0  0  0  0  0  0  0  0  0
   -2.6532   14.1872   -7.2178 H   0  0  0  0  0  0  0  0  0  0  0  0
   -4.1486   14.7205   -8.0580 H   0  0  0  0  0  0  0  0  0  0  0  0
   -0.1739   12.3445   -7.3623 H   0  0  0  0  0  0  0  0  0  0  0  0
   -0.8764   10.7233   -7.6856 H   0  0  0  0  0  0  0  0  0  0  0  0
   -1.2447   12.0969   -8.7830 H   0  0  0  0  0  0  0  0  0  0  0  0
  1  2  1  0  0  0  0
  1  4  1  0  0  0  0
  1 13  2  3  0  0  0
  2  6  2  0  0  0  0
  3  4  2  0  0  0  0
  3  5  1  0  0  0  0
  5  6  1  0  0  0  0
  5  9  2  0  0  0  0
  6  7  1  0  0  0  0
  7  8  2  0  0  0  0
  7 10  1  0  0  0  0
  8  9  1  0  0  0  0
 10 15  2  3  0  0  0
 11 12  1  0  0  0  0
 11 13  1  0  0  0  0
 13 14  1  0  0  0  0
 15 16  1  0  0  0  0
 15 20  1  0  0  0  0
 16 17  2  0  0  0  0
 17 18  1  0  0  0  0
 17 21  1  0  0  0  0
 18 19  1  0  0  0  0
 18 23  1  0  0  0  0
 19 20  2  0  0  0  0
 21 22  1  0  0  0  0
 23 24  1  0  0  0  0
  2 25  1  0  0  0  0
  3 26  1  0  0  0  0
  4 27  1  0  0  0  0
 10 28  1  0  0  0  0
 11 29  1  0  0  0  0
 12 30  1  0  0  0  0
 12 31  1  0  0  0  0
 12 32  1  0  0  0  0
 14 33  1  0  0  0  0
 16 34  1  0  0  0  0
 18 35  1  0  0  0  0
 19 36  1  0  0  0  0
 20 37  1  0  0  0  0
 22 38  1  0  0  0  0
 22 39  1  0  0  0  0
 22 40  1  0  0  0  0
 24 41  1  0  0  0  0
 24 42  1  0  0  0  0
 24 43  1  0  0  0  0
M  END
> <Name>
15

> <IC50[uM]>
2.5

$$$$
15
  -OEChem-05192314333D
 Structure written by MMmdl.
 43 45  0     0  0  0  0  0  0999 V2000
   -6.3730   12.3647  -12.0124 C   0  0  0  0  0  0  0  0  0  0  0  0
   -6.5249   11.8167  -10.7375 C   0  0  0  0  0  0  0  0  0  0  0  0
   -7.7225   10.5819  -13.0270 C   0  0  0  0  0  0  0  0  0  0  0  0
   -6.9871   11.7813  -13.1320 C   0  0  0  0  0  0  0  0  0  0  0  0
   -7.8205   10.0150  -11.7538 C   0  0  0  0  0  0  0  0  0  0  0  0
   -7.2514   10.6217  -10.6093 C   0  0  0  0  0  0  0  0  0  0  0  0
   -7.6113    9.7463   -9.5119 C   0  0  0  0  0  0  0  0  0  0  0  0
   -8.2838    8.7282   -9.9768 N   0  0  0  0  0  0  0  0  0  0  0  0
   -8.4166    8.8609  -11.2984 N   0  0  0  0  0  0  0  0  0  0  0  0
   -7.3282    9.8959   -8.0269 C   0  0  0  0  0  0  0  0  0  0  0  0
   -4.4004   13.6489  -11.4541 N   0  0  0  0  0  0  0  0  0  0  0  0
   -3.4592   14.7715  -11.4916 C   0  0  0  0  0  0  0  0  0  0  0  0
   -5.5363   13.6231  -12.1917 C   0  0  0  0  0  0  0  0  0  0  0  0
   -5.8861   14.5056  -12.9557 O   0  0  0  0  0  0  0  0  0  0  0  0
   -5.9554   10.4909   -7.7390 C   0  0  0  0  0  0  0  0  0  0  0  0
   -5.8447   11.7612   -7.1661 C   0  0  0  0  0  0  0  0  0  0  0  0
   -4.5697   12.3054   -6.9214 C   0  0  0  0  0  0  0  0  0  0  0  0
   -3.4308   11.5801   -7.2259 C   0  0  0  0  0  0  0  0  0  0  0  0
   -3.5429   10.3015   -7.8076 C   0  0  0  0  0  0  0  0  0  0  0  0
   -4.8018    9.7661   -8.0596 C   0  0  0  0  0  0  0  0  0  0  0  0
   -4.4352   13.5609   -6.3638 O   0  0  0  0  0  0  0  0  0  0  0  0
   -3.6839   14.5445   -7.0766 C   0  0  0  0  0  0  0  0  0  0  0  0
   -2.1928   12.1397   -6.9410 O   0  0  0  0  0  0  0  0  0  0  0  0
   -1.0568   11.8071   -7.7386 C   0  0  0  0  0  0  0  0  0  0  0  0
   -6.0949   12.2992   -9.8722 H   0  0  0  0  0  0  0  0  0  0  0  0
   -8.1868   10.1246  -13.8882 H   0  0  0  0  0  0  0  0  0  0  0  0
   -6.8945   12.2613  -14.0950 H   0  0  0  0  0  0  0  0  0  0  0  0
   -8.0276    9.6101   -7.2552 H   0  0  0  0  0  0  0  0  0  0  0  0
   -3.8775   12.8398  -11.7222 H   0  0  0  0  0  0  0  0  0  0  0  0
   -2.6173   14.5676  -10.8136 H   0  0  0  0  0  0  0  0  0  0  0  0
   -3.0815   14.8991  -12.5168 H   0  0  0  0  0  0  0  0  0  0  0  0
   -3.9723   15.6908  -11.1728 H   0  0  0  0  0  0  0  0  0  0  0  0
   -5.2484   15.2095  -12.9404 H   0  0  0  0  0  0  0  0  0  0  0  0
   -6.7323   12.3219   -6.9127 H   0  0  0  0  0  0  0  0  0  0  0  0
   -2.6549    9.7395   -8.0568 H   0  0  0  0  0  0  0  0  0  0  0  0
   -4.8592    8.8187   -7.5036 H   0  0  0  0  0  0  0  0  0  0  0  0
   -4.8475    9.5609   -9.1393 H   0  0  0  0  0  0  0  0  0  0  0  0
   -3.6711   15.4833   -6.5034 H   0  0  0  0  0  0  0  0  0  0  0  0
   -2.6532   14.1872   -7.2178 H   0  0  0  0  0  0  0  0  0  0  0  0
   -4.1486   14.7205   -8.0580 H   0  0  0  0  0  0  0  0  0  0  0  0
   -0.1739   12.3445   -7.3623 H   0  0  0  0  0  0  0  0  0  0  0  0
   -0.8764   10.7233   -7.6856 H   0  0  0  0  0  0  0  0  0  0  0  0
   -1.2447   12.0969   -8.7830 H   0  0  0  0  0  0  0  0  0  0  0  0
  1  2  1  0  0  0  0
  1  4  1  0  0  0  0
  1 13  2  3  0  0  0
  2  6  2  0  0  0  0
  3  4  2  0  0  0  0
  3  5  1  0  0  0  0
  5  6  1  0  0  0  0
  5  9  2  0  0  0  0
  6  7  1  0  0  0  0
  7  8  2  0  0  0  0
  7 10  1  0  0  0  0
  8  9  1  0  0  0  0
 10 15  2  3  0  0  0
 11 12  1  0  0  0  0
 11 13  1  0  0  0  0
 13 14  1  0  0  0  0
 15 16  1  0  0  0  0
 15 20  1  0  0  0  0
 16 17  2  0  0  0  0
 17 18  1  0  0  0  0
 17 21  1  0  0  0  0
 18 19  2  0  0  0  0
 18 23  1  0  0  0  0
 19 20  1  0  0  0  0
 21 22  1  0  0  0  0
 23 24  1  0  0  0  0
  2 25  1  0  0  0  0
  3 26  1  0  0  0  0
  4 27  1  0  0  0  0
 10 28  1  0  0  0  0
 11 29  1  0  0  0  0
 12 30  1  0  0  0  0
 12 31  1  0  0  0  0
 12 32  1  0  0  0  0
 14 33  1  0  0  0  0
 16 34  1  0  0  0  0
 19 35  1  0  0  0  0
 20 36  1  0  0  0  0
 20 37  1  0  0  0  0
 22 38  1  0  0  0  0
 22 39  1  0  0  0  0
 22 40  1  0  0  0  0
 24 41  1  0  0  0  0
 24 42  1  0  0  0  0
 24 43  1  0  0  0  0
M  END
> <Name>
15

> <IC50[uM]>
2.5

$$$$
15
  -OEChem-05192314333D
 Structure written by MMmdl.
 43 45  0     0  0  0  0  0  0999 V2000
   -6.3730   12.3647  -12.0124 C   0  0  0  0  0  0  0  0  0  0  0  0
   -6.5249   11.8167  -10.7375 C   0  0  0  0  0  0  0  0  0  0  0  0
   -7.7225   10.5819  -13.0270 C   0  0  0  0  0  0  0  0  0  0  0  0
   -6.9871   11.7813  -13.1320 C   0  0  0  0  0  0  0  0  0  0  0  0
   -7.8205   10.0150  -11.7538 C   0  0  0  0  0  0  0  0  0  0  0  0
   -7.2514   10.6217  -10.6093 C   0  0  0  0  0  0  0  0  0  0  0  0
   -7.6113    9.7463   -9.5119 C   0  0  0  0  0  0  0  0  0  0  0  0
   -8.2838    8.7282   -9.9768 N   0  0  0  0  0  0  0  0  0  0  0  0
   -8.4166    8.8609  -11.2984 N   0  0  0  0  0  0  0  0  0  0  0  0
   -7.3282    9.8959   -8.0269 C   0  0  0  0  0  0  0  0  0  0  0  0
   -4.4004   13.6489  -11.4541 N   0  0  0  0  0  0  0  0  0  0  0  0
   -3.4592   14.7715  -11.4916 C   0  0  0  0  0  0  0  0  0  0  0  0
   -5.5363   13.6231  -12.1917 C   0  0  0  0  0  0  0  0  0  0  0  0
   -5.8861   14.5056  -12.9557 O   0  0  0  0  0  0  0  0  0  0  0  0
   -5.9554   10.4909   -7.7390 C   0  0  0  0  0  0  0  0  0  0  0  0
   -5.8447   11.7612   -7.1661 C   0  0  0  0  0  0  0  0  0  0  0  0
   -4.5697   12.3054   -6.9214 C   0  0  0  0  0  0  0  0  0  0  0  0
   -3.4308   11.5801   -7.2259 C   0  0  0  0  0  0  0  0  0  0  0  0
   -3.5429   10.3015   -7.8076 C   0  0  0  0  0  0  0  0  0  0  0  0
   -4.8018    9.7661   -8.0596 C   0  0  0  0  0  0  0  0  0  0  0  0
   -4.4352   13.5609   -6.3638 O   0  0  0  0  0  0  0  0  0  0  0  0
   -3.6839   14.5445   -7.0766 C   0  0  0  0  0  0  0  0  0  0  0  0
   -2.1928   12.1397   -6.9410 O   0  0  0  0  0  0  0  0  0  0  0  0
   -1.0568   11.8071   -7.7386 C   0  0  0  0  0  0  0  0  0  0  0  0
   -6.0949   12.2992   -9.8722 H   0  0  0  0  0  0  0  0  0  0  0  0
   -8.1868   10.1246  -13.8882 H   0  0  0  0  0  0  0  0  0  0  0  0
   -6.8945   12.2613  -14.0950 H   0  0  0  0  0  0  0  0  0  0  0  0
   -8.0276    9.6101   -7.2552 H   0  0  0  0  0  0  0  0  0  0  0  0
   -3.8775   12.8398  -11.7222 H   0  0  0  0  0  0  0  0  0  0  0  0
   -2.6173   14.5676  -10.8136 H   0  0  0  0  0  0  0  0  0  0  0  0
   -3.0815   14.8991  -12.5168 H   0  0  0  0  0  0  0  0  0  0  0  0
   -3.9723   15.6908  -11.1728 H   0  0  0  0  0  0  0  0  0  0  0  0
   -5.2484   15.2095  -12.9404 H   0  0  0  0  0  0  0  0  0  0  0  0
   -6.3671   12.4602   -7.8358 H   0  0  0  0  0  0  0  0  0  0  0  0
   -6.3661   11.7216   -6.1984 H   0  0  0  0  0  0  0  0  0  0  0  0
   -2.6549    9.7395   -8.0568 H   0  0  0  0  0  0  0  0  0  0  0  0
   -4.8895    8.7861   -8.5049 H   0  0  0  0  0  0  0  0  0  0  0  0
   -3.6711   15.4833   -6.5034 H   0  0  0  0  0  0  0  0  0  0  0  0
   -2.6532   14.1872   -7.2178 H   0  0  0  0  0  0  0  0  0  0  0  0
   -4.1486   14.7205   -8.0580 H   0  0  0  0  0  0  0  0  0  0  0  0
   -0.1739   12.3445   -7.3623 H   0  0  0  0  0  0  0  0  0  0  0  0
   -0.8764   10.7233   -7.6856 H   0  0  0  0  0  0  0  0  0  0  0  0
   -1.2447   12.0969   -8.7830 H   0  0  0  0  0  0  0  0  0  0  0  0
  1  2  1  0  0  0  0
  1  4  1  0  0  0  0
  1 13  2  3  0  0  0
  2  6  2  0  0  0  0
  3  4  2  0  0  0  0
  3  5  1  0  0  0  0
  5  6  1  0  0  0  0
  5  9  2  0  0  0  0
  6  7  1  0  0  0  0
  7  8  2  0  0  0  0
  7 10  1  0  0  0  0
  8  9  1  0  0  0  0
 10 15  2  3  0  0  0
 11 12  1  0  0  0  0
 11 13  1  0  0  0  0
 13 14  1  0  0  0  0
 15 16  1  0  0  0  0
 15 20  1  0  0  0  0
 16 17  1  0  0  0  0
 17 18  2  0  0  0  0
 17 21  1  0  0  0  0
 18 19  1  0  0  0  0
 18 23  1  0  0  0  0
 19 20  2  0  0  0  0
 21 22  1  0  0  0  0
 23 24  1  0  0  0  0
  2 25  1  0  0  0  0
  3 26  1  0  0  0  0
  4 27  1  0  0  0  0
 10 28  1  0  0  0  0
 11 29  1  0  0  0  0
 12 30  1  0  0  0  0
 12 31  1  0  0  0  0
 12 32  1  0  0  0  0
 14 33  1  0  0  0  0
 16 34  1  0  0  0  0
 16 35  1  0  0  0  0
 19 36  1  0  0  0  0
 20 37  1  0  0  0  0
 22 38  1  0  0  0  0
 22 39  1  0  0  0  0
 22 40  1  0  0  0  0
 24 41  1  0  0  0  0
 24 42  1  0  0  0  0
 24 43  1  0  0  0  0
M  END
> <Name>
15

> <IC50[uM]>
2.5

$$$$
