24
  -OEChem-05192314333D
 Structure written by MMmdl.
 45 48  0     0  0  0  0  0  0999 V2000
   -6.3515   12.3530  -11.9813 C   0  0  0  0  0  0  0  0  0  0  0  0
   -6.5085   11.7912  -10.7247 C   0  0  0  0  0  0  0  0  0  0  0  0
   -7.6802   10.5716  -13.0438 C   0  0  0  0  0  0  0  0  0  0  0  0
   -6.9296   11.7657  -13.1245 C   0  0  0  0  0  0  0  0  0  0  0  0
   -7.7980   10.0044  -11.7669 C   0  0  0  0  0  0  0  0  0  0  0  0
   -7.2328   10.6109  -10.5989 C   0  0  0  0  0  0  0  0  0  0  0  0
   -7.6209    9.7375   -9.5162 C   0  0  0  0  0  0  0  0  0  0  0  0
   -8.2754    8.7446   -9.9970 N   0  0  0  0  0  0  0  0  0  0  0  0
   -8.4233    8.8800  -11.3218 N   0  0  0  0  0  0  0  0  0  0  0  0
   -7.3328    9.8812   -8.0296 C   0  0  0  0  0  0  0  0  0  0  0  0
   -5.3004   14.2773  -13.1499 C   0  0  0  0  0  0  0  0  0  0  0  0
   -4.4346   15.5261  -12.8998 C   0  0  0  0  0  0  0  0  0  0  0  0
   -5.5896   13.5586  -12.0343 N   0  0  0  0  0  0  0  0  0  0  0  0
   -5.9706   10.4906   -7.7317 C   0  0  0  0  0  0  0  0  0  0  0  0
   -5.8616   11.7632   -7.1684 C   0  0  0  0  0  0  0  0  0  0  0  0
   -4.6051   12.3126   -6.9180 C   0  0  0  0  0  0  0  0  0  0  0  0
   -3.4544   11.5948   -7.2294 C   0  0  0  0  0  0  0  0  0  0  0  0
   -3.5626   10.3128   -7.8011 C   0  0  0  0  0  0  0  0  0  0  0  0
   -4.8160    9.7710   -8.0425 C   0  0  0  0  0  0  0  0  0  0  0  0
   -2.1083   12.1736   -6.9694 C   0  0  0  0  0  0  0  0  0  0  0  0
   -1.7503   13.4247   -6.4858 C   0  0  0  0  0  0  0  0  0  0  0  0
   -0.4131   13.4674   -6.4189 N   0  0  0  0  0  0  0  0  0  0  0  0
    0.1758   12.3735   -6.8057 N   0  0  0  0  0  0  0  0  0  0  0  0
   -0.8094   11.5620   -7.1791 C   0  0  0  0  0  0  0  0  0  0  0  0
    0.4060   14.5705   -5.9896 C   0  0  0  0  0  0  0  0  0  0  0  0
   -5.6528   14.0066  -14.2746 O   0  0  0  0  0  0  0  0  0  0  0  0
   -6.0747   12.2631   -9.8555 H   0  0  0  0  0  0  0  0  0  0  0  0
   -8.1361   10.1224  -13.9137 H   0  0  0  0  0  0  0  0  0  0  0  0
   -6.7956   12.2399  -14.0855 H   0  0  0  0  0  0  0  0  0  0  0  0
   -8.6258    7.9778   -9.4591 H   0  0  0  0  0  0  0  0  0  0  0  0
   -8.1067   10.5245   -7.5855 H   0  0  0  0  0  0  0  0  0  0  0  0
   -7.3763    8.8835   -7.5684 H   0  0  0  0  0  0  0  0  0  0  0  0
   -4.2429   16.0373  -13.8548 H   0  0  0  0  0  0  0  0  0  0  0  0
   -4.9638   16.2086  -12.2185 H   0  0  0  0  0  0  0  0  0  0  0  0
   -3.4785   15.2246  -12.4471 H   0  0  0  0  0  0  0  0  0  0  0  0
   -5.2347   13.9076  -11.1670 H   0  0  0  0  0  0  0  0  0  0  0  0
   -6.7526   12.3233   -6.9261 H   0  0  0  0  0  0  0  0  0  0  0  0
   -4.5246   13.2972   -6.4815 H   0  0  0  0  0  0  0  0  0  0  0  0
   -2.6730    9.7536   -8.0506 H   0  0  0  0  0  0  0  0  0  0  0  0
   -4.8993    8.7846   -8.4743 H   0  0  0  0  0  0  0  0  0  0  0  0
   -2.4278   14.2202   -6.2127 H   0  0  0  0  0  0  0  0  0  0  0  0
   -0.6614   10.5729   -7.5868 H   0  0  0  0  0  0  0  0  0  0  0  0
    1.4672   14.2904   -6.0634 H   0  0  0  0  0  0  0  0  0  0  0  0
    0.2117   15.4427   -6.6311 H   0  0  0  0  0  0  0  0  0  0  0  0
    0.1649   14.8218   -4.9462 H   0  0  0  0  0  0  0  0  0  0  0  0
  1  2  2  0  0  0  0
  1  4  1  0  0  0  0
  1 13  1  0  0  0  0
  2  6  1  0  0  0  0
  3  4  2  0  0  0  0
  3  5  1  0  0  0  0
  5  6  1  0  0  0  0
  5  9  2  0  0  0  0
  6  7  2  0  0  0  0
  7  8  1  0  0  0  0
  7 10  1  0  0  0  0
  8  9  1  0  0  0  0
 10 14  1  0  0  0  0
 11 12  1  0  0  0  0
 11 13  1  0  0  0  0
 11 26  2  0  0  0  0
 14 15  2  0  0  0  0
 14 19  1  0  0  0  0
 15 16  1  0  0  0  0
 16 17  2  0  0  0  0
 17 18  1  0  0  0  0
 17 20  1  0  0  0  0
 18 19  2  0  0  0  0
 20 21  2  0  0  0  0
 20 24  1  0  0  0  0
 21 22  1  0  0  0  0
 22 23  1  0  0  0  0
 22 25  1  0  0  0  0
 23 24  2  0  0  0  0
  2 27  1  0  0  0  0
  3 28  1  0  0  0  0
  4 29  1  0  0  0  0
  8 30  1  0  0  0  0
 10 31  1  0  0  0  0
 10 32  1  0  0  0  0
 12 33  1  0  0  0  0
 12 34  1  0  0  0  0
 12 35  1  0  0  0  0
 13 36  1  0  0  0  0
 15 37  1  0  0  0  0
 16 38  1  0  0  0  0
 18 39  1  0  0  0  0
 19 40  1  0  0  0  0
 21 41  1  0  0  0  0
 24 42  1  0  0  0  0
 25 43  1  0  0  0  0
 25 44  1  0  0  0  0
 25 45  1  0  0  0  0
M  END
> <Name>
24

> <IC50[uM]>
0.029

$$$$
24
  -OEChem-05192314333D
 Structure written by MMmdl.
 45 48  0     0  0  0  0  0  0999 V2000
   -6.3515   12.3530  -11.9813 C   0  0  0  0  0  0  0  0  0  0  0  0
   -6.5085   11.7912  -10.7247 C   0  0  0  0  0  0  0  0  0  0  0  0
   -7.6802   10.5716  -13.0438 C   0  0  0  0  0  0  0  0  0  0  0  0
   -6.9296   11.7657  -13.1245 C   0  0  0  0  0  0  0  0  0  0  0  0
   -7.7980   10.0044  -11.7669 C   0  0  0  0  0  0  0  0  0  0  0  0
   -7.2328   10.6109  -10.5989 C   0  0  0  0  0  0  0  0  0  0  0  0
   -7.6209    9.7375   -9.5162 C   0  0  0  0  0  0  0  0  0  0  0  0
   -8.2754    8.7446   -9.9970 N   0  0  0  0  0  0  0  0  0  0  0  0
   -8.4233    8.8800  -11.3218 N   0  0  0  0  0  0  0  0  0  0  0  0
   -7.3328    9.8812   -8.0296 C   0  0  0  0  0  0  0  0  0  0  0  0
   -5.3004   14.2773  -13.1499 C   0  0  0  0  0  0  0  0  0  0  0  0
   -4.4346   15.5261  -12.8998 C   0  0  0  0  0  0  0  0  0  0  0  0
   -5.5896   13.5586  -12.0343 N   0  0  0  0  0  0  0  0  0  0  0  0
   -5.9706   10.4906   -7.7317 C   0  0  0  0  0  0  0  0  0  0  0  0
   -5.8616   11.7632   -7.1684 C   0  0  0  0  0  0  0  0  0  0  0  0
   -4.6051   12.3126   -6.9180 C   0  0  0  0  0  0  0  0  0  0  0  0
   -3.4544   11.5948   -7.2294 C   0  0  0  0  0  0  0  0  0  0  0  0
   -3.5626   10.3128   -7.8011 C   0  0  0  0  0  0  0  0  0  0  0  0
   -4.8160    9.7710   -8.0425 C   0  0  0  0  0  0  0  0  0  0  0  0
   -2.1083   12.1736   -6.9694 C   0  0  0  0  0  0  0  0  0  0  0  0
   -1.7503   13.4247   -6.4858 C   0  0  0  0  0  0  0  0  0  0  0  0
   -0.4131   13.4674   -6.4189 N   0  0  0  0  0  0  0  0  0  0  0  0
    0.1758   12.3735   -6.8057 N   0  0  0  0  0  0  0  0  0  0  0  0
   -0.8094   11.5620   -7.1791 C   0  0  0  0  0  0  0  0  0  0  0  0
    0.4060   14.5705   -5.9896 C   0  0  0  0  0  0  0  0  0  0  0  0
   -5.6528   14.0066  -14.2746 O   0  0  0  0  0  0  0  0  0  0  0  0
   -6.0747   12.2631   -9.8555 H   0  0  0  0  0  0  0  0  0  0  0  0
   -8.1361   10.1224  -13.9137 H   0  0  0  0  0  0  0  0  0  0  0  0
   -6.7956   12.2399  -14.0855 H   0  0  0  0  0  0  0  0  0  0  0  0
   -8.9253    8.2413  -11.9049 H   0  0  0  0  0  0  0  0  0  0  0  0
   -8.1067   10.5245   -7.5855 H   0  0  0  0  0  0  0  0  0  0  0  0
   -7.3763    8.8835   -7.5684 H   0  0  0  0  0  0  0  0  0  0  0  0
   -4.2429   16.0373  -13.8548 H   0  0  0  0  0  0  0  0  0  0  0  0
   -4.9638   16.2086  -12.2185 H   0  0  0  0  0  0  0  0  0  0  0  0
   -3.4785   15.2246  -12.4471 H   0  0  0  0  0  0  0  0  0  0  0  0
   -5.2347   13.9076  -11.1670 H   0  0  0  0  0  0  0  0  0  0  0  0
   -6.7526   12.3233   -6.9261 H   0  0  0  0  0  0  0  0  0  0  0  0
   -4.5246   13.2972   -6.4815 H   0  0  0  0  0  0  0  0  0  0  0  0
   -2.6730    9.7536   -8.0506 H   0  0  0  0  0  0  0  0  0  0  0  0
   -4.8993    8.7846   -8.4743 H   0  0  0  0  0  0  0  0  0  0  0  0
   -2.4278   14.2202   -6.2127 H   0  0  0  0  0  0  0  0  0  0  0  0
   -0.6614   10.5729   -7.5868 H   0  0  0  0  0  0  0  0  0  0  0  0
    1.4672   14.2904   -6.0634 H   0  0  0  0  0  0  0  0  0  0  0  0
    0.2117   15.4427   -6.6311 H   0  0  0  0  0  0  0  0  0  0  0  0
    0.1649   14.8218   -4.9462 H   0  0  0  0  0  0  0  0  0  0  0  0
  1  2  2  0  0  0  0
  1  4  1  0  0  0  0
  1 13  1  0  0  0  0
  2  6  1  0  0  0  0
  3  4  2  0  0  0  0
  3  5  1  0  0  0  0
  5  6  2  0  0  0  0
  5  9  1  0  0  0  0
  6  7  1  0  0  0  0
  7  8  2  0  0  0  0
  7 10  1  0  0  0  0
  8  9  1  0  0  0  0
 10 14  1  0  0  0  0
 11 12  1  0  0  0  0
 11 13  1  0  0  0  0
 11 26  2  0  0  0  0
 14 15  2  0  0  0  0
 14 19  1  0  0  0  0
 15 16  1  0  0  0  0
 16 17  2  0  0  0  0
 17 18  1  0  0  0  0
 17 20  1  0  0  0  0
 18 19  2  0  0  0  0
 20 21  2  0  0  0  0
 20 24  1  0  0  0  0
 21 22  1  0  0  0  0
 22 23  1  0  0  0  0
 22 25  1  0  0  0  0
 23 24  2  0  0  0  0
  2 27  1  0  0  0  0
  3 28  1  0  0  0  0
  4 29  1  0  0  0  0
  9 30  1  0  0  0  0
 10 31  1  0  0  0  0
 10 32  1  0  0  0  0
 12 33  1  0  0  0  0
 12 34  1  0  0  0  0
 12 35  1  0  0  0  0
 13 36  1  0  0  0  0
 15 37  1  0  0  0  0
 16 38  1  0  0  0  0
 18 39  1  0  0  0  0
 19 40  1  0  0  0  0
 21 41  1  0  0  0  0
 24 42  1  0  0  0  0
 25 43  1  0  0  0  0
 25 44  1  0  0  0  0
 25 45  1  0  0  0  0
M  END
> <Name>
24

> <IC50[uM]>
0.029

$$$$
24
  -OEChem-05192314333D
 Structure written by MMmdl.
 45 48  0     0  0  0  0  0  0999 V2000
   -6.3515   12.3530  -11.9813 C   0  0  0  0  0  0  0  0  0  0  0  0
   -6.5085   11.7912  -10.7247 C   0  0  0  0  0  0  0  0  0  0  0  0
   -7.6802   10.5716  -13.0438 C   0  0  0  0  0  0  0  0  0  0  0  0
   -6.9296   11.7657  -13.1245 C   0  0  0  0  0  0  0  0  0  0  0  0
   -7.7980   10.0044  -11.7669 C   0  0  0  0  0  0  0  0  0  0  0  0
   -7.2328   10.6109  -10.5989 C   0  0  0  0  0  0  0  0  0  0  0  0
   -7.6209    9.7375   -9.5162 C   0  0  0  0  0  0  0  0  0  0  0  0
   -8.2754    8.7446   -9.9970 N   0  0  0  0  0  0  0  0  0  0  0  0
   -8.4233    8.8800  -11.3218 N   0  0  0  0  0  0  0  0  0  0  0  0
   -7.3328    9.8812   -8.0296 C   0  0  0  0  0  0  0  0  0  0  0  0
   -5.3004   14.2773  -13.1499 C   0  0  0  0  0  0  0  0  0  0  0  0
   -4.4346   15.5261  -12.8998 C   0  0  0  0  0  0  0  0  0  0  0  0
   -5.5896   13.5586  -12.0343 N   0  0  0  0  0  0  0  0  0  0  0  0
   -5.9706   10.4906   -7.7317 C   0  0  0  0  0  0  0  0  0  0  0  0
   -5.8616   11.7632   -7.1684 C   0  0  0  0  0  0  0  0  0  0  0  0
   -4.6051   12.3126   -6.9180 C   0  0  0  0  0  0  0  0  0  0  0  0
   -3.4544   11.5948   -7.2294 C   0  0  0  0  0  0  0  0  0  0  0  0
   -3.5626   10.3128   -7.8011 C   0  0  0  0  0  0  0  0  0  0  0  0
   -4.8160    9.7710   -8.0425 C   0  0  0  0  0  0  0  0  0  0  0  0
   -2.1083   12.1736   -6.9694 C   0  0  0  0  0  0  0  0  0  0  0  0
   -1.7503   13.4247   -6.4858 C   0  0  0  0  0  0  0  0  0  0  0  0
   -0.4131   13.4674   -6.4189 N   0  0  0  0  0  0  0  0  0  0  0  0
    0.1758   12.3735   -6.8057 N   0  0  0  0  0  0  0  0  0  0  0  0
   -0.8094   11.5620   -7.1791 C   0  0  0  0  0  0  0  0  0  0  0  0
    0.4060   14.5705   -5.9896 C   0  0  0  0  0  0  0  0  0  0  0  0
   -5.6528   14.0066  -14.2746 O   0  0  0  0  0  0  0  0  0  0  0  0
   -6.0747   12.2631   -9.8555 H   0  0  0  0  0  0  0  0  0  0  0  0
   -8.1361   10.1224  -13.9137 H   0  0  0  0  0  0  0  0  0  0  0  0
   -6.7956   12.2399  -14.0855 H   0  0  0  0  0  0  0  0  0  0  0  0
   -8.6258    7.9778   -9.4591 H   0  0  0  0  0  0  0  0  0  0  0  0
   -8.1067   10.5245   -7.5855 H   0  0  0  0  0  0  0  0  0  0  0  0
   -7.3763    8.8835   -7.5684 H   0  0  0  0  0  0  0  0  0  0  0  0
   -4.2517   16.0431  -13.8534 H   0  0  0  0  0  0  0  0  0  0  0  0
   -4.9593   16.2038  -12.2102 H   0  0  0  0  0  0  0  0  0  0  0  0
   -3.4743   15.2236  -12.4567 H   0  0  0  0  0  0  0  0  0  0  0  0
   -6.7526   12.3233   -6.9261 H   0  0  0  0  0  0  0  0  0  0  0  0
   -4.5246   13.2972   -6.4815 H   0  0  0  0  0  0  0  0  0  0  0  0
   -2.6730    9.7536   -8.0506 H   0  0  0  0  0  0  0  0  0  0  0  0
   -4.8993    8.7846   -8.4743 H   0  0  0  0  0  0  0  0  0  0  0  0
   -2.4278   14.2202   -6.2127 H   0  0  0  0  0  0  0  0  0  0  0  0
   -0.6614   10.5729   -7.5868 H   0  0  0  0  0  0  0  0  0  0  0  0
    1.4672   14.2904   -6.0634 H   0  0  0  0  0  0  0  0  0  0  0  0
    0.2117   15.4427   -6.6311 H   0  0  0  0  0  0  0  0  0  0  0  0
    0.1649   14.8218   -4.9462 H   0  0  0  0  0  0  0  0  0  0  0  0
   -6.1759   13.2137  -14.2608 H   0  0  0  0  0  0  0  0  0  0  0  0
  1  2  2  0  0  0  0
  1  4  1  0  0  0  0
  1 13  1  0  0  0  0
  2  6  1  0  0  0  0
  3  4  2  0  0  0  0
  3  5  1  0  0  0  0
  5  6  1  0  0  0  0
  5  9  2  0  0  0  0
  6  7  2  0  0  0  0
  7  8  1  0  0  0  0
  7 10  1  0  0  0  0
  8  9  1  0  0  0  0
 10 14  1  0  0  0  0
 11 12  1  0  0  0  0
 11 13  2  0  0  0  0
 11 26  1  0  0  0  0
 14 15  2  0  0  0  0
 14 19  1  0  0  0  0
 15 16  1  0  0  0  0
 16 17  2  0  0  0  0
 17 18  1  0  0  0  0
 17 20  1  0  0  0  0
 18 19  2  0  0  0  0
 20 21  2  0  0  0  0
 20 24  1  0  0  0  0
 21 22  1  0  0  0  0
 22 23  1  0  0  0  0
 22 25  1  0  0  0  0
 23 24  2  0  0  0  0
  2 27  1  0  0  0  0
  3 28  1  0  0  0  0
  4 29  1  0  0  0  0
  8 30  1  0  0  0  0
 10 31  1  0  0  0  0
 10 32  1  0  0  0  0
 12 33  1  0  0  0  0
 12 34  1  0  0  0  0
 12 35  1  0  0  0  0
 15 36  1  0  0  0  0
 16 37  1  0  0  0  0
 18 38  1  0  0  0  0
 19 39  1  0  0  0  0
 21 40  1  0  0  0  0
 24 41  1  0  0  0  0
 25 42  1  0  0  0  0
 25 43  1  0  0  0  0
 25 44  1  0  0  0  0
 26 45  1  0  0  0  0
M  END
> <Name>
24

> <IC50[uM]>
0.029

$$$$
24
  -OEChem-05192314333D
 Structure written by MMmdl.
 45 48  0     0  0  0  0  0  0999 V2000
   -6.3515   12.3530  -11.9813 C   0  0  0  0  0  0  0  0  0  0  0  0
   -6.5085   11.7912  -10.7247 C   0  0  0  0  0  0  0  0  0  0  0  0
   -7.6802   10.5716  -13.0438 C   0  0  0  0  0  0  0  0  0  0  0  0
   -6.9296   11.7657  -13.1245 C   0  0  0  0  0  0  0  0  0  0  0  0
   -7.7980   10.0044  -11.7669 C   0  0  0  0  0  0  0  0  0  0  0  0
   -7.2328   10.6109  -10.5989 C   0  0  0  0  0  0  0  0  0  0  0  0
   -7.6209    9.7375   -9.5162 C   0  0  0  0  0  0  0  0  0  0  0  0
   -8.2754    8.7446   -9.9970 N   0  0  0  0  0  0  0  0  0  0  0  0
   -8.4233    8.8800  -11.3218 N   0  0  0  0  0  0  0  0  0  0  0  0
   -7.3328    9.8812   -8.0296 C   0  0  0  0  0  0  0  0  0  0  0  0
   -5.3004   14.2773  -13.1499 C   0  0  0  0  0  0  0  0  0  0  0  0
   -4.4346   15.5261  -12.8998 C   0  0  0  0  0  0  0  0  0  0  0  0
   -5.5896   13.5586  -12.0343 N   0  0  0  0  0  0  0  0  0  0  0  0
   -5.9706   10.4906   -7.7317 C   0  0  0  0  0  0  0  0  0  0  0  0
   -5.8616   11.7632   -7.1684 C   0  0  0  0  0  0  0  0  0  0  0  0
   -4.6051   12.3126   -6.9180 C   0  0  0  0  0  0  0  0  0  0  0  0
   -3.4544   11.5948   -7.2294 C   0  0  0  0  0  0  0  0  0  0  0  0
   -3.5626   10.3128   -7.8011 C   0  0  0  0  0  0  0  0  0  0  0  0
   -4.8160    9.7710   -8.0425 C   0  0  0  0  0  0  0  0  0  0  0  0
   -2.1083   12.1736   -6.9694 C   0  0  0  0  0  0  0  0  0  0  0  0
   -1.7503   13.4247   -6.4858 C   0  0  0  0  0  0  0  0  0  0  0  0
   -0.4131   13.4674   -6.4189 N   0  0  0  0  0  0  0  0  0  0  0  0
    0.1758   12.3735   -6.8057 N   0  0  0  0  0  0  0  0  0  0  0  0
   -0.8094   11.5620   -7.1791 C   0  0  0  0  0  0  0  0  0  0  0  0
    0.4060   14.5705   -5.9896 C   0  0  0  0  0  0  0  0  0  0  0  0
   -5.6528   14.0066  -14.2746 O   0  0  0  0  0  0  0  0  0  0  0  0
   -6.0747   12.2631   -9.8555 H   0  0  0  0  0  0  0  0  0  0  0  0
   -8.1361   10.1224  -13.9137 H   0  0  0  0  0  0  0  0  0  0  0  0
   -6.7956   12.2399  -14.0855 H   0  0  0  0  0  0  0  0  0  0  0  0
   -8.9253    8.2413  -11.9049 H   0  0  0  0  0  0  0  0  0  0  0  0
   -8.1067   10.5245   -7.5855 H   0  0  0  0  0  0  0  0  0  0  0  0
   -7.3763    8.8835   -7.5684 H   0  0  0  0  0  0  0  0  0  0  0  0
   -4.2517   16.0431  -13.8534 H   0  0  0  0  0  0  0  0  0  0  0  0
   -4.9593   16.2038  -12.2102 H   0  0  0  0  0  0  0  0  0  0  0  0
   -3.4743   15.2236  -12.4567 H   0  0  0  0  0  0  0  0  0  0  0  0
   -6.7526   12.3233   -6.9261 H   0  0  0  0  0  0  0  0  0  0  0  0
   -4.5246   13.2972   -6.4815 H   0  0  0  0  0  0  0  0  0  0  0  0
   -2.6730    9.7536   -8.0506 H   0  0  0  0  0  0  0  0  0  0  0  0
   -4.8993    8.7846   -8.4743 H   0  0  0  0  0  0  0  0  0  0  0  0
   -2.4278   14.2202   -6.2127 H   0  0  0  0  0  0  0  0  0  0  0  0
   -0.6614   10.5729   -7.5868 H   0  0  0  0  0  0  0  0  0  0  0  0
    1.4672   14.2904   -6.0634 H   0  0  0  0  0  0  0  0  0  0  0  0
    0.2117   15.4427   -6.6311 H   0  0  0  0  0  0  0  0  0  0  0  0
    0.1649   14.8218   -4.9462 H   0  0  0  0  0  0  0  0  0  0  0  0
   -6.1759   13.2137  -14.2608 H   0  0  0  0  0  0  0  0  0  0  0  0
  1  2  2  0  0  0  0
  1  4  1  0  0  0  0
  1 13  1  0  0  0  0
  2  6  1  0  0  0  0
  3  4  2  0  0  0  0
  3  5  1  0  0  0  0
  5  6  2  0  0  0  0
  5  9  1  0  0  0  0
  6  7  1  0  0  0  0
  7  8  2  0  0  0  0
  7 10  1  0  0  0  0
  8  9  1  0  0  0  0
 10 14  1  0  0  0  0
 11 12  1  0  0  0  0
 11 13  2  0  0  0  0
 11 26  1  0  0  0  0
 14 15  2  0  0  0  0
 14 19  1  0  0  0  0
 15 16  1  0  0  0  0
 16 17  2  0  0  0  0
 17 18  1  0  0  0  0
 17 20  1  0  0  0  0
 18 19  2  0  0  0  0
 20 21  2  0  0  0  0
 20 24  1  0  0  0  0
 21 22  1  0  0  0  0
 22 23  1  0  0  0  0
 22 25  1  0  0  0  0
 23 24  2  0  0  0  0
  2 27  1  0  0  0  0
  3 28  1  0  0  0  0
  4 29  1  0  0  0  0
  9 30  1  0  0  0  0
 10 31  1  0  0  0  0
 10 32  1  0  0  0  0
 12 33  1  0  0  0  0
 12 34  1  0  0  0  0
 12 35  1  0  0  0  0
 15 36  1  0  0  0  0
 16 37  1  0  0  0  0
 18 38  1  0  0  0  0
 19 39  1  0  0  0  0
 21 40  1  0  0  0  0
 24 41  1  0  0  0  0
 25 42  1  0  0  0  0
 25 43  1  0  0  0  0
 25 44  1  0  0  0  0
 26 45  1  0  0  0  0
M  END
> <Name>
24

> <IC50[uM]>
0.029

$$$$
24
  -OEChem-05192314333D
 Structure written by MMmdl.
 45 48  0     1  0  0  0  0  0999 V2000
   -6.3515   12.3530  -11.9813 C   0  0  0  0  0  0  0  0  0  0  0  0
   -6.5085   11.7912  -10.7247 C   0  0  0  0  0  0  0  0  0  0  0  0
   -7.6802   10.5716  -13.0438 C   0  0  0  0  0  0  0  0  0  0  0  0
   -6.9296   11.7657  -13.1245 C   0  0  0  0  0  0  0  0  0  0  0  0
   -7.7980   10.0044  -11.7669 C   0  0  0  0  0  0  0  0  0  0  0  0
   -7.2328   10.6109  -10.5989 C   0  0  0  0  0  0  0  0  0  0  0  0
   -7.6209    9.7375   -9.5162 C   0  0  3  0  0  0  0  0  0  0  0  0
   -8.2754    8.7446   -9.9970 N   0  0  0  0  0  0  0  0  0  0  0  0
   -8.4233    8.8800  -11.3218 N   0  0  0  0  0  0  0  0  0  0  0  0
   -7.3328    9.8812   -8.0296 C   0  0  0  0  0  0  0  0  0  0  0  0
   -5.3004   14.2773  -13.1499 C   0  0  0  0  0  0  0  0  0  0  0  0
   -4.4346   15.5261  -12.8998 C   0  0  0  0  0  0  0  0  0  0  0  0
   -5.5896   13.5586  -12.0343 N   0  0  0  0  0  0  0  0  0  0  0  0
   -5.9706   10.4906   -7.7317 C   0  0  0  0  0  0  0  0  0  0  0  0
   -5.8616   11.7632   -7.1684 C   0  0  0  0  0  0  0  0  0  0  0  0
   -4.6051   12.3126   -6.9180 C   0  0  0  0  0  0  0  0  0  0  0  0
   -3.4544   11.5948   -7.2294 C   0  0  0  0  0  0  0  0  0  0  0  0
   -3.5626   10.3128   -7.8011 C   0  0  0  0  0  0  0  0  0  0  0  0
   -4.8160    9.7710   -8.0425 C   0  0  0  0  0  0  0  0  0  0  0  0
   -2.1083   12.1736   -6.9694 C   0  0  0  0  0  0  0  0  0  0  0  0
   -1.7503   13.4247   -6.4858 C   0  0  0  0  0  0  0  0  0  0  0  0
   -0.4131   13.4674   -6.4189 N   0  0  0  0  0  0  0  0  0  0  0  0
    0.1758   12.3735   -6.8057 N   0  0  0  0  0  0  0  0  0  0  0  0
   -0.8094   11.5620   -7.1791 C   0  0  0  0  0  0  0  0  0  0  0  0
    0.4060   14.5705   -5.9896 C   0  0  0  0  0  0  0  0  0  0  0  0
   -5.6528   14.0066  -14.2746 O   0  0  0  0  0  0  0  0  0  0  0  0
   -6.0747   12.2631   -9.8555 H   0  0  0  0  0  0  0  0  0  0  0  0
   -8.1361   10.1224  -13.9137 H   0  0  0  0  0  0  0  0  0  0  0  0
   -6.7956   12.2399  -14.0855 H   0  0  0  0  0  0  0  0  0  0  0  0
   -8.5577   10.3007   -9.3927 H   0  0  0  0  0  0  0  0  0  0  0  0
   -8.1067   10.5245   -7.5855 H   0  0  0  0  0  0  0  0  0  0  0  0
   -7.3763    8.8835   -7.5684 H   0  0  0  0  0  0  0  0  0  0  0  0
   -4.2429   16.0373  -13.8548 H   0  0  0  0  0  0  0  0  0  0  0  0
   -4.9638   16.2086  -12.2185 H   0  0  0  0  0  0  0  0  0  0  0  0
   -3.4785   15.2246  -12.4471 H   0  0  0  0  0  0  0  0  0  0  0  0
   -5.2347   13.9076  -11.1670 H   0  0  0  0  0  0  0  0  0  0  0  0
   -6.7526   12.3233   -6.9261 H   0  0  0  0  0  0  0  0  0  0  0  0
   -4.5246   13.2972   -6.4815 H   0  0  0  0  0  0  0  0  0  0  0  0
   -2.6730    9.7536   -8.0506 H   0  0  0  0  0  0  0  0  0  0  0  0
   -4.8993    8.7846   -8.4743 H   0  0  0  0  0  0  0  0  0  0  0  0
   -2.4278   14.2202   -6.2127 H   0  0  0  0  0  0  0  0  0  0  0  0
   -0.6614   10.5729   -7.5868 H   0  0  0  0  0  0  0  0  0  0  0  0
    1.4672   14.2904   -6.0634 H   0  0  0  0  0  0  0  0  0  0  0  0
    0.2117   15.4427   -6.6311 H   0  0  0  0  0  0  0  0  0  0  0  0
    0.1649   14.8218   -4.9462 H   0  0  0  0  0  0  0  0  0  0  0  0
  1  2  2  0  0  0  0
  1  4  1  0  0  0  0
  1 13  1  0  0  0  0
  2  6  1  0  0  0  0
  3  4  2  0  0  0  0
  3  5  1  0  0  0  0
  5  6  2  0  0  0  0
  5  9  1  0  0  0  0
  6  7  1  0  0  0  0
  7  8  1  0  0  0  0
  7 10  1  0  0  0  0
  8  9  2  0  0  0  0
 10 14  1  0  0  0  0
 11 12  1  0  0  0  0
 11 13  1  0  0  0  0
 11 26  2  0  0  0  0
 14 15  2  0  0  0  0
 14 19  1  0  0  0  0
 15 16  1  0  0  0  0
 16 17  2  0  0  0  0
 17 18  1  0  0  0  0
 17 20  1  0  0  0  0
 18 19  2  0  0  0  0
 20 21  2  0  0  0  0
 20 24  1  0  0  0  0
 21 22  1  0  0  0  0
 22 23  1  0  0  0  0
 22 25  1  0  0  0  0
 23 24  2  0  0  0  0
  2 27  1  0  0  0  0
  3 28  1  0  0  0  0
  4 29  1  0  0  0  0
  7 30  1  0  0  0  0
 10 31  1  0  0  0  0
 10 32  1  0  0  0  0
 12 33  1  0  0  0  0
 12 34  1  0  0  0  0
 12 35  1  0  0  0  0
 13 36  1  0  0  0  0
 15 37  1  0  0  0  0
 16 38  1  0  0  0  0
 18 39  1  0  0  0  0
 19 40  1  0  0  0  0
 21 41  1  0  0  0  0
 24 42  1  0  0  0  0
 25 43  1  0  0  0  0
 25 44  1  0  0  0  0
 25 45  1  0  0  0  0
M  END
> <Name>
24

> <IC50[uM]>
0.029

$$$$
24
  -OEChem-05192314333D
 Structure written by MMmdl.
 45 48  0     1  0  0  0  0  0999 V2000
   -6.3515   12.3530  -11.9813 C   0  0  0  0  0  0  0  0  0  0  0  0
   -6.5085   11.7912  -10.7247 C   0  0  0  0  0  0  0  0  0  0  0  0
   -7.6802   10.5716  -13.0438 C   0  0  0  0  0  0  0  0  0  0  0  0
   -6.9296   11.7657  -13.1245 C   0  0  0  0  0  0  0  0  0  0  0  0
   -7.7980   10.0044  -11.7669 C   0  0  0  0  0  0  0  0  0  0  0  0
   -7.2328   10.6109  -10.5989 C   0  0  0  0  0  0  0  0  0  0  0  0
   -7.6209    9.7375   -9.5162 C   0  0  3  0  0  0  0  0  0  0  0  0
   -8.2754    8.7446   -9.9970 N   0  0  0  0  0  0  0  0  0  0  0  0
   -8.4233    8.8800  -11.3218 N   0  0  0  0  0  0  0  0  0  0  0  0
   -7.3328    9.8812   -8.0296 C   0  0  0  0  0  0  0  0  0  0  0  0
   -5.3004   14.2773  -13.1499 C   0  0  0  0  0  0  0  0  0  0  0  0
   -4.4346   15.5261  -12.8998 C   0  0  0  0  0  0  0  0  0  0  0  0
   -5.5896   13.5586  -12.0343 N   0  0  0  0  0  0  0  0  0  0  0  0
   -5.9706   10.4906   -7.7317 C   0  0  0  0  0  0  0  0  0  0  0  0
   -5.8616   11.7632   -7.1684 C   0  0  0  0  0  0  0  0  0  0  0  0
   -4.6051   12.3126   -6.9180 C   0  0  0  0  0  0  0  0  0  0  0  0
   -3.4544   11.5948   -7.2294 C   0  0  0  0  0  0  0  0  0  0  0  0
   -3.5626   10.3128   -7.8011 C   0  0  0  0  0  0  0  0  0  0  0  0
   -4.8160    9.7710   -8.0425 C   0  0  0  0  0  0  0  0  0  0  0  0
   -2.1083   12.1736   -6.9694 C   0  0  0  0  0  0  0  0  0  0  0  0
   -1.7503   13.4247   -6.4858 C   0  0  0  0  0  0  0  0  0  0  0  0
   -0.4131   13.4674   -6.4189 N   0  0  0  0  0  0  0  0  0  0  0  0
    0.1758   12.3735   -6.8057 N   0  0  0  0  0  0  0  0  0  0  0  0
   -0.8094   11.5620   -7.1791 C   0  0  0  0  0  0  0  0  0  0  0  0
    0.4060   14.5705   -5.9896 C   0  0  0  0  0  0  0  0  0  0  0  0
   -5.6528   14.0066  -14.2746 O   0  0  0  0  0  0  0  0  0  0  0  0
   -6.0747   12.2631   -9.8555 H   0  0  0  0  0  0  0  0  0  0  0  0
   -8.1361   10.1224  -13.9137 H   0  0  0  0  0  0  0  0  0  0  0  0
   -6.7956   12.2399  -14.0855 H   0  0  0  0  0  0  0  0  0  0  0  0
   -8.5577   10.3007   -9.3927 H   0  0  0  0  0  0  0  0  0  0  0  0
   -8.1067   10.5245   -7.5855 H   0  0  0  0  0  0  0  0  0  0  0  0
   -7.3763    8.8835   -7.5684 H   0  0  0  0  0  0  0  0  0  0  0  0
   -4.2517   16.0431  -13.8534 H   0  0  0  0  0  0  0  0  0  0  0  0
   -4.9593   16.2038  -12.2102 H   0  0  0  0  0  0  0  0  0  0  0  0
   -3.4743   15.2236  -12.4567 H   0  0  0  0  0  0  0  0  0  0  0  0
   -6.7526   12.3233   -6.9261 H   0  0  0  0  0  0  0  0  0  0  0  0
   -4.5246   13.2972   -6.4815 H   0  0  0  0  0  0  0  0  0  0  0  0
   -2.6730    9.7536   -8.0506 H   0  0  0  0  0  0  0  0  0  0  0  0
   -4.8993    8.7846   -8.4743 H   0  0  0  0  0  0  0  0  0  0  0  0
   -2.4278   14.2202   -6.2127 H   0  0  0  0  0  0  0  0  0  0  0  0
   -0.6614   10.5729   -7.5868 H   0  0  0  0  0  0  0  0  0  0  0  0
    1.4672   14.2904   -6.0634 H   0  0  0  0  0  0  0  0  0  0  0  0
    0.2117   15.4427   -6.6311 H   0  0  0  0  0  0  0  0  0  0  0  0
    0.1649   14.8218   -4.9462 H   0  0  0  0  0  0  0  0  0  0  0  0
   -6.1759   13.2137  -14.2608 H   0  0  0  0  0  0  0  0  0  0  0  0
  1  2  2  0  0  0  0
  1  4  1  0  0  0  0
  1 13  1  0  0  0  0
  2  6  1  0  0  0  0
  3  4  2  0  0  0  0
  3  5  1  0  0  0  0
  5  6  2  0  0  0  0
  5  9  1  0  0  0  0
  6  7  1  0  0  0  0
  7  8  1  0  0  0  0
  7 10  1  0  0  0  0
  8  9  2  0  0  0  0
 10 14  1  0  0  0  0
 11 12  1  0  0  0  0
 11 13  2  0  0  0  0
 11 26  1  0  0  0  0
 14 15  2  0  0  0  0
 14 19  1  0  0  0  0
 15 16  1  0  0  0  0
 16 17  2  0  0  0  0
 17 18  1  0  0  0  0
 17 20  1  0  0  0  0
 18 19  2  0  0  0  0
 20 21  2  0  0  0  0
 20 24  1  0  0  0  0
 21 22  1  0  0  0  0
 22 23  1  0  0  0  0
 22 25  1  0  0  0  0
 23 24  2  0  0  0  0
  2 27  1  0  0  0  0
  3 28  1  0  0  0  0
  4 29  1  0  0  0  0
  7 30  1  0  0  0  0
 10 31  1  0  0  0  0
 10 32  1  0  0  0  0
 12 33  1  0  0  0  0
 12 34  1  0  0  0  0
 12 35  1  0  0  0  0
 15 36  1  0  0  0  0
 16 37  1  0  0  0  0
 18 38  1  0  0  0  0
 19 39  1  0  0  0  0
 21 40  1  0  0  0  0
 24 41  1  0  0  0  0
 25 42  1  0  0  0  0
 25 43  1  0  0  0  0
 25 44  1  0  0  0  0
 26 45  1  0  0  0  0
M  END
> <Name>
24

> <IC50[uM]>
0.029

$$$$
24
  -OEChem-05192314333D
 Structure written by MMmdl.
 45 48  0     0  0  0  0  0  0999 V2000
   -6.3515   12.3530  -11.9813 C   0  0  0  0  0  0  0  0  0  0  0  0
   -6.5085   11.7912  -10.7247 C   0  0  0  0  0  0  0  0  0  0  0  0
   -7.6802   10.5716  -13.0438 C   0  0  0  0  0  0  0  0  0  0  0  0
   -6.9296   11.7657  -13.1245 C   0  0  0  0  0  0  0  0  0  0  0  0
   -7.7980   10.0044  -11.7669 C   0  0  0  0  0  0  0  0  0  0  0  0
   -7.2328   10.6109  -10.5989 C   0  0  0  0  0  0  0  0  0  0  0  0
   -7.6209    9.7375   -9.5162 C   0  0  0  0  0  0  0  0  0  0  0  0
   -8.2754    8.7446   -9.9970 N   0  0  0  0  0  0  0  0  0  0  0  0
   -8.4233    8.8800  -11.3218 N   0  0  0  0  0  0  0  0  0  0  0  0
   -7.3328    9.8812   -8.0296 C   0  0  0  0  0  0  0  0  0  0  0  0
   -5.3004   14.2773  -13.1499 C   0  0  0  0  0  0  0  0  0  0  0  0
   -4.4346   15.5261  -12.8998 C   0  0  0  0  0  0  0  0  0  0  0  0
   -5.5896   13.5586  -12.0343 N   0  0  0  0  0  0  0  0  0  0  0  0
   -5.9706   10.4906   -7.7317 C   0  0  0  0  0  0  0  0  0  0  0  0
   -5.8616   11.7632   -7.1684 C   0  0  0  0  0  0  0  0  0  0  0  0
   -4.6051   12.3126   -6.9180 C   0  0  0  0  0  0  0  0  0  0  0  0
   -3.4544   11.5948   -7.2294 C   0  0  0  0  0  0  0  0  0  0  0  0
   -3.5626   10.3128   -7.8011 C   0  0  0  0  0  0  0  0  0  0  0  0
   -4.8160    9.7710   -8.0425 C   0  0  0  0  0  0  0  0  0  0  0  0
   -2.1083   12.1736   -6.9694 C   0  0  0  0  0  0  0  0  0  0  0  0
   -1.7503   13.4247   -6.4858 C   0  0  0  0  0  0  0  0  0  0  0  0
   -0.4131   13.4674   -6.4189 N   0  0  0  0  0  0  0  0  0  0  0  0
    0.1758   12.3735   -6.8057 N   0  0  0  0  0  0  0  0  0  0  0  0
   -0.8094   11.5620   -7.1791 C   0  0  0  0  0  0  0  0  0  0  0  0
    0.4060   14.5705   -5.9896 C   0  0  0  0  0  0  0  0  0  0  0  0
   -5.6528   14.0066  -14.2746 O   0  0  0  0  0  0  0  0  0  0  0  0
   -6.0747   12.2631   -9.8555 H   0  0  0  0  0  0  0  0  0  0  0  0
   -8.1361   10.1224  -13.9137 H   0  0  0  0  0  0  0  0  0  0  0  0
   -6.7956   12.2399  -14.0855 H   0  0  0  0  0  0  0  0  0  0  0  0
   -7.7779    7.8985   -9.8058 H   0  0  0  0  0  0  0  0  0  0  0  0
   -9.3978    8.9396  -11.5383 H   0  0  0  0  0  0  0  0  0  0  0  0
   -8.0279    9.5798   -7.2599 H   0  0  0  0  0  0  0  0  0  0  0  0
   -4.2429   16.0373  -13.8548 H   0  0  0  0  0  0  0  0  0  0  0  0
   -4.9638   16.2086  -12.2185 H   0  0  0  0  0  0  0  0  0  0  0  0
   -3.4785   15.2246  -12.4471 H   0  0  0  0  0  0  0  0  0  0  0  0
   -5.2347   13.9076  -11.1670 H   0  0  0  0  0  0  0  0  0  0  0  0
   -6.7526   12.3233   -6.9261 H   0  0  0  0  0  0  0  0  0  0  0  0
   -4.5246   13.2972   -6.4815 H   0  0  0  0  0  0  0  0  0  0  0  0
   -2.6730    9.7536   -8.0506 H   0  0  0  0  0  0  0  0  0  0  0  0
   -4.8993    8.7846   -8.4743 H   0  0  0  0  0  0  0  0  0  0  0  0
   -2.4278   14.2202   -6.2127 H   0  0  0  0  0  0  0  0  0  0  0  0
   -0.6614   10.5729   -7.5868 H   0  0  0  0  0  0  0  0  0  0  0  0
    1.4672   14.2904   -6.0634 H   0  0  0  0  0  0  0  0  0  0  0  0
    0.2117   15.4427   -6.6311 H   0  0  0  0  0  0  0  0  0  0  0  0
    0.1649   14.8218   -4.9462 H   0  0  0  0  0  0  0  0  0  0  0  0
  1  2  2  0  0  0  0
  1  4  1  0  0  0  0
  1 13  1  0  0  0  0
  2  6  1  0  0  0  0
  3  4  2  0  0  0  0
  3  5  1  0  0  0  0
  5  6  2  0  0  0  0
  5  9  1  0  0  0  0
  6  7  1  0  0  0  0
  7  8  1  0  0  0  0
  7 10  2  3  0  0  0
  8  9  1  0  0  0  0
 10 14  1  0  0  0  0
 11 12  1  0  0  0  0
 11 13  1  0  0  0  0
 11 26  2  0  0  0  0
 14 15  2  0  0  0  0
 14 19  1  0  0  0  0
 15 16  1  0  0  0  0
 16 17  2  0  0  0  0
 17 18  1  0  0  0  0
 17 20  1  0  0  0  0
 18 19  2  0  0  0  0
 20 21  2  0  0  0  0
 20 24  1  0  0  0  0
 21 22  1  0  0  0  0
 22 23  1  0  0  0  0
 22 25  1  0  0  0  0
 23 24  2  0  0  0  0
  2 27  1  0  0  0  0
  3 28  1  0  0  0  0
  4 29  1  0  0  0  0
  8 30  1  0  0  0  0
  9 31  1  0  0  0  0
 10 32  1  0  0  0  0
 12 33  1  0  0  0  0
 12 34  1  0  0  0  0
 12 35  1  0  0  0  0
 13 36  1  0  0  0  0
 15 37  1  0  0  0  0
 16 38  1  0  0  0  0
 18 39  1  0  0  0  0
 19 40  1  0  0  0  0
 21 41  1  0  0  0  0
 24 42  1  0  0  0  0
 25 43  1  0  0  0  0
 25 44  1  0  0  0  0
 25 45  1  0  0  0  0
M  END
> <Name>
24

> <IC50[uM]>
0.029

$$$$
24
  -OEChem-05192314333D
 Structure written by MMmdl.
 45 48  0     0  0  0  0  0  0999 V2000
   -6.3515   12.3530  -11.9813 C   0  0  0  0  0  0  0  0  0  0  0  0
   -6.5085   11.7912  -10.7247 C   0  0  0  0  0  0  0  0  0  0  0  0
   -7.6802   10.5716  -13.0438 C   0  0  0  0  0  0  0  0  0  0  0  0
   -6.9296   11.7657  -13.1245 C   0  0  0  0  0  0  0  0  0  0  0  0
   -7.7980   10.0044  -11.7669 C   0  0  0  0  0  0  0  0  0  0  0  0
   -7.2328   10.6109  -10.5989 C   0  0  0  0  0  0  0  0  0  0  0  0
   -7.6209    9.7375   -9.5162 C   0  0  0  0  0  0  0  0  0  0  0  0
   -8.2754    8.7446   -9.9970 N   0  0  0  0  0  0  0  0  0  0  0  0
   -8.4233    8.8800  -11.3218 N   0  0  0  0  0  0  0  0  0  0  0  0
   -7.3328    9.8812   -8.0296 C   0  0  0  0  0  0  0  0  0  0  0  0
   -5.3004   14.2773  -13.1499 C   0  0  0  0  0  0  0  0  0  0  0  0
   -4.4346   15.5261  -12.8998 C   0  0  0  0  0  0  0  0  0  0  0  0
   -5.5896   13.5586  -12.0343 N   0  0  0  0  0  0  0  0  0  0  0  0
   -5.9706   10.4906   -7.7317 C   0  0  0  0  0  0  0  0  0  0  0  0
   -5.8616   11.7632   -7.1684 C   0  0  0  0  0  0  0  0  0  0  0  0
   -4.6051   12.3126   -6.9180 C   0  0  0  0  0  0  0  0  0  0  0  0
   -3.4544   11.5948   -7.2294 C   0  0  0  0  0  0  0  0  0  0  0  0
   -3.5626   10.3128   -7.8011 C   0  0  0  0  0  0  0  0  0  0  0  0
   -4.8160    9.7710   -8.0425 C   0  0  0  0  0  0  0  0  0  0  0  0
   -2.1083   12.1736   -6.9694 C   0  0  0  0  0  0  0  0  0  0  0  0
   -1.7503   13.4247   -6.4858 C   0  0  0  0  0  0  0  0  0  0  0  0
   -0.4131   13.4674   -6.4189 N   0  0  0  0  0  0  0  0  0  0  0  0
    0.1758   12.3735   -6.8057 N   0  0  0  0  0  0  0  0  0  0  0  0
   -0.8094   11.5620   -7.1791 C   0  0  0  0  0  0  0  0  0  0  0  0
    0.4060   14.5705   -5.9896 C   0  0  0  0  0  0  0  0  0  0  0  0
   -5.6528   14.0066  -14.2746 O   0  0  0  0  0  0  0  0  0  0  0  0
   -6.0747   12.2631   -9.8555 H   0  0  0  0  0  0  0  0  0  0  0  0
   -8.1361   10.1224  -13.9137 H   0  0  0  0  0  0  0  0  0  0  0  0
   -6.7956   12.2399  -14.0855 H   0  0  0  0  0  0  0  0  0  0  0  0
   -7.7779    7.8985   -9.8058 H   0  0  0  0  0  0  0  0  0  0  0  0
   -9.3978    8.9396  -11.5383 H   0  0  0  0  0  0  0  0  0  0  0  0
   -8.0279    9.5798   -7.2599 H   0  0  0  0  0  0  0  0  0  0  0  0
   -4.2517   16.0431  -13.8534 H   0  0  0  0  0  0  0  0  0  0  0  0
   -4.9593   16.2038  -12.2102 H   0  0  0  0  0  0  0  0  0  0  0  0
   -3.4743   15.2236  -12.4567 H   0  0  0  0  0  0  0  0  0  0  0  0
   -6.7526   12.3233   -6.9261 H   0  0  0  0  0  0  0  0  0  0  0  0
   -4.5246   13.2972   -6.4815 H   0  0  0  0  0  0  0  0  0  0  0  0
   -2.6730    9.7536   -8.0506 H   0  0  0  0  0  0  0  0  0  0  0  0
   -4.8993    8.7846   -8.4743 H   0  0  0  0  0  0  0  0  0  0  0  0
   -2.4278   14.2202   -6.2127 H   0  0  0  0  0  0  0  0  0  0  0  0
   -0.6614   10.5729   -7.5868 H   0  0  0  0  0  0  0  0  0  0  0  0
    1.4672   14.2904   -6.0634 H   0  0  0  0  0  0  0  0  0  0  0  0
    0.2117   15.4427   -6.6311 H   0  0  0  0  0  0  0  0  0  0  0  0
    0.1649   14.8218   -4.9462 H   0  0  0  0  0  0  0  0  0  0  0  0
   -6.1759   13.2137  -14.2608 H   0  0  0  0  0  0  0  0  0  0  0  0
  1  2  2  0  0  0  0
  1  4  1  0  0  0  0
  1 13  1  0  0  0  0
  2  6  1  0  0  0  0
  3  4  2  0  0  0  0
  3  5  1  0  0  0  0
  5  6  2  0  0  0  0
  5  9  1  0  0  0  0
  6  7  1  0  0  0  0
  7  8  1  0  0  0  0
  7 10  2  3  0  0  0
  8  9  1  0  0  0  0
 10 14  1  0  0  0  0
 11 12  1  0  0  0  0
 11 13  2  0  0  0  0
 11 26  1  0  0  0  0
 14 15  2  0  0  0  0
 14 19  1  0  0  0  0
 15 16  1  0  0  0  0
 16 17  2  0  0  0  0
 17 18  1  0  0  0  0
 17 20  1  0  0  0  0
 18 19  2  0  0  0  0
 20 21  2  0  0  0  0
 20 24  1  0  0  0  0
 21 22  1  0  0  0  0
 22 23  1  0  0  0  0
 22 25  1  0  0  0  0
 23 24  2  0  0  0  0
  2 27  1  0  0  0  0
  3 28  1  0  0  0  0
  4 29  1  0  0  0  0
  8 30  1  0  0  0  0
  9 31  1  0  0  0  0
 10 32  1  0  0  0  0
 12 33  1  0  0  0  0
 12 34  1  0  0  0  0
 12 35  1  0  0  0  0
 15 36  1  0  0  0  0
 16 37  1  0  0  0  0
 18 38  1  0  0  0  0
 19 39  1  0  0  0  0
 21 40  1  0  0  0  0
 24 41  1  0  0  0  0
 25 42  1  0  0  0  0
 25 43  1  0  0  0  0
 25 44  1  0  0  0  0
 26 45  1  0  0  0  0
M  END
> <Name>
24

> <IC50[uM]>
0.029

$$$$
24
  -OEChem-05192314333D
 Structure written by MMmdl.
 45 48  0     0  0  0  0  0  0999 V2000
   -6.3515   12.3530  -11.9813 C   0  0  0  0  0  0  0  0  0  0  0  0
   -6.5085   11.7912  -10.7247 C   0  0  0  0  0  0  0  0  0  0  0  0
   -7.6802   10.5716  -13.0438 C   0  0  0  0  0  0  0  0  0  0  0  0
   -6.9296   11.7657  -13.1245 C   0  0  0  0  0  0  0  0  0  0  0  0
   -7.7980   10.0044  -11.7669 C   0  0  0  0  0  0  0  0  0  0  0  0
   -7.2328   10.6109  -10.5989 C   0  0  0  0  0  0  0  0  0  0  0  0
   -7.6209    9.7375   -9.5162 C   0  0  0  0  0  0  0  0  0  0  0  0
   -8.2754    8.7446   -9.9970 N   0  0  0  0  0  0  0  0  0  0  0  0
   -8.4233    8.8800  -11.3218 N   0  0  0  0  0  0  0  0  0  0  0  0
   -7.3328    9.8812   -8.0296 C   0  0  0  0  0  0  0  0  0  0  0  0
   -5.3004   14.2773  -13.1499 C   0  0  0  0  0  0  0  0  0  0  0  0
   -4.4346   15.5261  -12.8998 C   0  0  0  0  0  0  0  0  0  0  0  0
   -5.5896   13.5586  -12.0343 N   0  0  0  0  0  0  0  0  0  0  0  0
   -5.9706   10.4906   -7.7317 C   0  0  0  0  0  0  0  0  0  0  0  0
   -5.8616   11.7632   -7.1684 C   0  0  0  0  0  0  0  0  0  0  0  0
   -4.6051   12.3126   -6.9180 C   0  0  0  0  0  0  0  0  0  0  0  0
   -3.4544   11.5948   -7.2294 C   0  0  0  0  0  0  0  0  0  0  0  0
   -3.5626   10.3128   -7.8011 C   0  0  0  0  0  0  0  0  0  0  0  0
   -4.8160    9.7710   -8.0425 C   0  0  0  0  0  0  0  0  0  0  0  0
   -2.1083   12.1736   -6.9694 C   0  0  0  0  0  0  0  0  0  0  0  0
   -1.7503   13.4247   -6.4858 C   0  0  0  0  0  0  0  0  0  0  0  0
   -0.4131   13.4674   -6.4189 N   0  0  0  0  0  0  0  0  0  0  0  0
    0.1758   12.3735   -6.8057 N   0  0  0  0  0  0  0  0  0  0  0  0
   -0.8094   11.5620   -7.1791 C   0  0  0  0  0  0  0  0  0  0  0  0
    0.4060   14.5705   -5.9896 C   0  0  0  0  0  0  0  0  0  0  0  0
   -5.6528   14.0066  -14.2746 O   0  0  0  0  0  0  0  0  0  0  0  0
   -5.5002   11.5939  -10.3317 H   0  0  0  0  0  0  0  0  0  0  0  0
   -7.0066   12.5435  -10.0954 H   0  0  0  0  0  0  0  0  0  0  0  0
   -8.1361   10.1224  -13.9137 H   0  0  0  0  0  0  0  0  0  0  0  0
   -6.7956   12.2399  -14.0855 H   0  0  0  0  0  0  0  0  0  0  0  0
   -8.6258    7.9778   -9.4591 H   0  0  0  0  0  0  0  0  0  0  0  0
   -8.1067   10.5245   -7.5855 H   0  0  0  0  0  0  0  0  0  0  0  0
   -7.3763    8.8835   -7.5684 H   0  0  0  0  0  0  0  0  0  0  0  0
   -4.2429   16.0373  -13.8548 H   0  0  0  0  0  0  0  0  0  0  0  0
   -4.9638   16.2086  -12.2185 H   0  0  0  0  0  0  0  0  0  0  0  0
   -3.4785   15.2246  -12.4471 H   0  0  0  0  0  0  0  0  0  0  0  0
   -6.7526   12.3233   -6.9261 H   0  0  0  0  0  0  0  0  0  0  0  0
   -4.5246   13.2972   -6.4815 H   0  0  0  0  0  0  0  0  0  0  0  0
   -2.6730    9.7536   -8.0506 H   0  0  0  0  0  0  0  0  0  0  0  0
   -4.8993    8.7846   -8.4743 H   0  0  0  0  0  0  0  0  0  0  0  0
   -2.4278   14.2202   -6.2127 H   0  0  0  0  0  0  0  0  0  0  0  0
   -0.6614   10.5729   -7.5868 H   0  0  0  0  0  0  0  0  0  0  0  0
    1.4672   14.2904   -6.0634 H   0  0  0  0  0  0  0  0  0  0  0  0
    0.2117   15.4427   -6.6311 H   0  0  0  0  0  0  0  0  0  0  0  0
    0.1649   14.8218   -4.9462 H   0  0  0  0  0  0  0  0  0  0  0  0
  1  2  1  0  0  0  0
  1  4  1  0  0  0  0
  1 13  2  0  0  0  0
  2  6  1  0  0  0  0
  3  4  2  0  0  0  0
  3  5  1  0  0  0  0
  5  6  1  0  0  0  0
  5  9  2  0  0  0  0
  6  7  2  0  0  0  0
  7  8  1  0  0  0  0
  7 10  1  0  0  0  0
  8  9  1  0  0  0  0
 10 14  1  0  0  0  0
 11 12  1  0  0  0  0
 11 13  1  0  0  0  0
 11 26  2  0  0  0  0
 14 15  2  0  0  0  0
 14 19  1  0  0  0  0
 15 16  1  0  0  0  0
 16 17  2  0  0  0  0
 17 18  1  0  0  0  0
 17 20  1  0  0  0  0
 18 19  2  0  0  0  0
 20 21  2  0  0  0  0
 20 24  1  0  0  0  0
 21 22  1  0  0  0  0
 22 23  1  0  0  0  0
 22 25  1  0  0  0  0
 23 24  2  0  0  0  0
  2 27  1  0  0  0  0
  2 28  1  0  0  0  0
  3 29  1  0  0  0  0
  4 30  1  0  0  0  0
  8 31  1  0  0  0  0
 10 32  1  0  0  0  0
 10 33  1  0  0  0  0
 12 34  1  0  0  0  0
 12 35  1  0  0  0  0
 12 36  1  0  0  0  0
 15 37  1  0  0  0  0
 16 38  1  0  0  0  0
 18 39  1  0  0  0  0
 19 40  1  0  0  0  0
 21 41  1  0  0  0  0
 24 42  1  0  0  0  0
 25 43  1  0  0  0  0
 25 44  1  0  0  0  0
 25 45  1  0  0  0  0
M  END
> <Name>
24

> <IC50[uM]>
0.029

$$$$
24
  -OEChem-05192314333D
 Structure written by MMmdl.
 45 48  0     0  0  0  0  0  0999 V2000
   -6.3515   12.3530  -11.9813 C   0  0  0  0  0  0  0  0  0  0  0  0
   -6.5085   11.7912  -10.7247 C   0  0  0  0  0  0  0  0  0  0  0  0
   -7.6802   10.5716  -13.0438 C   0  0  0  0  0  0  0  0  0  0  0  0
   -6.9296   11.7657  -13.1245 C   0  0  0  0  0  0  0  0  0  0  0  0
   -7.7980   10.0044  -11.7669 C   0  0  0  0  0  0  0  0  0  0  0  0
   -7.2328   10.6109  -10.5989 C   0  0  0  0  0  0  0  0  0  0  0  0
   -7.6209    9.7375   -9.5162 C   0  0  0  0  0  0  0  0  0  0  0  0
   -8.2754    8.7446   -9.9970 N   0  0  0  0  0  0  0  0  0  0  0  0
   -8.4233    8.8800  -11.3218 N   0  0  0  0  0  0  0  0  0  0  0  0
   -7.3328    9.8812   -8.0296 C   0  0  0  0  0  0  0  0  0  0  0  0
   -5.3004   14.2773  -13.1499 C   0  0  0  0  0  0  0  0  0  0  0  0
   -4.4346   15.5261  -12.8998 C   0  0  0  0  0  0  0  0  0  0  0  0
   -5.5896   13.5586  -12.0343 N   0  0  0  0  0  0  0  0  0  0  0  0
   -5.9706   10.4906   -7.7317 C   0  0  0  0  0  0  0  0  0  0  0  0
   -5.8616   11.7632   -7.1684 C   0  0  0  0  0  0  0  0  0  0  0  0
   -4.6051   12.3126   -6.9180 C   0  0  0  0  0  0  0  0  0  0  0  0
   -3.4544   11.5948   -7.2294 C   0  0  0  0  0  0  0  0  0  0  0  0
   -3.5626   10.3128   -7.8011 C   0  0  0  0  0  0  0  0  0  0  0  0
   -4.8160    9.7710   -8.0425 C   0  0  0  0  0  0  0  0  0  0  0  0
   -2.1083   12.1736   -6.9694 C   0  0  0  0  0  0  0  0  0  0  0  0
   -1.7503   13.4247   -6.4858 C   0  0  0  0  0  0  0  0  0  0  0  0
   -0.4131   13.4674   -6.4189 N   0  0  0  0  0  0  0  0  0  0  0  0
    0.1758   12.3735   -6.8057 N   0  0  0  0  0  0  0  0  0  0  0  0
   -0.8094   11.5620   -7.1791 C   0  0  0  0  0  0  0  0  0  0  0  0
    0.4060   14.5705   -5.9896 C   0  0  0  0  0  0  0  0  0  0  0  0
   -5.6528   14.0066  -14.2746 O   0  0  0  0  0  0  0  0  0  0  0  0
   -5.5002   11.5939  -10.3317 H   0  0  0  0  0  0  0  0  0  0  0  0
   -7.0066   12.5435  -10.0954 H   0  0  0  0  0  0  0  0  0  0  0  0
   -8.1361   10.1224  -13.9137 H   0  0  0  0  0  0  0  0  0  0  0  0
   -6.7956   12.2399  -14.0855 H   0  0  0  0  0  0  0  0  0  0  0  0
   -8.9253    8.2413  -11.9049 H   0  0  0  0  0  0  0  0  0  0  0  0
   -8.1067   10.5245   -7.5855 H   0  0  0  0  0  0  0  0  0  0  0  0
   -7.3763    8.8835   -7.5684 H   0  0  0  0  0  0  0  0  0  0  0  0
   -4.2429   16.0373  -13.8548 H   0  0  0  0  0  0  0  0  0  0  0  0
   -4.9638   16.2086  -12.2185 H   0  0  0  0  0  0  0  0  0  0  0  0
   -3.4785   15.2246  -12.4471 H   0  0  0  0  0  0  0  0  0  0  0  0
   -6.7526   12.3233   -6.9261 H   0  0  0  0  0  0  0  0  0  0  0  0
   -4.5246   13.2972   -6.4815 H   0  0  0  0  0  0  0  0  0  0  0  0
   -2.6730    9.7536   -8.0506 H   0  0  0  0  0  0  0  0  0  0  0  0
   -4.8993    8.7846   -8.4743 H   0  0  0  0  0  0  0  0  0  0  0  0
   -2.4278   14.2202   -6.2127 H   0  0  0  0  0  0  0  0  0  0  0  0
   -0.6614   10.5729   -7.5868 H   0  0  0  0  0  0  0  0  0  0  0  0
    1.4672   14.2904   -6.0634 H   0  0  0  0  0  0  0  0  0  0  0  0
    0.2117   15.4427   -6.6311 H   0  0  0  0  0  0  0  0  0  0  0  0
    0.1649   14.8218   -4.9462 H   0  0  0  0  0  0  0  0  0  0  0  0
  1  2  1  0  0  0  0
  1  4  1  0  0  0  0
  1 13  2  0  0  0  0
  2  6  1  0  0  0  0
  3  4  2  0  0  0  0
  3  5  1  0  0  0  0
  5  6  2  0  0  0  0
  5  9  1  0  0  0  0
  6  7  1  0  0  0  0
  7  8  2  0  0  0  0
  7 10  1  0  0  0  0
  8  9  1  0  0  0  0
 10 14  1  0  0  0  0
 11 12  1  0  0  0  0
 11 13  1  0  0  0  0
 11 26  2  0  0  0  0
 14 15  2  0  0  0  0
 14 19  1  0  0  0  0
 15 16  1  0  0  0  0
 16 17  2  0  0  0  0
 17 18  1  0  0  0  0
 17 20  1  0  0  0  0
 18 19  2  0  0  0  0
 20 21  2  0  0  0  0
 20 24  1  0  0  0  0
 21 22  1  0  0  0  0
 22 23  1  0  0  0  0
 22 25  1  0  0  0  0
 23 24  2  0  0  0  0
  2 27  1  0  0  0  0
  2 28  1  0  0  0  0
  3 29  1  0  0  0  0
  4 30  1  0  0  0  0
  9 31  1  0  0  0  0
 10 32  1  0  0  0  0
 10 33  1  0  0  0  0
 12 34  1  0  0  0  0
 12 35  1  0  0  0  0
 12 36  1  0  0  0  0
 15 37  1  0  0  0  0
 16 38  1  0  0  0  0
 18 39  1  0  0  0  0
 19 40  1  0  0  0  0
 21 41  1  0  0  0  0
 24 42  1  0  0  0  0
 25 43  1  0  0  0  0
 25 44  1  0  0  0  0
 25 45  1  0  0  0  0
M  END
> <Name>
24

> <IC50[uM]>
0.029

$$$$
24
  -OEChem-05192314333D
 Structure written by MMmdl.
 45 48  0     0  0  0  0  0  0999 V2000
   -6.3515   12.3530  -11.9813 C   0  0  0  0  0  0  0  0  0  0  0  0
   -6.5085   11.7912  -10.7247 C   0  0  0  0  0  0  0  0  0  0  0  0
   -7.6802   10.5716  -13.0438 C   0  0  0  0  0  0  0  0  0  0  0  0
   -6.9296   11.7657  -13.1245 C   0  0  0  0  0  0  0  0  0  0  0  0
   -7.7980   10.0044  -11.7669 C   0  0  0  0  0  0  0  0  0  0  0  0
   -7.2328   10.6109  -10.5989 C   0  0  0  0  0  0  0  0  0  0  0  0
   -7.6209    9.7375   -9.5162 C   0  0  0  0  0  0  0  0  0  0  0  0
   -8.2754    8.7446   -9.9970 N   0  0  0  0  0  0  0  0  0  0  0  0
   -8.4233    8.8800  -11.3218 N   0  0  0  0  0  0  0  0  0  0  0  0
   -7.3328    9.8812   -8.0296 C   0  0  0  0  0  0  0  0  0  0  0  0
   -5.3004   14.2773  -13.1499 C   0  0  0  0  0  0  0  0  0  0  0  0
   -4.4346   15.5261  -12.8998 C   0  0  0  0  0  0  0  0  0  0  0  0
   -5.5896   13.5586  -12.0343 N   0  0  0  0  0  0  0  0  0  0  0  0
   -5.9706   10.4906   -7.7317 C   0  0  0  0  0  0  0  0  0  0  0  0
   -5.8616   11.7632   -7.1684 C   0  0  0  0  0  0  0  0  0  0  0  0
   -4.6051   12.3126   -6.9180 C   0  0  0  0  0  0  0  0  0  0  0  0
   -3.4544   11.5948   -7.2294 C   0  0  0  0  0  0  0  0  0  0  0  0
   -3.5626   10.3128   -7.8011 C   0  0  0  0  0  0  0  0  0  0  0  0
   -4.8160    9.7710   -8.0425 C   0  0  0  0  0  0  0  0  0  0  0  0
   -2.1083   12.1736   -6.9694 C   0  0  0  0  0  0  0  0  0  0  0  0
   -1.7503   13.4247   -6.4858 C   0  0  0  0  0  0  0  0  0  0  0  0
   -0.4131   13.4674   -6.4189 N   0  0  0  0  0  0  0  0  0  0  0  0
    0.1758   12.3735   -6.8057 N   0  0  0  0  0  0  0  0  0  0  0  0
   -0.8094   11.5620   -7.1791 C   0  0  0  0  0  0  0  0  0  0  0  0
    0.4060   14.5705   -5.9896 C   0  0  0  0  0  0  0  0  0  0  0  0
   -5.6528   14.0066  -14.2746 O   0  0  0  0  0  0  0  0  0  0  0  0
   -6.0747   12.2631   -9.8555 H   0  0  0  0  0  0  0  0  0  0  0  0
   -8.6945   10.7862  -13.4115 H   0  0  0  0  0  0  0  0  0  0  0  0
   -7.2021    9.8287  -13.6992 H   0  0  0  0  0  0  0  0  0  0  0  0
   -7.5989   12.5237  -13.5575 H   0  0  0  0  0  0  0  0  0  0  0  0
   -6.1027   11.5654  -13.8217 H   0  0  0  0  0  0  0  0  0  0  0  0
   -8.6258    7.9778   -9.4591 H   0  0  0  0  0  0  0  0  0  0  0  0
   -8.0279    9.5798   -7.2599 H   0  0  0  0  0  0  0  0  0  0  0  0
   -4.2429   16.0373  -13.8548 H   0  0  0  0  0  0  0  0  0  0  0  0
   -4.9638   16.2086  -12.2185 H   0  0  0  0  0  0  0  0  0  0  0  0
   -3.4785   15.2246  -12.4471 H   0  0  0  0  0  0  0  0  0  0  0  0
   -6.7526   12.3233   -6.9261 H   0  0  0  0  0  0  0  0  0  0  0  0
   -4.5246   13.2972   -6.4815 H   0  0  0  0  0  0  0  0  0  0  0  0
   -2.6730    9.7536   -8.0506 H   0  0  0  0  0  0  0  0  0  0  0  0
   -4.8993    8.7846   -8.4743 H   0  0  0  0  0  0  0  0  0  0  0  0
   -2.4278   14.2202   -6.2127 H   0  0  0  0  0  0  0  0  0  0  0  0
   -0.6614   10.5729   -7.5868 H   0  0  0  0  0  0  0  0  0  0  0  0
    1.4672   14.2904   -6.0634 H   0  0  0  0  0  0  0  0  0  0  0  0
    0.2117   15.4427   -6.6311 H   0  0  0  0  0  0  0  0  0  0  0  0
    0.1649   14.8218   -4.9462 H   0  0  0  0  0  0  0  0  0  0  0  0
  1  2  1  0  0  0  0
  1  4  1  0  0  0  0
  1 13  2  0  0  0  0
  2  6  2  0  0  0  0
  3  4  1  0  0  0  0
  3  5  1  0  0  0  0
  5  6  1  0  0  0  0
  5  9  2  0  0  0  0
  6  7  1  0  0  0  0
  7  8  1  0  0  0  0
  7 10  2  3  0  0  0
  8  9  1  0  0  0  0
 10 14  1  0  0  0  0
 11 12  1  0  0  0  0
 11 13  1  0  0  0  0
 11 26  2  0  0  0  0
 14 15  2  0  0  0  0
 14 19  1  0  0  0  0
 15 16  1  0  0  0  0
 16 17  2  0  0  0  0
 17 18  1  0  0  0  0
 17 20  1  0  0  0  0
 18 19  2  0  0  0  0
 20 21  2  0  0  0  0
 20 24  1  0  0  0  0
 21 22  1  0  0  0  0
 22 23  1  0  0  0  0
 22 25  1  0  0  0  0
 23 24  2  0  0  0  0
  2 27  1  0  0  0  0
  3 28  1  0  0  0  0
  3 29  1  0  0  0  0
  4 30  1  0  0  0  0
  4 31  1  0  0  0  0
  8 32  1  0  0  0  0
 10 33  1  0  0  0  0
 12 34  1  0  0  0  0
 12 35  1  0  0  0  0
 12 36  1  0  0  0  0
 15 37  1  0  0  0  0
 16 38  1  0  0  0  0
 18 39  1  0  0  0  0
 19 40  1  0  0  0  0
 21 41  1  0  0  0  0
 24 42  1  0  0  0  0
 25 43  1  0  0  0  0
 25 44  1  0  0  0  0
 25 45  1  0  0  0  0
M  END
> <Name>
24

> <IC50[uM]>
0.029

$$$$
24
  -OEChem-05192314333D
 Structure written by MMmdl.
 45 48  0     0  0  0  0  0  0999 V2000
   -6.3515   12.3530  -11.9813 C   0  0  0  0  0  0  0  0  0  0  0  0
   -6.5085   11.7912  -10.7247 C   0  0  0  0  0  0  0  0  0  0  0  0
   -7.6802   10.5716  -13.0438 C   0  0  0  0  0  0  0  0  0  0  0  0
   -6.9296   11.7657  -13.1245 C   0  0  0  0  0  0  0  0  0  0  0  0
   -7.7980   10.0044  -11.7669 C   0  0  0  0  0  0  0  0  0  0  0  0
   -7.2328   10.6109  -10.5989 C   0  0  0  0  0  0  0  0  0  0  0  0
   -7.6209    9.7375   -9.5162 C   0  0  0  0  0  0  0  0  0  0  0  0
   -8.2754    8.7446   -9.9970 N   0  0  0  0  0  0  0  0  0  0  0  0
   -8.4233    8.8800  -11.3218 N   0  0  0  0  0  0  0  0  0  0  0  0
   -7.3328    9.8812   -8.0296 C   0  0  0  0  0  0  0  0  0  0  0  0
   -5.3004   14.2773  -13.1499 C   0  0  0  0  0  0  0  0  0  0  0  0
   -4.4346   15.5261  -12.8998 C   0  0  0  0  0  0  0  0  0  0  0  0
   -5.5896   13.5586  -12.0343 N   0  0  0  0  0  0  0  0  0  0  0  0
   -5.9706   10.4906   -7.7317 C   0  0  0  0  0  0  0  0  0  0  0  0
   -5.8616   11.7632   -7.1684 C   0  0  0  0  0  0  0  0  0  0  0  0
   -4.6051   12.3126   -6.9180 C   0  0  0  0  0  0  0  0  0  0  0  0
   -3.4544   11.5948   -7.2294 C   0  0  0  0  0  0  0  0  0  0  0  0
   -3.5626   10.3128   -7.8011 C   0  0  0  0  0  0  0  0  0  0  0  0
   -4.8160    9.7710   -8.0425 C   0  0  0  0  0  0  0  0  0  0  0  0
   -2.1083   12.1736   -6.9694 C   0  0  0  0  0  0  0  0  0  0  0  0
   -1.7503   13.4247   -6.4858 C   0  0  0  0  0  0  0  0  0  0  0  0
   -0.4131   13.4674   -6.4189 N   0  0  0  0  0  0  0  0  0  0  0  0
    0.1758   12.3735   -6.8057 N   0  0  0  0  0  0  0  0  0  0  0  0
   -0.8094   11.5620   -7.1791 C   0  0  0  0  0  0  0  0  0  0  0  0
    0.4060   14.5705   -5.9896 C   0  0  0  0  0  0  0  0  0  0  0  0
   -5.6528   14.0066  -14.2746 O   0  0  0  0  0  0  0  0  0  0  0  0
   -6.0747   12.2631   -9.8555 H   0  0  0  0  0  0  0  0  0  0  0  0
   -8.1361   10.1224  -13.9137 H   0  0  0  0  0  0  0  0  0  0  0  0
   -7.5989   12.5237  -13.5575 H   0  0  0  0  0  0  0  0  0  0  0  0
   -6.1027   11.5654  -13.8217 H   0  0  0  0  0  0  0  0  0  0  0  0
   -8.9253    8.2413  -11.9049 H   0  0  0  0  0  0  0  0  0  0  0  0
   -8.1067   10.5245   -7.5855 H   0  0  0  0  0  0  0  0  0  0  0  0
   -7.3763    8.8835   -7.5684 H   0  0  0  0  0  0  0  0  0  0  0  0
   -4.2429   16.0373  -13.8548 H   0  0  0  0  0  0  0  0  0  0  0  0
   -4.9638   16.2086  -12.2185 H   0  0  0  0  0  0  0  0  0  0  0  0
   -3.4785   15.2246  -12.4471 H   0  0  0  0  0  0  0  0  0  0  0  0
   -6.7526   12.3233   -6.9261 H   0  0  0  0  0  0  0  0  0  0  0  0
   -4.5246   13.2972   -6.4815 H   0  0  0  0  0  0  0  0  0  0  0  0
   -2.6730    9.7536   -8.0506 H   0  0  0  0  0  0  0  0  0  0  0  0
   -4.8993    8.7846   -8.4743 H   0  0  0  0  0  0  0  0  0  0  0  0
   -2.4278   14.2202   -6.2127 H   0  0  0  0  0  0  0  0  0  0  0  0
   -0.6614   10.5729   -7.5868 H   0  0  0  0  0  0  0  0  0  0  0  0
    1.4672   14.2904   -6.0634 H   0  0  0  0  0  0  0  0  0  0  0  0
    0.2117   15.4427   -6.6311 H   0  0  0  0  0  0  0  0  0  0  0  0
    0.1649   14.8218   -4.9462 H   0  0  0  0  0  0  0  0  0  0  0  0
  1  2  1  0  0  0  0
  1  4  1  0  0  0  0
  1 13  2  0  0  0  0
  2  6  2  0  0  0  0
  3  4  1  0  0  0  0
  3  5  2  0  0  0  0
  5  6  1  0  0  0  0
  5  9  1  0  0  0  0
  6  7  1  0  0  0  0
  7  8  2  0  0  0  0
  7 10  1  0  0  0  0
  8  9  1  0  0  0  0
 10 14  1  0  0  0  0
 11 12  1  0  0  0  0
 11 13  1  0  0  0  0
 11 26  2  0  0  0  0
 14 15  2  0  0  0  0
 14 19  1  0  0  0  0
 15 16  1  0  0  0  0
 16 17  2  0  0  0  0
 17 18  1  0  0  0  0
 17 20  1  0  0  0  0
 18 19  2  0  0  0  0
 20 21  2  0  0  0  0
 20 24  1  0  0  0  0
 21 22  1  0  0  0  0
 22 23  1  0  0  0  0
 22 25  1  0  0  0  0
 23 24  2  0  0  0  0
  2 27  1  0  0  0  0
  3 28  1  0  0  0  0
  4 29  1  0  0  0  0
  4 30  1  0  0  0  0
  9 31  1  0  0  0  0
 10 32  1  0  0  0  0
 10 33  1  0  0  0  0
 12 34  1  0  0  0  0
 12 35  1  0  0  0  0
 12 36  1  0  0  0  0
 15 37  1  0  0  0  0
 16 38  1  0  0  0  0
 18 39  1  0  0  0  0
 19 40  1  0  0  0  0
 21 41  1  0  0  0  0
 24 42  1  0  0  0  0
 25 43  1  0  0  0  0
 25 44  1  0  0  0  0
 25 45  1  0  0  0  0
M  END
> <Name>
24

> <IC50[uM]>
0.029

$$$$
24
  -OEChem-05192314333D
 Structure written by MMmdl.
 45 48  0     1  0  0  0  0  0999 V2000
   -6.3515   12.3530  -11.9813 C   0  0  3  0  0  0  0  0  0  0  0  0
   -6.5085   11.7912  -10.7247 C   0  0  0  0  0  0  0  0  0  0  0  0
   -7.6802   10.5716  -13.0438 C   0  0  0  0  0  0  0  0  0  0  0  0
   -6.9296   11.7657  -13.1245 C   0  0  0  0  0  0  0  0  0  0  0  0
   -7.7980   10.0044  -11.7669 C   0  0  0  0  0  0  0  0  0  0  0  0
   -7.2328   10.6109  -10.5989 C   0  0  0  0  0  0  0  0  0  0  0  0
   -7.6209    9.7375   -9.5162 C   0  0  0  0  0  0  0  0  0  0  0  0
   -8.2754    8.7446   -9.9970 N   0  0  0  0  0  0  0  0  0  0  0  0
   -8.4233    8.8800  -11.3218 N   0  0  0  0  0  0  0  0  0  0  0  0
   -7.3328    9.8812   -8.0296 C   0  0  0  0  0  0  0  0  0  0  0  0
   -5.3004   14.2773  -13.1499 C   0  0  0  0  0  0  0  0  0  0  0  0
   -4.4346   15.5261  -12.8998 C   0  0  0  0  0  0  0  0  0  0  0  0
   -5.5896   13.5586  -12.0343 N   0  0  0  0  0  0  0  0  0  0  0  0
   -5.9706   10.4906   -7.7317 C   0  0  0  0  0  0  0  0  0  0  0  0
   -5.8616   11.7632   -7.1684 C   0  0  0  0  0  0  0  0  0  0  0  0
   -4.6051   12.3126   -6.9180 C   0  0  0  0  0  0  0  0  0  0  0  0
   -3.4544   11.5948   -7.2294 C   0  0  0  0  0  0  0  0  0  0  0  0
   -3.5626   10.3128   -7.8011 C   0  0  0  0  0  0  0  0  0  0  0  0
   -4.8160    9.7710   -8.0425 C   0  0  0  0  0  0  0  0  0  0  0  0
   -2.1083   12.1736   -6.9694 C   0  0  0  0  0  0  0  0  0  0  0  0
   -1.7503   13.4247   -6.4858 C   0  0  0  0  0  0  0  0  0  0  0  0
   -0.4131   13.4674   -6.4189 N   0  0  0  0  0  0  0  0  0  0  0  0
    0.1758   12.3735   -6.8057 N   0  0  0  0  0  0  0  0  0  0  0  0
   -0.8094   11.5620   -7.1791 C   0  0  0  0  0  0  0  0  0  0  0  0
    0.4060   14.5705   -5.9896 C   0  0  0  0  0  0  0  0  0  0  0  0
   -5.6528   14.0066  -14.2746 O   0  0  0  0  0  0  0  0  0  0  0  0
   -5.4362   11.7628  -12.1356 H   0  0  0  0  0  0  0  0  0  0  0  0
   -6.0747   12.2631   -9.8555 H   0  0  0  0  0  0  0  0  0  0  0  0
   -8.1361   10.1224  -13.9137 H   0  0  0  0  0  0  0  0  0  0  0  0
   -6.7956   12.2399  -14.0855 H   0  0  0  0  0  0  0  0  0  0  0  0
   -8.6258    7.9778   -9.4591 H   0  0  0  0  0  0  0  0  0  0  0  0
   -8.0279    9.5798   -7.2599 H   0  0  0  0  0  0  0  0  0  0  0  0
   -4.2429   16.0373  -13.8548 H   0  0  0  0  0  0  0  0  0  0  0  0
   -4.9638   16.2086  -12.2185 H   0  0  0  0  0  0  0  0  0  0  0  0
   -3.4785   15.2246  -12.4471 H   0  0  0  0  0  0  0  0  0  0  0  0
   -5.2347   13.9076  -11.1670 H   0  0  0  0  0  0  0  0  0  0  0  0
   -6.7526   12.3233   -6.9261 H   0  0  0  0  0  0  0  0  0  0  0  0
   -4.5246   13.2972   -6.4815 H   0  0  0  0  0  0  0  0  0  0  0  0
   -2.6730    9.7536   -8.0506 H   0  0  0  0  0  0  0  0  0  0  0  0
   -4.8993    8.7846   -8.4743 H   0  0  0  0  0  0  0  0  0  0  0  0
   -2.4278   14.2202   -6.2127 H   0  0  0  0  0  0  0  0  0  0  0  0
   -0.6614   10.5729   -7.5868 H   0  0  0  0  0  0  0  0  0  0  0  0
    1.4672   14.2904   -6.0634 H   0  0  0  0  0  0  0  0  0  0  0  0
    0.2117   15.4427   -6.6311 H   0  0  0  0  0  0  0  0  0  0  0  0
    0.1649   14.8218   -4.9462 H   0  0  0  0  0  0  0  0  0  0  0  0
  1  2  1  0  0  0  0
  1  4  1  0  0  0  0
  1 13  1  0  0  0  0
  2  6  2  0  0  0  0
  3  4  2  0  0  0  0
  3  5  1  0  0  0  0
  5  6  1  0  0  0  0
  5  9  2  0  0  0  0
  6  7  1  0  0  0  0
  7  8  1  0  0  0  0
  7 10  2  3  0  0  0
  8  9  1  0  0  0  0
 10 14  1  0  0  0  0
 11 12  1  0  0  0  0
 11 13  1  0  0  0  0
 11 26  2  0  0  0  0
 14 15  2  0  0  0  0
 14 19  1  0  0  0  0
 15 16  1  0  0  0  0
 16 17  2  0  0  0  0
 17 18  1  0  0  0  0
 17 20  1  0  0  0  0
 18 19  2  0  0  0  0
 20 21  2  0  0  0  0
 20 24  1  0  0  0  0
 21 22  1  0  0  0  0
 22 23  1  0  0  0  0
 22 25  1  0  0  0  0
 23 24  2  0  0  0  0
  1 27  1  0  0  0  0
  2 28  1  0  0  0  0
  3 29  1  0  0  0  0
  4 30  1  0  0  0  0
  8 31  1  0  0  0  0
 10 32  1  0  0  0  0
 12 33  1  0  0  0  0
 12 34  1  0  0  0  0
 12 35  1  0  0  0  0
 13 36  1  0  0  0  0
 15 37  1  0  0  0  0
 16 38  1  0  0  0  0
 18 39  1  0  0  0  0
 19 40  1  0  0  0  0
 21 41  1  0  0  0  0
 24 42  1  0  0  0  0
 25 43  1  0  0  0  0
 25 44  1  0  0  0  0
 25 45  1  0  0  0  0
M  END
> <Name>
24

> <IC50[uM]>
0.029

$$$$
24
  -OEChem-05192314333D
 Structure written by MMmdl.
 45 48  0     0  0  0  0  0  0999 V2000
   -6.3515   12.3530  -11.9813 C   0  0  0  0  0  0  0  0  0  0  0  0
   -6.5085   11.7912  -10.7247 C   0  0  0  0  0  0  0  0  0  0  0  0
   -7.6802   10.5716  -13.0438 C   0  0  0  0  0  0  0  0  0  0  0  0
   -6.9296   11.7657  -13.1245 C   0  0  0  0  0  0  0  0  0  0  0  0
   -7.7980   10.0044  -11.7669 C   0  0  0  0  0  0  0  0  0  0  0  0
   -7.2328   10.6109  -10.5989 C   0  0  0  0  0  0  0  0  0  0  0  0
   -7.6209    9.7375   -9.5162 C   0  0  0  0  0  0  0  0  0  0  0  0
   -8.2754    8.7446   -9.9970 N   0  0  0  0  0  0  0  0  0  0  0  0
   -8.4233    8.8800  -11.3218 N   0  0  0  0  0  0  0  0  0  0  0  0
   -7.3328    9.8812   -8.0296 C   0  0  0  0  0  0  0  0  0  0  0  0
   -5.3004   14.2773  -13.1499 C   0  0  0  0  0  0  0  0  0  0  0  0
   -4.4346   15.5261  -12.8998 C   0  0  0  0  0  0  0  0  0  0  0  0
   -5.5896   13.5586  -12.0343 N   0  0  0  0  0  0  0  0  0  0  0  0
   -5.9706   10.4906   -7.7317 C   0  0  0  0  0  0  0  0  0  0  0  0
   -5.8616   11.7632   -7.1684 C   0  0  0  0  0  0  0  0  0  0  0  0
   -4.6051   12.3126   -6.9180 C   0  0  0  0  0  0  0  0  0  0  0  0
   -3.4544   11.5948   -7.2294 C   0  0  0  0  0  0  0  0  0  0  0  0
   -3.5626   10.3128   -7.8011 C   0  0  0  0  0  0  0  0  0  0  0  0
   -4.8160    9.7710   -8.0425 C   0  0  0  0  0  0  0  0  0  0  0  0
   -2.1083   12.1736   -6.9694 C   0  0  0  0  0  0  0  0  0  0  0  0
   -1.7503   13.4247   -6.4858 C   0  0  0  0  0  0  0  0  0  0  0  0
   -0.4131   13.4674   -6.4189 N   0  0  0  0  0  0  0  0  0  0  0  0
    0.1758   12.3735   -6.8057 N   0  0  0  0  0  0  0  0  0  0  0  0
   -0.8094   11.5620   -7.1791 C   0  0  0  0  0  0  0  0  0  0  0  0
    0.4060   14.5705   -5.9896 C   0  0  0  0  0  0  0  0  0  0  0  0
   -5.6528   14.0066  -14.2746 O   0  0  0  0  0  0  0  0  0  0  0  0
   -6.0747   12.2631   -9.8555 H   0  0  0  0  0  0  0  0  0  0  0  0
   -8.6945   10.7862  -13.4115 H   0  0  0  0  0  0  0  0  0  0  0  0
   -7.2021    9.8287  -13.6992 H   0  0  0  0  0  0  0  0  0  0  0  0
   -6.7956   12.2399  -14.0855 H   0  0  0  0  0  0  0  0  0  0  0  0
   -8.6258    7.9778   -9.4591 H   0  0  0  0  0  0  0  0  0  0  0  0
   -8.0279    9.5798   -7.2599 H   0  0  0  0  0  0  0  0  0  0  0  0
   -4.2429   16.0373  -13.8548 H   0  0  0  0  0  0  0  0  0  0  0  0
   -4.9638   16.2086  -12.2185 H   0  0  0  0  0  0  0  0  0  0  0  0
   -3.4785   15.2246  -12.4471 H   0  0  0  0  0  0  0  0  0  0  0  0
   -5.2347   13.9076  -11.1670 H   0  0  0  0  0  0  0  0  0  0  0  0
   -6.7526   12.3233   -6.9261 H   0  0  0  0  0  0  0  0  0  0  0  0
   -4.5246   13.2972   -6.4815 H   0  0  0  0  0  0  0  0  0  0  0  0
   -2.6730    9.7536   -8.0506 H   0  0  0  0  0  0  0  0  0  0  0  0
   -4.8993    8.7846   -8.4743 H   0  0  0  0  0  0  0  0  0  0  0  0
   -2.4278   14.2202   -6.2127 H   0  0  0  0  0  0  0  0  0  0  0  0
   -0.6614   10.5729   -7.5868 H   0  0  0  0  0  0  0  0  0  0  0  0
    1.4672   14.2904   -6.0634 H   0  0  0  0  0  0  0  0  0  0  0  0
    0.2117   15.4427   -6.6311 H   0  0  0  0  0  0  0  0  0  0  0  0
    0.1649   14.8218   -4.9462 H   0  0  0  0  0  0  0  0  0  0  0  0
  1  2  1  0  0  0  0
  1  4  2  0  0  0  0
  1 13  1  0  0  0  0
  2  6  2  0  0  0  0
  3  4  1  0  0  0  0
  3  5  1  0  0  0  0
  5  6  1  0  0  0  0
  5  9  2  0  0  0  0
  6  7  1  0  0  0  0
  7  8  1  0  0  0  0
  7 10  2  3  0  0  0
  8  9  1  0  0  0  0
 10 14  1  0  0  0  0
 11 12  1  0  0  0  0
 11 13  1  0  0  0  0
 11 26  2  0  0  0  0
 14 15  2  0  0  0  0
 14 19  1  0  0  0  0
 15 16  1  0  0  0  0
 16 17  2  0  0  0  0
 17 18  1  0  0  0  0
 17 20  1  0  0  0  0
 18 19  2  0  0  0  0
 20 21  2  0  0  0  0
 20 24  1  0  0  0  0
 21 22  1  0  0  0  0
 22 23  1  0  0  0  0
 22 25  1  0  0  0  0
 23 24  2  0  0  0  0
  2 27  1  0  0  0  0
  3 28  1  0  0  0  0
  3 29  1  0  0  0  0
  4 30  1  0  0  0  0
  8 31  1  0  0  0  0
 10 32  1  0  0  0  0
 12 33  1  0  0  0  0
 12 34  1  0  0  0  0
 12 35  1  0  0  0  0
 13 36  1  0  0  0  0
 15 37  1  0  0  0  0
 16 38  1  0  0  0  0
 18 39  1  0  0  0  0
 19 40  1  0  0  0  0
 21 41  1  0  0  0  0
 24 42  1  0  0  0  0
 25 43  1  0  0  0  0
 25 44  1  0  0  0  0
 25 45  1  0  0  0  0
M  END
> <Name>
24

> <IC50[uM]>
0.029

$$$$
24
  -OEChem-05192314333D
 Structure written by MMmdl.
 45 48  0     1  0  0  0  0  0999 V2000
   -6.3515   12.3530  -11.9813 C   0  0  3  0  0  0  0  0  0  0  0  0
   -6.5085   11.7912  -10.7247 C   0  0  0  0  0  0  0  0  0  0  0  0
   -7.6802   10.5716  -13.0438 C   0  0  0  0  0  0  0  0  0  0  0  0
   -6.9296   11.7657  -13.1245 C   0  0  0  0  0  0  0  0  0  0  0  0
   -7.7980   10.0044  -11.7669 C   0  0  0  0  0  0  0  0  0  0  0  0
   -7.2328   10.6109  -10.5989 C   0  0  0  0  0  0  0  0  0  0  0  0
   -7.6209    9.7375   -9.5162 C   0  0  0  0  0  0  0  0  0  0  0  0
   -8.2754    8.7446   -9.9970 N   0  0  0  0  0  0  0  0  0  0  0  0
   -8.4233    8.8800  -11.3218 N   0  0  0  0  0  0  0  0  0  0  0  0
   -7.3328    9.8812   -8.0296 C   0  0  0  0  0  0  0  0  0  0  0  0
   -5.3004   14.2773  -13.1499 C   0  0  0  0  0  0  0  0  0  0  0  0
   -4.4346   15.5261  -12.8998 C   0  0  0  0  0  0  0  0  0  0  0  0
   -5.5896   13.5586  -12.0343 N   0  0  0  0  0  0  0  0  0  0  0  0
   -5.9706   10.4906   -7.7317 C   0  0  0  0  0  0  0  0  0  0  0  0
   -5.8616   11.7632   -7.1684 C   0  0  0  0  0  0  0  0  0  0  0  0
   -4.6051   12.3126   -6.9180 C   0  0  0  0  0  0  0  0  0  0  0  0
   -3.4544   11.5948   -7.2294 C   0  0  0  0  0  0  0  0  0  0  0  0
   -3.5626   10.3128   -7.8011 C   0  0  0  0  0  0  0  0  0  0  0  0
   -4.8160    9.7710   -8.0425 C   0  0  0  0  0  0  0  0  0  0  0  0
   -2.1083   12.1736   -6.9694 C   0  0  0  0  0  0  0  0  0  0  0  0
   -1.7503   13.4247   -6.4858 C   0  0  0  0  0  0  0  0  0  0  0  0
   -0.4131   13.4674   -6.4189 N   0  0  0  0  0  0  0  0  0  0  0  0
    0.1758   12.3735   -6.8057 N   0  0  0  0  0  0  0  0  0  0  0  0
   -0.8094   11.5620   -7.1791 C   0  0  0  0  0  0  0  0  0  0  0  0
    0.4060   14.5705   -5.9896 C   0  0  0  0  0  0  0  0  0  0  0  0
   -5.6528   14.0066  -14.2746 O   0  0  0  0  0  0  0  0  0  0  0  0
   -5.4362   11.7628  -12.1356 H   0  0  0  0  0  0  0  0  0  0  0  0
   -6.0747   12.2631   -9.8555 H   0  0  0  0  0  0  0  0  0  0  0  0
   -8.1361   10.1224  -13.9137 H   0  0  0  0  0  0  0  0  0  0  0  0
   -6.7956   12.2399  -14.0855 H   0  0  0  0  0  0  0  0  0  0  0  0
   -8.6258    7.9778   -9.4591 H   0  0  0  0  0  0  0  0  0  0  0  0
   -8.0279    9.5798   -7.2599 H   0  0  0  0  0  0  0  0  0  0  0  0
   -4.2517   16.0431  -13.8534 H   0  0  0  0  0  0  0  0  0  0  0  0
   -4.9593   16.2038  -12.2102 H   0  0  0  0  0  0  0  0  0  0  0  0
   -3.4743   15.2236  -12.4567 H   0  0  0  0  0  0  0  0  0  0  0  0
   -6.7526   12.3233   -6.9261 H   0  0  0  0  0  0  0  0  0  0  0  0
   -4.5246   13.2972   -6.4815 H   0  0  0  0  0  0  0  0  0  0  0  0
   -2.6730    9.7536   -8.0506 H   0  0  0  0  0  0  0  0  0  0  0  0
   -4.8993    8.7846   -8.4743 H   0  0  0  0  0  0  0  0  0  0  0  0
   -2.4278   14.2202   -6.2127 H   0  0  0  0  0  0  0  0  0  0  0  0
   -0.6614   10.5729   -7.5868 H   0  0  0  0  0  0  0  0  0  0  0  0
    1.4672   14.2904   -6.0634 H   0  0  0  0  0  0  0  0  0  0  0  0
    0.2117   15.4427   -6.6311 H   0  0  0  0  0  0  0  0  0  0  0  0
    0.1649   14.8218   -4.9462 H   0  0  0  0  0  0  0  0  0  0  0  0
   -6.1759   13.2137  -14.2608 H   0  0  0  0  0  0  0  0  0  0  0  0
  1  2  1  0  0  0  0
  1  4  1  0  0  0  0
  1 13  1  0  0  0  0
  2  6  2  0  0  0  0
  3  4  2  0  0  0  0
  3  5  1  0  0  0  0
  5  6  1  0  0  0  0
  5  9  2  0  0  0  0
  6  7  1  0  0  0  0
  7  8  1  0  0  0  0
  7 10  2  3  0  0  0
  8  9  1  0  0  0  0
 10 14  1  0  0  0  0
 11 12  1  0  0  0  0
 11 13  2  0  0  0  0
 11 26  1  0  0  0  0
 14 15  2  0  0  0  0
 14 19  1  0  0  0  0
 15 16  1  0  0  0  0
 16 17  2  0  0  0  0
 17 18  1  0  0  0  0
 17 20  1  0  0  0  0
 18 19  2  0  0  0  0
 20 21  2  0  0  0  0
 20 24  1  0  0  0  0
 21 22  1  0  0  0  0
 22 23  1  0  0  0  0
 22 25  1  0  0  0  0
 23 24  2  0  0  0  0
  1 27  1  0  0  0  0
  2 28  1  0  0  0  0
  3 29  1  0  0  0  0
  4 30  1  0  0  0  0
  8 31  1  0  0  0  0
 10 32  1  0  0  0  0
 12 33  1  0  0  0  0
 12 34  1  0  0  0  0
 12 35  1  0  0  0  0
 15 36  1  0  0  0  0
 16 37  1  0  0  0  0
 18 38  1  0  0  0  0
 19 39  1  0  0  0  0
 21 40  1  0  0  0  0
 24 41  1  0  0  0  0
 25 42  1  0  0  0  0
 25 43  1  0  0  0  0
 25 44  1  0  0  0  0
 26 45  1  0  0  0  0
M  END
> <Name>
24

> <IC50[uM]>
0.029

$$$$
24
  -OEChem-05192314333D
 Structure written by MMmdl.
 45 48  0     0  0  0  0  0  0999 V2000
   -6.3515   12.3530  -11.9813 C   0  0  0  0  0  0  0  0  0  0  0  0
   -6.5085   11.7912  -10.7247 C   0  0  0  0  0  0  0  0  0  0  0  0
   -7.6802   10.5716  -13.0438 C   0  0  0  0  0  0  0  0  0  0  0  0
   -6.9296   11.7657  -13.1245 C   0  0  0  0  0  0  0  0  0  0  0  0
   -7.7980   10.0044  -11.7669 C   0  0  0  0  0  0  0  0  0  0  0  0
   -7.2328   10.6109  -10.5989 C   0  0  0  0  0  0  0  0  0  0  0  0
   -7.6209    9.7375   -9.5162 C   0  0  0  0  0  0  0  0  0  0  0  0
   -8.2754    8.7446   -9.9970 N   0  0  0  0  0  0  0  0  0  0  0  0
   -8.4233    8.8800  -11.3218 N   0  0  0  0  0  0  0  0  0  0  0  0
   -7.3328    9.8812   -8.0296 C   0  0  0  0  0  0  0  0  0  0  0  0
   -5.3004   14.2773  -13.1499 C   0  0  0  0  0  0  0  0  0  0  0  0
   -4.4346   15.5261  -12.8998 C   0  0  0  0  0  0  0  0  0  0  0  0
   -5.5896   13.5586  -12.0343 N   0  0  0  0  0  0  0  0  0  0  0  0
   -5.9706   10.4906   -7.7317 C   0  0  0  0  0  0  0  0  0  0  0  0
   -5.8616   11.7632   -7.1684 C   0  0  0  0  0  0  0  0  0  0  0  0
   -4.6051   12.3126   -6.9180 C   0  0  0  0  0  0  0  0  0  0  0  0
   -3.4544   11.5948   -7.2294 C   0  0  0  0  0  0  0  0  0  0  0  0
   -3.5626   10.3128   -7.8011 C   0  0  0  0  0  0  0  0  0  0  0  0
   -4.8160    9.7710   -8.0425 C   0  0  0  0  0  0  0  0  0  0  0  0
   -2.1083   12.1736   -6.9694 C   0  0  0  0  0  0  0  0  0  0  0  0
   -1.7503   13.4247   -6.4858 C   0  0  0  0  0  0  0  0  0  0  0  0
   -0.4131   13.4674   -6.4189 N   0  0  0  0  0  0  0  0  0  0  0  0
    0.1758   12.3735   -6.8057 N   0  0  0  0  0  0  0  0  0  0  0  0
   -0.8094   11.5620   -7.1791 C   0  0  0  0  0  0  0  0  0  0  0  0
    0.4060   14.5705   -5.9896 C   0  0  0  0  0  0  0  0  0  0  0  0
   -5.6528   14.0066  -14.2746 O   0  0  0  0  0  0  0  0  0  0  0  0
   -6.0747   12.2631   -9.8555 H   0  0  0  0  0  0  0  0  0  0  0  0
   -8.6945   10.7862  -13.4115 H   0  0  0  0  0  0  0  0  0  0  0  0
   -7.2021    9.8287  -13.6992 H   0  0  0  0  0  0  0  0  0  0  0  0
   -6.7956   12.2399  -14.0855 H   0  0  0  0  0  0  0  0  0  0  0  0
   -8.6258    7.9778   -9.4591 H   0  0  0  0  0  0  0  0  0  0  0  0
   -8.0279    9.5798   -7.2599 H   0  0  0  0  0  0  0  0  0  0  0  0
   -4.2517   16.0431  -13.8534 H   0  0  0  0  0  0  0  0  0  0  0  0
   -4.9593   16.2038  -12.2102 H   0  0  0  0  0  0  0  0  0  0  0  0
   -3.4743   15.2236  -12.4567 H   0  0  0  0  0  0  0  0  0  0  0  0
   -6.7526   12.3233   -6.9261 H   0  0  0  0  0  0  0  0  0  0  0  0
   -4.5246   13.2972   -6.4815 H   0  0  0  0  0  0  0  0  0  0  0  0
   -2.6730    9.7536   -8.0506 H   0  0  0  0  0  0  0  0  0  0  0  0
   -4.8993    8.7846   -8.4743 H   0  0  0  0  0  0  0  0  0  0  0  0
   -2.4278   14.2202   -6.2127 H   0  0  0  0  0  0  0  0  0  0  0  0
   -0.6614   10.5729   -7.5868 H   0  0  0  0  0  0  0  0  0  0  0  0
    1.4672   14.2904   -6.0634 H   0  0  0  0  0  0  0  0  0  0  0  0
    0.2117   15.4427   -6.6311 H   0  0  0  0  0  0  0  0  0  0  0  0
    0.1649   14.8218   -4.9462 H   0  0  0  0  0  0  0  0  0  0  0  0
   -6.1759   13.2137  -14.2608 H   0  0  0  0  0  0  0  0  0  0  0  0
  1  2  1  0  0  0  0
  1  4  2  0  0  0  0
  1 13  1  0  0  0  0
  2  6  2  0  0  0  0
  3  4  1  0  0  0  0
  3  5  1  0  0  0  0
  5  6  1  0  0  0  0
  5  9  2  0  0  0  0
  6  7  1  0  0  0  0
  7  8  1  0  0  0  0
  7 10  2  3  0  0  0
  8  9  1  0  0  0  0
 10 14  1  0  0  0  0
 11 12  1  0  0  0  0
 11 13  2  0  0  0  0
 11 26  1  0  0  0  0
 14 15  2  0  0  0  0
 14 19  1  0  0  0  0
 15 16  1  0  0  0  0
 16 17  2  0  0  0  0
 17 18  1  0  0  0  0
 17 20  1  0  0  0  0
 18 19  2  0  0  0  0
 20 21  2  0  0  0  0
 20 24  1  0  0  0  0
 21 22  1  0  0  0  0
 22 23  1  0  0  0  0
 22 25  1  0  0  0  0
 23 24  2  0  0  0  0
  2 27  1  0  0  0  0
  3 28  1  0  0  0  0
  3 29  1  0  0  0  0
  4 30  1  0  0  0  0
  8 31  1  0  0  0  0
 10 32  1  0  0  0  0
 12 33  1  0  0  0  0
 12 34  1  0  0  0  0
 12 35  1  0  0  0  0
 15 36  1  0  0  0  0
 16 37  1  0  0  0  0
 18 38  1  0  0  0  0
 19 39  1  0  0  0  0
 21 40  1  0  0  0  0
 24 41  1  0  0  0  0
 25 42  1  0  0  0  0
 25 43  1  0  0  0  0
 25 44  1  0  0  0  0
 26 45  1  0  0  0  0
M  END
> <Name>
24

> <IC50[uM]>
0.029

$$$$
24
  -OEChem-05192314333D
 Structure written by MMmdl.
 45 48  0     1  0  0  0  0  0999 V2000
   -6.3515   12.3530  -11.9813 C   0  0  0  0  0  0  0  0  0  0  0  0
   -6.5085   11.7912  -10.7247 C   0  0  0  0  0  0  0  0  0  0  0  0
   -7.6802   10.5716  -13.0438 C   0  0  0  0  0  0  0  0  0  0  0  0
   -6.9296   11.7657  -13.1245 C   0  0  0  0  0  0  0  0  0  0  0  0
   -7.7980   10.0044  -11.7669 C   0  0  0  0  0  0  0  0  0  0  0  0
   -7.2328   10.6109  -10.5989 C   0  0  0  0  0  0  0  0  0  0  0  0
   -7.6209    9.7375   -9.5162 C   0  0  0  0  0  0  0  0  0  0  0  0
   -8.2754    8.7446   -9.9970 N   0  0  0  0  0  0  0  0  0  0  0  0
   -8.4233    8.8800  -11.3218 N   0  0  0  0  0  0  0  0  0  0  0  0
   -7.3328    9.8812   -8.0296 C   0  0  0  0  0  0  0  0  0  0  0  0
   -5.3004   14.2773  -13.1499 C   0  0  0  0  0  0  0  0  0  0  0  0
   -4.4346   15.5261  -12.8998 C   0  0  0  0  0  0  0  0  0  0  0  0
   -5.5896   13.5586  -12.0343 N   0  0  0  0  0  0  0  0  0  0  0  0
   -5.9706   10.4906   -7.7317 C   0  0  0  0  0  0  0  0  0  0  0  0
   -5.8616   11.7632   -7.1684 C   0  0  0  0  0  0  0  0  0  0  0  0
   -4.6051   12.3126   -6.9180 C   0  0  0  0  0  0  0  0  0  0  0  0
   -3.4544   11.5948   -7.2294 C   0  0  0  0  0  0  0  0  0  0  0  0
   -3.5626   10.3128   -7.8011 C   0  0  0  0  0  0  0  0  0  0  0  0
   -4.8160    9.7710   -8.0425 C   0  0  0  0  0  0  0  0  0  0  0  0
   -2.1083   12.1736   -6.9694 C   0  0  0  0  0  0  0  0  0  0  0  0
   -1.7503   13.4247   -6.4858 C   0  0  0  0  0  0  0  0  0  0  0  0
   -0.4131   13.4674   -6.4189 N   0  0  3  0  0  0  0  0  0  0  0  0
    0.1758   12.3735   -6.8057 N   0  0  0  0  0  0  0  0  0  0  0  0
   -0.8094   11.5620   -7.1791 C   0  0  0  0  0  0  0  0  0  0  0  0
    0.4060   14.5705   -5.9896 C   0  0  0  0  0  0  0  0  0  0  0  0
   -5.6528   14.0066  -14.2746 O   0  0  0  0  0  0  0  0  0  0  0  0
   -6.0747   12.2631   -9.8555 H   0  0  0  0  0  0  0  0  0  0  0  0
   -8.1361   10.1224  -13.9137 H   0  0  0  0  0  0  0  0  0  0  0  0
   -6.7956   12.2399  -14.0855 H   0  0  0  0  0  0  0  0  0  0  0  0
   -8.6258    7.9778   -9.4591 H   0  0  0  0  0  0  0  0  0  0  0  0
   -8.0279    9.5798   -7.2599 H   0  0  0  0  0  0  0  0  0  0  0  0
   -4.2429   16.0373  -13.8548 H   0  0  0  0  0  0  0  0  0  0  0  0
   -4.9638   16.2086  -12.2185 H   0  0  0  0  0  0  0  0  0  0  0  0
   -3.4785   15.2246  -12.4471 H   0  0  0  0  0  0  0  0  0  0  0  0
   -5.2347   13.9076  -11.1670 H   0  0  0  0  0  0  0  0  0  0  0  0
   -6.7526   12.3233   -6.9261 H   0  0  0  0  0  0  0  0  0  0  0  0
   -4.5246   13.2972   -6.4815 H   0  0  0  0  0  0  0  0  0  0  0  0
   -2.6730    9.7536   -8.0506 H   0  0  0  0  0  0  0  0  0  0  0  0
   -4.8993    8.7846   -8.4743 H   0  0  0  0  0  0  0  0  0  0  0  0
   -2.1167   14.2081   -7.1655 H   0  0  0  0  0  0  0  0  0  0  0  0
   -2.1807   13.5768   -5.4850 H   0  0  0  0  0  0  0  0  0  0  0  0
   -0.6614   10.5729   -7.5868 H   0  0  0  0  0  0  0  0  0  0  0  0
    1.4672   14.2904   -6.0634 H   0  0  0  0  0  0  0  0  0  0  0  0
    0.2117   15.4427   -6.6311 H   0  0  0  0  0  0  0  0  0  0  0  0
    0.1649   14.8218   -4.9462 H   0  0  0  0  0  0  0  0  0  0  0  0
  1  2  2  0  0  0  0
  1  4  1  0  0  0  0
  1 13  1  0  0  0  0
  2  6  1  0  0  0  0
  3  4  2  0  0  0  0
  3  5  1  0  0  0  0
  5  6  1  0  0  0  0
  5  9  2  0  0  0  0
  6  7  2  0  0  0  0
  7  8  1  0  0  0  0
  7 10  1  0  0  0  0
  8  9  1  0  0  0  0
 10 14  2  0  0  0  0
 11 12  1  0  0  0  0
 11 13  1  0  0  0  0
 11 26  2  0  0  0  0
 14 15  1  0  0  0  0
 14 19  1  0  0  0  0
 15 16  2  0  0  0  0
 16 17  1  0  0  0  0
 17 18  1  0  0  0  0
 17 20  2  0  0  0  0
 18 19  2  0  0  0  0
 20 21  1  0  0  0  0
 20 24  1  0  0  0  0
 21 22  1  0  0  0  0
 22 23  1  0  0  0  0
 22 25  1  0  0  0  0
 23 24  2  0  0  0  0
  2 27  1  0  0  0  0
  3 28  1  0  0  0  0
  4 29  1  0  0  0  0
  8 30  1  0  0  0  0
 10 31  1  0  0  0  0
 12 32  1  0  0  0  0
 12 33  1  0  0  0  0
 12 34  1  0  0  0  0
 13 35  1  0  0  0  0
 15 36  1  0  0  0  0
 16 37  1  0  0  0  0
 18 38  1  0  0  0  0
 19 39  1  0  0  0  0
 21 40  1  0  0  0  0
 21 41  1  0  0  0  0
 24 42  1  0  0  0  0
 25 43  1  0  0  0  0
 25 44  1  0  0  0  0
 25 45  1  0  0  0  0
M  END
> <Name>
24

> <IC50[uM]>
0.029

$$$$
24
  -OEChem-05192314333D
 Structure written by MMmdl.
 45 48  0     1  0  0  0  0  0999 V2000
   -6.3515   12.3530  -11.9813 C   0  0  0  0  0  0  0  0  0  0  0  0
   -6.5085   11.7912  -10.7247 C   0  0  0  0  0  0  0  0  0  0  0  0
   -7.6802   10.5716  -13.0438 C   0  0  0  0  0  0  0  0  0  0  0  0
   -6.9296   11.7657  -13.1245 C   0  0  0  0  0  0  0  0  0  0  0  0
   -7.7980   10.0044  -11.7669 C   0  0  0  0  0  0  0  0  0  0  0  0
   -7.2328   10.6109  -10.5989 C   0  0  0  0  0  0  0  0  0  0  0  0
   -7.6209    9.7375   -9.5162 C   0  0  0  0  0  0  0  0  0  0  0  0
   -8.2754    8.7446   -9.9970 N   0  0  0  0  0  0  0  0  0  0  0  0
   -8.4233    8.8800  -11.3218 N   0  0  0  0  0  0  0  0  0  0  0  0
   -7.3328    9.8812   -8.0296 C   0  0  0  0  0  0  0  0  0  0  0  0
   -5.3004   14.2773  -13.1499 C   0  0  0  0  0  0  0  0  0  0  0  0
   -4.4346   15.5261  -12.8998 C   0  0  0  0  0  0  0  0  0  0  0  0
   -5.5896   13.5586  -12.0343 N   0  0  0  0  0  0  0  0  0  0  0  0
   -5.9706   10.4906   -7.7317 C   0  0  0  0  0  0  0  0  0  0  0  0
   -5.8616   11.7632   -7.1684 C   0  0  0  0  0  0  0  0  0  0  0  0
   -4.6051   12.3126   -6.9180 C   0  0  0  0  0  0  0  0  0  0  0  0
   -3.4544   11.5948   -7.2294 C   0  0  0  0  0  0  0  0  0  0  0  0
   -3.5626   10.3128   -7.8011 C   0  0  0  0  0  0  0  0  0  0  0  0
   -4.8160    9.7710   -8.0425 C   0  0  0  0  0  0  0  0  0  0  0  0
   -2.1083   12.1736   -6.9694 C   0  0  0  0  0  0  0  0  0  0  0  0
   -1.7503   13.4247   -6.4858 C   0  0  0  0  0  0  0  0  0  0  0  0
   -0.4131   13.4674   -6.4189 N   0  0  3  0  0  0  0  0  0  0  0  0
    0.1758   12.3735   -6.8057 N   0  0  0  0  0  0  0  0  0  0  0  0
   -0.8094   11.5620   -7.1791 C   0  0  0  0  0  0  0  0  0  0  0  0
    0.4060   14.5705   -5.9896 C   0  0  0  0  0  0  0  0  0  0  0  0
   -5.6528   14.0066  -14.2746 O   0  0  0  0  0  0  0  0  0  0  0  0
   -6.0747   12.2631   -9.8555 H   0  0  0  0  0  0  0  0  0  0  0  0
   -8.1361   10.1224  -13.9137 H   0  0  0  0  0  0  0  0  0  0  0  0
   -6.7956   12.2399  -14.0855 H   0  0  0  0  0  0  0  0  0  0  0  0
   -8.9253    8.2413  -11.9049 H   0  0  0  0  0  0  0  0  0  0  0  0
   -8.0279    9.5798   -7.2599 H   0  0  0  0  0  0  0  0  0  0  0  0
   -4.2429   16.0373  -13.8548 H   0  0  0  0  0  0  0  0  0  0  0  0
   -4.9638   16.2086  -12.2185 H   0  0  0  0  0  0  0  0  0  0  0  0
   -3.4785   15.2246  -12.4471 H   0  0  0  0  0  0  0  0  0  0  0  0
   -5.2347   13.9076  -11.1670 H   0  0  0  0  0  0  0  0  0  0  0  0
   -6.7526   12.3233   -6.9261 H   0  0  0  0  0  0  0  0  0  0  0  0
   -4.5246   13.2972   -6.4815 H   0  0  0  0  0  0  0  0  0  0  0  0
   -2.6730    9.7536   -8.0506 H   0  0  0  0  0  0  0  0  0  0  0  0
   -4.8993    8.7846   -8.4743 H   0  0  0  0  0  0  0  0  0  0  0  0
   -2.1167   14.2081   -7.1655 H   0  0  0  0  0  0  0  0  0  0  0  0
   -2.1807   13.5768   -5.4850 H   0  0  0  0  0  0  0  0  0  0  0  0
   -0.6614   10.5729   -7.5868 H   0  0  0  0  0  0  0  0  0  0  0  0
    1.4672   14.2904   -6.0634 H   0  0  0  0  0  0  0  0  0  0  0  0
    0.2117   15.4427   -6.6311 H   0  0  0  0  0  0  0  0  0  0  0  0
    0.1649   14.8218   -4.9462 H   0  0  0  0  0  0  0  0  0  0  0  0
  1  2  2  0  0  0  0
  1  4  1  0  0  0  0
  1 13  1  0  0  0  0
  2  6  1  0  0  0  0
  3  4  2  0  0  0  0
  3  5  1  0  0  0  0
  5  6  2  0  0  0  0
  5  9  1  0  0  0  0
  6  7  1  0  0  0  0
  7  8  2  0  0  0  0
  7 10  1  0  0  0  0
  8  9  1  0  0  0  0
 10 14  2  0  0  0  0
 11 12  1  0  0  0  0
 11 13  1  0  0  0  0
 11 26  2  0  0  0  0
 14 15  1  0  0  0  0
 14 19  1  0  0  0  0
 15 16  2  0  0  0  0
 16 17  1  0  0  0  0
 17 18  1  0  0  0  0
 17 20  2  0  0  0  0
 18 19  2  0  0  0  0
 20 21  1  0  0  0  0
 20 24  1  0  0  0  0
 21 22  1  0  0  0  0
 22 23  1  0  0  0  0
 22 25  1  0  0  0  0
 23 24  2  0  0  0  0
  2 27  1  0  0  0  0
  3 28  1  0  0  0  0
  4 29  1  0  0  0  0
  9 30  1  0  0  0  0
 10 31  1  0  0  0  0
 12 32  1  0  0  0  0
 12 33  1  0  0  0  0
 12 34  1  0  0  0  0
 13 35  1  0  0  0  0
 15 36  1  0  0  0  0
 16 37  1  0  0  0  0
 18 38  1  0  0  0  0
 19 39  1  0  0  0  0
 21 40  1  0  0  0  0
 21 41  1  0  0  0  0
 24 42  1  0  0  0  0
 25 43  1  0  0  0  0
 25 44  1  0  0  0  0
 25 45  1  0  0  0  0
M  END
> <Name>
24

> <IC50[uM]>
0.029

$$$$
24
  -OEChem-05192314333D
 Structure written by MMmdl.
 45 48  0     1  0  0  0  0  0999 V2000
   -6.3515   12.3530  -11.9813 C   0  0  0  0  0  0  0  0  0  0  0  0
   -6.5085   11.7912  -10.7247 C   0  0  0  0  0  0  0  0  0  0  0  0
   -7.6802   10.5716  -13.0438 C   0  0  0  0  0  0  0  0  0  0  0  0
   -6.9296   11.7657  -13.1245 C   0  0  0  0  0  0  0  0  0  0  0  0
   -7.7980   10.0044  -11.7669 C   0  0  0  0  0  0  0  0  0  0  0  0
   -7.2328   10.6109  -10.5989 C   0  0  0  0  0  0  0  0  0  0  0  0
   -7.6209    9.7375   -9.5162 C   0  0  0  0  0  0  0  0  0  0  0  0
   -8.2754    8.7446   -9.9970 N   0  0  0  0  0  0  0  0  0  0  0  0
   -8.4233    8.8800  -11.3218 N   0  0  0  0  0  0  0  0  0  0  0  0
   -7.3328    9.8812   -8.0296 C   0  0  0  0  0  0  0  0  0  0  0  0
   -5.3004   14.2773  -13.1499 C   0  0  0  0  0  0  0  0  0  0  0  0
   -4.4346   15.5261  -12.8998 C   0  0  0  0  0  0  0  0  0  0  0  0
   -5.5896   13.5586  -12.0343 N   0  0  0  0  0  0  0  0  0  0  0  0
   -5.9706   10.4906   -7.7317 C   0  0  0  0  0  0  0  0  0  0  0  0
   -5.8616   11.7632   -7.1684 C   0  0  0  0  0  0  0  0  0  0  0  0
   -4.6051   12.3126   -6.9180 C   0  0  0  0  0  0  0  0  0  0  0  0
   -3.4544   11.5948   -7.2294 C   0  0  0  0  0  0  0  0  0  0  0  0
   -3.5626   10.3128   -7.8011 C   0  0  0  0  0  0  0  0  0  0  0  0
   -4.8160    9.7710   -8.0425 C   0  0  0  0  0  0  0  0  0  0  0  0
   -2.1083   12.1736   -6.9694 C   0  0  0  0  0  0  0  0  0  0  0  0
   -1.7503   13.4247   -6.4858 C   0  0  0  0  0  0  0  0  0  0  0  0
   -0.4131   13.4674   -6.4189 N   0  0  3  0  0  0  0  0  0  0  0  0
    0.1758   12.3735   -6.8057 N   0  0  0  0  0  0  0  0  0  0  0  0
   -0.8094   11.5620   -7.1791 C   0  0  0  0  0  0  0  0  0  0  0  0
    0.4060   14.5705   -5.9896 C   0  0  0  0  0  0  0  0  0  0  0  0
   -5.6528   14.0066  -14.2746 O   0  0  0  0  0  0  0  0  0  0  0  0
   -6.0747   12.2631   -9.8555 H   0  0  0  0  0  0  0  0  0  0  0  0
   -8.1361   10.1224  -13.9137 H   0  0  0  0  0  0  0  0  0  0  0  0
   -6.7956   12.2399  -14.0855 H   0  0  0  0  0  0  0  0  0  0  0  0
   -8.6258    7.9778   -9.4591 H   0  0  0  0  0  0  0  0  0  0  0  0
   -8.0279    9.5798   -7.2599 H   0  0  0  0  0  0  0  0  0  0  0  0
   -4.2517   16.0431  -13.8534 H   0  0  0  0  0  0  0  0  0  0  0  0
   -4.9593   16.2038  -12.2102 H   0  0  0  0  0  0  0  0  0  0  0  0
   -3.4743   15.2236  -12.4567 H   0  0  0  0  0  0  0  0  0  0  0  0
   -6.7526   12.3233   -6.9261 H   0  0  0  0  0  0  0  0  0  0  0  0
   -4.5246   13.2972   -6.4815 H   0  0  0  0  0  0  0  0  0  0  0  0
   -2.6730    9.7536   -8.0506 H   0  0  0  0  0  0  0  0  0  0  0  0
   -4.8993    8.7846   -8.4743 H   0  0  0  0  0  0  0  0  0  0  0  0
   -2.1167   14.2081   -7.1655 H   0  0  0  0  0  0  0  0  0  0  0  0
   -2.1807   13.5768   -5.4850 H   0  0  0  0  0  0  0  0  0  0  0  0
   -0.6614   10.5729   -7.5868 H   0  0  0  0  0  0  0  0  0  0  0  0
    1.4672   14.2904   -6.0634 H   0  0  0  0  0  0  0  0  0  0  0  0
    0.2117   15.4427   -6.6311 H   0  0  0  0  0  0  0  0  0  0  0  0
    0.1649   14.8218   -4.9462 H   0  0  0  0  0  0  0  0  0  0  0  0
   -6.1759   13.2137  -14.2608 H   0  0  0  0  0  0  0  0  0  0  0  0
  1  2  2  0  0  0  0
  1  4  1  0  0  0  0
  1 13  1  0  0  0  0
  2  6  1  0  0  0  0
  3  4  2  0  0  0  0
  3  5  1  0  0  0  0
  5  6  1  0  0  0  0
  5  9  2  0  0  0  0
  6  7  2  0  0  0  0
  7  8  1  0  0  0  0
  7 10  1  0  0  0  0
  8  9  1  0  0  0  0
 10 14  2  0  0  0  0
 11 12  1  0  0  0  0
 11 13  2  0  0  0  0
 11 26  1  0  0  0  0
 14 15  1  0  0  0  0
 14 19  1  0  0  0  0
 15 16  2  0  0  0  0
 16 17  1  0  0  0  0
 17 18  1  0  0  0  0
 17 20  2  0  0  0  0
 18 19  2  0  0  0  0
 20 21  1  0  0  0  0
 20 24  1  0  0  0  0
 21 22  1  0  0  0  0
 22 23  1  0  0  0  0
 22 25  1  0  0  0  0
 23 24  2  0  0  0  0
  2 27  1  0  0  0  0
  3 28  1  0  0  0  0
  4 29  1  0  0  0  0
  8 30  1  0  0  0  0
 10 31  1  0  0  0  0
 12 32  1  0  0  0  0
 12 33  1  0  0  0  0
 12 34  1  0  0  0  0
 15 35  1  0  0  0  0
 16 36  1  0  0  0  0
 18 37  1  0  0  0  0
 19 38  1  0  0  0  0
 21 39  1  0  0  0  0
 21 40  1  0  0  0  0
 24 41  1  0  0  0  0
 25 42  1  0  0  0  0
 25 43  1  0  0  0  0
 25 44  1  0  0  0  0
 26 45  1  0  0  0  0
M  END
> <Name>
24

> <IC50[uM]>
0.029

$$$$
24
  -OEChem-05192314333D
 Structure written by MMmdl.
 45 48  0     1  0  0  0  0  0999 V2000
   -6.3515   12.3530  -11.9813 C   0  0  0  0  0  0  0  0  0  0  0  0
   -6.5085   11.7912  -10.7247 C   0  0  0  0  0  0  0  0  0  0  0  0
   -7.6802   10.5716  -13.0438 C   0  0  0  0  0  0  0  0  0  0  0  0
   -6.9296   11.7657  -13.1245 C   0  0  0  0  0  0  0  0  0  0  0  0
   -7.7980   10.0044  -11.7669 C   0  0  0  0  0  0  0  0  0  0  0  0
   -7.2328   10.6109  -10.5989 C   0  0  0  0  0  0  0  0  0  0  0  0
   -7.6209    9.7375   -9.5162 C   0  0  0  0  0  0  0  0  0  0  0  0
   -8.2754    8.7446   -9.9970 N   0  0  0  0  0  0  0  0  0  0  0  0
   -8.4233    8.8800  -11.3218 N   0  0  0  0  0  0  0  0  0  0  0  0
   -7.3328    9.8812   -8.0296 C   0  0  0  0  0  0  0  0  0  0  0  0
   -5.3004   14.2773  -13.1499 C   0  0  0  0  0  0  0  0  0  0  0  0
   -4.4346   15.5261  -12.8998 C   0  0  0  0  0  0  0  0  0  0  0  0
   -5.5896   13.5586  -12.0343 N   0  0  0  0  0  0  0  0  0  0  0  0
   -5.9706   10.4906   -7.7317 C   0  0  0  0  0  0  0  0  0  0  0  0
   -5.8616   11.7632   -7.1684 C   0  0  0  0  0  0  0  0  0  0  0  0
   -4.6051   12.3126   -6.9180 C   0  0  0  0  0  0  0  0  0  0  0  0
   -3.4544   11.5948   -7.2294 C   0  0  0  0  0  0  0  0  0  0  0  0
   -3.5626   10.3128   -7.8011 C   0  0  0  0  0  0  0  0  0  0  0  0
   -4.8160    9.7710   -8.0425 C   0  0  0  0  0  0  0  0  0  0  0  0
   -2.1083   12.1736   -6.9694 C   0  0  0  0  0  0  0  0  0  0  0  0
   -1.7503   13.4247   -6.4858 C   0  0  0  0  0  0  0  0  0  0  0  0
   -0.4131   13.4674   -6.4189 N   0  0  3  0  0  0  0  0  0  0  0  0
    0.1758   12.3735   -6.8057 N   0  0  0  0  0  0  0  0  0  0  0  0
   -0.8094   11.5620   -7.1791 C   0  0  0  0  0  0  0  0  0  0  0  0
    0.4060   14.5705   -5.9896 C   0  0  0  0  0  0  0  0  0  0  0  0
   -5.6528   14.0066  -14.2746 O   0  0  0  0  0  0  0  0  0  0  0  0
   -6.0747   12.2631   -9.8555 H   0  0  0  0  0  0  0  0  0  0  0  0
   -8.1361   10.1224  -13.9137 H   0  0  0  0  0  0  0  0  0  0  0  0
   -6.7956   12.2399  -14.0855 H   0  0  0  0  0  0  0  0  0  0  0  0
   -8.9253    8.2413  -11.9049 H   0  0  0  0  0  0  0  0  0  0  0  0
   -8.0279    9.5798   -7.2599 H   0  0  0  0  0  0  0  0  0  0  0  0
   -4.2517   16.0431  -13.8534 H   0  0  0  0  0  0  0  0  0  0  0  0
   -4.9593   16.2038  -12.2102 H   0  0  0  0  0  0  0  0  0  0  0  0
   -3.4743   15.2236  -12.4567 H   0  0  0  0  0  0  0  0  0  0  0  0
   -6.7526   12.3233   -6.9261 H   0  0  0  0  0  0  0  0  0  0  0  0
   -4.5246   13.2972   -6.4815 H   0  0  0  0  0  0  0  0  0  0  0  0
   -2.6730    9.7536   -8.0506 H   0  0  0  0  0  0  0  0  0  0  0  0
   -4.8993    8.7846   -8.4743 H   0  0  0  0  0  0  0  0  0  0  0  0
   -2.1167   14.2081   -7.1655 H   0  0  0  0  0  0  0  0  0  0  0  0
   -2.1807   13.5768   -5.4850 H   0  0  0  0  0  0  0  0  0  0  0  0
   -0.6614   10.5729   -7.5868 H   0  0  0  0  0  0  0  0  0  0  0  0
    1.4672   14.2904   -6.0634 H   0  0  0  0  0  0  0  0  0  0  0  0
    0.2117   15.4427   -6.6311 H   0  0  0  0  0  0  0  0  0  0  0  0
    0.1649   14.8218   -4.9462 H   0  0  0  0  0  0  0  0  0  0  0  0
   -6.1759   13.2137  -14.2608 H   0  0  0  0  0  0  0  0  0  0  0  0
  1  2  2  0  0  0  0
  1  4  1  0  0  0  0
  1 13  1  0  0  0  0
  2  6  1  0  0  0  0
  3  4  2  0  0  0  0
  3  5  1  0  0  0  0
  5  6  2  0  0  0  0
  5  9  1  0  0  0  0
  6  7  1  0  0  0  0
  7  8  2  0  0  0  0
  7 10  1  0  0  0  0
  8  9  1  0  0  0  0
 10 14  2  0  0  0  0
 11 12  1  0  0  0  0
 11 13  2  0  0  0  0
 11 26  1  0  0  0  0
 14 15  1  0  0  0  0
 14 19  1  0  0  0  0
 15 16  2  0  0  0  0
 16 17  1  0  0  0  0
 17 18  1  0  0  0  0
 17 20  2  0  0  0  0
 18 19  2  0  0  0  0
 20 21  1  0  0  0  0
 20 24  1  0  0  0  0
 21 22  1  0  0  0  0
 22 23  1  0  0  0  0
 22 25  1  0  0  0  0
 23 24  2  0  0  0  0
  2 27  1  0  0  0  0
  3 28  1  0  0  0  0
  4 29  1  0  0  0  0
  9 30  1  0  0  0  0
 10 31  1  0  0  0  0
 12 32  1  0  0  0  0
 12 33  1  0  0  0  0
 12 34  1  0  0  0  0
 15 35  1  0  0  0  0
 16 36  1  0  0  0  0
 18 37  1  0  0  0  0
 19 38  1  0  0  0  0
 21 39  1  0  0  0  0
 21 40  1  0  0  0  0
 24 41  1  0  0  0  0
 25 42  1  0  0  0  0
 25 43  1  0  0  0  0
 25 44  1  0  0  0  0
 26 45  1  0  0  0  0
M  END
> <Name>
24

> <IC50[uM]>
0.029

$$$$
24
  -OEChem-05192314333D
 Structure written by MMmdl.
 45 48  0     0  0  0  0  0  0999 V2000
   -6.3515   12.3530  -11.9813 C   0  0  0  0  0  0  0  0  0  0  0  0
   -6.5085   11.7912  -10.7247 C   0  0  0  0  0  0  0  0  0  0  0  0
   -7.6802   10.5716  -13.0438 C   0  0  0  0  0  0  0  0  0  0  0  0
   -6.9296   11.7657  -13.1245 C   0  0  0  0  0  0  0  0  0  0  0  0
   -7.7980   10.0044  -11.7669 C   0  0  0  0  0  0  0  0  0  0  0  0
   -7.2328   10.6109  -10.5989 C   0  0  0  0  0  0  0  0  0  0  0  0
   -7.6209    9.7375   -9.5162 C   0  0  0  0  0  0  0  0  0  0  0  0
   -8.2754    8.7446   -9.9970 N   0  0  0  0  0  0  0  0  0  0  0  0
   -8.4233    8.8800  -11.3218 N   0  0  0  0  0  0  0  0  0  0  0  0
   -7.3328    9.8812   -8.0296 C   0  0  0  0  0  0  0  0  0  0  0  0
   -5.3004   14.2773  -13.1499 C   0  0  0  0  0  0  0  0  0  0  0  0
   -4.4346   15.5261  -12.8998 C   0  0  0  0  0  0  0  0  0  0  0  0
   -5.5896   13.5586  -12.0343 N   0  0  0  0  0  0  0  0  0  0  0  0
   -5.9706   10.4906   -7.7317 C   0  0  0  0  0  0  0  0  0  0  0  0
   -5.8616   11.7632   -7.1684 C   0  0  0  0  0  0  0  0  0  0  0  0
   -4.6051   12.3126   -6.9180 C   0  0  0  0  0  0  0  0  0  0  0  0
   -3.4544   11.5948   -7.2294 C   0  0  0  0  0  0  0  0  0  0  0  0
   -3.5626   10.3128   -7.8011 C   0  0  0  0  0  0  0  0  0  0  0  0
   -4.8160    9.7710   -8.0425 C   0  0  0  0  0  0  0  0  0  0  0  0
   -2.1083   12.1736   -6.9694 C   0  0  0  0  0  0  0  0  0  0  0  0
   -1.7503   13.4247   -6.4858 C   0  0  0  0  0  0  0  0  0  0  0  0
   -0.4131   13.4674   -6.4189 N   0  0  0  0  0  0  0  0  0  0  0  0
    0.1758   12.3735   -6.8057 N   0  0  0  0  0  0  0  0  0  0  0  0
   -0.8094   11.5620   -7.1791 C   0  0  0  0  0  0  0  0  0  0  0  0
    0.4060   14.5705   -5.9896 C   0  0  0  0  0  0  0  0  0  0  0  0
   -5.6528   14.0066  -14.2746 O   0  0  0  0  0  0  0  0  0  0  0  0
   -6.0747   12.2631   -9.8555 H   0  0  0  0  0  0  0  0  0  0  0  0
   -8.1361   10.1224  -13.9137 H   0  0  0  0  0  0  0  0  0  0  0  0
   -6.7956   12.2399  -14.0855 H   0  0  0  0  0  0  0  0  0  0  0  0
   -8.6258    7.9778   -9.4591 H   0  0  0  0  0  0  0  0  0  0  0  0
   -8.0279    9.5798   -7.2599 H   0  0  0  0  0  0  0  0  0  0  0  0
   -4.2429   16.0373  -13.8548 H   0  0  0  0  0  0  0  0  0  0  0  0
   -4.9638   16.2086  -12.2185 H   0  0  0  0  0  0  0  0  0  0  0  0
   -3.4785   15.2246  -12.4471 H   0  0  0  0  0  0  0  0  0  0  0  0
   -5.2347   13.9076  -11.1670 H   0  0  0  0  0  0  0  0  0  0  0  0
   -6.7526   12.3233   -6.9261 H   0  0  0  0  0  0  0  0  0  0  0  0
   -4.5246   13.2972   -6.4815 H   0  0  0  0  0  0  0  0  0  0  0  0
   -3.4585   11.1486   -6.2240 H   0  0  0  0  0  0  0  0  0  0  0  0
   -2.6730    9.7536   -8.0506 H   0  0  0  0  0  0  0  0  0  0  0  0
   -4.8993    8.7846   -8.4743 H   0  0  0  0  0  0  0  0  0  0  0  0
   -2.4278   14.2202   -6.2127 H   0  0  0  0  0  0  0  0  0  0  0  0
   -0.6614   10.5729   -7.5868 H   0  0  0  0  0  0  0  0  0  0  0  0
    1.4672   14.2904   -6.0634 H   0  0  0  0  0  0  0  0  0  0  0  0
    0.2117   15.4427   -6.6311 H   0  0  0  0  0  0  0  0  0  0  0  0
    0.1649   14.8218   -4.9462 H   0  0  0  0  0  0  0  0  0  0  0  0
  1  2  2  0  0  0  0
  1  4  1  0  0  0  0
  1 13  1  0  0  0  0
  2  6  1  0  0  0  0
  3  4  2  0  0  0  0
  3  5  1  0  0  0  0
  5  6  1  0  0  0  0
  5  9  2  0  0  0  0
  6  7  2  0  0  0  0
  7  8  1  0  0  0  0
  7 10  1  0  0  0  0
  8  9  1  0  0  0  0
 10 14  2  0  0  0  0
 11 12  1  0  0  0  0
 11 13  1  0  0  0  0
 11 26  2  0  0  0  0
 14 15  1  0  0  0  0
 14 19  1  0  0  0  0
 15 16  2  0  0  0  0
 16 17  1  0  0  0  0
 17 18  1  0  0  0  0
 17 20  1  0  0  0  0
 18 19  2  0  0  0  0
 20 21  2  0  0  0  0
 20 24  1  0  0  0  0
 21 22  1  0  0  0  0
 22 23  1  0  0  0  0
 22 25  1  0  0  0  0
 23 24  2  0  0  0  0
  2 27  1  0  0  0  0
  3 28  1  0  0  0  0
  4 29  1  0  0  0  0
  8 30  1  0  0  0  0
 10 31  1  0  0  0  0
 12 32  1  0  0  0  0
 12 33  1  0  0  0  0
 12 34  1  0  0  0  0
 13 35  1  0  0  0  0
 15 36  1  0  0  0  0
 16 37  1  0  0  0  0
 17 38  1  0  0  0  0
 18 39  1  0  0  0  0
 19 40  1  0  0  0  0
 21 41  1  0  0  0  0
 24 42  1  0  0  0  0
 25 43  1  0  0  0  0
 25 44  1  0  0  0  0
 25 45  1  0  0  0  0
M  END
> <Name>
24

> <IC50[uM]>
0.029

$$$$
24
  -OEChem-05192314333D
 Structure written by MMmdl.
 45 48  0     0  0  0  0  0  0999 V2000
   -6.3515   12.3530  -11.9813 C   0  0  0  0  0  0  0  0  0  0  0  0
   -6.5085   11.7912  -10.7247 C   0  0  0  0  0  0  0  0  0  0  0  0
   -7.6802   10.5716  -13.0438 C   0  0  0  0  0  0  0  0  0  0  0  0
   -6.9296   11.7657  -13.1245 C   0  0  0  0  0  0  0  0  0  0  0  0
   -7.7980   10.0044  -11.7669 C   0  0  0  0  0  0  0  0  0  0  0  0
   -7.2328   10.6109  -10.5989 C   0  0  0  0  0  0  0  0  0  0  0  0
   -7.6209    9.7375   -9.5162 C   0  0  0  0  0  0  0  0  0  0  0  0
   -8.2754    8.7446   -9.9970 N   0  0  0  0  0  0  0  0  0  0  0  0
   -8.4233    8.8800  -11.3218 N   0  0  0  0  0  0  0  0  0  0  0  0
   -7.3328    9.8812   -8.0296 C   0  0  0  0  0  0  0  0  0  0  0  0
   -5.3004   14.2773  -13.1499 C   0  0  0  0  0  0  0  0  0  0  0  0
   -4.4346   15.5261  -12.8998 C   0  0  0  0  0  0  0  0  0  0  0  0
   -5.5896   13.5586  -12.0343 N   0  0  0  0  0  0  0  0  0  0  0  0
   -5.9706   10.4906   -7.7317 C   0  0  0  0  0  0  0  0  0  0  0  0
   -5.8616   11.7632   -7.1684 C   0  0  0  0  0  0  0  0  0  0  0  0
   -4.6051   12.3126   -6.9180 C   0  0  0  0  0  0  0  0  0  0  0  0
   -3.4544   11.5948   -7.2294 C   0  0  0  0  0  0  0  0  0  0  0  0
   -3.5626   10.3128   -7.8011 C   0  0  0  0  0  0  0  0  0  0  0  0
   -4.8160    9.7710   -8.0425 C   0  0  0  0  0  0  0  0  0  0  0  0
   -2.1083   12.1736   -6.9694 C   0  0  0  0  0  0  0  0  0  0  0  0
   -1.7503   13.4247   -6.4858 C   0  0  0  0  0  0  0  0  0  0  0  0
   -0.4131   13.4674   -6.4189 N   0  0  0  0  0  0  0  0  0  0  0  0
    0.1758   12.3735   -6.8057 N   0  0  0  0  0  0  0  0  0  0  0  0
   -0.8094   11.5620   -7.1791 C   0  0  0  0  0  0  0  0  0  0  0  0
    0.4060   14.5705   -5.9896 C   0  0  0  0  0  0  0  0  0  0  0  0
   -5.6528   14.0066  -14.2746 O   0  0  0  0  0  0  0  0  0  0  0  0
   -6.0747   12.2631   -9.8555 H   0  0  0  0  0  0  0  0  0  0  0  0
   -8.1361   10.1224  -13.9137 H   0  0  0  0  0  0  0  0  0  0  0  0
   -6.7956   12.2399  -14.0855 H   0  0  0  0  0  0  0  0  0  0  0  0
   -8.9253    8.2413  -11.9049 H   0  0  0  0  0  0  0  0  0  0  0  0
   -8.0279    9.5798   -7.2599 H   0  0  0  0  0  0  0  0  0  0  0  0
   -4.2429   16.0373  -13.8548 H   0  0  0  0  0  0  0  0  0  0  0  0
   -4.9638   16.2086  -12.2185 H   0  0  0  0  0  0  0  0  0  0  0  0
   -3.4785   15.2246  -12.4471 H   0  0  0  0  0  0  0  0  0  0  0  0
   -5.2347   13.9076  -11.1670 H   0  0  0  0  0  0  0  0  0  0  0  0
   -6.7526   12.3233   -6.9261 H   0  0  0  0  0  0  0  0  0  0  0  0
   -4.5246   13.2972   -6.4815 H   0  0  0  0  0  0  0  0  0  0  0  0
   -3.4585   11.1486   -6.2240 H   0  0  0  0  0  0  0  0  0  0  0  0
   -2.6730    9.7536   -8.0506 H   0  0  0  0  0  0  0  0  0  0  0  0
   -4.8993    8.7846   -8.4743 H   0  0  0  0  0  0  0  0  0  0  0  0
   -2.4278   14.2202   -6.2127 H   0  0  0  0  0  0  0  0  0  0  0  0
   -0.6614   10.5729   -7.5868 H   0  0  0  0  0  0  0  0  0  0  0  0
    1.4672   14.2904   -6.0634 H   0  0  0  0  0  0  0  0  0  0  0  0
    0.2117   15.4427   -6.6311 H   0  0  0  0  0  0  0  0  0  0  0  0
    0.1649   14.8218   -4.9462 H   0  0  0  0  0  0  0  0  0  0  0  0
  1  2  2  0  0  0  0
  1  4  1  0  0  0  0
  1 13  1  0  0  0  0
  2  6  1  0  0  0  0
  3  4  2  0  0  0  0
  3  5  1  0  0  0  0
  5  6  2  0  0  0  0
  5  9  1  0  0  0  0
  6  7  1  0  0  0  0
  7  8  2  0  0  0  0
  7 10  1  0  0  0  0
  8  9  1  0  0  0  0
 10 14  2  0  0  0  0
 11 12  1  0  0  0  0
 11 13  1  0  0  0  0
 11 26  2  0  0  0  0
 14 15  1  0  0  0  0
 14 19  1  0  0  0  0
 15 16  2  0  0  0  0
 16 17  1  0  0  0  0
 17 18  1  0  0  0  0
 17 20  1  0  0  0  0
 18 19  2  0  0  0  0
 20 21  2  0  0  0  0
 20 24  1  0  0  0  0
 21 22  1  0  0  0  0
 22 23  1  0  0  0  0
 22 25  1  0  0  0  0
 23 24  2  0  0  0  0
  2 27  1  0  0  0  0
  3 28  1  0  0  0  0
  4 29  1  0  0  0  0
  9 30  1  0  0  0  0
 10 31  1  0  0  0  0
 12 32  1  0  0  0  0
 12 33  1  0  0  0  0
 12 34  1  0  0  0  0
 13 35  1  0  0  0  0
 15 36  1  0  0  0  0
 16 37  1  0  0  0  0
 17 38  1  0  0  0  0
 18 39  1  0  0  0  0
 19 40  1  0  0  0  0
 21 41  1  0  0  0  0
 24 42  1  0  0  0  0
 25 43  1  0  0  0  0
 25 44  1  0  0  0  0
 25 45  1  0  0  0  0
M  END
> <Name>
24

> <IC50[uM]>
0.029

$$$$
24
  -OEChem-05192314333D
 Structure written by MMmdl.
 45 48  0     0  0  0  0  0  0999 V2000
   -6.3515   12.3530  -11.9813 C   0  0  0  0  0  0  0  0  0  0  0  0
   -6.5085   11.7912  -10.7247 C   0  0  0  0  0  0  0  0  0  0  0  0
   -7.6802   10.5716  -13.0438 C   0  0  0  0  0  0  0  0  0  0  0  0
   -6.9296   11.7657  -13.1245 C   0  0  0  0  0  0  0  0  0  0  0  0
   -7.7980   10.0044  -11.7669 C   0  0  0  0  0  0  0  0  0  0  0  0
   -7.2328   10.6109  -10.5989 C   0  0  0  0  0  0  0  0  0  0  0  0
   -7.6209    9.7375   -9.5162 C   0  0  0  0  0  0  0  0  0  0  0  0
   -8.2754    8.7446   -9.9970 N   0  0  0  0  0  0  0  0  0  0  0  0
   -8.4233    8.8800  -11.3218 N   0  0  0  0  0  0  0  0  0  0  0  0
   -7.3328    9.8812   -8.0296 C   0  0  0  0  0  0  0  0  0  0  0  0
   -5.3004   14.2773  -13.1499 C   0  0  0  0  0  0  0  0  0  0  0  0
   -4.4346   15.5261  -12.8998 C   0  0  0  0  0  0  0  0  0  0  0  0
   -5.5896   13.5586  -12.0343 N   0  0  0  0  0  0  0  0  0  0  0  0
   -5.9706   10.4906   -7.7317 C   0  0  0  0  0  0  0  0  0  0  0  0
   -5.8616   11.7632   -7.1684 C   0  0  0  0  0  0  0  0  0  0  0  0
   -4.6051   12.3126   -6.9180 C   0  0  0  0  0  0  0  0  0  0  0  0
   -3.4544   11.5948   -7.2294 C   0  0  0  0  0  0  0  0  0  0  0  0
   -3.5626   10.3128   -7.8011 C   0  0  0  0  0  0  0  0  0  0  0  0
   -4.8160    9.7710   -8.0425 C   0  0  0  0  0  0  0  0  0  0  0  0
   -2.1083   12.1736   -6.9694 C   0  0  0  0  0  0  0  0  0  0  0  0
   -1.7503   13.4247   -6.4858 C   0  0  0  0  0  0  0  0  0  0  0  0
   -0.4131   13.4674   -6.4189 N   0  0  0  0  0  0  0  0  0  0  0  0
    0.1758   12.3735   -6.8057 N   0  0  0  0  0  0  0  0  0  0  0  0
   -0.8094   11.5620   -7.1791 C   0  0  0  0  0  0  0  0  0  0  0  0
    0.4060   14.5705   -5.9896 C   0  0  0  0  0  0  0  0  0  0  0  0
   -5.6528   14.0066  -14.2746 O   0  0  0  0  0  0  0  0  0  0  0  0
   -6.0747   12.2631   -9.8555 H   0  0  0  0  0  0  0  0  0  0  0  0
   -8.1361   10.1224  -13.9137 H   0  0  0  0  0  0  0  0  0  0  0  0
   -6.7956   12.2399  -14.0855 H   0  0  0  0  0  0  0  0  0  0  0  0
   -8.6258    7.9778   -9.4591 H   0  0  0  0  0  0  0  0  0  0  0  0
   -8.0279    9.5798   -7.2599 H   0  0  0  0  0  0  0  0  0  0  0  0
   -4.2429   16.0373  -13.8548 H   0  0  0  0  0  0  0  0  0  0  0  0
   -4.9638   16.2086  -12.2185 H   0  0  0  0  0  0  0  0  0  0  0  0
   -3.4785   15.2246  -12.4471 H   0  0  0  0  0  0  0  0  0  0  0  0
   -5.2347   13.9076  -11.1670 H   0  0  0  0  0  0  0  0  0  0  0  0
   -6.7526   12.3233   -6.9261 H   0  0  0  0  0  0  0  0  0  0  0  0
   -4.5246   13.2972   -6.4815 H   0  0  0  0  0  0  0  0  0  0  0  0
   -2.6730    9.7536   -8.0506 H   0  0  0  0  0  0  0  0  0  0  0  0
   -4.8679    8.8310   -7.4736 H   0  0  0  0  0  0  0  0  0  0  0  0
   -4.8621    9.5509   -9.1193 H   0  0  0  0  0  0  0  0  0  0  0  0
   -2.4278   14.2202   -6.2127 H   0  0  0  0  0  0  0  0  0  0  0  0
   -0.6614   10.5729   -7.5868 H   0  0  0  0  0  0  0  0  0  0  0  0
    1.4672   14.2904   -6.0634 H   0  0  0  0  0  0  0  0  0  0  0  0
    0.2117   15.4427   -6.6311 H   0  0  0  0  0  0  0  0  0  0  0  0
    0.1649   14.8218   -4.9462 H   0  0  0  0  0  0  0  0  0  0  0  0
  1  2  2  0  0  0  0
  1  4  1  0  0  0  0
  1 13  1  0  0  0  0
  2  6  1  0  0  0  0
  3  4  2  0  0  0  0
  3  5  1  0  0  0  0
  5  6  1  0  0  0  0
  5  9  2  0  0  0  0
  6  7  2  0  0  0  0
  7  8  1  0  0  0  0
  7 10  1  0  0  0  0
  8  9  1  0  0  0  0
 10 14  2  3  0  0  0
 11 12  1  0  0  0  0
 11 13  1  0  0  0  0
 11 26  2  0  0  0  0
 14 15  1  0  0  0  0
 14 19  1  0  0  0  0
 15 16  2  0  0  0  0
 16 17  1  0  0  0  0
 17 18  2  0  0  0  0
 17 20  1  0  0  0  0
 18 19  1  0  0  0  0
 20 21  2  0  0  0  0
 20 24  1  0  0  0  0
 21 22  1  0  0  0  0
 22 23  1  0  0  0  0
 22 25  1  0  0  0  0
 23 24  2  0  0  0  0
  2 27  1  0  0  0  0
  3 28  1  0  0  0  0
  4 29  1  0  0  0  0
  8 30  1  0  0  0  0
 10 31  1  0  0  0  0
 12 32  1  0  0  0  0
 12 33  1  0  0  0  0
 12 34  1  0  0  0  0
 13 35  1  0  0  0  0
 15 36  1  0  0  0  0
 16 37  1  0  0  0  0
 18 38  1  0  0  0  0
 19 39  1  0  0  0  0
 19 40  1  0  0  0  0
 21 41  1  0  0  0  0
 24 42  1  0  0  0  0
 25 43  1  0  0  0  0
 25 44  1  0  0  0  0
 25 45  1  0  0  0  0
M  END
> <Name>
24

> <IC50[uM]>
0.029

$$$$
24
  -OEChem-05192314333D
 Structure written by MMmdl.
 45 48  0     0  0  0  0  0  0999 V2000
   -6.3515   12.3530  -11.9813 C   0  0  0  0  0  0  0  0  0  0  0  0
   -6.5085   11.7912  -10.7247 C   0  0  0  0  0  0  0  0  0  0  0  0
   -7.6802   10.5716  -13.0438 C   0  0  0  0  0  0  0  0  0  0  0  0
   -6.9296   11.7657  -13.1245 C   0  0  0  0  0  0  0  0  0  0  0  0
   -7.7980   10.0044  -11.7669 C   0  0  0  0  0  0  0  0  0  0  0  0
   -7.2328   10.6109  -10.5989 C   0  0  0  0  0  0  0  0  0  0  0  0
   -7.6209    9.7375   -9.5162 C   0  0  0  0  0  0  0  0  0  0  0  0
   -8.2754    8.7446   -9.9970 N   0  0  0  0  0  0  0  0  0  0  0  0
   -8.4233    8.8800  -11.3218 N   0  0  0  0  0  0  0  0  0  0  0  0
   -7.3328    9.8812   -8.0296 C   0  0  0  0  0  0  0  0  0  0  0  0
   -5.3004   14.2773  -13.1499 C   0  0  0  0  0  0  0  0  0  0  0  0
   -4.4346   15.5261  -12.8998 C   0  0  0  0  0  0  0  0  0  0  0  0
   -5.5896   13.5586  -12.0343 N   0  0  0  0  0  0  0  0  0  0  0  0
   -5.9706   10.4906   -7.7317 C   0  0  0  0  0  0  0  0  0  0  0  0
   -5.8616   11.7632   -7.1684 C   0  0  0  0  0  0  0  0  0  0  0  0
   -4.6051   12.3126   -6.9180 C   0  0  0  0  0  0  0  0  0  0  0  0
   -3.4544   11.5948   -7.2294 C   0  0  0  0  0  0  0  0  0  0  0  0
   -3.5626   10.3128   -7.8011 C   0  0  0  0  0  0  0  0  0  0  0  0
   -4.8160    9.7710   -8.0425 C   0  0  0  0  0  0  0  0  0  0  0  0
   -2.1083   12.1736   -6.9694 C   0  0  0  0  0  0  0  0  0  0  0  0
   -1.7503   13.4247   -6.4858 C   0  0  0  0  0  0  0  0  0  0  0  0
   -0.4131   13.4674   -6.4189 N   0  0  0  0  0  0  0  0  0  0  0  0
    0.1758   12.3735   -6.8057 N   0  0  0  0  0  0  0  0  0  0  0  0
   -0.8094   11.5620   -7.1791 C   0  0  0  0  0  0  0  0  0  0  0  0
    0.4060   14.5705   -5.9896 C   0  0  0  0  0  0  0  0  0  0  0  0
   -5.6528   14.0066  -14.2746 O   0  0  0  0  0  0  0  0  0  0  0  0
   -6.0747   12.2631   -9.8555 H   0  0  0  0  0  0  0  0  0  0  0  0
   -8.1361   10.1224  -13.9137 H   0  0  0  0  0  0  0  0  0  0  0  0
   -6.7956   12.2399  -14.0855 H   0  0  0  0  0  0  0  0  0  0  0  0
   -8.9253    8.2413  -11.9049 H   0  0  0  0  0  0  0  0  0  0  0  0
   -8.0279    9.5798   -7.2599 H   0  0  0  0  0  0  0  0  0  0  0  0
   -4.2429   16.0373  -13.8548 H   0  0  0  0  0  0  0  0  0  0  0  0
   -4.9638   16.2086  -12.2185 H   0  0  0  0  0  0  0  0  0  0  0  0
   -3.4785   15.2246  -12.4471 H   0  0  0  0  0  0  0  0  0  0  0  0
   -5.2347   13.9076  -11.1670 H   0  0  0  0  0  0  0  0  0  0  0  0
   -6.7526   12.3233   -6.9261 H   0  0  0  0  0  0  0  0  0  0  0  0
   -4.5246   13.2972   -6.4815 H   0  0  0  0  0  0  0  0  0  0  0  0
   -2.6730    9.7536   -8.0506 H   0  0  0  0  0  0  0  0  0  0  0  0
   -4.8679    8.8310   -7.4736 H   0  0  0  0  0  0  0  0  0  0  0  0
   -4.8621    9.5509   -9.1193 H   0  0  0  0  0  0  0  0  0  0  0  0
   -2.4278   14.2202   -6.2127 H   0  0  0  0  0  0  0  0  0  0  0  0
   -0.6614   10.5729   -7.5868 H   0  0  0  0  0  0  0  0  0  0  0  0
    1.4672   14.2904   -6.0634 H   0  0  0  0  0  0  0  0  0  0  0  0
    0.2117   15.4427   -6.6311 H   0  0  0  0  0  0  0  0  0  0  0  0
    0.1649   14.8218   -4.9462 H   0  0  0  0  0  0  0  0  0  0  0  0
  1  2  2  0  0  0  0
  1  4  1  0  0  0  0
  1 13  1  0  0  0  0
  2  6  1  0  0  0  0
  3  4  2  0  0  0  0
  3  5  1  0  0  0  0
  5  6  2  0  0  0  0
  5  9  1  0  0  0  0
  6  7  1  0  0  0  0
  7  8  2  0  0  0  0
  7 10  1  0  0  0  0
  8  9  1  0  0  0  0
 10 14  2  3  0  0  0
 11 12  1  0  0  0  0
 11 13  1  0  0  0  0
 11 26  2  0  0  0  0
 14 15  1  0  0  0  0
 14 19  1  0  0  0  0
 15 16  2  0  0  0  0
 16 17  1  0  0  0  0
 17 18  2  0  0  0  0
 17 20  1  0  0  0  0
 18 19  1  0  0  0  0
 20 21  2  0  0  0  0
 20 24  1  0  0  0  0
 21 22  1  0  0  0  0
 22 23  1  0  0  0  0
 22 25  1  0  0  0  0
 23 24  2  0  0  0  0
  2 27  1  0  0  0  0
  3 28  1  0  0  0  0
  4 29  1  0  0  0  0
  9 30  1  0  0  0  0
 10 31  1  0  0  0  0
 12 32  1  0  0  0  0
 12 33  1  0  0  0  0
 12 34  1  0  0  0  0
 13 35  1  0  0  0  0
 15 36  1  0  0  0  0
 16 37  1  0  0  0  0
 18 38  1  0  0  0  0
 19 39  1  0  0  0  0
 19 40  1  0  0  0  0
 21 41  1  0  0  0  0
 24 42  1  0  0  0  0
 25 43  1  0  0  0  0
 25 44  1  0  0  0  0
 25 45  1  0  0  0  0
M  END
> <Name>
24

> <IC50[uM]>
0.029

$$$$
24
  -OEChem-05192314333D
 Structure written by MMmdl.
 45 48  0     0  0  0  0  0  0999 V2000
   -6.3515   12.3530  -11.9813 C   0  0  0  0  0  0  0  0  0  0  0  0
   -6.5085   11.7912  -10.7247 C   0  0  0  0  0  0  0  0  0  0  0  0
   -7.6802   10.5716  -13.0438 C   0  0  0  0  0  0  0  0  0  0  0  0
   -6.9296   11.7657  -13.1245 C   0  0  0  0  0  0  0  0  0  0  0  0
   -7.7980   10.0044  -11.7669 C   0  0  0  0  0  0  0  0  0  0  0  0
   -7.2328   10.6109  -10.5989 C   0  0  0  0  0  0  0  0  0  0  0  0
   -7.6209    9.7375   -9.5162 C   0  0  0  0  0  0  0  0  0  0  0  0
   -8.2754    8.7446   -9.9970 N   0  0  0  0  0  0  0  0  0  0  0  0
   -8.4233    8.8800  -11.3218 N   0  0  0  0  0  0  0  0  0  0  0  0
   -7.3328    9.8812   -8.0296 C   0  0  0  0  0  0  0  0  0  0  0  0
   -5.3004   14.2773  -13.1499 C   0  0  0  0  0  0  0  0  0  0  0  0
   -4.4346   15.5261  -12.8998 C   0  0  0  0  0  0  0  0  0  0  0  0
   -5.5896   13.5586  -12.0343 N   0  0  0  0  0  0  0  0  0  0  0  0
   -5.9706   10.4906   -7.7317 C   0  0  0  0  0  0  0  0  0  0  0  0
   -5.8616   11.7632   -7.1684 C   0  0  0  0  0  0  0  0  0  0  0  0
   -4.6051   12.3126   -6.9180 C   0  0  0  0  0  0  0  0  0  0  0  0
   -3.4544   11.5948   -7.2294 C   0  0  0  0  0  0  0  0  0  0  0  0
   -3.5626   10.3128   -7.8011 C   0  0  0  0  0  0  0  0  0  0  0  0
   -4.8160    9.7710   -8.0425 C   0  0  0  0  0  0  0  0  0  0  0  0
   -2.1083   12.1736   -6.9694 C   0  0  0  0  0  0  0  0  0  0  0  0
   -1.7503   13.4247   -6.4858 C   0  0  0  0  0  0  0  0  0  0  0  0
   -0.4131   13.4674   -6.4189 N   0  0  0  0  0  0  0  0  0  0  0  0
    0.1758   12.3735   -6.8057 N   0  0  0  0  0  0  0  0  0  0  0  0
   -0.8094   11.5620   -7.1791 C   0  0  0  0  0  0  0  0  0  0  0  0
    0.4060   14.5705   -5.9896 C   0  0  0  0  0  0  0  0  0  0  0  0
   -5.6528   14.0066  -14.2746 O   0  0  0  0  0  0  0  0  0  0  0  0
   -6.0747   12.2631   -9.8555 H   0  0  0  0  0  0  0  0  0  0  0  0
   -8.1361   10.1224  -13.9137 H   0  0  0  0  0  0  0  0  0  0  0  0
   -6.7956   12.2399  -14.0855 H   0  0  0  0  0  0  0  0  0  0  0  0
   -8.6258    7.9778   -9.4591 H   0  0  0  0  0  0  0  0  0  0  0  0
   -8.0279    9.5798   -7.2599 H   0  0  0  0  0  0  0  0  0  0  0  0
   -4.2517   16.0431  -13.8534 H   0  0  0  0  0  0  0  0  0  0  0  0
   -4.9593   16.2038  -12.2102 H   0  0  0  0  0  0  0  0  0  0  0  0
   -3.4743   15.2236  -12.4567 H   0  0  0  0  0  0  0  0  0  0  0  0
   -6.7526   12.3233   -6.9261 H   0  0  0  0  0  0  0  0  0  0  0  0
   -4.5246   13.2972   -6.4815 H   0  0  0  0  0  0  0  0  0  0  0  0
   -3.4585   11.1486   -6.2240 H   0  0  0  0  0  0  0  0  0  0  0  0
   -2.6730    9.7536   -8.0506 H   0  0  0  0  0  0  0  0  0  0  0  0
   -4.8993    8.7846   -8.4743 H   0  0  0  0  0  0  0  0  0  0  0  0
   -2.4278   14.2202   -6.2127 H   0  0  0  0  0  0  0  0  0  0  0  0
   -0.6614   10.5729   -7.5868 H   0  0  0  0  0  0  0  0  0  0  0  0
    1.4672   14.2904   -6.0634 H   0  0  0  0  0  0  0  0  0  0  0  0
    0.2117   15.4427   -6.6311 H   0  0  0  0  0  0  0  0  0  0  0  0
    0.1649   14.8218   -4.9462 H   0  0  0  0  0  0  0  0  0  0  0  0
   -6.1759   13.2137  -14.2608 H   0  0  0  0  0  0  0  0  0  0  0  0
  1  2  2  0  0  0  0
  1  4  1  0  0  0  0
  1 13  1  0  0  0  0
  2  6  1  0  0  0  0
  3  4  2  0  0  0  0
  3  5  1  0  0  0  0
  5  6  1  0  0  0  0
  5  9  2  0  0  0  0
  6  7  2  0  0  0  0
  7  8  1  0  0  0  0
  7 10  1  0  0  0  0
  8  9  1  0  0  0  0
 10 14  2  0  0  0  0
 11 12  1  0  0  0  0
 11 13  2  0  0  0  0
 11 26  1  0  0  0  0
 14 15  1  0  0  0  0
 14 19  1  0  0  0  0
 15 16  2  0  0  0  0
 16 17  1  0  0  0  0
 17 18  1  0  0  0  0
 17 20  1  0  0  0  0
 18 19  2  0  0  0  0
 20 21  2  0  0  0  0
 20 24  1  0  0  0  0
 21 22  1  0  0  0  0
 22 23  1  0  0  0  0
 22 25  1  0  0  0  0
 23 24  2  0  0  0  0
  2 27  1  0  0  0  0
  3 28  1  0  0  0  0
  4 29  1  0  0  0  0
  8 30  1  0  0  0  0
 10 31  1  0  0  0  0
 12 32  1  0  0  0  0
 12 33  1  0  0  0  0
 12 34  1  0  0  0  0
 15 35  1  0  0  0  0
 16 36  1  0  0  0  0
 17 37  1  0  0  0  0
 18 38  1  0  0  0  0
 19 39  1  0  0  0  0
 21 40  1  0  0  0  0
 24 41  1  0  0  0  0
 25 42  1  0  0  0  0
 25 43  1  0  0  0  0
 25 44  1  0  0  0  0
 26 45  1  0  0  0  0
M  END
> <Name>
24

> <IC50[uM]>
0.029

$$$$
24
  -OEChem-05192314333D
 Structure written by MMmdl.
 45 48  0     0  0  0  0  0  0999 V2000
   -6.3515   12.3530  -11.9813 C   0  0  0  0  0  0  0  0  0  0  0  0
   -6.5085   11.7912  -10.7247 C   0  0  0  0  0  0  0  0  0  0  0  0
   -7.6802   10.5716  -13.0438 C   0  0  0  0  0  0  0  0  0  0  0  0
   -6.9296   11.7657  -13.1245 C   0  0  0  0  0  0  0  0  0  0  0  0
   -7.7980   10.0044  -11.7669 C   0  0  0  0  0  0  0  0  0  0  0  0
   -7.2328   10.6109  -10.5989 C   0  0  0  0  0  0  0  0  0  0  0  0
   -7.6209    9.7375   -9.5162 C   0  0  0  0  0  0  0  0  0  0  0  0
   -8.2754    8.7446   -9.9970 N   0  0  0  0  0  0  0  0  0  0  0  0
   -8.4233    8.8800  -11.3218 N   0  0  0  0  0  0  0  0  0  0  0  0
   -7.3328    9.8812   -8.0296 C   0  0  0  0  0  0  0  0  0  0  0  0
   -5.3004   14.2773  -13.1499 C   0  0  0  0  0  0  0  0  0  0  0  0
   -4.4346   15.5261  -12.8998 C   0  0  0  0  0  0  0  0  0  0  0  0
   -5.5896   13.5586  -12.0343 N   0  0  0  0  0  0  0  0  0  0  0  0
   -5.9706   10.4906   -7.7317 C   0  0  0  0  0  0  0  0  0  0  0  0
   -5.8616   11.7632   -7.1684 C   0  0  0  0  0  0  0  0  0  0  0  0
   -4.6051   12.3126   -6.9180 C   0  0  0  0  0  0  0  0  0  0  0  0
   -3.4544   11.5948   -7.2294 C   0  0  0  0  0  0  0  0  0  0  0  0
   -3.5626   10.3128   -7.8011 C   0  0  0  0  0  0  0  0  0  0  0  0
   -4.8160    9.7710   -8.0425 C   0  0  0  0  0  0  0  0  0  0  0  0
   -2.1083   12.1736   -6.9694 C   0  0  0  0  0  0  0  0  0  0  0  0
   -1.7503   13.4247   -6.4858 C   0  0  0  0  0  0  0  0  0  0  0  0
   -0.4131   13.4674   -6.4189 N   0  0  0  0  0  0  0  0  0  0  0  0
    0.1758   12.3735   -6.8057 N   0  0  0  0  0  0  0  0  0  0  0  0
   -0.8094   11.5620   -7.1791 C   0  0  0  0  0  0  0  0  0  0  0  0
    0.4060   14.5705   -5.9896 C   0  0  0  0  0  0  0  0  0  0  0  0
   -5.6528   14.0066  -14.2746 O   0  0  0  0  0  0  0  0  0  0  0  0
   -6.0747   12.2631   -9.8555 H   0  0  0  0  0  0  0  0  0  0  0  0
   -8.1361   10.1224  -13.9137 H   0  0  0  0  0  0  0  0  0  0  0  0
   -6.7956   12.2399  -14.0855 H   0  0  0  0  0  0  0  0  0  0  0  0
   -8.9253    8.2413  -11.9049 H   0  0  0  0  0  0  0  0  0  0  0  0
   -8.0279    9.5798   -7.2599 H   0  0  0  0  0  0  0  0  0  0  0  0
   -4.2517   16.0431  -13.8534 H   0  0  0  0  0  0  0  0  0  0  0  0
   -4.9593   16.2038  -12.2102 H   0  0  0  0  0  0  0  0  0  0  0  0
   -3.4743   15.2236  -12.4567 H   0  0  0  0  0  0  0  0  0  0  0  0
   -6.7526   12.3233   -6.9261 H   0  0  0  0  0  0  0  0  0  0  0  0
   -4.5246   13.2972   -6.4815 H   0  0  0  0  0  0  0  0  0  0  0  0
   -3.4585   11.1486   -6.2240 H   0  0  0  0  0  0  0  0  0  0  0  0
   -2.6730    9.7536   -8.0506 H   0  0  0  0  0  0  0  0  0  0  0  0
   -4.8993    8.7846   -8.4743 H   0  0  0  0  0  0  0  0  0  0  0  0
   -2.4278   14.2202   -6.2127 H   0  0  0  0  0  0  0  0  0  0  0  0
   -0.6614   10.5729   -7.5868 H   0  0  0  0  0  0  0  0  0  0  0  0
    1.4672   14.2904   -6.0634 H   0  0  0  0  0  0  0  0  0  0  0  0
    0.2117   15.4427   -6.6311 H   0  0  0  0  0  0  0  0  0  0  0  0
    0.1649   14.8218   -4.9462 H   0  0  0  0  0  0  0  0  0  0  0  0
   -6.1759   13.2137  -14.2608 H   0  0  0  0  0  0  0  0  0  0  0  0
  1  2  2  0  0  0  0
  1  4  1  0  0  0  0
  1 13  1  0  0  0  0
  2  6  1  0  0  0  0
  3  4  2  0  0  0  0
  3  5  1  0  0  0  0
  5  6  2  0  0  0  0
  5  9  1  0  0  0  0
  6  7  1  0  0  0  0
  7  8  2  0  0  0  0
  7 10  1  0  0  0  0
  8  9  1  0  0  0  0
 10 14  2  0  0  0  0
 11 12  1  0  0  0  0
 11 13  2  0  0  0  0
 11 26  1  0  0  0  0
 14 15  1  0  0  0  0
 14 19  1  0  0  0  0
 15 16  2  0  0  0  0
 16 17  1  0  0  0  0
 17 18  1  0  0  0  0
 17 20  1  0  0  0  0
 18 19  2  0  0  0  0
 20 21  2  0  0  0  0
 20 24  1  0  0  0  0
 21 22  1  0  0  0  0
 22 23  1  0  0  0  0
 22 25  1  0  0  0  0
 23 24  2  0  0  0  0
  2 27  1  0  0  0  0
  3 28  1  0  0  0  0
  4 29  1  0  0  0  0
  9 30  1  0  0  0  0
 10 31  1  0  0  0  0
 12 32  1  0  0  0  0
 12 33  1  0  0  0  0
 12 34  1  0  0  0  0
 15 35  1  0  0  0  0
 16 36  1  0  0  0  0
 17 37  1  0  0  0  0
 18 38  1  0  0  0  0
 19 39  1  0  0  0  0
 21 40  1  0  0  0  0
 24 41  1  0  0  0  0
 25 42  1  0  0  0  0
 25 43  1  0  0  0  0
 25 44  1  0  0  0  0
 26 45  1  0  0  0  0
M  END
> <Name>
24

> <IC50[uM]>
0.029

$$$$
24
  -OEChem-05192314333D
 Structure written by MMmdl.
 45 48  0     0  0  0  0  0  0999 V2000
   -6.3515   12.3530  -11.9813 C   0  0  0  0  0  0  0  0  0  0  0  0
   -6.5085   11.7912  -10.7247 C   0  0  0  0  0  0  0  0  0  0  0  0
   -7.6802   10.5716  -13.0438 C   0  0  0  0  0  0  0  0  0  0  0  0
   -6.9296   11.7657  -13.1245 C   0  0  0  0  0  0  0  0  0  0  0  0
   -7.7980   10.0044  -11.7669 C   0  0  0  0  0  0  0  0  0  0  0  0
   -7.2328   10.6109  -10.5989 C   0  0  0  0  0  0  0  0  0  0  0  0
   -7.6209    9.7375   -9.5162 C   0  0  0  0  0  0  0  0  0  0  0  0
   -8.2754    8.7446   -9.9970 N   0  0  0  0  0  0  0  0  0  0  0  0
   -8.4233    8.8800  -11.3218 N   0  0  0  0  0  0  0  0  0  0  0  0
   -7.3328    9.8812   -8.0296 C   0  0  0  0  0  0  0  0  0  0  0  0
   -5.3004   14.2773  -13.1499 C   0  0  0  0  0  0  0  0  0  0  0  0
   -4.4346   15.5261  -12.8998 C   0  0  0  0  0  0  0  0  0  0  0  0
   -5.5896   13.5586  -12.0343 N   0  0  0  0  0  0  0  0  0  0  0  0
   -5.9706   10.4906   -7.7317 C   0  0  0  0  0  0  0  0  0  0  0  0
   -5.8616   11.7632   -7.1684 C   0  0  0  0  0  0  0  0  0  0  0  0
   -4.6051   12.3126   -6.9180 C   0  0  0  0  0  0  0  0  0  0  0  0
   -3.4544   11.5948   -7.2294 C   0  0  0  0  0  0  0  0  0  0  0  0
   -3.5626   10.3128   -7.8011 C   0  0  0  0  0  0  0  0  0  0  0  0
   -4.8160    9.7710   -8.0425 C   0  0  0  0  0  0  0  0  0  0  0  0
   -2.1083   12.1736   -6.9694 C   0  0  0  0  0  0  0  0  0  0  0  0
   -1.7503   13.4247   -6.4858 C   0  0  0  0  0  0  0  0  0  0  0  0
   -0.4131   13.4674   -6.4189 N   0  0  0  0  0  0  0  0  0  0  0  0
    0.1758   12.3735   -6.8057 N   0  0  0  0  0  0  0  0  0  0  0  0
   -0.8094   11.5620   -7.1791 C   0  0  0  0  0  0  0  0  0  0  0  0
    0.4060   14.5705   -5.9896 C   0  0  0  0  0  0  0  0  0  0  0  0
   -5.6528   14.0066  -14.2746 O   0  0  0  0  0  0  0  0  0  0  0  0
   -6.0747   12.2631   -9.8555 H   0  0  0  0  0  0  0  0  0  0  0  0
   -8.1361   10.1224  -13.9137 H   0  0  0  0  0  0  0  0  0  0  0  0
   -6.7956   12.2399  -14.0855 H   0  0  0  0  0  0  0  0  0  0  0  0
   -8.6258    7.9778   -9.4591 H   0  0  0  0  0  0  0  0  0  0  0  0
   -8.0279    9.5798   -7.2599 H   0  0  0  0  0  0  0  0  0  0  0  0
   -4.2517   16.0431  -13.8534 H   0  0  0  0  0  0  0  0  0  0  0  0
   -4.9593   16.2038  -12.2102 H   0  0  0  0  0  0  0  0  0  0  0  0
   -3.4743   15.2236  -12.4567 H   0  0  0  0  0  0  0  0  0  0  0  0
   -6.7526   12.3233   -6.9261 H   0  0  0  0  0  0  0  0  0  0  0  0
   -4.5246   13.2972   -6.4815 H   0  0  0  0  0  0  0  0  0  0  0  0
   -2.6730    9.7536   -8.0506 H   0  0  0  0  0  0  0  0  0  0  0  0
   -4.8679    8.8310   -7.4736 H   0  0  0  0  0  0  0  0  0  0  0  0
   -4.8621    9.5509   -9.1193 H   0  0  0  0  0  0  0  0  0  0  0  0
   -2.4278   14.2202   -6.2127 H   0  0  0  0  0  0  0  0  0  0  0  0
   -0.6614   10.5729   -7.5868 H   0  0  0  0  0  0  0  0  0  0  0  0
    1.4672   14.2904   -6.0634 H   0  0  0  0  0  0  0  0  0  0  0  0
    0.2117   15.4427   -6.6311 H   0  0  0  0  0  0  0  0  0  0  0  0
    0.1649   14.8218   -4.9462 H   0  0  0  0  0  0  0  0  0  0  0  0
   -6.1759   13.2137  -14.2608 H   0  0  0  0  0  0  0  0  0  0  0  0
  1  2  2  0  0  0  0
  1  4  1  0  0  0  0
  1 13  1  0  0  0  0
  2  6  1  0  0  0  0
  3  4  2  0  0  0  0
  3  5  1  0  0  0  0
  5  6  1  0  0  0  0
  5  9  2  0  0  0  0
  6  7  2  0  0  0  0
  7  8  1  0  0  0  0
  7 10  1  0  0  0  0
  8  9  1  0  0  0  0
 10 14  2  3  0  0  0
 11 12  1  0  0  0  0
 11 13  2  0  0  0  0
 11 26  1  0  0  0  0
 14 15  1  0  0  0  0
 14 19  1  0  0  0  0
 15 16  2  0  0  0  0
 16 17  1  0  0  0  0
 17 18  2  0  0  0  0
 17 20  1  0  0  0  0
 18 19  1  0  0  0  0
 20 21  2  0  0  0  0
 20 24  1  0  0  0  0
 21 22  1  0  0  0  0
 22 23  1  0  0  0  0
 22 25  1  0  0  0  0
 23 24  2  0  0  0  0
  2 27  1  0  0  0  0
  3 28  1  0  0  0  0
  4 29  1  0  0  0  0
  8 30  1  0  0  0  0
 10 31  1  0  0  0  0
 12 32  1  0  0  0  0
 12 33  1  0  0  0  0
 12 34  1  0  0  0  0
 15 35  1  0  0  0  0
 16 36  1  0  0  0  0
 18 37  1  0  0  0  0
 19 38  1  0  0  0  0
 19 39  1  0  0  0  0
 21 40  1  0  0  0  0
 24 41  1  0  0  0  0
 25 42  1  0  0  0  0
 25 43  1  0  0  0  0
 25 44  1  0  0  0  0
 26 45  1  0  0  0  0
M  END
> <Name>
24

> <IC50[uM]>
0.029

$$$$
24
  -OEChem-05192314333D
 Structure written by MMmdl.
 45 48  0     0  0  0  0  0  0999 V2000
   -6.3515   12.3530  -11.9813 C   0  0  0  0  0  0  0  0  0  0  0  0
   -6.5085   11.7912  -10.7247 C   0  0  0  0  0  0  0  0  0  0  0  0
   -7.6802   10.5716  -13.0438 C   0  0  0  0  0  0  0  0  0  0  0  0
   -6.9296   11.7657  -13.1245 C   0  0  0  0  0  0  0  0  0  0  0  0
   -7.7980   10.0044  -11.7669 C   0  0  0  0  0  0  0  0  0  0  0  0
   -7.2328   10.6109  -10.5989 C   0  0  0  0  0  0  0  0  0  0  0  0
   -7.6209    9.7375   -9.5162 C   0  0  0  0  0  0  0  0  0  0  0  0
   -8.2754    8.7446   -9.9970 N   0  0  0  0  0  0  0  0  0  0  0  0
   -8.4233    8.8800  -11.3218 N   0  0  0  0  0  0  0  0  0  0  0  0
   -7.3328    9.8812   -8.0296 C   0  0  0  0  0  0  0  0  0  0  0  0
   -5.3004   14.2773  -13.1499 C   0  0  0  0  0  0  0  0  0  0  0  0
   -4.4346   15.5261  -12.8998 C   0  0  0  0  0  0  0  0  0  0  0  0
   -5.5896   13.5586  -12.0343 N   0  0  0  0  0  0  0  0  0  0  0  0
   -5.9706   10.4906   -7.7317 C   0  0  0  0  0  0  0  0  0  0  0  0
   -5.8616   11.7632   -7.1684 C   0  0  0  0  0  0  0  0  0  0  0  0
   -4.6051   12.3126   -6.9180 C   0  0  0  0  0  0  0  0  0  0  0  0
   -3.4544   11.5948   -7.2294 C   0  0  0  0  0  0  0  0  0  0  0  0
   -3.5626   10.3128   -7.8011 C   0  0  0  0  0  0  0  0  0  0  0  0
   -4.8160    9.7710   -8.0425 C   0  0  0  0  0  0  0  0  0  0  0  0
   -2.1083   12.1736   -6.9694 C   0  0  0  0  0  0  0  0  0  0  0  0
   -1.7503   13.4247   -6.4858 C   0  0  0  0  0  0  0  0  0  0  0  0
   -0.4131   13.4674   -6.4189 N   0  0  0  0  0  0  0  0  0  0  0  0
    0.1758   12.3735   -6.8057 N   0  0  0  0  0  0  0  0  0  0  0  0
   -0.8094   11.5620   -7.1791 C   0  0  0  0  0  0  0  0  0  0  0  0
    0.4060   14.5705   -5.9896 C   0  0  0  0  0  0  0  0  0  0  0  0
   -5.6528   14.0066  -14.2746 O   0  0  0  0  0  0  0  0  0  0  0  0
   -6.0747   12.2631   -9.8555 H   0  0  0  0  0  0  0  0  0  0  0  0
   -8.1361   10.1224  -13.9137 H   0  0  0  0  0  0  0  0  0  0  0  0
   -6.7956   12.2399  -14.0855 H   0  0  0  0  0  0  0  0  0  0  0  0
   -8.9253    8.2413  -11.9049 H   0  0  0  0  0  0  0  0  0  0  0  0
   -8.0279    9.5798   -7.2599 H   0  0  0  0  0  0  0  0  0  0  0  0
   -4.2517   16.0431  -13.8534 H   0  0  0  0  0  0  0  0  0  0  0  0
   -4.9593   16.2038  -12.2102 H   0  0  0  0  0  0  0  0  0  0  0  0
   -3.4743   15.2236  -12.4567 H   0  0  0  0  0  0  0  0  0  0  0  0
   -6.7526   12.3233   -6.9261 H   0  0  0  0  0  0  0  0  0  0  0  0
   -4.5246   13.2972   -6.4815 H   0  0  0  0  0  0  0  0  0  0  0  0
   -2.6730    9.7536   -8.0506 H   0  0  0  0  0  0  0  0  0  0  0  0
   -4.8679    8.8310   -7.4736 H   0  0  0  0  0  0  0  0  0  0  0  0
   -4.8621    9.5509   -9.1193 H   0  0  0  0  0  0  0  0  0  0  0  0
   -2.4278   14.2202   -6.2127 H   0  0  0  0  0  0  0  0  0  0  0  0
   -0.6614   10.5729   -7.5868 H   0  0  0  0  0  0  0  0  0  0  0  0
    1.4672   14.2904   -6.0634 H   0  0  0  0  0  0  0  0  0  0  0  0
    0.2117   15.4427   -6.6311 H   0  0  0  0  0  0  0  0  0  0  0  0
    0.1649   14.8218   -4.9462 H   0  0  0  0  0  0  0  0  0  0  0  0
   -6.1759   13.2137  -14.2608 H   0  0  0  0  0  0  0  0  0  0  0  0
  1  2  2  0  0  0  0
  1  4  1  0  0  0  0
  1 13  1  0  0  0  0
  2  6  1  0  0  0  0
  3  4  2  0  0  0  0
  3  5  1  0  0  0  0
  5  6  2  0  0  0  0
  5  9  1  0  0  0  0
  6  7  1  0  0  0  0
  7  8  2  0  0  0  0
  7 10  1  0  0  0  0
  8  9  1  0  0  0  0
 10 14  2  3  0  0  0
 11 12  1  0  0  0  0
 11 13  2  0  0  0  0
 11 26  1  0  0  0  0
 14 15  1  0  0  0  0
 14 19  1  0  0  0  0
 15 16  2  0  0  0  0
 16 17  1  0  0  0  0
 17 18  2  0  0  0  0
 17 20  1  0  0  0  0
 18 19  1  0  0  0  0
 20 21  2  0  0  0  0
 20 24  1  0  0  0  0
 21 22  1  0  0  0  0
 22 23  1  0  0  0  0
 22 25  1  0  0  0  0
 23 24  2  0  0  0  0
  2 27  1  0  0  0  0
  3 28  1  0  0  0  0
  4 29  1  0  0  0  0
  9 30  1  0  0  0  0
 10 31  1  0  0  0  0
 12 32  1  0  0  0  0
 12 33  1  0  0  0  0
 12 34  1  0  0  0  0
 15 35  1  0  0  0  0
 16 36  1  0  0  0  0
 18 37  1  0  0  0  0
 19 38  1  0  0  0  0
 19 39  1  0  0  0  0
 21 40  1  0  0  0  0
 24 41  1  0  0  0  0
 25 42  1  0  0  0  0
 25 43  1  0  0  0  0
 25 44  1  0  0  0  0
 26 45  1  0  0  0  0
M  END
> <Name>
24

> <IC50[uM]>
0.029

$$$$
24
  -OEChem-05192314333D
 Structure written by MMmdl.
 45 48  0     1  0  0  0  0  0999 V2000
   -6.3515   12.3530  -11.9813 C   0  0  0  0  0  0  0  0  0  0  0  0
   -6.5085   11.7912  -10.7247 C   0  0  0  0  0  0  0  0  0  0  0  0
   -7.6802   10.5716  -13.0438 C   0  0  0  0  0  0  0  0  0  0  0  0
   -6.9296   11.7657  -13.1245 C   0  0  0  0  0  0  0  0  0  0  0  0
   -7.7980   10.0044  -11.7669 C   0  0  0  0  0  0  0  0  0  0  0  0
   -7.2328   10.6109  -10.5989 C   0  0  0  0  0  0  0  0  0  0  0  0
   -7.6209    9.7375   -9.5162 C   0  0  0  0  0  0  0  0  0  0  0  0
   -8.2754    8.7446   -9.9970 N   0  0  0  0  0  0  0  0  0  0  0  0
   -8.4233    8.8800  -11.3218 N   0  0  0  0  0  0  0  0  0  0  0  0
   -7.3328    9.8812   -8.0296 C   0  0  0  0  0  0  0  0  0  0  0  0
   -5.3004   14.2773  -13.1499 C   0  0  0  0  0  0  0  0  0  0  0  0
   -4.4346   15.5261  -12.8998 C   0  0  0  0  0  0  0  0  0  0  0  0
   -5.5896   13.5586  -12.0343 N   0  0  0  0  0  0  0  0  0  0  0  0
   -5.9706   10.4906   -7.7317 C   0  0  0  0  0  0  0  0  0  0  0  0
   -5.8616   11.7632   -7.1684 C   0  0  0  0  0  0  0  0  0  0  0  0
   -4.6051   12.3126   -6.9180 C   0  0  0  0  0  0  0  0  0  0  0  0
   -3.4544   11.5948   -7.2294 C   0  0  0  0  0  0  0  0  0  0  0  0
   -3.5626   10.3128   -7.8011 C   0  0  0  0  0  0  0  0  0  0  0  0
   -4.8160    9.7710   -8.0425 C   0  0  0  0  0  0  0  0  0  0  0  0
   -2.1083   12.1736   -6.9694 C   0  0  3  0  0  0  0  0  0  0  0  0
   -1.7503   13.4247   -6.4858 C   0  0  0  0  0  0  0  0  0  0  0  0
   -0.4131   13.4674   -6.4189 N   0  0  3  0  0  0  0  0  0  0  0  0
    0.1758   12.3735   -6.8057 N   0  0  0  0  0  0  0  0  0  0  0  0
   -0.8094   11.5620   -7.1791 C   0  0  0  0  0  0  0  0  0  0  0  0
    0.4060   14.5705   -5.9896 C   0  0  0  0  0  0  0  0  0  0  0  0
   -5.6528   14.0066  -14.2746 O   0  0  0  0  0  0  0  0  0  0  0  0
   -6.0747   12.2631   -9.8555 H   0  0  0  0  0  0  0  0  0  0  0  0
   -8.1361   10.1224  -13.9137 H   0  0  0  0  0  0  0  0  0  0  0  0
   -6.7956   12.2399  -14.0855 H   0  0  0  0  0  0  0  0  0  0  0  0
   -8.0279    9.5798   -7.2599 H   0  0  0  0  0  0  0  0  0  0  0  0
   -4.2429   16.0373  -13.8548 H   0  0  0  0  0  0  0  0  0  0  0  0
   -4.9638   16.2086  -12.2185 H   0  0  0  0  0  0  0  0  0  0  0  0
   -3.4785   15.2246  -12.4471 H   0  0  0  0  0  0  0  0  0  0  0  0
   -5.2347   13.9076  -11.1670 H   0  0  0  0  0  0  0  0  0  0  0  0
   -6.7526   12.3233   -6.9261 H   0  0  0  0  0  0  0  0  0  0  0  0
   -4.5246   13.2972   -6.4815 H   0  0  0  0  0  0  0  0  0  0  0  0
   -2.6730    9.7536   -8.0506 H   0  0  0  0  0  0  0  0  0  0  0  0
   -4.8993    8.7846   -8.4743 H   0  0  0  0  0  0  0  0  0  0  0  0
   -2.1327   11.7792   -5.9428 H   0  0  0  0  0  0  0  0  0  0  0  0
   -2.1167   14.2081   -7.1655 H   0  0  0  0  0  0  0  0  0  0  0  0
   -2.1807   13.5768   -5.4850 H   0  0  0  0  0  0  0  0  0  0  0  0
   -0.6614   10.5729   -7.5868 H   0  0  0  0  0  0  0  0  0  0  0  0
    1.4672   14.2904   -6.0634 H   0  0  0  0  0  0  0  0  0  0  0  0
    0.2117   15.4427   -6.6311 H   0  0  0  0  0  0  0  0  0  0  0  0
    0.1649   14.8218   -4.9462 H   0  0  0  0  0  0  0  0  0  0  0  0
  1  2  2  0  0  0  0
  1  4  1  0  0  0  0
  1 13  1  0  0  0  0
  2  6  1  0  0  0  0
  3  4  2  0  0  0  0
  3  5  1  0  0  0  0
  5  6  2  0  0  0  0
  5  9  1  0  0  0  0
  6  7  1  0  0  0  0
  7  8  1  0  0  0  0
  7 10  2  3  0  0  0
  8  9  2  0  0  0  0
 10 14  1  0  0  0  0
 11 12  1  0  0  0  0
 11 13  1  0  0  0  0
 11 26  2  0  0  0  0
 14 15  2  0  0  0  0
 14 19  1  0  0  0  0
 15 16  1  0  0  0  0
 16 17  2  0  0  0  0
 17 18  1  0  0  0  0
 17 20  1  0  0  0  0
 18 19  2  0  0  0  0
 20 21  1  0  0  0  0
 20 24  1  0  0  0  0
 21 22  1  0  0  0  0
 22 23  1  0  0  0  0
 22 25  1  0  0  0  0
 23 24  2  0  0  0  0
  2 27  1  0  0  0  0
  3 28  1  0  0  0  0
  4 29  1  0  0  0  0
 10 30  1  0  0  0  0
 12 31  1  0  0  0  0
 12 32  1  0  0  0  0
 12 33  1  0  0  0  0
 13 34  1  0  0  0  0
 15 35  1  0  0  0  0
 16 36  1  0  0  0  0
 18 37  1  0  0  0  0
 19 38  1  0  0  0  0
 20 39  1  0  0  0  0
 21 40  1  0  0  0  0
 21 41  1  0  0  0  0
 24 42  1  0  0  0  0
 25 43  1  0  0  0  0
 25 44  1  0  0  0  0
 25 45  1  0  0  0  0
M  END
> <Name>
24

> <IC50[uM]>
0.029

$$$$
24
  -OEChem-05192314333D
 Structure written by MMmdl.
 45 48  0     1  0  0  0  0  0999 V2000
   -6.3515   12.3530  -11.9813 C   0  0  0  0  0  0  0  0  0  0  0  0
   -6.5085   11.7912  -10.7247 C   0  0  0  0  0  0  0  0  0  0  0  0
   -7.6802   10.5716  -13.0438 C   0  0  0  0  0  0  0  0  0  0  0  0
   -6.9296   11.7657  -13.1245 C   0  0  0  0  0  0  0  0  0  0  0  0
   -7.7980   10.0044  -11.7669 C   0  0  0  0  0  0  0  0  0  0  0  0
   -7.2328   10.6109  -10.5989 C   0  0  0  0  0  0  0  0  0  0  0  0
   -7.6209    9.7375   -9.5162 C   0  0  0  0  0  0  0  0  0  0  0  0
   -8.2754    8.7446   -9.9970 N   0  0  0  0  0  0  0  0  0  0  0  0
   -8.4233    8.8800  -11.3218 N   0  0  0  0  0  0  0  0  0  0  0  0
   -7.3328    9.8812   -8.0296 C   0  0  0  0  0  0  0  0  0  0  0  0
   -5.3004   14.2773  -13.1499 C   0  0  0  0  0  0  0  0  0  0  0  0
   -4.4346   15.5261  -12.8998 C   0  0  0  0  0  0  0  0  0  0  0  0
   -5.5896   13.5586  -12.0343 N   0  0  0  0  0  0  0  0  0  0  0  0
   -5.9706   10.4906   -7.7317 C   0  0  0  0  0  0  0  0  0  0  0  0
   -5.8616   11.7632   -7.1684 C   0  0  0  0  0  0  0  0  0  0  0  0
   -4.6051   12.3126   -6.9180 C   0  0  0  0  0  0  0  0  0  0  0  0
   -3.4544   11.5948   -7.2294 C   0  0  0  0  0  0  0  0  0  0  0  0
   -3.5626   10.3128   -7.8011 C   0  0  0  0  0  0  0  0  0  0  0  0
   -4.8160    9.7710   -8.0425 C   0  0  0  0  0  0  0  0  0  0  0  0
   -2.1083   12.1736   -6.9694 C   0  0  3  0  0  0  0  0  0  0  0  0
   -1.7503   13.4247   -6.4858 C   0  0  0  0  0  0  0  0  0  0  0  0
   -0.4131   13.4674   -6.4189 N   0  0  3  0  0  0  0  0  0  0  0  0
    0.1758   12.3735   -6.8057 N   0  0  0  0  0  0  0  0  0  0  0  0
   -0.8094   11.5620   -7.1791 C   0  0  0  0  0  0  0  0  0  0  0  0
    0.4060   14.5705   -5.9896 C   0  0  0  0  0  0  0  0  0  0  0  0
   -5.6528   14.0066  -14.2746 O   0  0  0  0  0  0  0  0  0  0  0  0
   -6.0747   12.2631   -9.8555 H   0  0  0  0  0  0  0  0  0  0  0  0
   -8.1361   10.1224  -13.9137 H   0  0  0  0  0  0  0  0  0  0  0  0
   -6.7956   12.2399  -14.0855 H   0  0  0  0  0  0  0  0  0  0  0  0
   -8.0279    9.5798   -7.2599 H   0  0  0  0  0  0  0  0  0  0  0  0
   -4.2517   16.0431  -13.8534 H   0  0  0  0  0  0  0  0  0  0  0  0
   -4.9593   16.2038  -12.2102 H   0  0  0  0  0  0  0  0  0  0  0  0
   -3.4743   15.2236  -12.4567 H   0  0  0  0  0  0  0  0  0  0  0  0
   -6.7526   12.3233   -6.9261 H   0  0  0  0  0  0  0  0  0  0  0  0
   -4.5246   13.2972   -6.4815 H   0  0  0  0  0  0  0  0  0  0  0  0
   -2.6730    9.7536   -8.0506 H   0  0  0  0  0  0  0  0  0  0  0  0
   -4.8993    8.7846   -8.4743 H   0  0  0  0  0  0  0  0  0  0  0  0
   -2.1327   11.7792   -5.9428 H   0  0  0  0  0  0  0  0  0  0  0  0
   -2.1167   14.2081   -7.1655 H   0  0  0  0  0  0  0  0  0  0  0  0
   -2.1807   13.5768   -5.4850 H   0  0  0  0  0  0  0  0  0  0  0  0
   -0.6614   10.5729   -7.5868 H   0  0  0  0  0  0  0  0  0  0  0  0
    1.4672   14.2904   -6.0634 H   0  0  0  0  0  0  0  0  0  0  0  0
    0.2117   15.4427   -6.6311 H   0  0  0  0  0  0  0  0  0  0  0  0
    0.1649   14.8218   -4.9462 H   0  0  0  0  0  0  0  0  0  0  0  0
   -6.1759   13.2137  -14.2608 H   0  0  0  0  0  0  0  0  0  0  0  0
  1  2  2  0  0  0  0
  1  4  1  0  0  0  0
  1 13  1  0  0  0  0
  2  6  1  0  0  0  0
  3  4  2  0  0  0  0
  3  5  1  0  0  0  0
  5  6  2  0  0  0  0
  5  9  1  0  0  0  0
  6  7  1  0  0  0  0
  7  8  1  0  0  0  0
  7 10  2  3  0  0  0
  8  9  2  0  0  0  0
 10 14  1  0  0  0  0
 11 12  1  0  0  0  0
 11 13  2  0  0  0  0
 11 26  1  0  0  0  0
 14 15  2  0  0  0  0
 14 19  1  0  0  0  0
 15 16  1  0  0  0  0
 16 17  2  0  0  0  0
 17 18  1  0  0  0  0
 17 20  1  0  0  0  0
 18 19  2  0  0  0  0
 20 21  1  0  0  0  0
 20 24  1  0  0  0  0
 21 22  1  0  0  0  0
 22 23  1  0  0  0  0
 22 25  1  0  0  0  0
 23 24  2  0  0  0  0
  2 27  1  0  0  0  0
  3 28  1  0  0  0  0
  4 29  1  0  0  0  0
 10 30  1  0  0  0  0
 12 31  1  0  0  0  0
 12 32  1  0  0  0  0
 12 33  1  0  0  0  0
 15 34  1  0  0  0  0
 16 35  1  0  0  0  0
 18 36  1  0  0  0  0
 19 37  1  0  0  0  0
 20 38  1  0  0  0  0
 21 39  1  0  0  0  0
 21 40  1  0  0  0  0
 24 41  1  0  0  0  0
 25 42  1  0  0  0  0
 25 43  1  0  0  0  0
 25 44  1  0  0  0  0
 26 45  1  0  0  0  0
M  END
> <Name>
24

> <IC50[uM]>
0.029

$$$$
24
  -OEChem-05192314333D
 Structure written by MMmdl.
 45 48  0     1  0  0  0  0  0999 V2000
   -6.3515   12.3530  -11.9813 C   0  0  0  0  0  0  0  0  0  0  0  0
   -6.5085   11.7912  -10.7247 C   0  0  0  0  0  0  0  0  0  0  0  0
   -7.6802   10.5716  -13.0438 C   0  0  0  0  0  0  0  0  0  0  0  0
   -6.9296   11.7657  -13.1245 C   0  0  0  0  0  0  0  0  0  0  0  0
   -7.7980   10.0044  -11.7669 C   0  0  0  0  0  0  0  0  0  0  0  0
   -7.2328   10.6109  -10.5989 C   0  0  0  0  0  0  0  0  0  0  0  0
   -7.6209    9.7375   -9.5162 C   0  0  0  0  0  0  0  0  0  0  0  0
   -8.2754    8.7446   -9.9970 N   0  0  0  0  0  0  0  0  0  0  0  0
   -8.4233    8.8800  -11.3218 N   0  0  0  0  0  0  0  0  0  0  0  0
   -7.3328    9.8812   -8.0296 C   0  0  0  0  0  0  0  0  0  0  0  0
   -5.3004   14.2773  -13.1499 C   0  0  0  0  0  0  0  0  0  0  0  0
   -4.4346   15.5261  -12.8998 C   0  0  0  0  0  0  0  0  0  0  0  0
   -5.5896   13.5586  -12.0343 N   0  0  0  0  0  0  0  0  0  0  0  0
   -5.9706   10.4906   -7.7317 C   0  0  0  0  0  0  0  0  0  0  0  0
   -5.8616   11.7632   -7.1684 C   0  0  0  0  0  0  0  0  0  0  0  0
   -4.6051   12.3126   -6.9180 C   0  0  0  0  0  0  0  0  0  0  0  0
   -3.4544   11.5948   -7.2294 C   0  0  0  0  0  0  0  0  0  0  0  0
   -3.5626   10.3128   -7.8011 C   0  0  0  0  0  0  0  0  0  0  0  0
   -4.8160    9.7710   -8.0425 C   0  0  0  0  0  0  0  0  0  0  0  0
   -2.1083   12.1736   -6.9694 C   0  0  0  0  0  0  0  0  0  0  0  0
   -1.7503   13.4247   -6.4858 C   0  0  0  0  0  0  0  0  0  0  0  0
   -0.4131   13.4674   -6.4189 N   0  0  3  0  0  0  0  0  0  0  0  0
    0.1758   12.3735   -6.8057 N   0  0  0  0  0  0  0  0  0  0  0  0
   -0.8094   11.5620   -7.1791 C   0  0  0  0  0  0  0  0  0  0  0  0
    0.4060   14.5705   -5.9896 C   0  0  0  0  0  0  0  0  0  0  0  0
   -5.6528   14.0066  -14.2746 O   0  0  0  0  0  0  0  0  0  0  0  0
   -6.0747   12.2631   -9.8555 H   0  0  0  0  0  0  0  0  0  0  0  0
   -8.1361   10.1224  -13.9137 H   0  0  0  0  0  0  0  0  0  0  0  0
   -6.7956   12.2399  -14.0855 H   0  0  0  0  0  0  0  0  0  0  0  0
   -8.0279    9.5798   -7.2599 H   0  0  0  0  0  0  0  0  0  0  0  0
   -4.2429   16.0373  -13.8548 H   0  0  0  0  0  0  0  0  0  0  0  0
   -4.9638   16.2086  -12.2185 H   0  0  0  0  0  0  0  0  0  0  0  0
   -3.4785   15.2246  -12.4471 H   0  0  0  0  0  0  0  0  0  0  0  0
   -5.2347   13.9076  -11.1670 H   0  0  0  0  0  0  0  0  0  0  0  0
   -6.7526   12.3233   -6.9261 H   0  0  0  0  0  0  0  0  0  0  0  0
   -4.5246   13.2972   -6.4815 H   0  0  0  0  0  0  0  0  0  0  0  0
   -2.6730    9.7536   -8.0506 H   0  0  0  0  0  0  0  0  0  0  0  0
   -4.8993    8.7846   -8.4743 H   0  0  0  0  0  0  0  0  0  0  0  0
   -2.4278   14.2202   -6.2127 H   0  0  0  0  0  0  0  0  0  0  0  0
    0.7889   12.5578   -7.5739 H   0  0  0  0  0  0  0  0  0  0  0  0
   -0.7515   10.6346   -6.5905 H   0  0  0  0  0  0  0  0  0  0  0  0
   -0.6933   11.3262   -8.2472 H   0  0  0  0  0  0  0  0  0  0  0  0
    1.4668   14.2860   -6.0513 H   0  0  0  0  0  0  0  0  0  0  0  0
    0.2210   15.4389   -6.6390 H   0  0  0  0  0  0  0  0  0  0  0  0
    0.1560   14.8300   -4.9503 H   0  0  0  0  0  0  0  0  0  0  0  0
  1  2  2  0  0  0  0
  1  4  1  0  0  0  0
  1 13  1  0  0  0  0
  2  6  1  0  0  0  0
  3  4  2  0  0  0  0
  3  5  1  0  0  0  0
  5  6  2  0  0  0  0
  5  9  1  0  0  0  0
  6  7  1  0  0  0  0
  7  8  1  0  0  0  0
  7 10  2  3  0  0  0
  8  9  2  0  0  0  0
 10 14  1  0  0  0  0
 11 12  1  0  0  0  0
 11 13  1  0  0  0  0
 11 26  2  0  0  0  0
 14 15  2  0  0  0  0
 14 19  1  0  0  0  0
 15 16  1  0  0  0  0
 16 17  2  0  0  0  0
 17 18  1  0  0  0  0
 17 20  1  0  0  0  0
 18 19  2  0  0  0  0
 20 21  2  0  0  0  0
 20 24  1  0  0  0  0
 21 22  1  0  0  0  0
 22 23  1  0  0  0  0
 22 25  1  0  0  0  0
 23 24  1  0  0  0  0
  2 27  1  0  0  0  0
  3 28  1  0  0  0  0
  4 29  1  0  0  0  0
 10 30  1  0  0  0  0
 12 31  1  0  0  0  0
 12 32  1  0  0  0  0
 12 33  1  0  0  0  0
 13 34  1  0  0  0  0
 15 35  1  0  0  0  0
 16 36  1  0  0  0  0
 18 37  1  0  0  0  0
 19 38  1  0  0  0  0
 21 39  1  0  0  0  0
 23 40  1  0  0  0  0
 24 41  1  0  0  0  0
 24 42  1  0  0  0  0
 25 43  1  0  0  0  0
 25 44  1  0  0  0  0
 25 45  1  0  0  0  0
M  END
> <Name>
24

> <IC50[uM]>
0.029

$$$$
24
  -OEChem-05192314333D
 Structure written by MMmdl.
 45 48  0     1  0  0  0  0  0999 V2000
   -6.3515   12.3530  -11.9813 C   0  0  0  0  0  0  0  0  0  0  0  0
   -6.5085   11.7912  -10.7247 C   0  0  0  0  0  0  0  0  0  0  0  0
   -7.6802   10.5716  -13.0438 C   0  0  0  0  0  0  0  0  0  0  0  0
   -6.9296   11.7657  -13.1245 C   0  0  0  0  0  0  0  0  0  0  0  0
   -7.7980   10.0044  -11.7669 C   0  0  0  0  0  0  0  0  0  0  0  0
   -7.2328   10.6109  -10.5989 C   0  0  0  0  0  0  0  0  0  0  0  0
   -7.6209    9.7375   -9.5162 C   0  0  0  0  0  0  0  0  0  0  0  0
   -8.2754    8.7446   -9.9970 N   0  0  0  0  0  0  0  0  0  0  0  0
   -8.4233    8.8800  -11.3218 N   0  0  0  0  0  0  0  0  0  0  0  0
   -7.3328    9.8812   -8.0296 C   0  0  0  0  0  0  0  0  0  0  0  0
   -5.3004   14.2773  -13.1499 C   0  0  0  0  0  0  0  0  0  0  0  0
   -4.4346   15.5261  -12.8998 C   0  0  0  0  0  0  0  0  0  0  0  0
   -5.5896   13.5586  -12.0343 N   0  0  0  0  0  0  0  0  0  0  0  0
   -5.9706   10.4906   -7.7317 C   0  0  0  0  0  0  0  0  0  0  0  0
   -5.8616   11.7632   -7.1684 C   0  0  0  0  0  0  0  0  0  0  0  0
   -4.6051   12.3126   -6.9180 C   0  0  0  0  0  0  0  0  0  0  0  0
   -3.4544   11.5948   -7.2294 C   0  0  0  0  0  0  0  0  0  0  0  0
   -3.5626   10.3128   -7.8011 C   0  0  0  0  0  0  0  0  0  0  0  0
   -4.8160    9.7710   -8.0425 C   0  0  0  0  0  0  0  0  0  0  0  0
   -2.1083   12.1736   -6.9694 C   0  0  0  0  0  0  0  0  0  0  0  0
   -1.7503   13.4247   -6.4858 C   0  0  0  0  0  0  0  0  0  0  0  0
   -0.4131   13.4674   -6.4189 N   0  0  3  0  0  0  0  0  0  0  0  0
    0.1758   12.3735   -6.8057 N   0  0  0  0  0  0  0  0  0  0  0  0
   -0.8094   11.5620   -7.1791 C   0  0  0  0  0  0  0  0  0  0  0  0
    0.4060   14.5705   -5.9896 C   0  0  0  0  0  0  0  0  0  0  0  0
   -5.6528   14.0066  -14.2746 O   0  0  0  0  0  0  0  0  0  0  0  0
   -6.0747   12.2631   -9.8555 H   0  0  0  0  0  0  0  0  0  0  0  0
   -8.1361   10.1224  -13.9137 H   0  0  0  0  0  0  0  0  0  0  0  0
   -6.7956   12.2399  -14.0855 H   0  0  0  0  0  0  0  0  0  0  0  0
   -8.0279    9.5798   -7.2599 H   0  0  0  0  0  0  0  0  0  0  0  0
   -4.2429   16.0373  -13.8548 H   0  0  0  0  0  0  0  0  0  0  0  0
   -4.9638   16.2086  -12.2185 H   0  0  0  0  0  0  0  0  0  0  0  0
   -3.4785   15.2246  -12.4471 H   0  0  0  0  0  0  0  0  0  0  0  0
   -5.2347   13.9076  -11.1670 H   0  0  0  0  0  0  0  0  0  0  0  0
   -6.7526   12.3233   -6.9261 H   0  0  0  0  0  0  0  0  0  0  0  0
   -4.5246   13.2972   -6.4815 H   0  0  0  0  0  0  0  0  0  0  0  0
   -2.6730    9.7536   -8.0506 H   0  0  0  0  0  0  0  0  0  0  0  0
   -4.8993    8.7846   -8.4743 H   0  0  0  0  0  0  0  0  0  0  0  0
   -2.1167   14.2081   -7.1655 H   0  0  0  0  0  0  0  0  0  0  0  0
   -2.1807   13.5768   -5.4850 H   0  0  0  0  0  0  0  0  0  0  0  0
    0.7889   12.5578   -7.5739 H   0  0  0  0  0  0  0  0  0  0  0  0
   -0.6614   10.5729   -7.5868 H   0  0  0  0  0  0  0  0  0  0  0  0
    1.4668   14.2860   -6.0513 H   0  0  0  0  0  0  0  0  0  0  0  0
    0.2210   15.4389   -6.6390 H   0  0  0  0  0  0  0  0  0  0  0  0
    0.1560   14.8300   -4.9503 H   0  0  0  0  0  0  0  0  0  0  0  0
  1  2  2  0  0  0  0
  1  4  1  0  0  0  0
  1 13  1  0  0  0  0
  2  6  1  0  0  0  0
  3  4  2  0  0  0  0
  3  5  1  0  0  0  0
  5  6  2  0  0  0  0
  5  9  1  0  0  0  0
  6  7  1  0  0  0  0
  7  8  1  0  0  0  0
  7 10  2  3  0  0  0
  8  9  2  0  0  0  0
 10 14  1  0  0  0  0
 11 12  1  0  0  0  0
 11 13  1  0  0  0  0
 11 26  2  0  0  0  0
 14 15  2  0  0  0  0
 14 19  1  0  0  0  0
 15 16  1  0  0  0  0
 16 17  2  0  0  0  0
 17 18  1  0  0  0  0
 17 20  1  0  0  0  0
 18 19  2  0  0  0  0
 20 21  1  0  0  0  0
 20 24  2  0  0  0  0
 21 22  1  0  0  0  0
 22 23  1  0  0  0  0
 22 25  1  0  0  0  0
 23 24  1  0  0  0  0
  2 27  1  0  0  0  0
  3 28  1  0  0  0  0
  4 29  1  0  0  0  0
 10 30  1  0  0  0  0
 12 31  1  0  0  0  0
 12 32  1  0  0  0  0
 12 33  1  0  0  0  0
 13 34  1  0  0  0  0
 15 35  1  0  0  0  0
 16 36  1  0  0  0  0
 18 37  1  0  0  0  0
 19 38  1  0  0  0  0
 21 39  1  0  0  0  0
 21 40  1  0  0  0  0
 23 41  1  0  0  0  0
 24 42  1  0  0  0  0
 25 43  1  0  0  0  0
 25 44  1  0  0  0  0
 25 45  1  0  0  0  0
M  END
> <Name>
24

> <IC50[uM]>
0.029

$$$$
24
  -OEChem-05192314333D
 Structure written by MMmdl.
 45 48  0     1  0  0  0  0  0999 V2000
   -6.3515   12.3530  -11.9813 C   0  0  0  0  0  0  0  0  0  0  0  0
   -6.5085   11.7912  -10.7247 C   0  0  0  0  0  0  0  0  0  0  0  0
   -7.6802   10.5716  -13.0438 C   0  0  0  0  0  0  0  0  0  0  0  0
   -6.9296   11.7657  -13.1245 C   0  0  0  0  0  0  0  0  0  0  0  0
   -7.7980   10.0044  -11.7669 C   0  0  0  0  0  0  0  0  0  0  0  0
   -7.2328   10.6109  -10.5989 C   0  0  0  0  0  0  0  0  0  0  0  0
   -7.6209    9.7375   -9.5162 C   0  0  0  0  0  0  0  0  0  0  0  0
   -8.2754    8.7446   -9.9970 N   0  0  0  0  0  0  0  0  0  0  0  0
   -8.4233    8.8800  -11.3218 N   0  0  0  0  0  0  0  0  0  0  0  0
   -7.3328    9.8812   -8.0296 C   0  0  0  0  0  0  0  0  0  0  0  0
   -5.3004   14.2773  -13.1499 C   0  0  0  0  0  0  0  0  0  0  0  0
   -4.4346   15.5261  -12.8998 C   0  0  0  0  0  0  0  0  0  0  0  0
   -5.5896   13.5586  -12.0343 N   0  0  0  0  0  0  0  0  0  0  0  0
   -5.9706   10.4906   -7.7317 C   0  0  0  0  0  0  0  0  0  0  0  0
   -5.8616   11.7632   -7.1684 C   0  0  0  0  0  0  0  0  0  0  0  0
   -4.6051   12.3126   -6.9180 C   0  0  0  0  0  0  0  0  0  0  0  0
   -3.4544   11.5948   -7.2294 C   0  0  0  0  0  0  0  0  0  0  0  0
   -3.5626   10.3128   -7.8011 C   0  0  0  0  0  0  0  0  0  0  0  0
   -4.8160    9.7710   -8.0425 C   0  0  0  0  0  0  0  0  0  0  0  0
   -2.1083   12.1736   -6.9694 C   0  0  0  0  0  0  0  0  0  0  0  0
   -1.7503   13.4247   -6.4858 C   0  0  0  0  0  0  0  0  0  0  0  0
   -0.4131   13.4674   -6.4189 N   0  0  3  0  0  0  0  0  0  0  0  0
    0.1758   12.3735   -6.8057 N   0  0  0  0  0  0  0  0  0  0  0  0
   -0.8094   11.5620   -7.1791 C   0  0  0  0  0  0  0  0  0  0  0  0
    0.4060   14.5705   -5.9896 C   0  0  0  0  0  0  0  0  0  0  0  0
   -5.6528   14.0066  -14.2746 O   0  0  0  0  0  0  0  0  0  0  0  0
   -6.0747   12.2631   -9.8555 H   0  0  0  0  0  0  0  0  0  0  0  0
   -8.1361   10.1224  -13.9137 H   0  0  0  0  0  0  0  0  0  0  0  0
   -6.7956   12.2399  -14.0855 H   0  0  0  0  0  0  0  0  0  0  0  0
   -8.0279    9.5798   -7.2599 H   0  0  0  0  0  0  0  0  0  0  0  0
   -4.2517   16.0431  -13.8534 H   0  0  0  0  0  0  0  0  0  0  0  0
   -4.9593   16.2038  -12.2102 H   0  0  0  0  0  0  0  0  0  0  0  0
   -3.4743   15.2236  -12.4567 H   0  0  0  0  0  0  0  0  0  0  0  0
   -6.7526   12.3233   -6.9261 H   0  0  0  0  0  0  0  0  0  0  0  0
   -4.5246   13.2972   -6.4815 H   0  0  0  0  0  0  0  0  0  0  0  0
   -2.6730    9.7536   -8.0506 H   0  0  0  0  0  0  0  0  0  0  0  0
   -4.8993    8.7846   -8.4743 H   0  0  0  0  0  0  0  0  0  0  0  0
   -2.4278   14.2202   -6.2127 H   0  0  0  0  0  0  0  0  0  0  0  0
    0.7889   12.5578   -7.5739 H   0  0  0  0  0  0  0  0  0  0  0  0
   -0.7515   10.6346   -6.5905 H   0  0  0  0  0  0  0  0  0  0  0  0
   -0.6933   11.3262   -8.2472 H   0  0  0  0  0  0  0  0  0  0  0  0
    1.4668   14.2860   -6.0513 H   0  0  0  0  0  0  0  0  0  0  0  0
    0.2210   15.4389   -6.6390 H   0  0  0  0  0  0  0  0  0  0  0  0
    0.1560   14.8300   -4.9503 H   0  0  0  0  0  0  0  0  0  0  0  0
   -6.1759   13.2137  -14.2608 H   0  0  0  0  0  0  0  0  0  0  0  0
  1  2  2  0  0  0  0
  1  4  1  0  0  0  0
  1 13  1  0  0  0  0
  2  6  1  0  0  0  0
  3  4  2  0  0  0  0
  3  5  1  0  0  0  0
  5  6  2  0  0  0  0
  5  9  1  0  0  0  0
  6  7  1  0  0  0  0
  7  8  1  0  0  0  0
  7 10  2  3  0  0  0
  8  9  2  0  0  0  0
 10 14  1  0  0  0  0
 11 12  1  0  0  0  0
 11 13  2  0  0  0  0
 11 26  1  0  0  0  0
 14 15  2  0  0  0  0
 14 19  1  0  0  0  0
 15 16  1  0  0  0  0
 16 17  2  0  0  0  0
 17 18  1  0  0  0  0
 17 20  1  0  0  0  0
 18 19  2  0  0  0  0
 20 21  2  0  0  0  0
 20 24  1  0  0  0  0
 21 22  1  0  0  0  0
 22 23  1  0  0  0  0
 22 25  1  0  0  0  0
 23 24  1  0  0  0  0
  2 27  1  0  0  0  0
  3 28  1  0  0  0  0
  4 29  1  0  0  0  0
 10 30  1  0  0  0  0
 12 31  1  0  0  0  0
 12 32  1  0  0  0  0
 12 33  1  0  0  0  0
 15 34  1  0  0  0  0
 16 35  1  0  0  0  0
 18 36  1  0  0  0  0
 19 37  1  0  0  0  0
 21 38  1  0  0  0  0
 23 39  1  0  0  0  0
 24 40  1  0  0  0  0
 24 41  1  0  0  0  0
 25 42  1  0  0  0  0
 25 43  1  0  0  0  0
 25 44  1  0  0  0  0
 26 45  1  0  0  0  0
M  END
> <Name>
24

> <IC50[uM]>
0.029

$$$$
24
  -OEChem-05192314333D
 Structure written by MMmdl.
 45 48  0     1  0  0  0  0  0999 V2000
   -6.3515   12.3530  -11.9813 C   0  0  0  0  0  0  0  0  0  0  0  0
   -6.5085   11.7912  -10.7247 C   0  0  0  0  0  0  0  0  0  0  0  0
   -7.6802   10.5716  -13.0438 C   0  0  0  0  0  0  0  0  0  0  0  0
   -6.9296   11.7657  -13.1245 C   0  0  0  0  0  0  0  0  0  0  0  0
   -7.7980   10.0044  -11.7669 C   0  0  0  0  0  0  0  0  0  0  0  0
   -7.2328   10.6109  -10.5989 C   0  0  0  0  0  0  0  0  0  0  0  0
   -7.6209    9.7375   -9.5162 C   0  0  0  0  0  0  0  0  0  0  0  0
   -8.2754    8.7446   -9.9970 N   0  0  0  0  0  0  0  0  0  0  0  0
   -8.4233    8.8800  -11.3218 N   0  0  0  0  0  0  0  0  0  0  0  0
   -7.3328    9.8812   -8.0296 C   0  0  0  0  0  0  0  0  0  0  0  0
   -5.3004   14.2773  -13.1499 C   0  0  0  0  0  0  0  0  0  0  0  0
   -4.4346   15.5261  -12.8998 C   0  0  0  0  0  0  0  0  0  0  0  0
   -5.5896   13.5586  -12.0343 N   0  0  0  0  0  0  0  0  0  0  0  0
   -5.9706   10.4906   -7.7317 C   0  0  0  0  0  0  0  0  0  0  0  0
   -5.8616   11.7632   -7.1684 C   0  0  0  0  0  0  0  0  0  0  0  0
   -4.6051   12.3126   -6.9180 C   0  0  0  0  0  0  0  0  0  0  0  0
   -3.4544   11.5948   -7.2294 C   0  0  0  0  0  0  0  0  0  0  0  0
   -3.5626   10.3128   -7.8011 C   0  0  0  0  0  0  0  0  0  0  0  0
   -4.8160    9.7710   -8.0425 C   0  0  0  0  0  0  0  0  0  0  0  0
   -2.1083   12.1736   -6.9694 C   0  0  0  0  0  0  0  0  0  0  0  0
   -1.7503   13.4247   -6.4858 C   0  0  0  0  0  0  0  0  0  0  0  0
   -0.4131   13.4674   -6.4189 N   0  0  3  0  0  0  0  0  0  0  0  0
    0.1758   12.3735   -6.8057 N   0  0  0  0  0  0  0  0  0  0  0  0
   -0.8094   11.5620   -7.1791 C   0  0  0  0  0  0  0  0  0  0  0  0
    0.4060   14.5705   -5.9896 C   0  0  0  0  0  0  0  0  0  0  0  0
   -5.6528   14.0066  -14.2746 O   0  0  0  0  0  0  0  0  0  0  0  0
   -6.0747   12.2631   -9.8555 H   0  0  0  0  0  0  0  0  0  0  0  0
   -8.1361   10.1224  -13.9137 H   0  0  0  0  0  0  0  0  0  0  0  0
   -6.7956   12.2399  -14.0855 H   0  0  0  0  0  0  0  0  0  0  0  0
   -8.0279    9.5798   -7.2599 H   0  0  0  0  0  0  0  0  0  0  0  0
   -4.2517   16.0431  -13.8534 H   0  0  0  0  0  0  0  0  0  0  0  0
   -4.9593   16.2038  -12.2102 H   0  0  0  0  0  0  0  0  0  0  0  0
   -3.4743   15.2236  -12.4567 H   0  0  0  0  0  0  0  0  0  0  0  0
   -6.7526   12.3233   -6.9261 H   0  0  0  0  0  0  0  0  0  0  0  0
   -4.5246   13.2972   -6.4815 H   0  0  0  0  0  0  0  0  0  0  0  0
   -2.6730    9.7536   -8.0506 H   0  0  0  0  0  0  0  0  0  0  0  0
   -4.8993    8.7846   -8.4743 H   0  0  0  0  0  0  0  0  0  0  0  0
   -2.1167   14.2081   -7.1655 H   0  0  0  0  0  0  0  0  0  0  0  0
   -2.1807   13.5768   -5.4850 H   0  0  0  0  0  0  0  0  0  0  0  0
    0.7889   12.5578   -7.5739 H   0  0  0  0  0  0  0  0  0  0  0  0
   -0.6614   10.5729   -7.5868 H   0  0  0  0  0  0  0  0  0  0  0  0
    1.4668   14.2860   -6.0513 H   0  0  0  0  0  0  0  0  0  0  0  0
    0.2210   15.4389   -6.6390 H   0  0  0  0  0  0  0  0  0  0  0  0
    0.1560   14.8300   -4.9503 H   0  0  0  0  0  0  0  0  0  0  0  0
   -6.1759   13.2137  -14.2608 H   0  0  0  0  0  0  0  0  0  0  0  0
  1  2  2  0  0  0  0
  1  4  1  0  0  0  0
  1 13  1  0  0  0  0
  2  6  1  0  0  0  0
  3  4  2  0  0  0  0
  3  5  1  0  0  0  0
  5  6  2  0  0  0  0
  5  9  1  0  0  0  0
  6  7  1  0  0  0  0
  7  8  1  0  0  0  0
  7 10  2  3  0  0  0
  8  9  2  0  0  0  0
 10 14  1  0  0  0  0
 11 12  1  0  0  0  0
 11 13  2  0  0  0  0
 11 26  1  0  0  0  0
 14 15  2  0  0  0  0
 14 19  1  0  0  0  0
 15 16  1  0  0  0  0
 16 17  2  0  0  0  0
 17 18  1  0  0  0  0
 17 20  1  0  0  0  0
 18 19  2  0  0  0  0
 20 21  1  0  0  0  0
 20 24  2  0  0  0  0
 21 22  1  0  0  0  0
 22 23  1  0  0  0  0
 22 25  1  0  0  0  0
 23 24  1  0  0  0  0
  2 27  1  0  0  0  0
  3 28  1  0  0  0  0
  4 29  1  0  0  0  0
 10 30  1  0  0  0  0
 12 31  1  0  0  0  0
 12 32  1  0  0  0  0
 12 33  1  0  0  0  0
 15 34  1  0  0  0  0
 16 35  1  0  0  0  0
 18 36  1  0  0  0  0
 19 37  1  0  0  0  0
 21 38  1  0  0  0  0
 21 39  1  0  0  0  0
 23 40  1  0  0  0  0
 24 41  1  0  0  0  0
 25 42  1  0  0  0  0
 25 43  1  0  0  0  0
 25 44  1  0  0  0  0
 26 45  1  0  0  0  0
M  END
> <Name>
24

> <IC50[uM]>
0.029

$$$$
24
  -OEChem-05192314333D
 Structure written by MMmdl.
 45 48  0     1  0  0  0  0  0999 V2000
   -6.3515   12.3530  -11.9813 C   0  0  0  0  0  0  0  0  0  0  0  0
   -6.5085   11.7912  -10.7247 C   0  0  0  0  0  0  0  0  0  0  0  0
   -7.6802   10.5716  -13.0438 C   0  0  0  0  0  0  0  0  0  0  0  0
   -6.9296   11.7657  -13.1245 C   0  0  0  0  0  0  0  0  0  0  0  0
   -7.7980   10.0044  -11.7669 C   0  0  0  0  0  0  0  0  0  0  0  0
   -7.2328   10.6109  -10.5989 C   0  0  0  0  0  0  0  0  0  0  0  0
   -7.6209    9.7375   -9.5162 C   0  0  3  0  0  0  0  0  0  0  0  0
   -8.2754    8.7446   -9.9970 N   0  0  0  0  0  0  0  0  0  0  0  0
   -8.4233    8.8800  -11.3218 N   0  0  0  0  0  0  0  0  0  0  0  0
   -7.3328    9.8812   -8.0296 C   0  0  0  0  0  0  0  0  0  0  0  0
   -5.3004   14.2773  -13.1499 C   0  0  0  0  0  0  0  0  0  0  0  0
   -4.4346   15.5261  -12.8998 C   0  0  0  0  0  0  0  0  0  0  0  0
   -5.5896   13.5586  -12.0343 N   0  0  0  0  0  0  0  0  0  0  0  0
   -5.9706   10.4906   -7.7317 C   0  0  0  0  0  0  0  0  0  0  0  0
   -5.8616   11.7632   -7.1684 C   0  0  0  0  0  0  0  0  0  0  0  0
   -4.6051   12.3126   -6.9180 C   0  0  0  0  0  0  0  0  0  0  0  0
   -3.4544   11.5948   -7.2294 C   0  0  0  0  0  0  0  0  0  0  0  0
   -3.5626   10.3128   -7.8011 C   0  0  0  0  0  0  0  0  0  0  0  0
   -4.8160    9.7710   -8.0425 C   0  0  0  0  0  0  0  0  0  0  0  0
   -2.1083   12.1736   -6.9694 C   0  0  0  0  0  0  0  0  0  0  0  0
   -1.7503   13.4247   -6.4858 C   0  0  0  0  0  0  0  0  0  0  0  0
   -0.4131   13.4674   -6.4189 N   0  0  3  0  0  0  0  0  0  0  0  0
    0.1758   12.3735   -6.8057 N   0  0  0  0  0  0  0  0  0  0  0  0
   -0.8094   11.5620   -7.1791 C   0  0  0  0  0  0  0  0  0  0  0  0
    0.4060   14.5705   -5.9896 C   0  0  0  0  0  0  0  0  0  0  0  0
   -5.6528   14.0066  -14.2746 O   0  0  0  0  0  0  0  0  0  0  0  0
   -6.0747   12.2631   -9.8555 H   0  0  0  0  0  0  0  0  0  0  0  0
   -8.1361   10.1224  -13.9137 H   0  0  0  0  0  0  0  0  0  0  0  0
   -6.7956   12.2399  -14.0855 H   0  0  0  0  0  0  0  0  0  0  0  0
   -8.5577   10.3007   -9.3927 H   0  0  0  0  0  0  0  0  0  0  0  0
   -8.0279    9.5798   -7.2599 H   0  0  0  0  0  0  0  0  0  0  0  0
   -4.2429   16.0373  -13.8548 H   0  0  0  0  0  0  0  0  0  0  0  0
   -4.9638   16.2086  -12.2185 H   0  0  0  0  0  0  0  0  0  0  0  0
   -3.4785   15.2246  -12.4471 H   0  0  0  0  0  0  0  0  0  0  0  0
   -5.2347   13.9076  -11.1670 H   0  0  0  0  0  0  0  0  0  0  0  0
   -6.7526   12.3233   -6.9261 H   0  0  0  0  0  0  0  0  0  0  0  0
   -4.5246   13.2972   -6.4815 H   0  0  0  0  0  0  0  0  0  0  0  0
   -2.6730    9.7536   -8.0506 H   0  0  0  0  0  0  0  0  0  0  0  0
   -4.8993    8.7846   -8.4743 H   0  0  0  0  0  0  0  0  0  0  0  0
   -2.1167   14.2081   -7.1655 H   0  0  0  0  0  0  0  0  0  0  0  0
   -2.1807   13.5768   -5.4850 H   0  0  0  0  0  0  0  0  0  0  0  0
   -0.6614   10.5729   -7.5868 H   0  0  0  0  0  0  0  0  0  0  0  0
    1.4672   14.2904   -6.0634 H   0  0  0  0  0  0  0  0  0  0  0  0
    0.2117   15.4427   -6.6311 H   0  0  0  0  0  0  0  0  0  0  0  0
    0.1649   14.8218   -4.9462 H   0  0  0  0  0  0  0  0  0  0  0  0
  1  2  2  0  0  0  0
  1  4  1  0  0  0  0
  1 13  1  0  0  0  0
  2  6  1  0  0  0  0
  3  4  2  0  0  0  0
  3  5  1  0  0  0  0
  5  6  2  0  0  0  0
  5  9  1  0  0  0  0
  6  7  1  0  0  0  0
  7  8  1  0  0  0  0
  7 10  1  0  0  0  0
  8  9  2  0  0  0  0
 10 14  2  0  0  0  0
 11 12  1  0  0  0  0
 11 13  1  0  0  0  0
 11 26  2  0  0  0  0
 14 15  1  0  0  0  0
 14 19  1  0  0  0  0
 15 16  2  0  0  0  0
 16 17  1  0  0  0  0
 17 18  1  0  0  0  0
 17 20  2  0  0  0  0
 18 19  2  0  0  0  0
 20 21  1  0  0  0  0
 20 24  1  0  0  0  0
 21 22  1  0  0  0  0
 22 23  1  0  0  0  0
 22 25  1  0  0  0  0
 23 24  2  0  0  0  0
  2 27  1  0  0  0  0
  3 28  1  0  0  0  0
  4 29  1  0  0  0  0
  7 30  1  0  0  0  0
 10 31  1  0  0  0  0
 12 32  1  0  0  0  0
 12 33  1  0  0  0  0
 12 34  1  0  0  0  0
 13 35  1  0  0  0  0
 15 36  1  0  0  0  0
 16 37  1  0  0  0  0
 18 38  1  0  0  0  0
 19 39  1  0  0  0  0
 21 40  1  0  0  0  0
 21 41  1  0  0  0  0
 24 42  1  0  0  0  0
 25 43  1  0  0  0  0
 25 44  1  0  0  0  0
 25 45  1  0  0  0  0
M  END
> <Name>
24

> <IC50[uM]>
0.029

$$$$
24
  -OEChem-05192314333D
 Structure written by MMmdl.
 45 48  0     1  0  0  0  0  0999 V2000
   -6.3515   12.3530  -11.9813 C   0  0  0  0  0  0  0  0  0  0  0  0
   -6.5085   11.7912  -10.7247 C   0  0  0  0  0  0  0  0  0  0  0  0
   -7.6802   10.5716  -13.0438 C   0  0  0  0  0  0  0  0  0  0  0  0
   -6.9296   11.7657  -13.1245 C   0  0  0  0  0  0  0  0  0  0  0  0
   -7.7980   10.0044  -11.7669 C   0  0  0  0  0  0  0  0  0  0  0  0
   -7.2328   10.6109  -10.5989 C   0  0  0  0  0  0  0  0  0  0  0  0
   -7.6209    9.7375   -9.5162 C   0  0  3  0  0  0  0  0  0  0  0  0
   -8.2754    8.7446   -9.9970 N   0  0  0  0  0  0  0  0  0  0  0  0
   -8.4233    8.8800  -11.3218 N   0  0  0  0  0  0  0  0  0  0  0  0
   -7.3328    9.8812   -8.0296 C   0  0  0  0  0  0  0  0  0  0  0  0
   -5.3004   14.2773  -13.1499 C   0  0  0  0  0  0  0  0  0  0  0  0
   -4.4346   15.5261  -12.8998 C   0  0  0  0  0  0  0  0  0  0  0  0
   -5.5896   13.5586  -12.0343 N   0  0  0  0  0  0  0  0  0  0  0  0
   -5.9706   10.4906   -7.7317 C   0  0  0  0  0  0  0  0  0  0  0  0
   -5.8616   11.7632   -7.1684 C   0  0  0  0  0  0  0  0  0  0  0  0
   -4.6051   12.3126   -6.9180 C   0  0  0  0  0  0  0  0  0  0  0  0
   -3.4544   11.5948   -7.2294 C   0  0  0  0  0  0  0  0  0  0  0  0
   -3.5626   10.3128   -7.8011 C   0  0  0  0  0  0  0  0  0  0  0  0
   -4.8160    9.7710   -8.0425 C   0  0  0  0  0  0  0  0  0  0  0  0
   -2.1083   12.1736   -6.9694 C   0  0  0  0  0  0  0  0  0  0  0  0
   -1.7503   13.4247   -6.4858 C   0  0  0  0  0  0  0  0  0  0  0  0
   -0.4131   13.4674   -6.4189 N   0  0  3  0  0  0  0  0  0  0  0  0
    0.1758   12.3735   -6.8057 N   0  0  0  0  0  0  0  0  0  0  0  0
   -0.8094   11.5620   -7.1791 C   0  0  0  0  0  0  0  0  0  0  0  0
    0.4060   14.5705   -5.9896 C   0  0  0  0  0  0  0  0  0  0  0  0
   -5.6528   14.0066  -14.2746 O   0  0  0  0  0  0  0  0  0  0  0  0
   -6.0747   12.2631   -9.8555 H   0  0  0  0  0  0  0  0  0  0  0  0
   -8.1361   10.1224  -13.9137 H   0  0  0  0  0  0  0  0  0  0  0  0
   -6.7956   12.2399  -14.0855 H   0  0  0  0  0  0  0  0  0  0  0  0
   -8.5577   10.3007   -9.3927 H   0  0  0  0  0  0  0  0  0  0  0  0
   -8.0279    9.5798   -7.2599 H   0  0  0  0  0  0  0  0  0  0  0  0
   -4.2517   16.0431  -13.8534 H   0  0  0  0  0  0  0  0  0  0  0  0
   -4.9593   16.2038  -12.2102 H   0  0  0  0  0  0  0  0  0  0  0  0
   -3.4743   15.2236  -12.4567 H   0  0  0  0  0  0  0  0  0  0  0  0
   -6.7526   12.3233   -6.9261 H   0  0  0  0  0  0  0  0  0  0  0  0
   -4.5246   13.2972   -6.4815 H   0  0  0  0  0  0  0  0  0  0  0  0
   -2.6730    9.7536   -8.0506 H   0  0  0  0  0  0  0  0  0  0  0  0
   -4.8993    8.7846   -8.4743 H   0  0  0  0  0  0  0  0  0  0  0  0
   -2.1167   14.2081   -7.1655 H   0  0  0  0  0  0  0  0  0  0  0  0
   -2.1807   13.5768   -5.4850 H   0  0  0  0  0  0  0  0  0  0  0  0
   -0.6614   10.5729   -7.5868 H   0  0  0  0  0  0  0  0  0  0  0  0
    1.4672   14.2904   -6.0634 H   0  0  0  0  0  0  0  0  0  0  0  0
    0.2117   15.4427   -6.6311 H   0  0  0  0  0  0  0  0  0  0  0  0
    0.1649   14.8218   -4.9462 H   0  0  0  0  0  0  0  0  0  0  0  0
   -6.1759   13.2137  -14.2608 H   0  0  0  0  0  0  0  0  0  0  0  0
  1  2  2  0  0  0  0
  1  4  1  0  0  0  0
  1 13  1  0  0  0  0
  2  6  1  0  0  0  0
  3  4  2  0  0  0  0
  3  5  1  0  0  0  0
  5  6  2  0  0  0  0
  5  9  1  0  0  0  0
  6  7  1  0  0  0  0
  7  8  1  0  0  0  0
  7 10  1  0  0  0  0
  8  9  2  0  0  0  0
 10 14  2  0  0  0  0
 11 12  1  0  0  0  0
 11 13  2  0  0  0  0
 11 26  1  0  0  0  0
 14 15  1  0  0  0  0
 14 19  1  0  0  0  0
 15 16  2  0  0  0  0
 16 17  1  0  0  0  0
 17 18  1  0  0  0  0
 17 20  2  0  0  0  0
 18 19  2  0  0  0  0
 20 21  1  0  0  0  0
 20 24  1  0  0  0  0
 21 22  1  0  0  0  0
 22 23  1  0  0  0  0
 22 25  1  0  0  0  0
 23 24  2  0  0  0  0
  2 27  1  0  0  0  0
  3 28  1  0  0  0  0
  4 29  1  0  0  0  0
  7 30  1  0  0  0  0
 10 31  1  0  0  0  0
 12 32  1  0  0  0  0
 12 33  1  0  0  0  0
 12 34  1  0  0  0  0
 15 35  1  0  0  0  0
 16 36  1  0  0  0  0
 18 37  1  0  0  0  0
 19 38  1  0  0  0  0
 21 39  1  0  0  0  0
 21 40  1  0  0  0  0
 24 41  1  0  0  0  0
 25 42  1  0  0  0  0
 25 43  1  0  0  0  0
 25 44  1  0  0  0  0
 26 45  1  0  0  0  0
M  END
> <Name>
24

> <IC50[uM]>
0.029

$$$$
24
  -OEChem-05192314333D
 Structure written by MMmdl.
 45 48  0     0  0  0  0  0  0999 V2000
   -6.3515   12.3530  -11.9813 C   0  0  0  0  0  0  0  0  0  0  0  0
   -6.5085   11.7912  -10.7247 C   0  0  0  0  0  0  0  0  0  0  0  0
   -7.6802   10.5716  -13.0438 C   0  0  0  0  0  0  0  0  0  0  0  0
   -6.9296   11.7657  -13.1245 C   0  0  0  0  0  0  0  0  0  0  0  0
   -7.7980   10.0044  -11.7669 C   0  0  0  0  0  0  0  0  0  0  0  0
   -7.2328   10.6109  -10.5989 C   0  0  0  0  0  0  0  0  0  0  0  0
   -7.6209    9.7375   -9.5162 C   0  0  0  0  0  0  0  0  0  0  0  0
   -8.2754    8.7446   -9.9970 N   0  0  0  0  0  0  0  0  0  0  0  0
   -8.4233    8.8800  -11.3218 N   0  0  0  0  0  0  0  0  0  0  0  0
   -7.3328    9.8812   -8.0296 C   0  0  0  0  0  0  0  0  0  0  0  0
   -5.3004   14.2773  -13.1499 C   0  0  0  0  0  0  0  0  0  0  0  0
   -4.4346   15.5261  -12.8998 C   0  0  0  0  0  0  0  0  0  0  0  0
   -5.5896   13.5586  -12.0343 N   0  0  0  0  0  0  0  0  0  0  0  0
   -5.9706   10.4906   -7.7317 C   0  0  0  0  0  0  0  0  0  0  0  0
   -5.8616   11.7632   -7.1684 C   0  0  0  0  0  0  0  0  0  0  0  0
   -4.6051   12.3126   -6.9180 C   0  0  0  0  0  0  0  0  0  0  0  0
   -3.4544   11.5948   -7.2294 C   0  0  0  0  0  0  0  0  0  0  0  0
   -3.5626   10.3128   -7.8011 C   0  0  0  0  0  0  0  0  0  0  0  0
   -4.8160    9.7710   -8.0425 C   0  0  0  0  0  0  0  0  0  0  0  0
   -2.1083   12.1736   -6.9694 C   0  0  0  0  0  0  0  0  0  0  0  0
   -1.7503   13.4247   -6.4858 C   0  0  0  0  0  0  0  0  0  0  0  0
   -0.4131   13.4674   -6.4189 N   0  0  0  0  0  0  0  0  0  0  0  0
    0.1758   12.3735   -6.8057 N   0  0  0  0  0  0  0  0  0  0  0  0
   -0.8094   11.5620   -7.1791 C   0  0  0  0  0  0  0  0  0  0  0  0
    0.4060   14.5705   -5.9896 C   0  0  0  0  0  0  0  0  0  0  0  0
   -5.6528   14.0066  -14.2746 O   0  0  0  0  0  0  0  0  0  0  0  0
   -6.0747   12.2631   -9.8555 H   0  0  0  0  0  0  0  0  0  0  0  0
   -8.6945   10.7862  -13.4115 H   0  0  0  0  0  0  0  0  0  0  0  0
   -7.2021    9.8287  -13.6992 H   0  0  0  0  0  0  0  0  0  0  0  0
   -7.5989   12.5237  -13.5575 H   0  0  0  0  0  0  0  0  0  0  0  0
   -6.1027   11.5654  -13.8217 H   0  0  0  0  0  0  0  0  0  0  0  0
   -8.1067   10.5245   -7.5855 H   0  0  0  0  0  0  0  0  0  0  0  0
   -7.3763    8.8835   -7.5684 H   0  0  0  0  0  0  0  0  0  0  0  0
   -4.2429   16.0373  -13.8548 H   0  0  0  0  0  0  0  0  0  0  0  0
   -4.9638   16.2086  -12.2185 H   0  0  0  0  0  0  0  0  0  0  0  0
   -3.4785   15.2246  -12.4471 H   0  0  0  0  0  0  0  0  0  0  0  0
   -6.7526   12.3233   -6.9261 H   0  0  0  0  0  0  0  0  0  0  0  0
   -4.5246   13.2972   -6.4815 H   0  0  0  0  0  0  0  0  0  0  0  0
   -2.6730    9.7536   -8.0506 H   0  0  0  0  0  0  0  0  0  0  0  0
   -4.8993    8.7846   -8.4743 H   0  0  0  0  0  0  0  0  0  0  0  0
   -2.4278   14.2202   -6.2127 H   0  0  0  0  0  0  0  0  0  0  0  0
   -0.6614   10.5729   -7.5868 H   0  0  0  0  0  0  0  0  0  0  0  0
    1.4672   14.2904   -6.0634 H   0  0  0  0  0  0  0  0  0  0  0  0
    0.2117   15.4427   -6.6311 H   0  0  0  0  0  0  0  0  0  0  0  0
    0.1649   14.8218   -4.9462 H   0  0  0  0  0  0  0  0  0  0  0  0
  1  2  1  0  0  0  0
  1  4  1  0  0  0  0
  1 13  2  0  0  0  0
  2  6  2  0  0  0  0
  3  4  1  0  0  0  0
  3  5  1  0  0  0  0
  5  6  1  0  0  0  0
  5  9  2  0  0  0  0
  6  7  1  0  0  0  0
  7  8  2  0  0  0  0
  7 10  1  0  0  0  0
  8  9  1  0  0  0  0
 10 14  1  0  0  0  0
 11 12  1  0  0  0  0
 11 13  1  0  0  0  0
 11 26  2  0  0  0  0
 14 15  2  0  0  0  0
 14 19  1  0  0  0  0
 15 16  1  0  0  0  0
 16 17  2  0  0  0  0
 17 18  1  0  0  0  0
 17 20  1  0  0  0  0
 18 19  2  0  0  0  0
 20 21  2  0  0  0  0
 20 24  1  0  0  0  0
 21 22  1  0  0  0  0
 22 23  1  0  0  0  0
 22 25  1  0  0  0  0
 23 24  2  0  0  0  0
  2 27  1  0  0  0  0
  3 28  1  0  0  0  0
  3 29  1  0  0  0  0
  4 30  1  0  0  0  0
  4 31  1  0  0  0  0
 10 32  1  0  0  0  0
 10 33  1  0  0  0  0
 12 34  1  0  0  0  0
 12 35  1  0  0  0  0
 12 36  1  0  0  0  0
 15 37  1  0  0  0  0
 16 38  1  0  0  0  0
 18 39  1  0  0  0  0
 19 40  1  0  0  0  0
 21 41  1  0  0  0  0
 24 42  1  0  0  0  0
 25 43  1  0  0  0  0
 25 44  1  0  0  0  0
 25 45  1  0  0  0  0
M  END
> <Name>
24

> <IC50[uM]>
0.029

$$$$
24
  -OEChem-05192314333D
 Structure written by MMmdl.
 45 48  0     1  0  0  0  0  0999 V2000
   -6.3515   12.3530  -11.9813 C   0  0  0  0  0  0  0  0  0  0  0  0
   -6.5085   11.7912  -10.7247 C   0  0  0  0  0  0  0  0  0  0  0  0
   -7.6802   10.5716  -13.0438 C   0  0  0  0  0  0  0  0  0  0  0  0
   -6.9296   11.7657  -13.1245 C   0  0  0  0  0  0  0  0  0  0  0  0
   -7.7980   10.0044  -11.7669 C   0  0  0  0  0  0  0  0  0  0  0  0
   -7.2328   10.6109  -10.5989 C   0  0  3  0  0  0  0  0  0  0  0  0
   -7.6209    9.7375   -9.5162 C   0  0  0  0  0  0  0  0  0  0  0  0
   -8.2754    8.7446   -9.9970 N   0  0  0  0  0  0  0  0  0  0  0  0
   -8.4233    8.8800  -11.3218 N   0  0  0  0  0  0  0  0  0  0  0  0
   -7.3328    9.8812   -8.0296 C   0  0  0  0  0  0  0  0  0  0  0  0
   -5.3004   14.2773  -13.1499 C   0  0  0  0  0  0  0  0  0  0  0  0
   -4.4346   15.5261  -12.8998 C   0  0  0  0  0  0  0  0  0  0  0  0
   -5.5896   13.5586  -12.0343 N   0  0  0  0  0  0  0  0  0  0  0  0
   -5.9706   10.4906   -7.7317 C   0  0  0  0  0  0  0  0  0  0  0  0
   -5.8616   11.7632   -7.1684 C   0  0  0  0  0  0  0  0  0  0  0  0
   -4.6051   12.3126   -6.9180 C   0  0  0  0  0  0  0  0  0  0  0  0
   -3.4544   11.5948   -7.2294 C   0  0  0  0  0  0  0  0  0  0  0  0
   -3.5626   10.3128   -7.8011 C   0  0  0  0  0  0  0  0  0  0  0  0
   -4.8160    9.7710   -8.0425 C   0  0  0  0  0  0  0  0  0  0  0  0
   -2.1083   12.1736   -6.9694 C   0  0  0  0  0  0  0  0  0  0  0  0
   -1.7503   13.4247   -6.4858 C   0  0  0  0  0  0  0  0  0  0  0  0
   -0.4131   13.4674   -6.4189 N   0  0  0  0  0  0  0  0  0  0  0  0
    0.1758   12.3735   -6.8057 N   0  0  0  0  0  0  0  0  0  0  0  0
   -0.8094   11.5620   -7.1791 C   0  0  0  0  0  0  0  0  0  0  0  0
    0.4060   14.5705   -5.9896 C   0  0  0  0  0  0  0  0  0  0  0  0
   -5.6528   14.0066  -14.2746 O   0  0  0  0  0  0  0  0  0  0  0  0
   -5.5002   11.5939  -10.3317 H   0  0  0  0  0  0  0  0  0  0  0  0
   -7.0066   12.5435  -10.0954 H   0  0  0  0  0  0  0  0  0  0  0  0
   -8.1361   10.1224  -13.9137 H   0  0  0  0  0  0  0  0  0  0  0  0
   -6.7956   12.2399  -14.0855 H   0  0  0  0  0  0  0  0  0  0  0  0
   -6.3107   10.0281  -10.7406 H   0  0  0  0  0  0  0  0  0  0  0  0
   -8.1067   10.5245   -7.5855 H   0  0  0  0  0  0  0  0  0  0  0  0
   -7.3763    8.8835   -7.5684 H   0  0  0  0  0  0  0  0  0  0  0  0
   -4.2429   16.0373  -13.8548 H   0  0  0  0  0  0  0  0  0  0  0  0
   -4.9638   16.2086  -12.2185 H   0  0  0  0  0  0  0  0  0  0  0  0
   -3.4785   15.2246  -12.4471 H   0  0  0  0  0  0  0  0  0  0  0  0
   -6.7526   12.3233   -6.9261 H   0  0  0  0  0  0  0  0  0  0  0  0
   -4.5246   13.2972   -6.4815 H   0  0  0  0  0  0  0  0  0  0  0  0
   -2.6730    9.7536   -8.0506 H   0  0  0  0  0  0  0  0  0  0  0  0
   -4.8993    8.7846   -8.4743 H   0  0  0  0  0  0  0  0  0  0  0  0
   -2.4278   14.2202   -6.2127 H   0  0  0  0  0  0  0  0  0  0  0  0
   -0.6614   10.5729   -7.5868 H   0  0  0  0  0  0  0  0  0  0  0  0
    1.4672   14.2904   -6.0634 H   0  0  0  0  0  0  0  0  0  0  0  0
    0.2117   15.4427   -6.6311 H   0  0  0  0  0  0  0  0  0  0  0  0
    0.1649   14.8218   -4.9462 H   0  0  0  0  0  0  0  0  0  0  0  0
  1  2  1  0  0  0  0
  1  4  1  0  0  0  0
  1 13  2  0  0  0  0
  2  6  1  0  0  0  0
  3  4  2  0  0  0  0
  3  5  1  0  0  0  0
  5  6  1  0  0  0  0
  5  9  2  0  0  0  0
  6  7  1  0  0  0  0
  7  8  2  0  0  0  0
  7 10  1  0  0  0  0
  8  9  1  0  0  0  0
 10 14  1  0  0  0  0
 11 12  1  0  0  0  0
 11 13  1  0  0  0  0
 11 26  2  0  0  0  0
 14 15  2  0  0  0  0
 14 19  1  0  0  0  0
 15 16  1  0  0  0  0
 16 17  2  0  0  0  0
 17 18  1  0  0  0  0
 17 20  1  0  0  0  0
 18 19  2  0  0  0  0
 20 21  2  0  0  0  0
 20 24  1  0  0  0  0
 21 22  1  0  0  0  0
 22 23  1  0  0  0  0
 22 25  1  0  0  0  0
 23 24  2  0  0  0  0
  2 27  1  0  0  0  0
  2 28  1  0  0  0  0
  3 29  1  0  0  0  0
  4 30  1  0  0  0  0
  6 31  1  0  0  0  0
 10 32  1  0  0  0  0
 10 33  1  0  0  0  0
 12 34  1  0  0  0  0
 12 35  1  0  0  0  0
 12 36  1  0  0  0  0
 15 37  1  0  0  0  0
 16 38  1  0  0  0  0
 18 39  1  0  0  0  0
 19 40  1  0  0  0  0
 21 41  1  0  0  0  0
 24 42  1  0  0  0  0
 25 43  1  0  0  0  0
 25 44  1  0  0  0  0
 25 45  1  0  0  0  0
M  END
> <Name>
24

> <IC50[uM]>
0.029

$$$$
24
  -OEChem-05192314333D
 Structure written by MMmdl.
 45 48  0     1  0  0  0  0  0999 V2000
   -6.3515   12.3530  -11.9813 C   0  0  0  0  0  0  0  0  0  0  0  0
   -6.5085   11.7912  -10.7247 C   0  0  0  0  0  0  0  0  0  0  0  0
   -7.6802   10.5716  -13.0438 C   0  0  0  0  0  0  0  0  0  0  0  0
   -6.9296   11.7657  -13.1245 C   0  0  0  0  0  0  0  0  0  0  0  0
   -7.7980   10.0044  -11.7669 C   0  0  3  0  0  0  0  0  0  0  0  0
   -7.2328   10.6109  -10.5989 C   0  0  0  0  0  0  0  0  0  0  0  0
   -7.6209    9.7375   -9.5162 C   0  0  0  0  0  0  0  0  0  0  0  0
   -8.2754    8.7446   -9.9970 N   0  0  0  0  0  0  0  0  0  0  0  0
   -8.4233    8.8800  -11.3218 N   0  0  0  0  0  0  0  0  0  0  0  0
   -7.3328    9.8812   -8.0296 C   0  0  0  0  0  0  0  0  0  0  0  0
   -5.3004   14.2773  -13.1499 C   0  0  0  0  0  0  0  0  0  0  0  0
   -4.4346   15.5261  -12.8998 C   0  0  0  0  0  0  0  0  0  0  0  0
   -5.5896   13.5586  -12.0343 N   0  0  0  0  0  0  0  0  0  0  0  0
   -5.9706   10.4906   -7.7317 C   0  0  0  0  0  0  0  0  0  0  0  0
   -5.8616   11.7632   -7.1684 C   0  0  0  0  0  0  0  0  0  0  0  0
   -4.6051   12.3126   -6.9180 C   0  0  0  0  0  0  0  0  0  0  0  0
   -3.4544   11.5948   -7.2294 C   0  0  0  0  0  0  0  0  0  0  0  0
   -3.5626   10.3128   -7.8011 C   0  0  0  0  0  0  0  0  0  0  0  0
   -4.8160    9.7710   -8.0425 C   0  0  0  0  0  0  0  0  0  0  0  0
   -2.1083   12.1736   -6.9694 C   0  0  0  0  0  0  0  0  0  0  0  0
   -1.7503   13.4247   -6.4858 C   0  0  0  0  0  0  0  0  0  0  0  0
   -0.4131   13.4674   -6.4189 N   0  0  0  0  0  0  0  0  0  0  0  0
    0.1758   12.3735   -6.8057 N   0  0  0  0  0  0  0  0  0  0  0  0
   -0.8094   11.5620   -7.1791 C   0  0  0  0  0  0  0  0  0  0  0  0
    0.4060   14.5705   -5.9896 C   0  0  0  0  0  0  0  0  0  0  0  0
   -5.6528   14.0066  -14.2746 O   0  0  0  0  0  0  0  0  0  0  0  0
   -6.0747   12.2631   -9.8555 H   0  0  0  0  0  0  0  0  0  0  0  0
   -8.6945   10.7862  -13.4115 H   0  0  0  0  0  0  0  0  0  0  0  0
   -7.2021    9.8287  -13.6992 H   0  0  0  0  0  0  0  0  0  0  0  0
   -7.5989   12.5237  -13.5575 H   0  0  0  0  0  0  0  0  0  0  0  0
   -6.1027   11.5654  -13.8217 H   0  0  0  0  0  0  0  0  0  0  0  0
   -6.8712    9.4340  -11.9273 H   0  0  0  0  0  0  0  0  0  0  0  0
   -8.0279    9.5798   -7.2599 H   0  0  0  0  0  0  0  0  0  0  0  0
   -4.2429   16.0373  -13.8548 H   0  0  0  0  0  0  0  0  0  0  0  0
   -4.9638   16.2086  -12.2185 H   0  0  0  0  0  0  0  0  0  0  0  0
   -3.4785   15.2246  -12.4471 H   0  0  0  0  0  0  0  0  0  0  0  0
   -6.7526   12.3233   -6.9261 H   0  0  0  0  0  0  0  0  0  0  0  0
   -4.5246   13.2972   -6.4815 H   0  0  0  0  0  0  0  0  0  0  0  0
   -2.6730    9.7536   -8.0506 H   0  0  0  0  0  0  0  0  0  0  0  0
   -4.8993    8.7846   -8.4743 H   0  0  0  0  0  0  0  0  0  0  0  0
   -2.4278   14.2202   -6.2127 H   0  0  0  0  0  0  0  0  0  0  0  0
   -0.6614   10.5729   -7.5868 H   0  0  0  0  0  0  0  0  0  0  0  0
    1.4672   14.2904   -6.0634 H   0  0  0  0  0  0  0  0  0  0  0  0
    0.2117   15.4427   -6.6311 H   0  0  0  0  0  0  0  0  0  0  0  0
    0.1649   14.8218   -4.9462 H   0  0  0  0  0  0  0  0  0  0  0  0
  1  2  1  0  0  0  0
  1  4  1  0  0  0  0
  1 13  2  0  0  0  0
  2  6  2  0  0  0  0
  3  4  1  0  0  0  0
  3  5  1  0  0  0  0
  5  6  1  0  0  0  0
  5  9  1  0  0  0  0
  6  7  1  0  0  0  0
  7  8  1  0  0  0  0
  7 10  2  3  0  0  0
  8  9  2  0  0  0  0
 10 14  1  0  0  0  0
 11 12  1  0  0  0  0
 11 13  1  0  0  0  0
 11 26  2  0  0  0  0
 14 15  2  0  0  0  0
 14 19  1  0  0  0  0
 15 16  1  0  0  0  0
 16 17  2  0  0  0  0
 17 18  1  0  0  0  0
 17 20  1  0  0  0  0
 18 19  2  0  0  0  0
 20 21  2  0  0  0  0
 20 24  1  0  0  0  0
 21 22  1  0  0  0  0
 22 23  1  0  0  0  0
 22 25  1  0  0  0  0
 23 24  2  0  0  0  0
  2 27  1  0  0  0  0
  3 28  1  0  0  0  0
  3 29  1  0  0  0  0
  4 30  1  0  0  0  0
  4 31  1  0  0  0  0
  5 32  1  0  0  0  0
 10 33  1  0  0  0  0
 12 34  1  0  0  0  0
 12 35  1  0  0  0  0
 12 36  1  0  0  0  0
 15 37  1  0  0  0  0
 16 38  1  0  0  0  0
 18 39  1  0  0  0  0
 19 40  1  0  0  0  0
 21 41  1  0  0  0  0
 24 42  1  0  0  0  0
 25 43  1  0  0  0  0
 25 44  1  0  0  0  0
 25 45  1  0  0  0  0
M  END
> <Name>
24

> <IC50[uM]>
0.029

$$$$
24
  -OEChem-05192314333D
 Structure written by MMmdl.
 45 48  0     1  0  0  0  0  0999 V2000
   -6.3515   12.3530  -11.9813 C   0  0  0  0  0  0  0  0  0  0  0  0
   -6.5085   11.7912  -10.7247 C   0  0  0  0  0  0  0  0  0  0  0  0
   -7.6802   10.5716  -13.0438 C   0  0  0  0  0  0  0  0  0  0  0  0
   -6.9296   11.7657  -13.1245 C   0  0  0  0  0  0  0  0  0  0  0  0
   -7.7980   10.0044  -11.7669 C   0  0  3  0  0  0  0  0  0  0  0  0
   -7.2328   10.6109  -10.5989 C   0  0  3  0  0  0  0  0  0  0  0  0
   -7.6209    9.7375   -9.5162 C   0  0  0  0  0  0  0  0  0  0  0  0
   -8.2754    8.7446   -9.9970 N   0  0  0  0  0  0  0  0  0  0  0  0
   -8.4233    8.8800  -11.3218 N   0  0  0  0  0  0  0  0  0  0  0  0
   -7.3328    9.8812   -8.0296 C   0  0  0  0  0  0  0  0  0  0  0  0
   -5.3004   14.2773  -13.1499 C   0  0  0  0  0  0  0  0  0  0  0  0
   -4.4346   15.5261  -12.8998 C   0  0  0  0  0  0  0  0  0  0  0  0
   -5.5896   13.5586  -12.0343 N   0  0  0  0  0  0  0  0  0  0  0  0
   -5.9706   10.4906   -7.7317 C   0  0  0  0  0  0  0  0  0  0  0  0
   -5.8616   11.7632   -7.1684 C   0  0  0  0  0  0  0  0  0  0  0  0
   -4.6051   12.3126   -6.9180 C   0  0  0  0  0  0  0  0  0  0  0  0
   -3.4544   11.5948   -7.2294 C   0  0  0  0  0  0  0  0  0  0  0  0
   -3.5626   10.3128   -7.8011 C   0  0  0  0  0  0  0  0  0  0  0  0
   -4.8160    9.7710   -8.0425 C   0  0  0  0  0  0  0  0  0  0  0  0
   -2.1083   12.1736   -6.9694 C   0  0  0  0  0  0  0  0  0  0  0  0
   -1.7503   13.4247   -6.4858 C   0  0  0  0  0  0  0  0  0  0  0  0
   -0.4131   13.4674   -6.4189 N   0  0  0  0  0  0  0  0  0  0  0  0
    0.1758   12.3735   -6.8057 N   0  0  0  0  0  0  0  0  0  0  0  0
   -0.8094   11.5620   -7.1791 C   0  0  0  0  0  0  0  0  0  0  0  0
    0.4060   14.5705   -5.9896 C   0  0  0  0  0  0  0  0  0  0  0  0
   -5.6528   14.0066  -14.2746 O   0  0  0  0  0  0  0  0  0  0  0  0
   -5.5002   11.5939  -10.3317 H   0  0  0  0  0  0  0  0  0  0  0  0
   -7.0066   12.5435  -10.0954 H   0  0  0  0  0  0  0  0  0  0  0  0
   -8.1361   10.1224  -13.9137 H   0  0  0  0  0  0  0  0  0  0  0  0
   -6.7956   12.2399  -14.0855 H   0  0  0  0  0  0  0  0  0  0  0  0
   -6.8712    9.4340  -11.9273 H   0  0  0  0  0  0  0  0  0  0  0  0
   -6.3107   10.0281  -10.7406 H   0  0  0  0  0  0  0  0  0  0  0  0
   -8.0279    9.5798   -7.2599 H   0  0  0  0  0  0  0  0  0  0  0  0
   -4.2429   16.0373  -13.8548 H   0  0  0  0  0  0  0  0  0  0  0  0
   -4.9638   16.2086  -12.2185 H   0  0  0  0  0  0  0  0  0  0  0  0
   -3.4785   15.2246  -12.4471 H   0  0  0  0  0  0  0  0  0  0  0  0
   -6.7526   12.3233   -6.9261 H   0  0  0  0  0  0  0  0  0  0  0  0
   -4.5246   13.2972   -6.4815 H   0  0  0  0  0  0  0  0  0  0  0  0
   -2.6730    9.7536   -8.0506 H   0  0  0  0  0  0  0  0  0  0  0  0
   -4.8993    8.7846   -8.4743 H   0  0  0  0  0  0  0  0  0  0  0  0
   -2.4278   14.2202   -6.2127 H   0  0  0  0  0  0  0  0  0  0  0  0
   -0.6614   10.5729   -7.5868 H   0  0  0  0  0  0  0  0  0  0  0  0
    1.4672   14.2904   -6.0634 H   0  0  0  0  0  0  0  0  0  0  0  0
    0.2117   15.4427   -6.6311 H   0  0  0  0  0  0  0  0  0  0  0  0
    0.1649   14.8218   -4.9462 H   0  0  0  0  0  0  0  0  0  0  0  0
  1  2  1  0  0  0  0
  1  4  1  0  0  0  0
  1 13  2  0  0  0  0
  2  6  1  0  0  0  0
  3  4  2  0  0  0  0
  3  5  1  0  0  0  0
  5  6  1  0  0  0  0
  5  9  1  0  0  0  0
  6  7  1  0  0  0  0
  7  8  1  0  0  0  0
  7 10  2  3  0  0  0
  8  9  2  0  0  0  0
 10 14  1  0  0  0  0
 11 12  1  0  0  0  0
 11 13  1  0  0  0  0
 11 26  2  0  0  0  0
 14 15  2  0  0  0  0
 14 19  1  0  0  0  0
 15 16  1  0  0  0  0
 16 17  2  0  0  0  0
 17 18  1  0  0  0  0
 17 20  1  0  0  0  0
 18 19  2  0  0  0  0
 20 21  2  0  0  0  0
 20 24  1  0  0  0  0
 21 22  1  0  0  0  0
 22 23  1  0  0  0  0
 22 25  1  0  0  0  0
 23 24  2  0  0  0  0
  2 27  1  0  0  0  0
  2 28  1  0  0  0  0
  3 29  1  0  0  0  0
  4 30  1  0  0  0  0
  5 31  1  0  0  0  0
  6 32  1  0  0  0  0
 10 33  1  0  0  0  0
 12 34  1  0  0  0  0
 12 35  1  0  0  0  0
 12 36  1  0  0  0  0
 15 37  1  0  0  0  0
 16 38  1  0  0  0  0
 18 39  1  0  0  0  0
 19 40  1  0  0  0  0
 21 41  1  0  0  0  0
 24 42  1  0  0  0  0
 25 43  1  0  0  0  0
 25 44  1  0  0  0  0
 25 45  1  0  0  0  0
M  END
> <Name>
24

> <IC50[uM]>
0.029

$$$$
24
  -OEChem-05192314333D
 Structure written by MMmdl.
 45 48  0     1  0  0  0  0  0999 V2000
   -6.3515   12.3530  -11.9813 C   0  0  0  0  0  0  0  0  0  0  0  0
   -6.5085   11.7912  -10.7247 C   0  0  0  0  0  0  0  0  0  0  0  0
   -7.6802   10.5716  -13.0438 C   0  0  0  0  0  0  0  0  0  0  0  0
   -6.9296   11.7657  -13.1245 C   0  0  0  0  0  0  0  0  0  0  0  0
   -7.7980   10.0044  -11.7669 C   0  0  0  0  0  0  0  0  0  0  0  0
   -7.2328   10.6109  -10.5989 C   0  0  3  0  0  0  0  0  0  0  0  0
   -7.6209    9.7375   -9.5162 C   0  0  0  0  0  0  0  0  0  0  0  0
   -8.2754    8.7446   -9.9970 N   0  0  0  0  0  0  0  0  0  0  0  0
   -8.4233    8.8800  -11.3218 N   0  0  0  0  0  0  0  0  0  0  0  0
   -7.3328    9.8812   -8.0296 C   0  0  0  0  0  0  0  0  0  0  0  0
   -5.3004   14.2773  -13.1499 C   0  0  0  0  0  0  0  0  0  0  0  0
   -4.4346   15.5261  -12.8998 C   0  0  0  0  0  0  0  0  0  0  0  0
   -5.5896   13.5586  -12.0343 N   0  0  0  0  0  0  0  0  0  0  0  0
   -5.9706   10.4906   -7.7317 C   0  0  0  0  0  0  0  0  0  0  0  0
   -5.8616   11.7632   -7.1684 C   0  0  0  0  0  0  0  0  0  0  0  0
   -4.6051   12.3126   -6.9180 C   0  0  0  0  0  0  0  0  0  0  0  0
   -3.4544   11.5948   -7.2294 C   0  0  0  0  0  0  0  0  0  0  0  0
   -3.5626   10.3128   -7.8011 C   0  0  0  0  0  0  0  0  0  0  0  0
   -4.8160    9.7710   -8.0425 C   0  0  0  0  0  0  0  0  0  0  0  0
   -2.1083   12.1736   -6.9694 C   0  0  0  0  0  0  0  0  0  0  0  0
   -1.7503   13.4247   -6.4858 C   0  0  0  0  0  0  0  0  0  0  0  0
   -0.4131   13.4674   -6.4189 N   0  0  0  0  0  0  0  0  0  0  0  0
    0.1758   12.3735   -6.8057 N   0  0  0  0  0  0  0  0  0  0  0  0
   -0.8094   11.5620   -7.1791 C   0  0  0  0  0  0  0  0  0  0  0  0
    0.4060   14.5705   -5.9896 C   0  0  0  0  0  0  0  0  0  0  0  0
   -5.6528   14.0066  -14.2746 O   0  0  0  0  0  0  0  0  0  0  0  0
   -5.5002   11.5939  -10.3317 H   0  0  0  0  0  0  0  0  0  0  0  0
   -7.0066   12.5435  -10.0954 H   0  0  0  0  0  0  0  0  0  0  0  0
   -8.1361   10.1224  -13.9137 H   0  0  0  0  0  0  0  0  0  0  0  0
   -7.5989   12.5237  -13.5575 H   0  0  0  0  0  0  0  0  0  0  0  0
   -6.1027   11.5654  -13.8217 H   0  0  0  0  0  0  0  0  0  0  0  0
   -6.3107   10.0281  -10.7406 H   0  0  0  0  0  0  0  0  0  0  0  0
   -8.0279    9.5798   -7.2599 H   0  0  0  0  0  0  0  0  0  0  0  0
   -4.2429   16.0373  -13.8548 H   0  0  0  0  0  0  0  0  0  0  0  0
   -4.9638   16.2086  -12.2185 H   0  0  0  0  0  0  0  0  0  0  0  0
   -3.4785   15.2246  -12.4471 H   0  0  0  0  0  0  0  0  0  0  0  0
   -6.7526   12.3233   -6.9261 H   0  0  0  0  0  0  0  0  0  0  0  0
   -4.5246   13.2972   -6.4815 H   0  0  0  0  0  0  0  0  0  0  0  0
   -2.6730    9.7536   -8.0506 H   0  0  0  0  0  0  0  0  0  0  0  0
   -4.8993    8.7846   -8.4743 H   0  0  0  0  0  0  0  0  0  0  0  0
   -2.4278   14.2202   -6.2127 H   0  0  0  0  0  0  0  0  0  0  0  0
   -0.6614   10.5729   -7.5868 H   0  0  0  0  0  0  0  0  0  0  0  0
    1.4672   14.2904   -6.0634 H   0  0  0  0  0  0  0  0  0  0  0  0
    0.2117   15.4427   -6.6311 H   0  0  0  0  0  0  0  0  0  0  0  0
    0.1649   14.8218   -4.9462 H   0  0  0  0  0  0  0  0  0  0  0  0
  1  2  1  0  0  0  0
  1  4  1  0  0  0  0
  1 13  2  0  0  0  0
  2  6  1  0  0  0  0
  3  4  1  0  0  0  0
  3  5  2  0  0  0  0
  5  6  1  0  0  0  0
  5  9  1  0  0  0  0
  6  7  1  0  0  0  0
  7  8  1  0  0  0  0
  7 10  2  3  0  0  0
  8  9  2  0  0  0  0
 10 14  1  0  0  0  0
 11 12  1  0  0  0  0
 11 13  1  0  0  0  0
 11 26  2  0  0  0  0
 14 15  2  0  0  0  0
 14 19  1  0  0  0  0
 15 16  1  0  0  0  0
 16 17  2  0  0  0  0
 17 18  1  0  0  0  0
 17 20  1  0  0  0  0
 18 19  2  0  0  0  0
 20 21  2  0  0  0  0
 20 24  1  0  0  0  0
 21 22  1  0  0  0  0
 22 23  1  0  0  0  0
 22 25  1  0  0  0  0
 23 24  2  0  0  0  0
  2 27  1  0  0  0  0
  2 28  1  0  0  0  0
  3 29  1  0  0  0  0
  4 30  1  0  0  0  0
  4 31  1  0  0  0  0
  6 32  1  0  0  0  0
 10 33  1  0  0  0  0
 12 34  1  0  0  0  0
 12 35  1  0  0  0  0
 12 36  1  0  0  0  0
 15 37  1  0  0  0  0
 16 38  1  0  0  0  0
 18 39  1  0  0  0  0
 19 40  1  0  0  0  0
 21 41  1  0  0  0  0
 24 42  1  0  0  0  0
 25 43  1  0  0  0  0
 25 44  1  0  0  0  0
 25 45  1  0  0  0  0
M  END
> <Name>
24

> <IC50[uM]>
0.029

$$$$
24
  -OEChem-05192314333D
 Structure written by MMmdl.
 45 48  0     0  0  0  0  0  0999 V2000
   -6.3515   12.3530  -11.9813 C   0  0  0  0  0  0  0  0  0  0  0  0
   -6.5085   11.7912  -10.7247 C   0  0  0  0  0  0  0  0  0  0  0  0
   -7.6802   10.5716  -13.0438 C   0  0  0  0  0  0  0  0  0  0  0  0
   -6.9296   11.7657  -13.1245 C   0  0  0  0  0  0  0  0  0  0  0  0
   -7.7980   10.0044  -11.7669 C   0  0  0  0  0  0  0  0  0  0  0  0
   -7.2328   10.6109  -10.5989 C   0  0  0  0  0  0  0  0  0  0  0  0
   -7.6209    9.7375   -9.5162 C   0  0  0  0  0  0  0  0  0  0  0  0
   -8.2754    8.7446   -9.9970 N   0  0  0  0  0  0  0  0  0  0  0  0
   -8.4233    8.8800  -11.3218 N   0  0  0  0  0  0  0  0  0  0  0  0
   -7.3328    9.8812   -8.0296 C   0  0  0  0  0  0  0  0  0  0  0  0
   -5.3004   14.2773  -13.1499 C   0  0  0  0  0  0  0  0  0  0  0  0
   -4.4346   15.5261  -12.8998 C   0  0  0  0  0  0  0  0  0  0  0  0
   -5.5896   13.5586  -12.0343 N   0  0  0  0  0  0  0  0  0  0  0  0
   -5.9706   10.4906   -7.7317 C   0  0  0  0  0  0  0  0  0  0  0  0
   -5.8616   11.7632   -7.1684 C   0  0  0  0  0  0  0  0  0  0  0  0
   -4.6051   12.3126   -6.9180 C   0  0  0  0  0  0  0  0  0  0  0  0
   -3.4544   11.5948   -7.2294 C   0  0  0  0  0  0  0  0  0  0  0  0
   -3.5626   10.3128   -7.8011 C   0  0  0  0  0  0  0  0  0  0  0  0
   -4.8160    9.7710   -8.0425 C   0  0  0  0  0  0  0  0  0  0  0  0
   -2.1083   12.1736   -6.9694 C   0  0  0  0  0  0  0  0  0  0  0  0
   -1.7503   13.4247   -6.4858 C   0  0  0  0  0  0  0  0  0  0  0  0
   -0.4131   13.4674   -6.4189 N   0  0  0  0  0  0  0  0  0  0  0  0
    0.1758   12.3735   -6.8057 N   0  0  0  0  0  0  0  0  0  0  0  0
   -0.8094   11.5620   -7.1791 C   0  0  0  0  0  0  0  0  0  0  0  0
    0.4060   14.5705   -5.9896 C   0  0  0  0  0  0  0  0  0  0  0  0
   -5.6528   14.0066  -14.2746 O   0  0  0  0  0  0  0  0  0  0  0  0
   -5.5002   11.5939  -10.3317 H   0  0  0  0  0  0  0  0  0  0  0  0
   -7.0066   12.5435  -10.0954 H   0  0  0  0  0  0  0  0  0  0  0  0
   -8.6945   10.7862  -13.4115 H   0  0  0  0  0  0  0  0  0  0  0  0
   -7.2021    9.8287  -13.6992 H   0  0  0  0  0  0  0  0  0  0  0  0
   -7.5989   12.5237  -13.5575 H   0  0  0  0  0  0  0  0  0  0  0  0
   -6.1027   11.5654  -13.8217 H   0  0  0  0  0  0  0  0  0  0  0  0
   -8.0279    9.5798   -7.2599 H   0  0  0  0  0  0  0  0  0  0  0  0
   -4.2429   16.0373  -13.8548 H   0  0  0  0  0  0  0  0  0  0  0  0
   -4.9638   16.2086  -12.2185 H   0  0  0  0  0  0  0  0  0  0  0  0
   -3.4785   15.2246  -12.4471 H   0  0  0  0  0  0  0  0  0  0  0  0
   -6.7526   12.3233   -6.9261 H   0  0  0  0  0  0  0  0  0  0  0  0
   -4.5246   13.2972   -6.4815 H   0  0  0  0  0  0  0  0  0  0  0  0
   -2.6730    9.7536   -8.0506 H   0  0  0  0  0  0  0  0  0  0  0  0
   -4.8993    8.7846   -8.4743 H   0  0  0  0  0  0  0  0  0  0  0  0
   -2.4278   14.2202   -6.2127 H   0  0  0  0  0  0  0  0  0  0  0  0
   -0.6614   10.5729   -7.5868 H   0  0  0  0  0  0  0  0  0  0  0  0
    1.4672   14.2904   -6.0634 H   0  0  0  0  0  0  0  0  0  0  0  0
    0.2117   15.4427   -6.6311 H   0  0  0  0  0  0  0  0  0  0  0  0
    0.1649   14.8218   -4.9462 H   0  0  0  0  0  0  0  0  0  0  0  0
  1  2  1  0  0  0  0
  1  4  1  0  0  0  0
  1 13  2  0  0  0  0
  2  6  1  0  0  0  0
  3  4  1  0  0  0  0
  3  5  1  0  0  0  0
  5  6  2  0  0  0  0
  5  9  1  0  0  0  0
  6  7  1  0  0  0  0
  7  8  1  0  0  0  0
  7 10  2  3  0  0  0
  8  9  2  0  0  0  0
 10 14  1  0  0  0  0
 11 12  1  0  0  0  0
 11 13  1  0  0  0  0
 11 26  2  0  0  0  0
 14 15  2  0  0  0  0
 14 19  1  0  0  0  0
 15 16  1  0  0  0  0
 16 17  2  0  0  0  0
 17 18  1  0  0  0  0
 17 20  1  0  0  0  0
 18 19  2  0  0  0  0
 20 21  2  0  0  0  0
 20 24  1  0  0  0  0
 21 22  1  0  0  0  0
 22 23  1  0  0  0  0
 22 25  1  0  0  0  0
 23 24  2  0  0  0  0
  2 27  1  0  0  0  0
  2 28  1  0  0  0  0
  3 29  1  0  0  0  0
  3 30  1  0  0  0  0
  4 31  1  0  0  0  0
  4 32  1  0  0  0  0
 10 33  1  0  0  0  0
 12 34  1  0  0  0  0
 12 35  1  0  0  0  0
 12 36  1  0  0  0  0
 15 37  1  0  0  0  0
 16 38  1  0  0  0  0
 18 39  1  0  0  0  0
 19 40  1  0  0  0  0
 21 41  1  0  0  0  0
 24 42  1  0  0  0  0
 25 43  1  0  0  0  0
 25 44  1  0  0  0  0
 25 45  1  0  0  0  0
M  END
> <Name>
24

> <IC50[uM]>
0.029

$$$$
24
  -OEChem-05192314333D
 Structure written by MMmdl.
 45 48  0     1  0  0  0  0  0999 V2000
   -6.3515   12.3530  -11.9813 C   0  0  0  0  0  0  0  0  0  0  0  0
   -6.5085   11.7912  -10.7247 C   0  0  0  0  0  0  0  0  0  0  0  0
   -7.6802   10.5716  -13.0438 C   0  0  0  0  0  0  0  0  0  0  0  0
   -6.9296   11.7657  -13.1245 C   0  0  0  0  0  0  0  0  0  0  0  0
   -7.7980   10.0044  -11.7669 C   0  0  0  0  0  0  0  0  0  0  0  0
   -7.2328   10.6109  -10.5989 C   0  0  3  0  0  0  0  0  0  0  0  0
   -7.6209    9.7375   -9.5162 C   0  0  0  0  0  0  0  0  0  0  0  0
   -8.2754    8.7446   -9.9970 N   0  0  0  0  0  0  0  0  0  0  0  0
   -8.4233    8.8800  -11.3218 N   0  0  0  0  0  0  0  0  0  0  0  0
   -7.3328    9.8812   -8.0296 C   0  0  0  0  0  0  0  0  0  0  0  0
   -5.3004   14.2773  -13.1499 C   0  0  0  0  0  0  0  0  0  0  0  0
   -4.4346   15.5261  -12.8998 C   0  0  0  0  0  0  0  0  0  0  0  0
   -5.5896   13.5586  -12.0343 N   0  0  0  0  0  0  0  0  0  0  0  0
   -5.9706   10.4906   -7.7317 C   0  0  0  0  0  0  0  0  0  0  0  0
   -5.8616   11.7632   -7.1684 C   0  0  0  0  0  0  0  0  0  0  0  0
   -4.6051   12.3126   -6.9180 C   0  0  0  0  0  0  0  0  0  0  0  0
   -3.4544   11.5948   -7.2294 C   0  0  0  0  0  0  0  0  0  0  0  0
   -3.5626   10.3128   -7.8011 C   0  0  0  0  0  0  0  0  0  0  0  0
   -4.8160    9.7710   -8.0425 C   0  0  0  0  0  0  0  0  0  0  0  0
   -2.1083   12.1736   -6.9694 C   0  0  0  0  0  0  0  0  0  0  0  0
   -1.7503   13.4247   -6.4858 C   0  0  0  0  0  0  0  0  0  0  0  0
   -0.4131   13.4674   -6.4189 N   0  0  0  0  0  0  0  0  0  0  0  0
    0.1758   12.3735   -6.8057 N   0  0  0  0  0  0  0  0  0  0  0  0
   -0.8094   11.5620   -7.1791 C   0  0  0  0  0  0  0  0  0  0  0  0
    0.4060   14.5705   -5.9896 C   0  0  0  0  0  0  0  0  0  0  0  0
   -5.6528   14.0066  -14.2746 O   0  0  0  0  0  0  0  0  0  0  0  0
   -6.0747   12.2631   -9.8555 H   0  0  0  0  0  0  0  0  0  0  0  0
   -8.1361   10.1224  -13.9137 H   0  0  0  0  0  0  0  0  0  0  0  0
   -6.7956   12.2399  -14.0855 H   0  0  0  0  0  0  0  0  0  0  0  0
   -6.3107   10.0281  -10.7406 H   0  0  0  0  0  0  0  0  0  0  0  0
   -8.1067   10.5245   -7.5855 H   0  0  0  0  0  0  0  0  0  0  0  0
   -7.3763    8.8835   -7.5684 H   0  0  0  0  0  0  0  0  0  0  0  0
   -4.2429   16.0373  -13.8548 H   0  0  0  0  0  0  0  0  0  0  0  0
   -4.9638   16.2086  -12.2185 H   0  0  0  0  0  0  0  0  0  0  0  0
   -3.4785   15.2246  -12.4471 H   0  0  0  0  0  0  0  0  0  0  0  0
   -5.2347   13.9076  -11.1670 H   0  0  0  0  0  0  0  0  0  0  0  0
   -6.7526   12.3233   -6.9261 H   0  0  0  0  0  0  0  0  0  0  0  0
   -4.5246   13.2972   -6.4815 H   0  0  0  0  0  0  0  0  0  0  0  0
   -2.6730    9.7536   -8.0506 H   0  0  0  0  0  0  0  0  0  0  0  0
   -4.8993    8.7846   -8.4743 H   0  0  0  0  0  0  0  0  0  0  0  0
   -2.4278   14.2202   -6.2127 H   0  0  0  0  0  0  0  0  0  0  0  0
   -0.6614   10.5729   -7.5868 H   0  0  0  0  0  0  0  0  0  0  0  0
    1.4672   14.2904   -6.0634 H   0  0  0  0  0  0  0  0  0  0  0  0
    0.2117   15.4427   -6.6311 H   0  0  0  0  0  0  0  0  0  0  0  0
    0.1649   14.8218   -4.9462 H   0  0  0  0  0  0  0  0  0  0  0  0
  1  2  2  0  0  0  0
  1  4  1  0  0  0  0
  1 13  1  0  0  0  0
  2  6  1  0  0  0  0
  3  4  2  0  0  0  0
  3  5  1  0  0  0  0
  5  6  1  0  0  0  0
  5  9  2  0  0  0  0
  6  7  1  0  0  0  0
  7  8  2  0  0  0  0
  7 10  1  0  0  0  0
  8  9  1  0  0  0  0
 10 14  1  0  0  0  0
 11 12  1  0  0  0  0
 11 13  1  0  0  0  0
 11 26  2  0  0  0  0
 14 15  2  0  0  0  0
 14 19  1  0  0  0  0
 15 16  1  0  0  0  0
 16 17  2  0  0  0  0
 17 18  1  0  0  0  0
 17 20  1  0  0  0  0
 18 19  2  0  0  0  0
 20 21  2  0  0  0  0
 20 24  1  0  0  0  0
 21 22  1  0  0  0  0
 22 23  1  0  0  0  0
 22 25  1  0  0  0  0
 23 24  2  0  0  0  0
  2 27  1  0  0  0  0
  3 28  1  0  0  0  0
  4 29  1  0  0  0  0
  6 30  1  0  0  0  0
 10 31  1  0  0  0  0
 10 32  1  0  0  0  0
 12 33  1  0  0  0  0
 12 34  1  0  0  0  0
 12 35  1  0  0  0  0
 13 36  1  0  0  0  0
 15 37  1  0  0  0  0
 16 38  1  0  0  0  0
 18 39  1  0  0  0  0
 19 40  1  0  0  0  0
 21 41  1  0  0  0  0
 24 42  1  0  0  0  0
 25 43  1  0  0  0  0
 25 44  1  0  0  0  0
 25 45  1  0  0  0  0
M  END
> <Name>
24

> <IC50[uM]>
0.029

$$$$
24
  -OEChem-05192314333D
 Structure written by MMmdl.
 45 48  0     1  0  0  0  0  0999 V2000
   -6.3515   12.3530  -11.9813 C   0  0  3  0  0  0  0  0  0  0  0  0
   -6.5085   11.7912  -10.7247 C   0  0  0  0  0  0  0  0  0  0  0  0
   -7.6802   10.5716  -13.0438 C   0  0  0  0  0  0  0  0  0  0  0  0
   -6.9296   11.7657  -13.1245 C   0  0  0  0  0  0  0  0  0  0  0  0
   -7.7980   10.0044  -11.7669 C   0  0  0  0  0  0  0  0  0  0  0  0
   -7.2328   10.6109  -10.5989 C   0  0  0  0  0  0  0  0  0  0  0  0
   -7.6209    9.7375   -9.5162 C   0  0  0  0  0  0  0  0  0  0  0  0
   -8.2754    8.7446   -9.9970 N   0  0  0  0  0  0  0  0  0  0  0  0
   -8.4233    8.8800  -11.3218 N   0  0  0  0  0  0  0  0  0  0  0  0
   -7.3328    9.8812   -8.0296 C   0  0  0  0  0  0  0  0  0  0  0  0
   -5.3004   14.2773  -13.1499 C   0  0  0  0  0  0  0  0  0  0  0  0
   -4.4346   15.5261  -12.8998 C   0  0  0  0  0  0  0  0  0  0  0  0
   -5.5896   13.5586  -12.0343 N   0  0  0  0  0  0  0  0  0  0  0  0
   -5.9706   10.4906   -7.7317 C   0  0  0  0  0  0  0  0  0  0  0  0
   -5.8616   11.7632   -7.1684 C   0  0  0  0  0  0  0  0  0  0  0  0
   -4.6051   12.3126   -6.9180 C   0  0  0  0  0  0  0  0  0  0  0  0
   -3.4544   11.5948   -7.2294 C   0  0  0  0  0  0  0  0  0  0  0  0
   -3.5626   10.3128   -7.8011 C   0  0  0  0  0  0  0  0  0  0  0  0
   -4.8160    9.7710   -8.0425 C   0  0  0  0  0  0  0  0  0  0  0  0
   -2.1083   12.1736   -6.9694 C   0  0  0  0  0  0  0  0  0  0  0  0
   -1.7503   13.4247   -6.4858 C   0  0  0  0  0  0  0  0  0  0  0  0
   -0.4131   13.4674   -6.4189 N   0  0  0  0  0  0  0  0  0  0  0  0
    0.1758   12.3735   -6.8057 N   0  0  0  0  0  0  0  0  0  0  0  0
   -0.8094   11.5620   -7.1791 C   0  0  0  0  0  0  0  0  0  0  0  0
    0.4060   14.5705   -5.9896 C   0  0  0  0  0  0  0  0  0  0  0  0
   -5.6528   14.0066  -14.2746 O   0  0  0  0  0  0  0  0  0  0  0  0
   -5.4362   11.7628  -12.1356 H   0  0  0  0  0  0  0  0  0  0  0  0
   -6.0747   12.2631   -9.8555 H   0  0  0  0  0  0  0  0  0  0  0  0
   -8.1361   10.1224  -13.9137 H   0  0  0  0  0  0  0  0  0  0  0  0
   -6.7956   12.2399  -14.0855 H   0  0  0  0  0  0  0  0  0  0  0  0
   -8.1067   10.5245   -7.5855 H   0  0  0  0  0  0  0  0  0  0  0  0
   -7.3763    8.8835   -7.5684 H   0  0  0  0  0  0  0  0  0  0  0  0
   -4.2429   16.0373  -13.8548 H   0  0  0  0  0  0  0  0  0  0  0  0
   -4.9638   16.2086  -12.2185 H   0  0  0  0  0  0  0  0  0  0  0  0
   -3.4785   15.2246  -12.4471 H   0  0  0  0  0  0  0  0  0  0  0  0
   -5.2347   13.9076  -11.1670 H   0  0  0  0  0  0  0  0  0  0  0  0
   -6.7526   12.3233   -6.9261 H   0  0  0  0  0  0  0  0  0  0  0  0
   -4.5246   13.2972   -6.4815 H   0  0  0  0  0  0  0  0  0  0  0  0
   -2.6730    9.7536   -8.0506 H   0  0  0  0  0  0  0  0  0  0  0  0
   -4.8993    8.7846   -8.4743 H   0  0  0  0  0  0  0  0  0  0  0  0
   -2.4278   14.2202   -6.2127 H   0  0  0  0  0  0  0  0  0  0  0  0
   -0.6614   10.5729   -7.5868 H   0  0  0  0  0  0  0  0  0  0  0  0
    1.4672   14.2904   -6.0634 H   0  0  0  0  0  0  0  0  0  0  0  0
    0.2117   15.4427   -6.6311 H   0  0  0  0  0  0  0  0  0  0  0  0
    0.1649   14.8218   -4.9462 H   0  0  0  0  0  0  0  0  0  0  0  0
  1  2  1  0  0  0  0
  1  4  1  0  0  0  0
  1 13  1  0  0  0  0
  2  6  2  0  0  0  0
  3  4  2  0  0  0  0
  3  5  1  0  0  0  0
  5  6  1  0  0  0  0
  5  9  2  0  0  0  0
  6  7  1  0  0  0  0
  7  8  2  0  0  0  0
  7 10  1  0  0  0  0
  8  9  1  0  0  0  0
 10 14  1  0  0  0  0
 11 12  1  0  0  0  0
 11 13  1  0  0  0  0
 11 26  2  0  0  0  0
 14 15  2  0  0  0  0
 14 19  1  0  0  0  0
 15 16  1  0  0  0  0
 16 17  2  0  0  0  0
 17 18  1  0  0  0  0
 17 20  1  0  0  0  0
 18 19  2  0  0  0  0
 20 21  2  0  0  0  0
 20 24  1  0  0  0  0
 21 22  1  0  0  0  0
 22 23  1  0  0  0  0
 22 25  1  0  0  0  0
 23 24  2  0  0  0  0
  1 27  1  0  0  0  0
  2 28  1  0  0  0  0
  3 29  1  0  0  0  0
  4 30  1  0  0  0  0
 10 31  1  0  0  0  0
 10 32  1  0  0  0  0
 12 33  1  0  0  0  0
 12 34  1  0  0  0  0
 12 35  1  0  0  0  0
 13 36  1  0  0  0  0
 15 37  1  0  0  0  0
 16 38  1  0  0  0  0
 18 39  1  0  0  0  0
 19 40  1  0  0  0  0
 21 41  1  0  0  0  0
 24 42  1  0  0  0  0
 25 43  1  0  0  0  0
 25 44  1  0  0  0  0
 25 45  1  0  0  0  0
M  END
> <Name>
24

> <IC50[uM]>
0.029

$$$$
24
  -OEChem-05192314333D
 Structure written by MMmdl.
 45 48  0     1  0  0  0  0  0999 V2000
   -6.3515   12.3530  -11.9813 C   0  0  0  0  0  0  0  0  0  0  0  0
   -6.5085   11.7912  -10.7247 C   0  0  0  0  0  0  0  0  0  0  0  0
   -7.6802   10.5716  -13.0438 C   0  0  0  0  0  0  0  0  0  0  0  0
   -6.9296   11.7657  -13.1245 C   0  0  0  0  0  0  0  0  0  0  0  0
   -7.7980   10.0044  -11.7669 C   0  0  3  0  0  0  0  0  0  0  0  0
   -7.2328   10.6109  -10.5989 C   0  0  0  0  0  0  0  0  0  0  0  0
   -7.6209    9.7375   -9.5162 C   0  0  3  0  0  0  0  0  0  0  0  0
   -8.2754    8.7446   -9.9970 N   0  0  0  0  0  0  0  0  0  0  0  0
   -8.4233    8.8800  -11.3218 N   0  0  0  0  0  0  0  0  0  0  0  0
   -7.3328    9.8812   -8.0296 C   0  0  0  0  0  0  0  0  0  0  0  0
   -5.3004   14.2773  -13.1499 C   0  0  0  0  0  0  0  0  0  0  0  0
   -4.4346   15.5261  -12.8998 C   0  0  0  0  0  0  0  0  0  0  0  0
   -5.5896   13.5586  -12.0343 N   0  0  0  0  0  0  0  0  0  0  0  0
   -5.9706   10.4906   -7.7317 C   0  0  0  0  0  0  0  0  0  0  0  0
   -5.8616   11.7632   -7.1684 C   0  0  0  0  0  0  0  0  0  0  0  0
   -4.6051   12.3126   -6.9180 C   0  0  0  0  0  0  0  0  0  0  0  0
   -3.4544   11.5948   -7.2294 C   0  0  0  0  0  0  0  0  0  0  0  0
   -3.5626   10.3128   -7.8011 C   0  0  0  0  0  0  0  0  0  0  0  0
   -4.8160    9.7710   -8.0425 C   0  0  0  0  0  0  0  0  0  0  0  0
   -2.1083   12.1736   -6.9694 C   0  0  0  0  0  0  0  0  0  0  0  0
   -1.7503   13.4247   -6.4858 C   0  0  0  0  0  0  0  0  0  0  0  0
   -0.4131   13.4674   -6.4189 N   0  0  0  0  0  0  0  0  0  0  0  0
    0.1758   12.3735   -6.8057 N   0  0  0  0  0  0  0  0  0  0  0  0
   -0.8094   11.5620   -7.1791 C   0  0  0  0  0  0  0  0  0  0  0  0
    0.4060   14.5705   -5.9896 C   0  0  0  0  0  0  0  0  0  0  0  0
   -5.6528   14.0066  -14.2746 O   0  0  0  0  0  0  0  0  0  0  0  0
   -6.0747   12.2631   -9.8555 H   0  0  0  0  0  0  0  0  0  0  0  0
   -8.1361   10.1224  -13.9137 H   0  0  0  0  0  0  0  0  0  0  0  0
   -6.7956   12.2399  -14.0855 H   0  0  0  0  0  0  0  0  0  0  0  0
   -6.8712    9.4340  -11.9273 H   0  0  0  0  0  0  0  0  0  0  0  0
   -8.5577   10.3007   -9.3927 H   0  0  0  0  0  0  0  0  0  0  0  0
   -8.1067   10.5245   -7.5855 H   0  0  0  0  0  0  0  0  0  0  0  0
   -7.3763    8.8835   -7.5684 H   0  0  0  0  0  0  0  0  0  0  0  0
   -4.2429   16.0373  -13.8548 H   0  0  0  0  0  0  0  0  0  0  0  0
   -4.9638   16.2086  -12.2185 H   0  0  0  0  0  0  0  0  0  0  0  0
   -3.4785   15.2246  -12.4471 H   0  0  0  0  0  0  0  0  0  0  0  0
   -6.7526   12.3233   -6.9261 H   0  0  0  0  0  0  0  0  0  0  0  0
   -4.5246   13.2972   -6.4815 H   0  0  0  0  0  0  0  0  0  0  0  0
   -2.6730    9.7536   -8.0506 H   0  0  0  0  0  0  0  0  0  0  0  0
   -4.8993    8.7846   -8.4743 H   0  0  0  0  0  0  0  0  0  0  0  0
   -2.4278   14.2202   -6.2127 H   0  0  0  0  0  0  0  0  0  0  0  0
   -0.6614   10.5729   -7.5868 H   0  0  0  0  0  0  0  0  0  0  0  0
    1.4672   14.2904   -6.0634 H   0  0  0  0  0  0  0  0  0  0  0  0
    0.2117   15.4427   -6.6311 H   0  0  0  0  0  0  0  0  0  0  0  0
    0.1649   14.8218   -4.9462 H   0  0  0  0  0  0  0  0  0  0  0  0
  1  2  1  0  0  0  0
  1  4  1  0  0  0  0
  1 13  2  0  0  0  0
  2  6  2  0  0  0  0
  3  4  2  0  0  0  0
  3  5  1  0  0  0  0
  5  6  1  0  0  0  0
  5  9  1  0  0  0  0
  6  7  1  0  0  0  0
  7  8  1  0  0  0  0
  7 10  1  0  0  0  0
  8  9  2  0  0  0  0
 10 14  1  0  0  0  0
 11 12  1  0  0  0  0
 11 13  1  0  0  0  0
 11 26  2  0  0  0  0
 14 15  2  0  0  0  0
 14 19  1  0  0  0  0
 15 16  1  0  0  0  0
 16 17  2  0  0  0  0
 17 18  1  0  0  0  0
 17 20  1  0  0  0  0
 18 19  2  0  0  0  0
 20 21  2  0  0  0  0
 20 24  1  0  0  0  0
 21 22  1  0  0  0  0
 22 23  1  0  0  0  0
 22 25  1  0  0  0  0
 23 24  2  0  0  0  0
  2 27  1  0  0  0  0
  3 28  1  0  0  0  0
  4 29  1  0  0  0  0
  5 30  1  0  0  0  0
  7 31  1  0  0  0  0
 10 32  1  0  0  0  0
 10 33  1  0  0  0  0
 12 34  1  0  0  0  0
 12 35  1  0  0  0  0
 12 36  1  0  0  0  0
 15 37  1  0  0  0  0
 16 38  1  0  0  0  0
 18 39  1  0  0  0  0
 19 40  1  0  0  0  0
 21 41  1  0  0  0  0
 24 42  1  0  0  0  0
 25 43  1  0  0  0  0
 25 44  1  0  0  0  0
 25 45  1  0  0  0  0
M  END
> <Name>
24

> <IC50[uM]>
0.029

$$$$
24
  -OEChem-05192314333D
 Structure written by MMmdl.
 45 48  0     0  0  0  0  0  0999 V2000
   -6.3515   12.3530  -11.9813 C   0  0  0  0  0  0  0  0  0  0  0  0
   -6.5085   11.7912  -10.7247 C   0  0  0  0  0  0  0  0  0  0  0  0
   -7.6802   10.5716  -13.0438 C   0  0  0  0  0  0  0  0  0  0  0  0
   -6.9296   11.7657  -13.1245 C   0  0  0  0  0  0  0  0  0  0  0  0
   -7.7980   10.0044  -11.7669 C   0  0  0  0  0  0  0  0  0  0  0  0
   -7.2328   10.6109  -10.5989 C   0  0  0  0  0  0  0  0  0  0  0  0
   -7.6209    9.7375   -9.5162 C   0  0  0  0  0  0  0  0  0  0  0  0
   -8.2754    8.7446   -9.9970 N   0  0  0  0  0  0  0  0  0  0  0  0
   -8.4233    8.8800  -11.3218 N   0  0  0  0  0  0  0  0  0  0  0  0
   -7.3328    9.8812   -8.0296 C   0  0  0  0  0  0  0  0  0  0  0  0
   -5.3004   14.2773  -13.1499 C   0  0  0  0  0  0  0  0  0  0  0  0
   -4.4346   15.5261  -12.8998 C   0  0  0  0  0  0  0  0  0  0  0  0
   -5.5896   13.5586  -12.0343 N   0  0  0  0  0  0  0  0  0  0  0  0
   -5.9706   10.4906   -7.7317 C   0  0  0  0  0  0  0  0  0  0  0  0
   -5.8616   11.7632   -7.1684 C   0  0  0  0  0  0  0  0  0  0  0  0
   -4.6051   12.3126   -6.9180 C   0  0  0  0  0  0  0  0  0  0  0  0
   -3.4544   11.5948   -7.2294 C   0  0  0  0  0  0  0  0  0  0  0  0
   -3.5626   10.3128   -7.8011 C   0  0  0  0  0  0  0  0  0  0  0  0
   -4.8160    9.7710   -8.0425 C   0  0  0  0  0  0  0  0  0  0  0  0
   -2.1083   12.1736   -6.9694 C   0  0  0  0  0  0  0  0  0  0  0  0
   -1.7503   13.4247   -6.4858 C   0  0  0  0  0  0  0  0  0  0  0  0
   -0.4131   13.4674   -6.4189 N   0  0  0  0  0  0  0  0  0  0  0  0
    0.1758   12.3735   -6.8057 N   0  0  0  0  0  0  0  0  0  0  0  0
   -0.8094   11.5620   -7.1791 C   0  0  0  0  0  0  0  0  0  0  0  0
    0.4060   14.5705   -5.9896 C   0  0  0  0  0  0  0  0  0  0  0  0
   -5.6528   14.0066  -14.2746 O   0  0  0  0  0  0  0  0  0  0  0  0
   -6.0747   12.2631   -9.8555 H   0  0  0  0  0  0  0  0  0  0  0  0
   -8.6945   10.7862  -13.4115 H   0  0  0  0  0  0  0  0  0  0  0  0
   -7.2021    9.8287  -13.6992 H   0  0  0  0  0  0  0  0  0  0  0  0
   -6.7956   12.2399  -14.0855 H   0  0  0  0  0  0  0  0  0  0  0  0
   -8.1067   10.5245   -7.5855 H   0  0  0  0  0  0  0  0  0  0  0  0
   -7.3763    8.8835   -7.5684 H   0  0  0  0  0  0  0  0  0  0  0  0
   -4.2429   16.0373  -13.8548 H   0  0  0  0  0  0  0  0  0  0  0  0
   -4.9638   16.2086  -12.2185 H   0  0  0  0  0  0  0  0  0  0  0  0
   -3.4785   15.2246  -12.4471 H   0  0  0  0  0  0  0  0  0  0  0  0
   -5.2347   13.9076  -11.1670 H   0  0  0  0  0  0  0  0  0  0  0  0
   -6.7526   12.3233   -6.9261 H   0  0  0  0  0  0  0  0  0  0  0  0
   -4.5246   13.2972   -6.4815 H   0  0  0  0  0  0  0  0  0  0  0  0
   -2.6730    9.7536   -8.0506 H   0  0  0  0  0  0  0  0  0  0  0  0
   -4.8993    8.7846   -8.4743 H   0  0  0  0  0  0  0  0  0  0  0  0
   -2.4278   14.2202   -6.2127 H   0  0  0  0  0  0  0  0  0  0  0  0
   -0.6614   10.5729   -7.5868 H   0  0  0  0  0  0  0  0  0  0  0  0
    1.4672   14.2904   -6.0634 H   0  0  0  0  0  0  0  0  0  0  0  0
    0.2117   15.4427   -6.6311 H   0  0  0  0  0  0  0  0  0  0  0  0
    0.1649   14.8218   -4.9462 H   0  0  0  0  0  0  0  0  0  0  0  0
  1  2  1  0  0  0  0
  1  4  2  0  0  0  0
  1 13  1  0  0  0  0
  2  6  2  0  0  0  0
  3  4  1  0  0  0  0
  3  5  1  0  0  0  0
  5  6  1  0  0  0  0
  5  9  2  0  0  0  0
  6  7  1  0  0  0  0
  7  8  2  0  0  0  0
  7 10  1  0  0  0  0
  8  9  1  0  0  0  0
 10 14  1  0  0  0  0
 11 12  1  0  0  0  0
 11 13  1  0  0  0  0
 11 26  2  0  0  0  0
 14 15  2  0  0  0  0
 14 19  1  0  0  0  0
 15 16  1  0  0  0  0
 16 17  2  0  0  0  0
 17 18  1  0  0  0  0
 17 20  1  0  0  0  0
 18 19  2  0  0  0  0
 20 21  2  0  0  0  0
 20 24  1  0  0  0  0
 21 22  1  0  0  0  0
 22 23  1  0  0  0  0
 22 25  1  0  0  0  0
 23 24  2  0  0  0  0
  2 27  1  0  0  0  0
  3 28  1  0  0  0  0
  3 29  1  0  0  0  0
  4 30  1  0  0  0  0
 10 31  1  0  0  0  0
 10 32  1  0  0  0  0
 12 33  1  0  0  0  0
 12 34  1  0  0  0  0
 12 35  1  0  0  0  0
 13 36  1  0  0  0  0
 15 37  1  0  0  0  0
 16 38  1  0  0  0  0
 18 39  1  0  0  0  0
 19 40  1  0  0  0  0
 21 41  1  0  0  0  0
 24 42  1  0  0  0  0
 25 43  1  0  0  0  0
 25 44  1  0  0  0  0
 25 45  1  0  0  0  0
M  END
> <Name>
24

> <IC50[uM]>
0.029

$$$$
24
  -OEChem-05192314333D
 Structure written by MMmdl.
 45 48  0     1  0  0  0  0  0999 V2000
   -6.3515   12.3530  -11.9813 C   0  0  0  0  0  0  0  0  0  0  0  0
   -6.5085   11.7912  -10.7247 C   0  0  0  0  0  0  0  0  0  0  0  0
   -7.6802   10.5716  -13.0438 C   0  0  0  0  0  0  0  0  0  0  0  0
   -6.9296   11.7657  -13.1245 C   0  0  0  0  0  0  0  0  0  0  0  0
   -7.7980   10.0044  -11.7669 C   0  0  0  0  0  0  0  0  0  0  0  0
   -7.2328   10.6109  -10.5989 C   0  0  0  0  0  0  0  0  0  0  0  0
   -7.6209    9.7375   -9.5162 C   0  0  3  0  0  0  0  0  0  0  0  0
   -8.2754    8.7446   -9.9970 N   0  0  0  0  0  0  0  0  0  0  0  0
   -8.4233    8.8800  -11.3218 N   0  0  0  0  0  0  0  0  0  0  0  0
   -7.3328    9.8812   -8.0296 C   0  0  0  0  0  0  0  0  0  0  0  0
   -5.3004   14.2773  -13.1499 C   0  0  0  0  0  0  0  0  0  0  0  0
   -4.4346   15.5261  -12.8998 C   0  0  0  0  0  0  0  0  0  0  0  0
   -5.5896   13.5586  -12.0343 N   0  0  0  0  0  0  0  0  0  0  0  0
   -5.9706   10.4906   -7.7317 C   0  0  0  0  0  0  0  0  0  0  0  0
   -5.8616   11.7632   -7.1684 C   0  0  0  0  0  0  0  0  0  0  0  0
   -4.6051   12.3126   -6.9180 C   0  0  0  0  0  0  0  0  0  0  0  0
   -3.4544   11.5948   -7.2294 C   0  0  0  0  0  0  0  0  0  0  0  0
   -3.5626   10.3128   -7.8011 C   0  0  0  0  0  0  0  0  0  0  0  0
   -4.8160    9.7710   -8.0425 C   0  0  0  0  0  0  0  0  0  0  0  0
   -2.1083   12.1736   -6.9694 C   0  0  0  0  0  0  0  0  0  0  0  0
   -1.7503   13.4247   -6.4858 C   0  0  0  0  0  0  0  0  0  0  0  0
   -0.4131   13.4674   -6.4189 N   0  0  0  0  0  0  0  0  0  0  0  0
    0.1758   12.3735   -6.8057 N   0  0  0  0  0  0  0  0  0  0  0  0
   -0.8094   11.5620   -7.1791 C   0  0  0  0  0  0  0  0  0  0  0  0
    0.4060   14.5705   -5.9896 C   0  0  0  0  0  0  0  0  0  0  0  0
   -5.6528   14.0066  -14.2746 O   0  0  0  0  0  0  0  0  0  0  0  0
   -6.0747   12.2631   -9.8555 H   0  0  0  0  0  0  0  0  0  0  0  0
   -8.1361   10.1224  -13.9137 H   0  0  0  0  0  0  0  0  0  0  0  0
   -7.5989   12.5237  -13.5575 H   0  0  0  0  0  0  0  0  0  0  0  0
   -6.1027   11.5654  -13.8217 H   0  0  0  0  0  0  0  0  0  0  0  0
   -8.5577   10.3007   -9.3927 H   0  0  0  0  0  0  0  0  0  0  0  0
   -8.1067   10.5245   -7.5855 H   0  0  0  0  0  0  0  0  0  0  0  0
   -7.3763    8.8835   -7.5684 H   0  0  0  0  0  0  0  0  0  0  0  0
   -4.2429   16.0373  -13.8548 H   0  0  0  0  0  0  0  0  0  0  0  0
   -4.9638   16.2086  -12.2185 H   0  0  0  0  0  0  0  0  0  0  0  0
   -3.4785   15.2246  -12.4471 H   0  0  0  0  0  0  0  0  0  0  0  0
   -6.7526   12.3233   -6.9261 H   0  0  0  0  0  0  0  0  0  0  0  0
   -4.5246   13.2972   -6.4815 H   0  0  0  0  0  0  0  0  0  0  0  0
   -2.6730    9.7536   -8.0506 H   0  0  0  0  0  0  0  0  0  0  0  0
   -4.8993    8.7846   -8.4743 H   0  0  0  0  0  0  0  0  0  0  0  0
   -2.4278   14.2202   -6.2127 H   0  0  0  0  0  0  0  0  0  0  0  0
   -0.6614   10.5729   -7.5868 H   0  0  0  0  0  0  0  0  0  0  0  0
    1.4672   14.2904   -6.0634 H   0  0  0  0  0  0  0  0  0  0  0  0
    0.2117   15.4427   -6.6311 H   0  0  0  0  0  0  0  0  0  0  0  0
    0.1649   14.8218   -4.9462 H   0  0  0  0  0  0  0  0  0  0  0  0
  1  2  1  0  0  0  0
  1  4  1  0  0  0  0
  1 13  2  0  0  0  0
  2  6  2  0  0  0  0
  3  4  1  0  0  0  0
  3  5  2  0  0  0  0
  5  6  1  0  0  0  0
  5  9  1  0  0  0  0
  6  7  1  0  0  0  0
  7  8  1  0  0  0  0
  7 10  1  0  0  0  0
  8  9  2  0  0  0  0
 10 14  1  0  0  0  0
 11 12  1  0  0  0  0
 11 13  1  0  0  0  0
 11 26  2  0  0  0  0
 14 15  2  0  0  0  0
 14 19  1  0  0  0  0
 15 16  1  0  0  0  0
 16 17  2  0  0  0  0
 17 18  1  0  0  0  0
 17 20  1  0  0  0  0
 18 19  2  0  0  0  0
 20 21  2  0  0  0  0
 20 24  1  0  0  0  0
 21 22  1  0  0  0  0
 22 23  1  0  0  0  0
 22 25  1  0  0  0  0
 23 24  2  0  0  0  0
  2 27  1  0  0  0  0
  3 28  1  0  0  0  0
  4 29  1  0  0  0  0
  4 30  1  0  0  0  0
  7 31  1  0  0  0  0
 10 32  1  0  0  0  0
 10 33  1  0  0  0  0
 12 34  1  0  0  0  0
 12 35  1  0  0  0  0
 12 36  1  0  0  0  0
 15 37  1  0  0  0  0
 16 38  1  0  0  0  0
 18 39  1  0  0  0  0
 19 40  1  0  0  0  0
 21 41  1  0  0  0  0
 24 42  1  0  0  0  0
 25 43  1  0  0  0  0
 25 44  1  0  0  0  0
 25 45  1  0  0  0  0
M  END
> <Name>
24

> <IC50[uM]>
0.029

$$$$
24
  -OEChem-05192314333D
 Structure written by MMmdl.
 45 48  0     1  0  0  0  0  0999 V2000
   -6.3515   12.3530  -11.9813 C   0  0  0  0  0  0  0  0  0  0  0  0
   -6.5085   11.7912  -10.7247 C   0  0  0  0  0  0  0  0  0  0  0  0
   -7.6802   10.5716  -13.0438 C   0  0  0  0  0  0  0  0  0  0  0  0
   -6.9296   11.7657  -13.1245 C   0  0  0  0  0  0  0  0  0  0  0  0
   -7.7980   10.0044  -11.7669 C   0  0  0  0  0  0  0  0  0  0  0  0
   -7.2328   10.6109  -10.5989 C   0  0  0  0  0  0  0  0  0  0  0  0
   -7.6209    9.7375   -9.5162 C   0  0  3  0  0  0  0  0  0  0  0  0
   -8.2754    8.7446   -9.9970 N   0  0  0  0  0  0  0  0  0  0  0  0
   -8.4233    8.8800  -11.3218 N   0  0  0  0  0  0  0  0  0  0  0  0
   -7.3328    9.8812   -8.0296 C   0  0  0  0  0  0  0  0  0  0  0  0
   -5.3004   14.2773  -13.1499 C   0  0  0  0  0  0  0  0  0  0  0  0
   -4.4346   15.5261  -12.8998 C   0  0  0  0  0  0  0  0  0  0  0  0
   -5.5896   13.5586  -12.0343 N   0  0  0  0  0  0  0  0  0  0  0  0
   -5.9706   10.4906   -7.7317 C   0  0  0  0  0  0  0  0  0  0  0  0
   -5.8616   11.7632   -7.1684 C   0  0  0  0  0  0  0  0  0  0  0  0
   -4.6051   12.3126   -6.9180 C   0  0  0  0  0  0  0  0  0  0  0  0
   -3.4544   11.5948   -7.2294 C   0  0  0  0  0  0  0  0  0  0  0  0
   -3.5626   10.3128   -7.8011 C   0  0  0  0  0  0  0  0  0  0  0  0
   -4.8160    9.7710   -8.0425 C   0  0  0  0  0  0  0  0  0  0  0  0
   -2.1083   12.1736   -6.9694 C   0  0  0  0  0  0  0  0  0  0  0  0
   -1.7503   13.4247   -6.4858 C   0  0  0  0  0  0  0  0  0  0  0  0
   -0.4131   13.4674   -6.4189 N   0  0  0  0  0  0  0  0  0  0  0  0
    0.1758   12.3735   -6.8057 N   0  0  0  0  0  0  0  0  0  0  0  0
   -0.8094   11.5620   -7.1791 C   0  0  0  0  0  0  0  0  0  0  0  0
    0.4060   14.5705   -5.9896 C   0  0  0  0  0  0  0  0  0  0  0  0
   -5.6528   14.0066  -14.2746 O   0  0  0  0  0  0  0  0  0  0  0  0
   -5.5002   11.5939  -10.3317 H   0  0  0  0  0  0  0  0  0  0  0  0
   -7.0066   12.5435  -10.0954 H   0  0  0  0  0  0  0  0  0  0  0  0
   -8.1361   10.1224  -13.9137 H   0  0  0  0  0  0  0  0  0  0  0  0
   -6.7956   12.2399  -14.0855 H   0  0  0  0  0  0  0  0  0  0  0  0
   -8.5577   10.3007   -9.3927 H   0  0  0  0  0  0  0  0  0  0  0  0
   -8.1067   10.5245   -7.5855 H   0  0  0  0  0  0  0  0  0  0  0  0
   -7.3763    8.8835   -7.5684 H   0  0  0  0  0  0  0  0  0  0  0  0
   -4.2429   16.0373  -13.8548 H   0  0  0  0  0  0  0  0  0  0  0  0
   -4.9638   16.2086  -12.2185 H   0  0  0  0  0  0  0  0  0  0  0  0
   -3.4785   15.2246  -12.4471 H   0  0  0  0  0  0  0  0  0  0  0  0
   -6.7526   12.3233   -6.9261 H   0  0  0  0  0  0  0  0  0  0  0  0
   -4.5246   13.2972   -6.4815 H   0  0  0  0  0  0  0  0  0  0  0  0
   -2.6730    9.7536   -8.0506 H   0  0  0  0  0  0  0  0  0  0  0  0
   -4.8993    8.7846   -8.4743 H   0  0  0  0  0  0  0  0  0  0  0  0
   -2.4278   14.2202   -6.2127 H   0  0  0  0  0  0  0  0  0  0  0  0
   -0.6614   10.5729   -7.5868 H   0  0  0  0  0  0  0  0  0  0  0  0
    1.4672   14.2904   -6.0634 H   0  0  0  0  0  0  0  0  0  0  0  0
    0.2117   15.4427   -6.6311 H   0  0  0  0  0  0  0  0  0  0  0  0
    0.1649   14.8218   -4.9462 H   0  0  0  0  0  0  0  0  0  0  0  0
  1  2  1  0  0  0  0
  1  4  1  0  0  0  0
  1 13  2  0  0  0  0
  2  6  1  0  0  0  0
  3  4  2  0  0  0  0
  3  5  1  0  0  0  0
  5  6  2  0  0  0  0
  5  9  1  0  0  0  0
  6  7  1  0  0  0  0
  7  8  1  0  0  0  0
  7 10  1  0  0  0  0
  8  9  2  0  0  0  0
 10 14  1  0  0  0  0
 11 12  1  0  0  0  0
 11 13  1  0  0  0  0
 11 26  2  0  0  0  0
 14 15  2  0  0  0  0
 14 19  1  0  0  0  0
 15 16  1  0  0  0  0
 16 17  2  0  0  0  0
 17 18  1  0  0  0  0
 17 20  1  0  0  0  0
 18 19  2  0  0  0  0
 20 21  2  0  0  0  0
 20 24  1  0  0  0  0
 21 22  1  0  0  0  0
 22 23  1  0  0  0  0
 22 25  1  0  0  0  0
 23 24  2  0  0  0  0
  2 27  1  0  0  0  0
  2 28  1  0  0  0  0
  3 29  1  0  0  0  0
  4 30  1  0  0  0  0
  7 31  1  0  0  0  0
 10 32  1  0  0  0  0
 10 33  1  0  0  0  0
 12 34  1  0  0  0  0
 12 35  1  0  0  0  0
 12 36  1  0  0  0  0
 15 37  1  0  0  0  0
 16 38  1  0  0  0  0
 18 39  1  0  0  0  0
 19 40  1  0  0  0  0
 21 41  1  0  0  0  0
 24 42  1  0  0  0  0
 25 43  1  0  0  0  0
 25 44  1  0  0  0  0
 25 45  1  0  0  0  0
M  END
> <Name>
24

> <IC50[uM]>
0.029

$$$$
24
  -OEChem-05192314333D
 Structure written by MMmdl.
 45 48  0     1  0  0  0  0  0999 V2000
   -6.3515   12.3530  -11.9813 C   0  0  0  0  0  0  0  0  0  0  0  0
   -6.5085   11.7912  -10.7247 C   0  0  0  0  0  0  0  0  0  0  0  0
   -7.6802   10.5716  -13.0438 C   0  0  0  0  0  0  0  0  0  0  0  0
   -6.9296   11.7657  -13.1245 C   0  0  0  0  0  0  0  0  0  0  0  0
   -7.7980   10.0044  -11.7669 C   0  0  3  0  0  0  0  0  0  0  0  0
   -7.2328   10.6109  -10.5989 C   0  0  0  0  0  0  0  0  0  0  0  0
   -7.6209    9.7375   -9.5162 C   0  0  0  0  0  0  0  0  0  0  0  0
   -8.2754    8.7446   -9.9970 N   0  0  0  0  0  0  0  0  0  0  0  0
   -8.4233    8.8800  -11.3218 N   0  0  0  0  0  0  0  0  0  0  0  0
   -7.3328    9.8812   -8.0296 C   0  0  0  0  0  0  0  0  0  0  0  0
   -5.3004   14.2773  -13.1499 C   0  0  0  0  0  0  0  0  0  0  0  0
   -4.4346   15.5261  -12.8998 C   0  0  0  0  0  0  0  0  0  0  0  0
   -5.5896   13.5586  -12.0343 N   0  0  0  0  0  0  0  0  0  0  0  0
   -5.9706   10.4906   -7.7317 C   0  0  0  0  0  0  0  0  0  0  0  0
   -5.8616   11.7632   -7.1684 C   0  0  0  0  0  0  0  0  0  0  0  0
   -4.6051   12.3126   -6.9180 C   0  0  0  0  0  0  0  0  0  0  0  0
   -3.4544   11.5948   -7.2294 C   0  0  0  0  0  0  0  0  0  0  0  0
   -3.5626   10.3128   -7.8011 C   0  0  0  0  0  0  0  0  0  0  0  0
   -4.8160    9.7710   -8.0425 C   0  0  0  0  0  0  0  0  0  0  0  0
   -2.1083   12.1736   -6.9694 C   0  0  0  0  0  0  0  0  0  0  0  0
   -1.7503   13.4247   -6.4858 C   0  0  0  0  0  0  0  0  0  0  0  0
   -0.4131   13.4674   -6.4189 N   0  0  0  0  0  0  0  0  0  0  0  0
    0.1758   12.3735   -6.8057 N   0  0  0  0  0  0  0  0  0  0  0  0
   -0.8094   11.5620   -7.1791 C   0  0  0  0  0  0  0  0  0  0  0  0
    0.4060   14.5705   -5.9896 C   0  0  0  0  0  0  0  0  0  0  0  0
   -5.6528   14.0066  -14.2746 O   0  0  0  0  0  0  0  0  0  0  0  0
   -5.5002   11.5939  -10.3317 H   0  0  0  0  0  0  0  0  0  0  0  0
   -7.0066   12.5435  -10.0954 H   0  0  0  0  0  0  0  0  0  0  0  0
   -8.1361   10.1224  -13.9137 H   0  0  0  0  0  0  0  0  0  0  0  0
   -6.7956   12.2399  -14.0855 H   0  0  0  0  0  0  0  0  0  0  0  0
   -6.8712    9.4340  -11.9273 H   0  0  0  0  0  0  0  0  0  0  0  0
   -8.1067   10.5245   -7.5855 H   0  0  0  0  0  0  0  0  0  0  0  0
   -7.3763    8.8835   -7.5684 H   0  0  0  0  0  0  0  0  0  0  0  0
   -4.2429   16.0373  -13.8548 H   0  0  0  0  0  0  0  0  0  0  0  0
   -4.9638   16.2086  -12.2185 H   0  0  0  0  0  0  0  0  0  0  0  0
   -3.4785   15.2246  -12.4471 H   0  0  0  0  0  0  0  0  0  0  0  0
   -6.7526   12.3233   -6.9261 H   0  0  0  0  0  0  0  0  0  0  0  0
   -4.5246   13.2972   -6.4815 H   0  0  0  0  0  0  0  0  0  0  0  0
   -2.6730    9.7536   -8.0506 H   0  0  0  0  0  0  0  0  0  0  0  0
   -4.8993    8.7846   -8.4743 H   0  0  0  0  0  0  0  0  0  0  0  0
   -2.4278   14.2202   -6.2127 H   0  0  0  0  0  0  0  0  0  0  0  0
   -0.6614   10.5729   -7.5868 H   0  0  0  0  0  0  0  0  0  0  0  0
    1.4672   14.2904   -6.0634 H   0  0  0  0  0  0  0  0  0  0  0  0
    0.2117   15.4427   -6.6311 H   0  0  0  0  0  0  0  0  0  0  0  0
    0.1649   14.8218   -4.9462 H   0  0  0  0  0  0  0  0  0  0  0  0
  1  2  1  0  0  0  0
  1  4  1  0  0  0  0
  1 13  2  0  0  0  0
  2  6  1  0  0  0  0
  3  4  2  0  0  0  0
  3  5  1  0  0  0  0
  5  6  1  0  0  0  0
  5  9  1  0  0  0  0
  6  7  2  0  0  0  0
  7  8  1  0  0  0  0
  7 10  1  0  0  0  0
  8  9  2  0  0  0  0
 10 14  1  0  0  0  0
 11 12  1  0  0  0  0
 11 13  1  0  0  0  0
 11 26  2  0  0  0  0
 14 15  2  0  0  0  0
 14 19  1  0  0  0  0
 15 16  1  0  0  0  0
 16 17  2  0  0  0  0
 17 18  1  0  0  0  0
 17 20  1  0  0  0  0
 18 19  2  0  0  0  0
 20 21  2  0  0  0  0
 20 24  1  0  0  0  0
 21 22  1  0  0  0  0
 22 23  1  0  0  0  0
 22 25  1  0  0  0  0
 23 24  2  0  0  0  0
  2 27  1  0  0  0  0
  2 28  1  0  0  0  0
  3 29  1  0  0  0  0
  4 30  1  0  0  0  0
  5 31  1  0  0  0  0
 10 32  1  0  0  0  0
 10 33  1  0  0  0  0
 12 34  1  0  0  0  0
 12 35  1  0  0  0  0
 12 36  1  0  0  0  0
 15 37  1  0  0  0  0
 16 38  1  0  0  0  0
 18 39  1  0  0  0  0
 19 40  1  0  0  0  0
 21 41  1  0  0  0  0
 24 42  1  0  0  0  0
 25 43  1  0  0  0  0
 25 44  1  0  0  0  0
 25 45  1  0  0  0  0
M  END
> <Name>
24

> <IC50[uM]>
0.029

$$$$
24
  -OEChem-05192314333D
 Structure written by MMmdl.
 45 48  0     0  0  0  0  0  0999 V2000
   -6.3515   12.3530  -11.9813 C   0  0  0  0  0  0  0  0  0  0  0  0
   -6.5085   11.7912  -10.7247 C   0  0  0  0  0  0  0  0  0  0  0  0
   -7.6802   10.5716  -13.0438 C   0  0  0  0  0  0  0  0  0  0  0  0
   -6.9296   11.7657  -13.1245 C   0  0  0  0  0  0  0  0  0  0  0  0
   -7.7980   10.0044  -11.7669 C   0  0  0  0  0  0  0  0  0  0  0  0
   -7.2328   10.6109  -10.5989 C   0  0  0  0  0  0  0  0  0  0  0  0
   -7.6209    9.7375   -9.5162 C   0  0  0  0  0  0  0  0  0  0  0  0
   -8.2754    8.7446   -9.9970 N   0  0  0  0  0  0  0  0  0  0  0  0
   -8.4233    8.8800  -11.3218 N   0  0  0  0  0  0  0  0  0  0  0  0
   -7.3328    9.8812   -8.0296 C   0  0  0  0  0  0  0  0  0  0  0  0
   -5.3004   14.2773  -13.1499 C   0  0  0  0  0  0  0  0  0  0  0  0
   -4.4346   15.5261  -12.8998 C   0  0  0  0  0  0  0  0  0  0  0  0
   -5.5896   13.5586  -12.0343 N   0  0  0  0  0  0  0  0  0  0  0  0
   -5.9706   10.4906   -7.7317 C   0  0  0  0  0  0  0  0  0  0  0  0
   -5.8616   11.7632   -7.1684 C   0  0  0  0  0  0  0  0  0  0  0  0
   -4.6051   12.3126   -6.9180 C   0  0  0  0  0  0  0  0  0  0  0  0
   -3.4544   11.5948   -7.2294 C   0  0  0  0  0  0  0  0  0  0  0  0
   -3.5626   10.3128   -7.8011 C   0  0  0  0  0  0  0  0  0  0  0  0
   -4.8160    9.7710   -8.0425 C   0  0  0  0  0  0  0  0  0  0  0  0
   -2.1083   12.1736   -6.9694 C   0  0  0  0  0  0  0  0  0  0  0  0
   -1.7503   13.4247   -6.4858 C   0  0  0  0  0  0  0  0  0  0  0  0
   -0.4131   13.4674   -6.4189 N   0  0  0  0  0  0  0  0  0  0  0  0
    0.1758   12.3735   -6.8057 N   0  0  0  0  0  0  0  0  0  0  0  0
   -0.8094   11.5620   -7.1791 C   0  0  0  0  0  0  0  0  0  0  0  0
    0.4060   14.5705   -5.9896 C   0  0  0  0  0  0  0  0  0  0  0  0
   -5.6528   14.0066  -14.2746 O   0  0  0  0  0  0  0  0  0  0  0  0
   -5.5002   11.5939  -10.3317 H   0  0  0  0  0  0  0  0  0  0  0  0
   -7.0066   12.5435  -10.0954 H   0  0  0  0  0  0  0  0  0  0  0  0
   -8.1361   10.1224  -13.9137 H   0  0  0  0  0  0  0  0  0  0  0  0
   -7.5989   12.5237  -13.5575 H   0  0  0  0  0  0  0  0  0  0  0  0
   -6.1027   11.5654  -13.8217 H   0  0  0  0  0  0  0  0  0  0  0  0
   -8.1067   10.5245   -7.5855 H   0  0  0  0  0  0  0  0  0  0  0  0
   -7.3763    8.8835   -7.5684 H   0  0  0  0  0  0  0  0  0  0  0  0
   -4.2429   16.0373  -13.8548 H   0  0  0  0  0  0  0  0  0  0  0  0
   -4.9638   16.2086  -12.2185 H   0  0  0  0  0  0  0  0  0  0  0  0
   -3.4785   15.2246  -12.4471 H   0  0  0  0  0  0  0  0  0  0  0  0
   -6.7526   12.3233   -6.9261 H   0  0  0  0  0  0  0  0  0  0  0  0
   -4.5246   13.2972   -6.4815 H   0  0  0  0  0  0  0  0  0  0  0  0
   -2.6730    9.7536   -8.0506 H   0  0  0  0  0  0  0  0  0  0  0  0
   -4.8993    8.7846   -8.4743 H   0  0  0  0  0  0  0  0  0  0  0  0
   -2.4278   14.2202   -6.2127 H   0  0  0  0  0  0  0  0  0  0  0  0
   -0.6614   10.5729   -7.5868 H   0  0  0  0  0  0  0  0  0  0  0  0
    1.4672   14.2904   -6.0634 H   0  0  0  0  0  0  0  0  0  0  0  0
    0.2117   15.4427   -6.6311 H   0  0  0  0  0  0  0  0  0  0  0  0
    0.1649   14.8218   -4.9462 H   0  0  0  0  0  0  0  0  0  0  0  0
  1  2  1  0  0  0  0
  1  4  1  0  0  0  0
  1 13  2  0  0  0  0
  2  6  1  0  0  0  0
  3  4  1  0  0  0  0
  3  5  2  0  0  0  0
  5  6  1  0  0  0  0
  5  9  1  0  0  0  0
  6  7  2  0  0  0  0
  7  8  1  0  0  0  0
  7 10  1  0  0  0  0
  8  9  2  0  0  0  0
 10 14  1  0  0  0  0
 11 12  1  0  0  0  0
 11 13  1  0  0  0  0
 11 26  2  0  0  0  0
 14 15  2  0  0  0  0
 14 19  1  0  0  0  0
 15 16  1  0  0  0  0
 16 17  2  0  0  0  0
 17 18  1  0  0  0  0
 17 20  1  0  0  0  0
 18 19  2  0  0  0  0
 20 21  2  0  0  0  0
 20 24  1  0  0  0  0
 21 22  1  0  0  0  0
 22 23  1  0  0  0  0
 22 25  1  0  0  0  0
 23 24  2  0  0  0  0
  2 27  1  0  0  0  0
  2 28  1  0  0  0  0
  3 29  1  0  0  0  0
  4 30  1  0  0  0  0
  4 31  1  0  0  0  0
 10 32  1  0  0  0  0
 10 33  1  0  0  0  0
 12 34  1  0  0  0  0
 12 35  1  0  0  0  0
 12 36  1  0  0  0  0
 15 37  1  0  0  0  0
 16 38  1  0  0  0  0
 18 39  1  0  0  0  0
 19 40  1  0  0  0  0
 21 41  1  0  0  0  0
 24 42  1  0  0  0  0
 25 43  1  0  0  0  0
 25 44  1  0  0  0  0
 25 45  1  0  0  0  0
M  END
> <Name>
24

> <IC50[uM]>
0.029

$$$$
24
  -OEChem-05192314333D
 Structure written by MMmdl.
 45 48  0     1  0  0  0  0  0999 V2000
   -6.3515   12.3530  -11.9813 C   0  0  0  0  0  0  0  0  0  0  0  0
   -6.5085   11.7912  -10.7247 C   0  0  0  0  0  0  0  0  0  0  0  0
   -7.6802   10.5716  -13.0438 C   0  0  0  0  0  0  0  0  0  0  0  0
   -6.9296   11.7657  -13.1245 C   0  0  0  0  0  0  0  0  0  0  0  0
   -7.7980   10.0044  -11.7669 C   0  0  0  0  0  0  0  0  0  0  0  0
   -7.2328   10.6109  -10.5989 C   0  0  3  0  0  0  0  0  0  0  0  0
   -7.6209    9.7375   -9.5162 C   0  0  0  0  0  0  0  0  0  0  0  0
   -8.2754    8.7446   -9.9970 N   0  0  0  0  0  0  0  0  0  0  0  0
   -8.4233    8.8800  -11.3218 N   0  0  0  0  0  0  0  0  0  0  0  0
   -7.3328    9.8812   -8.0296 C   0  0  0  0  0  0  0  0  0  0  0  0
   -5.3004   14.2773  -13.1499 C   0  0  0  0  0  0  0  0  0  0  0  0
   -4.4346   15.5261  -12.8998 C   0  0  0  0  0  0  0  0  0  0  0  0
   -5.5896   13.5586  -12.0343 N   0  0  0  0  0  0  0  0  0  0  0  0
   -5.9706   10.4906   -7.7317 C   0  0  0  0  0  0  0  0  0  0  0  0
   -5.8616   11.7632   -7.1684 C   0  0  0  0  0  0  0  0  0  0  0  0
   -4.6051   12.3126   -6.9180 C   0  0  0  0  0  0  0  0  0  0  0  0
   -3.4544   11.5948   -7.2294 C   0  0  0  0  0  0  0  0  0  0  0  0
   -3.5626   10.3128   -7.8011 C   0  0  0  0  0  0  0  0  0  0  0  0
   -4.8160    9.7710   -8.0425 C   0  0  0  0  0  0  0  0  0  0  0  0
   -2.1083   12.1736   -6.9694 C   0  0  0  0  0  0  0  0  0  0  0  0
   -1.7503   13.4247   -6.4858 C   0  0  0  0  0  0  0  0  0  0  0  0
   -0.4131   13.4674   -6.4189 N   0  0  0  0  0  0  0  0  0  0  0  0
    0.1758   12.3735   -6.8057 N   0  0  0  0  0  0  0  0  0  0  0  0
   -0.8094   11.5620   -7.1791 C   0  0  0  0  0  0  0  0  0  0  0  0
    0.4060   14.5705   -5.9896 C   0  0  0  0  0  0  0  0  0  0  0  0
   -5.6528   14.0066  -14.2746 O   0  0  0  0  0  0  0  0  0  0  0  0
   -5.5002   11.5939  -10.3317 H   0  0  0  0  0  0  0  0  0  0  0  0
   -7.0066   12.5435  -10.0954 H   0  0  0  0  0  0  0  0  0  0  0  0
   -8.1361   10.1224  -13.9137 H   0  0  0  0  0  0  0  0  0  0  0  0
   -6.7956   12.2399  -14.0855 H   0  0  0  0  0  0  0  0  0  0  0  0
   -6.3107   10.0281  -10.7406 H   0  0  0  0  0  0  0  0  0  0  0  0
   -8.6258    7.9778   -9.4591 H   0  0  0  0  0  0  0  0  0  0  0  0
   -8.0279    9.5798   -7.2599 H   0  0  0  0  0  0  0  0  0  0  0  0
   -4.2429   16.0373  -13.8548 H   0  0  0  0  0  0  0  0  0  0  0  0
   -4.9638   16.2086  -12.2185 H   0  0  0  0  0  0  0  0  0  0  0  0
   -3.4785   15.2246  -12.4471 H   0  0  0  0  0  0  0  0  0  0  0  0
   -6.7526   12.3233   -6.9261 H   0  0  0  0  0  0  0  0  0  0  0  0
   -4.5246   13.2972   -6.4815 H   0  0  0  0  0  0  0  0  0  0  0  0
   -2.6730    9.7536   -8.0506 H   0  0  0  0  0  0  0  0  0  0  0  0
   -4.8993    8.7846   -8.4743 H   0  0  0  0  0  0  0  0  0  0  0  0
   -2.4278   14.2202   -6.2127 H   0  0  0  0  0  0  0  0  0  0  0  0
   -0.6614   10.5729   -7.5868 H   0  0  0  0  0  0  0  0  0  0  0  0
    1.4672   14.2904   -6.0634 H   0  0  0  0  0  0  0  0  0  0  0  0
    0.2117   15.4427   -6.6311 H   0  0  0  0  0  0  0  0  0  0  0  0
    0.1649   14.8218   -4.9462 H   0  0  0  0  0  0  0  0  0  0  0  0
  1  2  1  0  0  0  0
  1  4  1  0  0  0  0
  1 13  2  0  0  0  0
  2  6  1  0  0  0  0
  3  4  2  0  0  0  0
  3  5  1  0  0  0  0
  5  6  1  0  0  0  0
  5  9  2  0  0  0  0
  6  7  1  0  0  0  0
  7  8  1  0  0  0  0
  7 10  2  3  0  0  0
  8  9  1  0  0  0  0
 10 14  1  0  0  0  0
 11 12  1  0  0  0  0
 11 13  1  0  0  0  0
 11 26  2  0  0  0  0
 14 15  2  0  0  0  0
 14 19  1  0  0  0  0
 15 16  1  0  0  0  0
 16 17  2  0  0  0  0
 17 18  1  0  0  0  0
 17 20  1  0  0  0  0
 18 19  2  0  0  0  0
 20 21  2  0  0  0  0
 20 24  1  0  0  0  0
 21 22  1  0  0  0  0
 22 23  1  0  0  0  0
 22 25  1  0  0  0  0
 23 24  2  0  0  0  0
  2 27  1  0  0  0  0
  2 28  1  0  0  0  0
  3 29  1  0  0  0  0
  4 30  1  0  0  0  0
  6 31  1  0  0  0  0
  8 32  1  0  0  0  0
 10 33  1  0  0  0  0
 12 34  1  0  0  0  0
 12 35  1  0  0  0  0
 12 36  1  0  0  0  0
 15 37  1  0  0  0  0
 16 38  1  0  0  0  0
 18 39  1  0  0  0  0
 19 40  1  0  0  0  0
 21 41  1  0  0  0  0
 24 42  1  0  0  0  0
 25 43  1  0  0  0  0
 25 44  1  0  0  0  0
 25 45  1  0  0  0  0
M  END
> <Name>
24

> <IC50[uM]>
0.029

$$$$
24
  -OEChem-05192314333D
 Structure written by MMmdl.
 45 48  0     1  0  0  0  0  0999 V2000
   -6.3515   12.3530  -11.9813 C   0  0  0  0  0  0  0  0  0  0  0  0
   -6.5085   11.7912  -10.7247 C   0  0  0  0  0  0  0  0  0  0  0  0
   -7.6802   10.5716  -13.0438 C   0  0  0  0  0  0  0  0  0  0  0  0
   -6.9296   11.7657  -13.1245 C   0  0  0  0  0  0  0  0  0  0  0  0
   -7.7980   10.0044  -11.7669 C   0  0  0  0  0  0  0  0  0  0  0  0
   -7.2328   10.6109  -10.5989 C   0  0  0  0  0  0  0  0  0  0  0  0
   -7.6209    9.7375   -9.5162 C   0  0  3  0  0  0  0  0  0  0  0  0
   -8.2754    8.7446   -9.9970 N   0  0  0  0  0  0  0  0  0  0  0  0
   -8.4233    8.8800  -11.3218 N   0  0  0  0  0  0  0  0  0  0  0  0
   -7.3328    9.8812   -8.0296 C   0  0  0  0  0  0  0  0  0  0  0  0
   -5.3004   14.2773  -13.1499 C   0  0  0  0  0  0  0  0  0  0  0  0
   -4.4346   15.5261  -12.8998 C   0  0  0  0  0  0  0  0  0  0  0  0
   -5.5896   13.5586  -12.0343 N   0  0  0  0  0  0  0  0  0  0  0  0
   -5.9706   10.4906   -7.7317 C   0  0  0  0  0  0  0  0  0  0  0  0
   -5.8616   11.7632   -7.1684 C   0  0  0  0  0  0  0  0  0  0  0  0
   -4.6051   12.3126   -6.9180 C   0  0  0  0  0  0  0  0  0  0  0  0
   -3.4544   11.5948   -7.2294 C   0  0  0  0  0  0  0  0  0  0  0  0
   -3.5626   10.3128   -7.8011 C   0  0  0  0  0  0  0  0  0  0  0  0
   -4.8160    9.7710   -8.0425 C   0  0  0  0  0  0  0  0  0  0  0  0
   -2.1083   12.1736   -6.9694 C   0  0  0  0  0  0  0  0  0  0  0  0
   -1.7503   13.4247   -6.4858 C   0  0  0  0  0  0  0  0  0  0  0  0
   -0.4131   13.4674   -6.4189 N   0  0  0  0  0  0  0  0  0  0  0  0
    0.1758   12.3735   -6.8057 N   0  0  0  0  0  0  0  0  0  0  0  0
   -0.8094   11.5620   -7.1791 C   0  0  0  0  0  0  0  0  0  0  0  0
    0.4060   14.5705   -5.9896 C   0  0  0  0  0  0  0  0  0  0  0  0
   -5.6528   14.0066  -14.2746 O   0  0  0  0  0  0  0  0  0  0  0  0
   -6.0747   12.2631   -9.8555 H   0  0  0  0  0  0  0  0  0  0  0  0
   -8.1361   10.1224  -13.9137 H   0  0  0  0  0  0  0  0  0  0  0  0
   -6.7956   12.2399  -14.0855 H   0  0  0  0  0  0  0  0  0  0  0  0
   -8.5577   10.3007   -9.3927 H   0  0  0  0  0  0  0  0  0  0  0  0
   -7.7779    7.8985   -9.8058 H   0  0  0  0  0  0  0  0  0  0  0  0
   -8.1067   10.5245   -7.5855 H   0  0  0  0  0  0  0  0  0  0  0  0
   -7.3763    8.8835   -7.5684 H   0  0  0  0  0  0  0  0  0  0  0  0
   -4.2429   16.0373  -13.8548 H   0  0  0  0  0  0  0  0  0  0  0  0
   -4.9638   16.2086  -12.2185 H   0  0  0  0  0  0  0  0  0  0  0  0
   -3.4785   15.2246  -12.4471 H   0  0  0  0  0  0  0  0  0  0  0  0
   -6.7526   12.3233   -6.9261 H   0  0  0  0  0  0  0  0  0  0  0  0
   -4.5246   13.2972   -6.4815 H   0  0  0  0  0  0  0  0  0  0  0  0
   -2.6730    9.7536   -8.0506 H   0  0  0  0  0  0  0  0  0  0  0  0
   -4.8993    8.7846   -8.4743 H   0  0  0  0  0  0  0  0  0  0  0  0
   -2.4278   14.2202   -6.2127 H   0  0  0  0  0  0  0  0  0  0  0  0
   -0.6614   10.5729   -7.5868 H   0  0  0  0  0  0  0  0  0  0  0  0
    1.4672   14.2904   -6.0634 H   0  0  0  0  0  0  0  0  0  0  0  0
    0.2117   15.4427   -6.6311 H   0  0  0  0  0  0  0  0  0  0  0  0
    0.1649   14.8218   -4.9462 H   0  0  0  0  0  0  0  0  0  0  0  0
  1  2  1  0  0  0  0
  1  4  1  0  0  0  0
  1 13  2  0  0  0  0
  2  6  2  0  0  0  0
  3  4  2  0  0  0  0
  3  5  1  0  0  0  0
  5  6  1  0  0  0  0
  5  9  2  0  0  0  0
  6  7  1  0  0  0  0
  7  8  1  0  0  0  0
  7 10  1  0  0  0  0
  8  9  1  0  0  0  0
 10 14  1  0  0  0  0
 11 12  1  0  0  0  0
 11 13  1  0  0  0  0
 11 26  2  0  0  0  0
 14 15  2  0  0  0  0
 14 19  1  0  0  0  0
 15 16  1  0  0  0  0
 16 17  2  0  0  0  0
 17 18  1  0  0  0  0
 17 20  1  0  0  0  0
 18 19  2  0  0  0  0
 20 21  2  0  0  0  0
 20 24  1  0  0  0  0
 21 22  1  0  0  0  0
 22 23  1  0  0  0  0
 22 25  1  0  0  0  0
 23 24  2  0  0  0  0
  2 27  1  0  0  0  0
  3 28  1  0  0  0  0
  4 29  1  0  0  0  0
  7 30  1  0  0  0  0
  8 31  1  0  0  0  0
 10 32  1  0  0  0  0
 10 33  1  0  0  0  0
 12 34  1  0  0  0  0
 12 35  1  0  0  0  0
 12 36  1  0  0  0  0
 15 37  1  0  0  0  0
 16 38  1  0  0  0  0
 18 39  1  0  0  0  0
 19 40  1  0  0  0  0
 21 41  1  0  0  0  0
 24 42  1  0  0  0  0
 25 43  1  0  0  0  0
 25 44  1  0  0  0  0
 25 45  1  0  0  0  0
M  END
> <Name>
24

> <IC50[uM]>
0.029

$$$$
24
  -OEChem-05192314333D
 Structure written by MMmdl.
 45 48  0     1  0  0  0  0  0999 V2000
   -6.3515   12.3530  -11.9813 C   0  0  0  0  0  0  0  0  0  0  0  0
   -6.5085   11.7912  -10.7247 C   0  0  0  0  0  0  0  0  0  0  0  0
   -7.6802   10.5716  -13.0438 C   0  0  0  0  0  0  0  0  0  0  0  0
   -6.9296   11.7657  -13.1245 C   0  0  0  0  0  0  0  0  0  0  0  0
   -7.7980   10.0044  -11.7669 C   0  0  3  0  0  0  0  0  0  0  0  0
   -7.2328   10.6109  -10.5989 C   0  0  0  0  0  0  0  0  0  0  0  0
   -7.6209    9.7375   -9.5162 C   0  0  0  0  0  0  0  0  0  0  0  0
   -8.2754    8.7446   -9.9970 N   0  0  0  0  0  0  0  0  0  0  0  0
   -8.4233    8.8800  -11.3218 N   0  0  0  0  0  0  0  0  0  0  0  0
   -7.3328    9.8812   -8.0296 C   0  0  0  0  0  0  0  0  0  0  0  0
   -5.3004   14.2773  -13.1499 C   0  0  0  0  0  0  0  0  0  0  0  0
   -4.4346   15.5261  -12.8998 C   0  0  0  0  0  0  0  0  0  0  0  0
   -5.5896   13.5586  -12.0343 N   0  0  0  0  0  0  0  0  0  0  0  0
   -5.9706   10.4906   -7.7317 C   0  0  0  0  0  0  0  0  0  0  0  0
   -5.8616   11.7632   -7.1684 C   0  0  0  0  0  0  0  0  0  0  0  0
   -4.6051   12.3126   -6.9180 C   0  0  0  0  0  0  0  0  0  0  0  0
   -3.4544   11.5948   -7.2294 C   0  0  0  0  0  0  0  0  0  0  0  0
   -3.5626   10.3128   -7.8011 C   0  0  0  0  0  0  0  0  0  0  0  0
   -4.8160    9.7710   -8.0425 C   0  0  0  0  0  0  0  0  0  0  0  0
   -2.1083   12.1736   -6.9694 C   0  0  0  0  0  0  0  0  0  0  0  0
   -1.7503   13.4247   -6.4858 C   0  0  0  0  0  0  0  0  0  0  0  0
   -0.4131   13.4674   -6.4189 N   0  0  0  0  0  0  0  0  0  0  0  0
    0.1758   12.3735   -6.8057 N   0  0  0  0  0  0  0  0  0  0  0  0
   -0.8094   11.5620   -7.1791 C   0  0  0  0  0  0  0  0  0  0  0  0
    0.4060   14.5705   -5.9896 C   0  0  0  0  0  0  0  0  0  0  0  0
   -5.6528   14.0066  -14.2746 O   0  0  0  0  0  0  0  0  0  0  0  0
   -6.0747   12.2631   -9.8555 H   0  0  0  0  0  0  0  0  0  0  0  0
   -8.1361   10.1224  -13.9137 H   0  0  0  0  0  0  0  0  0  0  0  0
   -6.7956   12.2399  -14.0855 H   0  0  0  0  0  0  0  0  0  0  0  0
   -6.8712    9.4340  -11.9273 H   0  0  0  0  0  0  0  0  0  0  0  0
   -9.3978    8.9396  -11.5383 H   0  0  0  0  0  0  0  0  0  0  0  0
   -8.1067   10.5245   -7.5855 H   0  0  0  0  0  0  0  0  0  0  0  0
   -7.3763    8.8835   -7.5684 H   0  0  0  0  0  0  0  0  0  0  0  0
   -4.2429   16.0373  -13.8548 H   0  0  0  0  0  0  0  0  0  0  0  0
   -4.9638   16.2086  -12.2185 H   0  0  0  0  0  0  0  0  0  0  0  0
   -3.4785   15.2246  -12.4471 H   0  0  0  0  0  0  0  0  0  0  0  0
   -6.7526   12.3233   -6.9261 H   0  0  0  0  0  0  0  0  0  0  0  0
   -4.5246   13.2972   -6.4815 H   0  0  0  0  0  0  0  0  0  0  0  0
   -2.6730    9.7536   -8.0506 H   0  0  0  0  0  0  0  0  0  0  0  0
   -4.8993    8.7846   -8.4743 H   0  0  0  0  0  0  0  0  0  0  0  0
   -2.4278   14.2202   -6.2127 H   0  0  0  0  0  0  0  0  0  0  0  0
   -0.6614   10.5729   -7.5868 H   0  0  0  0  0  0  0  0  0  0  0  0
    1.4672   14.2904   -6.0634 H   0  0  0  0  0  0  0  0  0  0  0  0
    0.2117   15.4427   -6.6311 H   0  0  0  0  0  0  0  0  0  0  0  0
    0.1649   14.8218   -4.9462 H   0  0  0  0  0  0  0  0  0  0  0  0
  1  2  1  0  0  0  0
  1  4  1  0  0  0  0
  1 13  2  0  0  0  0
  2  6  2  0  0  0  0
  3  4  2  0  0  0  0
  3  5  1  0  0  0  0
  5  6  1  0  0  0  0
  5  9  1  0  0  0  0
  6  7  1  0  0  0  0
  7  8  2  0  0  0  0
  7 10  1  0  0  0  0
  8  9  1  0  0  0  0
 10 14  1  0  0  0  0
 11 12  1  0  0  0  0
 11 13  1  0  0  0  0
 11 26  2  0  0  0  0
 14 15  2  0  0  0  0
 14 19  1  0  0  0  0
 15 16  1  0  0  0  0
 16 17  2  0  0  0  0
 17 18  1  0  0  0  0
 17 20  1  0  0  0  0
 18 19  2  0  0  0  0
 20 21  2  0  0  0  0
 20 24  1  0  0  0  0
 21 22  1  0  0  0  0
 22 23  1  0  0  0  0
 22 25  1  0  0  0  0
 23 24  2  0  0  0  0
  2 27  1  0  0  0  0
  3 28  1  0  0  0  0
  4 29  1  0  0  0  0
  5 30  1  0  0  0  0
  9 31  1  0  0  0  0
 10 32  1  0  0  0  0
 10 33  1  0  0  0  0
 12 34  1  0  0  0  0
 12 35  1  0  0  0  0
 12 36  1  0  0  0  0
 15 37  1  0  0  0  0
 16 38  1  0  0  0  0
 18 39  1  0  0  0  0
 19 40  1  0  0  0  0
 21 41  1  0  0  0  0
 24 42  1  0  0  0  0
 25 43  1  0  0  0  0
 25 44  1  0  0  0  0
 25 45  1  0  0  0  0
M  END
> <Name>
24

> <IC50[uM]>
0.029

$$$$
24
  -OEChem-05192314333D
 Structure written by MMmdl.
 45 48  0     1  0  0  0  0  0999 V2000
   -6.3515   12.3530  -11.9813 C   0  0  0  0  0  0  0  0  0  0  0  0
   -6.5085   11.7912  -10.7247 C   0  0  0  0  0  0  0  0  0  0  0  0
   -7.6802   10.5716  -13.0438 C   0  0  0  0  0  0  0  0  0  0  0  0
   -6.9296   11.7657  -13.1245 C   0  0  0  0  0  0  0  0  0  0  0  0
   -7.7980   10.0044  -11.7669 C   0  0  0  0  0  0  0  0  0  0  0  0
   -7.2328   10.6109  -10.5989 C   0  0  3  0  0  0  0  0  0  0  0  0
   -7.6209    9.7375   -9.5162 C   0  0  0  0  0  0  0  0  0  0  0  0
   -8.2754    8.7446   -9.9970 N   0  0  0  0  0  0  0  0  0  0  0  0
   -8.4233    8.8800  -11.3218 N   0  0  0  0  0  0  0  0  0  0  0  0
   -7.3328    9.8812   -8.0296 C   0  0  0  0  0  0  0  0  0  0  0  0
   -5.3004   14.2773  -13.1499 C   0  0  0  0  0  0  0  0  0  0  0  0
   -4.4346   15.5261  -12.8998 C   0  0  0  0  0  0  0  0  0  0  0  0
   -5.5896   13.5586  -12.0343 N   0  0  0  0  0  0  0  0  0  0  0  0
   -5.9706   10.4906   -7.7317 C   0  0  0  0  0  0  0  0  0  0  0  0
   -5.8616   11.7632   -7.1684 C   0  0  0  0  0  0  0  0  0  0  0  0
   -4.6051   12.3126   -6.9180 C   0  0  0  0  0  0  0  0  0  0  0  0
   -3.4544   11.5948   -7.2294 C   0  0  0  0  0  0  0  0  0  0  0  0
   -3.5626   10.3128   -7.8011 C   0  0  0  0  0  0  0  0  0  0  0  0
   -4.8160    9.7710   -8.0425 C   0  0  0  0  0  0  0  0  0  0  0  0
   -2.1083   12.1736   -6.9694 C   0  0  0  0  0  0  0  0  0  0  0  0
   -1.7503   13.4247   -6.4858 C   0  0  0  0  0  0  0  0  0  0  0  0
   -0.4131   13.4674   -6.4189 N   0  0  0  0  0  0  0  0  0  0  0  0
    0.1758   12.3735   -6.8057 N   0  0  0  0  0  0  0  0  0  0  0  0
   -0.8094   11.5620   -7.1791 C   0  0  0  0  0  0  0  0  0  0  0  0
    0.4060   14.5705   -5.9896 C   0  0  0  0  0  0  0  0  0  0  0  0
   -5.6528   14.0066  -14.2746 O   0  0  0  0  0  0  0  0  0  0  0  0
   -6.0747   12.2631   -9.8555 H   0  0  0  0  0  0  0  0  0  0  0  0
   -8.1361   10.1224  -13.9137 H   0  0  0  0  0  0  0  0  0  0  0  0
   -6.7956   12.2399  -14.0855 H   0  0  0  0  0  0  0  0  0  0  0  0
   -6.3107   10.0281  -10.7406 H   0  0  0  0  0  0  0  0  0  0  0  0
   -8.1067   10.5245   -7.5855 H   0  0  0  0  0  0  0  0  0  0  0  0
   -7.3763    8.8835   -7.5684 H   0  0  0  0  0  0  0  0  0  0  0  0
   -4.2517   16.0431  -13.8534 H   0  0  0  0  0  0  0  0  0  0  0  0
   -4.9593   16.2038  -12.2102 H   0  0  0  0  0  0  0  0  0  0  0  0
   -3.4743   15.2236  -12.4567 H   0  0  0  0  0  0  0  0  0  0  0  0
   -6.7526   12.3233   -6.9261 H   0  0  0  0  0  0  0  0  0  0  0  0
   -4.5246   13.2972   -6.4815 H   0  0  0  0  0  0  0  0  0  0  0  0
   -2.6730    9.7536   -8.0506 H   0  0  0  0  0  0  0  0  0  0  0  0
   -4.8993    8.7846   -8.4743 H   0  0  0  0  0  0  0  0  0  0  0  0
   -2.4278   14.2202   -6.2127 H   0  0  0  0  0  0  0  0  0  0  0  0
   -0.6614   10.5729   -7.5868 H   0  0  0  0  0  0  0  0  0  0  0  0
    1.4672   14.2904   -6.0634 H   0  0  0  0  0  0  0  0  0  0  0  0
    0.2117   15.4427   -6.6311 H   0  0  0  0  0  0  0  0  0  0  0  0
    0.1649   14.8218   -4.9462 H   0  0  0  0  0  0  0  0  0  0  0  0
   -6.1759   13.2137  -14.2608 H   0  0  0  0  0  0  0  0  0  0  0  0
  1  2  2  0  0  0  0
  1  4  1  0  0  0  0
  1 13  1  0  0  0  0
  2  6  1  0  0  0  0
  3  4  2  0  0  0  0
  3  5  1  0  0  0  0
  5  6  1  0  0  0  0
  5  9  2  0  0  0  0
  6  7  1  0  0  0  0
  7  8  2  0  0  0  0
  7 10  1  0  0  0  0
  8  9  1  0  0  0  0
 10 14  1  0  0  0  0
 11 12  1  0  0  0  0
 11 13  2  0  0  0  0
 11 26  1  0  0  0  0
 14 15  2  0  0  0  0
 14 19  1  0  0  0  0
 15 16  1  0  0  0  0
 16 17  2  0  0  0  0
 17 18  1  0  0  0  0
 17 20  1  0  0  0  0
 18 19  2  0  0  0  0
 20 21  2  0  0  0  0
 20 24  1  0  0  0  0
 21 22  1  0  0  0  0
 22 23  1  0  0  0  0
 22 25  1  0  0  0  0
 23 24  2  0  0  0  0
  2 27  1  0  0  0  0
  3 28  1  0  0  0  0
  4 29  1  0  0  0  0
  6 30  1  0  0  0  0
 10 31  1  0  0  0  0
 10 32  1  0  0  0  0
 12 33  1  0  0  0  0
 12 34  1  0  0  0  0
 12 35  1  0  0  0  0
 15 36  1  0  0  0  0
 16 37  1  0  0  0  0
 18 38  1  0  0  0  0
 19 39  1  0  0  0  0
 21 40  1  0  0  0  0
 24 41  1  0  0  0  0
 25 42  1  0  0  0  0
 25 43  1  0  0  0  0
 25 44  1  0  0  0  0
 26 45  1  0  0  0  0
M  END
> <Name>
24

> <IC50[uM]>
0.029

$$$$
24
  -OEChem-05192314333D
 Structure written by MMmdl.
 45 48  0     1  0  0  0  0  0999 V2000
   -6.3515   12.3530  -11.9813 C   0  0  3  0  0  0  0  0  0  0  0  0
   -6.5085   11.7912  -10.7247 C   0  0  0  0  0  0  0  0  0  0  0  0
   -7.6802   10.5716  -13.0438 C   0  0  0  0  0  0  0  0  0  0  0  0
   -6.9296   11.7657  -13.1245 C   0  0  0  0  0  0  0  0  0  0  0  0
   -7.7980   10.0044  -11.7669 C   0  0  0  0  0  0  0  0  0  0  0  0
   -7.2328   10.6109  -10.5989 C   0  0  0  0  0  0  0  0  0  0  0  0
   -7.6209    9.7375   -9.5162 C   0  0  0  0  0  0  0  0  0  0  0  0
   -8.2754    8.7446   -9.9970 N   0  0  0  0  0  0  0  0  0  0  0  0
   -8.4233    8.8800  -11.3218 N   0  0  0  0  0  0  0  0  0  0  0  0
   -7.3328    9.8812   -8.0296 C   0  0  0  0  0  0  0  0  0  0  0  0
   -5.3004   14.2773  -13.1499 C   0  0  0  0  0  0  0  0  0  0  0  0
   -4.4346   15.5261  -12.8998 C   0  0  0  0  0  0  0  0  0  0  0  0
   -5.5896   13.5586  -12.0343 N   0  0  0  0  0  0  0  0  0  0  0  0
   -5.9706   10.4906   -7.7317 C   0  0  0  0  0  0  0  0  0  0  0  0
   -5.8616   11.7632   -7.1684 C   0  0  0  0  0  0  0  0  0  0  0  0
   -4.6051   12.3126   -6.9180 C   0  0  0  0  0  0  0  0  0  0  0  0
   -3.4544   11.5948   -7.2294 C   0  0  0  0  0  0  0  0  0  0  0  0
   -3.5626   10.3128   -7.8011 C   0  0  0  0  0  0  0  0  0  0  0  0
   -4.8160    9.7710   -8.0425 C   0  0  0  0  0  0  0  0  0  0  0  0
   -2.1083   12.1736   -6.9694 C   0  0  0  0  0  0  0  0  0  0  0  0
   -1.7503   13.4247   -6.4858 C   0  0  0  0  0  0  0  0  0  0  0  0
   -0.4131   13.4674   -6.4189 N   0  0  0  0  0  0  0  0  0  0  0  0
    0.1758   12.3735   -6.8057 N   0  0  0  0  0  0  0  0  0  0  0  0
   -0.8094   11.5620   -7.1791 C   0  0  0  0  0  0  0  0  0  0  0  0
    0.4060   14.5705   -5.9896 C   0  0  0  0  0  0  0  0  0  0  0  0
   -5.6528   14.0066  -14.2746 O   0  0  0  0  0  0  0  0  0  0  0  0
   -5.4362   11.7628  -12.1356 H   0  0  0  0  0  0  0  0  0  0  0  0
   -6.0747   12.2631   -9.8555 H   0  0  0  0  0  0  0  0  0  0  0  0
   -8.1361   10.1224  -13.9137 H   0  0  0  0  0  0  0  0  0  0  0  0
   -6.7956   12.2399  -14.0855 H   0  0  0  0  0  0  0  0  0  0  0  0
   -8.1067   10.5245   -7.5855 H   0  0  0  0  0  0  0  0  0  0  0  0
   -7.3763    8.8835   -7.5684 H   0  0  0  0  0  0  0  0  0  0  0  0
   -4.2517   16.0431  -13.8534 H   0  0  0  0  0  0  0  0  0  0  0  0
   -4.9593   16.2038  -12.2102 H   0  0  0  0  0  0  0  0  0  0  0  0
   -3.4743   15.2236  -12.4567 H   0  0  0  0  0  0  0  0  0  0  0  0
   -6.7526   12.3233   -6.9261 H   0  0  0  0  0  0  0  0  0  0  0  0
   -4.5246   13.2972   -6.4815 H   0  0  0  0  0  0  0  0  0  0  0  0
   -2.6730    9.7536   -8.0506 H   0  0  0  0  0  0  0  0  0  0  0  0
   -4.8993    8.7846   -8.4743 H   0  0  0  0  0  0  0  0  0  0  0  0
   -2.4278   14.2202   -6.2127 H   0  0  0  0  0  0  0  0  0  0  0  0
   -0.6614   10.5729   -7.5868 H   0  0  0  0  0  0  0  0  0  0  0  0
    1.4672   14.2904   -6.0634 H   0  0  0  0  0  0  0  0  0  0  0  0
    0.2117   15.4427   -6.6311 H   0  0  0  0  0  0  0  0  0  0  0  0
    0.1649   14.8218   -4.9462 H   0  0  0  0  0  0  0  0  0  0  0  0
   -6.1759   13.2137  -14.2608 H   0  0  0  0  0  0  0  0  0  0  0  0
  1  2  1  0  0  0  0
  1  4  1  0  0  0  0
  1 13  1  0  0  0  0
  2  6  2  0  0  0  0
  3  4  2  0  0  0  0
  3  5  1  0  0  0  0
  5  6  1  0  0  0  0
  5  9  2  0  0  0  0
  6  7  1  0  0  0  0
  7  8  2  0  0  0  0
  7 10  1  0  0  0  0
  8  9  1  0  0  0  0
 10 14  1  0  0  0  0
 11 12  1  0  0  0  0
 11 13  2  0  0  0  0
 11 26  1  0  0  0  0
 14 15  2  0  0  0  0
 14 19  1  0  0  0  0
 15 16  1  0  0  0  0
 16 17  2  0  0  0  0
 17 18  1  0  0  0  0
 17 20  1  0  0  0  0
 18 19  2  0  0  0  0
 20 21  2  0  0  0  0
 20 24  1  0  0  0  0
 21 22  1  0  0  0  0
 22 23  1  0  0  0  0
 22 25  1  0  0  0  0
 23 24  2  0  0  0  0
  1 27  1  0  0  0  0
  2 28  1  0  0  0  0
  3 29  1  0  0  0  0
  4 30  1  0  0  0  0
 10 31  1  0  0  0  0
 10 32  1  0  0  0  0
 12 33  1  0  0  0  0
 12 34  1  0  0  0  0
 12 35  1  0  0  0  0
 15 36  1  0  0  0  0
 16 37  1  0  0  0  0
 18 38  1  0  0  0  0
 19 39  1  0  0  0  0
 21 40  1  0  0  0  0
 24 41  1  0  0  0  0
 25 42  1  0  0  0  0
 25 43  1  0  0  0  0
 25 44  1  0  0  0  0
 26 45  1  0  0  0  0
M  END
> <Name>
24

> <IC50[uM]>
0.029

$$$$
24
  -OEChem-05192314333D
 Structure written by MMmdl.
 45 48  0     0  0  0  0  0  0999 V2000
   -6.3515   12.3530  -11.9813 C   0  0  0  0  0  0  0  0  0  0  0  0
   -6.5085   11.7912  -10.7247 C   0  0  0  0  0  0  0  0  0  0  0  0
   -7.6802   10.5716  -13.0438 C   0  0  0  0  0  0  0  0  0  0  0  0
   -6.9296   11.7657  -13.1245 C   0  0  0  0  0  0  0  0  0  0  0  0
   -7.7980   10.0044  -11.7669 C   0  0  0  0  0  0  0  0  0  0  0  0
   -7.2328   10.6109  -10.5989 C   0  0  0  0  0  0  0  0  0  0  0  0
   -7.6209    9.7375   -9.5162 C   0  0  0  0  0  0  0  0  0  0  0  0
   -8.2754    8.7446   -9.9970 N   0  0  0  0  0  0  0  0  0  0  0  0
   -8.4233    8.8800  -11.3218 N   0  0  0  0  0  0  0  0  0  0  0  0
   -7.3328    9.8812   -8.0296 C   0  0  0  0  0  0  0  0  0  0  0  0
   -5.3004   14.2773  -13.1499 C   0  0  0  0  0  0  0  0  0  0  0  0
   -4.4346   15.5261  -12.8998 C   0  0  0  0  0  0  0  0  0  0  0  0
   -5.5896   13.5586  -12.0343 N   0  0  0  0  0  0  0  0  0  0  0  0
   -5.9706   10.4906   -7.7317 C   0  0  0  0  0  0  0  0  0  0  0  0
   -5.8616   11.7632   -7.1684 C   0  0  0  0  0  0  0  0  0  0  0  0
   -4.6051   12.3126   -6.9180 C   0  0  0  0  0  0  0  0  0  0  0  0
   -3.4544   11.5948   -7.2294 C   0  0  0  0  0  0  0  0  0  0  0  0
   -3.5626   10.3128   -7.8011 C   0  0  0  0  0  0  0  0  0  0  0  0
   -4.8160    9.7710   -8.0425 C   0  0  0  0  0  0  0  0  0  0  0  0
   -2.1083   12.1736   -6.9694 C   0  0  0  0  0  0  0  0  0  0  0  0
   -1.7503   13.4247   -6.4858 C   0  0  0  0  0  0  0  0  0  0  0  0
   -0.4131   13.4674   -6.4189 N   0  0  0  0  0  0  0  0  0  0  0  0
    0.1758   12.3735   -6.8057 N   0  0  0  0  0  0  0  0  0  0  0  0
   -0.8094   11.5620   -7.1791 C   0  0  0  0  0  0  0  0  0  0  0  0
    0.4060   14.5705   -5.9896 C   0  0  0  0  0  0  0  0  0  0  0  0
   -5.6528   14.0066  -14.2746 O   0  0  0  0  0  0  0  0  0  0  0  0
   -6.0747   12.2631   -9.8555 H   0  0  0  0  0  0  0  0  0  0  0  0
   -8.6945   10.7862  -13.4115 H   0  0  0  0  0  0  0  0  0  0  0  0
   -7.2021    9.8287  -13.6992 H   0  0  0  0  0  0  0  0  0  0  0  0
   -6.7956   12.2399  -14.0855 H   0  0  0  0  0  0  0  0  0  0  0  0
   -8.1067   10.5245   -7.5855 H   0  0  0  0  0  0  0  0  0  0  0  0
   -7.3763    8.8835   -7.5684 H   0  0  0  0  0  0  0  0  0  0  0  0
   -4.2517   16.0431  -13.8534 H   0  0  0  0  0  0  0  0  0  0  0  0
   -4.9593   16.2038  -12.2102 H   0  0  0  0  0  0  0  0  0  0  0  0
   -3.4743   15.2236  -12.4567 H   0  0  0  0  0  0  0  0  0  0  0  0
   -6.7526   12.3233   -6.9261 H   0  0  0  0  0  0  0  0  0  0  0  0
   -4.5246   13.2972   -6.4815 H   0  0  0  0  0  0  0  0  0  0  0  0
   -2.6730    9.7536   -8.0506 H   0  0  0  0  0  0  0  0  0  0  0  0
   -4.8993    8.7846   -8.4743 H   0  0  0  0  0  0  0  0  0  0  0  0
   -2.4278   14.2202   -6.2127 H   0  0  0  0  0  0  0  0  0  0  0  0
   -0.6614   10.5729   -7.5868 H   0  0  0  0  0  0  0  0  0  0  0  0
    1.4672   14.2904   -6.0634 H   0  0  0  0  0  0  0  0  0  0  0  0
    0.2117   15.4427   -6.6311 H   0  0  0  0  0  0  0  0  0  0  0  0
    0.1649   14.8218   -4.9462 H   0  0  0  0  0  0  0  0  0  0  0  0
   -6.1759   13.2137  -14.2608 H   0  0  0  0  0  0  0  0  0  0  0  0
  1  2  1  0  0  0  0
  1  4  2  0  0  0  0
  1 13  1  0  0  0  0
  2  6  2  0  0  0  0
  3  4  1  0  0  0  0
  3  5  1  0  0  0  0
  5  6  1  0  0  0  0
  5  9  2  0  0  0  0
  6  7  1  0  0  0  0
  7  8  2  0  0  0  0
  7 10  1  0  0  0  0
  8  9  1  0  0  0  0
 10 14  1  0  0  0  0
 11 12  1  0  0  0  0
 11 13  2  0  0  0  0
 11 26  1  0  0  0  0
 14 15  2  0  0  0  0
 14 19  1  0  0  0  0
 15 16  1  0  0  0  0
 16 17  2  0  0  0  0
 17 18  1  0  0  0  0
 17 20  1  0  0  0  0
 18 19  2  0  0  0  0
 20 21  2  0  0  0  0
 20 24  1  0  0  0  0
 21 22  1  0  0  0  0
 22 23  1  0  0  0  0
 22 25  1  0  0  0  0
 23 24  2  0  0  0  0
  2 27  1  0  0  0  0
  3 28  1  0  0  0  0
  3 29  1  0  0  0  0
  4 30  1  0  0  0  0
 10 31  1  0  0  0  0
 10 32  1  0  0  0  0
 12 33  1  0  0  0  0
 12 34  1  0  0  0  0
 12 35  1  0  0  0  0
 15 36  1  0  0  0  0
 16 37  1  0  0  0  0
 18 38  1  0  0  0  0
 19 39  1  0  0  0  0
 21 40  1  0  0  0  0
 24 41  1  0  0  0  0
 25 42  1  0  0  0  0
 25 43  1  0  0  0  0
 25 44  1  0  0  0  0
 26 45  1  0  0  0  0
M  END
> <Name>
24

> <IC50[uM]>
0.029

$$$$
24
  -OEChem-05192314333D
 Structure written by MMmdl.
 45 48  0     0  0  0  0  0  0999 V2000
   -6.3515   12.3530  -11.9813 C   0  0  0  0  0  0  0  0  0  0  0  0
   -6.5085   11.7912  -10.7247 C   0  0  0  0  0  0  0  0  0  0  0  0
   -7.6802   10.5716  -13.0438 C   0  0  0  0  0  0  0  0  0  0  0  0
   -6.9296   11.7657  -13.1245 C   0  0  0  0  0  0  0  0  0  0  0  0
   -7.7980   10.0044  -11.7669 C   0  0  0  0  0  0  0  0  0  0  0  0
   -7.2328   10.6109  -10.5989 C   0  0  0  0  0  0  0  0  0  0  0  0
   -7.6209    9.7375   -9.5162 C   0  0  0  0  0  0  0  0  0  0  0  0
   -8.2754    8.7446   -9.9970 N   0  0  0  0  0  0  0  0  0  0  0  0
   -8.4233    8.8800  -11.3218 N   0  0  0  0  0  0  0  0  0  0  0  0
   -7.3328    9.8812   -8.0296 C   0  0  0  0  0  0  0  0  0  0  0  0
   -5.3004   14.2773  -13.1499 C   0  0  0  0  0  0  0  0  0  0  0  0
   -4.4346   15.5261  -12.8998 C   0  0  0  0  0  0  0  0  0  0  0  0
   -5.5896   13.5586  -12.0343 N   0  0  0  0  0  0  0  0  0  0  0  0
   -5.9706   10.4906   -7.7317 C   0  0  0  0  0  0  0  0  0  0  0  0
   -5.8616   11.7632   -7.1684 C   0  0  0  0  0  0  0  0  0  0  0  0
   -4.6051   12.3126   -6.9180 C   0  0  0  0  0  0  0  0  0  0  0  0
   -3.4544   11.5948   -7.2294 C   0  0  0  0  0  0  0  0  0  0  0  0
   -3.5626   10.3128   -7.8011 C   0  0  0  0  0  0  0  0  0  0  0  0
   -4.8160    9.7710   -8.0425 C   0  0  0  0  0  0  0  0  0  0  0  0
   -2.1083   12.1736   -6.9694 C   0  0  0  0  0  0  0  0  0  0  0  0
   -1.7503   13.4247   -6.4858 C   0  0  0  0  0  0  0  0  0  0  0  0
   -0.4131   13.4674   -6.4189 N   0  0  0  0  0  0  0  0  0  0  0  0
    0.1758   12.3735   -6.8057 N   0  0  0  0  0  0  0  0  0  0  0  0
   -0.8094   11.5620   -7.1791 C   0  0  0  0  0  0  0  0  0  0  0  0
    0.4060   14.5705   -5.9896 C   0  0  0  0  0  0  0  0  0  0  0  0
   -5.6528   14.0066  -14.2746 O   0  0  0  0  0  0  0  0  0  0  0  0
   -6.0747   12.2631   -9.8555 H   0  0  0  0  0  0  0  0  0  0  0  0
   -8.1361   10.1224  -13.9137 H   0  0  0  0  0  0  0  0  0  0  0  0
   -6.7956   12.2399  -14.0855 H   0  0  0  0  0  0  0  0  0  0  0  0
   -8.0279    9.5798   -7.2599 H   0  0  0  0  0  0  0  0  0  0  0  0
   -4.2429   16.0373  -13.8548 H   0  0  0  0  0  0  0  0  0  0  0  0
   -4.9638   16.2086  -12.2185 H   0  0  0  0  0  0  0  0  0  0  0  0
   -3.4785   15.2246  -12.4471 H   0  0  0  0  0  0  0  0  0  0  0  0
   -5.2347   13.9076  -11.1670 H   0  0  0  0  0  0  0  0  0  0  0  0
   -5.9851   10.0423   -6.7273 H   0  0  0  0  0  0  0  0  0  0  0  0
   -6.7526   12.3233   -6.9261 H   0  0  0  0  0  0  0  0  0  0  0  0
   -4.5246   13.2972   -6.4815 H   0  0  0  0  0  0  0  0  0  0  0  0
   -3.4585   11.1486   -6.2240 H   0  0  0  0  0  0  0  0  0  0  0  0
   -2.6730    9.7536   -8.0506 H   0  0  0  0  0  0  0  0  0  0  0  0
   -4.8993    8.7846   -8.4743 H   0  0  0  0  0  0  0  0  0  0  0  0
   -2.4278   14.2202   -6.2127 H   0  0  0  0  0  0  0  0  0  0  0  0
   -0.6614   10.5729   -7.5868 H   0  0  0  0  0  0  0  0  0  0  0  0
    1.4672   14.2904   -6.0634 H   0  0  0  0  0  0  0  0  0  0  0  0
    0.2117   15.4427   -6.6311 H   0  0  0  0  0  0  0  0  0  0  0  0
    0.1649   14.8218   -4.9462 H   0  0  0  0  0  0  0  0  0  0  0  0
  1  2  2  0  0  0  0
  1  4  1  0  0  0  0
  1 13  1  0  0  0  0
  2  6  1  0  0  0  0
  3  4  2  0  0  0  0
  3  5  1  0  0  0  0
  5  6  2  0  0  0  0
  5  9  1  0  0  0  0
  6  7  1  0  0  0  0
  7  8  1  0  0  0  0
  7 10  2  3  0  0  0
  8  9  2  0  0  0  0
 10 14  1  0  0  0  0
 11 12  1  0  0  0  0
 11 13  1  0  0  0  0
 11 26  2  0  0  0  0
 14 15  1  0  0  0  0
 14 19  1  0  0  0  0
 15 16  2  0  0  0  0
 16 17  1  0  0  0  0
 17 18  1  0  0  0  0
 17 20  1  0  0  0  0
 18 19  2  0  0  0  0
 20 21  2  0  0  0  0
 20 24  1  0  0  0  0
 21 22  1  0  0  0  0
 22 23  1  0  0  0  0
 22 25  1  0  0  0  0
 23 24  2  0  0  0  0
  2 27  1  0  0  0  0
  3 28  1  0  0  0  0
  4 29  1  0  0  0  0
 10 30  1  0  0  0  0
 12 31  1  0  0  0  0
 12 32  1  0  0  0  0
 12 33  1  0  0  0  0
 13 34  1  0  0  0  0
 14 35  1  0  0  0  0
 15 36  1  0  0  0  0
 16 37  1  0  0  0  0
 17 38  1  0  0  0  0
 18 39  1  0  0  0  0
 19 40  1  0  0  0  0
 21 41  1  0  0  0  0
 24 42  1  0  0  0  0
 25 43  1  0  0  0  0
 25 44  1  0  0  0  0
 25 45  1  0  0  0  0
M  END
> <Name>
24

> <IC50[uM]>
0.029

$$$$
24
  -OEChem-05192314333D
 Structure written by MMmdl.
 45 48  0     1  0  0  0  0  0999 V2000
   -6.3515   12.3530  -11.9813 C   0  0  0  0  0  0  0  0  0  0  0  0
   -6.5085   11.7912  -10.7247 C   0  0  0  0  0  0  0  0  0  0  0  0
   -7.6802   10.5716  -13.0438 C   0  0  0  0  0  0  0  0  0  0  0  0
   -6.9296   11.7657  -13.1245 C   0  0  0  0  0  0  0  0  0  0  0  0
   -7.7980   10.0044  -11.7669 C   0  0  0  0  0  0  0  0  0  0  0  0
   -7.2328   10.6109  -10.5989 C   0  0  0  0  0  0  0  0  0  0  0  0
   -7.6209    9.7375   -9.5162 C   0  0  3  0  0  0  0  0  0  0  0  0
   -8.2754    8.7446   -9.9970 N   0  0  0  0  0  0  0  0  0  0  0  0
   -8.4233    8.8800  -11.3218 N   0  0  0  0  0  0  0  0  0  0  0  0
   -7.3328    9.8812   -8.0296 C   0  0  0  0  0  0  0  0  0  0  0  0
   -5.3004   14.2773  -13.1499 C   0  0  0  0  0  0  0  0  0  0  0  0
   -4.4346   15.5261  -12.8998 C   0  0  0  0  0  0  0  0  0  0  0  0
   -5.5896   13.5586  -12.0343 N   0  0  0  0  0  0  0  0  0  0  0  0
   -5.9706   10.4906   -7.7317 C   0  0  0  0  0  0  0  0  0  0  0  0
   -5.8616   11.7632   -7.1684 C   0  0  0  0  0  0  0  0  0  0  0  0
   -4.6051   12.3126   -6.9180 C   0  0  0  0  0  0  0  0  0  0  0  0
   -3.4544   11.5948   -7.2294 C   0  0  0  0  0  0  0  0  0  0  0  0
   -3.5626   10.3128   -7.8011 C   0  0  0  0  0  0  0  0  0  0  0  0
   -4.8160    9.7710   -8.0425 C   0  0  0  0  0  0  0  0  0  0  0  0
   -2.1083   12.1736   -6.9694 C   0  0  0  0  0  0  0  0  0  0  0  0
   -1.7503   13.4247   -6.4858 C   0  0  0  0  0  0  0  0  0  0  0  0
   -0.4131   13.4674   -6.4189 N   0  0  0  0  0  0  0  0  0  0  0  0
    0.1758   12.3735   -6.8057 N   0  0  0  0  0  0  0  0  0  0  0  0
   -0.8094   11.5620   -7.1791 C   0  0  0  0  0  0  0  0  0  0  0  0
    0.4060   14.5705   -5.9896 C   0  0  0  0  0  0  0  0  0  0  0  0
   -5.6528   14.0066  -14.2746 O   0  0  0  0  0  0  0  0  0  0  0  0
   -6.0747   12.2631   -9.8555 H   0  0  0  0  0  0  0  0  0  0  0  0
   -8.1361   10.1224  -13.9137 H   0  0  0  0  0  0  0  0  0  0  0  0
   -6.7956   12.2399  -14.0855 H   0  0  0  0  0  0  0  0  0  0  0  0
   -8.5577   10.3007   -9.3927 H   0  0  0  0  0  0  0  0  0  0  0  0
   -8.0279    9.5798   -7.2599 H   0  0  0  0  0  0  0  0  0  0  0  0
   -4.2429   16.0373  -13.8548 H   0  0  0  0  0  0  0  0  0  0  0  0
   -4.9638   16.2086  -12.2185 H   0  0  0  0  0  0  0  0  0  0  0  0
   -3.4785   15.2246  -12.4471 H   0  0  0  0  0  0  0  0  0  0  0  0
   -5.2347   13.9076  -11.1670 H   0  0  0  0  0  0  0  0  0  0  0  0
   -6.7526   12.3233   -6.9261 H   0  0  0  0  0  0  0  0  0  0  0  0
   -4.5246   13.2972   -6.4815 H   0  0  0  0  0  0  0  0  0  0  0  0
   -3.4585   11.1486   -6.2240 H   0  0  0  0  0  0  0  0  0  0  0  0
   -2.6730    9.7536   -8.0506 H   0  0  0  0  0  0  0  0  0  0  0  0
   -4.8993    8.7846   -8.4743 H   0  0  0  0  0  0  0  0  0  0  0  0
   -2.4278   14.2202   -6.2127 H   0  0  0  0  0  0  0  0  0  0  0  0
   -0.6614   10.5729   -7.5868 H   0  0  0  0  0  0  0  0  0  0  0  0
    1.4672   14.2904   -6.0634 H   0  0  0  0  0  0  0  0  0  0  0  0
    0.2117   15.4427   -6.6311 H   0  0  0  0  0  0  0  0  0  0  0  0
    0.1649   14.8218   -4.9462 H   0  0  0  0  0  0  0  0  0  0  0  0
  1  2  2  0  0  0  0
  1  4  1  0  0  0  0
  1 13  1  0  0  0  0
  2  6  1  0  0  0  0
  3  4  2  0  0  0  0
  3  5  1  0  0  0  0
  5  6  2  0  0  0  0
  5  9  1  0  0  0  0
  6  7  1  0  0  0  0
  7  8  1  0  0  0  0
  7 10  1  0  0  0  0
  8  9  2  0  0  0  0
 10 14  2  0  0  0  0
 11 12  1  0  0  0  0
 11 13  1  0  0  0  0
 11 26  2  0  0  0  0
 14 15  1  0  0  0  0
 14 19  1  0  0  0  0
 15 16  2  0  0  0  0
 16 17  1  0  0  0  0
 17 18  1  0  0  0  0
 17 20  1  0  0  0  0
 18 19  2  0  0  0  0
 20 21  2  0  0  0  0
 20 24  1  0  0  0  0
 21 22  1  0  0  0  0
 22 23  1  0  0  0  0
 22 25  1  0  0  0  0
 23 24  2  0  0  0  0
  2 27  1  0  0  0  0
  3 28  1  0  0  0  0
  4 29  1  0  0  0  0
  7 30  1  0  0  0  0
 10 31  1  0  0  0  0
 12 32  1  0  0  0  0
 12 33  1  0  0  0  0
 12 34  1  0  0  0  0
 13 35  1  0  0  0  0
 15 36  1  0  0  0  0
 16 37  1  0  0  0  0
 17 38  1  0  0  0  0
 18 39  1  0  0  0  0
 19 40  1  0  0  0  0
 21 41  1  0  0  0  0
 24 42  1  0  0  0  0
 25 43  1  0  0  0  0
 25 44  1  0  0  0  0
 25 45  1  0  0  0  0
M  END
> <Name>
24

> <IC50[uM]>
0.029

$$$$
24
  -OEChem-05192314333D
 Structure written by MMmdl.
 45 48  0     1  0  0  0  0  0999 V2000
   -6.3515   12.3530  -11.9813 C   0  0  0  0  0  0  0  0  0  0  0  0
   -6.5085   11.7912  -10.7247 C   0  0  0  0  0  0  0  0  0  0  0  0
   -7.6802   10.5716  -13.0438 C   0  0  0  0  0  0  0  0  0  0  0  0
   -6.9296   11.7657  -13.1245 C   0  0  0  0  0  0  0  0  0  0  0  0
   -7.7980   10.0044  -11.7669 C   0  0  3  0  0  0  0  0  0  0  0  0
   -7.2328   10.6109  -10.5989 C   0  0  3  0  0  0  0  0  0  0  0  0
   -7.6209    9.7375   -9.5162 C   0  0  0  0  0  0  0  0  0  0  0  0
   -8.2754    8.7446   -9.9970 N   0  0  0  0  0  0  0  0  0  0  0  0
   -8.4233    8.8800  -11.3218 N   0  0  0  0  0  0  0  0  0  0  0  0
   -7.3328    9.8812   -8.0296 C   0  0  0  0  0  0  0  0  0  0  0  0
   -5.3004   14.2773  -13.1499 C   0  0  0  0  0  0  0  0  0  0  0  0
   -4.4346   15.5261  -12.8998 C   0  0  0  0  0  0  0  0  0  0  0  0
   -5.5896   13.5586  -12.0343 N   0  0  0  0  0  0  0  0  0  0  0  0
   -5.9706   10.4906   -7.7317 C   0  0  0  0  0  0  0  0  0  0  0  0
   -5.8616   11.7632   -7.1684 C   0  0  0  0  0  0  0  0  0  0  0  0
   -4.6051   12.3126   -6.9180 C   0  0  0  0  0  0  0  0  0  0  0  0
   -3.4544   11.5948   -7.2294 C   0  0  0  0  0  0  0  0  0  0  0  0
   -3.5626   10.3128   -7.8011 C   0  0  0  0  0  0  0  0  0  0  0  0
   -4.8160    9.7710   -8.0425 C   0  0  0  0  0  0  0  0  0  0  0  0
   -2.1083   12.1736   -6.9694 C   0  0  0  0  0  0  0  0  0  0  0  0
   -1.7503   13.4247   -6.4858 C   0  0  0  0  0  0  0  0  0  0  0  0
   -0.4131   13.4674   -6.4189 N   0  0  0  0  0  0  0  0  0  0  0  0
    0.1758   12.3735   -6.8057 N   0  0  0  0  0  0  0  0  0  0  0  0
   -0.8094   11.5620   -7.1791 C   0  0  0  0  0  0  0  0  0  0  0  0
    0.4060   14.5705   -5.9896 C   0  0  0  0  0  0  0  0  0  0  0  0
   -5.6528   14.0066  -14.2746 O   0  0  0  0  0  0  0  0  0  0  0  0
   -6.0747   12.2631   -9.8555 H   0  0  0  0  0  0  0  0  0  0  0  0
   -8.1361   10.1224  -13.9137 H   0  0  0  0  0  0  0  0  0  0  0  0
   -6.7956   12.2399  -14.0855 H   0  0  0  0  0  0  0  0  0  0  0  0
   -6.8712    9.4340  -11.9273 H   0  0  0  0  0  0  0  0  0  0  0  0
   -6.3107   10.0281  -10.7406 H   0  0  0  0  0  0  0  0  0  0  0  0
   -8.0279    9.5798   -7.2599 H   0  0  0  0  0  0  0  0  0  0  0  0
   -4.2429   16.0373  -13.8548 H   0  0  0  0  0  0  0  0  0  0  0  0
   -4.9638   16.2086  -12.2185 H   0  0  0  0  0  0  0  0  0  0  0  0
   -3.4785   15.2246  -12.4471 H   0  0  0  0  0  0  0  0  0  0  0  0
   -5.2347   13.9076  -11.1670 H   0  0  0  0  0  0  0  0  0  0  0  0
   -6.7526   12.3233   -6.9261 H   0  0  0  0  0  0  0  0  0  0  0  0
   -4.5246   13.2972   -6.4815 H   0  0  0  0  0  0  0  0  0  0  0  0
   -2.6730    9.7536   -8.0506 H   0  0  0  0  0  0  0  0  0  0  0  0
   -4.8993    8.7846   -8.4743 H   0  0  0  0  0  0  0  0  0  0  0  0
   -2.4278   14.2202   -6.2127 H   0  0  0  0  0  0  0  0  0  0  0  0
   -0.6614   10.5729   -7.5868 H   0  0  0  0  0  0  0  0  0  0  0  0
    1.4672   14.2904   -6.0634 H   0  0  0  0  0  0  0  0  0  0  0  0
    0.2117   15.4427   -6.6311 H   0  0  0  0  0  0  0  0  0  0  0  0
    0.1649   14.8218   -4.9462 H   0  0  0  0  0  0  0  0  0  0  0  0
  1  2  2  0  0  0  0
  1  4  1  0  0  0  0
  1 13  1  0  0  0  0
  2  6  1  0  0  0  0
  3  4  2  0  0  0  0
  3  5  1  0  0  0  0
  5  6  1  0  0  0  0
  5  9  1  0  0  0  0
  6  7  1  0  0  0  0
  7  8  1  0  0  0  0
  7 10  2  3  0  0  0
  8  9  2  0  0  0  0
 10 14  1  0  0  0  0
 11 12  1  0  0  0  0
 11 13  1  0  0  0  0
 11 26  2  0  0  0  0
 14 15  2  0  0  0  0
 14 19  1  0  0  0  0
 15 16  1  0  0  0  0
 16 17  2  0  0  0  0
 17 18  1  0  0  0  0
 17 20  1  0  0  0  0
 18 19  2  0  0  0  0
 20 21  2  0  0  0  0
 20 24  1  0  0  0  0
 21 22  1  0  0  0  0
 22 23  1  0  0  0  0
 22 25  1  0  0  0  0
 23 24  2  0  0  0  0
  2 27  1  0  0  0  0
  3 28  1  0  0  0  0
  4 29  1  0  0  0  0
  5 30  1  0  0  0  0
  6 31  1  0  0  0  0
 10 32  1  0  0  0  0
 12 33  1  0  0  0  0
 12 34  1  0  0  0  0
 12 35  1  0  0  0  0
 13 36  1  0  0  0  0
 15 37  1  0  0  0  0
 16 38  1  0  0  0  0
 18 39  1  0  0  0  0
 19 40  1  0  0  0  0
 21 41  1  0  0  0  0
 24 42  1  0  0  0  0
 25 43  1  0  0  0  0
 25 44  1  0  0  0  0
 25 45  1  0  0  0  0
M  END
> <Name>
24

> <IC50[uM]>
0.029

$$$$
24
  -OEChem-05192314333D
 Structure written by MMmdl.
 45 48  0     1  0  0  0  0  0999 V2000
   -6.3515   12.3530  -11.9813 C   0  0  3  0  0  0  0  0  0  0  0  0
   -6.5085   11.7912  -10.7247 C   0  0  0  0  0  0  0  0  0  0  0  0
   -7.6802   10.5716  -13.0438 C   0  0  0  0  0  0  0  0  0  0  0  0
   -6.9296   11.7657  -13.1245 C   0  0  0  0  0  0  0  0  0  0  0  0
   -7.7980   10.0044  -11.7669 C   0  0  3  0  0  0  0  0  0  0  0  0
   -7.2328   10.6109  -10.5989 C   0  0  0  0  0  0  0  0  0  0  0  0
   -7.6209    9.7375   -9.5162 C   0  0  0  0  0  0  0  0  0  0  0  0
   -8.2754    8.7446   -9.9970 N   0  0  0  0  0  0  0  0  0  0  0  0
   -8.4233    8.8800  -11.3218 N   0  0  0  0  0  0  0  0  0  0  0  0
   -7.3328    9.8812   -8.0296 C   0  0  0  0  0  0  0  0  0  0  0  0
   -5.3004   14.2773  -13.1499 C   0  0  0  0  0  0  0  0  0  0  0  0
   -4.4346   15.5261  -12.8998 C   0  0  0  0  0  0  0  0  0  0  0  0
   -5.5896   13.5586  -12.0343 N   0  0  0  0  0  0  0  0  0  0  0  0
   -5.9706   10.4906   -7.7317 C   0  0  0  0  0  0  0  0  0  0  0  0
   -5.8616   11.7632   -7.1684 C   0  0  0  0  0  0  0  0  0  0  0  0
   -4.6051   12.3126   -6.9180 C   0  0  0  0  0  0  0  0  0  0  0  0
   -3.4544   11.5948   -7.2294 C   0  0  0  0  0  0  0  0  0  0  0  0
   -3.5626   10.3128   -7.8011 C   0  0  0  0  0  0  0  0  0  0  0  0
   -4.8160    9.7710   -8.0425 C   0  0  0  0  0  0  0  0  0  0  0  0
   -2.1083   12.1736   -6.9694 C   0  0  0  0  0  0  0  0  0  0  0  0
   -1.7503   13.4247   -6.4858 C   0  0  0  0  0  0  0  0  0  0  0  0
   -0.4131   13.4674   -6.4189 N   0  0  0  0  0  0  0  0  0  0  0  0
    0.1758   12.3735   -6.8057 N   0  0  0  0  0  0  0  0  0  0  0  0
   -0.8094   11.5620   -7.1791 C   0  0  0  0  0  0  0  0  0  0  0  0
    0.4060   14.5705   -5.9896 C   0  0  0  0  0  0  0  0  0  0  0  0
   -5.6528   14.0066  -14.2746 O   0  0  0  0  0  0  0  0  0  0  0  0
   -5.4362   11.7628  -12.1356 H   0  0  0  0  0  0  0  0  0  0  0  0
   -6.0747   12.2631   -9.8555 H   0  0  0  0  0  0  0  0  0  0  0  0
   -8.1361   10.1224  -13.9137 H   0  0  0  0  0  0  0  0  0  0  0  0
   -6.7956   12.2399  -14.0855 H   0  0  0  0  0  0  0  0  0  0  0  0
   -6.8712    9.4340  -11.9273 H   0  0  0  0  0  0  0  0  0  0  0  0
   -8.0279    9.5798   -7.2599 H   0  0  0  0  0  0  0  0  0  0  0  0
   -4.2429   16.0373  -13.8548 H   0  0  0  0  0  0  0  0  0  0  0  0
   -4.9638   16.2086  -12.2185 H   0  0  0  0  0  0  0  0  0  0  0  0
   -3.4785   15.2246  -12.4471 H   0  0  0  0  0  0  0  0  0  0  0  0
   -5.2347   13.9076  -11.1670 H   0  0  0  0  0  0  0  0  0  0  0  0
   -6.7526   12.3233   -6.9261 H   0  0  0  0  0  0  0  0  0  0  0  0
   -4.5246   13.2972   -6.4815 H   0  0  0  0  0  0  0  0  0  0  0  0
   -2.6730    9.7536   -8.0506 H   0  0  0  0  0  0  0  0  0  0  0  0
   -4.8993    8.7846   -8.4743 H   0  0  0  0  0  0  0  0  0  0  0  0
   -2.4278   14.2202   -6.2127 H   0  0  0  0  0  0  0  0  0  0  0  0
   -0.6614   10.5729   -7.5868 H   0  0  0  0  0  0  0  0  0  0  0  0
    1.4672   14.2904   -6.0634 H   0  0  0  0  0  0  0  0  0  0  0  0
    0.2117   15.4427   -6.6311 H   0  0  0  0  0  0  0  0  0  0  0  0
    0.1649   14.8218   -4.9462 H   0  0  0  0  0  0  0  0  0  0  0  0
  1  2  1  0  0  0  0
  1  4  1  0  0  0  0
  1 13  1  0  0  0  0
  2  6  2  0  0  0  0
  3  4  2  0  0  0  0
  3  5  1  0  0  0  0
  5  6  1  0  0  0  0
  5  9  1  0  0  0  0
  6  7  1  0  0  0  0
  7  8  1  0  0  0  0
  7 10  2  3  0  0  0
  8  9  2  0  0  0  0
 10 14  1  0  0  0  0
 11 12  1  0  0  0  0
 11 13  1  0  0  0  0
 11 26  2  0  0  0  0
 14 15  2  0  0  0  0
 14 19  1  0  0  0  0
 15 16  1  0  0  0  0
 16 17  2  0  0  0  0
 17 18  1  0  0  0  0
 17 20  1  0  0  0  0
 18 19  2  0  0  0  0
 20 21  2  0  0  0  0
 20 24  1  0  0  0  0
 21 22  1  0  0  0  0
 22 23  1  0  0  0  0
 22 25  1  0  0  0  0
 23 24  2  0  0  0  0
  1 27  1  0  0  0  0
  2 28  1  0  0  0  0
  3 29  1  0  0  0  0
  4 30  1  0  0  0  0
  5 31  1  0  0  0  0
 10 32  1  0  0  0  0
 12 33  1  0  0  0  0
 12 34  1  0  0  0  0
 12 35  1  0  0  0  0
 13 36  1  0  0  0  0
 15 37  1  0  0  0  0
 16 38  1  0  0  0  0
 18 39  1  0  0  0  0
 19 40  1  0  0  0  0
 21 41  1  0  0  0  0
 24 42  1  0  0  0  0
 25 43  1  0  0  0  0
 25 44  1  0  0  0  0
 25 45  1  0  0  0  0
M  END
> <Name>
24

> <IC50[uM]>
0.029

$$$$
24
  -OEChem-05192314333D
 Structure written by MMmdl.
 45 48  0     1  0  0  0  0  0999 V2000
   -6.3515   12.3530  -11.9813 C   0  0  0  0  0  0  0  0  0  0  0  0
   -6.5085   11.7912  -10.7247 C   0  0  0  0  0  0  0  0  0  0  0  0
   -7.6802   10.5716  -13.0438 C   0  0  0  0  0  0  0  0  0  0  0  0
   -6.9296   11.7657  -13.1245 C   0  0  0  0  0  0  0  0  0  0  0  0
   -7.7980   10.0044  -11.7669 C   0  0  3  0  0  0  0  0  0  0  0  0
   -7.2328   10.6109  -10.5989 C   0  0  0  0  0  0  0  0  0  0  0  0
   -7.6209    9.7375   -9.5162 C   0  0  0  0  0  0  0  0  0  0  0  0
   -8.2754    8.7446   -9.9970 N   0  0  0  0  0  0  0  0  0  0  0  0
   -8.4233    8.8800  -11.3218 N   0  0  0  0  0  0  0  0  0  0  0  0
   -7.3328    9.8812   -8.0296 C   0  0  0  0  0  0  0  0  0  0  0  0
   -5.3004   14.2773  -13.1499 C   0  0  0  0  0  0  0  0  0  0  0  0
   -4.4346   15.5261  -12.8998 C   0  0  0  0  0  0  0  0  0  0  0  0
   -5.5896   13.5586  -12.0343 N   0  0  0  0  0  0  0  0  0  0  0  0
   -5.9706   10.4906   -7.7317 C   0  0  0  0  0  0  0  0  0  0  0  0
   -5.8616   11.7632   -7.1684 C   0  0  0  0  0  0  0  0  0  0  0  0
   -4.6051   12.3126   -6.9180 C   0  0  0  0  0  0  0  0  0  0  0  0
   -3.4544   11.5948   -7.2294 C   0  0  0  0  0  0  0  0  0  0  0  0
   -3.5626   10.3128   -7.8011 C   0  0  0  0  0  0  0  0  0  0  0  0
   -4.8160    9.7710   -8.0425 C   0  0  0  0  0  0  0  0  0  0  0  0
   -2.1083   12.1736   -6.9694 C   0  0  0  0  0  0  0  0  0  0  0  0
   -1.7503   13.4247   -6.4858 C   0  0  0  0  0  0  0  0  0  0  0  0
   -0.4131   13.4674   -6.4189 N   0  0  0  0  0  0  0  0  0  0  0  0
    0.1758   12.3735   -6.8057 N   0  0  0  0  0  0  0  0  0  0  0  0
   -0.8094   11.5620   -7.1791 C   0  0  0  0  0  0  0  0  0  0  0  0
    0.4060   14.5705   -5.9896 C   0  0  0  0  0  0  0  0  0  0  0  0
   -5.6528   14.0066  -14.2746 O   0  0  0  0  0  0  0  0  0  0  0  0
   -6.0747   12.2631   -9.8555 H   0  0  0  0  0  0  0  0  0  0  0  0
   -8.6945   10.7862  -13.4115 H   0  0  0  0  0  0  0  0  0  0  0  0
   -7.2021    9.8287  -13.6992 H   0  0  0  0  0  0  0  0  0  0  0  0
   -6.7956   12.2399  -14.0855 H   0  0  0  0  0  0  0  0  0  0  0  0
   -6.8712    9.4340  -11.9273 H   0  0  0  0  0  0  0  0  0  0  0  0
   -8.0279    9.5798   -7.2599 H   0  0  0  0  0  0  0  0  0  0  0  0
   -4.2429   16.0373  -13.8548 H   0  0  0  0  0  0  0  0  0  0  0  0
   -4.9638   16.2086  -12.2185 H   0  0  0  0  0  0  0  0  0  0  0  0
   -3.4785   15.2246  -12.4471 H   0  0  0  0  0  0  0  0  0  0  0  0
   -5.2347   13.9076  -11.1670 H   0  0  0  0  0  0  0  0  0  0  0  0
   -6.7526   12.3233   -6.9261 H   0  0  0  0  0  0  0  0  0  0  0  0
   -4.5246   13.2972   -6.4815 H   0  0  0  0  0  0  0  0  0  0  0  0
   -2.6730    9.7536   -8.0506 H   0  0  0  0  0  0  0  0  0  0  0  0
   -4.8993    8.7846   -8.4743 H   0  0  0  0  0  0  0  0  0  0  0  0
   -2.4278   14.2202   -6.2127 H   0  0  0  0  0  0  0  0  0  0  0  0
   -0.6614   10.5729   -7.5868 H   0  0  0  0  0  0  0  0  0  0  0  0
    1.4672   14.2904   -6.0634 H   0  0  0  0  0  0  0  0  0  0  0  0
    0.2117   15.4427   -6.6311 H   0  0  0  0  0  0  0  0  0  0  0  0
    0.1649   14.8218   -4.9462 H   0  0  0  0  0  0  0  0  0  0  0  0
  1  2  1  0  0  0  0
  1  4  2  0  0  0  0
  1 13  1  0  0  0  0
  2  6  2  0  0  0  0
  3  4  1  0  0  0  0
  3  5  1  0  0  0  0
  5  6  1  0  0  0  0
  5  9  1  0  0  0  0
  6  7  1  0  0  0  0
  7  8  1  0  0  0  0
  7 10  2  3  0  0  0
  8  9  2  0  0  0  0
 10 14  1  0  0  0  0
 11 12  1  0  0  0  0
 11 13  1  0  0  0  0
 11 26  2  0  0  0  0
 14 15  2  0  0  0  0
 14 19  1  0  0  0  0
 15 16  1  0  0  0  0
 16 17  2  0  0  0  0
 17 18  1  0  0  0  0
 17 20  1  0  0  0  0
 18 19  2  0  0  0  0
 20 21  2  0  0  0  0
 20 24  1  0  0  0  0
 21 22  1  0  0  0  0
 22 23  1  0  0  0  0
 22 25  1  0  0  0  0
 23 24  2  0  0  0  0
  2 27  1  0  0  0  0
  3 28  1  0  0  0  0
  3 29  1  0  0  0  0
  4 30  1  0  0  0  0
  5 31  1  0  0  0  0
 10 32  1  0  0  0  0
 12 33  1  0  0  0  0
 12 34  1  0  0  0  0
 12 35  1  0  0  0  0
 13 36  1  0  0  0  0
 15 37  1  0  0  0  0
 16 38  1  0  0  0  0
 18 39  1  0  0  0  0
 19 40  1  0  0  0  0
 21 41  1  0  0  0  0
 24 42  1  0  0  0  0
 25 43  1  0  0  0  0
 25 44  1  0  0  0  0
 25 45  1  0  0  0  0
M  END
> <Name>
24

> <IC50[uM]>
0.029

$$$$
24
  -OEChem-05192314333D
 Structure written by MMmdl.
 45 48  0     1  0  0  0  0  0999 V2000
   -6.3515   12.3530  -11.9813 C   0  0  0  0  0  0  0  0  0  0  0  0
   -6.5085   11.7912  -10.7247 C   0  0  0  0  0  0  0  0  0  0  0  0
   -7.6802   10.5716  -13.0438 C   0  0  0  0  0  0  0  0  0  0  0  0
   -6.9296   11.7657  -13.1245 C   0  0  0  0  0  0  0  0  0  0  0  0
   -7.7980   10.0044  -11.7669 C   0  0  0  0  0  0  0  0  0  0  0  0
   -7.2328   10.6109  -10.5989 C   0  0  3  0  0  0  0  0  0  0  0  0
   -7.6209    9.7375   -9.5162 C   0  0  0  0  0  0  0  0  0  0  0  0
   -8.2754    8.7446   -9.9970 N   0  0  0  0  0  0  0  0  0  0  0  0
   -8.4233    8.8800  -11.3218 N   0  0  0  0  0  0  0  0  0  0  0  0
   -7.3328    9.8812   -8.0296 C   0  0  0  0  0  0  0  0  0  0  0  0
   -5.3004   14.2773  -13.1499 C   0  0  0  0  0  0  0  0  0  0  0  0
   -4.4346   15.5261  -12.8998 C   0  0  0  0  0  0  0  0  0  0  0  0
   -5.5896   13.5586  -12.0343 N   0  0  0  0  0  0  0  0  0  0  0  0
   -5.9706   10.4906   -7.7317 C   0  0  0  0  0  0  0  0  0  0  0  0
   -5.8616   11.7632   -7.1684 C   0  0  0  0  0  0  0  0  0  0  0  0
   -4.6051   12.3126   -6.9180 C   0  0  0  0  0  0  0  0  0  0  0  0
   -3.4544   11.5948   -7.2294 C   0  0  0  0  0  0  0  0  0  0  0  0
   -3.5626   10.3128   -7.8011 C   0  0  0  0  0  0  0  0  0  0  0  0
   -4.8160    9.7710   -8.0425 C   0  0  0  0  0  0  0  0  0  0  0  0
   -2.1083   12.1736   -6.9694 C   0  0  0  0  0  0  0  0  0  0  0  0
   -1.7503   13.4247   -6.4858 C   0  0  0  0  0  0  0  0  0  0  0  0
   -0.4131   13.4674   -6.4189 N   0  0  0  0  0  0  0  0  0  0  0  0
    0.1758   12.3735   -6.8057 N   0  0  0  0  0  0  0  0  0  0  0  0
   -0.8094   11.5620   -7.1791 C   0  0  0  0  0  0  0  0  0  0  0  0
    0.4060   14.5705   -5.9896 C   0  0  0  0  0  0  0  0  0  0  0  0
   -5.6528   14.0066  -14.2746 O   0  0  0  0  0  0  0  0  0  0  0  0
   -6.0747   12.2631   -9.8555 H   0  0  0  0  0  0  0  0  0  0  0  0
   -8.1361   10.1224  -13.9137 H   0  0  0  0  0  0  0  0  0  0  0  0
   -7.5989   12.5237  -13.5575 H   0  0  0  0  0  0  0  0  0  0  0  0
   -6.1027   11.5654  -13.8217 H   0  0  0  0  0  0  0  0  0  0  0  0
   -6.3107   10.0281  -10.7406 H   0  0  0  0  0  0  0  0  0  0  0  0
   -8.0279    9.5798   -7.2599 H   0  0  0  0  0  0  0  0  0  0  0  0
   -4.2429   16.0373  -13.8548 H   0  0  0  0  0  0  0  0  0  0  0  0
   -4.9638   16.2086  -12.2185 H   0  0  0  0  0  0  0  0  0  0  0  0
   -3.4785   15.2246  -12.4471 H   0  0  0  0  0  0  0  0  0  0  0  0
   -5.2347   13.9076  -11.1670 H   0  0  0  0  0  0  0  0  0  0  0  0
   -6.7526   12.3233   -6.9261 H   0  0  0  0  0  0  0  0  0  0  0  0
   -4.5246   13.2972   -6.4815 H   0  0  0  0  0  0  0  0  0  0  0  0
   -2.6730    9.7536   -8.0506 H   0  0  0  0  0  0  0  0  0  0  0  0
   -4.8993    8.7846   -8.4743 H   0  0  0  0  0  0  0  0  0  0  0  0
   -2.4278   14.2202   -6.2127 H   0  0  0  0  0  0  0  0  0  0  0  0
   -0.6614   10.5729   -7.5868 H   0  0  0  0  0  0  0  0  0  0  0  0
    1.4672   14.2904   -6.0634 H   0  0  0  0  0  0  0  0  0  0  0  0
    0.2117   15.4427   -6.6311 H   0  0  0  0  0  0  0  0  0  0  0  0
    0.1649   14.8218   -4.9462 H   0  0  0  0  0  0  0  0  0  0  0  0
  1  2  2  0  0  0  0
  1  4  1  0  0  0  0
  1 13  1  0  0  0  0
  2  6  1  0  0  0  0
  3  4  1  0  0  0  0
  3  5  2  0  0  0  0
  5  6  1  0  0  0  0
  5  9  1  0  0  0  0
  6  7  1  0  0  0  0
  7  8  1  0  0  0  0
  7 10  2  3  0  0  0
  8  9  2  0  0  0  0
 10 14  1  0  0  0  0
 11 12  1  0  0  0  0
 11 13  1  0  0  0  0
 11 26  2  0  0  0  0
 14 15  2  0  0  0  0
 14 19  1  0  0  0  0
 15 16  1  0  0  0  0
 16 17  2  0  0  0  0
 17 18  1  0  0  0  0
 17 20  1  0  0  0  0
 18 19  2  0  0  0  0
 20 21  2  0  0  0  0
 20 24  1  0  0  0  0
 21 22  1  0  0  0  0
 22 23  1  0  0  0  0
 22 25  1  0  0  0  0
 23 24  2  0  0  0  0
  2 27  1  0  0  0  0
  3 28  1  0  0  0  0
  4 29  1  0  0  0  0
  4 30  1  0  0  0  0
  6 31  1  0  0  0  0
 10 32  1  0  0  0  0
 12 33  1  0  0  0  0
 12 34  1  0  0  0  0
 12 35  1  0  0  0  0
 13 36  1  0  0  0  0
 15 37  1  0  0  0  0
 16 38  1  0  0  0  0
 18 39  1  0  0  0  0
 19 40  1  0  0  0  0
 21 41  1  0  0  0  0
 24 42  1  0  0  0  0
 25 43  1  0  0  0  0
 25 44  1  0  0  0  0
 25 45  1  0  0  0  0
M  END
> <Name>
24

> <IC50[uM]>
0.029

$$$$
24
  -OEChem-05192314333D
 Structure written by MMmdl.
 45 48  0     1  0  0  0  0  0999 V2000
   -6.3515   12.3530  -11.9813 C   0  0  3  0  0  0  0  0  0  0  0  0
   -6.5085   11.7912  -10.7247 C   0  0  0  0  0  0  0  0  0  0  0  0
   -7.6802   10.5716  -13.0438 C   0  0  0  0  0  0  0  0  0  0  0  0
   -6.9296   11.7657  -13.1245 C   0  0  0  0  0  0  0  0  0  0  0  0
   -7.7980   10.0044  -11.7669 C   0  0  0  0  0  0  0  0  0  0  0  0
   -7.2328   10.6109  -10.5989 C   0  0  0  0  0  0  0  0  0  0  0  0
   -7.6209    9.7375   -9.5162 C   0  0  0  0  0  0  0  0  0  0  0  0
   -8.2754    8.7446   -9.9970 N   0  0  0  0  0  0  0  0  0  0  0  0
   -8.4233    8.8800  -11.3218 N   0  0  0  0  0  0  0  0  0  0  0  0
   -7.3328    9.8812   -8.0296 C   0  0  0  0  0  0  0  0  0  0  0  0
   -5.3004   14.2773  -13.1499 C   0  0  0  0  0  0  0  0  0  0  0  0
   -4.4346   15.5261  -12.8998 C   0  0  0  0  0  0  0  0  0  0  0  0
   -5.5896   13.5586  -12.0343 N   0  0  0  0  0  0  0  0  0  0  0  0
   -5.9706   10.4906   -7.7317 C   0  0  0  0  0  0  0  0  0  0  0  0
   -5.8616   11.7632   -7.1684 C   0  0  0  0  0  0  0  0  0  0  0  0
   -4.6051   12.3126   -6.9180 C   0  0  0  0  0  0  0  0  0  0  0  0
   -3.4544   11.5948   -7.2294 C   0  0  0  0  0  0  0  0  0  0  0  0
   -3.5626   10.3128   -7.8011 C   0  0  0  0  0  0  0  0  0  0  0  0
   -4.8160    9.7710   -8.0425 C   0  0  0  0  0  0  0  0  0  0  0  0
   -2.1083   12.1736   -6.9694 C   0  0  0  0  0  0  0  0  0  0  0  0
   -1.7503   13.4247   -6.4858 C   0  0  0  0  0  0  0  0  0  0  0  0
   -0.4131   13.4674   -6.4189 N   0  0  0  0  0  0  0  0  0  0  0  0
    0.1758   12.3735   -6.8057 N   0  0  0  0  0  0  0  0  0  0  0  0
   -0.8094   11.5620   -7.1791 C   0  0  0  0  0  0  0  0  0  0  0  0
    0.4060   14.5705   -5.9896 C   0  0  0  0  0  0  0  0  0  0  0  0
   -5.6528   14.0066  -14.2746 O   0  0  0  0  0  0  0  0  0  0  0  0
   -5.4362   11.7628  -12.1356 H   0  0  0  0  0  0  0  0  0  0  0  0
   -6.0747   12.2631   -9.8555 H   0  0  0  0  0  0  0  0  0  0  0  0
   -8.1361   10.1224  -13.9137 H   0  0  0  0  0  0  0  0  0  0  0  0
   -7.5989   12.5237  -13.5575 H   0  0  0  0  0  0  0  0  0  0  0  0
   -6.1027   11.5654  -13.8217 H   0  0  0  0  0  0  0  0  0  0  0  0
   -8.0279    9.5798   -7.2599 H   0  0  0  0  0  0  0  0  0  0  0  0
   -4.2429   16.0373  -13.8548 H   0  0  0  0  0  0  0  0  0  0  0  0
   -4.9638   16.2086  -12.2185 H   0  0  0  0  0  0  0  0  0  0  0  0
   -3.4785   15.2246  -12.4471 H   0  0  0  0  0  0  0  0  0  0  0  0
   -5.2347   13.9076  -11.1670 H   0  0  0  0  0  0  0  0  0  0  0  0
   -6.7526   12.3233   -6.9261 H   0  0  0  0  0  0  0  0  0  0  0  0
   -4.5246   13.2972   -6.4815 H   0  0  0  0  0  0  0  0  0  0  0  0
   -2.6730    9.7536   -8.0506 H   0  0  0  0  0  0  0  0  0  0  0  0
   -4.8993    8.7846   -8.4743 H   0  0  0  0  0  0  0  0  0  0  0  0
   -2.4278   14.2202   -6.2127 H   0  0  0  0  0  0  0  0  0  0  0  0
   -0.6614   10.5729   -7.5868 H   0  0  0  0  0  0  0  0  0  0  0  0
    1.4672   14.2904   -6.0634 H   0  0  0  0  0  0  0  0  0  0  0  0
    0.2117   15.4427   -6.6311 H   0  0  0  0  0  0  0  0  0  0  0  0
    0.1649   14.8218   -4.9462 H   0  0  0  0  0  0  0  0  0  0  0  0
  1  2  1  0  0  0  0
  1  4  1  0  0  0  0
  1 13  1  0  0  0  0
  2  6  2  0  0  0  0
  3  4  1  0  0  0  0
  3  5  2  0  0  0  0
  5  6  1  0  0  0  0
  5  9  1  0  0  0  0
  6  7  1  0  0  0  0
  7  8  1  0  0  0  0
  7 10  2  3  0  0  0
  8  9  2  0  0  0  0
 10 14  1  0  0  0  0
 11 12  1  0  0  0  0
 11 13  1  0  0  0  0
 11 26  2  0  0  0  0
 14 15  2  0  0  0  0
 14 19  1  0  0  0  0
 15 16  1  0  0  0  0
 16 17  2  0  0  0  0
 17 18  1  0  0  0  0
 17 20  1  0  0  0  0
 18 19  2  0  0  0  0
 20 21  2  0  0  0  0
 20 24  1  0  0  0  0
 21 22  1  0  0  0  0
 22 23  1  0  0  0  0
 22 25  1  0  0  0  0
 23 24  2  0  0  0  0
  1 27  1  0  0  0  0
  2 28  1  0  0  0  0
  3 29  1  0  0  0  0
  4 30  1  0  0  0  0
  4 31  1  0  0  0  0
 10 32  1  0  0  0  0
 12 33  1  0  0  0  0
 12 34  1  0  0  0  0
 12 35  1  0  0  0  0
 13 36  1  0  0  0  0
 15 37  1  0  0  0  0
 16 38  1  0  0  0  0
 18 39  1  0  0  0  0
 19 40  1  0  0  0  0
 21 41  1  0  0  0  0
 24 42  1  0  0  0  0
 25 43  1  0  0  0  0
 25 44  1  0  0  0  0
 25 45  1  0  0  0  0
M  END
> <Name>
24

> <IC50[uM]>
0.029

$$$$
24
  -OEChem-05192314333D
 Structure written by MMmdl.
 45 48  0     0  0  0  0  0  0999 V2000
   -6.3515   12.3530  -11.9813 C   0  0  0  0  0  0  0  0  0  0  0  0
   -6.5085   11.7912  -10.7247 C   0  0  0  0  0  0  0  0  0  0  0  0
   -7.6802   10.5716  -13.0438 C   0  0  0  0  0  0  0  0  0  0  0  0
   -6.9296   11.7657  -13.1245 C   0  0  0  0  0  0  0  0  0  0  0  0
   -7.7980   10.0044  -11.7669 C   0  0  0  0  0  0  0  0  0  0  0  0
   -7.2328   10.6109  -10.5989 C   0  0  0  0  0  0  0  0  0  0  0  0
   -7.6209    9.7375   -9.5162 C   0  0  0  0  0  0  0  0  0  0  0  0
   -8.2754    8.7446   -9.9970 N   0  0  0  0  0  0  0  0  0  0  0  0
   -8.4233    8.8800  -11.3218 N   0  0  0  0  0  0  0  0  0  0  0  0
   -7.3328    9.8812   -8.0296 C   0  0  0  0  0  0  0  0  0  0  0  0
   -5.3004   14.2773  -13.1499 C   0  0  0  0  0  0  0  0  0  0  0  0
   -4.4346   15.5261  -12.8998 C   0  0  0  0  0  0  0  0  0  0  0  0
   -5.5896   13.5586  -12.0343 N   0  0  0  0  0  0  0  0  0  0  0  0
   -5.9706   10.4906   -7.7317 C   0  0  0  0  0  0  0  0  0  0  0  0
   -5.8616   11.7632   -7.1684 C   0  0  0  0  0  0  0  0  0  0  0  0
   -4.6051   12.3126   -6.9180 C   0  0  0  0  0  0  0  0  0  0  0  0
   -3.4544   11.5948   -7.2294 C   0  0  0  0  0  0  0  0  0  0  0  0
   -3.5626   10.3128   -7.8011 C   0  0  0  0  0  0  0  0  0  0  0  0
   -4.8160    9.7710   -8.0425 C   0  0  0  0  0  0  0  0  0  0  0  0
   -2.1083   12.1736   -6.9694 C   0  0  0  0  0  0  0  0  0  0  0  0
   -1.7503   13.4247   -6.4858 C   0  0  0  0  0  0  0  0  0  0  0  0
   -0.4131   13.4674   -6.4189 N   0  0  0  0  0  0  0  0  0  0  0  0
    0.1758   12.3735   -6.8057 N   0  0  0  0  0  0  0  0  0  0  0  0
   -0.8094   11.5620   -7.1791 C   0  0  0  0  0  0  0  0  0  0  0  0
    0.4060   14.5705   -5.9896 C   0  0  0  0  0  0  0  0  0  0  0  0
   -5.6528   14.0066  -14.2746 O   0  0  0  0  0  0  0  0  0  0  0  0
   -6.0747   12.2631   -9.8555 H   0  0  0  0  0  0  0  0  0  0  0  0
   -8.6945   10.7862  -13.4115 H   0  0  0  0  0  0  0  0  0  0  0  0
   -7.2021    9.8287  -13.6992 H   0  0  0  0  0  0  0  0  0  0  0  0
   -7.5989   12.5237  -13.5575 H   0  0  0  0  0  0  0  0  0  0  0  0
   -6.1027   11.5654  -13.8217 H   0  0  0  0  0  0  0  0  0  0  0  0
   -8.0279    9.5798   -7.2599 H   0  0  0  0  0  0  0  0  0  0  0  0
   -4.2429   16.0373  -13.8548 H   0  0  0  0  0  0  0  0  0  0  0  0
   -4.9638   16.2086  -12.2185 H   0  0  0  0  0  0  0  0  0  0  0  0
   -3.4785   15.2246  -12.4471 H   0  0  0  0  0  0  0  0  0  0  0  0
   -5.2347   13.9076  -11.1670 H   0  0  0  0  0  0  0  0  0  0  0  0
   -6.7526   12.3233   -6.9261 H   0  0  0  0  0  0  0  0  0  0  0  0
   -4.5246   13.2972   -6.4815 H   0  0  0  0  0  0  0  0  0  0  0  0
   -2.6730    9.7536   -8.0506 H   0  0  0  0  0  0  0  0  0  0  0  0
   -4.8993    8.7846   -8.4743 H   0  0  0  0  0  0  0  0  0  0  0  0
   -2.4278   14.2202   -6.2127 H   0  0  0  0  0  0  0  0  0  0  0  0
   -0.6614   10.5729   -7.5868 H   0  0  0  0  0  0  0  0  0  0  0  0
    1.4672   14.2904   -6.0634 H   0  0  0  0  0  0  0  0  0  0  0  0
    0.2117   15.4427   -6.6311 H   0  0  0  0  0  0  0  0  0  0  0  0
    0.1649   14.8218   -4.9462 H   0  0  0  0  0  0  0  0  0  0  0  0
  1  2  2  0  0  0  0
  1  4  1  0  0  0  0
  1 13  1  0  0  0  0
  2  6  1  0  0  0  0
  3  4  1  0  0  0  0
  3  5  1  0  0  0  0
  5  6  2  0  0  0  0
  5  9  1  0  0  0  0
  6  7  1  0  0  0  0
  7  8  1  0  0  0  0
  7 10  2  3  0  0  0
  8  9  2  0  0  0  0
 10 14  1  0  0  0  0
 11 12  1  0  0  0  0
 11 13  1  0  0  0  0
 11 26  2  0  0  0  0
 14 15  2  0  0  0  0
 14 19  1  0  0  0  0
 15 16  1  0  0  0  0
 16 17  2  0  0  0  0
 17 18  1  0  0  0  0
 17 20  1  0  0  0  0
 18 19  2  0  0  0  0
 20 21  2  0  0  0  0
 20 24  1  0  0  0  0
 21 22  1  0  0  0  0
 22 23  1  0  0  0  0
 22 25  1  0  0  0  0
 23 24  2  0  0  0  0
  2 27  1  0  0  0  0
  3 28  1  0  0  0  0
  3 29  1  0  0  0  0
  4 30  1  0  0  0  0
  4 31  1  0  0  0  0
 10 32  1  0  0  0  0
 12 33  1  0  0  0  0
 12 34  1  0  0  0  0
 12 35  1  0  0  0  0
 13 36  1  0  0  0  0
 15 37  1  0  0  0  0
 16 38  1  0  0  0  0
 18 39  1  0  0  0  0
 19 40  1  0  0  0  0
 21 41  1  0  0  0  0
 24 42  1  0  0  0  0
 25 43  1  0  0  0  0
 25 44  1  0  0  0  0
 25 45  1  0  0  0  0
M  END
> <Name>
24

> <IC50[uM]>
0.029

$$$$
24
  -OEChem-05192314333D
 Structure written by MMmdl.
 45 48  0     1  0  0  0  0  0999 V2000
   -6.3515   12.3530  -11.9813 C   0  0  0  0  0  0  0  0  0  0  0  0
   -6.5085   11.7912  -10.7247 C   0  0  0  0  0  0  0  0  0  0  0  0
   -7.6802   10.5716  -13.0438 C   0  0  0  0  0  0  0  0  0  0  0  0
   -6.9296   11.7657  -13.1245 C   0  0  0  0  0  0  0  0  0  0  0  0
   -7.7980   10.0044  -11.7669 C   0  0  0  0  0  0  0  0  0  0  0  0
   -7.2328   10.6109  -10.5989 C   0  0  0  0  0  0  0  0  0  0  0  0
   -7.6209    9.7375   -9.5162 C   0  0  0  0  0  0  0  0  0  0  0  0
   -8.2754    8.7446   -9.9970 N   0  0  0  0  0  0  0  0  0  0  0  0
   -8.4233    8.8800  -11.3218 N   0  0  0  0  0  0  0  0  0  0  0  0
   -7.3328    9.8812   -8.0296 C   0  0  0  0  0  0  0  0  0  0  0  0
   -5.3004   14.2773  -13.1499 C   0  0  0  0  0  0  0  0  0  0  0  0
   -4.4346   15.5261  -12.8998 C   0  0  0  0  0  0  0  0  0  0  0  0
   -5.5896   13.5586  -12.0343 N   0  0  0  0  0  0  0  0  0  0  0  0
   -5.9706   10.4906   -7.7317 C   0  0  0  0  0  0  0  0  0  0  0  0
   -5.8616   11.7632   -7.1684 C   0  0  0  0  0  0  0  0  0  0  0  0
   -4.6051   12.3126   -6.9180 C   0  0  0  0  0  0  0  0  0  0  0  0
   -3.4544   11.5948   -7.2294 C   0  0  3  0  0  0  0  0  0  0  0  0
   -3.5626   10.3128   -7.8011 C   0  0  0  0  0  0  0  0  0  0  0  0
   -4.8160    9.7710   -8.0425 C   0  0  0  0  0  0  0  0  0  0  0  0
   -2.1083   12.1736   -6.9694 C   0  0  0  0  0  0  0  0  0  0  0  0
   -1.7503   13.4247   -6.4858 C   0  0  0  0  0  0  0  0  0  0  0  0
   -0.4131   13.4674   -6.4189 N   0  0  0  0  0  0  0  0  0  0  0  0
    0.1758   12.3735   -6.8057 N   0  0  0  0  0  0  0  0  0  0  0  0
   -0.8094   11.5620   -7.1791 C   0  0  0  0  0  0  0  0  0  0  0  0
    0.4060   14.5705   -5.9896 C   0  0  0  0  0  0  0  0  0  0  0  0
   -5.6528   14.0066  -14.2746 O   0  0  0  0  0  0  0  0  0  0  0  0
   -6.0747   12.2631   -9.8555 H   0  0  0  0  0  0  0  0  0  0  0  0
   -8.1361   10.1224  -13.9137 H   0  0  0  0  0  0  0  0  0  0  0  0
   -6.7956   12.2399  -14.0855 H   0  0  0  0  0  0  0  0  0  0  0  0
   -8.0279    9.5798   -7.2599 H   0  0  0  0  0  0  0  0  0  0  0  0
   -4.2429   16.0373  -13.8548 H   0  0  0  0  0  0  0  0  0  0  0  0
   -4.9638   16.2086  -12.2185 H   0  0  0  0  0  0  0  0  0  0  0  0
   -3.4785   15.2246  -12.4471 H   0  0  0  0  0  0  0  0  0  0  0  0
   -5.2347   13.9076  -11.1670 H   0  0  0  0  0  0  0  0  0  0  0  0
   -6.7526   12.3233   -6.9261 H   0  0  0  0  0  0  0  0  0  0  0  0
   -4.5531   13.2553   -7.4825 H   0  0  0  0  0  0  0  0  0  0  0  0
   -4.5624   12.5279   -5.8401 H   0  0  0  0  0  0  0  0  0  0  0  0
   -3.4585   11.1486   -6.2240 H   0  0  0  0  0  0  0  0  0  0  0  0
   -2.6730    9.7536   -8.0506 H   0  0  0  0  0  0  0  0  0  0  0  0
   -4.8993    8.7846   -8.4743 H   0  0  0  0  0  0  0  0  0  0  0  0
   -2.4278   14.2202   -6.2127 H   0  0  0  0  0  0  0  0  0  0  0  0
   -0.6614   10.5729   -7.5868 H   0  0  0  0  0  0  0  0  0  0  0  0
    1.4672   14.2904   -6.0634 H   0  0  0  0  0  0  0  0  0  0  0  0
    0.2117   15.4427   -6.6311 H   0  0  0  0  0  0  0  0  0  0  0  0
    0.1649   14.8218   -4.9462 H   0  0  0  0  0  0  0  0  0  0  0  0
  1  2  2  0  0  0  0
  1  4  1  0  0  0  0
  1 13  1  0  0  0  0
  2  6  1  0  0  0  0
  3  4  2  0  0  0  0
  3  5  1  0  0  0  0
  5  6  2  0  0  0  0
  5  9  1  0  0  0  0
  6  7  1  0  0  0  0
  7  8  1  0  0  0  0
  7 10  2  3  0  0  0
  8  9  2  0  0  0  0
 10 14  1  0  0  0  0
 11 12  1  0  0  0  0
 11 13  1  0  0  0  0
 11 26  2  0  0  0  0
 14 15  2  0  0  0  0
 14 19  1  0  0  0  0
 15 16  1  0  0  0  0
 16 17  1  0  0  0  0
 17 18  1  0  0  0  0
 17 20  1  0  0  0  0
 18 19  2  0  0  0  0
 20 21  2  0  0  0  0
 20 24  1  0  0  0  0
 21 22  1  0  0  0  0
 22 23  1  0  0  0  0
 22 25  1  0  0  0  0
 23 24  2  0  0  0  0
  2 27  1  0  0  0  0
  3 28  1  0  0  0  0
  4 29  1  0  0  0  0
 10 30  1  0  0  0  0
 12 31  1  0  0  0  0
 12 32  1  0  0  0  0
 12 33  1  0  0  0  0
 13 34  1  0  0  0  0
 15 35  1  0  0  0  0
 16 36  1  0  0  0  0
 16 37  1  0  0  0  0
 17 38  1  0  0  0  0
 18 39  1  0  0  0  0
 19 40  1  0  0  0  0
 21 41  1  0  0  0  0
 24 42  1  0  0  0  0
 25 43  1  0  0  0  0
 25 44  1  0  0  0  0
 25 45  1  0  0  0  0
M  END
> <Name>
24

> <IC50[uM]>
0.029

$$$$
24
  -OEChem-05192314333D
 Structure written by MMmdl.
 45 48  0     1  0  0  0  0  0999 V2000
   -6.3515   12.3530  -11.9813 C   0  0  0  0  0  0  0  0  0  0  0  0
   -6.5085   11.7912  -10.7247 C   0  0  0  0  0  0  0  0  0  0  0  0
   -7.6802   10.5716  -13.0438 C   0  0  0  0  0  0  0  0  0  0  0  0
   -6.9296   11.7657  -13.1245 C   0  0  0  0  0  0  0  0  0  0  0  0
   -7.7980   10.0044  -11.7669 C   0  0  0  0  0  0  0  0  0  0  0  0
   -7.2328   10.6109  -10.5989 C   0  0  0  0  0  0  0  0  0  0  0  0
   -7.6209    9.7375   -9.5162 C   0  0  0  0  0  0  0  0  0  0  0  0
   -8.2754    8.7446   -9.9970 N   0  0  0  0  0  0  0  0  0  0  0  0
   -8.4233    8.8800  -11.3218 N   0  0  0  0  0  0  0  0  0  0  0  0
   -7.3328    9.8812   -8.0296 C   0  0  0  0  0  0  0  0  0  0  0  0
   -5.3004   14.2773  -13.1499 C   0  0  0  0  0  0  0  0  0  0  0  0
   -4.4346   15.5261  -12.8998 C   0  0  0  0  0  0  0  0  0  0  0  0
   -5.5896   13.5586  -12.0343 N   0  0  0  0  0  0  0  0  0  0  0  0
   -5.9706   10.4906   -7.7317 C   0  0  3  0  0  0  0  0  0  0  0  0
   -5.8616   11.7632   -7.1684 C   0  0  0  0  0  0  0  0  0  0  0  0
   -4.6051   12.3126   -6.9180 C   0  0  0  0  0  0  0  0  0  0  0  0
   -3.4544   11.5948   -7.2294 C   0  0  0  0  0  0  0  0  0  0  0  0
   -3.5626   10.3128   -7.8011 C   0  0  0  0  0  0  0  0  0  0  0  0
   -4.8160    9.7710   -8.0425 C   0  0  0  0  0  0  0  0  0  0  0  0
   -2.1083   12.1736   -6.9694 C   0  0  0  0  0  0  0  0  0  0  0  0
   -1.7503   13.4247   -6.4858 C   0  0  0  0  0  0  0  0  0  0  0  0
   -0.4131   13.4674   -6.4189 N   0  0  0  0  0  0  0  0  0  0  0  0
    0.1758   12.3735   -6.8057 N   0  0  0  0  0  0  0  0  0  0  0  0
   -0.8094   11.5620   -7.1791 C   0  0  0  0  0  0  0  0  0  0  0  0
    0.4060   14.5705   -5.9896 C   0  0  0  0  0  0  0  0  0  0  0  0
   -5.6528   14.0066  -14.2746 O   0  0  0  0  0  0  0  0  0  0  0  0
   -6.0747   12.2631   -9.8555 H   0  0  0  0  0  0  0  0  0  0  0  0
   -8.1361   10.1224  -13.9137 H   0  0  0  0  0  0  0  0  0  0  0  0
   -6.7956   12.2399  -14.0855 H   0  0  0  0  0  0  0  0  0  0  0  0
   -8.0279    9.5798   -7.2599 H   0  0  0  0  0  0  0  0  0  0  0  0
   -4.2429   16.0373  -13.8548 H   0  0  0  0  0  0  0  0  0  0  0  0
   -4.9638   16.2086  -12.2185 H   0  0  0  0  0  0  0  0  0  0  0  0
   -3.4785   15.2246  -12.4471 H   0  0  0  0  0  0  0  0  0  0  0  0
   -5.2347   13.9076  -11.1670 H   0  0  0  0  0  0  0  0  0  0  0  0
   -5.9851   10.0423   -6.7273 H   0  0  0  0  0  0  0  0  0  0  0  0
   -6.7526   12.3233   -6.9261 H   0  0  0  0  0  0  0  0  0  0  0  0
   -4.5246   13.2972   -6.4815 H   0  0  0  0  0  0  0  0  0  0  0  0
   -2.6730    9.7536   -8.0506 H   0  0  0  0  0  0  0  0  0  0  0  0
   -4.8679    8.8310   -7.4736 H   0  0  0  0  0  0  0  0  0  0  0  0
   -4.8621    9.5509   -9.1193 H   0  0  0  0  0  0  0  0  0  0  0  0
   -2.4278   14.2202   -6.2127 H   0  0  0  0  0  0  0  0  0  0  0  0
   -0.6614   10.5729   -7.5868 H   0  0  0  0  0  0  0  0  0  0  0  0
    1.4672   14.2904   -6.0634 H   0  0  0  0  0  0  0  0  0  0  0  0
    0.2117   15.4427   -6.6311 H   0  0  0  0  0  0  0  0  0  0  0  0
    0.1649   14.8218   -4.9462 H   0  0  0  0  0  0  0  0  0  0  0  0
  1  2  2  0  0  0  0
  1  4  1  0  0  0  0
  1 13  1  0  0  0  0
  2  6  1  0  0  0  0
  3  4  2  0  0  0  0
  3  5  1  0  0  0  0
  5  6  2  0  0  0  0
  5  9  1  0  0  0  0
  6  7  1  0  0  0  0
  7  8  1  0  0  0  0
  7 10  2  3  0  0  0
  8  9  2  0  0  0  0
 10 14  1  0  0  0  0
 11 12  1  0  0  0  0
 11 13  1  0  0  0  0
 11 26  2  0  0  0  0
 14 15  1  0  0  0  0
 14 19  1  0  0  0  0
 15 16  2  0  0  0  0
 16 17  1  0  0  0  0
 17 18  2  0  0  0  0
 17 20  1  0  0  0  0
 18 19  1  0  0  0  0
 20 21  2  0  0  0  0
 20 24  1  0  0  0  0
 21 22  1  0  0  0  0
 22 23  1  0  0  0  0
 22 25  1  0  0  0  0
 23 24  2  0  0  0  0
  2 27  1  0  0  0  0
  3 28  1  0  0  0  0
  4 29  1  0  0  0  0
 10 30  1  0  0  0  0
 12 31  1  0  0  0  0
 12 32  1  0  0  0  0
 12 33  1  0  0  0  0
 13 34  1  0  0  0  0
 14 35  1  0  0  0  0
 15 36  1  0  0  0  0
 16 37  1  0  0  0  0
 18 38  1  0  0  0  0
 19 39  1  0  0  0  0
 19 40  1  0  0  0  0
 21 41  1  0  0  0  0
 24 42  1  0  0  0  0
 25 43  1  0  0  0  0
 25 44  1  0  0  0  0
 25 45  1  0  0  0  0
M  END
> <Name>
24

> <IC50[uM]>
0.029

$$$$
24
  -OEChem-05192314333D
 Structure written by MMmdl.
 45 48  0     1  0  0  0  0  0999 V2000
   -6.3515   12.3530  -11.9813 C   0  0  0  0  0  0  0  0  0  0  0  0
   -6.5085   11.7912  -10.7247 C   0  0  0  0  0  0  0  0  0  0  0  0
   -7.6802   10.5716  -13.0438 C   0  0  0  0  0  0  0  0  0  0  0  0
   -6.9296   11.7657  -13.1245 C   0  0  0  0  0  0  0  0  0  0  0  0
   -7.7980   10.0044  -11.7669 C   0  0  0  0  0  0  0  0  0  0  0  0
   -7.2328   10.6109  -10.5989 C   0  0  0  0  0  0  0  0  0  0  0  0
   -7.6209    9.7375   -9.5162 C   0  0  3  0  0  0  0  0  0  0  0  0
   -8.2754    8.7446   -9.9970 N   0  0  0  0  0  0  0  0  0  0  0  0
   -8.4233    8.8800  -11.3218 N   0  0  0  0  0  0  0  0  0  0  0  0
   -7.3328    9.8812   -8.0296 C   0  0  0  0  0  0  0  0  0  0  0  0
   -5.3004   14.2773  -13.1499 C   0  0  0  0  0  0  0  0  0  0  0  0
   -4.4346   15.5261  -12.8998 C   0  0  0  0  0  0  0  0  0  0  0  0
   -5.5896   13.5586  -12.0343 N   0  0  0  0  0  0  0  0  0  0  0  0
   -5.9706   10.4906   -7.7317 C   0  0  0  0  0  0  0  0  0  0  0  0
   -5.8616   11.7632   -7.1684 C   0  0  0  0  0  0  0  0  0  0  0  0
   -4.6051   12.3126   -6.9180 C   0  0  0  0  0  0  0  0  0  0  0  0
   -3.4544   11.5948   -7.2294 C   0  0  0  0  0  0  0  0  0  0  0  0
   -3.5626   10.3128   -7.8011 C   0  0  0  0  0  0  0  0  0  0  0  0
   -4.8160    9.7710   -8.0425 C   0  0  0  0  0  0  0  0  0  0  0  0
   -2.1083   12.1736   -6.9694 C   0  0  0  0  0  0  0  0  0  0  0  0
   -1.7503   13.4247   -6.4858 C   0  0  0  0  0  0  0  0  0  0  0  0
   -0.4131   13.4674   -6.4189 N   0  0  0  0  0  0  0  0  0  0  0  0
    0.1758   12.3735   -6.8057 N   0  0  0  0  0  0  0  0  0  0  0  0
   -0.8094   11.5620   -7.1791 C   0  0  0  0  0  0  0  0  0  0  0  0
    0.4060   14.5705   -5.9896 C   0  0  0  0  0  0  0  0  0  0  0  0
   -5.6528   14.0066  -14.2746 O   0  0  0  0  0  0  0  0  0  0  0  0
   -6.0747   12.2631   -9.8555 H   0  0  0  0  0  0  0  0  0  0  0  0
   -8.1361   10.1224  -13.9137 H   0  0  0  0  0  0  0  0  0  0  0  0
   -6.7956   12.2399  -14.0855 H   0  0  0  0  0  0  0  0  0  0  0  0
   -8.5577   10.3007   -9.3927 H   0  0  0  0  0  0  0  0  0  0  0  0
   -8.0279    9.5798   -7.2599 H   0  0  0  0  0  0  0  0  0  0  0  0
   -4.2429   16.0373  -13.8548 H   0  0  0  0  0  0  0  0  0  0  0  0
   -4.9638   16.2086  -12.2185 H   0  0  0  0  0  0  0  0  0  0  0  0
   -3.4785   15.2246  -12.4471 H   0  0  0  0  0  0  0  0  0  0  0  0
   -5.2347   13.9076  -11.1670 H   0  0  0  0  0  0  0  0  0  0  0  0
   -6.7526   12.3233   -6.9261 H   0  0  0  0  0  0  0  0  0  0  0  0
   -4.5246   13.2972   -6.4815 H   0  0  0  0  0  0  0  0  0  0  0  0
   -2.6730    9.7536   -8.0506 H   0  0  0  0  0  0  0  0  0  0  0  0
   -4.8679    8.8310   -7.4736 H   0  0  0  0  0  0  0  0  0  0  0  0
   -4.8621    9.5509   -9.1193 H   0  0  0  0  0  0  0  0  0  0  0  0
   -2.4278   14.2202   -6.2127 H   0  0  0  0  0  0  0  0  0  0  0  0
   -0.6614   10.5729   -7.5868 H   0  0  0  0  0  0  0  0  0  0  0  0
    1.4672   14.2904   -6.0634 H   0  0  0  0  0  0  0  0  0  0  0  0
    0.2117   15.4427   -6.6311 H   0  0  0  0  0  0  0  0  0  0  0  0
    0.1649   14.8218   -4.9462 H   0  0  0  0  0  0  0  0  0  0  0  0
  1  2  2  0  0  0  0
  1  4  1  0  0  0  0
  1 13  1  0  0  0  0
  2  6  1  0  0  0  0
  3  4  2  0  0  0  0
  3  5  1  0  0  0  0
  5  6  2  0  0  0  0
  5  9  1  0  0  0  0
  6  7  1  0  0  0  0
  7  8  1  0  0  0  0
  7 10  1  0  0  0  0
  8  9  2  0  0  0  0
 10 14  2  3  0  0  0
 11 12  1  0  0  0  0
 11 13  1  0  0  0  0
 11 26  2  0  0  0  0
 14 15  1  0  0  0  0
 14 19  1  0  0  0  0
 15 16  2  0  0  0  0
 16 17  1  0  0  0  0
 17 18  2  0  0  0  0
 17 20  1  0  0  0  0
 18 19  1  0  0  0  0
 20 21  2  0  0  0  0
 20 24  1  0  0  0  0
 21 22  1  0  0  0  0
 22 23  1  0  0  0  0
 22 25  1  0  0  0  0
 23 24  2  0  0  0  0
  2 27  1  0  0  0  0
  3 28  1  0  0  0  0
  4 29  1  0  0  0  0
  7 30  1  0  0  0  0
 10 31  1  0  0  0  0
 12 32  1  0  0  0  0
 12 33  1  0  0  0  0
 12 34  1  0  0  0  0
 13 35  1  0  0  0  0
 15 36  1  0  0  0  0
 16 37  1  0  0  0  0
 18 38  1  0  0  0  0
 19 39  1  0  0  0  0
 19 40  1  0  0  0  0
 21 41  1  0  0  0  0
 24 42  1  0  0  0  0
 25 43  1  0  0  0  0
 25 44  1  0  0  0  0
 25 45  1  0  0  0  0
M  END
> <Name>
24

> <IC50[uM]>
0.029

$$$$
24
  -OEChem-05192314333D
 Structure written by MMmdl.
 45 48  0     0  0  0  0  0  0999 V2000
   -6.3515   12.3530  -11.9813 C   0  0  0  0  0  0  0  0  0  0  0  0
   -6.5085   11.7912  -10.7247 C   0  0  0  0  0  0  0  0  0  0  0  0
   -7.6802   10.5716  -13.0438 C   0  0  0  0  0  0  0  0  0  0  0  0
   -6.9296   11.7657  -13.1245 C   0  0  0  0  0  0  0  0  0  0  0  0
   -7.7980   10.0044  -11.7669 C   0  0  0  0  0  0  0  0  0  0  0  0
   -7.2328   10.6109  -10.5989 C   0  0  0  0  0  0  0  0  0  0  0  0
   -7.6209    9.7375   -9.5162 C   0  0  0  0  0  0  0  0  0  0  0  0
   -8.2754    8.7446   -9.9970 N   0  0  0  0  0  0  0  0  0  0  0  0
   -8.4233    8.8800  -11.3218 N   0  0  0  0  0  0  0  0  0  0  0  0
   -7.3328    9.8812   -8.0296 C   0  0  0  0  0  0  0  0  0  0  0  0
   -5.3004   14.2773  -13.1499 C   0  0  0  0  0  0  0  0  0  0  0  0
   -4.4346   15.5261  -12.8998 C   0  0  0  0  0  0  0  0  0  0  0  0
   -5.5896   13.5586  -12.0343 N   0  0  0  0  0  0  0  0  0  0  0  0
   -5.9706   10.4906   -7.7317 C   0  0  0  0  0  0  0  0  0  0  0  0
   -5.8616   11.7632   -7.1684 C   0  0  0  0  0  0  0  0  0  0  0  0
   -4.6051   12.3126   -6.9180 C   0  0  0  0  0  0  0  0  0  0  0  0
   -3.4544   11.5948   -7.2294 C   0  0  0  0  0  0  0  0  0  0  0  0
   -3.5626   10.3128   -7.8011 C   0  0  0  0  0  0  0  0  0  0  0  0
   -4.8160    9.7710   -8.0425 C   0  0  0  0  0  0  0  0  0  0  0  0
   -2.1083   12.1736   -6.9694 C   0  0  0  0  0  0  0  0  0  0  0  0
   -1.7503   13.4247   -6.4858 C   0  0  0  0  0  0  0  0  0  0  0  0
   -0.4131   13.4674   -6.4189 N   0  0  0  0  0  0  0  0  0  0  0  0
    0.1758   12.3735   -6.8057 N   0  0  0  0  0  0  0  0  0  0  0  0
   -0.8094   11.5620   -7.1791 C   0  0  0  0  0  0  0  0  0  0  0  0
    0.4060   14.5705   -5.9896 C   0  0  0  0  0  0  0  0  0  0  0  0
   -5.6528   14.0066  -14.2746 O   0  0  0  0  0  0  0  0  0  0  0  0
   -6.0747   12.2631   -9.8555 H   0  0  0  0  0  0  0  0  0  0  0  0
   -8.1361   10.1224  -13.9137 H   0  0  0  0  0  0  0  0  0  0  0  0
   -6.7956   12.2399  -14.0855 H   0  0  0  0  0  0  0  0  0  0  0  0
   -8.0279    9.5798   -7.2599 H   0  0  0  0  0  0  0  0  0  0  0  0
   -4.2429   16.0373  -13.8548 H   0  0  0  0  0  0  0  0  0  0  0  0
   -4.9638   16.2086  -12.2185 H   0  0  0  0  0  0  0  0  0  0  0  0
   -3.4785   15.2246  -12.4471 H   0  0  0  0  0  0  0  0  0  0  0  0
   -5.2347   13.9076  -11.1670 H   0  0  0  0  0  0  0  0  0  0  0  0
   -6.7526   12.3233   -6.9261 H   0  0  0  0  0  0  0  0  0  0  0  0
   -4.5531   13.2553   -7.4825 H   0  0  0  0  0  0  0  0  0  0  0  0
   -4.5624   12.5279   -5.8401 H   0  0  0  0  0  0  0  0  0  0  0  0
   -2.6730    9.7536   -8.0506 H   0  0  0  0  0  0  0  0  0  0  0  0
   -4.8679    8.8310   -7.4736 H   0  0  0  0  0  0  0  0  0  0  0  0
   -4.8621    9.5509   -9.1193 H   0  0  0  0  0  0  0  0  0  0  0  0
   -2.4278   14.2202   -6.2127 H   0  0  0  0  0  0  0  0  0  0  0  0
   -0.6614   10.5729   -7.5868 H   0  0  0  0  0  0  0  0  0  0  0  0
    1.4672   14.2904   -6.0634 H   0  0  0  0  0  0  0  0  0  0  0  0
    0.2117   15.4427   -6.6311 H   0  0  0  0  0  0  0  0  0  0  0  0
    0.1649   14.8218   -4.9462 H   0  0  0  0  0  0  0  0  0  0  0  0
  1  2  2  0  0  0  0
  1  4  1  0  0  0  0
  1 13  1  0  0  0  0
  2  6  1  0  0  0  0
  3  4  2  0  0  0  0
  3  5  1  0  0  0  0
  5  6  2  0  0  0  0
  5  9  1  0  0  0  0
  6  7  1  0  0  0  0
  7  8  1  0  0  0  0
  7 10  2  3  0  0  0
  8  9  2  0  0  0  0
 10 14  1  0  0  0  0
 11 12  1  0  0  0  0
 11 13  1  0  0  0  0
 11 26  2  0  0  0  0
 14 15  2  0  0  0  0
 14 19  1  0  0  0  0
 15 16  1  0  0  0  0
 16 17  1  0  0  0  0
 17 18  2  0  0  0  0
 17 20  1  0  0  0  0
 18 19  1  0  0  0  0
 20 21  2  0  0  0  0
 20 24  1  0  0  0  0
 21 22  1  0  0  0  0
 22 23  1  0  0  0  0
 22 25  1  0  0  0  0
 23 24  2  0  0  0  0
  2 27  1  0  0  0  0
  3 28  1  0  0  0  0
  4 29  1  0  0  0  0
 10 30  1  0  0  0  0
 12 31  1  0  0  0  0
 12 32  1  0  0  0  0
 12 33  1  0  0  0  0
 13 34  1  0  0  0  0
 15 35  1  0  0  0  0
 16 36  1  0  0  0  0
 16 37  1  0  0  0  0
 18 38  1  0  0  0  0
 19 39  1  0  0  0  0
 19 40  1  0  0  0  0
 21 41  1  0  0  0  0
 24 42  1  0  0  0  0
 25 43  1  0  0  0  0
 25 44  1  0  0  0  0
 25 45  1  0  0  0  0
M  END
> <Name>
24

> <IC50[uM]>
0.029

$$$$
24
  -OEChem-05192314333D
 Structure written by MMmdl.
 45 48  0     0  0  0  0  0  0999 V2000
   -6.3515   12.3530  -11.9813 C   0  0  0  0  0  0  0  0  0  0  0  0
   -6.5085   11.7912  -10.7247 C   0  0  0  0  0  0  0  0  0  0  0  0
   -7.6802   10.5716  -13.0438 C   0  0  0  0  0  0  0  0  0  0  0  0
   -6.9296   11.7657  -13.1245 C   0  0  0  0  0  0  0  0  0  0  0  0
   -7.7980   10.0044  -11.7669 C   0  0  0  0  0  0  0  0  0  0  0  0
   -7.2328   10.6109  -10.5989 C   0  0  0  0  0  0  0  0  0  0  0  0
   -7.6209    9.7375   -9.5162 C   0  0  0  0  0  0  0  0  0  0  0  0
   -8.2754    8.7446   -9.9970 N   0  0  0  0  0  0  0  0  0  0  0  0
   -8.4233    8.8800  -11.3218 N   0  0  0  0  0  0  0  0  0  0  0  0
   -7.3328    9.8812   -8.0296 C   0  0  0  0  0  0  0  0  0  0  0  0
   -5.3004   14.2773  -13.1499 C   0  0  0  0  0  0  0  0  0  0  0  0
   -4.4346   15.5261  -12.8998 C   0  0  0  0  0  0  0  0  0  0  0  0
   -5.5896   13.5586  -12.0343 N   0  0  0  0  0  0  0  0  0  0  0  0
   -5.9706   10.4906   -7.7317 C   0  0  0  0  0  0  0  0  0  0  0  0
   -5.8616   11.7632   -7.1684 C   0  0  0  0  0  0  0  0  0  0  0  0
   -4.6051   12.3126   -6.9180 C   0  0  0  0  0  0  0  0  0  0  0  0
   -3.4544   11.5948   -7.2294 C   0  0  0  0  0  0  0  0  0  0  0  0
   -3.5626   10.3128   -7.8011 C   0  0  0  0  0  0  0  0  0  0  0  0
   -4.8160    9.7710   -8.0425 C   0  0  0  0  0  0  0  0  0  0  0  0
   -2.1083   12.1736   -6.9694 C   0  0  0  0  0  0  0  0  0  0  0  0
   -1.7503   13.4247   -6.4858 C   0  0  0  0  0  0  0  0  0  0  0  0
   -0.4131   13.4674   -6.4189 N   0  0  0  0  0  0  0  0  0  0  0  0
    0.1758   12.3735   -6.8057 N   0  0  0  0  0  0  0  0  0  0  0  0
   -0.8094   11.5620   -7.1791 C   0  0  0  0  0  0  0  0  0  0  0  0
    0.4060   14.5705   -5.9896 C   0  0  0  0  0  0  0  0  0  0  0  0
   -5.6528   14.0066  -14.2746 O   0  0  0  0  0  0  0  0  0  0  0  0
   -6.0747   12.2631   -9.8555 H   0  0  0  0  0  0  0  0  0  0  0  0
   -8.1361   10.1224  -13.9137 H   0  0  0  0  0  0  0  0  0  0  0  0
   -6.7956   12.2399  -14.0855 H   0  0  0  0  0  0  0  0  0  0  0  0
   -8.0279    9.5798   -7.2599 H   0  0  0  0  0  0  0  0  0  0  0  0
   -4.2429   16.0373  -13.8548 H   0  0  0  0  0  0  0  0  0  0  0  0
   -4.9638   16.2086  -12.2185 H   0  0  0  0  0  0  0  0  0  0  0  0
   -3.4785   15.2246  -12.4471 H   0  0  0  0  0  0  0  0  0  0  0  0
   -5.2347   13.9076  -11.1670 H   0  0  0  0  0  0  0  0  0  0  0  0
   -6.7526   12.3233   -6.9261 H   0  0  0  0  0  0  0  0  0  0  0  0
   -4.5246   13.2972   -6.4815 H   0  0  0  0  0  0  0  0  0  0  0  0
   -3.0396   10.3498   -8.7681 H   0  0  0  0  0  0  0  0  0  0  0  0
   -3.0393    9.6182   -7.1276 H   0  0  0  0  0  0  0  0  0  0  0  0
   -4.8679    8.8310   -7.4736 H   0  0  0  0  0  0  0  0  0  0  0  0
   -4.8621    9.5509   -9.1193 H   0  0  0  0  0  0  0  0  0  0  0  0
   -2.4278   14.2202   -6.2127 H   0  0  0  0  0  0  0  0  0  0  0  0
   -0.6614   10.5729   -7.5868 H   0  0  0  0  0  0  0  0  0  0  0  0
    1.4672   14.2904   -6.0634 H   0  0  0  0  0  0  0  0  0  0  0  0
    0.2117   15.4427   -6.6311 H   0  0  0  0  0  0  0  0  0  0  0  0
    0.1649   14.8218   -4.9462 H   0  0  0  0  0  0  0  0  0  0  0  0
  1  2  2  0  0  0  0
  1  4  1  0  0  0  0
  1 13  1  0  0  0  0
  2  6  1  0  0  0  0
  3  4  2  0  0  0  0
  3  5  1  0  0  0  0
  5  6  2  0  0  0  0
  5  9  1  0  0  0  0
  6  7  1  0  0  0  0
  7  8  1  0  0  0  0
  7 10  2  3  0  0  0
  8  9  2  0  0  0  0
 10 14  1  0  0  0  0
 11 12  1  0  0  0  0
 11 13  1  0  0  0  0
 11 26  2  0  0  0  0
 14 15  2  0  0  0  0
 14 19  1  0  0  0  0
 15 16  1  0  0  0  0
 16 17  2  0  0  0  0
 17 18  1  0  0  0  0
 17 20  1  0  0  0  0
 18 19  1  0  0  0  0
 20 21  2  0  0  0  0
 20 24  1  0  0  0  0
 21 22  1  0  0  0  0
 22 23  1  0  0  0  0
 22 25  1  0  0  0  0
 23 24  2  0  0  0  0
  2 27  1  0  0  0  0
  3 28  1  0  0  0  0
  4 29  1  0  0  0  0
 10 30  1  0  0  0  0
 12 31  1  0  0  0  0
 12 32  1  0  0  0  0
 12 33  1  0  0  0  0
 13 34  1  0  0  0  0
 15 35  1  0  0  0  0
 16 36  1  0  0  0  0
 18 37  1  0  0  0  0
 18 38  1  0  0  0  0
 19 39  1  0  0  0  0
 19 40  1  0  0  0  0
 21 41  1  0  0  0  0
 24 42  1  0  0  0  0
 25 43  1  0  0  0  0
 25 44  1  0  0  0  0
 25 45  1  0  0  0  0
M  END
> <Name>
24

> <IC50[uM]>
0.029

$$$$
24
  -OEChem-05192314333D
 Structure written by MMmdl.
 45 48  0     1  0  0  0  0  0999 V2000
   -6.3515   12.3530  -11.9813 C   0  0  0  0  0  0  0  0  0  0  0  0
   -6.5085   11.7912  -10.7247 C   0  0  0  0  0  0  0  0  0  0  0  0
   -7.6802   10.5716  -13.0438 C   0  0  0  0  0  0  0  0  0  0  0  0
   -6.9296   11.7657  -13.1245 C   0  0  0  0  0  0  0  0  0  0  0  0
   -7.7980   10.0044  -11.7669 C   0  0  0  0  0  0  0  0  0  0  0  0
   -7.2328   10.6109  -10.5989 C   0  0  3  0  0  0  0  0  0  0  0  0
   -7.6209    9.7375   -9.5162 C   0  0  0  0  0  0  0  0  0  0  0  0
   -8.2754    8.7446   -9.9970 N   0  0  0  0  0  0  0  0  0  0  0  0
   -8.4233    8.8800  -11.3218 N   0  0  0  0  0  0  0  0  0  0  0  0
   -7.3328    9.8812   -8.0296 C   0  0  0  0  0  0  0  0  0  0  0  0
   -5.3004   14.2773  -13.1499 C   0  0  0  0  0  0  0  0  0  0  0  0
   -4.4346   15.5261  -12.8998 C   0  0  0  0  0  0  0  0  0  0  0  0
   -5.5896   13.5586  -12.0343 N   0  0  0  0  0  0  0  0  0  0  0  0
   -5.9706   10.4906   -7.7317 C   0  0  0  0  0  0  0  0  0  0  0  0
   -5.8616   11.7632   -7.1684 C   0  0  0  0  0  0  0  0  0  0  0  0
   -4.6051   12.3126   -6.9180 C   0  0  0  0  0  0  0  0  0  0  0  0
   -3.4544   11.5948   -7.2294 C   0  0  0  0  0  0  0  0  0  0  0  0
   -3.5626   10.3128   -7.8011 C   0  0  0  0  0  0  0  0  0  0  0  0
   -4.8160    9.7710   -8.0425 C   0  0  0  0  0  0  0  0  0  0  0  0
   -2.1083   12.1736   -6.9694 C   0  0  0  0  0  0  0  0  0  0  0  0
   -1.7503   13.4247   -6.4858 C   0  0  0  0  0  0  0  0  0  0  0  0
   -0.4131   13.4674   -6.4189 N   0  0  0  0  0  0  0  0  0  0  0  0
    0.1758   12.3735   -6.8057 N   0  0  0  0  0  0  0  0  0  0  0  0
   -0.8094   11.5620   -7.1791 C   0  0  0  0  0  0  0  0  0  0  0  0
    0.4060   14.5705   -5.9896 C   0  0  0  0  0  0  0  0  0  0  0  0
   -5.6528   14.0066  -14.2746 O   0  0  0  0  0  0  0  0  0  0  0  0
   -5.5002   11.5939  -10.3317 H   0  0  0  0  0  0  0  0  0  0  0  0
   -7.0066   12.5435  -10.0954 H   0  0  0  0  0  0  0  0  0  0  0  0
   -8.1361   10.1224  -13.9137 H   0  0  0  0  0  0  0  0  0  0  0  0
   -6.7956   12.2399  -14.0855 H   0  0  0  0  0  0  0  0  0  0  0  0
   -6.3107   10.0281  -10.7406 H   0  0  0  0  0  0  0  0  0  0  0  0
   -8.0279    9.5798   -7.2599 H   0  0  0  0  0  0  0  0  0  0  0  0
   -4.2429   16.0373  -13.8548 H   0  0  0  0  0  0  0  0  0  0  0  0
   -4.9638   16.2086  -12.2185 H   0  0  0  0  0  0  0  0  0  0  0  0
   -3.4785   15.2246  -12.4471 H   0  0  0  0  0  0  0  0  0  0  0  0
   -5.2347   13.9076  -11.1670 H   0  0  0  0  0  0  0  0  0  0  0  0
   -6.7526   12.3233   -6.9261 H   0  0  0  0  0  0  0  0  0  0  0  0
   -4.5246   13.2972   -6.4815 H   0  0  0  0  0  0  0  0  0  0  0  0
   -2.6730    9.7536   -8.0506 H   0  0  0  0  0  0  0  0  0  0  0  0
   -4.8993    8.7846   -8.4743 H   0  0  0  0  0  0  0  0  0  0  0  0
   -2.4278   14.2202   -6.2127 H   0  0  0  0  0  0  0  0  0  0  0  0
   -0.6614   10.5729   -7.5868 H   0  0  0  0  0  0  0  0  0  0  0  0
    1.4672   14.2904   -6.0634 H   0  0  0  0  0  0  0  0  0  0  0  0
    0.2117   15.4427   -6.6311 H   0  0  0  0  0  0  0  0  0  0  0  0
    0.1649   14.8218   -4.9462 H   0  0  0  0  0  0  0  0  0  0  0  0
  1  2  1  0  0  0  0
  1  4  2  0  0  0  0
  1 13  1  0  0  0  0
  2  6  1  0  0  0  0
  3  4  1  0  0  0  0
  3  5  2  0  0  0  0
  5  6  1  0  0  0  0
  5  9  1  0  0  0  0
  6  7  1  0  0  0  0
  7  8  1  0  0  0  0
  7 10  2  3  0  0  0
  8  9  2  0  0  0  0
 10 14  1  0  0  0  0
 11 12  1  0  0  0  0
 11 13  1  0  0  0  0
 11 26  2  0  0  0  0
 14 15  2  0  0  0  0
 14 19  1  0  0  0  0
 15 16  1  0  0  0  0
 16 17  2  0  0  0  0
 17 18  1  0  0  0  0
 17 20  1  0  0  0  0
 18 19  2  0  0  0  0
 20 21  2  0  0  0  0
 20 24  1  0  0  0  0
 21 22  1  0  0  0  0
 22 23  1  0  0  0  0
 22 25  1  0  0  0  0
 23 24  2  0  0  0  0
  2 27  1  0  0  0  0
  2 28  1  0  0  0  0
  3 29  1  0  0  0  0
  4 30  1  0  0  0  0
  6 31  1  0  0  0  0
 10 32  1  0  0  0  0
 12 33  1  0  0  0  0
 12 34  1  0  0  0  0
 12 35  1  0  0  0  0
 13 36  1  0  0  0  0
 15 37  1  0  0  0  0
 16 38  1  0  0  0  0
 18 39  1  0  0  0  0
 19 40  1  0  0  0  0
 21 41  1  0  0  0  0
 24 42  1  0  0  0  0
 25 43  1  0  0  0  0
 25 44  1  0  0  0  0
 25 45  1  0  0  0  0
M  END
> <Name>
24

> <IC50[uM]>
0.029

$$$$
24
  -OEChem-05192314333D
 Structure written by MMmdl.
 45 48  0     1  0  0  0  0  0999 V2000
   -6.3515   12.3530  -11.9813 C   0  0  3  0  0  0  0  0  0  0  0  0
   -6.5085   11.7912  -10.7247 C   0  0  0  0  0  0  0  0  0  0  0  0
   -7.6802   10.5716  -13.0438 C   0  0  0  0  0  0  0  0  0  0  0  0
   -6.9296   11.7657  -13.1245 C   0  0  0  0  0  0  0  0  0  0  0  0
   -7.7980   10.0044  -11.7669 C   0  0  0  0  0  0  0  0  0  0  0  0
   -7.2328   10.6109  -10.5989 C   0  0  0  0  0  0  0  0  0  0  0  0
   -7.6209    9.7375   -9.5162 C   0  0  0  0  0  0  0  0  0  0  0  0
   -8.2754    8.7446   -9.9970 N   0  0  0  0  0  0  0  0  0  0  0  0
   -8.4233    8.8800  -11.3218 N   0  0  0  0  0  0  0  0  0  0  0  0
   -7.3328    9.8812   -8.0296 C   0  0  0  0  0  0  0  0  0  0  0  0
   -5.3004   14.2773  -13.1499 C   0  0  0  0  0  0  0  0  0  0  0  0
   -4.4346   15.5261  -12.8998 C   0  0  0  0  0  0  0  0  0  0  0  0
   -5.5896   13.5586  -12.0343 N   0  0  0  0  0  0  0  0  0  0  0  0
   -5.9706   10.4906   -7.7317 C   0  0  0  0  0  0  0  0  0  0  0  0
   -5.8616   11.7632   -7.1684 C   0  0  0  0  0  0  0  0  0  0  0  0
   -4.6051   12.3126   -6.9180 C   0  0  0  0  0  0  0  0  0  0  0  0
   -3.4544   11.5948   -7.2294 C   0  0  0  0  0  0  0  0  0  0  0  0
   -3.5626   10.3128   -7.8011 C   0  0  0  0  0  0  0  0  0  0  0  0
   -4.8160    9.7710   -8.0425 C   0  0  0  0  0  0  0  0  0  0  0  0
   -2.1083   12.1736   -6.9694 C   0  0  0  0  0  0  0  0  0  0  0  0
   -1.7503   13.4247   -6.4858 C   0  0  0  0  0  0  0  0  0  0  0  0
   -0.4131   13.4674   -6.4189 N   0  0  0  0  0  0  0  0  0  0  0  0
    0.1758   12.3735   -6.8057 N   0  0  0  0  0  0  0  0  0  0  0  0
   -0.8094   11.5620   -7.1791 C   0  0  0  0  0  0  0  0  0  0  0  0
    0.4060   14.5705   -5.9896 C   0  0  0  0  0  0  0  0  0  0  0  0
   -5.6528   14.0066  -14.2746 O   0  0  0  0  0  0  0  0  0  0  0  0
   -5.4362   11.7628  -12.1356 H   0  0  0  0  0  0  0  0  0  0  0  0
   -5.5002   11.5939  -10.3317 H   0  0  0  0  0  0  0  0  0  0  0  0
   -7.0066   12.5435  -10.0954 H   0  0  0  0  0  0  0  0  0  0  0  0
   -8.1361   10.1224  -13.9137 H   0  0  0  0  0  0  0  0  0  0  0  0
   -6.7956   12.2399  -14.0855 H   0  0  0  0  0  0  0  0  0  0  0  0
   -8.0279    9.5798   -7.2599 H   0  0  0  0  0  0  0  0  0  0  0  0
   -4.2429   16.0373  -13.8548 H   0  0  0  0  0  0  0  0  0  0  0  0
   -4.9638   16.2086  -12.2185 H   0  0  0  0  0  0  0  0  0  0  0  0
   -3.4785   15.2246  -12.4471 H   0  0  0  0  0  0  0  0  0  0  0  0
   -5.2347   13.9076  -11.1670 H   0  0  0  0  0  0  0  0  0  0  0  0
   -6.7526   12.3233   -6.9261 H   0  0  0  0  0  0  0  0  0  0  0  0
   -4.5246   13.2972   -6.4815 H   0  0  0  0  0  0  0  0  0  0  0  0
   -2.6730    9.7536   -8.0506 H   0  0  0  0  0  0  0  0  0  0  0  0
   -4.8993    8.7846   -8.4743 H   0  0  0  0  0  0  0  0  0  0  0  0
   -2.4278   14.2202   -6.2127 H   0  0  0  0  0  0  0  0  0  0  0  0
   -0.6614   10.5729   -7.5868 H   0  0  0  0  0  0  0  0  0  0  0  0
    1.4672   14.2904   -6.0634 H   0  0  0  0  0  0  0  0  0  0  0  0
    0.2117   15.4427   -6.6311 H   0  0  0  0  0  0  0  0  0  0  0  0
    0.1649   14.8218   -4.9462 H   0  0  0  0  0  0  0  0  0  0  0  0
  1  2  1  0  0  0  0
  1  4  1  0  0  0  0
  1 13  1  0  0  0  0
  2  6  1  0  0  0  0
  3  4  2  0  0  0  0
  3  5  1  0  0  0  0
  5  6  2  0  0  0  0
  5  9  1  0  0  0  0
  6  7  1  0  0  0  0
  7  8  1  0  0  0  0
  7 10  2  3  0  0  0
  8  9  2  0  0  0  0
 10 14  1  0  0  0  0
 11 12  1  0  0  0  0
 11 13  1  0  0  0  0
 11 26  2  0  0  0  0
 14 15  2  0  0  0  0
 14 19  1  0  0  0  0
 15 16  1  0  0  0  0
 16 17  2  0  0  0  0
 17 18  1  0  0  0  0
 17 20  1  0  0  0  0
 18 19  2  0  0  0  0
 20 21  2  0  0  0  0
 20 24  1  0  0  0  0
 21 22  1  0  0  0  0
 22 23  1  0  0  0  0
 22 25  1  0  0  0  0
 23 24  2  0  0  0  0
  1 27  1  0  0  0  0
  2 28  1  0  0  0  0
  2 29  1  0  0  0  0
  3 30  1  0  0  0  0
  4 31  1  0  0  0  0
 10 32  1  0  0  0  0
 12 33  1  0  0  0  0
 12 34  1  0  0  0  0
 12 35  1  0  0  0  0
 13 36  1  0  0  0  0
 15 37  1  0  0  0  0
 16 38  1  0  0  0  0
 18 39  1  0  0  0  0
 19 40  1  0  0  0  0
 21 41  1  0  0  0  0
 24 42  1  0  0  0  0
 25 43  1  0  0  0  0
 25 44  1  0  0  0  0
 25 45  1  0  0  0  0
M  END
> <Name>
24

> <IC50[uM]>
0.029

$$$$
24
  -OEChem-05192314333D
 Structure written by MMmdl.
 45 48  0     0  0  0  0  0  0999 V2000
   -6.3515   12.3530  -11.9813 C   0  0  0  0  0  0  0  0  0  0  0  0
   -6.5085   11.7912  -10.7247 C   0  0  0  0  0  0  0  0  0  0  0  0
   -7.6802   10.5716  -13.0438 C   0  0  0  0  0  0  0  0  0  0  0  0
   -6.9296   11.7657  -13.1245 C   0  0  0  0  0  0  0  0  0  0  0  0
   -7.7980   10.0044  -11.7669 C   0  0  0  0  0  0  0  0  0  0  0  0
   -7.2328   10.6109  -10.5989 C   0  0  0  0  0  0  0  0  0  0  0  0
   -7.6209    9.7375   -9.5162 C   0  0  0  0  0  0  0  0  0  0  0  0
   -8.2754    8.7446   -9.9970 N   0  0  0  0  0  0  0  0  0  0  0  0
   -8.4233    8.8800  -11.3218 N   0  0  0  0  0  0  0  0  0  0  0  0
   -7.3328    9.8812   -8.0296 C   0  0  0  0  0  0  0  0  0  0  0  0
   -5.3004   14.2773  -13.1499 C   0  0  0  0  0  0  0  0  0  0  0  0
   -4.4346   15.5261  -12.8998 C   0  0  0  0  0  0  0  0  0  0  0  0
   -5.5896   13.5586  -12.0343 N   0  0  0  0  0  0  0  0  0  0  0  0
   -5.9706   10.4906   -7.7317 C   0  0  0  0  0  0  0  0  0  0  0  0
   -5.8616   11.7632   -7.1684 C   0  0  0  0  0  0  0  0  0  0  0  0
   -4.6051   12.3126   -6.9180 C   0  0  0  0  0  0  0  0  0  0  0  0
   -3.4544   11.5948   -7.2294 C   0  0  0  0  0  0  0  0  0  0  0  0
   -3.5626   10.3128   -7.8011 C   0  0  0  0  0  0  0  0  0  0  0  0
   -4.8160    9.7710   -8.0425 C   0  0  0  0  0  0  0  0  0  0  0  0
   -2.1083   12.1736   -6.9694 C   0  0  0  0  0  0  0  0  0  0  0  0
   -1.7503   13.4247   -6.4858 C   0  0  0  0  0  0  0  0  0  0  0  0
   -0.4131   13.4674   -6.4189 N   0  0  0  0  0  0  0  0  0  0  0  0
    0.1758   12.3735   -6.8057 N   0  0  0  0  0  0  0  0  0  0  0  0
   -0.8094   11.5620   -7.1791 C   0  0  0  0  0  0  0  0  0  0  0  0
    0.4060   14.5705   -5.9896 C   0  0  0  0  0  0  0  0  0  0  0  0
   -5.6528   14.0066  -14.2746 O   0  0  0  0  0  0  0  0  0  0  0  0
   -5.5002   11.5939  -10.3317 H   0  0  0  0  0  0  0  0  0  0  0  0
   -7.0066   12.5435  -10.0954 H   0  0  0  0  0  0  0  0  0  0  0  0
   -8.6945   10.7862  -13.4115 H   0  0  0  0  0  0  0  0  0  0  0  0
   -7.2021    9.8287  -13.6992 H   0  0  0  0  0  0  0  0  0  0  0  0
   -6.7956   12.2399  -14.0855 H   0  0  0  0  0  0  0  0  0  0  0  0
   -8.0279    9.5798   -7.2599 H   0  0  0  0  0  0  0  0  0  0  0  0
   -4.2429   16.0373  -13.8548 H   0  0  0  0  0  0  0  0  0  0  0  0
   -4.9638   16.2086  -12.2185 H   0  0  0  0  0  0  0  0  0  0  0  0
   -3.4785   15.2246  -12.4471 H   0  0  0  0  0  0  0  0  0  0  0  0
   -5.2347   13.9076  -11.1670 H   0  0  0  0  0  0  0  0  0  0  0  0
   -6.7526   12.3233   -6.9261 H   0  0  0  0  0  0  0  0  0  0  0  0
   -4.5246   13.2972   -6.4815 H   0  0  0  0  0  0  0  0  0  0  0  0
   -2.6730    9.7536   -8.0506 H   0  0  0  0  0  0  0  0  0  0  0  0
   -4.8993    8.7846   -8.4743 H   0  0  0  0  0  0  0  0  0  0  0  0
   -2.4278   14.2202   -6.2127 H   0  0  0  0  0  0  0  0  0  0  0  0
   -0.6614   10.5729   -7.5868 H   0  0  0  0  0  0  0  0  0  0  0  0
    1.4672   14.2904   -6.0634 H   0  0  0  0  0  0  0  0  0  0  0  0
    0.2117   15.4427   -6.6311 H   0  0  0  0  0  0  0  0  0  0  0  0
    0.1649   14.8218   -4.9462 H   0  0  0  0  0  0  0  0  0  0  0  0
  1  2  1  0  0  0  0
  1  4  2  0  0  0  0
  1 13  1  0  0  0  0
  2  6  1  0  0  0  0
  3  4  1  0  0  0  0
  3  5  1  0  0  0  0
  5  6  2  0  0  0  0
  5  9  1  0  0  0  0
  6  7  1  0  0  0  0
  7  8  1  0  0  0  0
  7 10  2  3  0  0  0
  8  9  2  0  0  0  0
 10 14  1  0  0  0  0
 11 12  1  0  0  0  0
 11 13  1  0  0  0  0
 11 26  2  0  0  0  0
 14 15  2  0  0  0  0
 14 19  1  0  0  0  0
 15 16  1  0  0  0  0
 16 17  2  0  0  0  0
 17 18  1  0  0  0  0
 17 20  1  0  0  0  0
 18 19  2  0  0  0  0
 20 21  2  0  0  0  0
 20 24  1  0  0  0  0
 21 22  1  0  0  0  0
 22 23  1  0  0  0  0
 22 25  1  0  0  0  0
 23 24  2  0  0  0  0
  2 27  1  0  0  0  0
  2 28  1  0  0  0  0
  3 29  1  0  0  0  0
  3 30  1  0  0  0  0
  4 31  1  0  0  0  0
 10 32  1  0  0  0  0
 12 33  1  0  0  0  0
 12 34  1  0  0  0  0
 12 35  1  0  0  0  0
 13 36  1  0  0  0  0
 15 37  1  0  0  0  0
 16 38  1  0  0  0  0
 18 39  1  0  0  0  0
 19 40  1  0  0  0  0
 21 41  1  0  0  0  0
 24 42  1  0  0  0  0
 25 43  1  0  0  0  0
 25 44  1  0  0  0  0
 25 45  1  0  0  0  0
M  END
> <Name>
24

> <IC50[uM]>
0.029

$$$$
24
  -OEChem-05192314333D
 Structure written by MMmdl.
 45 48  0     1  0  0  0  0  0999 V2000
   -6.3515   12.3530  -11.9813 C   0  0  0  0  0  0  0  0  0  0  0  0
   -6.5085   11.7912  -10.7247 C   0  0  0  0  0  0  0  0  0  0  0  0
   -7.6802   10.5716  -13.0438 C   0  0  0  0  0  0  0  0  0  0  0  0
   -6.9296   11.7657  -13.1245 C   0  0  0  0  0  0  0  0  0  0  0  0
   -7.7980   10.0044  -11.7669 C   0  0  3  0  0  0  0  0  0  0  0  0
   -7.2328   10.6109  -10.5989 C   0  0  0  0  0  0  0  0  0  0  0  0
   -7.6209    9.7375   -9.5162 C   0  0  0  0  0  0  0  0  0  0  0  0
   -8.2754    8.7446   -9.9970 N   0  0  0  0  0  0  0  0  0  0  0  0
   -8.4233    8.8800  -11.3218 N   0  0  0  0  0  0  0  0  0  0  0  0
   -7.3328    9.8812   -8.0296 C   0  0  0  0  0  0  0  0  0  0  0  0
   -5.3004   14.2773  -13.1499 C   0  0  0  0  0  0  0  0  0  0  0  0
   -4.4346   15.5261  -12.8998 C   0  0  0  0  0  0  0  0  0  0  0  0
   -5.5896   13.5586  -12.0343 N   0  0  0  0  0  0  0  0  0  0  0  0
   -5.9706   10.4906   -7.7317 C   0  0  0  0  0  0  0  0  0  0  0  0
   -5.8616   11.7632   -7.1684 C   0  0  0  0  0  0  0  0  0  0  0  0
   -4.6051   12.3126   -6.9180 C   0  0  0  0  0  0  0  0  0  0  0  0
   -3.4544   11.5948   -7.2294 C   0  0  0  0  0  0  0  0  0  0  0  0
   -3.5626   10.3128   -7.8011 C   0  0  0  0  0  0  0  0  0  0  0  0
   -4.8160    9.7710   -8.0425 C   0  0  0  0  0  0  0  0  0  0  0  0
   -2.1083   12.1736   -6.9694 C   0  0  0  0  0  0  0  0  0  0  0  0
   -1.7503   13.4247   -6.4858 C   0  0  0  0  0  0  0  0  0  0  0  0
   -0.4131   13.4674   -6.4189 N   0  0  0  0  0  0  0  0  0  0  0  0
    0.1758   12.3735   -6.8057 N   0  0  0  0  0  0  0  0  0  0  0  0
   -0.8094   11.5620   -7.1791 C   0  0  0  0  0  0  0  0  0  0  0  0
    0.4060   14.5705   -5.9896 C   0  0  0  0  0  0  0  0  0  0  0  0
   -5.6528   14.0066  -14.2746 O   0  0  0  0  0  0  0  0  0  0  0  0
   -6.0747   12.2631   -9.8555 H   0  0  0  0  0  0  0  0  0  0  0  0
   -8.1361   10.1224  -13.9137 H   0  0  0  0  0  0  0  0  0  0  0  0
   -6.7956   12.2399  -14.0855 H   0  0  0  0  0  0  0  0  0  0  0  0
   -6.8712    9.4340  -11.9273 H   0  0  0  0  0  0  0  0  0  0  0  0
   -8.1067   10.5245   -7.5855 H   0  0  0  0  0  0  0  0  0  0  0  0
   -7.3763    8.8835   -7.5684 H   0  0  0  0  0  0  0  0  0  0  0  0
   -4.2429   16.0373  -13.8548 H   0  0  0  0  0  0  0  0  0  0  0  0
   -4.9638   16.2086  -12.2185 H   0  0  0  0  0  0  0  0  0  0  0  0
   -3.4785   15.2246  -12.4471 H   0  0  0  0  0  0  0  0  0  0  0  0
   -5.2347   13.9076  -11.1670 H   0  0  0  0  0  0  0  0  0  0  0  0
   -6.7526   12.3233   -6.9261 H   0  0  0  0  0  0  0  0  0  0  0  0
   -4.5246   13.2972   -6.4815 H   0  0  0  0  0  0  0  0  0  0  0  0
   -2.6730    9.7536   -8.0506 H   0  0  0  0  0  0  0  0  0  0  0  0
   -4.8993    8.7846   -8.4743 H   0  0  0  0  0  0  0  0  0  0  0  0
   -2.4278   14.2202   -6.2127 H   0  0  0  0  0  0  0  0  0  0  0  0
   -0.6614   10.5729   -7.5868 H   0  0  0  0  0  0  0  0  0  0  0  0
    1.4672   14.2904   -6.0634 H   0  0  0  0  0  0  0  0  0  0  0  0
    0.2117   15.4427   -6.6311 H   0  0  0  0  0  0  0  0  0  0  0  0
    0.1649   14.8218   -4.9462 H   0  0  0  0  0  0  0  0  0  0  0  0
  1  2  2  0  0  0  0
  1  4  1  0  0  0  0
  1 13  1  0  0  0  0
  2  6  1  0  0  0  0
  3  4  2  0  0  0  0
  3  5  1  0  0  0  0
  5  6  1  0  0  0  0
  5  9  1  0  0  0  0
  6  7  2  0  0  0  0
  7  8  1  0  0  0  0
  7 10  1  0  0  0  0
  8  9  2  0  0  0  0
 10 14  1  0  0  0  0
 11 12  1  0  0  0  0
 11 13  1  0  0  0  0
 11 26  2  0  0  0  0
 14 15  2  0  0  0  0
 14 19  1  0  0  0  0
 15 16  1  0  0  0  0
 16 17  2  0  0  0  0
 17 18  1  0  0  0  0
 17 20  1  0  0  0  0
 18 19  2  0  0  0  0
 20 21  2  0  0  0  0
 20 24  1  0  0  0  0
 21 22  1  0  0  0  0
 22 23  1  0  0  0  0
 22 25  1  0  0  0  0
 23 24  2  0  0  0  0
  2 27  1  0  0  0  0
  3 28  1  0  0  0  0
  4 29  1  0  0  0  0
  5 30  1  0  0  0  0
 10 31  1  0  0  0  0
 10 32  1  0  0  0  0
 12 33  1  0  0  0  0
 12 34  1  0  0  0  0
 12 35  1  0  0  0  0
 13 36  1  0  0  0  0
 15 37  1  0  0  0  0
 16 38  1  0  0  0  0
 18 39  1  0  0  0  0
 19 40  1  0  0  0  0
 21 41  1  0  0  0  0
 24 42  1  0  0  0  0
 25 43  1  0  0  0  0
 25 44  1  0  0  0  0
 25 45  1  0  0  0  0
M  END
> <Name>
24

> <IC50[uM]>
0.029

$$$$
24
  -OEChem-05192314333D
 Structure written by MMmdl.
 45 48  0     0  0  0  0  0  0999 V2000
   -6.3515   12.3530  -11.9813 C   0  0  0  0  0  0  0  0  0  0  0  0
   -6.5085   11.7912  -10.7247 C   0  0  0  0  0  0  0  0  0  0  0  0
   -7.6802   10.5716  -13.0438 C   0  0  0  0  0  0  0  0  0  0  0  0
   -6.9296   11.7657  -13.1245 C   0  0  0  0  0  0  0  0  0  0  0  0
   -7.7980   10.0044  -11.7669 C   0  0  0  0  0  0  0  0  0  0  0  0
   -7.2328   10.6109  -10.5989 C   0  0  0  0  0  0  0  0  0  0  0  0
   -7.6209    9.7375   -9.5162 C   0  0  0  0  0  0  0  0  0  0  0  0
   -8.2754    8.7446   -9.9970 N   0  0  0  0  0  0  0  0  0  0  0  0
   -8.4233    8.8800  -11.3218 N   0  0  0  0  0  0  0  0  0  0  0  0
   -7.3328    9.8812   -8.0296 C   0  0  0  0  0  0  0  0  0  0  0  0
   -5.3004   14.2773  -13.1499 C   0  0  0  0  0  0  0  0  0  0  0  0
   -4.4346   15.5261  -12.8998 C   0  0  0  0  0  0  0  0  0  0  0  0
   -5.5896   13.5586  -12.0343 N   0  0  0  0  0  0  0  0  0  0  0  0
   -5.9706   10.4906   -7.7317 C   0  0  0  0  0  0  0  0  0  0  0  0
   -5.8616   11.7632   -7.1684 C   0  0  0  0  0  0  0  0  0  0  0  0
   -4.6051   12.3126   -6.9180 C   0  0  0  0  0  0  0  0  0  0  0  0
   -3.4544   11.5948   -7.2294 C   0  0  0  0  0  0  0  0  0  0  0  0
   -3.5626   10.3128   -7.8011 C   0  0  0  0  0  0  0  0  0  0  0  0
   -4.8160    9.7710   -8.0425 C   0  0  0  0  0  0  0  0  0  0  0  0
   -2.1083   12.1736   -6.9694 C   0  0  0  0  0  0  0  0  0  0  0  0
   -1.7503   13.4247   -6.4858 C   0  0  0  0  0  0  0  0  0  0  0  0
   -0.4131   13.4674   -6.4189 N   0  0  0  0  0  0  0  0  0  0  0  0
    0.1758   12.3735   -6.8057 N   0  0  0  0  0  0  0  0  0  0  0  0
   -0.8094   11.5620   -7.1791 C   0  0  0  0  0  0  0  0  0  0  0  0
    0.4060   14.5705   -5.9896 C   0  0  0  0  0  0  0  0  0  0  0  0
   -5.6528   14.0066  -14.2746 O   0  0  0  0  0  0  0  0  0  0  0  0
   -6.0747   12.2631   -9.8555 H   0  0  0  0  0  0  0  0  0  0  0  0
   -8.1361   10.1224  -13.9137 H   0  0  0  0  0  0  0  0  0  0  0  0
   -7.5989   12.5237  -13.5575 H   0  0  0  0  0  0  0  0  0  0  0  0
   -6.1027   11.5654  -13.8217 H   0  0  0  0  0  0  0  0  0  0  0  0
   -8.1067   10.5245   -7.5855 H   0  0  0  0  0  0  0  0  0  0  0  0
   -7.3763    8.8835   -7.5684 H   0  0  0  0  0  0  0  0  0  0  0  0
   -4.2429   16.0373  -13.8548 H   0  0  0  0  0  0  0  0  0  0  0  0
   -4.9638   16.2086  -12.2185 H   0  0  0  0  0  0  0  0  0  0  0  0
   -3.4785   15.2246  -12.4471 H   0  0  0  0  0  0  0  0  0  0  0  0
   -5.2347   13.9076  -11.1670 H   0  0  0  0  0  0  0  0  0  0  0  0
   -6.7526   12.3233   -6.9261 H   0  0  0  0  0  0  0  0  0  0  0  0
   -4.5246   13.2972   -6.4815 H   0  0  0  0  0  0  0  0  0  0  0  0
   -2.6730    9.7536   -8.0506 H   0  0  0  0  0  0  0  0  0  0  0  0
   -4.8993    8.7846   -8.4743 H   0  0  0  0  0  0  0  0  0  0  0  0
   -2.4278   14.2202   -6.2127 H   0  0  0  0  0  0  0  0  0  0  0  0
   -0.6614   10.5729   -7.5868 H   0  0  0  0  0  0  0  0  0  0  0  0
    1.4672   14.2904   -6.0634 H   0  0  0  0  0  0  0  0  0  0  0  0
    0.2117   15.4427   -6.6311 H   0  0  0  0  0  0  0  0  0  0  0  0
    0.1649   14.8218   -4.9462 H   0  0  0  0  0  0  0  0  0  0  0  0
  1  2  2  0  0  0  0
  1  4  1  0  0  0  0
  1 13  1  0  0  0  0
  2  6  1  0  0  0  0
  3  4  1  0  0  0  0
  3  5  2  0  0  0  0
  5  6  1  0  0  0  0
  5  9  1  0  0  0  0
  6  7  2  0  0  0  0
  7  8  1  0  0  0  0
  7 10  1  0  0  0  0
  8  9  2  0  0  0  0
 10 14  1  0  0  0  0
 11 12  1  0  0  0  0
 11 13  1  0  0  0  0
 11 26  2  0  0  0  0
 14 15  2  0  0  0  0
 14 19  1  0  0  0  0
 15 16  1  0  0  0  0
 16 17  2  0  0  0  0
 17 18  1  0  0  0  0
 17 20  1  0  0  0  0
 18 19  2  0  0  0  0
 20 21  2  0  0  0  0
 20 24  1  0  0  0  0
 21 22  1  0  0  0  0
 22 23  1  0  0  0  0
 22 25  1  0  0  0  0
 23 24  2  0  0  0  0
  2 27  1  0  0  0  0
  3 28  1  0  0  0  0
  4 29  1  0  0  0  0
  4 30  1  0  0  0  0
 10 31  1  0  0  0  0
 10 32  1  0  0  0  0
 12 33  1  0  0  0  0
 12 34  1  0  0  0  0
 12 35  1  0  0  0  0
 13 36  1  0  0  0  0
 15 37  1  0  0  0  0
 16 38  1  0  0  0  0
 18 39  1  0  0  0  0
 19 40  1  0  0  0  0
 21 41  1  0  0  0  0
 24 42  1  0  0  0  0
 25 43  1  0  0  0  0
 25 44  1  0  0  0  0
 25 45  1  0  0  0  0
M  END
> <Name>
24

> <IC50[uM]>
0.029

$$$$
24
  -OEChem-05192314333D
 Structure written by MMmdl.
 45 48  0     0  0  0  0  0  0999 V2000
   -6.3515   12.3530  -11.9813 C   0  0  0  0  0  0  0  0  0  0  0  0
   -6.5085   11.7912  -10.7247 C   0  0  0  0  0  0  0  0  0  0  0  0
   -7.6802   10.5716  -13.0438 C   0  0  0  0  0  0  0  0  0  0  0  0
   -6.9296   11.7657  -13.1245 C   0  0  0  0  0  0  0  0  0  0  0  0
   -7.7980   10.0044  -11.7669 C   0  0  0  0  0  0  0  0  0  0  0  0
   -7.2328   10.6109  -10.5989 C   0  0  0  0  0  0  0  0  0  0  0  0
   -7.6209    9.7375   -9.5162 C   0  0  0  0  0  0  0  0  0  0  0  0
   -8.2754    8.7446   -9.9970 N   0  0  0  0  0  0  0  0  0  0  0  0
   -8.4233    8.8800  -11.3218 N   0  0  0  0  0  0  0  0  0  0  0  0
   -7.3328    9.8812   -8.0296 C   0  0  0  0  0  0  0  0  0  0  0  0
   -5.3004   14.2773  -13.1499 C   0  0  0  0  0  0  0  0  0  0  0  0
   -4.4346   15.5261  -12.8998 C   0  0  0  0  0  0  0  0  0  0  0  0
   -5.5896   13.5586  -12.0343 N   0  0  0  0  0  0  0  0  0  0  0  0
   -5.9706   10.4906   -7.7317 C   0  0  0  0  0  0  0  0  0  0  0  0
   -5.8616   11.7632   -7.1684 C   0  0  0  0  0  0  0  0  0  0  0  0
   -4.6051   12.3126   -6.9180 C   0  0  0  0  0  0  0  0  0  0  0  0
   -3.4544   11.5948   -7.2294 C   0  0  0  0  0  0  0  0  0  0  0  0
   -3.5626   10.3128   -7.8011 C   0  0  0  0  0  0  0  0  0  0  0  0
   -4.8160    9.7710   -8.0425 C   0  0  0  0  0  0  0  0  0  0  0  0
   -2.1083   12.1736   -6.9694 C   0  0  0  0  0  0  0  0  0  0  0  0
   -1.7503   13.4247   -6.4858 C   0  0  0  0  0  0  0  0  0  0  0  0
   -0.4131   13.4674   -6.4189 N   0  0  0  0  0  0  0  0  0  0  0  0
    0.1758   12.3735   -6.8057 N   0  0  0  0  0  0  0  0  0  0  0  0
   -0.8094   11.5620   -7.1791 C   0  0  0  0  0  0  0  0  0  0  0  0
    0.4060   14.5705   -5.9896 C   0  0  0  0  0  0  0  0  0  0  0  0
   -5.6528   14.0066  -14.2746 O   0  0  0  0  0  0  0  0  0  0  0  0
   -5.5002   11.5939  -10.3317 H   0  0  0  0  0  0  0  0  0  0  0  0
   -7.0066   12.5435  -10.0954 H   0  0  0  0  0  0  0  0  0  0  0  0
   -8.1361   10.1224  -13.9137 H   0  0  0  0  0  0  0  0  0  0  0  0
   -6.7956   12.2399  -14.0855 H   0  0  0  0  0  0  0  0  0  0  0  0
   -8.1067   10.5245   -7.5855 H   0  0  0  0  0  0  0  0  0  0  0  0
   -7.3763    8.8835   -7.5684 H   0  0  0  0  0  0  0  0  0  0  0  0
   -4.2429   16.0373  -13.8548 H   0  0  0  0  0  0  0  0  0  0  0  0
   -4.9638   16.2086  -12.2185 H   0  0  0  0  0  0  0  0  0  0  0  0
   -3.4785   15.2246  -12.4471 H   0  0  0  0  0  0  0  0  0  0  0  0
   -5.2347   13.9076  -11.1670 H   0  0  0  0  0  0  0  0  0  0  0  0
   -6.7526   12.3233   -6.9261 H   0  0  0  0  0  0  0  0  0  0  0  0
   -4.5246   13.2972   -6.4815 H   0  0  0  0  0  0  0  0  0  0  0  0
   -2.6730    9.7536   -8.0506 H   0  0  0  0  0  0  0  0  0  0  0  0
   -4.8993    8.7846   -8.4743 H   0  0  0  0  0  0  0  0  0  0  0  0
   -2.4278   14.2202   -6.2127 H   0  0  0  0  0  0  0  0  0  0  0  0
   -0.6614   10.5729   -7.5868 H   0  0  0  0  0  0  0  0  0  0  0  0
    1.4672   14.2904   -6.0634 H   0  0  0  0  0  0  0  0  0  0  0  0
    0.2117   15.4427   -6.6311 H   0  0  0  0  0  0  0  0  0  0  0  0
    0.1649   14.8218   -4.9462 H   0  0  0  0  0  0  0  0  0  0  0  0
  1  2  1  0  0  0  0
  1  4  2  0  0  0  0
  1 13  1  0  0  0  0
  2  6  1  0  0  0  0
  3  4  1  0  0  0  0
  3  5  2  0  0  0  0
  5  6  1  0  0  0  0
  5  9  1  0  0  0  0
  6  7  2  0  0  0  0
  7  8  1  0  0  0  0
  7 10  1  0  0  0  0
  8  9  2  0  0  0  0
 10 14  1  0  0  0  0
 11 12  1  0  0  0  0
 11 13  1  0  0  0  0
 11 26  2  0  0  0  0
 14 15  2  0  0  0  0
 14 19  1  0  0  0  0
 15 16  1  0  0  0  0
 16 17  2  0  0  0  0
 17 18  1  0  0  0  0
 17 20  1  0  0  0  0
 18 19  2  0  0  0  0
 20 21  2  0  0  0  0
 20 24  1  0  0  0  0
 21 22  1  0  0  0  0
 22 23  1  0  0  0  0
 22 25  1  0  0  0  0
 23 24  2  0  0  0  0
  2 27  1  0  0  0  0
  2 28  1  0  0  0  0
  3 29  1  0  0  0  0
  4 30  1  0  0  0  0
 10 31  1  0  0  0  0
 10 32  1  0  0  0  0
 12 33  1  0  0  0  0
 12 34  1  0  0  0  0
 12 35  1  0  0  0  0
 13 36  1  0  0  0  0
 15 37  1  0  0  0  0
 16 38  1  0  0  0  0
 18 39  1  0  0  0  0
 19 40  1  0  0  0  0
 21 41  1  0  0  0  0
 24 42  1  0  0  0  0
 25 43  1  0  0  0  0
 25 44  1  0  0  0  0
 25 45  1  0  0  0  0
M  END
> <Name>
24

> <IC50[uM]>
0.029

$$$$
24
  -OEChem-05192314333D
 Structure written by MMmdl.
 45 48  0     1  0  0  0  0  0999 V2000
   -6.3515   12.3530  -11.9813 C   0  0  0  0  0  0  0  0  0  0  0  0
   -6.5085   11.7912  -10.7247 C   0  0  0  0  0  0  0  0  0  0  0  0
   -7.6802   10.5716  -13.0438 C   0  0  0  0  0  0  0  0  0  0  0  0
   -6.9296   11.7657  -13.1245 C   0  0  0  0  0  0  0  0  0  0  0  0
   -7.7980   10.0044  -11.7669 C   0  0  0  0  0  0  0  0  0  0  0  0
   -7.2328   10.6109  -10.5989 C   0  0  3  0  0  0  0  0  0  0  0  0
   -7.6209    9.7375   -9.5162 C   0  0  0  0  0  0  0  0  0  0  0  0
   -8.2754    8.7446   -9.9970 N   0  0  0  0  0  0  0  0  0  0  0  0
   -8.4233    8.8800  -11.3218 N   0  0  0  0  0  0  0  0  0  0  0  0
   -7.3328    9.8812   -8.0296 C   0  0  0  0  0  0  0  0  0  0  0  0
   -5.3004   14.2773  -13.1499 C   0  0  0  0  0  0  0  0  0  0  0  0
   -4.4346   15.5261  -12.8998 C   0  0  0  0  0  0  0  0  0  0  0  0
   -5.5896   13.5586  -12.0343 N   0  0  0  0  0  0  0  0  0  0  0  0
   -5.9706   10.4906   -7.7317 C   0  0  0  0  0  0  0  0  0  0  0  0
   -5.8616   11.7632   -7.1684 C   0  0  0  0  0  0  0  0  0  0  0  0
   -4.6051   12.3126   -6.9180 C   0  0  0  0  0  0  0  0  0  0  0  0
   -3.4544   11.5948   -7.2294 C   0  0  0  0  0  0  0  0  0  0  0  0
   -3.5626   10.3128   -7.8011 C   0  0  0  0  0  0  0  0  0  0  0  0
   -4.8160    9.7710   -8.0425 C   0  0  0  0  0  0  0  0  0  0  0  0
   -2.1083   12.1736   -6.9694 C   0  0  0  0  0  0  0  0  0  0  0  0
   -1.7503   13.4247   -6.4858 C   0  0  0  0  0  0  0  0  0  0  0  0
   -0.4131   13.4674   -6.4189 N   0  0  0  0  0  0  0  0  0  0  0  0
    0.1758   12.3735   -6.8057 N   0  0  0  0  0  0  0  0  0  0  0  0
   -0.8094   11.5620   -7.1791 C   0  0  0  0  0  0  0  0  0  0  0  0
    0.4060   14.5705   -5.9896 C   0  0  0  0  0  0  0  0  0  0  0  0
   -5.6528   14.0066  -14.2746 O   0  0  0  0  0  0  0  0  0  0  0  0
   -6.0747   12.2631   -9.8555 H   0  0  0  0  0  0  0  0  0  0  0  0
   -8.1361   10.1224  -13.9137 H   0  0  0  0  0  0  0  0  0  0  0  0
   -6.7956   12.2399  -14.0855 H   0  0  0  0  0  0  0  0  0  0  0  0
   -6.3107   10.0281  -10.7406 H   0  0  0  0  0  0  0  0  0  0  0  0
   -8.6258    7.9778   -9.4591 H   0  0  0  0  0  0  0  0  0  0  0  0
   -8.0279    9.5798   -7.2599 H   0  0  0  0  0  0  0  0  0  0  0  0
   -4.2429   16.0373  -13.8548 H   0  0  0  0  0  0  0  0  0  0  0  0
   -4.9638   16.2086  -12.2185 H   0  0  0  0  0  0  0  0  0  0  0  0
   -3.4785   15.2246  -12.4471 H   0  0  0  0  0  0  0  0  0  0  0  0
   -5.2347   13.9076  -11.1670 H   0  0  0  0  0  0  0  0  0  0  0  0
   -6.7526   12.3233   -6.9261 H   0  0  0  0  0  0  0  0  0  0  0  0
   -4.5246   13.2972   -6.4815 H   0  0  0  0  0  0  0  0  0  0  0  0
   -2.6730    9.7536   -8.0506 H   0  0  0  0  0  0  0  0  0  0  0  0
   -4.8993    8.7846   -8.4743 H   0  0  0  0  0  0  0  0  0  0  0  0
   -2.4278   14.2202   -6.2127 H   0  0  0  0  0  0  0  0  0  0  0  0
   -0.6614   10.5729   -7.5868 H   0  0  0  0  0  0  0  0  0  0  0  0
    1.4672   14.2904   -6.0634 H   0  0  0  0  0  0  0  0  0  0  0  0
    0.2117   15.4427   -6.6311 H   0  0  0  0  0  0  0  0  0  0  0  0
    0.1649   14.8218   -4.9462 H   0  0  0  0  0  0  0  0  0  0  0  0
  1  2  2  0  0  0  0
  1  4  1  0  0  0  0
  1 13  1  0  0  0  0
  2  6  1  0  0  0  0
  3  4  2  0  0  0  0
  3  5  1  0  0  0  0
  5  6  1  0  0  0  0
  5  9  2  0  0  0  0
  6  7  1  0  0  0  0
  7  8  1  0  0  0  0
  7 10  2  3  0  0  0
  8  9  1  0  0  0  0
 10 14  1  0  0  0  0
 11 12  1  0  0  0  0
 11 13  1  0  0  0  0
 11 26  2  0  0  0  0
 14 15  2  0  0  0  0
 14 19  1  0  0  0  0
 15 16  1  0  0  0  0
 16 17  2  0  0  0  0
 17 18  1  0  0  0  0
 17 20  1  0  0  0  0
 18 19  2  0  0  0  0
 20 21  2  0  0  0  0
 20 24  1  0  0  0  0
 21 22  1  0  0  0  0
 22 23  1  0  0  0  0
 22 25  1  0  0  0  0
 23 24  2  0  0  0  0
  2 27  1  0  0  0  0
  3 28  1  0  0  0  0
  4 29  1  0  0  0  0
  6 30  1  0  0  0  0
  8 31  1  0  0  0  0
 10 32  1  0  0  0  0
 12 33  1  0  0  0  0
 12 34  1  0  0  0  0
 12 35  1  0  0  0  0
 13 36  1  0  0  0  0
 15 37  1  0  0  0  0
 16 38  1  0  0  0  0
 18 39  1  0  0  0  0
 19 40  1  0  0  0  0
 21 41  1  0  0  0  0
 24 42  1  0  0  0  0
 25 43  1  0  0  0  0
 25 44  1  0  0  0  0
 25 45  1  0  0  0  0
M  END
> <Name>
24

> <IC50[uM]>
0.029

$$$$
24
  -OEChem-05192314333D
 Structure written by MMmdl.
 45 48  0     1  0  0  0  0  0999 V2000
   -6.3515   12.3530  -11.9813 C   0  0  0  0  0  0  0  0  0  0  0  0
   -6.5085   11.7912  -10.7247 C   0  0  0  0  0  0  0  0  0  0  0  0
   -7.6802   10.5716  -13.0438 C   0  0  0  0  0  0  0  0  0  0  0  0
   -6.9296   11.7657  -13.1245 C   0  0  0  0  0  0  0  0  0  0  0  0
   -7.7980   10.0044  -11.7669 C   0  0  3  0  0  0  0  0  0  0  0  0
   -7.2328   10.6109  -10.5989 C   0  0  0  0  0  0  0  0  0  0  0  0
   -7.6209    9.7375   -9.5162 C   0  0  0  0  0  0  0  0  0  0  0  0
   -8.2754    8.7446   -9.9970 N   0  0  0  0  0  0  0  0  0  0  0  0
   -8.4233    8.8800  -11.3218 N   0  0  0  0  0  0  0  0  0  0  0  0
   -7.3328    9.8812   -8.0296 C   0  0  0  0  0  0  0  0  0  0  0  0
   -5.3004   14.2773  -13.1499 C   0  0  0  0  0  0  0  0  0  0  0  0
   -4.4346   15.5261  -12.8998 C   0  0  0  0  0  0  0  0  0  0  0  0
   -5.5896   13.5586  -12.0343 N   0  0  0  0  0  0  0  0  0  0  0  0
   -5.9706   10.4906   -7.7317 C   0  0  0  0  0  0  0  0  0  0  0  0
   -5.8616   11.7632   -7.1684 C   0  0  0  0  0  0  0  0  0  0  0  0
   -4.6051   12.3126   -6.9180 C   0  0  0  0  0  0  0  0  0  0  0  0
   -3.4544   11.5948   -7.2294 C   0  0  0  0  0  0  0  0  0  0  0  0
   -3.5626   10.3128   -7.8011 C   0  0  0  0  0  0  0  0  0  0  0  0
   -4.8160    9.7710   -8.0425 C   0  0  0  0  0  0  0  0  0  0  0  0
   -2.1083   12.1736   -6.9694 C   0  0  0  0  0  0  0  0  0  0  0  0
   -1.7503   13.4247   -6.4858 C   0  0  0  0  0  0  0  0  0  0  0  0
   -0.4131   13.4674   -6.4189 N   0  0  0  0  0  0  0  0  0  0  0  0
    0.1758   12.3735   -6.8057 N   0  0  0  0  0  0  0  0  0  0  0  0
   -0.8094   11.5620   -7.1791 C   0  0  0  0  0  0  0  0  0  0  0  0
    0.4060   14.5705   -5.9896 C   0  0  0  0  0  0  0  0  0  0  0  0
   -5.6528   14.0066  -14.2746 O   0  0  0  0  0  0  0  0  0  0  0  0
   -6.0747   12.2631   -9.8555 H   0  0  0  0  0  0  0  0  0  0  0  0
   -8.1361   10.1224  -13.9137 H   0  0  0  0  0  0  0  0  0  0  0  0
   -6.7956   12.2399  -14.0855 H   0  0  0  0  0  0  0  0  0  0  0  0
   -6.8712    9.4340  -11.9273 H   0  0  0  0  0  0  0  0  0  0  0  0
   -7.7779    7.8985   -9.8058 H   0  0  0  0  0  0  0  0  0  0  0  0
   -9.3978    8.9396  -11.5383 H   0  0  0  0  0  0  0  0  0  0  0  0
   -8.0279    9.5798   -7.2599 H   0  0  0  0  0  0  0  0  0  0  0  0
   -4.2429   16.0373  -13.8548 H   0  0  0  0  0  0  0  0  0  0  0  0
   -4.9638   16.2086  -12.2185 H   0  0  0  0  0  0  0  0  0  0  0  0
   -3.4785   15.2246  -12.4471 H   0  0  0  0  0  0  0  0  0  0  0  0
   -6.7526   12.3233   -6.9261 H   0  0  0  0  0  0  0  0  0  0  0  0
   -4.5246   13.2972   -6.4815 H   0  0  0  0  0  0  0  0  0  0  0  0
   -2.6730    9.7536   -8.0506 H   0  0  0  0  0  0  0  0  0  0  0  0
   -4.8993    8.7846   -8.4743 H   0  0  0  0  0  0  0  0  0  0  0  0
   -2.4278   14.2202   -6.2127 H   0  0  0  0  0  0  0  0  0  0  0  0
   -0.6614   10.5729   -7.5868 H   0  0  0  0  0  0  0  0  0  0  0  0
    1.4672   14.2904   -6.0634 H   0  0  0  0  0  0  0  0  0  0  0  0
    0.2117   15.4427   -6.6311 H   0  0  0  0  0  0  0  0  0  0  0  0
    0.1649   14.8218   -4.9462 H   0  0  0  0  0  0  0  0  0  0  0  0
  1  2  1  0  0  0  0
  1  4  1  0  0  0  0
  1 13  2  0  0  0  0
  2  6  2  0  0  0  0
  3  4  2  0  0  0  0
  3  5  1  0  0  0  0
  5  6  1  0  0  0  0
  5  9  1  0  0  0  0
  6  7  1  0  0  0  0
  7  8  1  0  0  0  0
  7 10  2  3  0  0  0
  8  9  1  0  0  0  0
 10 14  1  0  0  0  0
 11 12  1  0  0  0  0
 11 13  1  0  0  0  0
 11 26  2  0  0  0  0
 14 15  2  0  0  0  0
 14 19  1  0  0  0  0
 15 16  1  0  0  0  0
 16 17  2  0  0  0  0
 17 18  1  0  0  0  0
 17 20  1  0  0  0  0
 18 19  2  0  0  0  0
 20 21  2  0  0  0  0
 20 24  1  0  0  0  0
 21 22  1  0  0  0  0
 22 23  1  0  0  0  0
 22 25  1  0  0  0  0
 23 24  2  0  0  0  0
  2 27  1  0  0  0  0
  3 28  1  0  0  0  0
  4 29  1  0  0  0  0
  5 30  1  0  0  0  0
  8 31  1  0  0  0  0
  9 32  1  0  0  0  0
 10 33  1  0  0  0  0
 12 34  1  0  0  0  0
 12 35  1  0  0  0  0
 12 36  1  0  0  0  0
 15 37  1  0  0  0  0
 16 38  1  0  0  0  0
 18 39  1  0  0  0  0
 19 40  1  0  0  0  0
 21 41  1  0  0  0  0
 24 42  1  0  0  0  0
 25 43  1  0  0  0  0
 25 44  1  0  0  0  0
 25 45  1  0  0  0  0
M  END
> <Name>
24

> <IC50[uM]>
0.029

$$$$
24
  -OEChem-05192314333D
 Structure written by MMmdl.
 45 48  0     0  0  0  0  0  0999 V2000
   -6.3515   12.3530  -11.9813 C   0  0  0  0  0  0  0  0  0  0  0  0
   -6.5085   11.7912  -10.7247 C   0  0  0  0  0  0  0  0  0  0  0  0
   -7.6802   10.5716  -13.0438 C   0  0  0  0  0  0  0  0  0  0  0  0
   -6.9296   11.7657  -13.1245 C   0  0  0  0  0  0  0  0  0  0  0  0
   -7.7980   10.0044  -11.7669 C   0  0  0  0  0  0  0  0  0  0  0  0
   -7.2328   10.6109  -10.5989 C   0  0  0  0  0  0  0  0  0  0  0  0
   -7.6209    9.7375   -9.5162 C   0  0  0  0  0  0  0  0  0  0  0  0
   -8.2754    8.7446   -9.9970 N   0  0  0  0  0  0  0  0  0  0  0  0
   -8.4233    8.8800  -11.3218 N   0  0  0  0  0  0  0  0  0  0  0  0
   -7.3328    9.8812   -8.0296 C   0  0  0  0  0  0  0  0  0  0  0  0
   -5.3004   14.2773  -13.1499 C   0  0  0  0  0  0  0  0  0  0  0  0
   -4.4346   15.5261  -12.8998 C   0  0  0  0  0  0  0  0  0  0  0  0
   -5.5896   13.5586  -12.0343 N   0  0  0  0  0  0  0  0  0  0  0  0
   -5.9706   10.4906   -7.7317 C   0  0  0  0  0  0  0  0  0  0  0  0
   -5.8616   11.7632   -7.1684 C   0  0  0  0  0  0  0  0  0  0  0  0
   -4.6051   12.3126   -6.9180 C   0  0  0  0  0  0  0  0  0  0  0  0
   -3.4544   11.5948   -7.2294 C   0  0  0  0  0  0  0  0  0  0  0  0
   -3.5626   10.3128   -7.8011 C   0  0  0  0  0  0  0  0  0  0  0  0
   -4.8160    9.7710   -8.0425 C   0  0  0  0  0  0  0  0  0  0  0  0
   -2.1083   12.1736   -6.9694 C   0  0  0  0  0  0  0  0  0  0  0  0
   -1.7503   13.4247   -6.4858 C   0  0  0  0  0  0  0  0  0  0  0  0
   -0.4131   13.4674   -6.4189 N   0  0  0  0  0  0  0  0  0  0  0  0
    0.1758   12.3735   -6.8057 N   0  0  0  0  0  0  0  0  0  0  0  0
   -0.8094   11.5620   -7.1791 C   0  0  0  0  0  0  0  0  0  0  0  0
    0.4060   14.5705   -5.9896 C   0  0  0  0  0  0  0  0  0  0  0  0
   -5.6528   14.0066  -14.2746 O   0  0  0  0  0  0  0  0  0  0  0  0
   -6.0747   12.2631   -9.8555 H   0  0  0  0  0  0  0  0  0  0  0  0
   -8.1361   10.1224  -13.9137 H   0  0  0  0  0  0  0  0  0  0  0  0
   -7.5989   12.5237  -13.5575 H   0  0  0  0  0  0  0  0  0  0  0  0
   -6.1027   11.5654  -13.8217 H   0  0  0  0  0  0  0  0  0  0  0  0
   -7.7779    7.8985   -9.8058 H   0  0  0  0  0  0  0  0  0  0  0  0
   -9.3978    8.9396  -11.5383 H   0  0  0  0  0  0  0  0  0  0  0  0
   -8.0279    9.5798   -7.2599 H   0  0  0  0  0  0  0  0  0  0  0  0
   -4.2429   16.0373  -13.8548 H   0  0  0  0  0  0  0  0  0  0  0  0
   -4.9638   16.2086  -12.2185 H   0  0  0  0  0  0  0  0  0  0  0  0
   -3.4785   15.2246  -12.4471 H   0  0  0  0  0  0  0  0  0  0  0  0
   -6.7526   12.3233   -6.9261 H   0  0  0  0  0  0  0  0  0  0  0  0
   -4.5246   13.2972   -6.4815 H   0  0  0  0  0  0  0  0  0  0  0  0
   -2.6730    9.7536   -8.0506 H   0  0  0  0  0  0  0  0  0  0  0  0
   -4.8993    8.7846   -8.4743 H   0  0  0  0  0  0  0  0  0  0  0  0
   -2.4278   14.2202   -6.2127 H   0  0  0  0  0  0  0  0  0  0  0  0
   -0.6614   10.5729   -7.5868 H   0  0  0  0  0  0  0  0  0  0  0  0
    1.4672   14.2904   -6.0634 H   0  0  0  0  0  0  0  0  0  0  0  0
    0.2117   15.4427   -6.6311 H   0  0  0  0  0  0  0  0  0  0  0  0
    0.1649   14.8218   -4.9462 H   0  0  0  0  0  0  0  0  0  0  0  0
  1  2  1  0  0  0  0
  1  4  1  0  0  0  0
  1 13  2  0  0  0  0
  2  6  2  0  0  0  0
  3  4  1  0  0  0  0
  3  5  2  0  0  0  0
  5  6  1  0  0  0  0
  5  9  1  0  0  0  0
  6  7  1  0  0  0  0
  7  8  1  0  0  0  0
  7 10  2  3  0  0  0
  8  9  1  0  0  0  0
 10 14  1  0  0  0  0
 11 12  1  0  0  0  0
 11 13  1  0  0  0  0
 11 26  2  0  0  0  0
 14 15  2  0  0  0  0
 14 19  1  0  0  0  0
 15 16  1  0  0  0  0
 16 17  2  0  0  0  0
 17 18  1  0  0  0  0
 17 20  1  0  0  0  0
 18 19  2  0  0  0  0
 20 21  2  0  0  0  0
 20 24  1  0  0  0  0
 21 22  1  0  0  0  0
 22 23  1  0  0  0  0
 22 25  1  0  0  0  0
 23 24  2  0  0  0  0
  2 27  1  0  0  0  0
  3 28  1  0  0  0  0
  4 29  1  0  0  0  0
  4 30  1  0  0  0  0
  8 31  1  0  0  0  0
  9 32  1  0  0  0  0
 10 33  1  0  0  0  0
 12 34  1  0  0  0  0
 12 35  1  0  0  0  0
 12 36  1  0  0  0  0
 15 37  1  0  0  0  0
 16 38  1  0  0  0  0
 18 39  1  0  0  0  0
 19 40  1  0  0  0  0
 21 41  1  0  0  0  0
 24 42  1  0  0  0  0
 25 43  1  0  0  0  0
 25 44  1  0  0  0  0
 25 45  1  0  0  0  0
M  END
> <Name>
24

> <IC50[uM]>
0.029

$$$$
24
  -OEChem-05192314333D
 Structure written by MMmdl.
 45 48  0     0  0  0  0  0  0999 V2000
   -6.3515   12.3530  -11.9813 C   0  0  0  0  0  0  0  0  0  0  0  0
   -6.5085   11.7912  -10.7247 C   0  0  0  0  0  0  0  0  0  0  0  0
   -7.6802   10.5716  -13.0438 C   0  0  0  0  0  0  0  0  0  0  0  0
   -6.9296   11.7657  -13.1245 C   0  0  0  0  0  0  0  0  0  0  0  0
   -7.7980   10.0044  -11.7669 C   0  0  0  0  0  0  0  0  0  0  0  0
   -7.2328   10.6109  -10.5989 C   0  0  0  0  0  0  0  0  0  0  0  0
   -7.6209    9.7375   -9.5162 C   0  0  0  0  0  0  0  0  0  0  0  0
   -8.2754    8.7446   -9.9970 N   0  0  0  0  0  0  0  0  0  0  0  0
   -8.4233    8.8800  -11.3218 N   0  0  0  0  0  0  0  0  0  0  0  0
   -7.3328    9.8812   -8.0296 C   0  0  0  0  0  0  0  0  0  0  0  0
   -5.3004   14.2773  -13.1499 C   0  0  0  0  0  0  0  0  0  0  0  0
   -4.4346   15.5261  -12.8998 C   0  0  0  0  0  0  0  0  0  0  0  0
   -5.5896   13.5586  -12.0343 N   0  0  0  0  0  0  0  0  0  0  0  0
   -5.9706   10.4906   -7.7317 C   0  0  0  0  0  0  0  0  0  0  0  0
   -5.8616   11.7632   -7.1684 C   0  0  0  0  0  0  0  0  0  0  0  0
   -4.6051   12.3126   -6.9180 C   0  0  0  0  0  0  0  0  0  0  0  0
   -3.4544   11.5948   -7.2294 C   0  0  0  0  0  0  0  0  0  0  0  0
   -3.5626   10.3128   -7.8011 C   0  0  0  0  0  0  0  0  0  0  0  0
   -4.8160    9.7710   -8.0425 C   0  0  0  0  0  0  0  0  0  0  0  0
   -2.1083   12.1736   -6.9694 C   0  0  0  0  0  0  0  0  0  0  0  0
   -1.7503   13.4247   -6.4858 C   0  0  0  0  0  0  0  0  0  0  0  0
   -0.4131   13.4674   -6.4189 N   0  0  0  0  0  0  0  0  0  0  0  0
    0.1758   12.3735   -6.8057 N   0  0  0  0  0  0  0  0  0  0  0  0
   -0.8094   11.5620   -7.1791 C   0  0  0  0  0  0  0  0  0  0  0  0
    0.4060   14.5705   -5.9896 C   0  0  0  0  0  0  0  0  0  0  0  0
   -5.6528   14.0066  -14.2746 O   0  0  0  0  0  0  0  0  0  0  0  0
   -5.5002   11.5939  -10.3317 H   0  0  0  0  0  0  0  0  0  0  0  0
   -7.0066   12.5435  -10.0954 H   0  0  0  0  0  0  0  0  0  0  0  0
   -8.1361   10.1224  -13.9137 H   0  0  0  0  0  0  0  0  0  0  0  0
   -6.7956   12.2399  -14.0855 H   0  0  0  0  0  0  0  0  0  0  0  0
   -7.7779    7.8985   -9.8058 H   0  0  0  0  0  0  0  0  0  0  0  0
   -9.3978    8.9396  -11.5383 H   0  0  0  0  0  0  0  0  0  0  0  0
   -8.0279    9.5798   -7.2599 H   0  0  0  0  0  0  0  0  0  0  0  0
   -4.2429   16.0373  -13.8548 H   0  0  0  0  0  0  0  0  0  0  0  0
   -4.9638   16.2086  -12.2185 H   0  0  0  0  0  0  0  0  0  0  0  0
   -3.4785   15.2246  -12.4471 H   0  0  0  0  0  0  0  0  0  0  0  0
   -6.7526   12.3233   -6.9261 H   0  0  0  0  0  0  0  0  0  0  0  0
   -4.5246   13.2972   -6.4815 H   0  0  0  0  0  0  0  0  0  0  0  0
   -2.6730    9.7536   -8.0506 H   0  0  0  0  0  0  0  0  0  0  0  0
   -4.8993    8.7846   -8.4743 H   0  0  0  0  0  0  0  0  0  0  0  0
   -2.4278   14.2202   -6.2127 H   0  0  0  0  0  0  0  0  0  0  0  0
   -0.6614   10.5729   -7.5868 H   0  0  0  0  0  0  0  0  0  0  0  0
    1.4672   14.2904   -6.0634 H   0  0  0  0  0  0  0  0  0  0  0  0
    0.2117   15.4427   -6.6311 H   0  0  0  0  0  0  0  0  0  0  0  0
    0.1649   14.8218   -4.9462 H   0  0  0  0  0  0  0  0  0  0  0  0
  1  2  1  0  0  0  0
  1  4  1  0  0  0  0
  1 13  2  0  0  0  0
  2  6  1  0  0  0  0
  3  4  2  0  0  0  0
  3  5  1  0  0  0  0
  5  6  2  0  0  0  0
  5  9  1  0  0  0  0
  6  7  1  0  0  0  0
  7  8  1  0  0  0  0
  7 10  2  3  0  0  0
  8  9  1  0  0  0  0
 10 14  1  0  0  0  0
 11 12  1  0  0  0  0
 11 13  1  0  0  0  0
 11 26  2  0  0  0  0
 14 15  2  0  0  0  0
 14 19  1  0  0  0  0
 15 16  1  0  0  0  0
 16 17  2  0  0  0  0
 17 18  1  0  0  0  0
 17 20  1  0  0  0  0
 18 19  2  0  0  0  0
 20 21  2  0  0  0  0
 20 24  1  0  0  0  0
 21 22  1  0  0  0  0
 22 23  1  0  0  0  0
 22 25  1  0  0  0  0
 23 24  2  0  0  0  0
  2 27  1  0  0  0  0
  2 28  1  0  0  0  0
  3 29  1  0  0  0  0
  4 30  1  0  0  0  0
  8 31  1  0  0  0  0
  9 32  1  0  0  0  0
 10 33  1  0  0  0  0
 12 34  1  0  0  0  0
 12 35  1  0  0  0  0
 12 36  1  0  0  0  0
 15 37  1  0  0  0  0
 16 38  1  0  0  0  0
 18 39  1  0  0  0  0
 19 40  1  0  0  0  0
 21 41  1  0  0  0  0
 24 42  1  0  0  0  0
 25 43  1  0  0  0  0
 25 44  1  0  0  0  0
 25 45  1  0  0  0  0
M  END
> <Name>
24

> <IC50[uM]>
0.029

$$$$
24
  -OEChem-05192314333D
 Structure written by MMmdl.
 45 48  0     0  0  0  0  0  0999 V2000
   -6.3515   12.3530  -11.9813 C   0  0  0  0  0  0  0  0  0  0  0  0
   -6.5085   11.7912  -10.7247 C   0  0  0  0  0  0  0  0  0  0  0  0
   -7.6802   10.5716  -13.0438 C   0  0  0  0  0  0  0  0  0  0  0  0
   -6.9296   11.7657  -13.1245 C   0  0  0  0  0  0  0  0  0  0  0  0
   -7.7980   10.0044  -11.7669 C   0  0  0  0  0  0  0  0  0  0  0  0
   -7.2328   10.6109  -10.5989 C   0  0  0  0  0  0  0  0  0  0  0  0
   -7.6209    9.7375   -9.5162 C   0  0  0  0  0  0  0  0  0  0  0  0
   -8.2754    8.7446   -9.9970 N   0  0  0  0  0  0  0  0  0  0  0  0
   -8.4233    8.8800  -11.3218 N   0  0  0  0  0  0  0  0  0  0  0  0
   -7.3328    9.8812   -8.0296 C   0  0  0  0  0  0  0  0  0  0  0  0
   -5.3004   14.2773  -13.1499 C   0  0  0  0  0  0  0  0  0  0  0  0
   -4.4346   15.5261  -12.8998 C   0  0  0  0  0  0  0  0  0  0  0  0
   -5.5896   13.5586  -12.0343 N   0  0  0  0  0  0  0  0  0  0  0  0
   -5.9706   10.4906   -7.7317 C   0  0  0  0  0  0  0  0  0  0  0  0
   -5.8616   11.7632   -7.1684 C   0  0  0  0  0  0  0  0  0  0  0  0
   -4.6051   12.3126   -6.9180 C   0  0  0  0  0  0  0  0  0  0  0  0
   -3.4544   11.5948   -7.2294 C   0  0  0  0  0  0  0  0  0  0  0  0
   -3.5626   10.3128   -7.8011 C   0  0  0  0  0  0  0  0  0  0  0  0
   -4.8160    9.7710   -8.0425 C   0  0  0  0  0  0  0  0  0  0  0  0
   -2.1083   12.1736   -6.9694 C   0  0  0  0  0  0  0  0  0  0  0  0
   -1.7503   13.4247   -6.4858 C   0  0  0  0  0  0  0  0  0  0  0  0
   -0.4131   13.4674   -6.4189 N   0  0  0  0  0  0  0  0  0  0  0  0
    0.1758   12.3735   -6.8057 N   0  0  0  0  0  0  0  0  0  0  0  0
   -0.8094   11.5620   -7.1791 C   0  0  0  0  0  0  0  0  0  0  0  0
    0.4060   14.5705   -5.9896 C   0  0  0  0  0  0  0  0  0  0  0  0
   -5.6528   14.0066  -14.2746 O   0  0  0  0  0  0  0  0  0  0  0  0
   -6.0747   12.2631   -9.8555 H   0  0  0  0  0  0  0  0  0  0  0  0
   -8.1361   10.1224  -13.9137 H   0  0  0  0  0  0  0  0  0  0  0  0
   -6.7956   12.2399  -14.0855 H   0  0  0  0  0  0  0  0  0  0  0  0
   -8.0279    9.5798   -7.2599 H   0  0  0  0  0  0  0  0  0  0  0  0
   -4.2517   16.0431  -13.8534 H   0  0  0  0  0  0  0  0  0  0  0  0
   -4.9593   16.2038  -12.2102 H   0  0  0  0  0  0  0  0  0  0  0  0
   -3.4743   15.2236  -12.4567 H   0  0  0  0  0  0  0  0  0  0  0  0
   -5.9851   10.0423   -6.7273 H   0  0  0  0  0  0  0  0  0  0  0  0
   -6.7526   12.3233   -6.9261 H   0  0  0  0  0  0  0  0  0  0  0  0
   -4.5246   13.2972   -6.4815 H   0  0  0  0  0  0  0  0  0  0  0  0
   -3.4585   11.1486   -6.2240 H   0  0  0  0  0  0  0  0  0  0  0  0
   -2.6730    9.7536   -8.0506 H   0  0  0  0  0  0  0  0  0  0  0  0
   -4.8993    8.7846   -8.4743 H   0  0  0  0  0  0  0  0  0  0  0  0
   -2.4278   14.2202   -6.2127 H   0  0  0  0  0  0  0  0  0  0  0  0
   -0.6614   10.5729   -7.5868 H   0  0  0  0  0  0  0  0  0  0  0  0
    1.4672   14.2904   -6.0634 H   0  0  0  0  0  0  0  0  0  0  0  0
    0.2117   15.4427   -6.6311 H   0  0  0  0  0  0  0  0  0  0  0  0
    0.1649   14.8218   -4.9462 H   0  0  0  0  0  0  0  0  0  0  0  0
   -6.1759   13.2137  -14.2608 H   0  0  0  0  0  0  0  0  0  0  0  0
  1  2  2  0  0  0  0
  1  4  1  0  0  0  0
  1 13  1  0  0  0  0
  2  6  1  0  0  0  0
  3  4  2  0  0  0  0
  3  5  1  0  0  0  0
  5  6  2  0  0  0  0
  5  9  1  0  0  0  0
  6  7  1  0  0  0  0
  7  8  1  0  0  0  0
  7 10  2  3  0  0  0
  8  9  2  0  0  0  0
 10 14  1  0  0  0  0
 11 12  1  0  0  0  0
 11 13  2  0  0  0  0
 11 26  1  0  0  0  0
 14 15  1  0  0  0  0
 14 19  1  0  0  0  0
 15 16  2  0  0  0  0
 16 17  1  0  0  0  0
 17 18  1  0  0  0  0
 17 20  1  0  0  0  0
 18 19  2  0  0  0  0
 20 21  2  0  0  0  0
 20 24  1  0  0  0  0
 21 22  1  0  0  0  0
 22 23  1  0  0  0  0
 22 25  1  0  0  0  0
 23 24  2  0  0  0  0
  2 27  1  0  0  0  0
  3 28  1  0  0  0  0
  4 29  1  0  0  0  0
 10 30  1  0  0  0  0
 12 31  1  0  0  0  0
 12 32  1  0  0  0  0
 12 33  1  0  0  0  0
 14 34  1  0  0  0  0
 15 35  1  0  0  0  0
 16 36  1  0  0  0  0
 17 37  1  0  0  0  0
 18 38  1  0  0  0  0
 19 39  1  0  0  0  0
 21 40  1  0  0  0  0
 24 41  1  0  0  0  0
 25 42  1  0  0  0  0
 25 43  1  0  0  0  0
 25 44  1  0  0  0  0
 26 45  1  0  0  0  0
M  END
> <Name>
24

> <IC50[uM]>
0.029

$$$$
24
  -OEChem-05192314333D
 Structure written by MMmdl.
 45 48  0     1  0  0  0  0  0999 V2000
   -6.3515   12.3530  -11.9813 C   0  0  0  0  0  0  0  0  0  0  0  0
   -6.5085   11.7912  -10.7247 C   0  0  0  0  0  0  0  0  0  0  0  0
   -7.6802   10.5716  -13.0438 C   0  0  0  0  0  0  0  0  0  0  0  0
   -6.9296   11.7657  -13.1245 C   0  0  0  0  0  0  0  0  0  0  0  0
   -7.7980   10.0044  -11.7669 C   0  0  0  0  0  0  0  0  0  0  0  0
   -7.2328   10.6109  -10.5989 C   0  0  0  0  0  0  0  0  0  0  0  0
   -7.6209    9.7375   -9.5162 C   0  0  3  0  0  0  0  0  0  0  0  0
   -8.2754    8.7446   -9.9970 N   0  0  0  0  0  0  0  0  0  0  0  0
   -8.4233    8.8800  -11.3218 N   0  0  0  0  0  0  0  0  0  0  0  0
   -7.3328    9.8812   -8.0296 C   0  0  0  0  0  0  0  0  0  0  0  0
   -5.3004   14.2773  -13.1499 C   0  0  0  0  0  0  0  0  0  0  0  0
   -4.4346   15.5261  -12.8998 C   0  0  0  0  0  0  0  0  0  0  0  0
   -5.5896   13.5586  -12.0343 N   0  0  0  0  0  0  0  0  0  0  0  0
   -5.9706   10.4906   -7.7317 C   0  0  0  0  0  0  0  0  0  0  0  0
   -5.8616   11.7632   -7.1684 C   0  0  0  0  0  0  0  0  0  0  0  0
   -4.6051   12.3126   -6.9180 C   0  0  0  0  0  0  0  0  0  0  0  0
   -3.4544   11.5948   -7.2294 C   0  0  0  0  0  0  0  0  0  0  0  0
   -3.5626   10.3128   -7.8011 C   0  0  0  0  0  0  0  0  0  0  0  0
   -4.8160    9.7710   -8.0425 C   0  0  0  0  0  0  0  0  0  0  0  0
   -2.1083   12.1736   -6.9694 C   0  0  0  0  0  0  0  0  0  0  0  0
   -1.7503   13.4247   -6.4858 C   0  0  0  0  0  0  0  0  0  0  0  0
   -0.4131   13.4674   -6.4189 N   0  0  0  0  0  0  0  0  0  0  0  0
    0.1758   12.3735   -6.8057 N   0  0  0  0  0  0  0  0  0  0  0  0
   -0.8094   11.5620   -7.1791 C   0  0  0  0  0  0  0  0  0  0  0  0
    0.4060   14.5705   -5.9896 C   0  0  0  0  0  0  0  0  0  0  0  0
   -5.6528   14.0066  -14.2746 O   0  0  0  0  0  0  0  0  0  0  0  0
   -6.0747   12.2631   -9.8555 H   0  0  0  0  0  0  0  0  0  0  0  0
   -8.1361   10.1224  -13.9137 H   0  0  0  0  0  0  0  0  0  0  0  0
   -6.7956   12.2399  -14.0855 H   0  0  0  0  0  0  0  0  0  0  0  0
   -8.5577   10.3007   -9.3927 H   0  0  0  0  0  0  0  0  0  0  0  0
   -8.0279    9.5798   -7.2599 H   0  0  0  0  0  0  0  0  0  0  0  0
   -4.2517   16.0431  -13.8534 H   0  0  0  0  0  0  0  0  0  0  0  0
   -4.9593   16.2038  -12.2102 H   0  0  0  0  0  0  0  0  0  0  0  0
   -3.4743   15.2236  -12.4567 H   0  0  0  0  0  0  0  0  0  0  0  0
   -6.7526   12.3233   -6.9261 H   0  0  0  0  0  0  0  0  0  0  0  0
   -4.5246   13.2972   -6.4815 H   0  0  0  0  0  0  0  0  0  0  0  0
   -3.4585   11.1486   -6.2240 H   0  0  0  0  0  0  0  0  0  0  0  0
   -2.6730    9.7536   -8.0506 H   0  0  0  0  0  0  0  0  0  0  0  0
   -4.8993    8.7846   -8.4743 H   0  0  0  0  0  0  0  0  0  0  0  0
   -2.4278   14.2202   -6.2127 H   0  0  0  0  0  0  0  0  0  0  0  0
   -0.6614   10.5729   -7.5868 H   0  0  0  0  0  0  0  0  0  0  0  0
    1.4672   14.2904   -6.0634 H   0  0  0  0  0  0  0  0  0  0  0  0
    0.2117   15.4427   -6.6311 H   0  0  0  0  0  0  0  0  0  0  0  0
    0.1649   14.8218   -4.9462 H   0  0  0  0  0  0  0  0  0  0  0  0
   -6.1759   13.2137  -14.2608 H   0  0  0  0  0  0  0  0  0  0  0  0
  1  2  2  0  0  0  0
  1  4  1  0  0  0  0
  1 13  1  0  0  0  0
  2  6  1  0  0  0  0
  3  4  2  0  0  0  0
  3  5  1  0  0  0  0
  5  6  2  0  0  0  0
  5  9  1  0  0  0  0
  6  7  1  0  0  0  0
  7  8  1  0  0  0  0
  7 10  1  0  0  0  0
  8  9  2  0  0  0  0
 10 14  2  0  0  0  0
 11 12  1  0  0  0  0
 11 13  2  0  0  0  0
 11 26  1  0  0  0  0
 14 15  1  0  0  0  0
 14 19  1  0  0  0  0
 15 16  2  0  0  0  0
 16 17  1  0  0  0  0
 17 18  1  0  0  0  0
 17 20  1  0  0  0  0
 18 19  2  0  0  0  0
 20 21  2  0  0  0  0
 20 24  1  0  0  0  0
 21 22  1  0  0  0  0
 22 23  1  0  0  0  0
 22 25  1  0  0  0  0
 23 24  2  0  0  0  0
  2 27  1  0  0  0  0
  3 28  1  0  0  0  0
  4 29  1  0  0  0  0
  7 30  1  0  0  0  0
 10 31  1  0  0  0  0
 12 32  1  0  0  0  0
 12 33  1  0  0  0  0
 12 34  1  0  0  0  0
 15 35  1  0  0  0  0
 16 36  1  0  0  0  0
 17 37  1  0  0  0  0
 18 38  1  0  0  0  0
 19 39  1  0  0  0  0
 21 40  1  0  0  0  0
 24 41  1  0  0  0  0
 25 42  1  0  0  0  0
 25 43  1  0  0  0  0
 25 44  1  0  0  0  0
 26 45  1  0  0  0  0
M  END
> <Name>
24

> <IC50[uM]>
0.029

$$$$
24
  -OEChem-05192314333D
 Structure written by MMmdl.
 45 48  0     1  0  0  0  0  0999 V2000
   -6.3515   12.3530  -11.9813 C   0  0  0  0  0  0  0  0  0  0  0  0
   -6.5085   11.7912  -10.7247 C   0  0  0  0  0  0  0  0  0  0  0  0
   -7.6802   10.5716  -13.0438 C   0  0  0  0  0  0  0  0  0  0  0  0
   -6.9296   11.7657  -13.1245 C   0  0  0  0  0  0  0  0  0  0  0  0
   -7.7980   10.0044  -11.7669 C   0  0  3  0  0  0  0  0  0  0  0  0
   -7.2328   10.6109  -10.5989 C   0  0  3  0  0  0  0  0  0  0  0  0
   -7.6209    9.7375   -9.5162 C   0  0  0  0  0  0  0  0  0  0  0  0
   -8.2754    8.7446   -9.9970 N   0  0  0  0  0  0  0  0  0  0  0  0
   -8.4233    8.8800  -11.3218 N   0  0  0  0  0  0  0  0  0  0  0  0
   -7.3328    9.8812   -8.0296 C   0  0  0  0  0  0  0  0  0  0  0  0
   -5.3004   14.2773  -13.1499 C   0  0  0  0  0  0  0  0  0  0  0  0
   -4.4346   15.5261  -12.8998 C   0  0  0  0  0  0  0  0  0  0  0  0
   -5.5896   13.5586  -12.0343 N   0  0  0  0  0  0  0  0  0  0  0  0
   -5.9706   10.4906   -7.7317 C   0  0  0  0  0  0  0  0  0  0  0  0
   -5.8616   11.7632   -7.1684 C   0  0  0  0  0  0  0  0  0  0  0  0
   -4.6051   12.3126   -6.9180 C   0  0  0  0  0  0  0  0  0  0  0  0
   -3.4544   11.5948   -7.2294 C   0  0  0  0  0  0  0  0  0  0  0  0
   -3.5626   10.3128   -7.8011 C   0  0  0  0  0  0  0  0  0  0  0  0
   -4.8160    9.7710   -8.0425 C   0  0  0  0  0  0  0  0  0  0  0  0
   -2.1083   12.1736   -6.9694 C   0  0  0  0  0  0  0  0  0  0  0  0
   -1.7503   13.4247   -6.4858 C   0  0  0  0  0  0  0  0  0  0  0  0
   -0.4131   13.4674   -6.4189 N   0  0  0  0  0  0  0  0  0  0  0  0
    0.1758   12.3735   -6.8057 N   0  0  0  0  0  0  0  0  0  0  0  0
   -0.8094   11.5620   -7.1791 C   0  0  0  0  0  0  0  0  0  0  0  0
    0.4060   14.5705   -5.9896 C   0  0  0  0  0  0  0  0  0  0  0  0
   -5.6528   14.0066  -14.2746 O   0  0  0  0  0  0  0  0  0  0  0  0
   -6.0747   12.2631   -9.8555 H   0  0  0  0  0  0  0  0  0  0  0  0
   -8.1361   10.1224  -13.9137 H   0  0  0  0  0  0  0  0  0  0  0  0
   -6.7956   12.2399  -14.0855 H   0  0  0  0  0  0  0  0  0  0  0  0
   -6.8712    9.4340  -11.9273 H   0  0  0  0  0  0  0  0  0  0  0  0
   -6.3107   10.0281  -10.7406 H   0  0  0  0  0  0  0  0  0  0  0  0
   -8.0279    9.5798   -7.2599 H   0  0  0  0  0  0  0  0  0  0  0  0
   -4.2517   16.0431  -13.8534 H   0  0  0  0  0  0  0  0  0  0  0  0
   -4.9593   16.2038  -12.2102 H   0  0  0  0  0  0  0  0  0  0  0  0
   -3.4743   15.2236  -12.4567 H   0  0  0  0  0  0  0  0  0  0  0  0
   -6.7526   12.3233   -6.9261 H   0  0  0  0  0  0  0  0  0  0  0  0
   -4.5246   13.2972   -6.4815 H   0  0  0  0  0  0  0  0  0  0  0  0
   -2.6730    9.7536   -8.0506 H   0  0  0  0  0  0  0  0  0  0  0  0
   -4.8993    8.7846   -8.4743 H   0  0  0  0  0  0  0  0  0  0  0  0
   -2.4278   14.2202   -6.2127 H   0  0  0  0  0  0  0  0  0  0  0  0
   -0.6614   10.5729   -7.5868 H   0  0  0  0  0  0  0  0  0  0  0  0
    1.4672   14.2904   -6.0634 H   0  0  0  0  0  0  0  0  0  0  0  0
    0.2117   15.4427   -6.6311 H   0  0  0  0  0  0  0  0  0  0  0  0
    0.1649   14.8218   -4.9462 H   0  0  0  0  0  0  0  0  0  0  0  0
   -6.1759   13.2137  -14.2608 H   0  0  0  0  0  0  0  0  0  0  0  0
  1  2  2  0  0  0  0
  1  4  1  0  0  0  0
  1 13  1  0  0  0  0
  2  6  1  0  0  0  0
  3  4  2  0  0  0  0
  3  5  1  0  0  0  0
  5  6  1  0  0  0  0
  5  9  1  0  0  0  0
  6  7  1  0  0  0  0
  7  8  1  0  0  0  0
  7 10  2  3  0  0  0
  8  9  2  0  0  0  0
 10 14  1  0  0  0  0
 11 12  1  0  0  0  0
 11 13  2  0  0  0  0
 11 26  1  0  0  0  0
 14 15  2  0  0  0  0
 14 19  1  0  0  0  0
 15 16  1  0  0  0  0
 16 17  2  0  0  0  0
 17 18  1  0  0  0  0
 17 20  1  0  0  0  0
 18 19  2  0  0  0  0
 20 21  2  0  0  0  0
 20 24  1  0  0  0  0
 21 22  1  0  0  0  0
 22 23  1  0  0  0  0
 22 25  1  0  0  0  0
 23 24  2  0  0  0  0
  2 27  1  0  0  0  0
  3 28  1  0  0  0  0
  4 29  1  0  0  0  0
  5 30  1  0  0  0  0
  6 31  1  0  0  0  0
 10 32  1  0  0  0  0
 12 33  1  0  0  0  0
 12 34  1  0  0  0  0
 12 35  1  0  0  0  0
 15 36  1  0  0  0  0
 16 37  1  0  0  0  0
 18 38  1  0  0  0  0
 19 39  1  0  0  0  0
 21 40  1  0  0  0  0
 24 41  1  0  0  0  0
 25 42  1  0  0  0  0
 25 43  1  0  0  0  0
 25 44  1  0  0  0  0
 26 45  1  0  0  0  0
M  END
> <Name>
24

> <IC50[uM]>
0.029

$$$$
24
  -OEChem-05192314333D
 Structure written by MMmdl.
 45 48  0     1  0  0  0  0  0999 V2000
   -6.3515   12.3530  -11.9813 C   0  0  3  0  0  0  0  0  0  0  0  0
   -6.5085   11.7912  -10.7247 C   0  0  0  0  0  0  0  0  0  0  0  0
   -7.6802   10.5716  -13.0438 C   0  0  0  0  0  0  0  0  0  0  0  0
   -6.9296   11.7657  -13.1245 C   0  0  0  0  0  0  0  0  0  0  0  0
   -7.7980   10.0044  -11.7669 C   0  0  3  0  0  0  0  0  0  0  0  0
   -7.2328   10.6109  -10.5989 C   0  0  0  0  0  0  0  0  0  0  0  0
   -7.6209    9.7375   -9.5162 C   0  0  0  0  0  0  0  0  0  0  0  0
   -8.2754    8.7446   -9.9970 N   0  0  0  0  0  0  0  0  0  0  0  0
   -8.4233    8.8800  -11.3218 N   0  0  0  0  0  0  0  0  0  0  0  0
   -7.3328    9.8812   -8.0296 C   0  0  0  0  0  0  0  0  0  0  0  0
   -5.3004   14.2773  -13.1499 C   0  0  0  0  0  0  0  0  0  0  0  0
   -4.4346   15.5261  -12.8998 C   0  0  0  0  0  0  0  0  0  0  0  0
   -5.5896   13.5586  -12.0343 N   0  0  0  0  0  0  0  0  0  0  0  0
   -5.9706   10.4906   -7.7317 C   0  0  0  0  0  0  0  0  0  0  0  0
   -5.8616   11.7632   -7.1684 C   0  0  0  0  0  0  0  0  0  0  0  0
   -4.6051   12.3126   -6.9180 C   0  0  0  0  0  0  0  0  0  0  0  0
   -3.4544   11.5948   -7.2294 C   0  0  0  0  0  0  0  0  0  0  0  0
   -3.5626   10.3128   -7.8011 C   0  0  0  0  0  0  0  0  0  0  0  0
   -4.8160    9.7710   -8.0425 C   0  0  0  0  0  0  0  0  0  0  0  0
   -2.1083   12.1736   -6.9694 C   0  0  0  0  0  0  0  0  0  0  0  0
   -1.7503   13.4247   -6.4858 C   0  0  0  0  0  0  0  0  0  0  0  0
   -0.4131   13.4674   -6.4189 N   0  0  0  0  0  0  0  0  0  0  0  0
    0.1758   12.3735   -6.8057 N   0  0  0  0  0  0  0  0  0  0  0  0
   -0.8094   11.5620   -7.1791 C   0  0  0  0  0  0  0  0  0  0  0  0
    0.4060   14.5705   -5.9896 C   0  0  0  0  0  0  0  0  0  0  0  0
   -5.6528   14.0066  -14.2746 O   0  0  0  0  0  0  0  0  0  0  0  0
   -5.4362   11.7628  -12.1356 H   0  0  0  0  0  0  0  0  0  0  0  0
   -6.0747   12.2631   -9.8555 H   0  0  0  0  0  0  0  0  0  0  0  0
   -8.1361   10.1224  -13.9137 H   0  0  0  0  0  0  0  0  0  0  0  0
   -6.7956   12.2399  -14.0855 H   0  0  0  0  0  0  0  0  0  0  0  0
   -6.8712    9.4340  -11.9273 H   0  0  0  0  0  0  0  0  0  0  0  0
   -8.0279    9.5798   -7.2599 H   0  0  0  0  0  0  0  0  0  0  0  0
   -4.2517   16.0431  -13.8534 H   0  0  0  0  0  0  0  0  0  0  0  0
   -4.9593   16.2038  -12.2102 H   0  0  0  0  0  0  0  0  0  0  0  0
   -3.4743   15.2236  -12.4567 H   0  0  0  0  0  0  0  0  0  0  0  0
   -6.7526   12.3233   -6.9261 H   0  0  0  0  0  0  0  0  0  0  0  0
   -4.5246   13.2972   -6.4815 H   0  0  0  0  0  0  0  0  0  0  0  0
   -2.6730    9.7536   -8.0506 H   0  0  0  0  0  0  0  0  0  0  0  0
   -4.8993    8.7846   -8.4743 H   0  0  0  0  0  0  0  0  0  0  0  0
   -2.4278   14.2202   -6.2127 H   0  0  0  0  0  0  0  0  0  0  0  0
   -0.6614   10.5729   -7.5868 H   0  0  0  0  0  0  0  0  0  0  0  0
    1.4672   14.2904   -6.0634 H   0  0  0  0  0  0  0  0  0  0  0  0
    0.2117   15.4427   -6.6311 H   0  0  0  0  0  0  0  0  0  0  0  0
    0.1649   14.8218   -4.9462 H   0  0  0  0  0  0  0  0  0  0  0  0
   -6.1759   13.2137  -14.2608 H   0  0  0  0  0  0  0  0  0  0  0  0
  1  2  1  0  0  0  0
  1  4  1  0  0  0  0
  1 13  1  0  0  0  0
  2  6  2  0  0  0  0
  3  4  2  0  0  0  0
  3  5  1  0  0  0  0
  5  6  1  0  0  0  0
  5  9  1  0  0  0  0
  6  7  1  0  0  0  0
  7  8  1  0  0  0  0
  7 10  2  3  0  0  0
  8  9  2  0  0  0  0
 10 14  1  0  0  0  0
 11 12  1  0  0  0  0
 11 13  2  0  0  0  0
 11 26  1  0  0  0  0
 14 15  2  0  0  0  0
 14 19  1  0  0  0  0
 15 16  1  0  0  0  0
 16 17  2  0  0  0  0
 17 18  1  0  0  0  0
 17 20  1  0  0  0  0
 18 19  2  0  0  0  0
 20 21  2  0  0  0  0
 20 24  1  0  0  0  0
 21 22  1  0  0  0  0
 22 23  1  0  0  0  0
 22 25  1  0  0  0  0
 23 24  2  0  0  0  0
  1 27  1  0  0  0  0
  2 28  1  0  0  0  0
  3 29  1  0  0  0  0
  4 30  1  0  0  0  0
  5 31  1  0  0  0  0
 10 32  1  0  0  0  0
 12 33  1  0  0  0  0
 12 34  1  0  0  0  0
 12 35  1  0  0  0  0
 15 36  1  0  0  0  0
 16 37  1  0  0  0  0
 18 38  1  0  0  0  0
 19 39  1  0  0  0  0
 21 40  1  0  0  0  0
 24 41  1  0  0  0  0
 25 42  1  0  0  0  0
 25 43  1  0  0  0  0
 25 44  1  0  0  0  0
 26 45  1  0  0  0  0
M  END
> <Name>
24

> <IC50[uM]>
0.029

$$$$
24
  -OEChem-05192314333D
 Structure written by MMmdl.
 45 48  0     1  0  0  0  0  0999 V2000
   -6.3515   12.3530  -11.9813 C   0  0  0  0  0  0  0  0  0  0  0  0
   -6.5085   11.7912  -10.7247 C   0  0  0  0  0  0  0  0  0  0  0  0
   -7.6802   10.5716  -13.0438 C   0  0  0  0  0  0  0  0  0  0  0  0
   -6.9296   11.7657  -13.1245 C   0  0  0  0  0  0  0  0  0  0  0  0
   -7.7980   10.0044  -11.7669 C   0  0  3  0  0  0  0  0  0  0  0  0
   -7.2328   10.6109  -10.5989 C   0  0  0  0  0  0  0  0  0  0  0  0
   -7.6209    9.7375   -9.5162 C   0  0  0  0  0  0  0  0  0  0  0  0
   -8.2754    8.7446   -9.9970 N   0  0  0  0  0  0  0  0  0  0  0  0
   -8.4233    8.8800  -11.3218 N   0  0  0  0  0  0  0  0  0  0  0  0
   -7.3328    9.8812   -8.0296 C   0  0  0  0  0  0  0  0  0  0  0  0
   -5.3004   14.2773  -13.1499 C   0  0  0  0  0  0  0  0  0  0  0  0
   -4.4346   15.5261  -12.8998 C   0  0  0  0  0  0  0  0  0  0  0  0
   -5.5896   13.5586  -12.0343 N   0  0  0  0  0  0  0  0  0  0  0  0
   -5.9706   10.4906   -7.7317 C   0  0  0  0  0  0  0  0  0  0  0  0
   -5.8616   11.7632   -7.1684 C   0  0  0  0  0  0  0  0  0  0  0  0
   -4.6051   12.3126   -6.9180 C   0  0  0  0  0  0  0  0  0  0  0  0
   -3.4544   11.5948   -7.2294 C   0  0  0  0  0  0  0  0  0  0  0  0
   -3.5626   10.3128   -7.8011 C   0  0  0  0  0  0  0  0  0  0  0  0
   -4.8160    9.7710   -8.0425 C   0  0  0  0  0  0  0  0  0  0  0  0
   -2.1083   12.1736   -6.9694 C   0  0  0  0  0  0  0  0  0  0  0  0
   -1.7503   13.4247   -6.4858 C   0  0  0  0  0  0  0  0  0  0  0  0
   -0.4131   13.4674   -6.4189 N   0  0  0  0  0  0  0  0  0  0  0  0
    0.1758   12.3735   -6.8057 N   0  0  0  0  0  0  0  0  0  0  0  0
   -0.8094   11.5620   -7.1791 C   0  0  0  0  0  0  0  0  0  0  0  0
    0.4060   14.5705   -5.9896 C   0  0  0  0  0  0  0  0  0  0  0  0
   -5.6528   14.0066  -14.2746 O   0  0  0  0  0  0  0  0  0  0  0  0
   -6.0747   12.2631   -9.8555 H   0  0  0  0  0  0  0  0  0  0  0  0
   -8.6945   10.7862  -13.4115 H   0  0  0  0  0  0  0  0  0  0  0  0
   -7.2021    9.8287  -13.6992 H   0  0  0  0  0  0  0  0  0  0  0  0
   -6.7956   12.2399  -14.0855 H   0  0  0  0  0  0  0  0  0  0  0  0
   -6.8712    9.4340  -11.9273 H   0  0  0  0  0  0  0  0  0  0  0  0
   -8.0279    9.5798   -7.2599 H   0  0  0  0  0  0  0  0  0  0  0  0
   -4.2517   16.0431  -13.8534 H   0  0  0  0  0  0  0  0  0  0  0  0
   -4.9593   16.2038  -12.2102 H   0  0  0  0  0  0  0  0  0  0  0  0
   -3.4743   15.2236  -12.4567 H   0  0  0  0  0  0  0  0  0  0  0  0
   -6.7526   12.3233   -6.9261 H   0  0  0  0  0  0  0  0  0  0  0  0
   -4.5246   13.2972   -6.4815 H   0  0  0  0  0  0  0  0  0  0  0  0
   -2.6730    9.7536   -8.0506 H   0  0  0  0  0  0  0  0  0  0  0  0
   -4.8993    8.7846   -8.4743 H   0  0  0  0  0  0  0  0  0  0  0  0
   -2.4278   14.2202   -6.2127 H   0  0  0  0  0  0  0  0  0  0  0  0
   -0.6614   10.5729   -7.5868 H   0  0  0  0  0  0  0  0  0  0  0  0
    1.4672   14.2904   -6.0634 H   0  0  0  0  0  0  0  0  0  0  0  0
    0.2117   15.4427   -6.6311 H   0  0  0  0  0  0  0  0  0  0  0  0
    0.1649   14.8218   -4.9462 H   0  0  0  0  0  0  0  0  0  0  0  0
   -6.1759   13.2137  -14.2608 H   0  0  0  0  0  0  0  0  0  0  0  0
  1  2  1  0  0  0  0
  1  4  2  0  0  0  0
  1 13  1  0  0  0  0
  2  6  2  0  0  0  0
  3  4  1  0  0  0  0
  3  5  1  0  0  0  0
  5  6  1  0  0  0  0
  5  9  1  0  0  0  0
  6  7  1  0  0  0  0
  7  8  1  0  0  0  0
  7 10  2  3  0  0  0
  8  9  2  0  0  0  0
 10 14  1  0  0  0  0
 11 12  1  0  0  0  0
 11 13  2  0  0  0  0
 11 26  1  0  0  0  0
 14 15  2  0  0  0  0
 14 19  1  0  0  0  0
 15 16  1  0  0  0  0
 16 17  2  0  0  0  0
 17 18  1  0  0  0  0
 17 20  1  0  0  0  0
 18 19  2  0  0  0  0
 20 21  2  0  0  0  0
 20 24  1  0  0  0  0
 21 22  1  0  0  0  0
 22 23  1  0  0  0  0
 22 25  1  0  0  0  0
 23 24  2  0  0  0  0
  2 27  1  0  0  0  0
  3 28  1  0  0  0  0
  3 29  1  0  0  0  0
  4 30  1  0  0  0  0
  5 31  1  0  0  0  0
 10 32  1  0  0  0  0
 12 33  1  0  0  0  0
 12 34  1  0  0  0  0
 12 35  1  0  0  0  0
 15 36  1  0  0  0  0
 16 37  1  0  0  0  0
 18 38  1  0  0  0  0
 19 39  1  0  0  0  0
 21 40  1  0  0  0  0
 24 41  1  0  0  0  0
 25 42  1  0  0  0  0
 25 43  1  0  0  0  0
 25 44  1  0  0  0  0
 26 45  1  0  0  0  0
M  END
> <Name>
24

> <IC50[uM]>
0.029

$$$$
24
  -OEChem-05192314333D
 Structure written by MMmdl.
 45 48  0     1  0  0  0  0  0999 V2000
   -6.3515   12.3530  -11.9813 C   0  0  0  0  0  0  0  0  0  0  0  0
   -6.5085   11.7912  -10.7247 C   0  0  0  0  0  0  0  0  0  0  0  0
   -7.6802   10.5716  -13.0438 C   0  0  0  0  0  0  0  0  0  0  0  0
   -6.9296   11.7657  -13.1245 C   0  0  0  0  0  0  0  0  0  0  0  0
   -7.7980   10.0044  -11.7669 C   0  0  0  0  0  0  0  0  0  0  0  0
   -7.2328   10.6109  -10.5989 C   0  0  3  0  0  0  0  0  0  0  0  0
   -7.6209    9.7375   -9.5162 C   0  0  0  0  0  0  0  0  0  0  0  0
   -8.2754    8.7446   -9.9970 N   0  0  0  0  0  0  0  0  0  0  0  0
   -8.4233    8.8800  -11.3218 N   0  0  0  0  0  0  0  0  0  0  0  0
   -7.3328    9.8812   -8.0296 C   0  0  0  0  0  0  0  0  0  0  0  0
   -5.3004   14.2773  -13.1499 C   0  0  0  0  0  0  0  0  0  0  0  0
   -4.4346   15.5261  -12.8998 C   0  0  0  0  0  0  0  0  0  0  0  0
   -5.5896   13.5586  -12.0343 N   0  0  0  0  0  0  0  0  0  0  0  0
   -5.9706   10.4906   -7.7317 C   0  0  0  0  0  0  0  0  0  0  0  0
   -5.8616   11.7632   -7.1684 C   0  0  0  0  0  0  0  0  0  0  0  0
   -4.6051   12.3126   -6.9180 C   0  0  0  0  0  0  0  0  0  0  0  0
   -3.4544   11.5948   -7.2294 C   0  0  0  0  0  0  0  0  0  0  0  0
   -3.5626   10.3128   -7.8011 C   0  0  0  0  0  0  0  0  0  0  0  0
   -4.8160    9.7710   -8.0425 C   0  0  0  0  0  0  0  0  0  0  0  0
   -2.1083   12.1736   -6.9694 C   0  0  0  0  0  0  0  0  0  0  0  0
   -1.7503   13.4247   -6.4858 C   0  0  0  0  0  0  0  0  0  0  0  0
   -0.4131   13.4674   -6.4189 N   0  0  0  0  0  0  0  0  0  0  0  0
    0.1758   12.3735   -6.8057 N   0  0  0  0  0  0  0  0  0  0  0  0
   -0.8094   11.5620   -7.1791 C   0  0  0  0  0  0  0  0  0  0  0  0
    0.4060   14.5705   -5.9896 C   0  0  0  0  0  0  0  0  0  0  0  0
   -5.6528   14.0066  -14.2746 O   0  0  0  0  0  0  0  0  0  0  0  0
   -6.0747   12.2631   -9.8555 H   0  0  0  0  0  0  0  0  0  0  0  0
   -8.1361   10.1224  -13.9137 H   0  0  0  0  0  0  0  0  0  0  0  0
   -7.5989   12.5237  -13.5575 H   0  0  0  0  0  0  0  0  0  0  0  0
   -6.1027   11.5654  -13.8217 H   0  0  0  0  0  0  0  0  0  0  0  0
   -6.3107   10.0281  -10.7406 H   0  0  0  0  0  0  0  0  0  0  0  0
   -8.0279    9.5798   -7.2599 H   0  0  0  0  0  0  0  0  0  0  0  0
   -4.2517   16.0431  -13.8534 H   0  0  0  0  0  0  0  0  0  0  0  0
   -4.9593   16.2038  -12.2102 H   0  0  0  0  0  0  0  0  0  0  0  0
   -3.4743   15.2236  -12.4567 H   0  0  0  0  0  0  0  0  0  0  0  0
   -6.7526   12.3233   -6.9261 H   0  0  0  0  0  0  0  0  0  0  0  0
   -4.5246   13.2972   -6.4815 H   0  0  0  0  0  0  0  0  0  0  0  0
   -2.6730    9.7536   -8.0506 H   0  0  0  0  0  0  0  0  0  0  0  0
   -4.8993    8.7846   -8.4743 H   0  0  0  0  0  0  0  0  0  0  0  0
   -2.4278   14.2202   -6.2127 H   0  0  0  0  0  0  0  0  0  0  0  0
   -0.6614   10.5729   -7.5868 H   0  0  0  0  0  0  0  0  0  0  0  0
    1.4672   14.2904   -6.0634 H   0  0  0  0  0  0  0  0  0  0  0  0
    0.2117   15.4427   -6.6311 H   0  0  0  0  0  0  0  0  0  0  0  0
    0.1649   14.8218   -4.9462 H   0  0  0  0  0  0  0  0  0  0  0  0
   -6.1759   13.2137  -14.2608 H   0  0  0  0  0  0  0  0  0  0  0  0
  1  2  2  0  0  0  0
  1  4  1  0  0  0  0
  1 13  1  0  0  0  0
  2  6  1  0  0  0  0
  3  4  1  0  0  0  0
  3  5  2  0  0  0  0
  5  6  1  0  0  0  0
  5  9  1  0  0  0  0
  6  7  1  0  0  0  0
  7  8  1  0  0  0  0
  7 10  2  3  0  0  0
  8  9  2  0  0  0  0
 10 14  1  0  0  0  0
 11 12  1  0  0  0  0
 11 13  2  0  0  0  0
 11 26  1  0  0  0  0
 14 15  2  0  0  0  0
 14 19  1  0  0  0  0
 15 16  1  0  0  0  0
 16 17  2  0  0  0  0
 17 18  1  0  0  0  0
 17 20  1  0  0  0  0
 18 19  2  0  0  0  0
 20 21  2  0  0  0  0
 20 24  1  0  0  0  0
 21 22  1  0  0  0  0
 22 23  1  0  0  0  0
 22 25  1  0  0  0  0
 23 24  2  0  0  0  0
  2 27  1  0  0  0  0
  3 28  1  0  0  0  0
  4 29  1  0  0  0  0
  4 30  1  0  0  0  0
  6 31  1  0  0  0  0
 10 32  1  0  0  0  0
 12 33  1  0  0  0  0
 12 34  1  0  0  0  0
 12 35  1  0  0  0  0
 15 36  1  0  0  0  0
 16 37  1  0  0  0  0
 18 38  1  0  0  0  0
 19 39  1  0  0  0  0
 21 40  1  0  0  0  0
 24 41  1  0  0  0  0
 25 42  1  0  0  0  0
 25 43  1  0  0  0  0
 25 44  1  0  0  0  0
 26 45  1  0  0  0  0
M  END
> <Name>
24

> <IC50[uM]>
0.029

$$$$
24
  -OEChem-05192314333D
 Structure written by MMmdl.
 45 48  0     1  0  0  0  0  0999 V2000
   -6.3515   12.3530  -11.9813 C   0  0  3  0  0  0  0  0  0  0  0  0
   -6.5085   11.7912  -10.7247 C   0  0  0  0  0  0  0  0  0  0  0  0
   -7.6802   10.5716  -13.0438 C   0  0  0  0  0  0  0  0  0  0  0  0
   -6.9296   11.7657  -13.1245 C   0  0  0  0  0  0  0  0  0  0  0  0
   -7.7980   10.0044  -11.7669 C   0  0  0  0  0  0  0  0  0  0  0  0
   -7.2328   10.6109  -10.5989 C   0  0  0  0  0  0  0  0  0  0  0  0
   -7.6209    9.7375   -9.5162 C   0  0  0  0  0  0  0  0  0  0  0  0
   -8.2754    8.7446   -9.9970 N   0  0  0  0  0  0  0  0  0  0  0  0
   -8.4233    8.8800  -11.3218 N   0  0  0  0  0  0  0  0  0  0  0  0
   -7.3328    9.8812   -8.0296 C   0  0  0  0  0  0  0  0  0  0  0  0
   -5.3004   14.2773  -13.1499 C   0  0  0  0  0  0  0  0  0  0  0  0
   -4.4346   15.5261  -12.8998 C   0  0  0  0  0  0  0  0  0  0  0  0
   -5.5896   13.5586  -12.0343 N   0  0  0  0  0  0  0  0  0  0  0  0
   -5.9706   10.4906   -7.7317 C   0  0  0  0  0  0  0  0  0  0  0  0
   -5.8616   11.7632   -7.1684 C   0  0  0  0  0  0  0  0  0  0  0  0
   -4.6051   12.3126   -6.9180 C   0  0  0  0  0  0  0  0  0  0  0  0
   -3.4544   11.5948   -7.2294 C   0  0  0  0  0  0  0  0  0  0  0  0
   -3.5626   10.3128   -7.8011 C   0  0  0  0  0  0  0  0  0  0  0  0
   -4.8160    9.7710   -8.0425 C   0  0  0  0  0  0  0  0  0  0  0  0
   -2.1083   12.1736   -6.9694 C   0  0  0  0  0  0  0  0  0  0  0  0
   -1.7503   13.4247   -6.4858 C   0  0  0  0  0  0  0  0  0  0  0  0
   -0.4131   13.4674   -6.4189 N   0  0  0  0  0  0  0  0  0  0  0  0
    0.1758   12.3735   -6.8057 N   0  0  0  0  0  0  0  0  0  0  0  0
   -0.8094   11.5620   -7.1791 C   0  0  0  0  0  0  0  0  0  0  0  0
    0.4060   14.5705   -5.9896 C   0  0  0  0  0  0  0  0  0  0  0  0
   -5.6528   14.0066  -14.2746 O   0  0  0  0  0  0  0  0  0  0  0  0
   -5.4362   11.7628  -12.1356 H   0  0  0  0  0  0  0  0  0  0  0  0
   -6.0747   12.2631   -9.8555 H   0  0  0  0  0  0  0  0  0  0  0  0
   -8.1361   10.1224  -13.9137 H   0  0  0  0  0  0  0  0  0  0  0  0
   -7.5989   12.5237  -13.5575 H   0  0  0  0  0  0  0  0  0  0  0  0
   -6.1027   11.5654  -13.8217 H   0  0  0  0  0  0  0  0  0  0  0  0
   -8.0279    9.5798   -7.2599 H   0  0  0  0  0  0  0  0  0  0  0  0
   -4.2517   16.0431  -13.8534 H   0  0  0  0  0  0  0  0  0  0  0  0
   -4.9593   16.2038  -12.2102 H   0  0  0  0  0  0  0  0  0  0  0  0
   -3.4743   15.2236  -12.4567 H   0  0  0  0  0  0  0  0  0  0  0  0
   -6.7526   12.3233   -6.9261 H   0  0  0  0  0  0  0  0  0  0  0  0
   -4.5246   13.2972   -6.4815 H   0  0  0  0  0  0  0  0  0  0  0  0
   -2.6730    9.7536   -8.0506 H   0  0  0  0  0  0  0  0  0  0  0  0
   -4.8993    8.7846   -8.4743 H   0  0  0  0  0  0  0  0  0  0  0  0
   -2.4278   14.2202   -6.2127 H   0  0  0  0  0  0  0  0  0  0  0  0
   -0.6614   10.5729   -7.5868 H   0  0  0  0  0  0  0  0  0  0  0  0
    1.4672   14.2904   -6.0634 H   0  0  0  0  0  0  0  0  0  0  0  0
    0.2117   15.4427   -6.6311 H   0  0  0  0  0  0  0  0  0  0  0  0
    0.1649   14.8218   -4.9462 H   0  0  0  0  0  0  0  0  0  0  0  0
   -6.1759   13.2137  -14.2608 H   0  0  0  0  0  0  0  0  0  0  0  0
  1  2  1  0  0  0  0
  1  4  1  0  0  0  0
  1 13  1  0  0  0  0
  2  6  2  0  0  0  0
  3  4  1  0  0  0  0
  3  5  2  0  0  0  0
  5  6  1  0  0  0  0
  5  9  1  0  0  0  0
  6  7  1  0  0  0  0
  7  8  1  0  0  0  0
  7 10  2  3  0  0  0
  8  9  2  0  0  0  0
 10 14  1  0  0  0  0
 11 12  1  0  0  0  0
 11 13  2  0  0  0  0
 11 26  1  0  0  0  0
 14 15  2  0  0  0  0
 14 19  1  0  0  0  0
 15 16  1  0  0  0  0
 16 17  2  0  0  0  0
 17 18  1  0  0  0  0
 17 20  1  0  0  0  0
 18 19  2  0  0  0  0
 20 21  2  0  0  0  0
 20 24  1  0  0  0  0
 21 22  1  0  0  0  0
 22 23  1  0  0  0  0
 22 25  1  0  0  0  0
 23 24  2  0  0  0  0
  1 27  1  0  0  0  0
  2 28  1  0  0  0  0
  3 29  1  0  0  0  0
  4 30  1  0  0  0  0
  4 31  1  0  0  0  0
 10 32  1  0  0  0  0
 12 33  1  0  0  0  0
 12 34  1  0  0  0  0
 12 35  1  0  0  0  0
 15 36  1  0  0  0  0
 16 37  1  0  0  0  0
 18 38  1  0  0  0  0
 19 39  1  0  0  0  0
 21 40  1  0  0  0  0
 24 41  1  0  0  0  0
 25 42  1  0  0  0  0
 25 43  1  0  0  0  0
 25 44  1  0  0  0  0
 26 45  1  0  0  0  0
M  END
> <Name>
24

> <IC50[uM]>
0.029

$$$$
24
  -OEChem-05192314333D
 Structure written by MMmdl.
 45 48  0     0  0  0  0  0  0999 V2000
   -6.3515   12.3530  -11.9813 C   0  0  0  0  0  0  0  0  0  0  0  0
   -6.5085   11.7912  -10.7247 C   0  0  0  0  0  0  0  0  0  0  0  0
   -7.6802   10.5716  -13.0438 C   0  0  0  0  0  0  0  0  0  0  0  0
   -6.9296   11.7657  -13.1245 C   0  0  0  0  0  0  0  0  0  0  0  0
   -7.7980   10.0044  -11.7669 C   0  0  0  0  0  0  0  0  0  0  0  0
   -7.2328   10.6109  -10.5989 C   0  0  0  0  0  0  0  0  0  0  0  0
   -7.6209    9.7375   -9.5162 C   0  0  0  0  0  0  0  0  0  0  0  0
   -8.2754    8.7446   -9.9970 N   0  0  0  0  0  0  0  0  0  0  0  0
   -8.4233    8.8800  -11.3218 N   0  0  0  0  0  0  0  0  0  0  0  0
   -7.3328    9.8812   -8.0296 C   0  0  0  0  0  0  0  0  0  0  0  0
   -5.3004   14.2773  -13.1499 C   0  0  0  0  0  0  0  0  0  0  0  0
   -4.4346   15.5261  -12.8998 C   0  0  0  0  0  0  0  0  0  0  0  0
   -5.5896   13.5586  -12.0343 N   0  0  0  0  0  0  0  0  0  0  0  0
   -5.9706   10.4906   -7.7317 C   0  0  0  0  0  0  0  0  0  0  0  0
   -5.8616   11.7632   -7.1684 C   0  0  0  0  0  0  0  0  0  0  0  0
   -4.6051   12.3126   -6.9180 C   0  0  0  0  0  0  0  0  0  0  0  0
   -3.4544   11.5948   -7.2294 C   0  0  0  0  0  0  0  0  0  0  0  0
   -3.5626   10.3128   -7.8011 C   0  0  0  0  0  0  0  0  0  0  0  0
   -4.8160    9.7710   -8.0425 C   0  0  0  0  0  0  0  0  0  0  0  0
   -2.1083   12.1736   -6.9694 C   0  0  0  0  0  0  0  0  0  0  0  0
   -1.7503   13.4247   -6.4858 C   0  0  0  0  0  0  0  0  0  0  0  0
   -0.4131   13.4674   -6.4189 N   0  0  0  0  0  0  0  0  0  0  0  0
    0.1758   12.3735   -6.8057 N   0  0  0  0  0  0  0  0  0  0  0  0
   -0.8094   11.5620   -7.1791 C   0  0  0  0  0  0  0  0  0  0  0  0
    0.4060   14.5705   -5.9896 C   0  0  0  0  0  0  0  0  0  0  0  0
   -5.6528   14.0066  -14.2746 O   0  0  0  0  0  0  0  0  0  0  0  0
   -6.0747   12.2631   -9.8555 H   0  0  0  0  0  0  0  0  0  0  0  0
   -8.6945   10.7862  -13.4115 H   0  0  0  0  0  0  0  0  0  0  0  0
   -7.2021    9.8287  -13.6992 H   0  0  0  0  0  0  0  0  0  0  0  0
   -7.5989   12.5237  -13.5575 H   0  0  0  0  0  0  0  0  0  0  0  0
   -6.1027   11.5654  -13.8217 H   0  0  0  0  0  0  0  0  0  0  0  0
   -8.0279    9.5798   -7.2599 H   0  0  0  0  0  0  0  0  0  0  0  0
   -4.2517   16.0431  -13.8534 H   0  0  0  0  0  0  0  0  0  0  0  0
   -4.9593   16.2038  -12.2102 H   0  0  0  0  0  0  0  0  0  0  0  0
   -3.4743   15.2236  -12.4567 H   0  0  0  0  0  0  0  0  0  0  0  0
   -6.7526   12.3233   -6.9261 H   0  0  0  0  0  0  0  0  0  0  0  0
   -4.5246   13.2972   -6.4815 H   0  0  0  0  0  0  0  0  0  0  0  0
   -2.6730    9.7536   -8.0506 H   0  0  0  0  0  0  0  0  0  0  0  0
   -4.8993    8.7846   -8.4743 H   0  0  0  0  0  0  0  0  0  0  0  0
   -2.4278   14.2202   -6.2127 H   0  0  0  0  0  0  0  0  0  0  0  0
   -0.6614   10.5729   -7.5868 H   0  0  0  0  0  0  0  0  0  0  0  0
    1.4672   14.2904   -6.0634 H   0  0  0  0  0  0  0  0  0  0  0  0
    0.2117   15.4427   -6.6311 H   0  0  0  0  0  0  0  0  0  0  0  0
    0.1649   14.8218   -4.9462 H   0  0  0  0  0  0  0  0  0  0  0  0
   -6.1759   13.2137  -14.2608 H   0  0  0  0  0  0  0  0  0  0  0  0
  1  2  2  0  0  0  0
  1  4  1  0  0  0  0
  1 13  1  0  0  0  0
  2  6  1  0  0  0  0
  3  4  1  0  0  0  0
  3  5  1  0  0  0  0
  5  6  2  0  0  0  0
  5  9  1  0  0  0  0
  6  7  1  0  0  0  0
  7  8  1  0  0  0  0
  7 10  2  3  0  0  0
  8  9  2  0  0  0  0
 10 14  1  0  0  0  0
 11 12  1  0  0  0  0
 11 13  2  0  0  0  0
 11 26  1  0  0  0  0
 14 15  2  0  0  0  0
 14 19  1  0  0  0  0
 15 16  1  0  0  0  0
 16 17  2  0  0  0  0
 17 18  1  0  0  0  0
 17 20  1  0  0  0  0
 18 19  2  0  0  0  0
 20 21  2  0  0  0  0
 20 24  1  0  0  0  0
 21 22  1  0  0  0  0
 22 23  1  0  0  0  0
 22 25  1  0  0  0  0
 23 24  2  0  0  0  0
  2 27  1  0  0  0  0
  3 28  1  0  0  0  0
  3 29  1  0  0  0  0
  4 30  1  0  0  0  0
  4 31  1  0  0  0  0
 10 32  1  0  0  0  0
 12 33  1  0  0  0  0
 12 34  1  0  0  0  0
 12 35  1  0  0  0  0
 15 36  1  0  0  0  0
 16 37  1  0  0  0  0
 18 38  1  0  0  0  0
 19 39  1  0  0  0  0
 21 40  1  0  0  0  0
 24 41  1  0  0  0  0
 25 42  1  0  0  0  0
 25 43  1  0  0  0  0
 25 44  1  0  0  0  0
 26 45  1  0  0  0  0
M  END
> <Name>
24

> <IC50[uM]>
0.029

$$$$
24
  -OEChem-05192314333D
 Structure written by MMmdl.
 45 48  0     1  0  0  0  0  0999 V2000
   -6.3515   12.3530  -11.9813 C   0  0  0  0  0  0  0  0  0  0  0  0
   -6.5085   11.7912  -10.7247 C   0  0  0  0  0  0  0  0  0  0  0  0
   -7.6802   10.5716  -13.0438 C   0  0  0  0  0  0  0  0  0  0  0  0
   -6.9296   11.7657  -13.1245 C   0  0  0  0  0  0  0  0  0  0  0  0
   -7.7980   10.0044  -11.7669 C   0  0  0  0  0  0  0  0  0  0  0  0
   -7.2328   10.6109  -10.5989 C   0  0  0  0  0  0  0  0  0  0  0  0
   -7.6209    9.7375   -9.5162 C   0  0  0  0  0  0  0  0  0  0  0  0
   -8.2754    8.7446   -9.9970 N   0  0  0  0  0  0  0  0  0  0  0  0
   -8.4233    8.8800  -11.3218 N   0  0  0  0  0  0  0  0  0  0  0  0
   -7.3328    9.8812   -8.0296 C   0  0  0  0  0  0  0  0  0  0  0  0
   -5.3004   14.2773  -13.1499 C   0  0  0  0  0  0  0  0  0  0  0  0
   -4.4346   15.5261  -12.8998 C   0  0  0  0  0  0  0  0  0  0  0  0
   -5.5896   13.5586  -12.0343 N   0  0  0  0  0  0  0  0  0  0  0  0
   -5.9706   10.4906   -7.7317 C   0  0  0  0  0  0  0  0  0  0  0  0
   -5.8616   11.7632   -7.1684 C   0  0  0  0  0  0  0  0  0  0  0  0
   -4.6051   12.3126   -6.9180 C   0  0  0  0  0  0  0  0  0  0  0  0
   -3.4544   11.5948   -7.2294 C   0  0  3  0  0  0  0  0  0  0  0  0
   -3.5626   10.3128   -7.8011 C   0  0  0  0  0  0  0  0  0  0  0  0
   -4.8160    9.7710   -8.0425 C   0  0  0  0  0  0  0  0  0  0  0  0
   -2.1083   12.1736   -6.9694 C   0  0  0  0  0  0  0  0  0  0  0  0
   -1.7503   13.4247   -6.4858 C   0  0  0  0  0  0  0  0  0  0  0  0
   -0.4131   13.4674   -6.4189 N   0  0  0  0  0  0  0  0  0  0  0  0
    0.1758   12.3735   -6.8057 N   0  0  0  0  0  0  0  0  0  0  0  0
   -0.8094   11.5620   -7.1791 C   0  0  0  0  0  0  0  0  0  0  0  0
    0.4060   14.5705   -5.9896 C   0  0  0  0  0  0  0  0  0  0  0  0
   -5.6528   14.0066  -14.2746 O   0  0  0  0  0  0  0  0  0  0  0  0
   -6.0747   12.2631   -9.8555 H   0  0  0  0  0  0  0  0  0  0  0  0
   -8.1361   10.1224  -13.9137 H   0  0  0  0  0  0  0  0  0  0  0  0
   -6.7956   12.2399  -14.0855 H   0  0  0  0  0  0  0  0  0  0  0  0
   -8.0279    9.5798   -7.2599 H   0  0  0  0  0  0  0  0  0  0  0  0
   -4.2517   16.0431  -13.8534 H   0  0  0  0  0  0  0  0  0  0  0  0
   -4.9593   16.2038  -12.2102 H   0  0  0  0  0  0  0  0  0  0  0  0
   -3.4743   15.2236  -12.4567 H   0  0  0  0  0  0  0  0  0  0  0  0
   -6.7526   12.3233   -6.9261 H   0  0  0  0  0  0  0  0  0  0  0  0
   -4.5531   13.2553   -7.4825 H   0  0  0  0  0  0  0  0  0  0  0  0
   -4.5624   12.5279   -5.8401 H   0  0  0  0  0  0  0  0  0  0  0  0
   -3.4585   11.1486   -6.2240 H   0  0  0  0  0  0  0  0  0  0  0  0
   -2.6730    9.7536   -8.0506 H   0  0  0  0  0  0  0  0  0  0  0  0
   -4.8993    8.7846   -8.4743 H   0  0  0  0  0  0  0  0  0  0  0  0
   -2.4278   14.2202   -6.2127 H   0  0  0  0  0  0  0  0  0  0  0  0
   -0.6614   10.5729   -7.5868 H   0  0  0  0  0  0  0  0  0  0  0  0
    1.4672   14.2904   -6.0634 H   0  0  0  0  0  0  0  0  0  0  0  0
    0.2117   15.4427   -6.6311 H   0  0  0  0  0  0  0  0  0  0  0  0
    0.1649   14.8218   -4.9462 H   0  0  0  0  0  0  0  0  0  0  0  0
   -6.1759   13.2137  -14.2608 H   0  0  0  0  0  0  0  0  0  0  0  0
  1  2  2  0  0  0  0
  1  4  1  0  0  0  0
  1 13  1  0  0  0  0
  2  6  1  0  0  0  0
  3  4  2  0  0  0  0
  3  5  1  0  0  0  0
  5  6  2  0  0  0  0
  5  9  1  0  0  0  0
  6  7  1  0  0  0  0
  7  8  1  0  0  0  0
  7 10  2  3  0  0  0
  8  9  2  0  0  0  0
 10 14  1  0  0  0  0
 11 12  1  0  0  0  0
 11 13  2  0  0  0  0
 11 26  1  0  0  0  0
 14 15  2  0  0  0  0
 14 19  1  0  0  0  0
 15 16  1  0  0  0  0
 16 17  1  0  0  0  0
 17 18  1  0  0  0  0
 17 20  1  0  0  0  0
 18 19  2  0  0  0  0
 20 21  2  0  0  0  0
 20 24  1  0  0  0  0
 21 22  1  0  0  0  0
 22 23  1  0  0  0  0
 22 25  1  0  0  0  0
 23 24  2  0  0  0  0
  2 27  1  0  0  0  0
  3 28  1  0  0  0  0
  4 29  1  0  0  0  0
 10 30  1  0  0  0  0
 12 31  1  0  0  0  0
 12 32  1  0  0  0  0
 12 33  1  0  0  0  0
 15 34  1  0  0  0  0
 16 35  1  0  0  0  0
 16 36  1  0  0  0  0
 17 37  1  0  0  0  0
 18 38  1  0  0  0  0
 19 39  1  0  0  0  0
 21 40  1  0  0  0  0
 24 41  1  0  0  0  0
 25 42  1  0  0  0  0
 25 43  1  0  0  0  0
 25 44  1  0  0  0  0
 26 45  1  0  0  0  0
M  END
> <Name>
24

> <IC50[uM]>
0.029

$$$$
24
  -OEChem-05192314333D
 Structure written by MMmdl.
 45 48  0     1  0  0  0  0  0999 V2000
   -6.3515   12.3530  -11.9813 C   0  0  0  0  0  0  0  0  0  0  0  0
   -6.5085   11.7912  -10.7247 C   0  0  0  0  0  0  0  0  0  0  0  0
   -7.6802   10.5716  -13.0438 C   0  0  0  0  0  0  0  0  0  0  0  0
   -6.9296   11.7657  -13.1245 C   0  0  0  0  0  0  0  0  0  0  0  0
   -7.7980   10.0044  -11.7669 C   0  0  0  0  0  0  0  0  0  0  0  0
   -7.2328   10.6109  -10.5989 C   0  0  0  0  0  0  0  0  0  0  0  0
   -7.6209    9.7375   -9.5162 C   0  0  0  0  0  0  0  0  0  0  0  0
   -8.2754    8.7446   -9.9970 N   0  0  0  0  0  0  0  0  0  0  0  0
   -8.4233    8.8800  -11.3218 N   0  0  0  0  0  0  0  0  0  0  0  0
   -7.3328    9.8812   -8.0296 C   0  0  0  0  0  0  0  0  0  0  0  0
   -5.3004   14.2773  -13.1499 C   0  0  0  0  0  0  0  0  0  0  0  0
   -4.4346   15.5261  -12.8998 C   0  0  0  0  0  0  0  0  0  0  0  0
   -5.5896   13.5586  -12.0343 N   0  0  0  0  0  0  0  0  0  0  0  0
   -5.9706   10.4906   -7.7317 C   0  0  3  0  0  0  0  0  0  0  0  0
   -5.8616   11.7632   -7.1684 C   0  0  0  0  0  0  0  0  0  0  0  0
   -4.6051   12.3126   -6.9180 C   0  0  0  0  0  0  0  0  0  0  0  0
   -3.4544   11.5948   -7.2294 C   0  0  0  0  0  0  0  0  0  0  0  0
   -3.5626   10.3128   -7.8011 C   0  0  0  0  0  0  0  0  0  0  0  0
   -4.8160    9.7710   -8.0425 C   0  0  0  0  0  0  0  0  0  0  0  0
   -2.1083   12.1736   -6.9694 C   0  0  0  0  0  0  0  0  0  0  0  0
   -1.7503   13.4247   -6.4858 C   0  0  0  0  0  0  0  0  0  0  0  0
   -0.4131   13.4674   -6.4189 N   0  0  0  0  0  0  0  0  0  0  0  0
    0.1758   12.3735   -6.8057 N   0  0  0  0  0  0  0  0  0  0  0  0
   -0.8094   11.5620   -7.1791 C   0  0  0  0  0  0  0  0  0  0  0  0
    0.4060   14.5705   -5.9896 C   0  0  0  0  0  0  0  0  0  0  0  0
   -5.6528   14.0066  -14.2746 O   0  0  0  0  0  0  0  0  0  0  0  0
   -6.0747   12.2631   -9.8555 H   0  0  0  0  0  0  0  0  0  0  0  0
   -8.1361   10.1224  -13.9137 H   0  0  0  0  0  0  0  0  0  0  0  0
   -6.7956   12.2399  -14.0855 H   0  0  0  0  0  0  0  0  0  0  0  0
   -8.0279    9.5798   -7.2599 H   0  0  0  0  0  0  0  0  0  0  0  0
   -4.2517   16.0431  -13.8534 H   0  0  0  0  0  0  0  0  0  0  0  0
   -4.9593   16.2038  -12.2102 H   0  0  0  0  0  0  0  0  0  0  0  0
   -3.4743   15.2236  -12.4567 H   0  0  0  0  0  0  0  0  0  0  0  0
   -5.9851   10.0423   -6.7273 H   0  0  0  0  0  0  0  0  0  0  0  0
   -6.7526   12.3233   -6.9261 H   0  0  0  0  0  0  0  0  0  0  0  0
   -4.5246   13.2972   -6.4815 H   0  0  0  0  0  0  0  0  0  0  0  0
   -2.6730    9.7536   -8.0506 H   0  0  0  0  0  0  0  0  0  0  0  0
   -4.8679    8.8310   -7.4736 H   0  0  0  0  0  0  0  0  0  0  0  0
   -4.8621    9.5509   -9.1193 H   0  0  0  0  0  0  0  0  0  0  0  0
   -2.4278   14.2202   -6.2127 H   0  0  0  0  0  0  0  0  0  0  0  0
   -0.6614   10.5729   -7.5868 H   0  0  0  0  0  0  0  0  0  0  0  0
    1.4672   14.2904   -6.0634 H   0  0  0  0  0  0  0  0  0  0  0  0
    0.2117   15.4427   -6.6311 H   0  0  0  0  0  0  0  0  0  0  0  0
    0.1649   14.8218   -4.9462 H   0  0  0  0  0  0  0  0  0  0  0  0
   -6.1759   13.2137  -14.2608 H   0  0  0  0  0  0  0  0  0  0  0  0
  1  2  2  0  0  0  0
  1  4  1  0  0  0  0
  1 13  1  0  0  0  0
  2  6  1  0  0  0  0
  3  4  2  0  0  0  0
  3  5  1  0  0  0  0
  5  6  2  0  0  0  0
  5  9  1  0  0  0  0
  6  7  1  0  0  0  0
  7  8  1  0  0  0  0
  7 10  2  3  0  0  0
  8  9  2  0  0  0  0
 10 14  1  0  0  0  0
 11 12  1  0  0  0  0
 11 13  2  0  0  0  0
 11 26  1  0  0  0  0
 14 15  1  0  0  0  0
 14 19  1  0  0  0  0
 15 16  2  0  0  0  0
 16 17  1  0  0  0  0
 17 18  2  0  0  0  0
 17 20  1  0  0  0  0
 18 19  1  0  0  0  0
 20 21  2  0  0  0  0
 20 24  1  0  0  0  0
 21 22  1  0  0  0  0
 22 23  1  0  0  0  0
 22 25  1  0  0  0  0
 23 24  2  0  0  0  0
  2 27  1  0  0  0  0
  3 28  1  0  0  0  0
  4 29  1  0  0  0  0
 10 30  1  0  0  0  0
 12 31  1  0  0  0  0
 12 32  1  0  0  0  0
 12 33  1  0  0  0  0
 14 34  1  0  0  0  0
 15 35  1  0  0  0  0
 16 36  1  0  0  0  0
 18 37  1  0  0  0  0
 19 38  1  0  0  0  0
 19 39  1  0  0  0  0
 21 40  1  0  0  0  0
 24 41  1  0  0  0  0
 25 42  1  0  0  0  0
 25 43  1  0  0  0  0
 25 44  1  0  0  0  0
 26 45  1  0  0  0  0
M  END
> <Name>
24

> <IC50[uM]>
0.029

$$$$
24
  -OEChem-05192314333D
 Structure written by MMmdl.
 45 48  0     1  0  0  0  0  0999 V2000
   -6.3515   12.3530  -11.9813 C   0  0  0  0  0  0  0  0  0  0  0  0
   -6.5085   11.7912  -10.7247 C   0  0  0  0  0  0  0  0  0  0  0  0
   -7.6802   10.5716  -13.0438 C   0  0  0  0  0  0  0  0  0  0  0  0
   -6.9296   11.7657  -13.1245 C   0  0  0  0  0  0  0  0  0  0  0  0
   -7.7980   10.0044  -11.7669 C   0  0  0  0  0  0  0  0  0  0  0  0
   -7.2328   10.6109  -10.5989 C   0  0  0  0  0  0  0  0  0  0  0  0
   -7.6209    9.7375   -9.5162 C   0  0  3  0  0  0  0  0  0  0  0  0
   -8.2754    8.7446   -9.9970 N   0  0  0  0  0  0  0  0  0  0  0  0
   -8.4233    8.8800  -11.3218 N   0  0  0  0  0  0  0  0  0  0  0  0
   -7.3328    9.8812   -8.0296 C   0  0  0  0  0  0  0  0  0  0  0  0
   -5.3004   14.2773  -13.1499 C   0  0  0  0  0  0  0  0  0  0  0  0
   -4.4346   15.5261  -12.8998 C   0  0  0  0  0  0  0  0  0  0  0  0
   -5.5896   13.5586  -12.0343 N   0  0  0  0  0  0  0  0  0  0  0  0
   -5.9706   10.4906   -7.7317 C   0  0  0  0  0  0  0  0  0  0  0  0
   -5.8616   11.7632   -7.1684 C   0  0  0  0  0  0  0  0  0  0  0  0
   -4.6051   12.3126   -6.9180 C   0  0  0  0  0  0  0  0  0  0  0  0
   -3.4544   11.5948   -7.2294 C   0  0  0  0  0  0  0  0  0  0  0  0
   -3.5626   10.3128   -7.8011 C   0  0  0  0  0  0  0  0  0  0  0  0
   -4.8160    9.7710   -8.0425 C   0  0  0  0  0  0  0  0  0  0  0  0
   -2.1083   12.1736   -6.9694 C   0  0  0  0  0  0  0  0  0  0  0  0
   -1.7503   13.4247   -6.4858 C   0  0  0  0  0  0  0  0  0  0  0  0
   -0.4131   13.4674   -6.4189 N   0  0  0  0  0  0  0  0  0  0  0  0
    0.1758   12.3735   -6.8057 N   0  0  0  0  0  0  0  0  0  0  0  0
   -0.8094   11.5620   -7.1791 C   0  0  0  0  0  0  0  0  0  0  0  0
    0.4060   14.5705   -5.9896 C   0  0  0  0  0  0  0  0  0  0  0  0
   -5.6528   14.0066  -14.2746 O   0  0  0  0  0  0  0  0  0  0  0  0
   -6.0747   12.2631   -9.8555 H   0  0  0  0  0  0  0  0  0  0  0  0
   -8.1361   10.1224  -13.9137 H   0  0  0  0  0  0  0  0  0  0  0  0
   -6.7956   12.2399  -14.0855 H   0  0  0  0  0  0  0  0  0  0  0  0
   -8.5577   10.3007   -9.3927 H   0  0  0  0  0  0  0  0  0  0  0  0
   -8.0279    9.5798   -7.2599 H   0  0  0  0  0  0  0  0  0  0  0  0
   -4.2517   16.0431  -13.8534 H   0  0  0  0  0  0  0  0  0  0  0  0
   -4.9593   16.2038  -12.2102 H   0  0  0  0  0  0  0  0  0  0  0  0
   -3.4743   15.2236  -12.4567 H   0  0  0  0  0  0  0  0  0  0  0  0
   -6.7526   12.3233   -6.9261 H   0  0  0  0  0  0  0  0  0  0  0  0
   -4.5246   13.2972   -6.4815 H   0  0  0  0  0  0  0  0  0  0  0  0
   -2.6730    9.7536   -8.0506 H   0  0  0  0  0  0  0  0  0  0  0  0
   -4.8679    8.8310   -7.4736 H   0  0  0  0  0  0  0  0  0  0  0  0
   -4.8621    9.5509   -9.1193 H   0  0  0  0  0  0  0  0  0  0  0  0
   -2.4278   14.2202   -6.2127 H   0  0  0  0  0  0  0  0  0  0  0  0
   -0.6614   10.5729   -7.5868 H   0  0  0  0  0  0  0  0  0  0  0  0
    1.4672   14.2904   -6.0634 H   0  0  0  0  0  0  0  0  0  0  0  0
    0.2117   15.4427   -6.6311 H   0  0  0  0  0  0  0  0  0  0  0  0
    0.1649   14.8218   -4.9462 H   0  0  0  0  0  0  0  0  0  0  0  0
   -6.1759   13.2137  -14.2608 H   0  0  0  0  0  0  0  0  0  0  0  0
  1  2  2  0  0  0  0
  1  4  1  0  0  0  0
  1 13  1  0  0  0  0
  2  6  1  0  0  0  0
  3  4  2  0  0  0  0
  3  5  1  0  0  0  0
  5  6  2  0  0  0  0
  5  9  1  0  0  0  0
  6  7  1  0  0  0  0
  7  8  1  0  0  0  0
  7 10  1  0  0  0  0
  8  9  2  0  0  0  0
 10 14  2  3  0  0  0
 11 12  1  0  0  0  0
 11 13  2  0  0  0  0
 11 26  1  0  0  0  0
 14 15  1  0  0  0  0
 14 19  1  0  0  0  0
 15 16  2  0  0  0  0
 16 17  1  0  0  0  0
 17 18  2  0  0  0  0
 17 20  1  0  0  0  0
 18 19  1  0  0  0  0
 20 21  2  0  0  0  0
 20 24  1  0  0  0  0
 21 22  1  0  0  0  0
 22 23  1  0  0  0  0
 22 25  1  0  0  0  0
 23 24  2  0  0  0  0
  2 27  1  0  0  0  0
  3 28  1  0  0  0  0
  4 29  1  0  0  0  0
  7 30  1  0  0  0  0
 10 31  1  0  0  0  0
 12 32  1  0  0  0  0
 12 33  1  0  0  0  0
 12 34  1  0  0  0  0
 15 35  1  0  0  0  0
 16 36  1  0  0  0  0
 18 37  1  0  0  0  0
 19 38  1  0  0  0  0
 19 39  1  0  0  0  0
 21 40  1  0  0  0  0
 24 41  1  0  0  0  0
 25 42  1  0  0  0  0
 25 43  1  0  0  0  0
 25 44  1  0  0  0  0
 26 45  1  0  0  0  0
M  END
> <Name>
24

> <IC50[uM]>
0.029

$$$$
24
  -OEChem-05192314333D
 Structure written by MMmdl.
 45 48  0     0  0  0  0  0  0999 V2000
   -6.3515   12.3530  -11.9813 C   0  0  0  0  0  0  0  0  0  0  0  0
   -6.5085   11.7912  -10.7247 C   0  0  0  0  0  0  0  0  0  0  0  0
   -7.6802   10.5716  -13.0438 C   0  0  0  0  0  0  0  0  0  0  0  0
   -6.9296   11.7657  -13.1245 C   0  0  0  0  0  0  0  0  0  0  0  0
   -7.7980   10.0044  -11.7669 C   0  0  0  0  0  0  0  0  0  0  0  0
   -7.2328   10.6109  -10.5989 C   0  0  0  0  0  0  0  0  0  0  0  0
   -7.6209    9.7375   -9.5162 C   0  0  0  0  0  0  0  0  0  0  0  0
   -8.2754    8.7446   -9.9970 N   0  0  0  0  0  0  0  0  0  0  0  0
   -8.4233    8.8800  -11.3218 N   0  0  0  0  0  0  0  0  0  0  0  0
   -7.3328    9.8812   -8.0296 C   0  0  0  0  0  0  0  0  0  0  0  0
   -5.3004   14.2773  -13.1499 C   0  0  0  0  0  0  0  0  0  0  0  0
   -4.4346   15.5261  -12.8998 C   0  0  0  0  0  0  0  0  0  0  0  0
   -5.5896   13.5586  -12.0343 N   0  0  0  0  0  0  0  0  0  0  0  0
   -5.9706   10.4906   -7.7317 C   0  0  0  0  0  0  0  0  0  0  0  0
   -5.8616   11.7632   -7.1684 C   0  0  0  0  0  0  0  0  0  0  0  0
   -4.6051   12.3126   -6.9180 C   0  0  0  0  0  0  0  0  0  0  0  0
   -3.4544   11.5948   -7.2294 C   0  0  0  0  0  0  0  0  0  0  0  0
   -3.5626   10.3128   -7.8011 C   0  0  0  0  0  0  0  0  0  0  0  0
   -4.8160    9.7710   -8.0425 C   0  0  0  0  0  0  0  0  0  0  0  0
   -2.1083   12.1736   -6.9694 C   0  0  0  0  0  0  0  0  0  0  0  0
   -1.7503   13.4247   -6.4858 C   0  0  0  0  0  0  0  0  0  0  0  0
   -0.4131   13.4674   -6.4189 N   0  0  0  0  0  0  0  0  0  0  0  0
    0.1758   12.3735   -6.8057 N   0  0  0  0  0  0  0  0  0  0  0  0
   -0.8094   11.5620   -7.1791 C   0  0  0  0  0  0  0  0  0  0  0  0
    0.4060   14.5705   -5.9896 C   0  0  0  0  0  0  0  0  0  0  0  0
   -5.6528   14.0066  -14.2746 O   0  0  0  0  0  0  0  0  0  0  0  0
   -6.0747   12.2631   -9.8555 H   0  0  0  0  0  0  0  0  0  0  0  0
   -8.1361   10.1224  -13.9137 H   0  0  0  0  0  0  0  0  0  0  0  0
   -6.7956   12.2399  -14.0855 H   0  0  0  0  0  0  0  0  0  0  0  0
   -8.0279    9.5798   -7.2599 H   0  0  0  0  0  0  0  0  0  0  0  0
   -4.2517   16.0431  -13.8534 H   0  0  0  0  0  0  0  0  0  0  0  0
   -4.9593   16.2038  -12.2102 H   0  0  0  0  0  0  0  0  0  0  0  0
   -3.4743   15.2236  -12.4567 H   0  0  0  0  0  0  0  0  0  0  0  0
   -6.7526   12.3233   -6.9261 H   0  0  0  0  0  0  0  0  0  0  0  0
   -4.5531   13.2553   -7.4825 H   0  0  0  0  0  0  0  0  0  0  0  0
   -4.5624   12.5279   -5.8401 H   0  0  0  0  0  0  0  0  0  0  0  0
   -2.6730    9.7536   -8.0506 H   0  0  0  0  0  0  0  0  0  0  0  0
   -4.8679    8.8310   -7.4736 H   0  0  0  0  0  0  0  0  0  0  0  0
   -4.8621    9.5509   -9.1193 H   0  0  0  0  0  0  0  0  0  0  0  0
   -2.4278   14.2202   -6.2127 H   0  0  0  0  0  0  0  0  0  0  0  0
   -0.6614   10.5729   -7.5868 H   0  0  0  0  0  0  0  0  0  0  0  0
    1.4672   14.2904   -6.0634 H   0  0  0  0  0  0  0  0  0  0  0  0
    0.2117   15.4427   -6.6311 H   0  0  0  0  0  0  0  0  0  0  0  0
    0.1649   14.8218   -4.9462 H   0  0  0  0  0  0  0  0  0  0  0  0
   -6.1759   13.2137  -14.2608 H   0  0  0  0  0  0  0  0  0  0  0  0
  1  2  2  0  0  0  0
  1  4  1  0  0  0  0
  1 13  1  0  0  0  0
  2  6  1  0  0  0  0
  3  4  2  0  0  0  0
  3  5  1  0  0  0  0
  5  6  2  0  0  0  0
  5  9  1  0  0  0  0
  6  7  1  0  0  0  0
  7  8  1  0  0  0  0
  7 10  2  3  0  0  0
  8  9  2  0  0  0  0
 10 14  1  0  0  0  0
 11 12  1  0  0  0  0
 11 13  2  0  0  0  0
 11 26  1  0  0  0  0
 14 15  2  0  0  0  0
 14 19  1  0  0  0  0
 15 16  1  0  0  0  0
 16 17  1  0  0  0  0
 17 18  2  0  0  0  0
 17 20  1  0  0  0  0
 18 19  1  0  0  0  0
 20 21  2  0  0  0  0
 20 24  1  0  0  0  0
 21 22  1  0  0  0  0
 22 23  1  0  0  0  0
 22 25  1  0  0  0  0
 23 24  2  0  0  0  0
  2 27  1  0  0  0  0
  3 28  1  0  0  0  0
  4 29  1  0  0  0  0
 10 30  1  0  0  0  0
 12 31  1  0  0  0  0
 12 32  1  0  0  0  0
 12 33  1  0  0  0  0
 15 34  1  0  0  0  0
 16 35  1  0  0  0  0
 16 36  1  0  0  0  0
 18 37  1  0  0  0  0
 19 38  1  0  0  0  0
 19 39  1  0  0  0  0
 21 40  1  0  0  0  0
 24 41  1  0  0  0  0
 25 42  1  0  0  0  0
 25 43  1  0  0  0  0
 25 44  1  0  0  0  0
 26 45  1  0  0  0  0
M  END
> <Name>
24

> <IC50[uM]>
0.029

$$$$
24
  -OEChem-05192314333D
 Structure written by MMmdl.
 45 48  0     0  0  0  0  0  0999 V2000
   -6.3515   12.3530  -11.9813 C   0  0  0  0  0  0  0  0  0  0  0  0
   -6.5085   11.7912  -10.7247 C   0  0  0  0  0  0  0  0  0  0  0  0
   -7.6802   10.5716  -13.0438 C   0  0  0  0  0  0  0  0  0  0  0  0
   -6.9296   11.7657  -13.1245 C   0  0  0  0  0  0  0  0  0  0  0  0
   -7.7980   10.0044  -11.7669 C   0  0  0  0  0  0  0  0  0  0  0  0
   -7.2328   10.6109  -10.5989 C   0  0  0  0  0  0  0  0  0  0  0  0
   -7.6209    9.7375   -9.5162 C   0  0  0  0  0  0  0  0  0  0  0  0
   -8.2754    8.7446   -9.9970 N   0  0  0  0  0  0  0  0  0  0  0  0
   -8.4233    8.8800  -11.3218 N   0  0  0  0  0  0  0  0  0  0  0  0
   -7.3328    9.8812   -8.0296 C   0  0  0  0  0  0  0  0  0  0  0  0
   -5.3004   14.2773  -13.1499 C   0  0  0  0  0  0  0  0  0  0  0  0
   -4.4346   15.5261  -12.8998 C   0  0  0  0  0  0  0  0  0  0  0  0
   -5.5896   13.5586  -12.0343 N   0  0  0  0  0  0  0  0  0  0  0  0
   -5.9706   10.4906   -7.7317 C   0  0  0  0  0  0  0  0  0  0  0  0
   -5.8616   11.7632   -7.1684 C   0  0  0  0  0  0  0  0  0  0  0  0
   -4.6051   12.3126   -6.9180 C   0  0  0  0  0  0  0  0  0  0  0  0
   -3.4544   11.5948   -7.2294 C   0  0  0  0  0  0  0  0  0  0  0  0
   -3.5626   10.3128   -7.8011 C   0  0  0  0  0  0  0  0  0  0  0  0
   -4.8160    9.7710   -8.0425 C   0  0  0  0  0  0  0  0  0  0  0  0
   -2.1083   12.1736   -6.9694 C   0  0  0  0  0  0  0  0  0  0  0  0
   -1.7503   13.4247   -6.4858 C   0  0  0  0  0  0  0  0  0  0  0  0
   -0.4131   13.4674   -6.4189 N   0  0  0  0  0  0  0  0  0  0  0  0
    0.1758   12.3735   -6.8057 N   0  0  0  0  0  0  0  0  0  0  0  0
   -0.8094   11.5620   -7.1791 C   0  0  0  0  0  0  0  0  0  0  0  0
    0.4060   14.5705   -5.9896 C   0  0  0  0  0  0  0  0  0  0  0  0
   -5.6528   14.0066  -14.2746 O   0  0  0  0  0  0  0  0  0  0  0  0
   -6.0747   12.2631   -9.8555 H   0  0  0  0  0  0  0  0  0  0  0  0
   -8.1361   10.1224  -13.9137 H   0  0  0  0  0  0  0  0  0  0  0  0
   -6.7956   12.2399  -14.0855 H   0  0  0  0  0  0  0  0  0  0  0  0
   -8.0279    9.5798   -7.2599 H   0  0  0  0  0  0  0  0  0  0  0  0
   -4.2517   16.0431  -13.8534 H   0  0  0  0  0  0  0  0  0  0  0  0
   -4.9593   16.2038  -12.2102 H   0  0  0  0  0  0  0  0  0  0  0  0
   -3.4743   15.2236  -12.4567 H   0  0  0  0  0  0  0  0  0  0  0  0
   -6.7526   12.3233   -6.9261 H   0  0  0  0  0  0  0  0  0  0  0  0
   -4.5246   13.2972   -6.4815 H   0  0  0  0  0  0  0  0  0  0  0  0
   -3.0396   10.3498   -8.7681 H   0  0  0  0  0  0  0  0  0  0  0  0
   -3.0393    9.6182   -7.1276 H   0  0  0  0  0  0  0  0  0  0  0  0
   -4.8679    8.8310   -7.4736 H   0  0  0  0  0  0  0  0  0  0  0  0
   -4.8621    9.5509   -9.1193 H   0  0  0  0  0  0  0  0  0  0  0  0
   -2.4278   14.2202   -6.2127 H   0  0  0  0  0  0  0  0  0  0  0  0
   -0.6614   10.5729   -7.5868 H   0  0  0  0  0  0  0  0  0  0  0  0
    1.4672   14.2904   -6.0634 H   0  0  0  0  0  0  0  0  0  0  0  0
    0.2117   15.4427   -6.6311 H   0  0  0  0  0  0  0  0  0  0  0  0
    0.1649   14.8218   -4.9462 H   0  0  0  0  0  0  0  0  0  0  0  0
   -6.1759   13.2137  -14.2608 H   0  0  0  0  0  0  0  0  0  0  0  0
  1  2  2  0  0  0  0
  1  4  1  0  0  0  0
  1 13  1  0  0  0  0
  2  6  1  0  0  0  0
  3  4  2  0  0  0  0
  3  5  1  0  0  0  0
  5  6  2  0  0  0  0
  5  9  1  0  0  0  0
  6  7  1  0  0  0  0
  7  8  1  0  0  0  0
  7 10  2  3  0  0  0
  8  9  2  0  0  0  0
 10 14  1  0  0  0  0
 11 12  1  0  0  0  0
 11 13  2  0  0  0  0
 11 26  1  0  0  0  0
 14 15  2  0  0  0  0
 14 19  1  0  0  0  0
 15 16  1  0  0  0  0
 16 17  2  0  0  0  0
 17 18  1  0  0  0  0
 17 20  1  0  0  0  0
 18 19  1  0  0  0  0
 20 21  2  0  0  0  0
 20 24  1  0  0  0  0
 21 22  1  0  0  0  0
 22 23  1  0  0  0  0
 22 25  1  0  0  0  0
 23 24  2  0  0  0  0
  2 27  1  0  0  0  0
  3 28  1  0  0  0  0
  4 29  1  0  0  0  0
 10 30  1  0  0  0  0
 12 31  1  0  0  0  0
 12 32  1  0  0  0  0
 12 33  1  0  0  0  0
 15 34  1  0  0  0  0
 16 35  1  0  0  0  0
 18 36  1  0  0  0  0
 18 37  1  0  0  0  0
 19 38  1  0  0  0  0
 19 39  1  0  0  0  0
 21 40  1  0  0  0  0
 24 41  1  0  0  0  0
 25 42  1  0  0  0  0
 25 43  1  0  0  0  0
 25 44  1  0  0  0  0
 26 45  1  0  0  0  0
M  END
> <Name>
24

> <IC50[uM]>
0.029

$$$$
24
  -OEChem-05192314333D
 Structure written by MMmdl.
 45 48  0     1  0  0  0  0  0999 V2000
   -6.3515   12.3530  -11.9813 C   0  0  0  0  0  0  0  0  0  0  0  0
   -6.5085   11.7912  -10.7247 C   0  0  0  0  0  0  0  0  0  0  0  0
   -7.6802   10.5716  -13.0438 C   0  0  0  0  0  0  0  0  0  0  0  0
   -6.9296   11.7657  -13.1245 C   0  0  0  0  0  0  0  0  0  0  0  0
   -7.7980   10.0044  -11.7669 C   0  0  0  0  0  0  0  0  0  0  0  0
   -7.2328   10.6109  -10.5989 C   0  0  3  0  0  0  0  0  0  0  0  0
   -7.6209    9.7375   -9.5162 C   0  0  0  0  0  0  0  0  0  0  0  0
   -8.2754    8.7446   -9.9970 N   0  0  0  0  0  0  0  0  0  0  0  0
   -8.4233    8.8800  -11.3218 N   0  0  0  0  0  0  0  0  0  0  0  0
   -7.3328    9.8812   -8.0296 C   0  0  0  0  0  0  0  0  0  0  0  0
   -5.3004   14.2773  -13.1499 C   0  0  0  0  0  0  0  0  0  0  0  0
   -4.4346   15.5261  -12.8998 C   0  0  0  0  0  0  0  0  0  0  0  0
   -5.5896   13.5586  -12.0343 N   0  0  0  0  0  0  0  0  0  0  0  0
   -5.9706   10.4906   -7.7317 C   0  0  0  0  0  0  0  0  0  0  0  0
   -5.8616   11.7632   -7.1684 C   0  0  0  0  0  0  0  0  0  0  0  0
   -4.6051   12.3126   -6.9180 C   0  0  0  0  0  0  0  0  0  0  0  0
   -3.4544   11.5948   -7.2294 C   0  0  0  0  0  0  0  0  0  0  0  0
   -3.5626   10.3128   -7.8011 C   0  0  0  0  0  0  0  0  0  0  0  0
   -4.8160    9.7710   -8.0425 C   0  0  0  0  0  0  0  0  0  0  0  0
   -2.1083   12.1736   -6.9694 C   0  0  0  0  0  0  0  0  0  0  0  0
   -1.7503   13.4247   -6.4858 C   0  0  0  0  0  0  0  0  0  0  0  0
   -0.4131   13.4674   -6.4189 N   0  0  0  0  0  0  0  0  0  0  0  0
    0.1758   12.3735   -6.8057 N   0  0  0  0  0  0  0  0  0  0  0  0
   -0.8094   11.5620   -7.1791 C   0  0  0  0  0  0  0  0  0  0  0  0
    0.4060   14.5705   -5.9896 C   0  0  0  0  0  0  0  0  0  0  0  0
   -5.6528   14.0066  -14.2746 O   0  0  0  0  0  0  0  0  0  0  0  0
   -5.5002   11.5939  -10.3317 H   0  0  0  0  0  0  0  0  0  0  0  0
   -7.0066   12.5435  -10.0954 H   0  0  0  0  0  0  0  0  0  0  0  0
   -8.1361   10.1224  -13.9137 H   0  0  0  0  0  0  0  0  0  0  0  0
   -6.7956   12.2399  -14.0855 H   0  0  0  0  0  0  0  0  0  0  0  0
   -6.3107   10.0281  -10.7406 H   0  0  0  0  0  0  0  0  0  0  0  0
   -8.0279    9.5798   -7.2599 H   0  0  0  0  0  0  0  0  0  0  0  0
   -4.2517   16.0431  -13.8534 H   0  0  0  0  0  0  0  0  0  0  0  0
   -4.9593   16.2038  -12.2102 H   0  0  0  0  0  0  0  0  0  0  0  0
   -3.4743   15.2236  -12.4567 H   0  0  0  0  0  0  0  0  0  0  0  0
   -6.7526   12.3233   -6.9261 H   0  0  0  0  0  0  0  0  0  0  0  0
   -4.5246   13.2972   -6.4815 H   0  0  0  0  0  0  0  0  0  0  0  0
   -2.6730    9.7536   -8.0506 H   0  0  0  0  0  0  0  0  0  0  0  0
   -4.8993    8.7846   -8.4743 H   0  0  0  0  0  0  0  0  0  0  0  0
   -2.4278   14.2202   -6.2127 H   0  0  0  0  0  0  0  0  0  0  0  0
   -0.6614   10.5729   -7.5868 H   0  0  0  0  0  0  0  0  0  0  0  0
    1.4672   14.2904   -6.0634 H   0  0  0  0  0  0  0  0  0  0  0  0
    0.2117   15.4427   -6.6311 H   0  0  0  0  0  0  0  0  0  0  0  0
    0.1649   14.8218   -4.9462 H   0  0  0  0  0  0  0  0  0  0  0  0
   -6.1759   13.2137  -14.2608 H   0  0  0  0  0  0  0  0  0  0  0  0
  1  2  1  0  0  0  0
  1  4  2  0  0  0  0
  1 13  1  0  0  0  0
  2  6  1  0  0  0  0
  3  4  1  0  0  0  0
  3  5  2  0  0  0  0
  5  6  1  0  0  0  0
  5  9  1  0  0  0  0
  6  7  1  0  0  0  0
  7  8  1  0  0  0  0
  7 10  2  3  0  0  0
  8  9  2  0  0  0  0
 10 14  1  0  0  0  0
 11 12  1  0  0  0  0
 11 13  2  0  0  0  0
 11 26  1  0  0  0  0
 14 15  2  0  0  0  0
 14 19  1  0  0  0  0
 15 16  1  0  0  0  0
 16 17  2  0  0  0  0
 17 18  1  0  0  0  0
 17 20  1  0  0  0  0
 18 19  2  0  0  0  0
 20 21  2  0  0  0  0
 20 24  1  0  0  0  0
 21 22  1  0  0  0  0
 22 23  1  0  0  0  0
 22 25  1  0  0  0  0
 23 24  2  0  0  0  0
  2 27  1  0  0  0  0
  2 28  1  0  0  0  0
  3 29  1  0  0  0  0
  4 30  1  0  0  0  0
  6 31  1  0  0  0  0
 10 32  1  0  0  0  0
 12 33  1  0  0  0  0
 12 34  1  0  0  0  0
 12 35  1  0  0  0  0
 15 36  1  0  0  0  0
 16 37  1  0  0  0  0
 18 38  1  0  0  0  0
 19 39  1  0  0  0  0
 21 40  1  0  0  0  0
 24 41  1  0  0  0  0
 25 42  1  0  0  0  0
 25 43  1  0  0  0  0
 25 44  1  0  0  0  0
 26 45  1  0  0  0  0
M  END
> <Name>
24

> <IC50[uM]>
0.029

$$$$
24
  -OEChem-05192314333D
 Structure written by MMmdl.
 45 48  0     1  0  0  0  0  0999 V2000
   -6.3515   12.3530  -11.9813 C   0  0  3  0  0  0  0  0  0  0  0  0
   -6.5085   11.7912  -10.7247 C   0  0  0  0  0  0  0  0  0  0  0  0
   -7.6802   10.5716  -13.0438 C   0  0  0  0  0  0  0  0  0  0  0  0
   -6.9296   11.7657  -13.1245 C   0  0  0  0  0  0  0  0  0  0  0  0
   -7.7980   10.0044  -11.7669 C   0  0  0  0  0  0  0  0  0  0  0  0
   -7.2328   10.6109  -10.5989 C   0  0  0  0  0  0  0  0  0  0  0  0
   -7.6209    9.7375   -9.5162 C   0  0  0  0  0  0  0  0  0  0  0  0
   -8.2754    8.7446   -9.9970 N   0  0  0  0  0  0  0  0  0  0  0  0
   -8.4233    8.8800  -11.3218 N   0  0  0  0  0  0  0  0  0  0  0  0
   -7.3328    9.8812   -8.0296 C   0  0  0  0  0  0  0  0  0  0  0  0
   -5.3004   14.2773  -13.1499 C   0  0  0  0  0  0  0  0  0  0  0  0
   -4.4346   15.5261  -12.8998 C   0  0  0  0  0  0  0  0  0  0  0  0
   -5.5896   13.5586  -12.0343 N   0  0  0  0  0  0  0  0  0  0  0  0
   -5.9706   10.4906   -7.7317 C   0  0  0  0  0  0  0  0  0  0  0  0
   -5.8616   11.7632   -7.1684 C   0  0  0  0  0  0  0  0  0  0  0  0
   -4.6051   12.3126   -6.9180 C   0  0  0  0  0  0  0  0  0  0  0  0
   -3.4544   11.5948   -7.2294 C   0  0  0  0  0  0  0  0  0  0  0  0
   -3.5626   10.3128   -7.8011 C   0  0  0  0  0  0  0  0  0  0  0  0
   -4.8160    9.7710   -8.0425 C   0  0  0  0  0  0  0  0  0  0  0  0
   -2.1083   12.1736   -6.9694 C   0  0  0  0  0  0  0  0  0  0  0  0
   -1.7503   13.4247   -6.4858 C   0  0  0  0  0  0  0  0  0  0  0  0
   -0.4131   13.4674   -6.4189 N   0  0  0  0  0  0  0  0  0  0  0  0
    0.1758   12.3735   -6.8057 N   0  0  0  0  0  0  0  0  0  0  0  0
   -0.8094   11.5620   -7.1791 C   0  0  0  0  0  0  0  0  0  0  0  0
    0.4060   14.5705   -5.9896 C   0  0  0  0  0  0  0  0  0  0  0  0
   -5.6528   14.0066  -14.2746 O   0  0  0  0  0  0  0  0  0  0  0  0
   -5.4362   11.7628  -12.1356 H   0  0  0  0  0  0  0  0  0  0  0  0
   -5.5002   11.5939  -10.3317 H   0  0  0  0  0  0  0  0  0  0  0  0
   -7.0066   12.5435  -10.0954 H   0  0  0  0  0  0  0  0  0  0  0  0
   -8.1361   10.1224  -13.9137 H   0  0  0  0  0  0  0  0  0  0  0  0
   -6.7956   12.2399  -14.0855 H   0  0  0  0  0  0  0  0  0  0  0  0
   -8.0279    9.5798   -7.2599 H   0  0  0  0  0  0  0  0  0  0  0  0
   -4.2517   16.0431  -13.8534 H   0  0  0  0  0  0  0  0  0  0  0  0
   -4.9593   16.2038  -12.2102 H   0  0  0  0  0  0  0  0  0  0  0  0
   -3.4743   15.2236  -12.4567 H   0  0  0  0  0  0  0  0  0  0  0  0
   -6.7526   12.3233   -6.9261 H   0  0  0  0  0  0  0  0  0  0  0  0
   -4.5246   13.2972   -6.4815 H   0  0  0  0  0  0  0  0  0  0  0  0
   -2.6730    9.7536   -8.0506 H   0  0  0  0  0  0  0  0  0  0  0  0
   -4.8993    8.7846   -8.4743 H   0  0  0  0  0  0  0  0  0  0  0  0
   -2.4278   14.2202   -6.2127 H   0  0  0  0  0  0  0  0  0  0  0  0
   -0.6614   10.5729   -7.5868 H   0  0  0  0  0  0  0  0  0  0  0  0
    1.4672   14.2904   -6.0634 H   0  0  0  0  0  0  0  0  0  0  0  0
    0.2117   15.4427   -6.6311 H   0  0  0  0  0  0  0  0  0  0  0  0
    0.1649   14.8218   -4.9462 H   0  0  0  0  0  0  0  0  0  0  0  0
   -6.1759   13.2137  -14.2608 H   0  0  0  0  0  0  0  0  0  0  0  0
  1  2  1  0  0  0  0
  1  4  1  0  0  0  0
  1 13  1  0  0  0  0
  2  6  1  0  0  0  0
  3  4  2  0  0  0  0
  3  5  1  0  0  0  0
  5  6  2  0  0  0  0
  5  9  1  0  0  0  0
  6  7  1  0  0  0  0
  7  8  1  0  0  0  0
  7 10  2  3  0  0  0
  8  9  2  0  0  0  0
 10 14  1  0  0  0  0
 11 12  1  0  0  0  0
 11 13  2  0  0  0  0
 11 26  1  0  0  0  0
 14 15  2  0  0  0  0
 14 19  1  0  0  0  0
 15 16  1  0  0  0  0
 16 17  2  0  0  0  0
 17 18  1  0  0  0  0
 17 20  1  0  0  0  0
 18 19  2  0  0  0  0
 20 21  2  0  0  0  0
 20 24  1  0  0  0  0
 21 22  1  0  0  0  0
 22 23  1  0  0  0  0
 22 25  1  0  0  0  0
 23 24  2  0  0  0  0
  1 27  1  0  0  0  0
  2 28  1  0  0  0  0
  2 29  1  0  0  0  0
  3 30  1  0  0  0  0
  4 31  1  0  0  0  0
 10 32  1  0  0  0  0
 12 33  1  0  0  0  0
 12 34  1  0  0  0  0
 12 35  1  0  0  0  0
 15 36  1  0  0  0  0
 16 37  1  0  0  0  0
 18 38  1  0  0  0  0
 19 39  1  0  0  0  0
 21 40  1  0  0  0  0
 24 41  1  0  0  0  0
 25 42  1  0  0  0  0
 25 43  1  0  0  0  0
 25 44  1  0  0  0  0
 26 45  1  0  0  0  0
M  END
> <Name>
24

> <IC50[uM]>
0.029

$$$$
24
  -OEChem-05192314333D
 Structure written by MMmdl.
 45 48  0     0  0  0  0  0  0999 V2000
   -6.3515   12.3530  -11.9813 C   0  0  0  0  0  0  0  0  0  0  0  0
   -6.5085   11.7912  -10.7247 C   0  0  0  0  0  0  0  0  0  0  0  0
   -7.6802   10.5716  -13.0438 C   0  0  0  0  0  0  0  0  0  0  0  0
   -6.9296   11.7657  -13.1245 C   0  0  0  0  0  0  0  0  0  0  0  0
   -7.7980   10.0044  -11.7669 C   0  0  0  0  0  0  0  0  0  0  0  0
   -7.2328   10.6109  -10.5989 C   0  0  0  0  0  0  0  0  0  0  0  0
   -7.6209    9.7375   -9.5162 C   0  0  0  0  0  0  0  0  0  0  0  0
   -8.2754    8.7446   -9.9970 N   0  0  0  0  0  0  0  0  0  0  0  0
   -8.4233    8.8800  -11.3218 N   0  0  0  0  0  0  0  0  0  0  0  0
   -7.3328    9.8812   -8.0296 C   0  0  0  0  0  0  0  0  0  0  0  0
   -5.3004   14.2773  -13.1499 C   0  0  0  0  0  0  0  0  0  0  0  0
   -4.4346   15.5261  -12.8998 C   0  0  0  0  0  0  0  0  0  0  0  0
   -5.5896   13.5586  -12.0343 N   0  0  0  0  0  0  0  0  0  0  0  0
   -5.9706   10.4906   -7.7317 C   0  0  0  0  0  0  0  0  0  0  0  0
   -5.8616   11.7632   -7.1684 C   0  0  0  0  0  0  0  0  0  0  0  0
   -4.6051   12.3126   -6.9180 C   0  0  0  0  0  0  0  0  0  0  0  0
   -3.4544   11.5948   -7.2294 C   0  0  0  0  0  0  0  0  0  0  0  0
   -3.5626   10.3128   -7.8011 C   0  0  0  0  0  0  0  0  0  0  0  0
   -4.8160    9.7710   -8.0425 C   0  0  0  0  0  0  0  0  0  0  0  0
   -2.1083   12.1736   -6.9694 C   0  0  0  0  0  0  0  0  0  0  0  0
   -1.7503   13.4247   -6.4858 C   0  0  0  0  0  0  0  0  0  0  0  0
   -0.4131   13.4674   -6.4189 N   0  0  0  0  0  0  0  0  0  0  0  0
    0.1758   12.3735   -6.8057 N   0  0  0  0  0  0  0  0  0  0  0  0
   -0.8094   11.5620   -7.1791 C   0  0  0  0  0  0  0  0  0  0  0  0
    0.4060   14.5705   -5.9896 C   0  0  0  0  0  0  0  0  0  0  0  0
   -5.6528   14.0066  -14.2746 O   0  0  0  0  0  0  0  0  0  0  0  0
   -5.5002   11.5939  -10.3317 H   0  0  0  0  0  0  0  0  0  0  0  0
   -7.0066   12.5435  -10.0954 H   0  0  0  0  0  0  0  0  0  0  0  0
   -8.6945   10.7862  -13.4115 H   0  0  0  0  0  0  0  0  0  0  0  0
   -7.2021    9.8287  -13.6992 H   0  0  0  0  0  0  0  0  0  0  0  0
   -6.7956   12.2399  -14.0855 H   0  0  0  0  0  0  0  0  0  0  0  0
   -8.0279    9.5798   -7.2599 H   0  0  0  0  0  0  0  0  0  0  0  0
   -4.2517   16.0431  -13.8534 H   0  0  0  0  0  0  0  0  0  0  0  0
   -4.9593   16.2038  -12.2102 H   0  0  0  0  0  0  0  0  0  0  0  0
   -3.4743   15.2236  -12.4567 H   0  0  0  0  0  0  0  0  0  0  0  0
   -6.7526   12.3233   -6.9261 H   0  0  0  0  0  0  0  0  0  0  0  0
   -4.5246   13.2972   -6.4815 H   0  0  0  0  0  0  0  0  0  0  0  0
   -2.6730    9.7536   -8.0506 H   0  0  0  0  0  0  0  0  0  0  0  0
   -4.8993    8.7846   -8.4743 H   0  0  0  0  0  0  0  0  0  0  0  0
   -2.4278   14.2202   -6.2127 H   0  0  0  0  0  0  0  0  0  0  0  0
   -0.6614   10.5729   -7.5868 H   0  0  0  0  0  0  0  0  0  0  0  0
    1.4672   14.2904   -6.0634 H   0  0  0  0  0  0  0  0  0  0  0  0
    0.2117   15.4427   -6.6311 H   0  0  0  0  0  0  0  0  0  0  0  0
    0.1649   14.8218   -4.9462 H   0  0  0  0  0  0  0  0  0  0  0  0
   -6.1759   13.2137  -14.2608 H   0  0  0  0  0  0  0  0  0  0  0  0
  1  2  1  0  0  0  0
  1  4  2  0  0  0  0
  1 13  1  0  0  0  0
  2  6  1  0  0  0  0
  3  4  1  0  0  0  0
  3  5  1  0  0  0  0
  5  6  2  0  0  0  0
  5  9  1  0  0  0  0
  6  7  1  0  0  0  0
  7  8  1  0  0  0  0
  7 10  2  3  0  0  0
  8  9  2  0  0  0  0
 10 14  1  0  0  0  0
 11 12  1  0  0  0  0
 11 13  2  0  0  0  0
 11 26  1  0  0  0  0
 14 15  2  0  0  0  0
 14 19  1  0  0  0  0
 15 16  1  0  0  0  0
 16 17  2  0  0  0  0
 17 18  1  0  0  0  0
 17 20  1  0  0  0  0
 18 19  2  0  0  0  0
 20 21  2  0  0  0  0
 20 24  1  0  0  0  0
 21 22  1  0  0  0  0
 22 23  1  0  0  0  0
 22 25  1  0  0  0  0
 23 24  2  0  0  0  0
  2 27  1  0  0  0  0
  2 28  1  0  0  0  0
  3 29  1  0  0  0  0
  3 30  1  0  0  0  0
  4 31  1  0  0  0  0
 10 32  1  0  0  0  0
 12 33  1  0  0  0  0
 12 34  1  0  0  0  0
 12 35  1  0  0  0  0
 15 36  1  0  0  0  0
 16 37  1  0  0  0  0
 18 38  1  0  0  0  0
 19 39  1  0  0  0  0
 21 40  1  0  0  0  0
 24 41  1  0  0  0  0
 25 42  1  0  0  0  0
 25 43  1  0  0  0  0
 25 44  1  0  0  0  0
 26 45  1  0  0  0  0
M  END
> <Name>
24

> <IC50[uM]>
0.029

$$$$
24
  -OEChem-05192314333D
 Structure written by MMmdl.
 45 48  0     1  0  0  0  0  0999 V2000
   -6.3515   12.3530  -11.9813 C   0  0  0  0  0  0  0  0  0  0  0  0
   -6.5085   11.7912  -10.7247 C   0  0  0  0  0  0  0  0  0  0  0  0
   -7.6802   10.5716  -13.0438 C   0  0  0  0  0  0  0  0  0  0  0  0
   -6.9296   11.7657  -13.1245 C   0  0  0  0  0  0  0  0  0  0  0  0
   -7.7980   10.0044  -11.7669 C   0  0  3  0  0  0  0  0  0  0  0  0
   -7.2328   10.6109  -10.5989 C   0  0  0  0  0  0  0  0  0  0  0  0
   -7.6209    9.7375   -9.5162 C   0  0  0  0  0  0  0  0  0  0  0  0
   -8.2754    8.7446   -9.9970 N   0  0  0  0  0  0  0  0  0  0  0  0
   -8.4233    8.8800  -11.3218 N   0  0  0  0  0  0  0  0  0  0  0  0
   -7.3328    9.8812   -8.0296 C   0  0  0  0  0  0  0  0  0  0  0  0
   -5.3004   14.2773  -13.1499 C   0  0  0  0  0  0  0  0  0  0  0  0
   -4.4346   15.5261  -12.8998 C   0  0  0  0  0  0  0  0  0  0  0  0
   -5.5896   13.5586  -12.0343 N   0  0  0  0  0  0  0  0  0  0  0  0
   -5.9706   10.4906   -7.7317 C   0  0  0  0  0  0  0  0  0  0  0  0
   -5.8616   11.7632   -7.1684 C   0  0  0  0  0  0  0  0  0  0  0  0
   -4.6051   12.3126   -6.9180 C   0  0  0  0  0  0  0  0  0  0  0  0
   -3.4544   11.5948   -7.2294 C   0  0  0  0  0  0  0  0  0  0  0  0
   -3.5626   10.3128   -7.8011 C   0  0  0  0  0  0  0  0  0  0  0  0
   -4.8160    9.7710   -8.0425 C   0  0  0  0  0  0  0  0  0  0  0  0
   -2.1083   12.1736   -6.9694 C   0  0  0  0  0  0  0  0  0  0  0  0
   -1.7503   13.4247   -6.4858 C   0  0  0  0  0  0  0  0  0  0  0  0
   -0.4131   13.4674   -6.4189 N   0  0  0  0  0  0  0  0  0  0  0  0
    0.1758   12.3735   -6.8057 N   0  0  0  0  0  0  0  0  0  0  0  0
   -0.8094   11.5620   -7.1791 C   0  0  0  0  0  0  0  0  0  0  0  0
    0.4060   14.5705   -5.9896 C   0  0  0  0  0  0  0  0  0  0  0  0
   -5.6528   14.0066  -14.2746 O   0  0  0  0  0  0  0  0  0  0  0  0
   -6.0747   12.2631   -9.8555 H   0  0  0  0  0  0  0  0  0  0  0  0
   -8.1361   10.1224  -13.9137 H   0  0  0  0  0  0  0  0  0  0  0  0
   -6.7956   12.2399  -14.0855 H   0  0  0  0  0  0  0  0  0  0  0  0
   -6.8712    9.4340  -11.9273 H   0  0  0  0  0  0  0  0  0  0  0  0
   -8.1067   10.5245   -7.5855 H   0  0  0  0  0  0  0  0  0  0  0  0
   -7.3763    8.8835   -7.5684 H   0  0  0  0  0  0  0  0  0  0  0  0
   -4.2517   16.0431  -13.8534 H   0  0  0  0  0  0  0  0  0  0  0  0
   -4.9593   16.2038  -12.2102 H   0  0  0  0  0  0  0  0  0  0  0  0
   -3.4743   15.2236  -12.4567 H   0  0  0  0  0  0  0  0  0  0  0  0
   -6.7526   12.3233   -6.9261 H   0  0  0  0  0  0  0  0  0  0  0  0
   -4.5246   13.2972   -6.4815 H   0  0  0  0  0  0  0  0  0  0  0  0
   -2.6730    9.7536   -8.0506 H   0  0  0  0  0  0  0  0  0  0  0  0
   -4.8993    8.7846   -8.4743 H   0  0  0  0  0  0  0  0  0  0  0  0
   -2.4278   14.2202   -6.2127 H   0  0  0  0  0  0  0  0  0  0  0  0
   -0.6614   10.5729   -7.5868 H   0  0  0  0  0  0  0  0  0  0  0  0
    1.4672   14.2904   -6.0634 H   0  0  0  0  0  0  0  0  0  0  0  0
    0.2117   15.4427   -6.6311 H   0  0  0  0  0  0  0  0  0  0  0  0
    0.1649   14.8218   -4.9462 H   0  0  0  0  0  0  0  0  0  0  0  0
   -6.1759   13.2137  -14.2608 H   0  0  0  0  0  0  0  0  0  0  0  0
  1  2  2  0  0  0  0
  1  4  1  0  0  0  0
  1 13  1  0  0  0  0
  2  6  1  0  0  0  0
  3  4  2  0  0  0  0
  3  5  1  0  0  0  0
  5  6  1  0  0  0  0
  5  9  1  0  0  0  0
  6  7  2  0  0  0  0
  7  8  1  0  0  0  0
  7 10  1  0  0  0  0
  8  9  2  0  0  0  0
 10 14  1  0  0  0  0
 11 12  1  0  0  0  0
 11 13  2  0  0  0  0
 11 26  1  0  0  0  0
 14 15  2  0  0  0  0
 14 19  1  0  0  0  0
 15 16  1  0  0  0  0
 16 17  2  0  0  0  0
 17 18  1  0  0  0  0
 17 20  1  0  0  0  0
 18 19  2  0  0  0  0
 20 21  2  0  0  0  0
 20 24  1  0  0  0  0
 21 22  1  0  0  0  0
 22 23  1  0  0  0  0
 22 25  1  0  0  0  0
 23 24  2  0  0  0  0
  2 27  1  0  0  0  0
  3 28  1  0  0  0  0
  4 29  1  0  0  0  0
  5 30  1  0  0  0  0
 10 31  1  0  0  0  0
 10 32  1  0  0  0  0
 12 33  1  0  0  0  0
 12 34  1  0  0  0  0
 12 35  1  0  0  0  0
 15 36  1  0  0  0  0
 16 37  1  0  0  0  0
 18 38  1  0  0  0  0
 19 39  1  0  0  0  0
 21 40  1  0  0  0  0
 24 41  1  0  0  0  0
 25 42  1  0  0  0  0
 25 43  1  0  0  0  0
 25 44  1  0  0  0  0
 26 45  1  0  0  0  0
M  END
> <Name>
24

> <IC50[uM]>
0.029

$$$$
24
  -OEChem-05192314333D
 Structure written by MMmdl.
 45 48  0     0  0  0  0  0  0999 V2000
   -6.3515   12.3530  -11.9813 C   0  0  0  0  0  0  0  0  0  0  0  0
   -6.5085   11.7912  -10.7247 C   0  0  0  0  0  0  0  0  0  0  0  0
   -7.6802   10.5716  -13.0438 C   0  0  0  0  0  0  0  0  0  0  0  0
   -6.9296   11.7657  -13.1245 C   0  0  0  0  0  0  0  0  0  0  0  0
   -7.7980   10.0044  -11.7669 C   0  0  0  0  0  0  0  0  0  0  0  0
   -7.2328   10.6109  -10.5989 C   0  0  0  0  0  0  0  0  0  0  0  0
   -7.6209    9.7375   -9.5162 C   0  0  0  0  0  0  0  0  0  0  0  0
   -8.2754    8.7446   -9.9970 N   0  0  0  0  0  0  0  0  0  0  0  0
   -8.4233    8.8800  -11.3218 N   0  0  0  0  0  0  0  0  0  0  0  0
   -7.3328    9.8812   -8.0296 C   0  0  0  0  0  0  0  0  0  0  0  0
   -5.3004   14.2773  -13.1499 C   0  0  0  0  0  0  0  0  0  0  0  0
   -4.4346   15.5261  -12.8998 C   0  0  0  0  0  0  0  0  0  0  0  0
   -5.5896   13.5586  -12.0343 N   0  0  0  0  0  0  0  0  0  0  0  0
   -5.9706   10.4906   -7.7317 C   0  0  0  0  0  0  0  0  0  0  0  0
   -5.8616   11.7632   -7.1684 C   0  0  0  0  0  0  0  0  0  0  0  0
   -4.6051   12.3126   -6.9180 C   0  0  0  0  0  0  0  0  0  0  0  0
   -3.4544   11.5948   -7.2294 C   0  0  0  0  0  0  0  0  0  0  0  0
   -3.5626   10.3128   -7.8011 C   0  0  0  0  0  0  0  0  0  0  0  0
   -4.8160    9.7710   -8.0425 C   0  0  0  0  0  0  0  0  0  0  0  0
   -2.1083   12.1736   -6.9694 C   0  0  0  0  0  0  0  0  0  0  0  0
   -1.7503   13.4247   -6.4858 C   0  0  0  0  0  0  0  0  0  0  0  0
   -0.4131   13.4674   -6.4189 N   0  0  0  0  0  0  0  0  0  0  0  0
    0.1758   12.3735   -6.8057 N   0  0  0  0  0  0  0  0  0  0  0  0
   -0.8094   11.5620   -7.1791 C   0  0  0  0  0  0  0  0  0  0  0  0
    0.4060   14.5705   -5.9896 C   0  0  0  0  0  0  0  0  0  0  0  0
   -5.6528   14.0066  -14.2746 O   0  0  0  0  0  0  0  0  0  0  0  0
   -6.0747   12.2631   -9.8555 H   0  0  0  0  0  0  0  0  0  0  0  0
   -8.1361   10.1224  -13.9137 H   0  0  0  0  0  0  0  0  0  0  0  0
   -7.5989   12.5237  -13.5575 H   0  0  0  0  0  0  0  0  0  0  0  0
   -6.1027   11.5654  -13.8217 H   0  0  0  0  0  0  0  0  0  0  0  0
   -8.1067   10.5245   -7.5855 H   0  0  0  0  0  0  0  0  0  0  0  0
   -7.3763    8.8835   -7.5684 H   0  0  0  0  0  0  0  0  0  0  0  0
   -4.2517   16.0431  -13.8534 H   0  0  0  0  0  0  0  0  0  0  0  0
   -4.9593   16.2038  -12.2102 H   0  0  0  0  0  0  0  0  0  0  0  0
   -3.4743   15.2236  -12.4567 H   0  0  0  0  0  0  0  0  0  0  0  0
   -6.7526   12.3233   -6.9261 H   0  0  0  0  0  0  0  0  0  0  0  0
   -4.5246   13.2972   -6.4815 H   0  0  0  0  0  0  0  0  0  0  0  0
   -2.6730    9.7536   -8.0506 H   0  0  0  0  0  0  0  0  0  0  0  0
   -4.8993    8.7846   -8.4743 H   0  0  0  0  0  0  0  0  0  0  0  0
   -2.4278   14.2202   -6.2127 H   0  0  0  0  0  0  0  0  0  0  0  0
   -0.6614   10.5729   -7.5868 H   0  0  0  0  0  0  0  0  0  0  0  0
    1.4672   14.2904   -6.0634 H   0  0  0  0  0  0  0  0  0  0  0  0
    0.2117   15.4427   -6.6311 H   0  0  0  0  0  0  0  0  0  0  0  0
    0.1649   14.8218   -4.9462 H   0  0  0  0  0  0  0  0  0  0  0  0
   -6.1759   13.2137  -14.2608 H   0  0  0  0  0  0  0  0  0  0  0  0
  1  2  2  0  0  0  0
  1  4  1  0  0  0  0
  1 13  1  0  0  0  0
  2  6  1  0  0  0  0
  3  4  1  0  0  0  0
  3  5  2  0  0  0  0
  5  6  1  0  0  0  0
  5  9  1  0  0  0  0
  6  7  2  0  0  0  0
  7  8  1  0  0  0  0
  7 10  1  0  0  0  0
  8  9  2  0  0  0  0
 10 14  1  0  0  0  0
 11 12  1  0  0  0  0
 11 13  2  0  0  0  0
 11 26  1  0  0  0  0
 14 15  2  0  0  0  0
 14 19  1  0  0  0  0
 15 16  1  0  0  0  0
 16 17  2  0  0  0  0
 17 18  1  0  0  0  0
 17 20  1  0  0  0  0
 18 19  2  0  0  0  0
 20 21  2  0  0  0  0
 20 24  1  0  0  0  0
 21 22  1  0  0  0  0
 22 23  1  0  0  0  0
 22 25  1  0  0  0  0
 23 24  2  0  0  0  0
  2 27  1  0  0  0  0
  3 28  1  0  0  0  0
  4 29  1  0  0  0  0
  4 30  1  0  0  0  0
 10 31  1  0  0  0  0
 10 32  1  0  0  0  0
 12 33  1  0  0  0  0
 12 34  1  0  0  0  0
 12 35  1  0  0  0  0
 15 36  1  0  0  0  0
 16 37  1  0  0  0  0
 18 38  1  0  0  0  0
 19 39  1  0  0  0  0
 21 40  1  0  0  0  0
 24 41  1  0  0  0  0
 25 42  1  0  0  0  0
 25 43  1  0  0  0  0
 25 44  1  0  0  0  0
 26 45  1  0  0  0  0
M  END
> <Name>
24

> <IC50[uM]>
0.029

$$$$
24
  -OEChem-05192314333D
 Structure written by MMmdl.
 45 48  0     0  0  0  0  0  0999 V2000
   -6.3515   12.3530  -11.9813 C   0  0  0  0  0  0  0  0  0  0  0  0
   -6.5085   11.7912  -10.7247 C   0  0  0  0  0  0  0  0  0  0  0  0
   -7.6802   10.5716  -13.0438 C   0  0  0  0  0  0  0  0  0  0  0  0
   -6.9296   11.7657  -13.1245 C   0  0  0  0  0  0  0  0  0  0  0  0
   -7.7980   10.0044  -11.7669 C   0  0  0  0  0  0  0  0  0  0  0  0
   -7.2328   10.6109  -10.5989 C   0  0  0  0  0  0  0  0  0  0  0  0
   -7.6209    9.7375   -9.5162 C   0  0  0  0  0  0  0  0  0  0  0  0
   -8.2754    8.7446   -9.9970 N   0  0  0  0  0  0  0  0  0  0  0  0
   -8.4233    8.8800  -11.3218 N   0  0  0  0  0  0  0  0  0  0  0  0
   -7.3328    9.8812   -8.0296 C   0  0  0  0  0  0  0  0  0  0  0  0
   -5.3004   14.2773  -13.1499 C   0  0  0  0  0  0  0  0  0  0  0  0
   -4.4346   15.5261  -12.8998 C   0  0  0  0  0  0  0  0  0  0  0  0
   -5.5896   13.5586  -12.0343 N   0  0  0  0  0  0  0  0  0  0  0  0
   -5.9706   10.4906   -7.7317 C   0  0  0  0  0  0  0  0  0  0  0  0
   -5.8616   11.7632   -7.1684 C   0  0  0  0  0  0  0  0  0  0  0  0
   -4.6051   12.3126   -6.9180 C   0  0  0  0  0  0  0  0  0  0  0  0
   -3.4544   11.5948   -7.2294 C   0  0  0  0  0  0  0  0  0  0  0  0
   -3.5626   10.3128   -7.8011 C   0  0  0  0  0  0  0  0  0  0  0  0
   -4.8160    9.7710   -8.0425 C   0  0  0  0  0  0  0  0  0  0  0  0
   -2.1083   12.1736   -6.9694 C   0  0  0  0  0  0  0  0  0  0  0  0
   -1.7503   13.4247   -6.4858 C   0  0  0  0  0  0  0  0  0  0  0  0
   -0.4131   13.4674   -6.4189 N   0  0  0  0  0  0  0  0  0  0  0  0
    0.1758   12.3735   -6.8057 N   0  0  0  0  0  0  0  0  0  0  0  0
   -0.8094   11.5620   -7.1791 C   0  0  0  0  0  0  0  0  0  0  0  0
    0.4060   14.5705   -5.9896 C   0  0  0  0  0  0  0  0  0  0  0  0
   -5.6528   14.0066  -14.2746 O   0  0  0  0  0  0  0  0  0  0  0  0
   -5.5002   11.5939  -10.3317 H   0  0  0  0  0  0  0  0  0  0  0  0
   -7.0066   12.5435  -10.0954 H   0  0  0  0  0  0  0  0  0  0  0  0
   -8.1361   10.1224  -13.9137 H   0  0  0  0  0  0  0  0  0  0  0  0
   -6.7956   12.2399  -14.0855 H   0  0  0  0  0  0  0  0  0  0  0  0
   -8.1067   10.5245   -7.5855 H   0  0  0  0  0  0  0  0  0  0  0  0
   -7.3763    8.8835   -7.5684 H   0  0  0  0  0  0  0  0  0  0  0  0
   -4.2517   16.0431  -13.8534 H   0  0  0  0  0  0  0  0  0  0  0  0
   -4.9593   16.2038  -12.2102 H   0  0  0  0  0  0  0  0  0  0  0  0
   -3.4743   15.2236  -12.4567 H   0  0  0  0  0  0  0  0  0  0  0  0
   -6.7526   12.3233   -6.9261 H   0  0  0  0  0  0  0  0  0  0  0  0
   -4.5246   13.2972   -6.4815 H   0  0  0  0  0  0  0  0  0  0  0  0
   -2.6730    9.7536   -8.0506 H   0  0  0  0  0  0  0  0  0  0  0  0
   -4.8993    8.7846   -8.4743 H   0  0  0  0  0  0  0  0  0  0  0  0
   -2.4278   14.2202   -6.2127 H   0  0  0  0  0  0  0  0  0  0  0  0
   -0.6614   10.5729   -7.5868 H   0  0  0  0  0  0  0  0  0  0  0  0
    1.4672   14.2904   -6.0634 H   0  0  0  0  0  0  0  0  0  0  0  0
    0.2117   15.4427   -6.6311 H   0  0  0  0  0  0  0  0  0  0  0  0
    0.1649   14.8218   -4.9462 H   0  0  0  0  0  0  0  0  0  0  0  0
   -6.1759   13.2137  -14.2608 H   0  0  0  0  0  0  0  0  0  0  0  0
  1  2  1  0  0  0  0
  1  4  2  0  0  0  0
  1 13  1  0  0  0  0
  2  6  1  0  0  0  0
  3  4  1  0  0  0  0
  3  5  2  0  0  0  0
  5  6  1  0  0  0  0
  5  9  1  0  0  0  0
  6  7  2  0  0  0  0
  7  8  1  0  0  0  0
  7 10  1  0  0  0  0
  8  9  2  0  0  0  0
 10 14  1  0  0  0  0
 11 12  1  0  0  0  0
 11 13  2  0  0  0  0
 11 26  1  0  0  0  0
 14 15  2  0  0  0  0
 14 19  1  0  0  0  0
 15 16  1  0  0  0  0
 16 17  2  0  0  0  0
 17 18  1  0  0  0  0
 17 20  1  0  0  0  0
 18 19  2  0  0  0  0
 20 21  2  0  0  0  0
 20 24  1  0  0  0  0
 21 22  1  0  0  0  0
 22 23  1  0  0  0  0
 22 25  1  0  0  0  0
 23 24  2  0  0  0  0
  2 27  1  0  0  0  0
  2 28  1  0  0  0  0
  3 29  1  0  0  0  0
  4 30  1  0  0  0  0
 10 31  1  0  0  0  0
 10 32  1  0  0  0  0
 12 33  1  0  0  0  0
 12 34  1  0  0  0  0
 12 35  1  0  0  0  0
 15 36  1  0  0  0  0
 16 37  1  0  0  0  0
 18 38  1  0  0  0  0
 19 39  1  0  0  0  0
 21 40  1  0  0  0  0
 24 41  1  0  0  0  0
 25 42  1  0  0  0  0
 25 43  1  0  0  0  0
 25 44  1  0  0  0  0
 26 45  1  0  0  0  0
M  END
> <Name>
24

> <IC50[uM]>
0.029

$$$$
24
  -OEChem-05192314333D
 Structure written by MMmdl.
 45 48  0     1  0  0  0  0  0999 V2000
   -6.3515   12.3530  -11.9813 C   0  0  0  0  0  0  0  0  0  0  0  0
   -6.5085   11.7912  -10.7247 C   0  0  0  0  0  0  0  0  0  0  0  0
   -7.6802   10.5716  -13.0438 C   0  0  0  0  0  0  0  0  0  0  0  0
   -6.9296   11.7657  -13.1245 C   0  0  0  0  0  0  0  0  0  0  0  0
   -7.7980   10.0044  -11.7669 C   0  0  0  0  0  0  0  0  0  0  0  0
   -7.2328   10.6109  -10.5989 C   0  0  3  0  0  0  0  0  0  0  0  0
   -7.6209    9.7375   -9.5162 C   0  0  0  0  0  0  0  0  0  0  0  0
   -8.2754    8.7446   -9.9970 N   0  0  0  0  0  0  0  0  0  0  0  0
   -8.4233    8.8800  -11.3218 N   0  0  0  0  0  0  0  0  0  0  0  0
   -7.3328    9.8812   -8.0296 C   0  0  0  0  0  0  0  0  0  0  0  0
   -5.3004   14.2773  -13.1499 C   0  0  0  0  0  0  0  0  0  0  0  0
   -4.4346   15.5261  -12.8998 C   0  0  0  0  0  0  0  0  0  0  0  0
   -5.5896   13.5586  -12.0343 N   0  0  0  0  0  0  0  0  0  0  0  0
   -5.9706   10.4906   -7.7317 C   0  0  0  0  0  0  0  0  0  0  0  0
   -5.8616   11.7632   -7.1684 C   0  0  0  0  0  0  0  0  0  0  0  0
   -4.6051   12.3126   -6.9180 C   0  0  0  0  0  0  0  0  0  0  0  0
   -3.4544   11.5948   -7.2294 C   0  0  0  0  0  0  0  0  0  0  0  0
   -3.5626   10.3128   -7.8011 C   0  0  0  0  0  0  0  0  0  0  0  0
   -4.8160    9.7710   -8.0425 C   0  0  0  0  0  0  0  0  0  0  0  0
   -2.1083   12.1736   -6.9694 C   0  0  0  0  0  0  0  0  0  0  0  0
   -1.7503   13.4247   -6.4858 C   0  0  0  0  0  0  0  0  0  0  0  0
   -0.4131   13.4674   -6.4189 N   0  0  0  0  0  0  0  0  0  0  0  0
    0.1758   12.3735   -6.8057 N   0  0  0  0  0  0  0  0  0  0  0  0
   -0.8094   11.5620   -7.1791 C   0  0  0  0  0  0  0  0  0  0  0  0
    0.4060   14.5705   -5.9896 C   0  0  0  0  0  0  0  0  0  0  0  0
   -5.6528   14.0066  -14.2746 O   0  0  0  0  0  0  0  0  0  0  0  0
   -6.0747   12.2631   -9.8555 H   0  0  0  0  0  0  0  0  0  0  0  0
   -8.1361   10.1224  -13.9137 H   0  0  0  0  0  0  0  0  0  0  0  0
   -6.7956   12.2399  -14.0855 H   0  0  0  0  0  0  0  0  0  0  0  0
   -6.3107   10.0281  -10.7406 H   0  0  0  0  0  0  0  0  0  0  0  0
   -8.6258    7.9778   -9.4591 H   0  0  0  0  0  0  0  0  0  0  0  0
   -8.0279    9.5798   -7.2599 H   0  0  0  0  0  0  0  0  0  0  0  0
   -4.2517   16.0431  -13.8534 H   0  0  0  0  0  0  0  0  0  0  0  0
   -4.9593   16.2038  -12.2102 H   0  0  0  0  0  0  0  0  0  0  0  0
   -3.4743   15.2236  -12.4567 H   0  0  0  0  0  0  0  0  0  0  0  0
   -6.7526   12.3233   -6.9261 H   0  0  0  0  0  0  0  0  0  0  0  0
   -4.5246   13.2972   -6.4815 H   0  0  0  0  0  0  0  0  0  0  0  0
   -2.6730    9.7536   -8.0506 H   0  0  0  0  0  0  0  0  0  0  0  0
   -4.8993    8.7846   -8.4743 H   0  0  0  0  0  0  0  0  0  0  0  0
   -2.4278   14.2202   -6.2127 H   0  0  0  0  0  0  0  0  0  0  0  0
   -0.6614   10.5729   -7.5868 H   0  0  0  0  0  0  0  0  0  0  0  0
    1.4672   14.2904   -6.0634 H   0  0  0  0  0  0  0  0  0  0  0  0
    0.2117   15.4427   -6.6311 H   0  0  0  0  0  0  0  0  0  0  0  0
    0.1649   14.8218   -4.9462 H   0  0  0  0  0  0  0  0  0  0  0  0
   -6.1759   13.2137  -14.2608 H   0  0  0  0  0  0  0  0  0  0  0  0
  1  2  2  0  0  0  0
  1  4  1  0  0  0  0
  1 13  1  0  0  0  0
  2  6  1  0  0  0  0
  3  4  2  0  0  0  0
  3  5  1  0  0  0  0
  5  6  1  0  0  0  0
  5  9  2  0  0  0  0
  6  7  1  0  0  0  0
  7  8  1  0  0  0  0
  7 10  2  3  0  0  0
  8  9  1  0  0  0  0
 10 14  1  0  0  0  0
 11 12  1  0  0  0  0
 11 13  2  0  0  0  0
 11 26  1  0  0  0  0
 14 15  2  0  0  0  0
 14 19  1  0  0  0  0
 15 16  1  0  0  0  0
 16 17  2  0  0  0  0
 17 18  1  0  0  0  0
 17 20  1  0  0  0  0
 18 19  2  0  0  0  0
 20 21  2  0  0  0  0
 20 24  1  0  0  0  0
 21 22  1  0  0  0  0
 22 23  1  0  0  0  0
 22 25  1  0  0  0  0
 23 24  2  0  0  0  0
  2 27  1  0  0  0  0
  3 28  1  0  0  0  0
  4 29  1  0  0  0  0
  6 30  1  0  0  0  0
  8 31  1  0  0  0  0
 10 32  1  0  0  0  0
 12 33  1  0  0  0  0
 12 34  1  0  0  0  0
 12 35  1  0  0  0  0
 15 36  1  0  0  0  0
 16 37  1  0  0  0  0
 18 38  1  0  0  0  0
 19 39  1  0  0  0  0
 21 40  1  0  0  0  0
 24 41  1  0  0  0  0
 25 42  1  0  0  0  0
 25 43  1  0  0  0  0
 25 44  1  0  0  0  0
 26 45  1  0  0  0  0
M  END
> <Name>
24

> <IC50[uM]>
0.029

$$$$
24
  -OEChem-05192314333D
 Structure written by MMmdl.
 45 48  0     1  0  0  0  0  0999 V2000
   -6.3515   12.3530  -11.9813 C   0  0  0  0  0  0  0  0  0  0  0  0
   -6.5085   11.7912  -10.7247 C   0  0  0  0  0  0  0  0  0  0  0  0
   -7.6802   10.5716  -13.0438 C   0  0  0  0  0  0  0  0  0  0  0  0
   -6.9296   11.7657  -13.1245 C   0  0  0  0  0  0  0  0  0  0  0  0
   -7.7980   10.0044  -11.7669 C   0  0  0  0  0  0  0  0  0  0  0  0
   -7.2328   10.6109  -10.5989 C   0  0  0  0  0  0  0  0  0  0  0  0
   -7.6209    9.7375   -9.5162 C   0  0  0  0  0  0  0  0  0  0  0  0
   -8.2754    8.7446   -9.9970 N   0  0  0  0  0  0  0  0  0  0  0  0
   -8.4233    8.8800  -11.3218 N   0  0  0  0  0  0  0  0  0  0  0  0
   -7.3328    9.8812   -8.0296 C   0  0  0  0  0  0  0  0  0  0  0  0
   -5.3004   14.2773  -13.1499 C   0  0  0  0  0  0  0  0  0  0  0  0
   -4.4346   15.5261  -12.8998 C   0  0  0  0  0  0  0  0  0  0  0  0
   -5.5896   13.5586  -12.0343 N   0  0  0  0  0  0  0  0  0  0  0  0
   -5.9706   10.4906   -7.7317 C   0  0  0  0  0  0  0  0  0  0  0  0
   -5.8616   11.7632   -7.1684 C   0  0  0  0  0  0  0  0  0  0  0  0
   -4.6051   12.3126   -6.9180 C   0  0  0  0  0  0  0  0  0  0  0  0
   -3.4544   11.5948   -7.2294 C   0  0  0  0  0  0  0  0  0  0  0  0
   -3.5626   10.3128   -7.8011 C   0  0  0  0  0  0  0  0  0  0  0  0
   -4.8160    9.7710   -8.0425 C   0  0  0  0  0  0  0  0  0  0  0  0
   -2.1083   12.1736   -6.9694 C   0  0  3  0  0  0  0  0  0  0  0  0
   -1.7503   13.4247   -6.4858 C   0  0  0  0  0  0  0  0  0  0  0  0
   -0.4131   13.4674   -6.4189 N   0  0  3  0  0  0  0  0  0  0  0  0
    0.1758   12.3735   -6.8057 N   0  0  0  0  0  0  0  0  0  0  0  0
   -0.8094   11.5620   -7.1791 C   0  0  0  0  0  0  0  0  0  0  0  0
    0.4060   14.5705   -5.9896 C   0  0  0  0  0  0  0  0  0  0  0  0
   -5.6528   14.0066  -14.2746 O   0  0  0  0  0  0  0  0  0  0  0  0
   -6.0747   12.2631   -9.8555 H   0  0  0  0  0  0  0  0  0  0  0  0
   -8.1361   10.1224  -13.9137 H   0  0  0  0  0  0  0  0  0  0  0  0
   -6.7956   12.2399  -14.0855 H   0  0  0  0  0  0  0  0  0  0  0  0
   -8.6258    7.9778   -9.4591 H   0  0  0  0  0  0  0  0  0  0  0  0
   -8.0279    9.5798   -7.2599 H   0  0  0  0  0  0  0  0  0  0  0  0
   -4.2429   16.0373  -13.8548 H   0  0  0  0  0  0  0  0  0  0  0  0
   -4.9638   16.2086  -12.2185 H   0  0  0  0  0  0  0  0  0  0  0  0
   -3.4785   15.2246  -12.4471 H   0  0  0  0  0  0  0  0  0  0  0  0
   -6.7526   12.3233   -6.9261 H   0  0  0  0  0  0  0  0  0  0  0  0
   -4.5246   13.2972   -6.4815 H   0  0  0  0  0  0  0  0  0  0  0  0
   -2.6730    9.7536   -8.0506 H   0  0  0  0  0  0  0  0  0  0  0  0
   -4.8993    8.7846   -8.4743 H   0  0  0  0  0  0  0  0  0  0  0  0
   -2.1327   11.7792   -5.9428 H   0  0  0  0  0  0  0  0  0  0  0  0
   -2.1167   14.2081   -7.1655 H   0  0  0  0  0  0  0  0  0  0  0  0
   -2.1807   13.5768   -5.4850 H   0  0  0  0  0  0  0  0  0  0  0  0
   -0.6614   10.5729   -7.5868 H   0  0  0  0  0  0  0  0  0  0  0  0
    1.4672   14.2904   -6.0634 H   0  0  0  0  0  0  0  0  0  0  0  0
    0.2117   15.4427   -6.6311 H   0  0  0  0  0  0  0  0  0  0  0  0
    0.1649   14.8218   -4.9462 H   0  0  0  0  0  0  0  0  0  0  0  0
  1  2  1  0  0  0  0
  1  4  1  0  0  0  0
  1 13  2  0  0  0  0
  2  6  2  0  0  0  0
  3  4  2  0  0  0  0
  3  5  1  0  0  0  0
  5  6  1  0  0  0  0
  5  9  2  0  0  0  0
  6  7  1  0  0  0  0
  7  8  1  0  0  0  0
  7 10  2  3  0  0  0
  8  9  1  0  0  0  0
 10 14  1  0  0  0  0
 11 12  1  0  0  0  0
 11 13  1  0  0  0  0
 11 26  2  0  0  0  0
 14 15  2  0  0  0  0
 14 19  1  0  0  0  0
 15 16  1  0  0  0  0
 16 17  2  0  0  0  0
 17 18  1  0  0  0  0
 17 20  1  0  0  0  0
 18 19  2  0  0  0  0
 20 21  1  0  0  0  0
 20 24  1  0  0  0  0
 21 22  1  0  0  0  0
 22 23  1  0  0  0  0
 22 25  1  0  0  0  0
 23 24  2  0  0  0  0
  2 27  1  0  0  0  0
  3 28  1  0  0  0  0
  4 29  1  0  0  0  0
  8 30  1  0  0  0  0
 10 31  1  0  0  0  0
 12 32  1  0  0  0  0
 12 33  1  0  0  0  0
 12 34  1  0  0  0  0
 15 35  1  0  0  0  0
 16 36  1  0  0  0  0
 18 37  1  0  0  0  0
 19 38  1  0  0  0  0
 20 39  1  0  0  0  0
 21 40  1  0  0  0  0
 21 41  1  0  0  0  0
 24 42  1  0  0  0  0
 25 43  1  0  0  0  0
 25 44  1  0  0  0  0
 25 45  1  0  0  0  0
M  END
> <Name>
24

> <IC50[uM]>
0.029

$$$$
24
  -OEChem-05192314333D
 Structure written by MMmdl.
 45 48  0     1  0  0  0  0  0999 V2000
   -6.3515   12.3530  -11.9813 C   0  0  0  0  0  0  0  0  0  0  0  0
   -6.5085   11.7912  -10.7247 C   0  0  0  0  0  0  0  0  0  0  0  0
   -7.6802   10.5716  -13.0438 C   0  0  0  0  0  0  0  0  0  0  0  0
   -6.9296   11.7657  -13.1245 C   0  0  0  0  0  0  0  0  0  0  0  0
   -7.7980   10.0044  -11.7669 C   0  0  0  0  0  0  0  0  0  0  0  0
   -7.2328   10.6109  -10.5989 C   0  0  0  0  0  0  0  0  0  0  0  0
   -7.6209    9.7375   -9.5162 C   0  0  0  0  0  0  0  0  0  0  0  0
   -8.2754    8.7446   -9.9970 N   0  0  0  0  0  0  0  0  0  0  0  0
   -8.4233    8.8800  -11.3218 N   0  0  0  0  0  0  0  0  0  0  0  0
   -7.3328    9.8812   -8.0296 C   0  0  0  0  0  0  0  0  0  0  0  0
   -5.3004   14.2773  -13.1499 C   0  0  0  0  0  0  0  0  0  0  0  0
   -4.4346   15.5261  -12.8998 C   0  0  0  0  0  0  0  0  0  0  0  0
   -5.5896   13.5586  -12.0343 N   0  0  0  0  0  0  0  0  0  0  0  0
   -5.9706   10.4906   -7.7317 C   0  0  0  0  0  0  0  0  0  0  0  0
   -5.8616   11.7632   -7.1684 C   0  0  0  0  0  0  0  0  0  0  0  0
   -4.6051   12.3126   -6.9180 C   0  0  0  0  0  0  0  0  0  0  0  0
   -3.4544   11.5948   -7.2294 C   0  0  0  0  0  0  0  0  0  0  0  0
   -3.5626   10.3128   -7.8011 C   0  0  0  0  0  0  0  0  0  0  0  0
   -4.8160    9.7710   -8.0425 C   0  0  0  0  0  0  0  0  0  0  0  0
   -2.1083   12.1736   -6.9694 C   0  0  0  0  0  0  0  0  0  0  0  0
   -1.7503   13.4247   -6.4858 C   0  0  0  0  0  0  0  0  0  0  0  0
   -0.4131   13.4674   -6.4189 N   0  0  3  0  0  0  0  0  0  0  0  0
    0.1758   12.3735   -6.8057 N   0  0  0  0  0  0  0  0  0  0  0  0
   -0.8094   11.5620   -7.1791 C   0  0  0  0  0  0  0  0  0  0  0  0
    0.4060   14.5705   -5.9896 C   0  0  0  0  0  0  0  0  0  0  0  0
   -5.6528   14.0066  -14.2746 O   0  0  0  0  0  0  0  0  0  0  0  0
   -5.5002   11.5939  -10.3317 H   0  0  0  0  0  0  0  0  0  0  0  0
   -7.0066   12.5435  -10.0954 H   0  0  0  0  0  0  0  0  0  0  0  0
   -8.1361   10.1224  -13.9137 H   0  0  0  0  0  0  0  0  0  0  0  0
   -6.7956   12.2399  -14.0855 H   0  0  0  0  0  0  0  0  0  0  0  0
   -8.6258    7.9778   -9.4591 H   0  0  0  0  0  0  0  0  0  0  0  0
   -8.0279    9.5798   -7.2599 H   0  0  0  0  0  0  0  0  0  0  0  0
   -4.2429   16.0373  -13.8548 H   0  0  0  0  0  0  0  0  0  0  0  0
   -4.9638   16.2086  -12.2185 H   0  0  0  0  0  0  0  0  0  0  0  0
   -3.4785   15.2246  -12.4471 H   0  0  0  0  0  0  0  0  0  0  0  0
   -6.7526   12.3233   -6.9261 H   0  0  0  0  0  0  0  0  0  0  0  0
   -4.5246   13.2972   -6.4815 H   0  0  0  0  0  0  0  0  0  0  0  0
   -2.6730    9.7536   -8.0506 H   0  0  0  0  0  0  0  0  0  0  0  0
   -4.8993    8.7846   -8.4743 H   0  0  0  0  0  0  0  0  0  0  0  0
   -2.1167   14.2081   -7.1655 H   0  0  0  0  0  0  0  0  0  0  0  0
   -2.1807   13.5768   -5.4850 H   0  0  0  0  0  0  0  0  0  0  0  0
   -0.6614   10.5729   -7.5868 H   0  0  0  0  0  0  0  0  0  0  0  0
    1.4672   14.2904   -6.0634 H   0  0  0  0  0  0  0  0  0  0  0  0
    0.2117   15.4427   -6.6311 H   0  0  0  0  0  0  0  0  0  0  0  0
    0.1649   14.8218   -4.9462 H   0  0  0  0  0  0  0  0  0  0  0  0
  1  2  1  0  0  0  0
  1  4  1  0  0  0  0
  1 13  2  0  0  0  0
  2  6  1  0  0  0  0
  3  4  2  0  0  0  0
  3  5  1  0  0  0  0
  5  6  1  0  0  0  0
  5  9  2  0  0  0  0
  6  7  2  0  0  0  0
  7  8  1  0  0  0  0
  7 10  1  0  0  0  0
  8  9  1  0  0  0  0
 10 14  2  0  0  0  0
 11 12  1  0  0  0  0
 11 13  1  0  0  0  0
 11 26  2  0  0  0  0
 14 15  1  0  0  0  0
 14 19  1  0  0  0  0
 15 16  2  0  0  0  0
 16 17  1  0  0  0  0
 17 18  1  0  0  0  0
 17 20  2  0  0  0  0
 18 19  2  0  0  0  0
 20 21  1  0  0  0  0
 20 24  1  0  0  0  0
 21 22  1  0  0  0  0
 22 23  1  0  0  0  0
 22 25  1  0  0  0  0
 23 24  2  0  0  0  0
  2 27  1  0  0  0  0
  2 28  1  0  0  0  0
  3 29  1  0  0  0  0
  4 30  1  0  0  0  0
  8 31  1  0  0  0  0
 10 32  1  0  0  0  0
 12 33  1  0  0  0  0
 12 34  1  0  0  0  0
 12 35  1  0  0  0  0
 15 36  1  0  0  0  0
 16 37  1  0  0  0  0
 18 38  1  0  0  0  0
 19 39  1  0  0  0  0
 21 40  1  0  0  0  0
 21 41  1  0  0  0  0
 24 42  1  0  0  0  0
 25 43  1  0  0  0  0
 25 44  1  0  0  0  0
 25 45  1  0  0  0  0
M  END
> <Name>
24

> <IC50[uM]>
0.029

$$$$
24
  -OEChem-05192314333D
 Structure written by MMmdl.
 45 48  0     1  0  0  0  0  0999 V2000
   -6.3515   12.3530  -11.9813 C   0  0  0  0  0  0  0  0  0  0  0  0
   -6.5085   11.7912  -10.7247 C   0  0  0  0  0  0  0  0  0  0  0  0
   -7.6802   10.5716  -13.0438 C   0  0  0  0  0  0  0  0  0  0  0  0
   -6.9296   11.7657  -13.1245 C   0  0  0  0  0  0  0  0  0  0  0  0
   -7.7980   10.0044  -11.7669 C   0  0  0  0  0  0  0  0  0  0  0  0
   -7.2328   10.6109  -10.5989 C   0  0  0  0  0  0  0  0  0  0  0  0
   -7.6209    9.7375   -9.5162 C   0  0  0  0  0  0  0  0  0  0  0  0
   -8.2754    8.7446   -9.9970 N   0  0  0  0  0  0  0  0  0  0  0  0
   -8.4233    8.8800  -11.3218 N   0  0  0  0  0  0  0  0  0  0  0  0
   -7.3328    9.8812   -8.0296 C   0  0  0  0  0  0  0  0  0  0  0  0
   -5.3004   14.2773  -13.1499 C   0  0  0  0  0  0  0  0  0  0  0  0
   -4.4346   15.5261  -12.8998 C   0  0  0  0  0  0  0  0  0  0  0  0
   -5.5896   13.5586  -12.0343 N   0  0  0  0  0  0  0  0  0  0  0  0
   -5.9706   10.4906   -7.7317 C   0  0  0  0  0  0  0  0  0  0  0  0
   -5.8616   11.7632   -7.1684 C   0  0  0  0  0  0  0  0  0  0  0  0
   -4.6051   12.3126   -6.9180 C   0  0  0  0  0  0  0  0  0  0  0  0
   -3.4544   11.5948   -7.2294 C   0  0  0  0  0  0  0  0  0  0  0  0
   -3.5626   10.3128   -7.8011 C   0  0  0  0  0  0  0  0  0  0  0  0
   -4.8160    9.7710   -8.0425 C   0  0  0  0  0  0  0  0  0  0  0  0
   -2.1083   12.1736   -6.9694 C   0  0  0  0  0  0  0  0  0  0  0  0
   -1.7503   13.4247   -6.4858 C   0  0  0  0  0  0  0  0  0  0  0  0
   -0.4131   13.4674   -6.4189 N   0  0  3  0  0  0  0  0  0  0  0  0
    0.1758   12.3735   -6.8057 N   0  0  0  0  0  0  0  0  0  0  0  0
   -0.8094   11.5620   -7.1791 C   0  0  0  0  0  0  0  0  0  0  0  0
    0.4060   14.5705   -5.9896 C   0  0  0  0  0  0  0  0  0  0  0  0
   -5.6528   14.0066  -14.2746 O   0  0  0  0  0  0  0  0  0  0  0  0
   -5.5002   11.5939  -10.3317 H   0  0  0  0  0  0  0  0  0  0  0  0
   -7.0066   12.5435  -10.0954 H   0  0  0  0  0  0  0  0  0  0  0  0
   -8.1361   10.1224  -13.9137 H   0  0  0  0  0  0  0  0  0  0  0  0
   -6.7956   12.2399  -14.0855 H   0  0  0  0  0  0  0  0  0  0  0  0
   -8.9253    8.2413  -11.9049 H   0  0  0  0  0  0  0  0  0  0  0  0
   -8.0279    9.5798   -7.2599 H   0  0  0  0  0  0  0  0  0  0  0  0
   -4.2429   16.0373  -13.8548 H   0  0  0  0  0  0  0  0  0  0  0  0
   -4.9638   16.2086  -12.2185 H   0  0  0  0  0  0  0  0  0  0  0  0
   -3.4785   15.2246  -12.4471 H   0  0  0  0  0  0  0  0  0  0  0  0
   -6.7526   12.3233   -6.9261 H   0  0  0  0  0  0  0  0  0  0  0  0
   -4.5246   13.2972   -6.4815 H   0  0  0  0  0  0  0  0  0  0  0  0
   -2.6730    9.7536   -8.0506 H   0  0  0  0  0  0  0  0  0  0  0  0
   -4.8993    8.7846   -8.4743 H   0  0  0  0  0  0  0  0  0  0  0  0
   -2.1167   14.2081   -7.1655 H   0  0  0  0  0  0  0  0  0  0  0  0
   -2.1807   13.5768   -5.4850 H   0  0  0  0  0  0  0  0  0  0  0  0
   -0.6614   10.5729   -7.5868 H   0  0  0  0  0  0  0  0  0  0  0  0
    1.4672   14.2904   -6.0634 H   0  0  0  0  0  0  0  0  0  0  0  0
    0.2117   15.4427   -6.6311 H   0  0  0  0  0  0  0  0  0  0  0  0
    0.1649   14.8218   -4.9462 H   0  0  0  0  0  0  0  0  0  0  0  0
  1  2  1  0  0  0  0
  1  4  1  0  0  0  0
  1 13  2  0  0  0  0
  2  6  1  0  0  0  0
  3  4  2  0  0  0  0
  3  5  1  0  0  0  0
  5  6  2  0  0  0  0
  5  9  1  0  0  0  0
  6  7  1  0  0  0  0
  7  8  2  0  0  0  0
  7 10  1  0  0  0  0
  8  9  1  0  0  0  0
 10 14  2  0  0  0  0
 11 12  1  0  0  0  0
 11 13  1  0  0  0  0
 11 26  2  0  0  0  0
 14 15  1  0  0  0  0
 14 19  1  0  0  0  0
 15 16  2  0  0  0  0
 16 17  1  0  0  0  0
 17 18  1  0  0  0  0
 17 20  2  0  0  0  0
 18 19  2  0  0  0  0
 20 21  1  0  0  0  0
 20 24  1  0  0  0  0
 21 22  1  0  0  0  0
 22 23  1  0  0  0  0
 22 25  1  0  0  0  0
 23 24  2  0  0  0  0
  2 27  1  0  0  0  0
  2 28  1  0  0  0  0
  3 29  1  0  0  0  0
  4 30  1  0  0  0  0
  9 31  1  0  0  0  0
 10 32  1  0  0  0  0
 12 33  1  0  0  0  0
 12 34  1  0  0  0  0
 12 35  1  0  0  0  0
 15 36  1  0  0  0  0
 16 37  1  0  0  0  0
 18 38  1  0  0  0  0
 19 39  1  0  0  0  0
 21 40  1  0  0  0  0
 21 41  1  0  0  0  0
 24 42  1  0  0  0  0
 25 43  1  0  0  0  0
 25 44  1  0  0  0  0
 25 45  1  0  0  0  0
M  END
> <Name>
24

> <IC50[uM]>
0.029

$$$$
24
  -OEChem-05192314333D
 Structure written by MMmdl.
 45 48  0     1  0  0  0  0  0999 V2000
   -6.3515   12.3530  -11.9813 C   0  0  0  0  0  0  0  0  0  0  0  0
   -6.5085   11.7912  -10.7247 C   0  0  0  0  0  0  0  0  0  0  0  0
   -7.6802   10.5716  -13.0438 C   0  0  0  0  0  0  0  0  0  0  0  0
   -6.9296   11.7657  -13.1245 C   0  0  0  0  0  0  0  0  0  0  0  0
   -7.7980   10.0044  -11.7669 C   0  0  0  0  0  0  0  0  0  0  0  0
   -7.2328   10.6109  -10.5989 C   0  0  0  0  0  0  0  0  0  0  0  0
   -7.6209    9.7375   -9.5162 C   0  0  0  0  0  0  0  0  0  0  0  0
   -8.2754    8.7446   -9.9970 N   0  0  0  0  0  0  0  0  0  0  0  0
   -8.4233    8.8800  -11.3218 N   0  0  0  0  0  0  0  0  0  0  0  0
   -7.3328    9.8812   -8.0296 C   0  0  0  0  0  0  0  0  0  0  0  0
   -5.3004   14.2773  -13.1499 C   0  0  0  0  0  0  0  0  0  0  0  0
   -4.4346   15.5261  -12.8998 C   0  0  0  0  0  0  0  0  0  0  0  0
   -5.5896   13.5586  -12.0343 N   0  0  0  0  0  0  0  0  0  0  0  0
   -5.9706   10.4906   -7.7317 C   0  0  0  0  0  0  0  0  0  0  0  0
   -5.8616   11.7632   -7.1684 C   0  0  0  0  0  0  0  0  0  0  0  0
   -4.6051   12.3126   -6.9180 C   0  0  0  0  0  0  0  0  0  0  0  0
   -3.4544   11.5948   -7.2294 C   0  0  0  0  0  0  0  0  0  0  0  0
   -3.5626   10.3128   -7.8011 C   0  0  0  0  0  0  0  0  0  0  0  0
   -4.8160    9.7710   -8.0425 C   0  0  0  0  0  0  0  0  0  0  0  0
   -2.1083   12.1736   -6.9694 C   0  0  0  0  0  0  0  0  0  0  0  0
   -1.7503   13.4247   -6.4858 C   0  0  0  0  0  0  0  0  0  0  0  0
   -0.4131   13.4674   -6.4189 N   0  0  3  0  0  0  0  0  0  0  0  0
    0.1758   12.3735   -6.8057 N   0  0  0  0  0  0  0  0  0  0  0  0
   -0.8094   11.5620   -7.1791 C   0  0  0  0  0  0  0  0  0  0  0  0
    0.4060   14.5705   -5.9896 C   0  0  0  0  0  0  0  0  0  0  0  0
   -5.6528   14.0066  -14.2746 O   0  0  0  0  0  0  0  0  0  0  0  0
   -6.0747   12.2631   -9.8555 H   0  0  0  0  0  0  0  0  0  0  0  0
   -8.1361   10.1224  -13.9137 H   0  0  0  0  0  0  0  0  0  0  0  0
   -6.7956   12.2399  -14.0855 H   0  0  0  0  0  0  0  0  0  0  0  0
   -8.6258    7.9778   -9.4591 H   0  0  0  0  0  0  0  0  0  0  0  0
   -8.0279    9.5798   -7.2599 H   0  0  0  0  0  0  0  0  0  0  0  0
   -4.2429   16.0373  -13.8548 H   0  0  0  0  0  0  0  0  0  0  0  0
   -4.9638   16.2086  -12.2185 H   0  0  0  0  0  0  0  0  0  0  0  0
   -3.4785   15.2246  -12.4471 H   0  0  0  0  0  0  0  0  0  0  0  0
   -6.7526   12.3233   -6.9261 H   0  0  0  0  0  0  0  0  0  0  0  0
   -4.5246   13.2972   -6.4815 H   0  0  0  0  0  0  0  0  0  0  0  0
   -2.6730    9.7536   -8.0506 H   0  0  0  0  0  0  0  0  0  0  0  0
   -4.8993    8.7846   -8.4743 H   0  0  0  0  0  0  0  0  0  0  0  0
   -2.4278   14.2202   -6.2127 H   0  0  0  0  0  0  0  0  0  0  0  0
    0.7889   12.5578   -7.5739 H   0  0  0  0  0  0  0  0  0  0  0  0
   -0.7515   10.6346   -6.5905 H   0  0  0  0  0  0  0  0  0  0  0  0
   -0.6933   11.3262   -8.2472 H   0  0  0  0  0  0  0  0  0  0  0  0
    1.4668   14.2860   -6.0513 H   0  0  0  0  0  0  0  0  0  0  0  0
    0.2210   15.4389   -6.6390 H   0  0  0  0  0  0  0  0  0  0  0  0
    0.1560   14.8300   -4.9503 H   0  0  0  0  0  0  0  0  0  0  0  0
  1  2  1  0  0  0  0
  1  4  1  0  0  0  0
  1 13  2  0  0  0  0
  2  6  2  0  0  0  0
  3  4  2  0  0  0  0
  3  5  1  0  0  0  0
  5  6  1  0  0  0  0
  5  9  2  0  0  0  0
  6  7  1  0  0  0  0
  7  8  1  0  0  0  0
  7 10  2  3  0  0  0
  8  9  1  0  0  0  0
 10 14  1  0  0  0  0
 11 12  1  0  0  0  0
 11 13  1  0  0  0  0
 11 26  2  0  0  0  0
 14 15  2  0  0  0  0
 14 19  1  0  0  0  0
 15 16  1  0  0  0  0
 16 17  2  0  0  0  0
 17 18  1  0  0  0  0
 17 20  1  0  0  0  0
 18 19  2  0  0  0  0
 20 21  2  0  0  0  0
 20 24  1  0  0  0  0
 21 22  1  0  0  0  0
 22 23  1  0  0  0  0
 22 25  1  0  0  0  0
 23 24  1  0  0  0  0
  2 27  1  0  0  0  0
  3 28  1  0  0  0  0
  4 29  1  0  0  0  0
  8 30  1  0  0  0  0
 10 31  1  0  0  0  0
 12 32  1  0  0  0  0
 12 33  1  0  0  0  0
 12 34  1  0  0  0  0
 15 35  1  0  0  0  0
 16 36  1  0  0  0  0
 18 37  1  0  0  0  0
 19 38  1  0  0  0  0
 21 39  1  0  0  0  0
 23 40  1  0  0  0  0
 24 41  1  0  0  0  0
 24 42  1  0  0  0  0
 25 43  1  0  0  0  0
 25 44  1  0  0  0  0
 25 45  1  0  0  0  0
M  END
> <Name>
24

> <IC50[uM]>
0.029

$$$$
24
  -OEChem-05192314333D
 Structure written by MMmdl.
 45 48  0     1  0  0  0  0  0999 V2000
   -6.3515   12.3530  -11.9813 C   0  0  0  0  0  0  0  0  0  0  0  0
   -6.5085   11.7912  -10.7247 C   0  0  0  0  0  0  0  0  0  0  0  0
   -7.6802   10.5716  -13.0438 C   0  0  0  0  0  0  0  0  0  0  0  0
   -6.9296   11.7657  -13.1245 C   0  0  0  0  0  0  0  0  0  0  0  0
   -7.7980   10.0044  -11.7669 C   0  0  0  0  0  0  0  0  0  0  0  0
   -7.2328   10.6109  -10.5989 C   0  0  0  0  0  0  0  0  0  0  0  0
   -7.6209    9.7375   -9.5162 C   0  0  0  0  0  0  0  0  0  0  0  0
   -8.2754    8.7446   -9.9970 N   0  0  0  0  0  0  0  0  0  0  0  0
   -8.4233    8.8800  -11.3218 N   0  0  0  0  0  0  0  0  0  0  0  0
   -7.3328    9.8812   -8.0296 C   0  0  0  0  0  0  0  0  0  0  0  0
   -5.3004   14.2773  -13.1499 C   0  0  0  0  0  0  0  0  0  0  0  0
   -4.4346   15.5261  -12.8998 C   0  0  0  0  0  0  0  0  0  0  0  0
   -5.5896   13.5586  -12.0343 N   0  0  0  0  0  0  0  0  0  0  0  0
   -5.9706   10.4906   -7.7317 C   0  0  0  0  0  0  0  0  0  0  0  0
   -5.8616   11.7632   -7.1684 C   0  0  0  0  0  0  0  0  0  0  0  0
   -4.6051   12.3126   -6.9180 C   0  0  0  0  0  0  0  0  0  0  0  0
   -3.4544   11.5948   -7.2294 C   0  0  0  0  0  0  0  0  0  0  0  0
   -3.5626   10.3128   -7.8011 C   0  0  0  0  0  0  0  0  0  0  0  0
   -4.8160    9.7710   -8.0425 C   0  0  0  0  0  0  0  0  0  0  0  0
   -2.1083   12.1736   -6.9694 C   0  0  0  0  0  0  0  0  0  0  0  0
   -1.7503   13.4247   -6.4858 C   0  0  0  0  0  0  0  0  0  0  0  0
   -0.4131   13.4674   -6.4189 N   0  0  3  0  0  0  0  0  0  0  0  0
    0.1758   12.3735   -6.8057 N   0  0  0  0  0  0  0  0  0  0  0  0
   -0.8094   11.5620   -7.1791 C   0  0  0  0  0  0  0  0  0  0  0  0
    0.4060   14.5705   -5.9896 C   0  0  0  0  0  0  0  0  0  0  0  0
   -5.6528   14.0066  -14.2746 O   0  0  0  0  0  0  0  0  0  0  0  0
   -6.0747   12.2631   -9.8555 H   0  0  0  0  0  0  0  0  0  0  0  0
   -8.1361   10.1224  -13.9137 H   0  0  0  0  0  0  0  0  0  0  0  0
   -6.7956   12.2399  -14.0855 H   0  0  0  0  0  0  0  0  0  0  0  0
   -8.6258    7.9778   -9.4591 H   0  0  0  0  0  0  0  0  0  0  0  0
   -8.0279    9.5798   -7.2599 H   0  0  0  0  0  0  0  0  0  0  0  0
   -4.2429   16.0373  -13.8548 H   0  0  0  0  0  0  0  0  0  0  0  0
   -4.9638   16.2086  -12.2185 H   0  0  0  0  0  0  0  0  0  0  0  0
   -3.4785   15.2246  -12.4471 H   0  0  0  0  0  0  0  0  0  0  0  0
   -6.7526   12.3233   -6.9261 H   0  0  0  0  0  0  0  0  0  0  0  0
   -4.5246   13.2972   -6.4815 H   0  0  0  0  0  0  0  0  0  0  0  0
   -2.6730    9.7536   -8.0506 H   0  0  0  0  0  0  0  0  0  0  0  0
   -4.8993    8.7846   -8.4743 H   0  0  0  0  0  0  0  0  0  0  0  0
   -2.1167   14.2081   -7.1655 H   0  0  0  0  0  0  0  0  0  0  0  0
   -2.1807   13.5768   -5.4850 H   0  0  0  0  0  0  0  0  0  0  0  0
    0.7889   12.5578   -7.5739 H   0  0  0  0  0  0  0  0  0  0  0  0
   -0.6614   10.5729   -7.5868 H   0  0  0  0  0  0  0  0  0  0  0  0
    1.4668   14.2860   -6.0513 H   0  0  0  0  0  0  0  0  0  0  0  0
    0.2210   15.4389   -6.6390 H   0  0  0  0  0  0  0  0  0  0  0  0
    0.1560   14.8300   -4.9503 H   0  0  0  0  0  0  0  0  0  0  0  0
  1  2  1  0  0  0  0
  1  4  1  0  0  0  0
  1 13  2  0  0  0  0
  2  6  2  0  0  0  0
  3  4  2  0  0  0  0
  3  5  1  0  0  0  0
  5  6  1  0  0  0  0
  5  9  2  0  0  0  0
  6  7  1  0  0  0  0
  7  8  1  0  0  0  0
  7 10  2  3  0  0  0
  8  9  1  0  0  0  0
 10 14  1  0  0  0  0
 11 12  1  0  0  0  0
 11 13  1  0  0  0  0
 11 26  2  0  0  0  0
 14 15  2  0  0  0  0
 14 19  1  0  0  0  0
 15 16  1  0  0  0  0
 16 17  2  0  0  0  0
 17 18  1  0  0  0  0
 17 20  1  0  0  0  0
 18 19  2  0  0  0  0
 20 21  1  0  0  0  0
 20 24  2  0  0  0  0
 21 22  1  0  0  0  0
 22 23  1  0  0  0  0
 22 25  1  0  0  0  0
 23 24  1  0  0  0  0
  2 27  1  0  0  0  0
  3 28  1  0  0  0  0
  4 29  1  0  0  0  0
  8 30  1  0  0  0  0
 10 31  1  0  0  0  0
 12 32  1  0  0  0  0
 12 33  1  0  0  0  0
 12 34  1  0  0  0  0
 15 35  1  0  0  0  0
 16 36  1  0  0  0  0
 18 37  1  0  0  0  0
 19 38  1  0  0  0  0
 21 39  1  0  0  0  0
 21 40  1  0  0  0  0
 23 41  1  0  0  0  0
 24 42  1  0  0  0  0
 25 43  1  0  0  0  0
 25 44  1  0  0  0  0
 25 45  1  0  0  0  0
M  END
> <Name>
24

> <IC50[uM]>
0.029

$$$$
24
  -OEChem-05192314333D
 Structure written by MMmdl.
 45 48  0     1  0  0  0  0  0999 V2000
   -6.3515   12.3530  -11.9813 C   0  0  0  0  0  0  0  0  0  0  0  0
   -6.5085   11.7912  -10.7247 C   0  0  0  0  0  0  0  0  0  0  0  0
   -7.6802   10.5716  -13.0438 C   0  0  0  0  0  0  0  0  0  0  0  0
   -6.9296   11.7657  -13.1245 C   0  0  0  0  0  0  0  0  0  0  0  0
   -7.7980   10.0044  -11.7669 C   0  0  0  0  0  0  0  0  0  0  0  0
   -7.2328   10.6109  -10.5989 C   0  0  0  0  0  0  0  0  0  0  0  0
   -7.6209    9.7375   -9.5162 C   0  0  0  0  0  0  0  0  0  0  0  0
   -8.2754    8.7446   -9.9970 N   0  0  0  0  0  0  0  0  0  0  0  0
   -8.4233    8.8800  -11.3218 N   0  0  0  0  0  0  0  0  0  0  0  0
   -7.3328    9.8812   -8.0296 C   0  0  0  0  0  0  0  0  0  0  0  0
   -5.3004   14.2773  -13.1499 C   0  0  0  0  0  0  0  0  0  0  0  0
   -4.4346   15.5261  -12.8998 C   0  0  0  0  0  0  0  0  0  0  0  0
   -5.5896   13.5586  -12.0343 N   0  0  0  0  0  0  0  0  0  0  0  0
   -5.9706   10.4906   -7.7317 C   0  0  0  0  0  0  0  0  0  0  0  0
   -5.8616   11.7632   -7.1684 C   0  0  0  0  0  0  0  0  0  0  0  0
   -4.6051   12.3126   -6.9180 C   0  0  0  0  0  0  0  0  0  0  0  0
   -3.4544   11.5948   -7.2294 C   0  0  0  0  0  0  0  0  0  0  0  0
   -3.5626   10.3128   -7.8011 C   0  0  0  0  0  0  0  0  0  0  0  0
   -4.8160    9.7710   -8.0425 C   0  0  0  0  0  0  0  0  0  0  0  0
   -2.1083   12.1736   -6.9694 C   0  0  0  0  0  0  0  0  0  0  0  0
   -1.7503   13.4247   -6.4858 C   0  0  0  0  0  0  0  0  0  0  0  0
   -0.4131   13.4674   -6.4189 N   0  0  3  0  0  0  0  0  0  0  0  0
    0.1758   12.3735   -6.8057 N   0  0  0  0  0  0  0  0  0  0  0  0
   -0.8094   11.5620   -7.1791 C   0  0  0  0  0  0  0  0  0  0  0  0
    0.4060   14.5705   -5.9896 C   0  0  0  0  0  0  0  0  0  0  0  0
   -5.6528   14.0066  -14.2746 O   0  0  0  0  0  0  0  0  0  0  0  0
   -6.0747   12.2631   -9.8555 H   0  0  0  0  0  0  0  0  0  0  0  0
   -8.1361   10.1224  -13.9137 H   0  0  0  0  0  0  0  0  0  0  0  0
   -7.5989   12.5237  -13.5575 H   0  0  0  0  0  0  0  0  0  0  0  0
   -6.1027   11.5654  -13.8217 H   0  0  0  0  0  0  0  0  0  0  0  0
   -8.9253    8.2413  -11.9049 H   0  0  0  0  0  0  0  0  0  0  0  0
   -8.0279    9.5798   -7.2599 H   0  0  0  0  0  0  0  0  0  0  0  0
   -4.2429   16.0373  -13.8548 H   0  0  0  0  0  0  0  0  0  0  0  0
   -4.9638   16.2086  -12.2185 H   0  0  0  0  0  0  0  0  0  0  0  0
   -3.4785   15.2246  -12.4471 H   0  0  0  0  0  0  0  0  0  0  0  0
   -6.7526   12.3233   -6.9261 H   0  0  0  0  0  0  0  0  0  0  0  0
   -4.5246   13.2972   -6.4815 H   0  0  0  0  0  0  0  0  0  0  0  0
   -2.6730    9.7536   -8.0506 H   0  0  0  0  0  0  0  0  0  0  0  0
   -4.8993    8.7846   -8.4743 H   0  0  0  0  0  0  0  0  0  0  0  0
   -2.1167   14.2081   -7.1655 H   0  0  0  0  0  0  0  0  0  0  0  0
   -2.1807   13.5768   -5.4850 H   0  0  0  0  0  0  0  0  0  0  0  0
   -0.6614   10.5729   -7.5868 H   0  0  0  0  0  0  0  0  0  0  0  0
    1.4672   14.2904   -6.0634 H   0  0  0  0  0  0  0  0  0  0  0  0
    0.2117   15.4427   -6.6311 H   0  0  0  0  0  0  0  0  0  0  0  0
    0.1649   14.8218   -4.9462 H   0  0  0  0  0  0  0  0  0  0  0  0
  1  2  1  0  0  0  0
  1  4  1  0  0  0  0
  1 13  2  0  0  0  0
  2  6  2  0  0  0  0
  3  4  1  0  0  0  0
  3  5  2  0  0  0  0
  5  6  1  0  0  0  0
  5  9  1  0  0  0  0
  6  7  1  0  0  0  0
  7  8  2  0  0  0  0
  7 10  1  0  0  0  0
  8  9  1  0  0  0  0
 10 14  2  0  0  0  0
 11 12  1  0  0  0  0
 11 13  1  0  0  0  0
 11 26  2  0  0  0  0
 14 15  1  0  0  0  0
 14 19  1  0  0  0  0
 15 16  2  0  0  0  0
 16 17  1  0  0  0  0
 17 18  1  0  0  0  0
 17 20  2  0  0  0  0
 18 19  2  0  0  0  0
 20 21  1  0  0  0  0
 20 24  1  0  0  0  0
 21 22  1  0  0  0  0
 22 23  1  0  0  0  0
 22 25  1  0  0  0  0
 23 24  2  0  0  0  0
  2 27  1  0  0  0  0
  3 28  1  0  0  0  0
  4 29  1  0  0  0  0
  4 30  1  0  0  0  0
  9 31  1  0  0  0  0
 10 32  1  0  0  0  0
 12 33  1  0  0  0  0
 12 34  1  0  0  0  0
 12 35  1  0  0  0  0
 15 36  1  0  0  0  0
 16 37  1  0  0  0  0
 18 38  1  0  0  0  0
 19 39  1  0  0  0  0
 21 40  1  0  0  0  0
 21 41  1  0  0  0  0
 24 42  1  0  0  0  0
 25 43  1  0  0  0  0
 25 44  1  0  0  0  0
 25 45  1  0  0  0  0
M  END
> <Name>
24

> <IC50[uM]>
0.029

$$$$
24
  -OEChem-05192314333D
 Structure written by MMmdl.
 45 48  0     0  0  0  0  0  0999 V2000
   -6.3515   12.3530  -11.9813 C   0  0  0  0  0  0  0  0  0  0  0  0
   -6.5085   11.7912  -10.7247 C   0  0  0  0  0  0  0  0  0  0  0  0
   -7.6802   10.5716  -13.0438 C   0  0  0  0  0  0  0  0  0  0  0  0
   -6.9296   11.7657  -13.1245 C   0  0  0  0  0  0  0  0  0  0  0  0
   -7.7980   10.0044  -11.7669 C   0  0  0  0  0  0  0  0  0  0  0  0
   -7.2328   10.6109  -10.5989 C   0  0  0  0  0  0  0  0  0  0  0  0
   -7.6209    9.7375   -9.5162 C   0  0  0  0  0  0  0  0  0  0  0  0
   -8.2754    8.7446   -9.9970 N   0  0  0  0  0  0  0  0  0  0  0  0
   -8.4233    8.8800  -11.3218 N   0  0  0  0  0  0  0  0  0  0  0  0
   -7.3328    9.8812   -8.0296 C   0  0  0  0  0  0  0  0  0  0  0  0
   -5.3004   14.2773  -13.1499 C   0  0  0  0  0  0  0  0  0  0  0  0
   -4.4346   15.5261  -12.8998 C   0  0  0  0  0  0  0  0  0  0  0  0
   -5.5896   13.5586  -12.0343 N   0  0  0  0  0  0  0  0  0  0  0  0
   -5.9706   10.4906   -7.7317 C   0  0  0  0  0  0  0  0  0  0  0  0
   -5.8616   11.7632   -7.1684 C   0  0  0  0  0  0  0  0  0  0  0  0
   -4.6051   12.3126   -6.9180 C   0  0  0  0  0  0  0  0  0  0  0  0
   -3.4544   11.5948   -7.2294 C   0  0  0  0  0  0  0  0  0  0  0  0
   -3.5626   10.3128   -7.8011 C   0  0  0  0  0  0  0  0  0  0  0  0
   -4.8160    9.7710   -8.0425 C   0  0  0  0  0  0  0  0  0  0  0  0
   -2.1083   12.1736   -6.9694 C   0  0  0  0  0  0  0  0  0  0  0  0
   -1.7503   13.4247   -6.4858 C   0  0  0  0  0  0  0  0  0  0  0  0
   -0.4131   13.4674   -6.4189 N   0  0  0  0  0  0  0  0  0  0  0  0
    0.1758   12.3735   -6.8057 N   0  0  0  0  0  0  0  0  0  0  0  0
   -0.8094   11.5620   -7.1791 C   0  0  0  0  0  0  0  0  0  0  0  0
    0.4060   14.5705   -5.9896 C   0  0  0  0  0  0  0  0  0  0  0  0
   -5.6528   14.0066  -14.2746 O   0  0  0  0  0  0  0  0  0  0  0  0
   -5.5002   11.5939  -10.3317 H   0  0  0  0  0  0  0  0  0  0  0  0
   -7.0066   12.5435  -10.0954 H   0  0  0  0  0  0  0  0  0  0  0  0
   -8.1361   10.1224  -13.9137 H   0  0  0  0  0  0  0  0  0  0  0  0
   -6.7956   12.2399  -14.0855 H   0  0  0  0  0  0  0  0  0  0  0  0
   -8.6258    7.9778   -9.4591 H   0  0  0  0  0  0  0  0  0  0  0  0
   -8.0279    9.5798   -7.2599 H   0  0  0  0  0  0  0  0  0  0  0  0
   -4.2429   16.0373  -13.8548 H   0  0  0  0  0  0  0  0  0  0  0  0
   -4.9638   16.2086  -12.2185 H   0  0  0  0  0  0  0  0  0  0  0  0
   -3.4785   15.2246  -12.4471 H   0  0  0  0  0  0  0  0  0  0  0  0
   -6.7526   12.3233   -6.9261 H   0  0  0  0  0  0  0  0  0  0  0  0
   -4.5246   13.2972   -6.4815 H   0  0  0  0  0  0  0  0  0  0  0  0
   -3.4585   11.1486   -6.2240 H   0  0  0  0  0  0  0  0  0  0  0  0
   -2.6730    9.7536   -8.0506 H   0  0  0  0  0  0  0  0  0  0  0  0
   -4.8993    8.7846   -8.4743 H   0  0  0  0  0  0  0  0  0  0  0  0
   -2.4278   14.2202   -6.2127 H   0  0  0  0  0  0  0  0  0  0  0  0
   -0.6614   10.5729   -7.5868 H   0  0  0  0  0  0  0  0  0  0  0  0
    1.4672   14.2904   -6.0634 H   0  0  0  0  0  0  0  0  0  0  0  0
    0.2117   15.4427   -6.6311 H   0  0  0  0  0  0  0  0  0  0  0  0
    0.1649   14.8218   -4.9462 H   0  0  0  0  0  0  0  0  0  0  0  0
  1  2  1  0  0  0  0
  1  4  1  0  0  0  0
  1 13  2  0  0  0  0
  2  6  1  0  0  0  0
  3  4  2  0  0  0  0
  3  5  1  0  0  0  0
  5  6  1  0  0  0  0
  5  9  2  0  0  0  0
  6  7  2  0  0  0  0
  7  8  1  0  0  0  0
  7 10  1  0  0  0  0
  8  9  1  0  0  0  0
 10 14  2  0  0  0  0
 11 12  1  0  0  0  0
 11 13  1  0  0  0  0
 11 26  2  0  0  0  0
 14 15  1  0  0  0  0
 14 19  1  0  0  0  0
 15 16  2  0  0  0  0
 16 17  1  0  0  0  0
 17 18  1  0  0  0  0
 17 20  1  0  0  0  0
 18 19  2  0  0  0  0
 20 21  2  0  0  0  0
 20 24  1  0  0  0  0
 21 22  1  0  0  0  0
 22 23  1  0  0  0  0
 22 25  1  0  0  0  0
 23 24  2  0  0  0  0
  2 27  1  0  0  0  0
  2 28  1  0  0  0  0
  3 29  1  0  0  0  0
  4 30  1  0  0  0  0
  8 31  1  0  0  0  0
 10 32  1  0  0  0  0
 12 33  1  0  0  0  0
 12 34  1  0  0  0  0
 12 35  1  0  0  0  0
 15 36  1  0  0  0  0
 16 37  1  0  0  0  0
 17 38  1  0  0  0  0
 18 39  1  0  0  0  0
 19 40  1  0  0  0  0
 21 41  1  0  0  0  0
 24 42  1  0  0  0  0
 25 43  1  0  0  0  0
 25 44  1  0  0  0  0
 25 45  1  0  0  0  0
M  END
> <Name>
24

> <IC50[uM]>
0.029

$$$$
24
  -OEChem-05192314333D
 Structure written by MMmdl.
 45 48  0     0  0  0  0  0  0999 V2000
   -6.3515   12.3530  -11.9813 C   0  0  0  0  0  0  0  0  0  0  0  0
   -6.5085   11.7912  -10.7247 C   0  0  0  0  0  0  0  0  0  0  0  0
   -7.6802   10.5716  -13.0438 C   0  0  0  0  0  0  0  0  0  0  0  0
   -6.9296   11.7657  -13.1245 C   0  0  0  0  0  0  0  0  0  0  0  0
   -7.7980   10.0044  -11.7669 C   0  0  0  0  0  0  0  0  0  0  0  0
   -7.2328   10.6109  -10.5989 C   0  0  0  0  0  0  0  0  0  0  0  0
   -7.6209    9.7375   -9.5162 C   0  0  0  0  0  0  0  0  0  0  0  0
   -8.2754    8.7446   -9.9970 N   0  0  0  0  0  0  0  0  0  0  0  0
   -8.4233    8.8800  -11.3218 N   0  0  0  0  0  0  0  0  0  0  0  0
   -7.3328    9.8812   -8.0296 C   0  0  0  0  0  0  0  0  0  0  0  0
   -5.3004   14.2773  -13.1499 C   0  0  0  0  0  0  0  0  0  0  0  0
   -4.4346   15.5261  -12.8998 C   0  0  0  0  0  0  0  0  0  0  0  0
   -5.5896   13.5586  -12.0343 N   0  0  0  0  0  0  0  0  0  0  0  0
   -5.9706   10.4906   -7.7317 C   0  0  0  0  0  0  0  0  0  0  0  0
   -5.8616   11.7632   -7.1684 C   0  0  0  0  0  0  0  0  0  0  0  0
   -4.6051   12.3126   -6.9180 C   0  0  0  0  0  0  0  0  0  0  0  0
   -3.4544   11.5948   -7.2294 C   0  0  0  0  0  0  0  0  0  0  0  0
   -3.5626   10.3128   -7.8011 C   0  0  0  0  0  0  0  0  0  0  0  0
   -4.8160    9.7710   -8.0425 C   0  0  0  0  0  0  0  0  0  0  0  0
   -2.1083   12.1736   -6.9694 C   0  0  0  0  0  0  0  0  0  0  0  0
   -1.7503   13.4247   -6.4858 C   0  0  0  0  0  0  0  0  0  0  0  0
   -0.4131   13.4674   -6.4189 N   0  0  0  0  0  0  0  0  0  0  0  0
    0.1758   12.3735   -6.8057 N   0  0  0  0  0  0  0  0  0  0  0  0
   -0.8094   11.5620   -7.1791 C   0  0  0  0  0  0  0  0  0  0  0  0
    0.4060   14.5705   -5.9896 C   0  0  0  0  0  0  0  0  0  0  0  0
   -5.6528   14.0066  -14.2746 O   0  0  0  0  0  0  0  0  0  0  0  0
   -5.5002   11.5939  -10.3317 H   0  0  0  0  0  0  0  0  0  0  0  0
   -7.0066   12.5435  -10.0954 H   0  0  0  0  0  0  0  0  0  0  0  0
   -8.1361   10.1224  -13.9137 H   0  0  0  0  0  0  0  0  0  0  0  0
   -6.7956   12.2399  -14.0855 H   0  0  0  0  0  0  0  0  0  0  0  0
   -8.9253    8.2413  -11.9049 H   0  0  0  0  0  0  0  0  0  0  0  0
   -8.0279    9.5798   -7.2599 H   0  0  0  0  0  0  0  0  0  0  0  0
   -4.2429   16.0373  -13.8548 H   0  0  0  0  0  0  0  0  0  0  0  0
   -4.9638   16.2086  -12.2185 H   0  0  0  0  0  0  0  0  0  0  0  0
   -3.4785   15.2246  -12.4471 H   0  0  0  0  0  0  0  0  0  0  0  0
   -6.7526   12.3233   -6.9261 H   0  0  0  0  0  0  0  0  0  0  0  0
   -4.5246   13.2972   -6.4815 H   0  0  0  0  0  0  0  0  0  0  0  0
   -3.4585   11.1486   -6.2240 H   0  0  0  0  0  0  0  0  0  0  0  0
   -2.6730    9.7536   -8.0506 H   0  0  0  0  0  0  0  0  0  0  0  0
   -4.8993    8.7846   -8.4743 H   0  0  0  0  0  0  0  0  0  0  0  0
   -2.4278   14.2202   -6.2127 H   0  0  0  0  0  0  0  0  0  0  0  0
   -0.6614   10.5729   -7.5868 H   0  0  0  0  0  0  0  0  0  0  0  0
    1.4672   14.2904   -6.0634 H   0  0  0  0  0  0  0  0  0  0  0  0
    0.2117   15.4427   -6.6311 H   0  0  0  0  0  0  0  0  0  0  0  0
    0.1649   14.8218   -4.9462 H   0  0  0  0  0  0  0  0  0  0  0  0
  1  2  1  0  0  0  0
  1  4  1  0  0  0  0
  1 13  2  0  0  0  0
  2  6  1  0  0  0  0
  3  4  2  0  0  0  0
  3  5  1  0  0  0  0
  5  6  2  0  0  0  0
  5  9  1  0  0  0  0
  6  7  1  0  0  0  0
  7  8  2  0  0  0  0
  7 10  1  0  0  0  0
  8  9  1  0  0  0  0
 10 14  2  0  0  0  0
 11 12  1  0  0  0  0
 11 13  1  0  0  0  0
 11 26  2  0  0  0  0
 14 15  1  0  0  0  0
 14 19  1  0  0  0  0
 15 16  2  0  0  0  0
 16 17  1  0  0  0  0
 17 18  1  0  0  0  0
 17 20  1  0  0  0  0
 18 19  2  0  0  0  0
 20 21  2  0  0  0  0
 20 24  1  0  0  0  0
 21 22  1  0  0  0  0
 22 23  1  0  0  0  0
 22 25  1  0  0  0  0
 23 24  2  0  0  0  0
  2 27  1  0  0  0  0
  2 28  1  0  0  0  0
  3 29  1  0  0  0  0
  4 30  1  0  0  0  0
  9 31  1  0  0  0  0
 10 32  1  0  0  0  0
 12 33  1  0  0  0  0
 12 34  1  0  0  0  0
 12 35  1  0  0  0  0
 15 36  1  0  0  0  0
 16 37  1  0  0  0  0
 17 38  1  0  0  0  0
 18 39  1  0  0  0  0
 19 40  1  0  0  0  0
 21 41  1  0  0  0  0
 24 42  1  0  0  0  0
 25 43  1  0  0  0  0
 25 44  1  0  0  0  0
 25 45  1  0  0  0  0
M  END
> <Name>
24

> <IC50[uM]>
0.029

$$$$
24
  -OEChem-05192314333D
 Structure written by MMmdl.
 45 48  0     0  0  0  0  0  0999 V2000
   -6.3515   12.3530  -11.9813 C   0  0  0  0  0  0  0  0  0  0  0  0
   -6.5085   11.7912  -10.7247 C   0  0  0  0  0  0  0  0  0  0  0  0
   -7.6802   10.5716  -13.0438 C   0  0  0  0  0  0  0  0  0  0  0  0
   -6.9296   11.7657  -13.1245 C   0  0  0  0  0  0  0  0  0  0  0  0
   -7.7980   10.0044  -11.7669 C   0  0  0  0  0  0  0  0  0  0  0  0
   -7.2328   10.6109  -10.5989 C   0  0  0  0  0  0  0  0  0  0  0  0
   -7.6209    9.7375   -9.5162 C   0  0  0  0  0  0  0  0  0  0  0  0
   -8.2754    8.7446   -9.9970 N   0  0  0  0  0  0  0  0  0  0  0  0
   -8.4233    8.8800  -11.3218 N   0  0  0  0  0  0  0  0  0  0  0  0
   -7.3328    9.8812   -8.0296 C   0  0  0  0  0  0  0  0  0  0  0  0
   -5.3004   14.2773  -13.1499 C   0  0  0  0  0  0  0  0  0  0  0  0
   -4.4346   15.5261  -12.8998 C   0  0  0  0  0  0  0  0  0  0  0  0
   -5.5896   13.5586  -12.0343 N   0  0  0  0  0  0  0  0  0  0  0  0
   -5.9706   10.4906   -7.7317 C   0  0  0  0  0  0  0  0  0  0  0  0
   -5.8616   11.7632   -7.1684 C   0  0  0  0  0  0  0  0  0  0  0  0
   -4.6051   12.3126   -6.9180 C   0  0  0  0  0  0  0  0  0  0  0  0
   -3.4544   11.5948   -7.2294 C   0  0  0  0  0  0  0  0  0  0  0  0
   -3.5626   10.3128   -7.8011 C   0  0  0  0  0  0  0  0  0  0  0  0
   -4.8160    9.7710   -8.0425 C   0  0  0  0  0  0  0  0  0  0  0  0
   -2.1083   12.1736   -6.9694 C   0  0  0  0  0  0  0  0  0  0  0  0
   -1.7503   13.4247   -6.4858 C   0  0  0  0  0  0  0  0  0  0  0  0
   -0.4131   13.4674   -6.4189 N   0  0  0  0  0  0  0  0  0  0  0  0
    0.1758   12.3735   -6.8057 N   0  0  0  0  0  0  0  0  0  0  0  0
   -0.8094   11.5620   -7.1791 C   0  0  0  0  0  0  0  0  0  0  0  0
    0.4060   14.5705   -5.9896 C   0  0  0  0  0  0  0  0  0  0  0  0
   -5.6528   14.0066  -14.2746 O   0  0  0  0  0  0  0  0  0  0  0  0
   -5.5002   11.5939  -10.3317 H   0  0  0  0  0  0  0  0  0  0  0  0
   -7.0066   12.5435  -10.0954 H   0  0  0  0  0  0  0  0  0  0  0  0
   -8.1361   10.1224  -13.9137 H   0  0  0  0  0  0  0  0  0  0  0  0
   -6.7956   12.2399  -14.0855 H   0  0  0  0  0  0  0  0  0  0  0  0
   -8.6258    7.9778   -9.4591 H   0  0  0  0  0  0  0  0  0  0  0  0
   -8.0279    9.5798   -7.2599 H   0  0  0  0  0  0  0  0  0  0  0  0
   -4.2429   16.0373  -13.8548 H   0  0  0  0  0  0  0  0  0  0  0  0
   -4.9638   16.2086  -12.2185 H   0  0  0  0  0  0  0  0  0  0  0  0
   -3.4785   15.2246  -12.4471 H   0  0  0  0  0  0  0  0  0  0  0  0
   -6.7526   12.3233   -6.9261 H   0  0  0  0  0  0  0  0  0  0  0  0
   -4.5246   13.2972   -6.4815 H   0  0  0  0  0  0  0  0  0  0  0  0
   -2.6730    9.7536   -8.0506 H   0  0  0  0  0  0  0  0  0  0  0  0
   -4.8679    8.8310   -7.4736 H   0  0  0  0  0  0  0  0  0  0  0  0
   -4.8621    9.5509   -9.1193 H   0  0  0  0  0  0  0  0  0  0  0  0
   -2.4278   14.2202   -6.2127 H   0  0  0  0  0  0  0  0  0  0  0  0
   -0.6614   10.5729   -7.5868 H   0  0  0  0  0  0  0  0  0  0  0  0
    1.4672   14.2904   -6.0634 H   0  0  0  0  0  0  0  0  0  0  0  0
    0.2117   15.4427   -6.6311 H   0  0  0  0  0  0  0  0  0  0  0  0
    0.1649   14.8218   -4.9462 H   0  0  0  0  0  0  0  0  0  0  0  0
  1  2  1  0  0  0  0
  1  4  1  0  0  0  0
  1 13  2  0  0  0  0
  2  6  1  0  0  0  0
  3  4  2  0  0  0  0
  3  5  1  0  0  0  0
  5  6  1  0  0  0  0
  5  9  2  0  0  0  0
  6  7  2  0  0  0  0
  7  8  1  0  0  0  0
  7 10  1  0  0  0  0
  8  9  1  0  0  0  0
 10 14  2  3  0  0  0
 11 12  1  0  0  0  0
 11 13  1  0  0  0  0
 11 26  2  0  0  0  0
 14 15  1  0  0  0  0
 14 19  1  0  0  0  0
 15 16  2  0  0  0  0
 16 17  1  0  0  0  0
 17 18  2  0  0  0  0
 17 20  1  0  0  0  0
 18 19  1  0  0  0  0
 20 21  2  0  0  0  0
 20 24  1  0  0  0  0
 21 22  1  0  0  0  0
 22 23  1  0  0  0  0
 22 25  1  0  0  0  0
 23 24  2  0  0  0  0
  2 27  1  0  0  0  0
  2 28  1  0  0  0  0
  3 29  1  0  0  0  0
  4 30  1  0  0  0  0
  8 31  1  0  0  0  0
 10 32  1  0  0  0  0
 12 33  1  0  0  0  0
 12 34  1  0  0  0  0
 12 35  1  0  0  0  0
 15 36  1  0  0  0  0
 16 37  1  0  0  0  0
 18 38  1  0  0  0  0
 19 39  1  0  0  0  0
 19 40  1  0  0  0  0
 21 41  1  0  0  0  0
 24 42  1  0  0  0  0
 25 43  1  0  0  0  0
 25 44  1  0  0  0  0
 25 45  1  0  0  0  0
M  END
> <Name>
24

> <IC50[uM]>
0.029

$$$$
24
  -OEChem-05192314333D
 Structure written by MMmdl.
 45 48  0     0  0  0  0  0  0999 V2000
   -6.3515   12.3530  -11.9813 C   0  0  0  0  0  0  0  0  0  0  0  0
   -6.5085   11.7912  -10.7247 C   0  0  0  0  0  0  0  0  0  0  0  0
   -7.6802   10.5716  -13.0438 C   0  0  0  0  0  0  0  0  0  0  0  0
   -6.9296   11.7657  -13.1245 C   0  0  0  0  0  0  0  0  0  0  0  0
   -7.7980   10.0044  -11.7669 C   0  0  0  0  0  0  0  0  0  0  0  0
   -7.2328   10.6109  -10.5989 C   0  0  0  0  0  0  0  0  0  0  0  0
   -7.6209    9.7375   -9.5162 C   0  0  0  0  0  0  0  0  0  0  0  0
   -8.2754    8.7446   -9.9970 N   0  0  0  0  0  0  0  0  0  0  0  0
   -8.4233    8.8800  -11.3218 N   0  0  0  0  0  0  0  0  0  0  0  0
   -7.3328    9.8812   -8.0296 C   0  0  0  0  0  0  0  0  0  0  0  0
   -5.3004   14.2773  -13.1499 C   0  0  0  0  0  0  0  0  0  0  0  0
   -4.4346   15.5261  -12.8998 C   0  0  0  0  0  0  0  0  0  0  0  0
   -5.5896   13.5586  -12.0343 N   0  0  0  0  0  0  0  0  0  0  0  0
   -5.9706   10.4906   -7.7317 C   0  0  0  0  0  0  0  0  0  0  0  0
   -5.8616   11.7632   -7.1684 C   0  0  0  0  0  0  0  0  0  0  0  0
   -4.6051   12.3126   -6.9180 C   0  0  0  0  0  0  0  0  0  0  0  0
   -3.4544   11.5948   -7.2294 C   0  0  0  0  0  0  0  0  0  0  0  0
   -3.5626   10.3128   -7.8011 C   0  0  0  0  0  0  0  0  0  0  0  0
   -4.8160    9.7710   -8.0425 C   0  0  0  0  0  0  0  0  0  0  0  0
   -2.1083   12.1736   -6.9694 C   0  0  0  0  0  0  0  0  0  0  0  0
   -1.7503   13.4247   -6.4858 C   0  0  0  0  0  0  0  0  0  0  0  0
   -0.4131   13.4674   -6.4189 N   0  0  0  0  0  0  0  0  0  0  0  0
    0.1758   12.3735   -6.8057 N   0  0  0  0  0  0  0  0  0  0  0  0
   -0.8094   11.5620   -7.1791 C   0  0  0  0  0  0  0  0  0  0  0  0
    0.4060   14.5705   -5.9896 C   0  0  0  0  0  0  0  0  0  0  0  0
   -5.6528   14.0066  -14.2746 O   0  0  0  0  0  0  0  0  0  0  0  0
   -5.5002   11.5939  -10.3317 H   0  0  0  0  0  0  0  0  0  0  0  0
   -7.0066   12.5435  -10.0954 H   0  0  0  0  0  0  0  0  0  0  0  0
   -8.1361   10.1224  -13.9137 H   0  0  0  0  0  0  0  0  0  0  0  0
   -6.7956   12.2399  -14.0855 H   0  0  0  0  0  0  0  0  0  0  0  0
   -8.9253    8.2413  -11.9049 H   0  0  0  0  0  0  0  0  0  0  0  0
   -8.0279    9.5798   -7.2599 H   0  0  0  0  0  0  0  0  0  0  0  0
   -4.2429   16.0373  -13.8548 H   0  0  0  0  0  0  0  0  0  0  0  0
   -4.9638   16.2086  -12.2185 H   0  0  0  0  0  0  0  0  0  0  0  0
   -3.4785   15.2246  -12.4471 H   0  0  0  0  0  0  0  0  0  0  0  0
   -6.7526   12.3233   -6.9261 H   0  0  0  0  0  0  0  0  0  0  0  0
   -4.5246   13.2972   -6.4815 H   0  0  0  0  0  0  0  0  0  0  0  0
   -2.6730    9.7536   -8.0506 H   0  0  0  0  0  0  0  0  0  0  0  0
   -4.8679    8.8310   -7.4736 H   0  0  0  0  0  0  0  0  0  0  0  0
   -4.8621    9.5509   -9.1193 H   0  0  0  0  0  0  0  0  0  0  0  0
   -2.4278   14.2202   -6.2127 H   0  0  0  0  0  0  0  0  0  0  0  0
   -0.6614   10.5729   -7.5868 H   0  0  0  0  0  0  0  0  0  0  0  0
    1.4672   14.2904   -6.0634 H   0  0  0  0  0  0  0  0  0  0  0  0
    0.2117   15.4427   -6.6311 H   0  0  0  0  0  0  0  0  0  0  0  0
    0.1649   14.8218   -4.9462 H   0  0  0  0  0  0  0  0  0  0  0  0
  1  2  1  0  0  0  0
  1  4  1  0  0  0  0
  1 13  2  0  0  0  0
  2  6  1  0  0  0  0
  3  4  2  0  0  0  0
  3  5  1  0  0  0  0
  5  6  2  0  0  0  0
  5  9  1  0  0  0  0
  6  7  1  0  0  0  0
  7  8  2  0  0  0  0
  7 10  1  0  0  0  0
  8  9  1  0  0  0  0
 10 14  2  3  0  0  0
 11 12  1  0  0  0  0
 11 13  1  0  0  0  0
 11 26  2  0  0  0  0
 14 15  1  0  0  0  0
 14 19  1  0  0  0  0
 15 16  2  0  0  0  0
 16 17  1  0  0  0  0
 17 18  2  0  0  0  0
 17 20  1  0  0  0  0
 18 19  1  0  0  0  0
 20 21  2  0  0  0  0
 20 24  1  0  0  0  0
 21 22  1  0  0  0  0
 22 23  1  0  0  0  0
 22 25  1  0  0  0  0
 23 24  2  0  0  0  0
  2 27  1  0  0  0  0
  2 28  1  0  0  0  0
  3 29  1  0  0  0  0
  4 30  1  0  0  0  0
  9 31  1  0  0  0  0
 10 32  1  0  0  0  0
 12 33  1  0  0  0  0
 12 34  1  0  0  0  0
 12 35  1  0  0  0  0
 15 36  1  0  0  0  0
 16 37  1  0  0  0  0
 18 38  1  0  0  0  0
 19 39  1  0  0  0  0
 19 40  1  0  0  0  0
 21 41  1  0  0  0  0
 24 42  1  0  0  0  0
 25 43  1  0  0  0  0
 25 44  1  0  0  0  0
 25 45  1  0  0  0  0
M  END
> <Name>
24

> <IC50[uM]>
0.029

$$$$
24
  -OEChem-05192314333D
 Structure written by MMmdl.
 45 48  0     0  0  0  0  0  0999 V2000
   -6.3515   12.3530  -11.9813 C   0  0  0  0  0  0  0  0  0  0  0  0
   -6.5085   11.7912  -10.7247 C   0  0  0  0  0  0  0  0  0  0  0  0
   -7.6802   10.5716  -13.0438 C   0  0  0  0  0  0  0  0  0  0  0  0
   -6.9296   11.7657  -13.1245 C   0  0  0  0  0  0  0  0  0  0  0  0
   -7.7980   10.0044  -11.7669 C   0  0  0  0  0  0  0  0  0  0  0  0
   -7.2328   10.6109  -10.5989 C   0  0  0  0  0  0  0  0  0  0  0  0
   -7.6209    9.7375   -9.5162 C   0  0  0  0  0  0  0  0  0  0  0  0
   -8.2754    8.7446   -9.9970 N   0  0  0  0  0  0  0  0  0  0  0  0
   -8.4233    8.8800  -11.3218 N   0  0  0  0  0  0  0  0  0  0  0  0
   -7.3328    9.8812   -8.0296 C   0  0  0  0  0  0  0  0  0  0  0  0
   -5.3004   14.2773  -13.1499 C   0  0  0  0  0  0  0  0  0  0  0  0
   -4.4346   15.5261  -12.8998 C   0  0  0  0  0  0  0  0  0  0  0  0
   -5.5896   13.5586  -12.0343 N   0  0  0  0  0  0  0  0  0  0  0  0
   -5.9706   10.4906   -7.7317 C   0  0  0  0  0  0  0  0  0  0  0  0
   -5.8616   11.7632   -7.1684 C   0  0  0  0  0  0  0  0  0  0  0  0
   -4.6051   12.3126   -6.9180 C   0  0  0  0  0  0  0  0  0  0  0  0
   -3.4544   11.5948   -7.2294 C   0  0  0  0  0  0  0  0  0  0  0  0
   -3.5626   10.3128   -7.8011 C   0  0  0  0  0  0  0  0  0  0  0  0
   -4.8160    9.7710   -8.0425 C   0  0  0  0  0  0  0  0  0  0  0  0
   -2.1083   12.1736   -6.9694 C   0  0  0  0  0  0  0  0  0  0  0  0
   -1.7503   13.4247   -6.4858 C   0  0  0  0  0  0  0  0  0  0  0  0
   -0.4131   13.4674   -6.4189 N   0  0  0  0  0  0  0  0  0  0  0  0
    0.1758   12.3735   -6.8057 N   0  0  0  0  0  0  0  0  0  0  0  0
   -0.8094   11.5620   -7.1791 C   0  0  0  0  0  0  0  0  0  0  0  0
    0.4060   14.5705   -5.9896 C   0  0  0  0  0  0  0  0  0  0  0  0
   -5.6528   14.0066  -14.2746 O   0  0  0  0  0  0  0  0  0  0  0  0
   -6.0747   12.2631   -9.8555 H   0  0  0  0  0  0  0  0  0  0  0  0
   -8.1361   10.1224  -13.9137 H   0  0  0  0  0  0  0  0  0  0  0  0
   -6.7956   12.2399  -14.0855 H   0  0  0  0  0  0  0  0  0  0  0  0
   -8.6258    7.9778   -9.4591 H   0  0  0  0  0  0  0  0  0  0  0  0
   -8.0279    9.5798   -7.2599 H   0  0  0  0  0  0  0  0  0  0  0  0
   -4.2429   16.0373  -13.8548 H   0  0  0  0  0  0  0  0  0  0  0  0
   -4.9638   16.2086  -12.2185 H   0  0  0  0  0  0  0  0  0  0  0  0
   -3.4785   15.2246  -12.4471 H   0  0  0  0  0  0  0  0  0  0  0  0
   -5.9851   10.0423   -6.7273 H   0  0  0  0  0  0  0  0  0  0  0  0
   -6.7526   12.3233   -6.9261 H   0  0  0  0  0  0  0  0  0  0  0  0
   -4.5246   13.2972   -6.4815 H   0  0  0  0  0  0  0  0  0  0  0  0
   -3.4585   11.1486   -6.2240 H   0  0  0  0  0  0  0  0  0  0  0  0
   -2.6730    9.7536   -8.0506 H   0  0  0  0  0  0  0  0  0  0  0  0
   -4.8993    8.7846   -8.4743 H   0  0  0  0  0  0  0  0  0  0  0  0
   -2.4278   14.2202   -6.2127 H   0  0  0  0  0  0  0  0  0  0  0  0
   -0.6614   10.5729   -7.5868 H   0  0  0  0  0  0  0  0  0  0  0  0
    1.4672   14.2904   -6.0634 H   0  0  0  0  0  0  0  0  0  0  0  0
    0.2117   15.4427   -6.6311 H   0  0  0  0  0  0  0  0  0  0  0  0
    0.1649   14.8218   -4.9462 H   0  0  0  0  0  0  0  0  0  0  0  0
  1  2  1  0  0  0  0
  1  4  1  0  0  0  0
  1 13  2  0  0  0  0
  2  6  2  0  0  0  0
  3  4  2  0  0  0  0
  3  5  1  0  0  0  0
  5  6  1  0  0  0  0
  5  9  2  0  0  0  0
  6  7  1  0  0  0  0
  7  8  1  0  0  0  0
  7 10  2  3  0  0  0
  8  9  1  0  0  0  0
 10 14  1  0  0  0  0
 11 12  1  0  0  0  0
 11 13  1  0  0  0  0
 11 26  2  0  0  0  0
 14 15  1  0  0  0  0
 14 19  1  0  0  0  0
 15 16  2  0  0  0  0
 16 17  1  0  0  0  0
 17 18  1  0  0  0  0
 17 20  1  0  0  0  0
 18 19  2  0  0  0  0
 20 21  2  0  0  0  0
 20 24  1  0  0  0  0
 21 22  1  0  0  0  0
 22 23  1  0  0  0  0
 22 25  1  0  0  0  0
 23 24  2  0  0  0  0
  2 27  1  0  0  0  0
  3 28  1  0  0  0  0
  4 29  1  0  0  0  0
  8 30  1  0  0  0  0
 10 31  1  0  0  0  0
 12 32  1  0  0  0  0
 12 33  1  0  0  0  0
 12 34  1  0  0  0  0
 14 35  1  0  0  0  0
 15 36  1  0  0  0  0
 16 37  1  0  0  0  0
 17 38  1  0  0  0  0
 18 39  1  0  0  0  0
 19 40  1  0  0  0  0
 21 41  1  0  0  0  0
 24 42  1  0  0  0  0
 25 43  1  0  0  0  0
 25 44  1  0  0  0  0
 25 45  1  0  0  0  0
M  END
> <Name>
24

> <IC50[uM]>
0.029

$$$$
24
  -OEChem-05192314333D
 Structure written by MMmdl.
 45 48  0     0  0  0  0  0  0999 V2000
   -6.3515   12.3530  -11.9813 C   0  0  0  0  0  0  0  0  0  0  0  0
   -6.5085   11.7912  -10.7247 C   0  0  0  0  0  0  0  0  0  0  0  0
   -7.6802   10.5716  -13.0438 C   0  0  0  0  0  0  0  0  0  0  0  0
   -6.9296   11.7657  -13.1245 C   0  0  0  0  0  0  0  0  0  0  0  0
   -7.7980   10.0044  -11.7669 C   0  0  0  0  0  0  0  0  0  0  0  0
   -7.2328   10.6109  -10.5989 C   0  0  0  0  0  0  0  0  0  0  0  0
   -7.6209    9.7375   -9.5162 C   0  0  0  0  0  0  0  0  0  0  0  0
   -8.2754    8.7446   -9.9970 N   0  0  0  0  0  0  0  0  0  0  0  0
   -8.4233    8.8800  -11.3218 N   0  0  0  0  0  0  0  0  0  0  0  0
   -7.3328    9.8812   -8.0296 C   0  0  0  0  0  0  0  0  0  0  0  0
   -5.3004   14.2773  -13.1499 C   0  0  0  0  0  0  0  0  0  0  0  0
   -4.4346   15.5261  -12.8998 C   0  0  0  0  0  0  0  0  0  0  0  0
   -5.5896   13.5586  -12.0343 N   0  0  0  0  0  0  0  0  0  0  0  0
   -5.9706   10.4906   -7.7317 C   0  0  0  0  0  0  0  0  0  0  0  0
   -5.8616   11.7632   -7.1684 C   0  0  0  0  0  0  0  0  0  0  0  0
   -4.6051   12.3126   -6.9180 C   0  0  0  0  0  0  0  0  0  0  0  0
   -3.4544   11.5948   -7.2294 C   0  0  0  0  0  0  0  0  0  0  0  0
   -3.5626   10.3128   -7.8011 C   0  0  0  0  0  0  0  0  0  0  0  0
   -4.8160    9.7710   -8.0425 C   0  0  0  0  0  0  0  0  0  0  0  0
   -2.1083   12.1736   -6.9694 C   0  0  0  0  0  0  0  0  0  0  0  0
   -1.7503   13.4247   -6.4858 C   0  0  0  0  0  0  0  0  0  0  0  0
   -0.4131   13.4674   -6.4189 N   0  0  0  0  0  0  0  0  0  0  0  0
    0.1758   12.3735   -6.8057 N   0  0  0  0  0  0  0  0  0  0  0  0
   -0.8094   11.5620   -7.1791 C   0  0  0  0  0  0  0  0  0  0  0  0
    0.4060   14.5705   -5.9896 C   0  0  0  0  0  0  0  0  0  0  0  0
   -5.6528   14.0066  -14.2746 O   0  0  0  0  0  0  0  0  0  0  0  0
   -6.0747   12.2631   -9.8555 H   0  0  0  0  0  0  0  0  0  0  0  0
   -8.1361   10.1224  -13.9137 H   0  0  0  0  0  0  0  0  0  0  0  0
   -7.5989   12.5237  -13.5575 H   0  0  0  0  0  0  0  0  0  0  0  0
   -6.1027   11.5654  -13.8217 H   0  0  0  0  0  0  0  0  0  0  0  0
   -8.9253    8.2413  -11.9049 H   0  0  0  0  0  0  0  0  0  0  0  0
   -8.0279    9.5798   -7.2599 H   0  0  0  0  0  0  0  0  0  0  0  0
   -4.2429   16.0373  -13.8548 H   0  0  0  0  0  0  0  0  0  0  0  0
   -4.9638   16.2086  -12.2185 H   0  0  0  0  0  0  0  0  0  0  0  0
   -3.4785   15.2246  -12.4471 H   0  0  0  0  0  0  0  0  0  0  0  0
   -6.7526   12.3233   -6.9261 H   0  0  0  0  0  0  0  0  0  0  0  0
   -4.5246   13.2972   -6.4815 H   0  0  0  0  0  0  0  0  0  0  0  0
   -3.4585   11.1486   -6.2240 H   0  0  0  0  0  0  0  0  0  0  0  0
   -2.6730    9.7536   -8.0506 H   0  0  0  0  0  0  0  0  0  0  0  0
   -4.8993    8.7846   -8.4743 H   0  0  0  0  0  0  0  0  0  0  0  0
   -2.4278   14.2202   -6.2127 H   0  0  0  0  0  0  0  0  0  0  0  0
   -0.6614   10.5729   -7.5868 H   0  0  0  0  0  0  0  0  0  0  0  0
    1.4672   14.2904   -6.0634 H   0  0  0  0  0  0  0  0  0  0  0  0
    0.2117   15.4427   -6.6311 H   0  0  0  0  0  0  0  0  0  0  0  0
    0.1649   14.8218   -4.9462 H   0  0  0  0  0  0  0  0  0  0  0  0
  1  2  1  0  0  0  0
  1  4  1  0  0  0  0
  1 13  2  0  0  0  0
  2  6  2  0  0  0  0
  3  4  1  0  0  0  0
  3  5  2  0  0  0  0
  5  6  1  0  0  0  0
  5  9  1  0  0  0  0
  6  7  1  0  0  0  0
  7  8  2  0  0  0  0
  7 10  1  0  0  0  0
  8  9  1  0  0  0  0
 10 14  2  0  0  0  0
 11 12  1  0  0  0  0
 11 13  1  0  0  0  0
 11 26  2  0  0  0  0
 14 15  1  0  0  0  0
 14 19  1  0  0  0  0
 15 16  2  0  0  0  0
 16 17  1  0  0  0  0
 17 18  1  0  0  0  0
 17 20  1  0  0  0  0
 18 19  2  0  0  0  0
 20 21  2  0  0  0  0
 20 24  1  0  0  0  0
 21 22  1  0  0  0  0
 22 23  1  0  0  0  0
 22 25  1  0  0  0  0
 23 24  2  0  0  0  0
  2 27  1  0  0  0  0
  3 28  1  0  0  0  0
  4 29  1  0  0  0  0
  4 30  1  0  0  0  0
  9 31  1  0  0  0  0
 10 32  1  0  0  0  0
 12 33  1  0  0  0  0
 12 34  1  0  0  0  0
 12 35  1  0  0  0  0
 15 36  1  0  0  0  0
 16 37  1  0  0  0  0
 17 38  1  0  0  0  0
 18 39  1  0  0  0  0
 19 40  1  0  0  0  0
 21 41  1  0  0  0  0
 24 42  1  0  0  0  0
 25 43  1  0  0  0  0
 25 44  1  0  0  0  0
 25 45  1  0  0  0  0
M  END
> <Name>
24

> <IC50[uM]>
0.029

$$$$
24
  -OEChem-05192314333D
 Structure written by MMmdl.
 45 48  0     1  0  0  0  0  0999 V2000
   -6.3515   12.3530  -11.9813 C   0  0  0  0  0  0  0  0  0  0  0  0
   -6.5085   11.7912  -10.7247 C   0  0  0  0  0  0  0  0  0  0  0  0
   -7.6802   10.5716  -13.0438 C   0  0  0  0  0  0  0  0  0  0  0  0
   -6.9296   11.7657  -13.1245 C   0  0  0  0  0  0  0  0  0  0  0  0
   -7.7980   10.0044  -11.7669 C   0  0  0  0  0  0  0  0  0  0  0  0
   -7.2328   10.6109  -10.5989 C   0  0  0  0  0  0  0  0  0  0  0  0
   -7.6209    9.7375   -9.5162 C   0  0  0  0  0  0  0  0  0  0  0  0
   -8.2754    8.7446   -9.9970 N   0  0  0  0  0  0  0  0  0  0  0  0
   -8.4233    8.8800  -11.3218 N   0  0  0  0  0  0  0  0  0  0  0  0
   -7.3328    9.8812   -8.0296 C   0  0  0  0  0  0  0  0  0  0  0  0
   -5.3004   14.2773  -13.1499 C   0  0  0  0  0  0  0  0  0  0  0  0
   -4.4346   15.5261  -12.8998 C   0  0  0  0  0  0  0  0  0  0  0  0
   -5.5896   13.5586  -12.0343 N   0  0  0  0  0  0  0  0  0  0  0  0
   -5.9706   10.4906   -7.7317 C   0  0  0  0  0  0  0  0  0  0  0  0
   -5.8616   11.7632   -7.1684 C   0  0  0  0  0  0  0  0  0  0  0  0
   -4.6051   12.3126   -6.9180 C   0  0  0  0  0  0  0  0  0  0  0  0
   -3.4544   11.5948   -7.2294 C   0  0  3  0  0  0  0  0  0  0  0  0
   -3.5626   10.3128   -7.8011 C   0  0  0  0  0  0  0  0  0  0  0  0
   -4.8160    9.7710   -8.0425 C   0  0  0  0  0  0  0  0  0  0  0  0
   -2.1083   12.1736   -6.9694 C   0  0  0  0  0  0  0  0  0  0  0  0
   -1.7503   13.4247   -6.4858 C   0  0  0  0  0  0  0  0  0  0  0  0
   -0.4131   13.4674   -6.4189 N   0  0  0  0  0  0  0  0  0  0  0  0
    0.1758   12.3735   -6.8057 N   0  0  0  0  0  0  0  0  0  0  0  0
   -0.8094   11.5620   -7.1791 C   0  0  0  0  0  0  0  0  0  0  0  0
    0.4060   14.5705   -5.9896 C   0  0  0  0  0  0  0  0  0  0  0  0
   -5.6528   14.0066  -14.2746 O   0  0  0  0  0  0  0  0  0  0  0  0
   -6.0747   12.2631   -9.8555 H   0  0  0  0  0  0  0  0  0  0  0  0
   -8.1361   10.1224  -13.9137 H   0  0  0  0  0  0  0  0  0  0  0  0
   -6.7956   12.2399  -14.0855 H   0  0  0  0  0  0  0  0  0  0  0  0
   -8.6258    7.9778   -9.4591 H   0  0  0  0  0  0  0  0  0  0  0  0
   -8.0279    9.5798   -7.2599 H   0  0  0  0  0  0  0  0  0  0  0  0
   -4.2429   16.0373  -13.8548 H   0  0  0  0  0  0  0  0  0  0  0  0
   -4.9638   16.2086  -12.2185 H   0  0  0  0  0  0  0  0  0  0  0  0
   -3.4785   15.2246  -12.4471 H   0  0  0  0  0  0  0  0  0  0  0  0
   -6.7526   12.3233   -6.9261 H   0  0  0  0  0  0  0  0  0  0  0  0
   -4.5531   13.2553   -7.4825 H   0  0  0  0  0  0  0  0  0  0  0  0
   -4.5624   12.5279   -5.8401 H   0  0  0  0  0  0  0  0  0  0  0  0
   -3.4585   11.1486   -6.2240 H   0  0  0  0  0  0  0  0  0  0  0  0
   -2.6730    9.7536   -8.0506 H   0  0  0  0  0  0  0  0  0  0  0  0
   -4.8993    8.7846   -8.4743 H   0  0  0  0  0  0  0  0  0  0  0  0
   -2.4278   14.2202   -6.2127 H   0  0  0  0  0  0  0  0  0  0  0  0
   -0.6614   10.5729   -7.5868 H   0  0  0  0  0  0  0  0  0  0  0  0
    1.4672   14.2904   -6.0634 H   0  0  0  0  0  0  0  0  0  0  0  0
    0.2117   15.4427   -6.6311 H   0  0  0  0  0  0  0  0  0  0  0  0
    0.1649   14.8218   -4.9462 H   0  0  0  0  0  0  0  0  0  0  0  0
  1  2  1  0  0  0  0
  1  4  1  0  0  0  0
  1 13  2  0  0  0  0
  2  6  2  0  0  0  0
  3  4  2  0  0  0  0
  3  5  1  0  0  0  0
  5  6  1  0  0  0  0
  5  9  2  0  0  0  0
  6  7  1  0  0  0  0
  7  8  1  0  0  0  0
  7 10  2  3  0  0  0
  8  9  1  0  0  0  0
 10 14  1  0  0  0  0
 11 12  1  0  0  0  0
 11 13  1  0  0  0  0
 11 26  2  0  0  0  0
 14 15  2  0  0  0  0
 14 19  1  0  0  0  0
 15 16  1  0  0  0  0
 16 17  1  0  0  0  0
 17 18  1  0  0  0  0
 17 20  1  0  0  0  0
 18 19  2  0  0  0  0
 20 21  2  0  0  0  0
 20 24  1  0  0  0  0
 21 22  1  0  0  0  0
 22 23  1  0  0  0  0
 22 25  1  0  0  0  0
 23 24  2  0  0  0  0
  2 27  1  0  0  0  0
  3 28  1  0  0  0  0
  4 29  1  0  0  0  0
  8 30  1  0  0  0  0
 10 31  1  0  0  0  0
 12 32  1  0  0  0  0
 12 33  1  0  0  0  0
 12 34  1  0  0  0  0
 15 35  1  0  0  0  0
 16 36  1  0  0  0  0
 16 37  1  0  0  0  0
 17 38  1  0  0  0  0
 18 39  1  0  0  0  0
 19 40  1  0  0  0  0
 21 41  1  0  0  0  0
 24 42  1  0  0  0  0
 25 43  1  0  0  0  0
 25 44  1  0  0  0  0
 25 45  1  0  0  0  0
M  END
> <Name>
24

> <IC50[uM]>
0.029

$$$$
24
  -OEChem-05192314333D
 Structure written by MMmdl.
 45 48  0     1  0  0  0  0  0999 V2000
   -6.3515   12.3530  -11.9813 C   0  0  0  0  0  0  0  0  0  0  0  0
   -6.5085   11.7912  -10.7247 C   0  0  0  0  0  0  0  0  0  0  0  0
   -7.6802   10.5716  -13.0438 C   0  0  0  0  0  0  0  0  0  0  0  0
   -6.9296   11.7657  -13.1245 C   0  0  0  0  0  0  0  0  0  0  0  0
   -7.7980   10.0044  -11.7669 C   0  0  0  0  0  0  0  0  0  0  0  0
   -7.2328   10.6109  -10.5989 C   0  0  0  0  0  0  0  0  0  0  0  0
   -7.6209    9.7375   -9.5162 C   0  0  0  0  0  0  0  0  0  0  0  0
   -8.2754    8.7446   -9.9970 N   0  0  0  0  0  0  0  0  0  0  0  0
   -8.4233    8.8800  -11.3218 N   0  0  0  0  0  0  0  0  0  0  0  0
   -7.3328    9.8812   -8.0296 C   0  0  0  0  0  0  0  0  0  0  0  0
   -5.3004   14.2773  -13.1499 C   0  0  0  0  0  0  0  0  0  0  0  0
   -4.4346   15.5261  -12.8998 C   0  0  0  0  0  0  0  0  0  0  0  0
   -5.5896   13.5586  -12.0343 N   0  0  0  0  0  0  0  0  0  0  0  0
   -5.9706   10.4906   -7.7317 C   0  0  3  0  0  0  0  0  0  0  0  0
   -5.8616   11.7632   -7.1684 C   0  0  0  0  0  0  0  0  0  0  0  0
   -4.6051   12.3126   -6.9180 C   0  0  0  0  0  0  0  0  0  0  0  0
   -3.4544   11.5948   -7.2294 C   0  0  0  0  0  0  0  0  0  0  0  0
   -3.5626   10.3128   -7.8011 C   0  0  0  0  0  0  0  0  0  0  0  0
   -4.8160    9.7710   -8.0425 C   0  0  0  0  0  0  0  0  0  0  0  0
   -2.1083   12.1736   -6.9694 C   0  0  0  0  0  0  0  0  0  0  0  0
   -1.7503   13.4247   -6.4858 C   0  0  0  0  0  0  0  0  0  0  0  0
   -0.4131   13.4674   -6.4189 N   0  0  0  0  0  0  0  0  0  0  0  0
    0.1758   12.3735   -6.8057 N   0  0  0  0  0  0  0  0  0  0  0  0
   -0.8094   11.5620   -7.1791 C   0  0  0  0  0  0  0  0  0  0  0  0
    0.4060   14.5705   -5.9896 C   0  0  0  0  0  0  0  0  0  0  0  0
   -5.6528   14.0066  -14.2746 O   0  0  0  0  0  0  0  0  0  0  0  0
   -6.0747   12.2631   -9.8555 H   0  0  0  0  0  0  0  0  0  0  0  0
   -8.1361   10.1224  -13.9137 H   0  0  0  0  0  0  0  0  0  0  0  0
   -6.7956   12.2399  -14.0855 H   0  0  0  0  0  0  0  0  0  0  0  0
   -8.6258    7.9778   -9.4591 H   0  0  0  0  0  0  0  0  0  0  0  0
   -8.0279    9.5798   -7.2599 H   0  0  0  0  0  0  0  0  0  0  0  0
   -4.2429   16.0373  -13.8548 H   0  0  0  0  0  0  0  0  0  0  0  0
   -4.9638   16.2086  -12.2185 H   0  0  0  0  0  0  0  0  0  0  0  0
   -3.4785   15.2246  -12.4471 H   0  0  0  0  0  0  0  0  0  0  0  0
   -5.9851   10.0423   -6.7273 H   0  0  0  0  0  0  0  0  0  0  0  0
   -6.7526   12.3233   -6.9261 H   0  0  0  0  0  0  0  0  0  0  0  0
   -4.5246   13.2972   -6.4815 H   0  0  0  0  0  0  0  0  0  0  0  0
   -2.6730    9.7536   -8.0506 H   0  0  0  0  0  0  0  0  0  0  0  0
   -4.8679    8.8310   -7.4736 H   0  0  0  0  0  0  0  0  0  0  0  0
   -4.8621    9.5509   -9.1193 H   0  0  0  0  0  0  0  0  0  0  0  0
   -2.4278   14.2202   -6.2127 H   0  0  0  0  0  0  0  0  0  0  0  0
   -0.6614   10.5729   -7.5868 H   0  0  0  0  0  0  0  0  0  0  0  0
    1.4672   14.2904   -6.0634 H   0  0  0  0  0  0  0  0  0  0  0  0
    0.2117   15.4427   -6.6311 H   0  0  0  0  0  0  0  0  0  0  0  0
    0.1649   14.8218   -4.9462 H   0  0  0  0  0  0  0  0  0  0  0  0
  1  2  1  0  0  0  0
  1  4  1  0  0  0  0
  1 13  2  0  0  0  0
  2  6  2  0  0  0  0
  3  4  2  0  0  0  0
  3  5  1  0  0  0  0
  5  6  1  0  0  0  0
  5  9  2  0  0  0  0
  6  7  1  0  0  0  0
  7  8  1  0  0  0  0
  7 10  2  3  0  0  0
  8  9  1  0  0  0  0
 10 14  1  0  0  0  0
 11 12  1  0  0  0  0
 11 13  1  0  0  0  0
 11 26  2  0  0  0  0
 14 15  1  0  0  0  0
 14 19  1  0  0  0  0
 15 16  2  0  0  0  0
 16 17  1  0  0  0  0
 17 18  2  0  0  0  0
 17 20  1  0  0  0  0
 18 19  1  0  0  0  0
 20 21  2  0  0  0  0
 20 24  1  0  0  0  0
 21 22  1  0  0  0  0
 22 23  1  0  0  0  0
 22 25  1  0  0  0  0
 23 24  2  0  0  0  0
  2 27  1  0  0  0  0
  3 28  1  0  0  0  0
  4 29  1  0  0  0  0
  8 30  1  0  0  0  0
 10 31  1  0  0  0  0
 12 32  1  0  0  0  0
 12 33  1  0  0  0  0
 12 34  1  0  0  0  0
 14 35  1  0  0  0  0
 15 36  1  0  0  0  0
 16 37  1  0  0  0  0
 18 38  1  0  0  0  0
 19 39  1  0  0  0  0
 19 40  1  0  0  0  0
 21 41  1  0  0  0  0
 24 42  1  0  0  0  0
 25 43  1  0  0  0  0
 25 44  1  0  0  0  0
 25 45  1  0  0  0  0
M  END
> <Name>
24

> <IC50[uM]>
0.029

$$$$
24
  -OEChem-05192314333D
 Structure written by MMmdl.
 45 48  0     0  0  0  0  0  0999 V2000
   -6.3515   12.3530  -11.9813 C   0  0  0  0  0  0  0  0  0  0  0  0
   -6.5085   11.7912  -10.7247 C   0  0  0  0  0  0  0  0  0  0  0  0
   -7.6802   10.5716  -13.0438 C   0  0  0  0  0  0  0  0  0  0  0  0
   -6.9296   11.7657  -13.1245 C   0  0  0  0  0  0  0  0  0  0  0  0
   -7.7980   10.0044  -11.7669 C   0  0  0  0  0  0  0  0  0  0  0  0
   -7.2328   10.6109  -10.5989 C   0  0  0  0  0  0  0  0  0  0  0  0
   -7.6209    9.7375   -9.5162 C   0  0  0  0  0  0  0  0  0  0  0  0
   -8.2754    8.7446   -9.9970 N   0  0  0  0  0  0  0  0  0  0  0  0
   -8.4233    8.8800  -11.3218 N   0  0  0  0  0  0  0  0  0  0  0  0
   -7.3328    9.8812   -8.0296 C   0  0  0  0  0  0  0  0  0  0  0  0
   -5.3004   14.2773  -13.1499 C   0  0  0  0  0  0  0  0  0  0  0  0
   -4.4346   15.5261  -12.8998 C   0  0  0  0  0  0  0  0  0  0  0  0
   -5.5896   13.5586  -12.0343 N   0  0  0  0  0  0  0  0  0  0  0  0
   -5.9706   10.4906   -7.7317 C   0  0  0  0  0  0  0  0  0  0  0  0
   -5.8616   11.7632   -7.1684 C   0  0  0  0  0  0  0  0  0  0  0  0
   -4.6051   12.3126   -6.9180 C   0  0  0  0  0  0  0  0  0  0  0  0
   -3.4544   11.5948   -7.2294 C   0  0  0  0  0  0  0  0  0  0  0  0
   -3.5626   10.3128   -7.8011 C   0  0  0  0  0  0  0  0  0  0  0  0
   -4.8160    9.7710   -8.0425 C   0  0  0  0  0  0  0  0  0  0  0  0
   -2.1083   12.1736   -6.9694 C   0  0  0  0  0  0  0  0  0  0  0  0
   -1.7503   13.4247   -6.4858 C   0  0  0  0  0  0  0  0  0  0  0  0
   -0.4131   13.4674   -6.4189 N   0  0  0  0  0  0  0  0  0  0  0  0
    0.1758   12.3735   -6.8057 N   0  0  0  0  0  0  0  0  0  0  0  0
   -0.8094   11.5620   -7.1791 C   0  0  0  0  0  0  0  0  0  0  0  0
    0.4060   14.5705   -5.9896 C   0  0  0  0  0  0  0  0  0  0  0  0
   -5.6528   14.0066  -14.2746 O   0  0  0  0  0  0  0  0  0  0  0  0
   -6.0747   12.2631   -9.8555 H   0  0  0  0  0  0  0  0  0  0  0  0
   -8.1361   10.1224  -13.9137 H   0  0  0  0  0  0  0  0  0  0  0  0
   -7.5989   12.5237  -13.5575 H   0  0  0  0  0  0  0  0  0  0  0  0
   -6.1027   11.5654  -13.8217 H   0  0  0  0  0  0  0  0  0  0  0  0
   -8.9253    8.2413  -11.9049 H   0  0  0  0  0  0  0  0  0  0  0  0
   -8.0279    9.5798   -7.2599 H   0  0  0  0  0  0  0  0  0  0  0  0
   -4.2429   16.0373  -13.8548 H   0  0  0  0  0  0  0  0  0  0  0  0
   -4.9638   16.2086  -12.2185 H   0  0  0  0  0  0  0  0  0  0  0  0
   -3.4785   15.2246  -12.4471 H   0  0  0  0  0  0  0  0  0  0  0  0
   -6.7526   12.3233   -6.9261 H   0  0  0  0  0  0  0  0  0  0  0  0
   -4.5246   13.2972   -6.4815 H   0  0  0  0  0  0  0  0  0  0  0  0
   -2.6730    9.7536   -8.0506 H   0  0  0  0  0  0  0  0  0  0  0  0
   -4.8679    8.8310   -7.4736 H   0  0  0  0  0  0  0  0  0  0  0  0
   -4.8621    9.5509   -9.1193 H   0  0  0  0  0  0  0  0  0  0  0  0
   -2.4278   14.2202   -6.2127 H   0  0  0  0  0  0  0  0  0  0  0  0
   -0.6614   10.5729   -7.5868 H   0  0  0  0  0  0  0  0  0  0  0  0
    1.4672   14.2904   -6.0634 H   0  0  0  0  0  0  0  0  0  0  0  0
    0.2117   15.4427   -6.6311 H   0  0  0  0  0  0  0  0  0  0  0  0
    0.1649   14.8218   -4.9462 H   0  0  0  0  0  0  0  0  0  0  0  0
  1  2  1  0  0  0  0
  1  4  1  0  0  0  0
  1 13  2  0  0  0  0
  2  6  2  0  0  0  0
  3  4  1  0  0  0  0
  3  5  2  0  0  0  0
  5  6  1  0  0  0  0
  5  9  1  0  0  0  0
  6  7  1  0  0  0  0
  7  8  2  0  0  0  0
  7 10  1  0  0  0  0
  8  9  1  0  0  0  0
 10 14  2  3  0  0  0
 11 12  1  0  0  0  0
 11 13  1  0  0  0  0
 11 26  2  0  0  0  0
 14 15  1  0  0  0  0
 14 19  1  0  0  0  0
 15 16  2  0  0  0  0
 16 17  1  0  0  0  0
 17 18  2  0  0  0  0
 17 20  1  0  0  0  0
 18 19  1  0  0  0  0
 20 21  2  0  0  0  0
 20 24  1  0  0  0  0
 21 22  1  0  0  0  0
 22 23  1  0  0  0  0
 22 25  1  0  0  0  0
 23 24  2  0  0  0  0
  2 27  1  0  0  0  0
  3 28  1  0  0  0  0
  4 29  1  0  0  0  0
  4 30  1  0  0  0  0
  9 31  1  0  0  0  0
 10 32  1  0  0  0  0
 12 33  1  0  0  0  0
 12 34  1  0  0  0  0
 12 35  1  0  0  0  0
 15 36  1  0  0  0  0
 16 37  1  0  0  0  0
 18 38  1  0  0  0  0
 19 39  1  0  0  0  0
 19 40  1  0  0  0  0
 21 41  1  0  0  0  0
 24 42  1  0  0  0  0
 25 43  1  0  0  0  0
 25 44  1  0  0  0  0
 25 45  1  0  0  0  0
M  END
> <Name>
24

> <IC50[uM]>
0.029

$$$$
24
  -OEChem-05192314333D
 Structure written by MMmdl.
 45 48  0     0  0  0  0  0  0999 V2000
   -6.3515   12.3530  -11.9813 C   0  0  0  0  0  0  0  0  0  0  0  0
   -6.5085   11.7912  -10.7247 C   0  0  0  0  0  0  0  0  0  0  0  0
   -7.6802   10.5716  -13.0438 C   0  0  0  0  0  0  0  0  0  0  0  0
   -6.9296   11.7657  -13.1245 C   0  0  0  0  0  0  0  0  0  0  0  0
   -7.7980   10.0044  -11.7669 C   0  0  0  0  0  0  0  0  0  0  0  0
   -7.2328   10.6109  -10.5989 C   0  0  0  0  0  0  0  0  0  0  0  0
   -7.6209    9.7375   -9.5162 C   0  0  0  0  0  0  0  0  0  0  0  0
   -8.2754    8.7446   -9.9970 N   0  0  0  0  0  0  0  0  0  0  0  0
   -8.4233    8.8800  -11.3218 N   0  0  0  0  0  0  0  0  0  0  0  0
   -7.3328    9.8812   -8.0296 C   0  0  0  0  0  0  0  0  0  0  0  0
   -5.3004   14.2773  -13.1499 C   0  0  0  0  0  0  0  0  0  0  0  0
   -4.4346   15.5261  -12.8998 C   0  0  0  0  0  0  0  0  0  0  0  0
   -5.5896   13.5586  -12.0343 N   0  0  0  0  0  0  0  0  0  0  0  0
   -5.9706   10.4906   -7.7317 C   0  0  0  0  0  0  0  0  0  0  0  0
   -5.8616   11.7632   -7.1684 C   0  0  0  0  0  0  0  0  0  0  0  0
   -4.6051   12.3126   -6.9180 C   0  0  0  0  0  0  0  0  0  0  0  0
   -3.4544   11.5948   -7.2294 C   0  0  0  0  0  0  0  0  0  0  0  0
   -3.5626   10.3128   -7.8011 C   0  0  0  0  0  0  0  0  0  0  0  0
   -4.8160    9.7710   -8.0425 C   0  0  0  0  0  0  0  0  0  0  0  0
   -2.1083   12.1736   -6.9694 C   0  0  0  0  0  0  0  0  0  0  0  0
   -1.7503   13.4247   -6.4858 C   0  0  0  0  0  0  0  0  0  0  0  0
   -0.4131   13.4674   -6.4189 N   0  0  0  0  0  0  0  0  0  0  0  0
    0.1758   12.3735   -6.8057 N   0  0  0  0  0  0  0  0  0  0  0  0
   -0.8094   11.5620   -7.1791 C   0  0  0  0  0  0  0  0  0  0  0  0
    0.4060   14.5705   -5.9896 C   0  0  0  0  0  0  0  0  0  0  0  0
   -5.6528   14.0066  -14.2746 O   0  0  0  0  0  0  0  0  0  0  0  0
   -6.0747   12.2631   -9.8555 H   0  0  0  0  0  0  0  0  0  0  0  0
   -8.1361   10.1224  -13.9137 H   0  0  0  0  0  0  0  0  0  0  0  0
   -6.7956   12.2399  -14.0855 H   0  0  0  0  0  0  0  0  0  0  0  0
   -8.6258    7.9778   -9.4591 H   0  0  0  0  0  0  0  0  0  0  0  0
   -8.0279    9.5798   -7.2599 H   0  0  0  0  0  0  0  0  0  0  0  0
   -4.2429   16.0373  -13.8548 H   0  0  0  0  0  0  0  0  0  0  0  0
   -4.9638   16.2086  -12.2185 H   0  0  0  0  0  0  0  0  0  0  0  0
   -3.4785   15.2246  -12.4471 H   0  0  0  0  0  0  0  0  0  0  0  0
   -6.7526   12.3233   -6.9261 H   0  0  0  0  0  0  0  0  0  0  0  0
   -4.5531   13.2553   -7.4825 H   0  0  0  0  0  0  0  0  0  0  0  0
   -4.5624   12.5279   -5.8401 H   0  0  0  0  0  0  0  0  0  0  0  0
   -2.6730    9.7536   -8.0506 H   0  0  0  0  0  0  0  0  0  0  0  0
   -4.8679    8.8310   -7.4736 H   0  0  0  0  0  0  0  0  0  0  0  0
   -4.8621    9.5509   -9.1193 H   0  0  0  0  0  0  0  0  0  0  0  0
   -2.4278   14.2202   -6.2127 H   0  0  0  0  0  0  0  0  0  0  0  0
   -0.6614   10.5729   -7.5868 H   0  0  0  0  0  0  0  0  0  0  0  0
    1.4672   14.2904   -6.0634 H   0  0  0  0  0  0  0  0  0  0  0  0
    0.2117   15.4427   -6.6311 H   0  0  0  0  0  0  0  0  0  0  0  0
    0.1649   14.8218   -4.9462 H   0  0  0  0  0  0  0  0  0  0  0  0
  1  2  1  0  0  0  0
  1  4  1  0  0  0  0
  1 13  2  0  0  0  0
  2  6  2  0  0  0  0
  3  4  2  0  0  0  0
  3  5  1  0  0  0  0
  5  6  1  0  0  0  0
  5  9  2  0  0  0  0
  6  7  1  0  0  0  0
  7  8  1  0  0  0  0
  7 10  2  3  0  0  0
  8  9  1  0  0  0  0
 10 14  1  0  0  0  0
 11 12  1  0  0  0  0
 11 13  1  0  0  0  0
 11 26  2  0  0  0  0
 14 15  2  0  0  0  0
 14 19  1  0  0  0  0
 15 16  1  0  0  0  0
 16 17  1  0  0  0  0
 17 18  2  0  0  0  0
 17 20  1  0  0  0  0
 18 19  1  0  0  0  0
 20 21  2  0  0  0  0
 20 24  1  0  0  0  0
 21 22  1  0  0  0  0
 22 23  1  0  0  0  0
 22 25  1  0  0  0  0
 23 24  2  0  0  0  0
  2 27  1  0  0  0  0
  3 28  1  0  0  0  0
  4 29  1  0  0  0  0
  8 30  1  0  0  0  0
 10 31  1  0  0  0  0
 12 32  1  0  0  0  0
 12 33  1  0  0  0  0
 12 34  1  0  0  0  0
 15 35  1  0  0  0  0
 16 36  1  0  0  0  0
 16 37  1  0  0  0  0
 18 38  1  0  0  0  0
 19 39  1  0  0  0  0
 19 40  1  0  0  0  0
 21 41  1  0  0  0  0
 24 42  1  0  0  0  0
 25 43  1  0  0  0  0
 25 44  1  0  0  0  0
 25 45  1  0  0  0  0
M  END
> <Name>
24

> <IC50[uM]>
0.029

$$$$
24
  -OEChem-05192314333D
 Structure written by MMmdl.
 45 48  0     0  0  0  0  0  0999 V2000
   -6.3515   12.3530  -11.9813 C   0  0  0  0  0  0  0  0  0  0  0  0
   -6.5085   11.7912  -10.7247 C   0  0  0  0  0  0  0  0  0  0  0  0
   -7.6802   10.5716  -13.0438 C   0  0  0  0  0  0  0  0  0  0  0  0
   -6.9296   11.7657  -13.1245 C   0  0  0  0  0  0  0  0  0  0  0  0
   -7.7980   10.0044  -11.7669 C   0  0  0  0  0  0  0  0  0  0  0  0
   -7.2328   10.6109  -10.5989 C   0  0  0  0  0  0  0  0  0  0  0  0
   -7.6209    9.7375   -9.5162 C   0  0  0  0  0  0  0  0  0  0  0  0
   -8.2754    8.7446   -9.9970 N   0  0  0  0  0  0  0  0  0  0  0  0
   -8.4233    8.8800  -11.3218 N   0  0  0  0  0  0  0  0  0  0  0  0
   -7.3328    9.8812   -8.0296 C   0  0  0  0  0  0  0  0  0  0  0  0
   -5.3004   14.2773  -13.1499 C   0  0  0  0  0  0  0  0  0  0  0  0
   -4.4346   15.5261  -12.8998 C   0  0  0  0  0  0  0  0  0  0  0  0
   -5.5896   13.5586  -12.0343 N   0  0  0  0  0  0  0  0  0  0  0  0
   -5.9706   10.4906   -7.7317 C   0  0  0  0  0  0  0  0  0  0  0  0
   -5.8616   11.7632   -7.1684 C   0  0  0  0  0  0  0  0  0  0  0  0
   -4.6051   12.3126   -6.9180 C   0  0  0  0  0  0  0  0  0  0  0  0
   -3.4544   11.5948   -7.2294 C   0  0  0  0  0  0  0  0  0  0  0  0
   -3.5626   10.3128   -7.8011 C   0  0  0  0  0  0  0  0  0  0  0  0
   -4.8160    9.7710   -8.0425 C   0  0  0  0  0  0  0  0  0  0  0  0
   -2.1083   12.1736   -6.9694 C   0  0  0  0  0  0  0  0  0  0  0  0
   -1.7503   13.4247   -6.4858 C   0  0  0  0  0  0  0  0  0  0  0  0
   -0.4131   13.4674   -6.4189 N   0  0  0  0  0  0  0  0  0  0  0  0
    0.1758   12.3735   -6.8057 N   0  0  0  0  0  0  0  0  0  0  0  0
   -0.8094   11.5620   -7.1791 C   0  0  0  0  0  0  0  0  0  0  0  0
    0.4060   14.5705   -5.9896 C   0  0  0  0  0  0  0  0  0  0  0  0
   -5.6528   14.0066  -14.2746 O   0  0  0  0  0  0  0  0  0  0  0  0
   -6.0747   12.2631   -9.8555 H   0  0  0  0  0  0  0  0  0  0  0  0
   -8.1361   10.1224  -13.9137 H   0  0  0  0  0  0  0  0  0  0  0  0
   -6.7956   12.2399  -14.0855 H   0  0  0  0  0  0  0  0  0  0  0  0
   -8.6258    7.9778   -9.4591 H   0  0  0  0  0  0  0  0  0  0  0  0
   -8.0279    9.5798   -7.2599 H   0  0  0  0  0  0  0  0  0  0  0  0
   -4.2429   16.0373  -13.8548 H   0  0  0  0  0  0  0  0  0  0  0  0
   -4.9638   16.2086  -12.2185 H   0  0  0  0  0  0  0  0  0  0  0  0
   -3.4785   15.2246  -12.4471 H   0  0  0  0  0  0  0  0  0  0  0  0
   -6.7526   12.3233   -6.9261 H   0  0  0  0  0  0  0  0  0  0  0  0
   -4.5246   13.2972   -6.4815 H   0  0  0  0  0  0  0  0  0  0  0  0
   -3.0396   10.3498   -8.7681 H   0  0  0  0  0  0  0  0  0  0  0  0
   -3.0393    9.6182   -7.1276 H   0  0  0  0  0  0  0  0  0  0  0  0
   -4.8679    8.8310   -7.4736 H   0  0  0  0  0  0  0  0  0  0  0  0
   -4.8621    9.5509   -9.1193 H   0  0  0  0  0  0  0  0  0  0  0  0
   -2.4278   14.2202   -6.2127 H   0  0  0  0  0  0  0  0  0  0  0  0
   -0.6614   10.5729   -7.5868 H   0  0  0  0  0  0  0  0  0  0  0  0
    1.4672   14.2904   -6.0634 H   0  0  0  0  0  0  0  0  0  0  0  0
    0.2117   15.4427   -6.6311 H   0  0  0  0  0  0  0  0  0  0  0  0
    0.1649   14.8218   -4.9462 H   0  0  0  0  0  0  0  0  0  0  0  0
  1  2  1  0  0  0  0
  1  4  1  0  0  0  0
  1 13  2  0  0  0  0
  2  6  2  0  0  0  0
  3  4  2  0  0  0  0
  3  5  1  0  0  0  0
  5  6  1  0  0  0  0
  5  9  2  0  0  0  0
  6  7  1  0  0  0  0
  7  8  1  0  0  0  0
  7 10  2  3  0  0  0
  8  9  1  0  0  0  0
 10 14  1  0  0  0  0
 11 12  1  0  0  0  0
 11 13  1  0  0  0  0
 11 26  2  0  0  0  0
 14 15  2  0  0  0  0
 14 19  1  0  0  0  0
 15 16  1  0  0  0  0
 16 17  2  0  0  0  0
 17 18  1  0  0  0  0
 17 20  1  0  0  0  0
 18 19  1  0  0  0  0
 20 21  2  0  0  0  0
 20 24  1  0  0  0  0
 21 22  1  0  0  0  0
 22 23  1  0  0  0  0
 22 25  1  0  0  0  0
 23 24  2  0  0  0  0
  2 27  1  0  0  0  0
  3 28  1  0  0  0  0
  4 29  1  0  0  0  0
  8 30  1  0  0  0  0
 10 31  1  0  0  0  0
 12 32  1  0  0  0  0
 12 33  1  0  0  0  0
 12 34  1  0  0  0  0
 15 35  1  0  0  0  0
 16 36  1  0  0  0  0
 18 37  1  0  0  0  0
 18 38  1  0  0  0  0
 19 39  1  0  0  0  0
 19 40  1  0  0  0  0
 21 41  1  0  0  0  0
 24 42  1  0  0  0  0
 25 43  1  0  0  0  0
 25 44  1  0  0  0  0
 25 45  1  0  0  0  0
M  END
> <Name>
24

> <IC50[uM]>
0.029

$$$$
24
  -OEChem-05192314333D
 Structure written by MMmdl.
 45 48  0     1  0  0  0  0  0999 V2000
   -6.3515   12.3530  -11.9813 C   0  0  0  0  0  0  0  0  0  0  0  0
   -6.5085   11.7912  -10.7247 C   0  0  0  0  0  0  0  0  0  0  0  0
   -7.6802   10.5716  -13.0438 C   0  0  0  0  0  0  0  0  0  0  0  0
   -6.9296   11.7657  -13.1245 C   0  0  0  0  0  0  0  0  0  0  0  0
   -7.7980   10.0044  -11.7669 C   0  0  0  0  0  0  0  0  0  0  0  0
   -7.2328   10.6109  -10.5989 C   0  0  0  0  0  0  0  0  0  0  0  0
   -7.6209    9.7375   -9.5162 C   0  0  0  0  0  0  0  0  0  0  0  0
   -8.2754    8.7446   -9.9970 N   0  0  0  0  0  0  0  0  0  0  0  0
   -8.4233    8.8800  -11.3218 N   0  0  0  0  0  0  0  0  0  0  0  0
   -7.3328    9.8812   -8.0296 C   0  0  0  0  0  0  0  0  0  0  0  0
   -5.3004   14.2773  -13.1499 C   0  0  0  0  0  0  0  0  0  0  0  0
   -4.4346   15.5261  -12.8998 C   0  0  0  0  0  0  0  0  0  0  0  0
   -5.5896   13.5586  -12.0343 N   0  0  0  0  0  0  0  0  0  0  0  0
   -5.9706   10.4906   -7.7317 C   0  0  0  0  0  0  0  0  0  0  0  0
   -5.8616   11.7632   -7.1684 C   0  0  0  0  0  0  0  0  0  0  0  0
   -4.6051   12.3126   -6.9180 C   0  0  0  0  0  0  0  0  0  0  0  0
   -3.4544   11.5948   -7.2294 C   0  0  0  0  0  0  0  0  0  0  0  0
   -3.5626   10.3128   -7.8011 C   0  0  0  0  0  0  0  0  0  0  0  0
   -4.8160    9.7710   -8.0425 C   0  0  0  0  0  0  0  0  0  0  0  0
   -2.1083   12.1736   -6.9694 C   0  0  3  0  0  0  0  0  0  0  0  0
   -1.7503   13.4247   -6.4858 C   0  0  0  0  0  0  0  0  0  0  0  0
   -0.4131   13.4674   -6.4189 N   0  0  3  0  0  0  0  0  0  0  0  0
    0.1758   12.3735   -6.8057 N   0  0  0  0  0  0  0  0  0  0  0  0
   -0.8094   11.5620   -7.1791 C   0  0  0  0  0  0  0  0  0  0  0  0
    0.4060   14.5705   -5.9896 C   0  0  0  0  0  0  0  0  0  0  0  0
   -5.6528   14.0066  -14.2746 O   0  0  0  0  0  0  0  0  0  0  0  0
   -6.0747   12.2631   -9.8555 H   0  0  0  0  0  0  0  0  0  0  0  0
   -8.1361   10.1224  -13.9137 H   0  0  0  0  0  0  0  0  0  0  0  0
   -6.7956   12.2399  -14.0855 H   0  0  0  0  0  0  0  0  0  0  0  0
   -8.1067   10.5245   -7.5855 H   0  0  0  0  0  0  0  0  0  0  0  0
   -7.3763    8.8835   -7.5684 H   0  0  0  0  0  0  0  0  0  0  0  0
   -4.2429   16.0373  -13.8548 H   0  0  0  0  0  0  0  0  0  0  0  0
   -4.9638   16.2086  -12.2185 H   0  0  0  0  0  0  0  0  0  0  0  0
   -3.4785   15.2246  -12.4471 H   0  0  0  0  0  0  0  0  0  0  0  0
   -6.7526   12.3233   -6.9261 H   0  0  0  0  0  0  0  0  0  0  0  0
   -4.5246   13.2972   -6.4815 H   0  0  0  0  0  0  0  0  0  0  0  0
   -2.6730    9.7536   -8.0506 H   0  0  0  0  0  0  0  0  0  0  0  0
   -4.8993    8.7846   -8.4743 H   0  0  0  0  0  0  0  0  0  0  0  0
   -2.1327   11.7792   -5.9428 H   0  0  0  0  0  0  0  0  0  0  0  0
   -2.1167   14.2081   -7.1655 H   0  0  0  0  0  0  0  0  0  0  0  0
   -2.1807   13.5768   -5.4850 H   0  0  0  0  0  0  0  0  0  0  0  0
   -0.6614   10.5729   -7.5868 H   0  0  0  0  0  0  0  0  0  0  0  0
    1.4672   14.2904   -6.0634 H   0  0  0  0  0  0  0  0  0  0  0  0
    0.2117   15.4427   -6.6311 H   0  0  0  0  0  0  0  0  0  0  0  0
    0.1649   14.8218   -4.9462 H   0  0  0  0  0  0  0  0  0  0  0  0
  1  2  1  0  0  0  0
  1  4  1  0  0  0  0
  1 13  2  0  0  0  0
  2  6  2  0  0  0  0
  3  4  2  0  0  0  0
  3  5  1  0  0  0  0
  5  6  1  0  0  0  0
  5  9  2  0  0  0  0
  6  7  1  0  0  0  0
  7  8  2  0  0  0  0
  7 10  1  0  0  0  0
  8  9  1  0  0  0  0
 10 14  1  0  0  0  0
 11 12  1  0  0  0  0
 11 13  1  0  0  0  0
 11 26  2  0  0  0  0
 14 15  2  0  0  0  0
 14 19  1  0  0  0  0
 15 16  1  0  0  0  0
 16 17  2  0  0  0  0
 17 18  1  0  0  0  0
 17 20  1  0  0  0  0
 18 19  2  0  0  0  0
 20 21  1  0  0  0  0
 20 24  1  0  0  0  0
 21 22  1  0  0  0  0
 22 23  1  0  0  0  0
 22 25  1  0  0  0  0
 23 24  2  0  0  0  0
  2 27  1  0  0  0  0
  3 28  1  0  0  0  0
  4 29  1  0  0  0  0
 10 30  1  0  0  0  0
 10 31  1  0  0  0  0
 12 32  1  0  0  0  0
 12 33  1  0  0  0  0
 12 34  1  0  0  0  0
 15 35  1  0  0  0  0
 16 36  1  0  0  0  0
 18 37  1  0  0  0  0
 19 38  1  0  0  0  0
 20 39  1  0  0  0  0
 21 40  1  0  0  0  0
 21 41  1  0  0  0  0
 24 42  1  0  0  0  0
 25 43  1  0  0  0  0
 25 44  1  0  0  0  0
 25 45  1  0  0  0  0
M  END
> <Name>
24

> <IC50[uM]>
0.029

$$$$
24
  -OEChem-05192314333D
 Structure written by MMmdl.
 45 48  0     1  0  0  0  0  0999 V2000
   -6.3515   12.3530  -11.9813 C   0  0  0  0  0  0  0  0  0  0  0  0
   -6.5085   11.7912  -10.7247 C   0  0  0  0  0  0  0  0  0  0  0  0
   -7.6802   10.5716  -13.0438 C   0  0  0  0  0  0  0  0  0  0  0  0
   -6.9296   11.7657  -13.1245 C   0  0  0  0  0  0  0  0  0  0  0  0
   -7.7980   10.0044  -11.7669 C   0  0  3  0  0  0  0  0  0  0  0  0
   -7.2328   10.6109  -10.5989 C   0  0  0  0  0  0  0  0  0  0  0  0
   -7.6209    9.7375   -9.5162 C   0  0  0  0  0  0  0  0  0  0  0  0
   -8.2754    8.7446   -9.9970 N   0  0  0  0  0  0  0  0  0  0  0  0
   -8.4233    8.8800  -11.3218 N   0  0  0  0  0  0  0  0  0  0  0  0
   -7.3328    9.8812   -8.0296 C   0  0  0  0  0  0  0  0  0  0  0  0
   -5.3004   14.2773  -13.1499 C   0  0  0  0  0  0  0  0  0  0  0  0
   -4.4346   15.5261  -12.8998 C   0  0  0  0  0  0  0  0  0  0  0  0
   -5.5896   13.5586  -12.0343 N   0  0  0  0  0  0  0  0  0  0  0  0
   -5.9706   10.4906   -7.7317 C   0  0  0  0  0  0  0  0  0  0  0  0
   -5.8616   11.7632   -7.1684 C   0  0  0  0  0  0  0  0  0  0  0  0
   -4.6051   12.3126   -6.9180 C   0  0  0  0  0  0  0  0  0  0  0  0
   -3.4544   11.5948   -7.2294 C   0  0  0  0  0  0  0  0  0  0  0  0
   -3.5626   10.3128   -7.8011 C   0  0  0  0  0  0  0  0  0  0  0  0
   -4.8160    9.7710   -8.0425 C   0  0  0  0  0  0  0  0  0  0  0  0
   -2.1083   12.1736   -6.9694 C   0  0  3  0  0  0  0  0  0  0  0  0
   -1.7503   13.4247   -6.4858 C   0  0  0  0  0  0  0  0  0  0  0  0
   -0.4131   13.4674   -6.4189 N   0  0  3  0  0  0  0  0  0  0  0  0
    0.1758   12.3735   -6.8057 N   0  0  0  0  0  0  0  0  0  0  0  0
   -0.8094   11.5620   -7.1791 C   0  0  0  0  0  0  0  0  0  0  0  0
    0.4060   14.5705   -5.9896 C   0  0  0  0  0  0  0  0  0  0  0  0
   -5.6528   14.0066  -14.2746 O   0  0  0  0  0  0  0  0  0  0  0  0
   -6.0747   12.2631   -9.8555 H   0  0  0  0  0  0  0  0  0  0  0  0
   -8.1361   10.1224  -13.9137 H   0  0  0  0  0  0  0  0  0  0  0  0
   -6.7956   12.2399  -14.0855 H   0  0  0  0  0  0  0  0  0  0  0  0
   -6.8712    9.4340  -11.9273 H   0  0  0  0  0  0  0  0  0  0  0  0
   -8.0279    9.5798   -7.2599 H   0  0  0  0  0  0  0  0  0  0  0  0
   -4.2429   16.0373  -13.8548 H   0  0  0  0  0  0  0  0  0  0  0  0
   -4.9638   16.2086  -12.2185 H   0  0  0  0  0  0  0  0  0  0  0  0
   -3.4785   15.2246  -12.4471 H   0  0  0  0  0  0  0  0  0  0  0  0
   -6.7526   12.3233   -6.9261 H   0  0  0  0  0  0  0  0  0  0  0  0
   -4.5246   13.2972   -6.4815 H   0  0  0  0  0  0  0  0  0  0  0  0
   -2.6730    9.7536   -8.0506 H   0  0  0  0  0  0  0  0  0  0  0  0
   -4.8993    8.7846   -8.4743 H   0  0  0  0  0  0  0  0  0  0  0  0
   -2.1327   11.7792   -5.9428 H   0  0  0  0  0  0  0  0  0  0  0  0
   -2.1167   14.2081   -7.1655 H   0  0  0  0  0  0  0  0  0  0  0  0
   -2.1807   13.5768   -5.4850 H   0  0  0  0  0  0  0  0  0  0  0  0
   -0.6614   10.5729   -7.5868 H   0  0  0  0  0  0  0  0  0  0  0  0
    1.4672   14.2904   -6.0634 H   0  0  0  0  0  0  0  0  0  0  0  0
    0.2117   15.4427   -6.6311 H   0  0  0  0  0  0  0  0  0  0  0  0
    0.1649   14.8218   -4.9462 H   0  0  0  0  0  0  0  0  0  0  0  0
  1  2  1  0  0  0  0
  1  4  1  0  0  0  0
  1 13  2  0  0  0  0
  2  6  2  0  0  0  0
  3  4  2  0  0  0  0
  3  5  1  0  0  0  0
  5  6  1  0  0  0  0
  5  9  1  0  0  0  0
  6  7  1  0  0  0  0
  7  8  1  0  0  0  0
  7 10  2  3  0  0  0
  8  9  2  0  0  0  0
 10 14  1  0  0  0  0
 11 12  1  0  0  0  0
 11 13  1  0  0  0  0
 11 26  2  0  0  0  0
 14 15  2  0  0  0  0
 14 19  1  0  0  0  0
 15 16  1  0  0  0  0
 16 17  2  0  0  0  0
 17 18  1  0  0  0  0
 17 20  1  0  0  0  0
 18 19  2  0  0  0  0
 20 21  1  0  0  0  0
 20 24  1  0  0  0  0
 21 22  1  0  0  0  0
 22 23  1  0  0  0  0
 22 25  1  0  0  0  0
 23 24  2  0  0  0  0
  2 27  1  0  0  0  0
  3 28  1  0  0  0  0
  4 29  1  0  0  0  0
  5 30  1  0  0  0  0
 10 31  1  0  0  0  0
 12 32  1  0  0  0  0
 12 33  1  0  0  0  0
 12 34  1  0  0  0  0
 15 35  1  0  0  0  0
 16 36  1  0  0  0  0
 18 37  1  0  0  0  0
 19 38  1  0  0  0  0
 20 39  1  0  0  0  0
 21 40  1  0  0  0  0
 21 41  1  0  0  0  0
 24 42  1  0  0  0  0
 25 43  1  0  0  0  0
 25 44  1  0  0  0  0
 25 45  1  0  0  0  0
M  END
> <Name>
24

> <IC50[uM]>
0.029

$$$$
24
  -OEChem-05192314333D
 Structure written by MMmdl.
 45 48  0     1  0  0  0  0  0999 V2000
   -6.3515   12.3530  -11.9813 C   0  0  0  0  0  0  0  0  0  0  0  0
   -6.5085   11.7912  -10.7247 C   0  0  0  0  0  0  0  0  0  0  0  0
   -7.6802   10.5716  -13.0438 C   0  0  0  0  0  0  0  0  0  0  0  0
   -6.9296   11.7657  -13.1245 C   0  0  0  0  0  0  0  0  0  0  0  0
   -7.7980   10.0044  -11.7669 C   0  0  0  0  0  0  0  0  0  0  0  0
   -7.2328   10.6109  -10.5989 C   0  0  0  0  0  0  0  0  0  0  0  0
   -7.6209    9.7375   -9.5162 C   0  0  0  0  0  0  0  0  0  0  0  0
   -8.2754    8.7446   -9.9970 N   0  0  0  0  0  0  0  0  0  0  0  0
   -8.4233    8.8800  -11.3218 N   0  0  0  0  0  0  0  0  0  0  0  0
   -7.3328    9.8812   -8.0296 C   0  0  0  0  0  0  0  0  0  0  0  0
   -5.3004   14.2773  -13.1499 C   0  0  0  0  0  0  0  0  0  0  0  0
   -4.4346   15.5261  -12.8998 C   0  0  0  0  0  0  0  0  0  0  0  0
   -5.5896   13.5586  -12.0343 N   0  0  0  0  0  0  0  0  0  0  0  0
   -5.9706   10.4906   -7.7317 C   0  0  0  0  0  0  0  0  0  0  0  0
   -5.8616   11.7632   -7.1684 C   0  0  0  0  0  0  0  0  0  0  0  0
   -4.6051   12.3126   -6.9180 C   0  0  0  0  0  0  0  0  0  0  0  0
   -3.4544   11.5948   -7.2294 C   0  0  0  0  0  0  0  0  0  0  0  0
   -3.5626   10.3128   -7.8011 C   0  0  0  0  0  0  0  0  0  0  0  0
   -4.8160    9.7710   -8.0425 C   0  0  0  0  0  0  0  0  0  0  0  0
   -2.1083   12.1736   -6.9694 C   0  0  3  0  0  0  0  0  0  0  0  0
   -1.7503   13.4247   -6.4858 C   0  0  0  0  0  0  0  0  0  0  0  0
   -0.4131   13.4674   -6.4189 N   0  0  3  0  0  0  0  0  0  0  0  0
    0.1758   12.3735   -6.8057 N   0  0  0  0  0  0  0  0  0  0  0  0
   -0.8094   11.5620   -7.1791 C   0  0  0  0  0  0  0  0  0  0  0  0
    0.4060   14.5705   -5.9896 C   0  0  0  0  0  0  0  0  0  0  0  0
   -5.6528   14.0066  -14.2746 O   0  0  0  0  0  0  0  0  0  0  0  0
   -6.0747   12.2631   -9.8555 H   0  0  0  0  0  0  0  0  0  0  0  0
   -8.1361   10.1224  -13.9137 H   0  0  0  0  0  0  0  0  0  0  0  0
   -7.5989   12.5237  -13.5575 H   0  0  0  0  0  0  0  0  0  0  0  0
   -6.1027   11.5654  -13.8217 H   0  0  0  0  0  0  0  0  0  0  0  0
   -8.0279    9.5798   -7.2599 H   0  0  0  0  0  0  0  0  0  0  0  0
   -4.2429   16.0373  -13.8548 H   0  0  0  0  0  0  0  0  0  0  0  0
   -4.9638   16.2086  -12.2185 H   0  0  0  0  0  0  0  0  0  0  0  0
   -3.4785   15.2246  -12.4471 H   0  0  0  0  0  0  0  0  0  0  0  0
   -6.7526   12.3233   -6.9261 H   0  0  0  0  0  0  0  0  0  0  0  0
   -4.5246   13.2972   -6.4815 H   0  0  0  0  0  0  0  0  0  0  0  0
   -2.6730    9.7536   -8.0506 H   0  0  0  0  0  0  0  0  0  0  0  0
   -4.8993    8.7846   -8.4743 H   0  0  0  0  0  0  0  0  0  0  0  0
   -2.1327   11.7792   -5.9428 H   0  0  0  0  0  0  0  0  0  0  0  0
   -2.1167   14.2081   -7.1655 H   0  0  0  0  0  0  0  0  0  0  0  0
   -2.1807   13.5768   -5.4850 H   0  0  0  0  0  0  0  0  0  0  0  0
   -0.6614   10.5729   -7.5868 H   0  0  0  0  0  0  0  0  0  0  0  0
    1.4672   14.2904   -6.0634 H   0  0  0  0  0  0  0  0  0  0  0  0
    0.2117   15.4427   -6.6311 H   0  0  0  0  0  0  0  0  0  0  0  0
    0.1649   14.8218   -4.9462 H   0  0  0  0  0  0  0  0  0  0  0  0
  1  2  1  0  0  0  0
  1  4  1  0  0  0  0
  1 13  2  0  0  0  0
  2  6  2  0  0  0  0
  3  4  1  0  0  0  0
  3  5  2  0  0  0  0
  5  6  1  0  0  0  0
  5  9  1  0  0  0  0
  6  7  1  0  0  0  0
  7  8  1  0  0  0  0
  7 10  2  3  0  0  0
  8  9  2  0  0  0  0
 10 14  1  0  0  0  0
 11 12  1  0  0  0  0
 11 13  1  0  0  0  0
 11 26  2  0  0  0  0
 14 15  2  0  0  0  0
 14 19  1  0  0  0  0
 15 16  1  0  0  0  0
 16 17  2  0  0  0  0
 17 18  1  0  0  0  0
 17 20  1  0  0  0  0
 18 19  2  0  0  0  0
 20 21  1  0  0  0  0
 20 24  1  0  0  0  0
 21 22  1  0  0  0  0
 22 23  1  0  0  0  0
 22 25  1  0  0  0  0
 23 24  2  0  0  0  0
  2 27  1  0  0  0  0
  3 28  1  0  0  0  0
  4 29  1  0  0  0  0
  4 30  1  0  0  0  0
 10 31  1  0  0  0  0
 12 32  1  0  0  0  0
 12 33  1  0  0  0  0
 12 34  1  0  0  0  0
 15 35  1  0  0  0  0
 16 36  1  0  0  0  0
 18 37  1  0  0  0  0
 19 38  1  0  0  0  0
 20 39  1  0  0  0  0
 21 40  1  0  0  0  0
 21 41  1  0  0  0  0
 24 42  1  0  0  0  0
 25 43  1  0  0  0  0
 25 44  1  0  0  0  0
 25 45  1  0  0  0  0
M  END
> <Name>
24

> <IC50[uM]>
0.029

$$$$
24
  -OEChem-05192314333D
 Structure written by MMmdl.
 45 48  0     1  0  0  0  0  0999 V2000
   -6.3515   12.3530  -11.9813 C   0  0  0  0  0  0  0  0  0  0  0  0
   -6.5085   11.7912  -10.7247 C   0  0  0  0  0  0  0  0  0  0  0  0
   -7.6802   10.5716  -13.0438 C   0  0  0  0  0  0  0  0  0  0  0  0
   -6.9296   11.7657  -13.1245 C   0  0  0  0  0  0  0  0  0  0  0  0
   -7.7980   10.0044  -11.7669 C   0  0  0  0  0  0  0  0  0  0  0  0
   -7.2328   10.6109  -10.5989 C   0  0  0  0  0  0  0  0  0  0  0  0
   -7.6209    9.7375   -9.5162 C   0  0  0  0  0  0  0  0  0  0  0  0
   -8.2754    8.7446   -9.9970 N   0  0  0  0  0  0  0  0  0  0  0  0
   -8.4233    8.8800  -11.3218 N   0  0  0  0  0  0  0  0  0  0  0  0
   -7.3328    9.8812   -8.0296 C   0  0  0  0  0  0  0  0  0  0  0  0
   -5.3004   14.2773  -13.1499 C   0  0  0  0  0  0  0  0  0  0  0  0
   -4.4346   15.5261  -12.8998 C   0  0  0  0  0  0  0  0  0  0  0  0
   -5.5896   13.5586  -12.0343 N   0  0  0  0  0  0  0  0  0  0  0  0
   -5.9706   10.4906   -7.7317 C   0  0  0  0  0  0  0  0  0  0  0  0
   -5.8616   11.7632   -7.1684 C   0  0  0  0  0  0  0  0  0  0  0  0
   -4.6051   12.3126   -6.9180 C   0  0  0  0  0  0  0  0  0  0  0  0
   -3.4544   11.5948   -7.2294 C   0  0  0  0  0  0  0  0  0  0  0  0
   -3.5626   10.3128   -7.8011 C   0  0  0  0  0  0  0  0  0  0  0  0
   -4.8160    9.7710   -8.0425 C   0  0  0  0  0  0  0  0  0  0  0  0
   -2.1083   12.1736   -6.9694 C   0  0  3  0  0  0  0  0  0  0  0  0
   -1.7503   13.4247   -6.4858 C   0  0  0  0  0  0  0  0  0  0  0  0
   -0.4131   13.4674   -6.4189 N   0  0  3  0  0  0  0  0  0  0  0  0
    0.1758   12.3735   -6.8057 N   0  0  0  0  0  0  0  0  0  0  0  0
   -0.8094   11.5620   -7.1791 C   0  0  0  0  0  0  0  0  0  0  0  0
    0.4060   14.5705   -5.9896 C   0  0  0  0  0  0  0  0  0  0  0  0
   -5.6528   14.0066  -14.2746 O   0  0  0  0  0  0  0  0  0  0  0  0
   -5.5002   11.5939  -10.3317 H   0  0  0  0  0  0  0  0  0  0  0  0
   -7.0066   12.5435  -10.0954 H   0  0  0  0  0  0  0  0  0  0  0  0
   -8.1361   10.1224  -13.9137 H   0  0  0  0  0  0  0  0  0  0  0  0
   -6.7956   12.2399  -14.0855 H   0  0  0  0  0  0  0  0  0  0  0  0
   -8.0279    9.5798   -7.2599 H   0  0  0  0  0  0  0  0  0  0  0  0
   -4.2429   16.0373  -13.8548 H   0  0  0  0  0  0  0  0  0  0  0  0
   -4.9638   16.2086  -12.2185 H   0  0  0  0  0  0  0  0  0  0  0  0
   -3.4785   15.2246  -12.4471 H   0  0  0  0  0  0  0  0  0  0  0  0
   -6.7526   12.3233   -6.9261 H   0  0  0  0  0  0  0  0  0  0  0  0
   -4.5246   13.2972   -6.4815 H   0  0  0  0  0  0  0  0  0  0  0  0
   -2.6730    9.7536   -8.0506 H   0  0  0  0  0  0  0  0  0  0  0  0
   -4.8993    8.7846   -8.4743 H   0  0  0  0  0  0  0  0  0  0  0  0
   -2.1327   11.7792   -5.9428 H   0  0  0  0  0  0  0  0  0  0  0  0
   -2.1167   14.2081   -7.1655 H   0  0  0  0  0  0  0  0  0  0  0  0
   -2.1807   13.5768   -5.4850 H   0  0  0  0  0  0  0  0  0  0  0  0
   -0.6614   10.5729   -7.5868 H   0  0  0  0  0  0  0  0  0  0  0  0
    1.4672   14.2904   -6.0634 H   0  0  0  0  0  0  0  0  0  0  0  0
    0.2117   15.4427   -6.6311 H   0  0  0  0  0  0  0  0  0  0  0  0
    0.1649   14.8218   -4.9462 H   0  0  0  0  0  0  0  0  0  0  0  0
  1  2  1  0  0  0  0
  1  4  1  0  0  0  0
  1 13  2  0  0  0  0
  2  6  1  0  0  0  0
  3  4  2  0  0  0  0
  3  5  1  0  0  0  0
  5  6  2  0  0  0  0
  5  9  1  0  0  0  0
  6  7  1  0  0  0  0
  7  8  1  0  0  0  0
  7 10  2  3  0  0  0
  8  9  2  0  0  0  0
 10 14  1  0  0  0  0
 11 12  1  0  0  0  0
 11 13  1  0  0  0  0
 11 26  2  0  0  0  0
 14 15  2  0  0  0  0
 14 19  1  0  0  0  0
 15 16  1  0  0  0  0
 16 17  2  0  0  0  0
 17 18  1  0  0  0  0
 17 20  1  0  0  0  0
 18 19  2  0  0  0  0
 20 21  1  0  0  0  0
 20 24  1  0  0  0  0
 21 22  1  0  0  0  0
 22 23  1  0  0  0  0
 22 25  1  0  0  0  0
 23 24  2  0  0  0  0
  2 27  1  0  0  0  0
  2 28  1  0  0  0  0
  3 29  1  0  0  0  0
  4 30  1  0  0  0  0
 10 31  1  0  0  0  0
 12 32  1  0  0  0  0
 12 33  1  0  0  0  0
 12 34  1  0  0  0  0
 15 35  1  0  0  0  0
 16 36  1  0  0  0  0
 18 37  1  0  0  0  0
 19 38  1  0  0  0  0
 20 39  1  0  0  0  0
 21 40  1  0  0  0  0
 21 41  1  0  0  0  0
 24 42  1  0  0  0  0
 25 43  1  0  0  0  0
 25 44  1  0  0  0  0
 25 45  1  0  0  0  0
M  END
> <Name>
24

> <IC50[uM]>
0.029

$$$$
24
  -OEChem-05192314333D
 Structure written by MMmdl.
 45 48  0     1  0  0  0  0  0999 V2000
   -6.3515   12.3530  -11.9813 C   0  0  0  0  0  0  0  0  0  0  0  0
   -6.5085   11.7912  -10.7247 C   0  0  0  0  0  0  0  0  0  0  0  0
   -7.6802   10.5716  -13.0438 C   0  0  0  0  0  0  0  0  0  0  0  0
   -6.9296   11.7657  -13.1245 C   0  0  0  0  0  0  0  0  0  0  0  0
   -7.7980   10.0044  -11.7669 C   0  0  0  0  0  0  0  0  0  0  0  0
   -7.2328   10.6109  -10.5989 C   0  0  0  0  0  0  0  0  0  0  0  0
   -7.6209    9.7375   -9.5162 C   0  0  0  0  0  0  0  0  0  0  0  0
   -8.2754    8.7446   -9.9970 N   0  0  0  0  0  0  0  0  0  0  0  0
   -8.4233    8.8800  -11.3218 N   0  0  0  0  0  0  0  0  0  0  0  0
   -7.3328    9.8812   -8.0296 C   0  0  0  0  0  0  0  0  0  0  0  0
   -5.3004   14.2773  -13.1499 C   0  0  0  0  0  0  0  0  0  0  0  0
   -4.4346   15.5261  -12.8998 C   0  0  0  0  0  0  0  0  0  0  0  0
   -5.5896   13.5586  -12.0343 N   0  0  0  0  0  0  0  0  0  0  0  0
   -5.9706   10.4906   -7.7317 C   0  0  0  0  0  0  0  0  0  0  0  0
   -5.8616   11.7632   -7.1684 C   0  0  0  0  0  0  0  0  0  0  0  0
   -4.6051   12.3126   -6.9180 C   0  0  0  0  0  0  0  0  0  0  0  0
   -3.4544   11.5948   -7.2294 C   0  0  0  0  0  0  0  0  0  0  0  0
   -3.5626   10.3128   -7.8011 C   0  0  0  0  0  0  0  0  0  0  0  0
   -4.8160    9.7710   -8.0425 C   0  0  0  0  0  0  0  0  0  0  0  0
   -2.1083   12.1736   -6.9694 C   0  0  0  0  0  0  0  0  0  0  0  0
   -1.7503   13.4247   -6.4858 C   0  0  0  0  0  0  0  0  0  0  0  0
   -0.4131   13.4674   -6.4189 N   0  0  3  0  0  0  0  0  0  0  0  0
    0.1758   12.3735   -6.8057 N   0  0  0  0  0  0  0  0  0  0  0  0
   -0.8094   11.5620   -7.1791 C   0  0  0  0  0  0  0  0  0  0  0  0
    0.4060   14.5705   -5.9896 C   0  0  0  0  0  0  0  0  0  0  0  0
   -5.6528   14.0066  -14.2746 O   0  0  0  0  0  0  0  0  0  0  0  0
   -6.0747   12.2631   -9.8555 H   0  0  0  0  0  0  0  0  0  0  0  0
   -8.1361   10.1224  -13.9137 H   0  0  0  0  0  0  0  0  0  0  0  0
   -6.7956   12.2399  -14.0855 H   0  0  0  0  0  0  0  0  0  0  0  0
   -8.1067   10.5245   -7.5855 H   0  0  0  0  0  0  0  0  0  0  0  0
   -7.3763    8.8835   -7.5684 H   0  0  0  0  0  0  0  0  0  0  0  0
   -4.2429   16.0373  -13.8548 H   0  0  0  0  0  0  0  0  0  0  0  0
   -4.9638   16.2086  -12.2185 H   0  0  0  0  0  0  0  0  0  0  0  0
   -3.4785   15.2246  -12.4471 H   0  0  0  0  0  0  0  0  0  0  0  0
   -6.7526   12.3233   -6.9261 H   0  0  0  0  0  0  0  0  0  0  0  0
   -4.5246   13.2972   -6.4815 H   0  0  0  0  0  0  0  0  0  0  0  0
   -2.6730    9.7536   -8.0506 H   0  0  0  0  0  0  0  0  0  0  0  0
   -4.8993    8.7846   -8.4743 H   0  0  0  0  0  0  0  0  0  0  0  0
   -2.4278   14.2202   -6.2127 H   0  0  0  0  0  0  0  0  0  0  0  0
    0.7889   12.5578   -7.5739 H   0  0  0  0  0  0  0  0  0  0  0  0
   -0.7515   10.6346   -6.5905 H   0  0  0  0  0  0  0  0  0  0  0  0
   -0.6933   11.3262   -8.2472 H   0  0  0  0  0  0  0  0  0  0  0  0
    1.4668   14.2860   -6.0513 H   0  0  0  0  0  0  0  0  0  0  0  0
    0.2210   15.4389   -6.6390 H   0  0  0  0  0  0  0  0  0  0  0  0
    0.1560   14.8300   -4.9503 H   0  0  0  0  0  0  0  0  0  0  0  0
  1  2  1  0  0  0  0
  1  4  1  0  0  0  0
  1 13  2  0  0  0  0
  2  6  2  0  0  0  0
  3  4  2  0  0  0  0
  3  5  1  0  0  0  0
  5  6  1  0  0  0  0
  5  9  2  0  0  0  0
  6  7  1  0  0  0  0
  7  8  2  0  0  0  0
  7 10  1  0  0  0  0
  8  9  1  0  0  0  0
 10 14  1  0  0  0  0
 11 12  1  0  0  0  0
 11 13  1  0  0  0  0
 11 26  2  0  0  0  0
 14 15  2  0  0  0  0
 14 19  1  0  0  0  0
 15 16  1  0  0  0  0
 16 17  2  0  0  0  0
 17 18  1  0  0  0  0
 17 20  1  0  0  0  0
 18 19  2  0  0  0  0
 20 21  2  0  0  0  0
 20 24  1  0  0  0  0
 21 22  1  0  0  0  0
 22 23  1  0  0  0  0
 22 25  1  0  0  0  0
 23 24  1  0  0  0  0
  2 27  1  0  0  0  0
  3 28  1  0  0  0  0
  4 29  1  0  0  0  0
 10 30  1  0  0  0  0
 10 31  1  0  0  0  0
 12 32  1  0  0  0  0
 12 33  1  0  0  0  0
 12 34  1  0  0  0  0
 15 35  1  0  0  0  0
 16 36  1  0  0  0  0
 18 37  1  0  0  0  0
 19 38  1  0  0  0  0
 21 39  1  0  0  0  0
 23 40  1  0  0  0  0
 24 41  1  0  0  0  0
 24 42  1  0  0  0  0
 25 43  1  0  0  0  0
 25 44  1  0  0  0  0
 25 45  1  0  0  0  0
M  END
> <Name>
24

> <IC50[uM]>
0.029

$$$$
24
  -OEChem-05192314333D
 Structure written by MMmdl.
 45 48  0     1  0  0  0  0  0999 V2000
   -6.3515   12.3530  -11.9813 C   0  0  0  0  0  0  0  0  0  0  0  0
   -6.5085   11.7912  -10.7247 C   0  0  0  0  0  0  0  0  0  0  0  0
   -7.6802   10.5716  -13.0438 C   0  0  0  0  0  0  0  0  0  0  0  0
   -6.9296   11.7657  -13.1245 C   0  0  0  0  0  0  0  0  0  0  0  0
   -7.7980   10.0044  -11.7669 C   0  0  0  0  0  0  0  0  0  0  0  0
   -7.2328   10.6109  -10.5989 C   0  0  0  0  0  0  0  0  0  0  0  0
   -7.6209    9.7375   -9.5162 C   0  0  0  0  0  0  0  0  0  0  0  0
   -8.2754    8.7446   -9.9970 N   0  0  0  0  0  0  0  0  0  0  0  0
   -8.4233    8.8800  -11.3218 N   0  0  0  0  0  0  0  0  0  0  0  0
   -7.3328    9.8812   -8.0296 C   0  0  0  0  0  0  0  0  0  0  0  0
   -5.3004   14.2773  -13.1499 C   0  0  0  0  0  0  0  0  0  0  0  0
   -4.4346   15.5261  -12.8998 C   0  0  0  0  0  0  0  0  0  0  0  0
   -5.5896   13.5586  -12.0343 N   0  0  0  0  0  0  0  0  0  0  0  0
   -5.9706   10.4906   -7.7317 C   0  0  0  0  0  0  0  0  0  0  0  0
   -5.8616   11.7632   -7.1684 C   0  0  0  0  0  0  0  0  0  0  0  0
   -4.6051   12.3126   -6.9180 C   0  0  0  0  0  0  0  0  0  0  0  0
   -3.4544   11.5948   -7.2294 C   0  0  0  0  0  0  0  0  0  0  0  0
   -3.5626   10.3128   -7.8011 C   0  0  0  0  0  0  0  0  0  0  0  0
   -4.8160    9.7710   -8.0425 C   0  0  0  0  0  0  0  0  0  0  0  0
   -2.1083   12.1736   -6.9694 C   0  0  0  0  0  0  0  0  0  0  0  0
   -1.7503   13.4247   -6.4858 C   0  0  0  0  0  0  0  0  0  0  0  0
   -0.4131   13.4674   -6.4189 N   0  0  3  0  0  0  0  0  0  0  0  0
    0.1758   12.3735   -6.8057 N   0  0  0  0  0  0  0  0  0  0  0  0
   -0.8094   11.5620   -7.1791 C   0  0  0  0  0  0  0  0  0  0  0  0
    0.4060   14.5705   -5.9896 C   0  0  0  0  0  0  0  0  0  0  0  0
   -5.6528   14.0066  -14.2746 O   0  0  0  0  0  0  0  0  0  0  0  0
   -6.0747   12.2631   -9.8555 H   0  0  0  0  0  0  0  0  0  0  0  0
   -8.1361   10.1224  -13.9137 H   0  0  0  0  0  0  0  0  0  0  0  0
   -6.7956   12.2399  -14.0855 H   0  0  0  0  0  0  0  0  0  0  0  0
   -8.1067   10.5245   -7.5855 H   0  0  0  0  0  0  0  0  0  0  0  0
   -7.3763    8.8835   -7.5684 H   0  0  0  0  0  0  0  0  0  0  0  0
   -4.2429   16.0373  -13.8548 H   0  0  0  0  0  0  0  0  0  0  0  0
   -4.9638   16.2086  -12.2185 H   0  0  0  0  0  0  0  0  0  0  0  0
   -3.4785   15.2246  -12.4471 H   0  0  0  0  0  0  0  0  0  0  0  0
   -6.7526   12.3233   -6.9261 H   0  0  0  0  0  0  0  0  0  0  0  0
   -4.5246   13.2972   -6.4815 H   0  0  0  0  0  0  0  0  0  0  0  0
   -2.6730    9.7536   -8.0506 H   0  0  0  0  0  0  0  0  0  0  0  0
   -4.8993    8.7846   -8.4743 H   0  0  0  0  0  0  0  0  0  0  0  0
   -2.1167   14.2081   -7.1655 H   0  0  0  0  0  0  0  0  0  0  0  0
   -2.1807   13.5768   -5.4850 H   0  0  0  0  0  0  0  0  0  0  0  0
    0.7889   12.5578   -7.5739 H   0  0  0  0  0  0  0  0  0  0  0  0
   -0.6614   10.5729   -7.5868 H   0  0  0  0  0  0  0  0  0  0  0  0
    1.4668   14.2860   -6.0513 H   0  0  0  0  0  0  0  0  0  0  0  0
    0.2210   15.4389   -6.6390 H   0  0  0  0  0  0  0  0  0  0  0  0
    0.1560   14.8300   -4.9503 H   0  0  0  0  0  0  0  0  0  0  0  0
  1  2  1  0  0  0  0
  1  4  1  0  0  0  0
  1 13  2  0  0  0  0
  2  6  2  0  0  0  0
  3  4  2  0  0  0  0
  3  5  1  0  0  0  0
  5  6  1  0  0  0  0
  5  9  2  0  0  0  0
  6  7  1  0  0  0  0
  7  8  2  0  0  0  0
  7 10  1  0  0  0  0
  8  9  1  0  0  0  0
 10 14  1  0  0  0  0
 11 12  1  0  0  0  0
 11 13  1  0  0  0  0
 11 26  2  0  0  0  0
 14 15  2  0  0  0  0
 14 19  1  0  0  0  0
 15 16  1  0  0  0  0
 16 17  2  0  0  0  0
 17 18  1  0  0  0  0
 17 20  1  0  0  0  0
 18 19  2  0  0  0  0
 20 21  1  0  0  0  0
 20 24  2  0  0  0  0
 21 22  1  0  0  0  0
 22 23  1  0  0  0  0
 22 25  1  0  0  0  0
 23 24  1  0  0  0  0
  2 27  1  0  0  0  0
  3 28  1  0  0  0  0
  4 29  1  0  0  0  0
 10 30  1  0  0  0  0
 10 31  1  0  0  0  0
 12 32  1  0  0  0  0
 12 33  1  0  0  0  0
 12 34  1  0  0  0  0
 15 35  1  0  0  0  0
 16 36  1  0  0  0  0
 18 37  1  0  0  0  0
 19 38  1  0  0  0  0
 21 39  1  0  0  0  0
 21 40  1  0  0  0  0
 23 41  1  0  0  0  0
 24 42  1  0  0  0  0
 25 43  1  0  0  0  0
 25 44  1  0  0  0  0
 25 45  1  0  0  0  0
M  END
> <Name>
24

> <IC50[uM]>
0.029

$$$$
24
  -OEChem-05192314333D
 Structure written by MMmdl.
 45 48  0     1  0  0  0  0  0999 V2000
   -6.3515   12.3530  -11.9813 C   0  0  0  0  0  0  0  0  0  0  0  0
   -6.5085   11.7912  -10.7247 C   0  0  0  0  0  0  0  0  0  0  0  0
   -7.6802   10.5716  -13.0438 C   0  0  0  0  0  0  0  0  0  0  0  0
   -6.9296   11.7657  -13.1245 C   0  0  0  0  0  0  0  0  0  0  0  0
   -7.7980   10.0044  -11.7669 C   0  0  0  0  0  0  0  0  0  0  0  0
   -7.2328   10.6109  -10.5989 C   0  0  0  0  0  0  0  0  0  0  0  0
   -7.6209    9.7375   -9.5162 C   0  0  0  0  0  0  0  0  0  0  0  0
   -8.2754    8.7446   -9.9970 N   0  0  0  0  0  0  0  0  0  0  0  0
   -8.4233    8.8800  -11.3218 N   0  0  0  0  0  0  0  0  0  0  0  0
   -7.3328    9.8812   -8.0296 C   0  0  0  0  0  0  0  0  0  0  0  0
   -5.3004   14.2773  -13.1499 C   0  0  0  0  0  0  0  0  0  0  0  0
   -4.4346   15.5261  -12.8998 C   0  0  0  0  0  0  0  0  0  0  0  0
   -5.5896   13.5586  -12.0343 N   0  0  0  0  0  0  0  0  0  0  0  0
   -5.9706   10.4906   -7.7317 C   0  0  0  0  0  0  0  0  0  0  0  0
   -5.8616   11.7632   -7.1684 C   0  0  0  0  0  0  0  0  0  0  0  0
   -4.6051   12.3126   -6.9180 C   0  0  0  0  0  0  0  0  0  0  0  0
   -3.4544   11.5948   -7.2294 C   0  0  0  0  0  0  0  0  0  0  0  0
   -3.5626   10.3128   -7.8011 C   0  0  0  0  0  0  0  0  0  0  0  0
   -4.8160    9.7710   -8.0425 C   0  0  0  0  0  0  0  0  0  0  0  0
   -2.1083   12.1736   -6.9694 C   0  0  0  0  0  0  0  0  0  0  0  0
   -1.7503   13.4247   -6.4858 C   0  0  0  0  0  0  0  0  0  0  0  0
   -0.4131   13.4674   -6.4189 N   0  0  3  0  0  0  0  0  0  0  0  0
    0.1758   12.3735   -6.8057 N   0  0  0  0  0  0  0  0  0  0  0  0
   -0.8094   11.5620   -7.1791 C   0  0  0  0  0  0  0  0  0  0  0  0
    0.4060   14.5705   -5.9896 C   0  0  0  0  0  0  0  0  0  0  0  0
   -5.6528   14.0066  -14.2746 O   0  0  0  0  0  0  0  0  0  0  0  0
   -6.0747   12.2631   -9.8555 H   0  0  0  0  0  0  0  0  0  0  0  0
   -8.1361   10.1224  -13.9137 H   0  0  0  0  0  0  0  0  0  0  0  0
   -6.7956   12.2399  -14.0855 H   0  0  0  0  0  0  0  0  0  0  0  0
   -8.0279    9.5798   -7.2599 H   0  0  0  0  0  0  0  0  0  0  0  0
   -4.2429   16.0373  -13.8548 H   0  0  0  0  0  0  0  0  0  0  0  0
   -4.9638   16.2086  -12.2185 H   0  0  0  0  0  0  0  0  0  0  0  0
   -3.4785   15.2246  -12.4471 H   0  0  0  0  0  0  0  0  0  0  0  0
   -5.2347   13.9076  -11.1670 H   0  0  0  0  0  0  0  0  0  0  0  0
   -5.9851   10.0423   -6.7273 H   0  0  0  0  0  0  0  0  0  0  0  0
   -6.7526   12.3233   -6.9261 H   0  0  0  0  0  0  0  0  0  0  0  0
   -4.5246   13.2972   -6.4815 H   0  0  0  0  0  0  0  0  0  0  0  0
   -2.6730    9.7536   -8.0506 H   0  0  0  0  0  0  0  0  0  0  0  0
   -4.8993    8.7846   -8.4743 H   0  0  0  0  0  0  0  0  0  0  0  0
   -2.1167   14.2081   -7.1655 H   0  0  0  0  0  0  0  0  0  0  0  0
   -2.1807   13.5768   -5.4850 H   0  0  0  0  0  0  0  0  0  0  0  0
   -0.6614   10.5729   -7.5868 H   0  0  0  0  0  0  0  0  0  0  0  0
    1.4672   14.2904   -6.0634 H   0  0  0  0  0  0  0  0  0  0  0  0
    0.2117   15.4427   -6.6311 H   0  0  0  0  0  0  0  0  0  0  0  0
    0.1649   14.8218   -4.9462 H   0  0  0  0  0  0  0  0  0  0  0  0
  1  2  2  0  0  0  0
  1  4  1  0  0  0  0
  1 13  1  0  0  0  0
  2  6  1  0  0  0  0
  3  4  2  0  0  0  0
  3  5  1  0  0  0  0
  5  6  2  0  0  0  0
  5  9  1  0  0  0  0
  6  7  1  0  0  0  0
  7  8  1  0  0  0  0
  7 10  2  3  0  0  0
  8  9  2  0  0  0  0
 10 14  1  0  0  0  0
 11 12  1  0  0  0  0
 11 13  1  0  0  0  0
 11 26  2  0  0  0  0
 14 15  1  0  0  0  0
 14 19  1  0  0  0  0
 15 16  2  0  0  0  0
 16 17  1  0  0  0  0
 17 18  1  0  0  0  0
 17 20  2  0  0  0  0
 18 19  2  0  0  0  0
 20 21  1  0  0  0  0
 20 24  1  0  0  0  0
 21 22  1  0  0  0  0
 22 23  1  0  0  0  0
 22 25  1  0  0  0  0
 23 24  2  0  0  0  0
  2 27  1  0  0  0  0
  3 28  1  0  0  0  0
  4 29  1  0  0  0  0
 10 30  1  0  0  0  0
 12 31  1  0  0  0  0
 12 32  1  0  0  0  0
 12 33  1  0  0  0  0
 13 34  1  0  0  0  0
 14 35  1  0  0  0  0
 15 36  1  0  0  0  0
 16 37  1  0  0  0  0
 18 38  1  0  0  0  0
 19 39  1  0  0  0  0
 21 40  1  0  0  0  0
 21 41  1  0  0  0  0
 24 42  1  0  0  0  0
 25 43  1  0  0  0  0
 25 44  1  0  0  0  0
 25 45  1  0  0  0  0
M  END
> <Name>
24

> <IC50[uM]>
0.029

$$$$
24
  -OEChem-05192314333D
 Structure written by MMmdl.
 45 48  0     1  0  0  0  0  0999 V2000
   -6.3515   12.3530  -11.9813 C   0  0  0  0  0  0  0  0  0  0  0  0
   -6.5085   11.7912  -10.7247 C   0  0  0  0  0  0  0  0  0  0  0  0
   -7.6802   10.5716  -13.0438 C   0  0  0  0  0  0  0  0  0  0  0  0
   -6.9296   11.7657  -13.1245 C   0  0  0  0  0  0  0  0  0  0  0  0
   -7.7980   10.0044  -11.7669 C   0  0  0  0  0  0  0  0  0  0  0  0
   -7.2328   10.6109  -10.5989 C   0  0  0  0  0  0  0  0  0  0  0  0
   -7.6209    9.7375   -9.5162 C   0  0  0  0  0  0  0  0  0  0  0  0
   -8.2754    8.7446   -9.9970 N   0  0  0  0  0  0  0  0  0  0  0  0
   -8.4233    8.8800  -11.3218 N   0  0  0  0  0  0  0  0  0  0  0  0
   -7.3328    9.8812   -8.0296 C   0  0  0  0  0  0  0  0  0  0  0  0
   -5.3004   14.2773  -13.1499 C   0  0  0  0  0  0  0  0  0  0  0  0
   -4.4346   15.5261  -12.8998 C   0  0  0  0  0  0  0  0  0  0  0  0
   -5.5896   13.5586  -12.0343 N   0  0  0  0  0  0  0  0  0  0  0  0
   -5.9706   10.4906   -7.7317 C   0  0  0  0  0  0  0  0  0  0  0  0
   -5.8616   11.7632   -7.1684 C   0  0  0  0  0  0  0  0  0  0  0  0
   -4.6051   12.3126   -6.9180 C   0  0  0  0  0  0  0  0  0  0  0  0
   -3.4544   11.5948   -7.2294 C   0  0  0  0  0  0  0  0  0  0  0  0
   -3.5626   10.3128   -7.8011 C   0  0  0  0  0  0  0  0  0  0  0  0
   -4.8160    9.7710   -8.0425 C   0  0  0  0  0  0  0  0  0  0  0  0
   -2.1083   12.1736   -6.9694 C   0  0  0  0  0  0  0  0  0  0  0  0
   -1.7503   13.4247   -6.4858 C   0  0  0  0  0  0  0  0  0  0  0  0
   -0.4131   13.4674   -6.4189 N   0  0  3  0  0  0  0  0  0  0  0  0
    0.1758   12.3735   -6.8057 N   0  0  0  0  0  0  0  0  0  0  0  0
   -0.8094   11.5620   -7.1791 C   0  0  0  0  0  0  0  0  0  0  0  0
    0.4060   14.5705   -5.9896 C   0  0  0  0  0  0  0  0  0  0  0  0
   -5.6528   14.0066  -14.2746 O   0  0  0  0  0  0  0  0  0  0  0  0
   -6.0747   12.2631   -9.8555 H   0  0  0  0  0  0  0  0  0  0  0  0
   -8.1361   10.1224  -13.9137 H   0  0  0  0  0  0  0  0  0  0  0  0
   -6.7956   12.2399  -14.0855 H   0  0  0  0  0  0  0  0  0  0  0  0
   -8.0279    9.5798   -7.2599 H   0  0  0  0  0  0  0  0  0  0  0  0
   -4.2429   16.0373  -13.8548 H   0  0  0  0  0  0  0  0  0  0  0  0
   -4.9638   16.2086  -12.2185 H   0  0  0  0  0  0  0  0  0  0  0  0
   -3.4785   15.2246  -12.4471 H   0  0  0  0  0  0  0  0  0  0  0  0
   -5.2347   13.9076  -11.1670 H   0  0  0  0  0  0  0  0  0  0  0  0
   -6.7526   12.3233   -6.9261 H   0  0  0  0  0  0  0  0  0  0  0  0
   -4.5531   13.2553   -7.4825 H   0  0  0  0  0  0  0  0  0  0  0  0
   -4.5624   12.5279   -5.8401 H   0  0  0  0  0  0  0  0  0  0  0  0
   -2.6730    9.7536   -8.0506 H   0  0  0  0  0  0  0  0  0  0  0  0
   -4.8993    8.7846   -8.4743 H   0  0  0  0  0  0  0  0  0  0  0  0
   -2.1167   14.2081   -7.1655 H   0  0  0  0  0  0  0  0  0  0  0  0
   -2.1807   13.5768   -5.4850 H   0  0  0  0  0  0  0  0  0  0  0  0
   -0.6614   10.5729   -7.5868 H   0  0  0  0  0  0  0  0  0  0  0  0
    1.4672   14.2904   -6.0634 H   0  0  0  0  0  0  0  0  0  0  0  0
    0.2117   15.4427   -6.6311 H   0  0  0  0  0  0  0  0  0  0  0  0
    0.1649   14.8218   -4.9462 H   0  0  0  0  0  0  0  0  0  0  0  0
  1  2  2  0  0  0  0
  1  4  1  0  0  0  0
  1 13  1  0  0  0  0
  2  6  1  0  0  0  0
  3  4  2  0  0  0  0
  3  5  1  0  0  0  0
  5  6  2  0  0  0  0
  5  9  1  0  0  0  0
  6  7  1  0  0  0  0
  7  8  1  0  0  0  0
  7 10  2  3  0  0  0
  8  9  2  0  0  0  0
 10 14  1  0  0  0  0
 11 12  1  0  0  0  0
 11 13  1  0  0  0  0
 11 26  2  0  0  0  0
 14 15  2  0  0  0  0
 14 19  1  0  0  0  0
 15 16  1  0  0  0  0
 16 17  1  0  0  0  0
 17 18  1  0  0  0  0
 17 20  2  0  0  0  0
 18 19  2  0  0  0  0
 20 21  1  0  0  0  0
 20 24  1  0  0  0  0
 21 22  1  0  0  0  0
 22 23  1  0  0  0  0
 22 25  1  0  0  0  0
 23 24  2  0  0  0  0
  2 27  1  0  0  0  0
  3 28  1  0  0  0  0
  4 29  1  0  0  0  0
 10 30  1  0  0  0  0
 12 31  1  0  0  0  0
 12 32  1  0  0  0  0
 12 33  1  0  0  0  0
 13 34  1  0  0  0  0
 15 35  1  0  0  0  0
 16 36  1  0  0  0  0
 16 37  1  0  0  0  0
 18 38  1  0  0  0  0
 19 39  1  0  0  0  0
 21 40  1  0  0  0  0
 21 41  1  0  0  0  0
 24 42  1  0  0  0  0
 25 43  1  0  0  0  0
 25 44  1  0  0  0  0
 25 45  1  0  0  0  0
M  END
> <Name>
24

> <IC50[uM]>
0.029

$$$$
24
  -OEChem-05192314333D
 Structure written by MMmdl.
 45 48  0     1  0  0  0  0  0999 V2000
   -6.3515   12.3530  -11.9813 C   0  0  0  0  0  0  0  0  0  0  0  0
   -6.5085   11.7912  -10.7247 C   0  0  0  0  0  0  0  0  0  0  0  0
   -7.6802   10.5716  -13.0438 C   0  0  0  0  0  0  0  0  0  0  0  0
   -6.9296   11.7657  -13.1245 C   0  0  0  0  0  0  0  0  0  0  0  0
   -7.7980   10.0044  -11.7669 C   0  0  3  0  0  0  0  0  0  0  0  0
   -7.2328   10.6109  -10.5989 C   0  0  0  0  0  0  0  0  0  0  0  0
   -7.6209    9.7375   -9.5162 C   0  0  0  0  0  0  0  0  0  0  0  0
   -8.2754    8.7446   -9.9970 N   0  0  0  0  0  0  0  0  0  0  0  0
   -8.4233    8.8800  -11.3218 N   0  0  0  0  0  0  0  0  0  0  0  0
   -7.3328    9.8812   -8.0296 C   0  0  0  0  0  0  0  0  0  0  0  0
   -5.3004   14.2773  -13.1499 C   0  0  0  0  0  0  0  0  0  0  0  0
   -4.4346   15.5261  -12.8998 C   0  0  0  0  0  0  0  0  0  0  0  0
   -5.5896   13.5586  -12.0343 N   0  0  0  0  0  0  0  0  0  0  0  0
   -5.9706   10.4906   -7.7317 C   0  0  0  0  0  0  0  0  0  0  0  0
   -5.8616   11.7632   -7.1684 C   0  0  0  0  0  0  0  0  0  0  0  0
   -4.6051   12.3126   -6.9180 C   0  0  0  0  0  0  0  0  0  0  0  0
   -3.4544   11.5948   -7.2294 C   0  0  0  0  0  0  0  0  0  0  0  0
   -3.5626   10.3128   -7.8011 C   0  0  0  0  0  0  0  0  0  0  0  0
   -4.8160    9.7710   -8.0425 C   0  0  0  0  0  0  0  0  0  0  0  0
   -2.1083   12.1736   -6.9694 C   0  0  0  0  0  0  0  0  0  0  0  0
   -1.7503   13.4247   -6.4858 C   0  0  0  0  0  0  0  0  0  0  0  0
   -0.4131   13.4674   -6.4189 N   0  0  3  0  0  0  0  0  0  0  0  0
    0.1758   12.3735   -6.8057 N   0  0  0  0  0  0  0  0  0  0  0  0
   -0.8094   11.5620   -7.1791 C   0  0  0  0  0  0  0  0  0  0  0  0
    0.4060   14.5705   -5.9896 C   0  0  0  0  0  0  0  0  0  0  0  0
   -5.6528   14.0066  -14.2746 O   0  0  0  0  0  0  0  0  0  0  0  0
   -6.0747   12.2631   -9.8555 H   0  0  0  0  0  0  0  0  0  0  0  0
   -8.1361   10.1224  -13.9137 H   0  0  0  0  0  0  0  0  0  0  0  0
   -6.7956   12.2399  -14.0855 H   0  0  0  0  0  0  0  0  0  0  0  0
   -6.8712    9.4340  -11.9273 H   0  0  0  0  0  0  0  0  0  0  0  0
   -8.0279    9.5798   -7.2599 H   0  0  0  0  0  0  0  0  0  0  0  0
   -4.2429   16.0373  -13.8548 H   0  0  0  0  0  0  0  0  0  0  0  0
   -4.9638   16.2086  -12.2185 H   0  0  0  0  0  0  0  0  0  0  0  0
   -3.4785   15.2246  -12.4471 H   0  0  0  0  0  0  0  0  0  0  0  0
   -6.7526   12.3233   -6.9261 H   0  0  0  0  0  0  0  0  0  0  0  0
   -4.5246   13.2972   -6.4815 H   0  0  0  0  0  0  0  0  0  0  0  0
   -2.6730    9.7536   -8.0506 H   0  0  0  0  0  0  0  0  0  0  0  0
   -4.8993    8.7846   -8.4743 H   0  0  0  0  0  0  0  0  0  0  0  0
   -2.4278   14.2202   -6.2127 H   0  0  0  0  0  0  0  0  0  0  0  0
    0.7889   12.5578   -7.5739 H   0  0  0  0  0  0  0  0  0  0  0  0
   -0.7515   10.6346   -6.5905 H   0  0  0  0  0  0  0  0  0  0  0  0
   -0.6933   11.3262   -8.2472 H   0  0  0  0  0  0  0  0  0  0  0  0
    1.4668   14.2860   -6.0513 H   0  0  0  0  0  0  0  0  0  0  0  0
    0.2210   15.4389   -6.6390 H   0  0  0  0  0  0  0  0  0  0  0  0
    0.1560   14.8300   -4.9503 H   0  0  0  0  0  0  0  0  0  0  0  0
  1  2  1  0  0  0  0
  1  4  1  0  0  0  0
  1 13  2  0  0  0  0
  2  6  2  0  0  0  0
  3  4  2  0  0  0  0
  3  5  1  0  0  0  0
  5  6  1  0  0  0  0
  5  9  1  0  0  0  0
  6  7  1  0  0  0  0
  7  8  1  0  0  0  0
  7 10  2  3  0  0  0
  8  9  2  0  0  0  0
 10 14  1  0  0  0  0
 11 12  1  0  0  0  0
 11 13  1  0  0  0  0
 11 26  2  0  0  0  0
 14 15  2  0  0  0  0
 14 19  1  0  0  0  0
 15 16  1  0  0  0  0
 16 17  2  0  0  0  0
 17 18  1  0  0  0  0
 17 20  1  0  0  0  0
 18 19  2  0  0  0  0
 20 21  2  0  0  0  0
 20 24  1  0  0  0  0
 21 22  1  0  0  0  0
 22 23  1  0  0  0  0
 22 25  1  0  0  0  0
 23 24  1  0  0  0  0
  2 27  1  0  0  0  0
  3 28  1  0  0  0  0
  4 29  1  0  0  0  0
  5 30  1  0  0  0  0
 10 31  1  0  0  0  0
 12 32  1  0  0  0  0
 12 33  1  0  0  0  0
 12 34  1  0  0  0  0
 15 35  1  0  0  0  0
 16 36  1  0  0  0  0
 18 37  1  0  0  0  0
 19 38  1  0  0  0  0
 21 39  1  0  0  0  0
 23 40  1  0  0  0  0
 24 41  1  0  0  0  0
 24 42  1  0  0  0  0
 25 43  1  0  0  0  0
 25 44  1  0  0  0  0
 25 45  1  0  0  0  0
M  END
> <Name>
24

> <IC50[uM]>
0.029

$$$$
24
  -OEChem-05192314333D
 Structure written by MMmdl.
 45 48  0     1  0  0  0  0  0999 V2000
   -6.3515   12.3530  -11.9813 C   0  0  0  0  0  0  0  0  0  0  0  0
   -6.5085   11.7912  -10.7247 C   0  0  0  0  0  0  0  0  0  0  0  0
   -7.6802   10.5716  -13.0438 C   0  0  0  0  0  0  0  0  0  0  0  0
   -6.9296   11.7657  -13.1245 C   0  0  0  0  0  0  0  0  0  0  0  0
   -7.7980   10.0044  -11.7669 C   0  0  0  0  0  0  0  0  0  0  0  0
   -7.2328   10.6109  -10.5989 C   0  0  0  0  0  0  0  0  0  0  0  0
   -7.6209    9.7375   -9.5162 C   0  0  0  0  0  0  0  0  0  0  0  0
   -8.2754    8.7446   -9.9970 N   0  0  0  0  0  0  0  0  0  0  0  0
   -8.4233    8.8800  -11.3218 N   0  0  0  0  0  0  0  0  0  0  0  0
   -7.3328    9.8812   -8.0296 C   0  0  0  0  0  0  0  0  0  0  0  0
   -5.3004   14.2773  -13.1499 C   0  0  0  0  0  0  0  0  0  0  0  0
   -4.4346   15.5261  -12.8998 C   0  0  0  0  0  0  0  0  0  0  0  0
   -5.5896   13.5586  -12.0343 N   0  0  0  0  0  0  0  0  0  0  0  0
   -5.9706   10.4906   -7.7317 C   0  0  0  0  0  0  0  0  0  0  0  0
   -5.8616   11.7632   -7.1684 C   0  0  0  0  0  0  0  0  0  0  0  0
   -4.6051   12.3126   -6.9180 C   0  0  0  0  0  0  0  0  0  0  0  0
   -3.4544   11.5948   -7.2294 C   0  0  0  0  0  0  0  0  0  0  0  0
   -3.5626   10.3128   -7.8011 C   0  0  0  0  0  0  0  0  0  0  0  0
   -4.8160    9.7710   -8.0425 C   0  0  0  0  0  0  0  0  0  0  0  0
   -2.1083   12.1736   -6.9694 C   0  0  0  0  0  0  0  0  0  0  0  0
   -1.7503   13.4247   -6.4858 C   0  0  0  0  0  0  0  0  0  0  0  0
   -0.4131   13.4674   -6.4189 N   0  0  3  0  0  0  0  0  0  0  0  0
    0.1758   12.3735   -6.8057 N   0  0  0  0  0  0  0  0  0  0  0  0
   -0.8094   11.5620   -7.1791 C   0  0  0  0  0  0  0  0  0  0  0  0
    0.4060   14.5705   -5.9896 C   0  0  0  0  0  0  0  0  0  0  0  0
   -5.6528   14.0066  -14.2746 O   0  0  0  0  0  0  0  0  0  0  0  0
   -6.0747   12.2631   -9.8555 H   0  0  0  0  0  0  0  0  0  0  0  0
   -8.1361   10.1224  -13.9137 H   0  0  0  0  0  0  0  0  0  0  0  0
   -7.5989   12.5237  -13.5575 H   0  0  0  0  0  0  0  0  0  0  0  0
   -6.1027   11.5654  -13.8217 H   0  0  0  0  0  0  0  0  0  0  0  0
   -8.0279    9.5798   -7.2599 H   0  0  0  0  0  0  0  0  0  0  0  0
   -4.2429   16.0373  -13.8548 H   0  0  0  0  0  0  0  0  0  0  0  0
   -4.9638   16.2086  -12.2185 H   0  0  0  0  0  0  0  0  0  0  0  0
   -3.4785   15.2246  -12.4471 H   0  0  0  0  0  0  0  0  0  0  0  0
   -6.7526   12.3233   -6.9261 H   0  0  0  0  0  0  0  0  0  0  0  0
   -4.5246   13.2972   -6.4815 H   0  0  0  0  0  0  0  0  0  0  0  0
   -2.6730    9.7536   -8.0506 H   0  0  0  0  0  0  0  0  0  0  0  0
   -4.8993    8.7846   -8.4743 H   0  0  0  0  0  0  0  0  0  0  0  0
   -2.4278   14.2202   -6.2127 H   0  0  0  0  0  0  0  0  0  0  0  0
    0.7889   12.5578   -7.5739 H   0  0  0  0  0  0  0  0  0  0  0  0
   -0.7515   10.6346   -6.5905 H   0  0  0  0  0  0  0  0  0  0  0  0
   -0.6933   11.3262   -8.2472 H   0  0  0  0  0  0  0  0  0  0  0  0
    1.4668   14.2860   -6.0513 H   0  0  0  0  0  0  0  0  0  0  0  0
    0.2210   15.4389   -6.6390 H   0  0  0  0  0  0  0  0  0  0  0  0
    0.1560   14.8300   -4.9503 H   0  0  0  0  0  0  0  0  0  0  0  0
  1  2  1  0  0  0  0
  1  4  1  0  0  0  0
  1 13  2  0  0  0  0
  2  6  2  0  0  0  0
  3  4  1  0  0  0  0
  3  5  2  0  0  0  0
  5  6  1  0  0  0  0
  5  9  1  0  0  0  0
  6  7  1  0  0  0  0
  7  8  1  0  0  0  0
  7 10  2  3  0  0  0
  8  9  2  0  0  0  0
 10 14  1  0  0  0  0
 11 12  1  0  0  0  0
 11 13  1  0  0  0  0
 11 26  2  0  0  0  0
 14 15  2  0  0  0  0
 14 19  1  0  0  0  0
 15 16  1  0  0  0  0
 16 17  2  0  0  0  0
 17 18  1  0  0  0  0
 17 20  1  0  0  0  0
 18 19  2  0  0  0  0
 20 21  2  0  0  0  0
 20 24  1  0  0  0  0
 21 22  1  0  0  0  0
 22 23  1  0  0  0  0
 22 25  1  0  0  0  0
 23 24  1  0  0  0  0
  2 27  1  0  0  0  0
  3 28  1  0  0  0  0
  4 29  1  0  0  0  0
  4 30  1  0  0  0  0
 10 31  1  0  0  0  0
 12 32  1  0  0  0  0
 12 33  1  0  0  0  0
 12 34  1  0  0  0  0
 15 35  1  0  0  0  0
 16 36  1  0  0  0  0
 18 37  1  0  0  0  0
 19 38  1  0  0  0  0
 21 39  1  0  0  0  0
 23 40  1  0  0  0  0
 24 41  1  0  0  0  0
 24 42  1  0  0  0  0
 25 43  1  0  0  0  0
 25 44  1  0  0  0  0
 25 45  1  0  0  0  0
M  END
> <Name>
24

> <IC50[uM]>
0.029

$$$$
24
  -OEChem-05192314333D
 Structure written by MMmdl.
 45 48  0     1  0  0  0  0  0999 V2000
   -6.3515   12.3530  -11.9813 C   0  0  0  0  0  0  0  0  0  0  0  0
   -6.5085   11.7912  -10.7247 C   0  0  0  0  0  0  0  0  0  0  0  0
   -7.6802   10.5716  -13.0438 C   0  0  0  0  0  0  0  0  0  0  0  0
   -6.9296   11.7657  -13.1245 C   0  0  0  0  0  0  0  0  0  0  0  0
   -7.7980   10.0044  -11.7669 C   0  0  0  0  0  0  0  0  0  0  0  0
   -7.2328   10.6109  -10.5989 C   0  0  0  0  0  0  0  0  0  0  0  0
   -7.6209    9.7375   -9.5162 C   0  0  0  0  0  0  0  0  0  0  0  0
   -8.2754    8.7446   -9.9970 N   0  0  0  0  0  0  0  0  0  0  0  0
   -8.4233    8.8800  -11.3218 N   0  0  0  0  0  0  0  0  0  0  0  0
   -7.3328    9.8812   -8.0296 C   0  0  0  0  0  0  0  0  0  0  0  0
   -5.3004   14.2773  -13.1499 C   0  0  0  0  0  0  0  0  0  0  0  0
   -4.4346   15.5261  -12.8998 C   0  0  0  0  0  0  0  0  0  0  0  0
   -5.5896   13.5586  -12.0343 N   0  0  0  0  0  0  0  0  0  0  0  0
   -5.9706   10.4906   -7.7317 C   0  0  0  0  0  0  0  0  0  0  0  0
   -5.8616   11.7632   -7.1684 C   0  0  0  0  0  0  0  0  0  0  0  0
   -4.6051   12.3126   -6.9180 C   0  0  0  0  0  0  0  0  0  0  0  0
   -3.4544   11.5948   -7.2294 C   0  0  0  0  0  0  0  0  0  0  0  0
   -3.5626   10.3128   -7.8011 C   0  0  0  0  0  0  0  0  0  0  0  0
   -4.8160    9.7710   -8.0425 C   0  0  0  0  0  0  0  0  0  0  0  0
   -2.1083   12.1736   -6.9694 C   0  0  0  0  0  0  0  0  0  0  0  0
   -1.7503   13.4247   -6.4858 C   0  0  0  0  0  0  0  0  0  0  0  0
   -0.4131   13.4674   -6.4189 N   0  0  3  0  0  0  0  0  0  0  0  0
    0.1758   12.3735   -6.8057 N   0  0  0  0  0  0  0  0  0  0  0  0
   -0.8094   11.5620   -7.1791 C   0  0  0  0  0  0  0  0  0  0  0  0
    0.4060   14.5705   -5.9896 C   0  0  0  0  0  0  0  0  0  0  0  0
   -5.6528   14.0066  -14.2746 O   0  0  0  0  0  0  0  0  0  0  0  0
   -5.5002   11.5939  -10.3317 H   0  0  0  0  0  0  0  0  0  0  0  0
   -7.0066   12.5435  -10.0954 H   0  0  0  0  0  0  0  0  0  0  0  0
   -8.1361   10.1224  -13.9137 H   0  0  0  0  0  0  0  0  0  0  0  0
   -6.7956   12.2399  -14.0855 H   0  0  0  0  0  0  0  0  0  0  0  0
   -8.0279    9.5798   -7.2599 H   0  0  0  0  0  0  0  0  0  0  0  0
   -4.2429   16.0373  -13.8548 H   0  0  0  0  0  0  0  0  0  0  0  0
   -4.9638   16.2086  -12.2185 H   0  0  0  0  0  0  0  0  0  0  0  0
   -3.4785   15.2246  -12.4471 H   0  0  0  0  0  0  0  0  0  0  0  0
   -6.7526   12.3233   -6.9261 H   0  0  0  0  0  0  0  0  0  0  0  0
   -4.5246   13.2972   -6.4815 H   0  0  0  0  0  0  0  0  0  0  0  0
   -2.6730    9.7536   -8.0506 H   0  0  0  0  0  0  0  0  0  0  0  0
   -4.8993    8.7846   -8.4743 H   0  0  0  0  0  0  0  0  0  0  0  0
   -2.4278   14.2202   -6.2127 H   0  0  0  0  0  0  0  0  0  0  0  0
    0.7889   12.5578   -7.5739 H   0  0  0  0  0  0  0  0  0  0  0  0
   -0.7515   10.6346   -6.5905 H   0  0  0  0  0  0  0  0  0  0  0  0
   -0.6933   11.3262   -8.2472 H   0  0  0  0  0  0  0  0  0  0  0  0
    1.4668   14.2860   -6.0513 H   0  0  0  0  0  0  0  0  0  0  0  0
    0.2210   15.4389   -6.6390 H   0  0  0  0  0  0  0  0  0  0  0  0
    0.1560   14.8300   -4.9503 H   0  0  0  0  0  0  0  0  0  0  0  0
  1  2  1  0  0  0  0
  1  4  1  0  0  0  0
  1 13  2  0  0  0  0
  2  6  1  0  0  0  0
  3  4  2  0  0  0  0
  3  5  1  0  0  0  0
  5  6  2  0  0  0  0
  5  9  1  0  0  0  0
  6  7  1  0  0  0  0
  7  8  1  0  0  0  0
  7 10  2  3  0  0  0
  8  9  2  0  0  0  0
 10 14  1  0  0  0  0
 11 12  1  0  0  0  0
 11 13  1  0  0  0  0
 11 26  2  0  0  0  0
 14 15  2  0  0  0  0
 14 19  1  0  0  0  0
 15 16  1  0  0  0  0
 16 17  2  0  0  0  0
 17 18  1  0  0  0  0
 17 20  1  0  0  0  0
 18 19  2  0  0  0  0
 20 21  2  0  0  0  0
 20 24  1  0  0  0  0
 21 22  1  0  0  0  0
 22 23  1  0  0  0  0
 22 25  1  0  0  0  0
 23 24  1  0  0  0  0
  2 27  1  0  0  0  0
  2 28  1  0  0  0  0
  3 29  1  0  0  0  0
  4 30  1  0  0  0  0
 10 31  1  0  0  0  0
 12 32  1  0  0  0  0
 12 33  1  0  0  0  0
 12 34  1  0  0  0  0
 15 35  1  0  0  0  0
 16 36  1  0  0  0  0
 18 37  1  0  0  0  0
 19 38  1  0  0  0  0
 21 39  1  0  0  0  0
 23 40  1  0  0  0  0
 24 41  1  0  0  0  0
 24 42  1  0  0  0  0
 25 43  1  0  0  0  0
 25 44  1  0  0  0  0
 25 45  1  0  0  0  0
M  END
> <Name>
24

> <IC50[uM]>
0.029

$$$$
24
  -OEChem-05192314333D
 Structure written by MMmdl.
 45 48  0     1  0  0  0  0  0999 V2000
   -6.3515   12.3530  -11.9813 C   0  0  0  0  0  0  0  0  0  0  0  0
   -6.5085   11.7912  -10.7247 C   0  0  0  0  0  0  0  0  0  0  0  0
   -7.6802   10.5716  -13.0438 C   0  0  0  0  0  0  0  0  0  0  0  0
   -6.9296   11.7657  -13.1245 C   0  0  0  0  0  0  0  0  0  0  0  0
   -7.7980   10.0044  -11.7669 C   0  0  3  0  0  0  0  0  0  0  0  0
   -7.2328   10.6109  -10.5989 C   0  0  0  0  0  0  0  0  0  0  0  0
   -7.6209    9.7375   -9.5162 C   0  0  0  0  0  0  0  0  0  0  0  0
   -8.2754    8.7446   -9.9970 N   0  0  0  0  0  0  0  0  0  0  0  0
   -8.4233    8.8800  -11.3218 N   0  0  0  0  0  0  0  0  0  0  0  0
   -7.3328    9.8812   -8.0296 C   0  0  0  0  0  0  0  0  0  0  0  0
   -5.3004   14.2773  -13.1499 C   0  0  0  0  0  0  0  0  0  0  0  0
   -4.4346   15.5261  -12.8998 C   0  0  0  0  0  0  0  0  0  0  0  0
   -5.5896   13.5586  -12.0343 N   0  0  0  0  0  0  0  0  0  0  0  0
   -5.9706   10.4906   -7.7317 C   0  0  0  0  0  0  0  0  0  0  0  0
   -5.8616   11.7632   -7.1684 C   0  0  0  0  0  0  0  0  0  0  0  0
   -4.6051   12.3126   -6.9180 C   0  0  0  0  0  0  0  0  0  0  0  0
   -3.4544   11.5948   -7.2294 C   0  0  0  0  0  0  0  0  0  0  0  0
   -3.5626   10.3128   -7.8011 C   0  0  0  0  0  0  0  0  0  0  0  0
   -4.8160    9.7710   -8.0425 C   0  0  0  0  0  0  0  0  0  0  0  0
   -2.1083   12.1736   -6.9694 C   0  0  0  0  0  0  0  0  0  0  0  0
   -1.7503   13.4247   -6.4858 C   0  0  0  0  0  0  0  0  0  0  0  0
   -0.4131   13.4674   -6.4189 N   0  0  3  0  0  0  0  0  0  0  0  0
    0.1758   12.3735   -6.8057 N   0  0  0  0  0  0  0  0  0  0  0  0
   -0.8094   11.5620   -7.1791 C   0  0  0  0  0  0  0  0  0  0  0  0
    0.4060   14.5705   -5.9896 C   0  0  0  0  0  0  0  0  0  0  0  0
   -5.6528   14.0066  -14.2746 O   0  0  0  0  0  0  0  0  0  0  0  0
   -6.0747   12.2631   -9.8555 H   0  0  0  0  0  0  0  0  0  0  0  0
   -8.1361   10.1224  -13.9137 H   0  0  0  0  0  0  0  0  0  0  0  0
   -6.7956   12.2399  -14.0855 H   0  0  0  0  0  0  0  0  0  0  0  0
   -6.8712    9.4340  -11.9273 H   0  0  0  0  0  0  0  0  0  0  0  0
   -8.0279    9.5798   -7.2599 H   0  0  0  0  0  0  0  0  0  0  0  0
   -4.2429   16.0373  -13.8548 H   0  0  0  0  0  0  0  0  0  0  0  0
   -4.9638   16.2086  -12.2185 H   0  0  0  0  0  0  0  0  0  0  0  0
   -3.4785   15.2246  -12.4471 H   0  0  0  0  0  0  0  0  0  0  0  0
   -6.7526   12.3233   -6.9261 H   0  0  0  0  0  0  0  0  0  0  0  0
   -4.5246   13.2972   -6.4815 H   0  0  0  0  0  0  0  0  0  0  0  0
   -2.6730    9.7536   -8.0506 H   0  0  0  0  0  0  0  0  0  0  0  0
   -4.8993    8.7846   -8.4743 H   0  0  0  0  0  0  0  0  0  0  0  0
   -2.1167   14.2081   -7.1655 H   0  0  0  0  0  0  0  0  0  0  0  0
   -2.1807   13.5768   -5.4850 H   0  0  0  0  0  0  0  0  0  0  0  0
    0.7889   12.5578   -7.5739 H   0  0  0  0  0  0  0  0  0  0  0  0
   -0.6614   10.5729   -7.5868 H   0  0  0  0  0  0  0  0  0  0  0  0
    1.4668   14.2860   -6.0513 H   0  0  0  0  0  0  0  0  0  0  0  0
    0.2210   15.4389   -6.6390 H   0  0  0  0  0  0  0  0  0  0  0  0
    0.1560   14.8300   -4.9503 H   0  0  0  0  0  0  0  0  0  0  0  0
  1  2  1  0  0  0  0
  1  4  1  0  0  0  0
  1 13  2  0  0  0  0
  2  6  2  0  0  0  0
  3  4  2  0  0  0  0
  3  5  1  0  0  0  0
  5  6  1  0  0  0  0
  5  9  1  0  0  0  0
  6  7  1  0  0  0  0
  7  8  1  0  0  0  0
  7 10  2  3  0  0  0
  8  9  2  0  0  0  0
 10 14  1  0  0  0  0
 11 12  1  0  0  0  0
 11 13  1  0  0  0  0
 11 26  2  0  0  0  0
 14 15  2  0  0  0  0
 14 19  1  0  0  0  0
 15 16  1  0  0  0  0
 16 17  2  0  0  0  0
 17 18  1  0  0  0  0
 17 20  1  0  0  0  0
 18 19  2  0  0  0  0
 20 21  1  0  0  0  0
 20 24  2  0  0  0  0
 21 22  1  0  0  0  0
 22 23  1  0  0  0  0
 22 25  1  0  0  0  0
 23 24  1  0  0  0  0
  2 27  1  0  0  0  0
  3 28  1  0  0  0  0
  4 29  1  0  0  0  0
  5 30  1  0  0  0  0
 10 31  1  0  0  0  0
 12 32  1  0  0  0  0
 12 33  1  0  0  0  0
 12 34  1  0  0  0  0
 15 35  1  0  0  0  0
 16 36  1  0  0  0  0
 18 37  1  0  0  0  0
 19 38  1  0  0  0  0
 21 39  1  0  0  0  0
 21 40  1  0  0  0  0
 23 41  1  0  0  0  0
 24 42  1  0  0  0  0
 25 43  1  0  0  0  0
 25 44  1  0  0  0  0
 25 45  1  0  0  0  0
M  END
> <Name>
24

> <IC50[uM]>
0.029

$$$$
24
  -OEChem-05192314333D
 Structure written by MMmdl.
 45 48  0     1  0  0  0  0  0999 V2000
   -6.3515   12.3530  -11.9813 C   0  0  0  0  0  0  0  0  0  0  0  0
   -6.5085   11.7912  -10.7247 C   0  0  0  0  0  0  0  0  0  0  0  0
   -7.6802   10.5716  -13.0438 C   0  0  0  0  0  0  0  0  0  0  0  0
   -6.9296   11.7657  -13.1245 C   0  0  0  0  0  0  0  0  0  0  0  0
   -7.7980   10.0044  -11.7669 C   0  0  0  0  0  0  0  0  0  0  0  0
   -7.2328   10.6109  -10.5989 C   0  0  0  0  0  0  0  0  0  0  0  0
   -7.6209    9.7375   -9.5162 C   0  0  0  0  0  0  0  0  0  0  0  0
   -8.2754    8.7446   -9.9970 N   0  0  0  0  0  0  0  0  0  0  0  0
   -8.4233    8.8800  -11.3218 N   0  0  0  0  0  0  0  0  0  0  0  0
   -7.3328    9.8812   -8.0296 C   0  0  0  0  0  0  0  0  0  0  0  0
   -5.3004   14.2773  -13.1499 C   0  0  0  0  0  0  0  0  0  0  0  0
   -4.4346   15.5261  -12.8998 C   0  0  0  0  0  0  0  0  0  0  0  0
   -5.5896   13.5586  -12.0343 N   0  0  0  0  0  0  0  0  0  0  0  0
   -5.9706   10.4906   -7.7317 C   0  0  0  0  0  0  0  0  0  0  0  0
   -5.8616   11.7632   -7.1684 C   0  0  0  0  0  0  0  0  0  0  0  0
   -4.6051   12.3126   -6.9180 C   0  0  0  0  0  0  0  0  0  0  0  0
   -3.4544   11.5948   -7.2294 C   0  0  0  0  0  0  0  0  0  0  0  0
   -3.5626   10.3128   -7.8011 C   0  0  0  0  0  0  0  0  0  0  0  0
   -4.8160    9.7710   -8.0425 C   0  0  0  0  0  0  0  0  0  0  0  0
   -2.1083   12.1736   -6.9694 C   0  0  0  0  0  0  0  0  0  0  0  0
   -1.7503   13.4247   -6.4858 C   0  0  0  0  0  0  0  0  0  0  0  0
   -0.4131   13.4674   -6.4189 N   0  0  3  0  0  0  0  0  0  0  0  0
    0.1758   12.3735   -6.8057 N   0  0  0  0  0  0  0  0  0  0  0  0
   -0.8094   11.5620   -7.1791 C   0  0  0  0  0  0  0  0  0  0  0  0
    0.4060   14.5705   -5.9896 C   0  0  0  0  0  0  0  0  0  0  0  0
   -5.6528   14.0066  -14.2746 O   0  0  0  0  0  0  0  0  0  0  0  0
   -6.0747   12.2631   -9.8555 H   0  0  0  0  0  0  0  0  0  0  0  0
   -8.1361   10.1224  -13.9137 H   0  0  0  0  0  0  0  0  0  0  0  0
   -7.5989   12.5237  -13.5575 H   0  0  0  0  0  0  0  0  0  0  0  0
   -6.1027   11.5654  -13.8217 H   0  0  0  0  0  0  0  0  0  0  0  0
   -8.0279    9.5798   -7.2599 H   0  0  0  0  0  0  0  0  0  0  0  0
   -4.2429   16.0373  -13.8548 H   0  0  0  0  0  0  0  0  0  0  0  0
   -4.9638   16.2086  -12.2185 H   0  0  0  0  0  0  0  0  0  0  0  0
   -3.4785   15.2246  -12.4471 H   0  0  0  0  0  0  0  0  0  0  0  0
   -6.7526   12.3233   -6.9261 H   0  0  0  0  0  0  0  0  0  0  0  0
   -4.5246   13.2972   -6.4815 H   0  0  0  0  0  0  0  0  0  0  0  0
   -2.6730    9.7536   -8.0506 H   0  0  0  0  0  0  0  0  0  0  0  0
   -4.8993    8.7846   -8.4743 H   0  0  0  0  0  0  0  0  0  0  0  0
   -2.1167   14.2081   -7.1655 H   0  0  0  0  0  0  0  0  0  0  0  0
   -2.1807   13.5768   -5.4850 H   0  0  0  0  0  0  0  0  0  0  0  0
    0.7889   12.5578   -7.5739 H   0  0  0  0  0  0  0  0  0  0  0  0
   -0.6614   10.5729   -7.5868 H   0  0  0  0  0  0  0  0  0  0  0  0
    1.4668   14.2860   -6.0513 H   0  0  0  0  0  0  0  0  0  0  0  0
    0.2210   15.4389   -6.6390 H   0  0  0  0  0  0  0  0  0  0  0  0
    0.1560   14.8300   -4.9503 H   0  0  0  0  0  0  0  0  0  0  0  0
  1  2  1  0  0  0  0
  1  4  1  0  0  0  0
  1 13  2  0  0  0  0
  2  6  2  0  0  0  0
  3  4  1  0  0  0  0
  3  5  2  0  0  0  0
  5  6  1  0  0  0  0
  5  9  1  0  0  0  0
  6  7  1  0  0  0  0
  7  8  1  0  0  0  0
  7 10  2  3  0  0  0
  8  9  2  0  0  0  0
 10 14  1  0  0  0  0
 11 12  1  0  0  0  0
 11 13  1  0  0  0  0
 11 26  2  0  0  0  0
 14 15  2  0  0  0  0
 14 19  1  0  0  0  0
 15 16  1  0  0  0  0
 16 17  2  0  0  0  0
 17 18  1  0  0  0  0
 17 20  1  0  0  0  0
 18 19  2  0  0  0  0
 20 21  1  0  0  0  0
 20 24  2  0  0  0  0
 21 22  1  0  0  0  0
 22 23  1  0  0  0  0
 22 25  1  0  0  0  0
 23 24  1  0  0  0  0
  2 27  1  0  0  0  0
  3 28  1  0  0  0  0
  4 29  1  0  0  0  0
  4 30  1  0  0  0  0
 10 31  1  0  0  0  0
 12 32  1  0  0  0  0
 12 33  1  0  0  0  0
 12 34  1  0  0  0  0
 15 35  1  0  0  0  0
 16 36  1  0  0  0  0
 18 37  1  0  0  0  0
 19 38  1  0  0  0  0
 21 39  1  0  0  0  0
 21 40  1  0  0  0  0
 23 41  1  0  0  0  0
 24 42  1  0  0  0  0
 25 43  1  0  0  0  0
 25 44  1  0  0  0  0
 25 45  1  0  0  0  0
M  END
> <Name>
24

> <IC50[uM]>
0.029

$$$$
24
  -OEChem-05192314333D
 Structure written by MMmdl.
 45 48  0     1  0  0  0  0  0999 V2000
   -6.3515   12.3530  -11.9813 C   0  0  0  0  0  0  0  0  0  0  0  0
   -6.5085   11.7912  -10.7247 C   0  0  0  0  0  0  0  0  0  0  0  0
   -7.6802   10.5716  -13.0438 C   0  0  0  0  0  0  0  0  0  0  0  0
   -6.9296   11.7657  -13.1245 C   0  0  0  0  0  0  0  0  0  0  0  0
   -7.7980   10.0044  -11.7669 C   0  0  0  0  0  0  0  0  0  0  0  0
   -7.2328   10.6109  -10.5989 C   0  0  0  0  0  0  0  0  0  0  0  0
   -7.6209    9.7375   -9.5162 C   0  0  0  0  0  0  0  0  0  0  0  0
   -8.2754    8.7446   -9.9970 N   0  0  0  0  0  0  0  0  0  0  0  0
   -8.4233    8.8800  -11.3218 N   0  0  0  0  0  0  0  0  0  0  0  0
   -7.3328    9.8812   -8.0296 C   0  0  0  0  0  0  0  0  0  0  0  0
   -5.3004   14.2773  -13.1499 C   0  0  0  0  0  0  0  0  0  0  0  0
   -4.4346   15.5261  -12.8998 C   0  0  0  0  0  0  0  0  0  0  0  0
   -5.5896   13.5586  -12.0343 N   0  0  0  0  0  0  0  0  0  0  0  0
   -5.9706   10.4906   -7.7317 C   0  0  0  0  0  0  0  0  0  0  0  0
   -5.8616   11.7632   -7.1684 C   0  0  0  0  0  0  0  0  0  0  0  0
   -4.6051   12.3126   -6.9180 C   0  0  0  0  0  0  0  0  0  0  0  0
   -3.4544   11.5948   -7.2294 C   0  0  0  0  0  0  0  0  0  0  0  0
   -3.5626   10.3128   -7.8011 C   0  0  0  0  0  0  0  0  0  0  0  0
   -4.8160    9.7710   -8.0425 C   0  0  0  0  0  0  0  0  0  0  0  0
   -2.1083   12.1736   -6.9694 C   0  0  0  0  0  0  0  0  0  0  0  0
   -1.7503   13.4247   -6.4858 C   0  0  0  0  0  0  0  0  0  0  0  0
   -0.4131   13.4674   -6.4189 N   0  0  3  0  0  0  0  0  0  0  0  0
    0.1758   12.3735   -6.8057 N   0  0  0  0  0  0  0  0  0  0  0  0
   -0.8094   11.5620   -7.1791 C   0  0  0  0  0  0  0  0  0  0  0  0
    0.4060   14.5705   -5.9896 C   0  0  0  0  0  0  0  0  0  0  0  0
   -5.6528   14.0066  -14.2746 O   0  0  0  0  0  0  0  0  0  0  0  0
   -5.5002   11.5939  -10.3317 H   0  0  0  0  0  0  0  0  0  0  0  0
   -7.0066   12.5435  -10.0954 H   0  0  0  0  0  0  0  0  0  0  0  0
   -8.1361   10.1224  -13.9137 H   0  0  0  0  0  0  0  0  0  0  0  0
   -6.7956   12.2399  -14.0855 H   0  0  0  0  0  0  0  0  0  0  0  0
   -8.0279    9.5798   -7.2599 H   0  0  0  0  0  0  0  0  0  0  0  0
   -4.2429   16.0373  -13.8548 H   0  0  0  0  0  0  0  0  0  0  0  0
   -4.9638   16.2086  -12.2185 H   0  0  0  0  0  0  0  0  0  0  0  0
   -3.4785   15.2246  -12.4471 H   0  0  0  0  0  0  0  0  0  0  0  0
   -6.7526   12.3233   -6.9261 H   0  0  0  0  0  0  0  0  0  0  0  0
   -4.5246   13.2972   -6.4815 H   0  0  0  0  0  0  0  0  0  0  0  0
   -2.6730    9.7536   -8.0506 H   0  0  0  0  0  0  0  0  0  0  0  0
   -4.8993    8.7846   -8.4743 H   0  0  0  0  0  0  0  0  0  0  0  0
   -2.1167   14.2081   -7.1655 H   0  0  0  0  0  0  0  0  0  0  0  0
   -2.1807   13.5768   -5.4850 H   0  0  0  0  0  0  0  0  0  0  0  0
    0.7889   12.5578   -7.5739 H   0  0  0  0  0  0  0  0  0  0  0  0
   -0.6614   10.5729   -7.5868 H   0  0  0  0  0  0  0  0  0  0  0  0
    1.4668   14.2860   -6.0513 H   0  0  0  0  0  0  0  0  0  0  0  0
    0.2210   15.4389   -6.6390 H   0  0  0  0  0  0  0  0  0  0  0  0
    0.1560   14.8300   -4.9503 H   0  0  0  0  0  0  0  0  0  0  0  0
  1  2  1  0  0  0  0
  1  4  1  0  0  0  0
  1 13  2  0  0  0  0
  2  6  1  0  0  0  0
  3  4  2  0  0  0  0
  3  5  1  0  0  0  0
  5  6  2  0  0  0  0
  5  9  1  0  0  0  0
  6  7  1  0  0  0  0
  7  8  1  0  0  0  0
  7 10  2  3  0  0  0
  8  9  2  0  0  0  0
 10 14  1  0  0  0  0
 11 12  1  0  0  0  0
 11 13  1  0  0  0  0
 11 26  2  0  0  0  0
 14 15  2  0  0  0  0
 14 19  1  0  0  0  0
 15 16  1  0  0  0  0
 16 17  2  0  0  0  0
 17 18  1  0  0  0  0
 17 20  1  0  0  0  0
 18 19  2  0  0  0  0
 20 21  1  0  0  0  0
 20 24  2  0  0  0  0
 21 22  1  0  0  0  0
 22 23  1  0  0  0  0
 22 25  1  0  0  0  0
 23 24  1  0  0  0  0
  2 27  1  0  0  0  0
  2 28  1  0  0  0  0
  3 29  1  0  0  0  0
  4 30  1  0  0  0  0
 10 31  1  0  0  0  0
 12 32  1  0  0  0  0
 12 33  1  0  0  0  0
 12 34  1  0  0  0  0
 15 35  1  0  0  0  0
 16 36  1  0  0  0  0
 18 37  1  0  0  0  0
 19 38  1  0  0  0  0
 21 39  1  0  0  0  0
 21 40  1  0  0  0  0
 23 41  1  0  0  0  0
 24 42  1  0  0  0  0
 25 43  1  0  0  0  0
 25 44  1  0  0  0  0
 25 45  1  0  0  0  0
M  END
> <Name>
24

> <IC50[uM]>
0.029

$$$$
24
  -OEChem-05192314333D
 Structure written by MMmdl.
 45 48  0     1  0  0  0  0  0999 V2000
   -6.3515   12.3530  -11.9813 C   0  0  0  0  0  0  0  0  0  0  0  0
   -6.5085   11.7912  -10.7247 C   0  0  0  0  0  0  0  0  0  0  0  0
   -7.6802   10.5716  -13.0438 C   0  0  0  0  0  0  0  0  0  0  0  0
   -6.9296   11.7657  -13.1245 C   0  0  0  0  0  0  0  0  0  0  0  0
   -7.7980   10.0044  -11.7669 C   0  0  0  0  0  0  0  0  0  0  0  0
   -7.2328   10.6109  -10.5989 C   0  0  0  0  0  0  0  0  0  0  0  0
   -7.6209    9.7375   -9.5162 C   0  0  0  0  0  0  0  0  0  0  0  0
   -8.2754    8.7446   -9.9970 N   0  0  0  0  0  0  0  0  0  0  0  0
   -8.4233    8.8800  -11.3218 N   0  0  0  0  0  0  0  0  0  0  0  0
   -7.3328    9.8812   -8.0296 C   0  0  0  0  0  0  0  0  0  0  0  0
   -5.3004   14.2773  -13.1499 C   0  0  0  0  0  0  0  0  0  0  0  0
   -4.4346   15.5261  -12.8998 C   0  0  0  0  0  0  0  0  0  0  0  0
   -5.5896   13.5586  -12.0343 N   0  0  0  0  0  0  0  0  0  0  0  0
   -5.9706   10.4906   -7.7317 C   0  0  0  0  0  0  0  0  0  0  0  0
   -5.8616   11.7632   -7.1684 C   0  0  0  0  0  0  0  0  0  0  0  0
   -4.6051   12.3126   -6.9180 C   0  0  0  0  0  0  0  0  0  0  0  0
   -3.4544   11.5948   -7.2294 C   0  0  0  0  0  0  0  0  0  0  0  0
   -3.5626   10.3128   -7.8011 C   0  0  0  0  0  0  0  0  0  0  0  0
   -4.8160    9.7710   -8.0425 C   0  0  0  0  0  0  0  0  0  0  0  0
   -2.1083   12.1736   -6.9694 C   0  0  0  0  0  0  0  0  0  0  0  0
   -1.7503   13.4247   -6.4858 C   0  0  0  0  0  0  0  0  0  0  0  0
   -0.4131   13.4674   -6.4189 N   0  0  3  0  0  0  0  0  0  0  0  0
    0.1758   12.3735   -6.8057 N   0  0  0  0  0  0  0  0  0  0  0  0
   -0.8094   11.5620   -7.1791 C   0  0  0  0  0  0  0  0  0  0  0  0
    0.4060   14.5705   -5.9896 C   0  0  0  0  0  0  0  0  0  0  0  0
   -5.6528   14.0066  -14.2746 O   0  0  0  0  0  0  0  0  0  0  0  0
   -6.0747   12.2631   -9.8555 H   0  0  0  0  0  0  0  0  0  0  0  0
   -8.1361   10.1224  -13.9137 H   0  0  0  0  0  0  0  0  0  0  0  0
   -6.7956   12.2399  -14.0855 H   0  0  0  0  0  0  0  0  0  0  0  0
   -8.0279    9.5798   -7.2599 H   0  0  0  0  0  0  0  0  0  0  0  0
   -4.2517   16.0431  -13.8534 H   0  0  0  0  0  0  0  0  0  0  0  0
   -4.9593   16.2038  -12.2102 H   0  0  0  0  0  0  0  0  0  0  0  0
   -3.4743   15.2236  -12.4567 H   0  0  0  0  0  0  0  0  0  0  0  0
   -5.9851   10.0423   -6.7273 H   0  0  0  0  0  0  0  0  0  0  0  0
   -6.7526   12.3233   -6.9261 H   0  0  0  0  0  0  0  0  0  0  0  0
   -4.5246   13.2972   -6.4815 H   0  0  0  0  0  0  0  0  0  0  0  0
   -2.6730    9.7536   -8.0506 H   0  0  0  0  0  0  0  0  0  0  0  0
   -4.8993    8.7846   -8.4743 H   0  0  0  0  0  0  0  0  0  0  0  0
   -2.1167   14.2081   -7.1655 H   0  0  0  0  0  0  0  0  0  0  0  0
   -2.1807   13.5768   -5.4850 H   0  0  0  0  0  0  0  0  0  0  0  0
   -0.6614   10.5729   -7.5868 H   0  0  0  0  0  0  0  0  0  0  0  0
    1.4672   14.2904   -6.0634 H   0  0  0  0  0  0  0  0  0  0  0  0
    0.2117   15.4427   -6.6311 H   0  0  0  0  0  0  0  0  0  0  0  0
    0.1649   14.8218   -4.9462 H   0  0  0  0  0  0  0  0  0  0  0  0
   -6.1759   13.2137  -14.2608 H   0  0  0  0  0  0  0  0  0  0  0  0
  1  2  2  0  0  0  0
  1  4  1  0  0  0  0
  1 13  1  0  0  0  0
  2  6  1  0  0  0  0
  3  4  2  0  0  0  0
  3  5  1  0  0  0  0
  5  6  2  0  0  0  0
  5  9  1  0  0  0  0
  6  7  1  0  0  0  0
  7  8  1  0  0  0  0
  7 10  2  3  0  0  0
  8  9  2  0  0  0  0
 10 14  1  0  0  0  0
 11 12  1  0  0  0  0
 11 13  2  0  0  0  0
 11 26  1  0  0  0  0
 14 15  1  0  0  0  0
 14 19  1  0  0  0  0
 15 16  2  0  0  0  0
 16 17  1  0  0  0  0
 17 18  1  0  0  0  0
 17 20  2  0  0  0  0
 18 19  2  0  0  0  0
 20 21  1  0  0  0  0
 20 24  1  0  0  0  0
 21 22  1  0  0  0  0
 22 23  1  0  0  0  0
 22 25  1  0  0  0  0
 23 24  2  0  0  0  0
  2 27  1  0  0  0  0
  3 28  1  0  0  0  0
  4 29  1  0  0  0  0
 10 30  1  0  0  0  0
 12 31  1  0  0  0  0
 12 32  1  0  0  0  0
 12 33  1  0  0  0  0
 14 34  1  0  0  0  0
 15 35  1  0  0  0  0
 16 36  1  0  0  0  0
 18 37  1  0  0  0  0
 19 38  1  0  0  0  0
 21 39  1  0  0  0  0
 21 40  1  0  0  0  0
 24 41  1  0  0  0  0
 25 42  1  0  0  0  0
 25 43  1  0  0  0  0
 25 44  1  0  0  0  0
 26 45  1  0  0  0  0
M  END
> <Name>
24

> <IC50[uM]>
0.029

$$$$
24
  -OEChem-05192314333D
 Structure written by MMmdl.
 45 48  0     1  0  0  0  0  0999 V2000
   -6.3515   12.3530  -11.9813 C   0  0  0  0  0  0  0  0  0  0  0  0
   -6.5085   11.7912  -10.7247 C   0  0  0  0  0  0  0  0  0  0  0  0
   -7.6802   10.5716  -13.0438 C   0  0  0  0  0  0  0  0  0  0  0  0
   -6.9296   11.7657  -13.1245 C   0  0  0  0  0  0  0  0  0  0  0  0
   -7.7980   10.0044  -11.7669 C   0  0  0  0  0  0  0  0  0  0  0  0
   -7.2328   10.6109  -10.5989 C   0  0  0  0  0  0  0  0  0  0  0  0
   -7.6209    9.7375   -9.5162 C   0  0  0  0  0  0  0  0  0  0  0  0
   -8.2754    8.7446   -9.9970 N   0  0  0  0  0  0  0  0  0  0  0  0
   -8.4233    8.8800  -11.3218 N   0  0  0  0  0  0  0  0  0  0  0  0
   -7.3328    9.8812   -8.0296 C   0  0  0  0  0  0  0  0  0  0  0  0
   -5.3004   14.2773  -13.1499 C   0  0  0  0  0  0  0  0  0  0  0  0
   -4.4346   15.5261  -12.8998 C   0  0  0  0  0  0  0  0  0  0  0  0
   -5.5896   13.5586  -12.0343 N   0  0  0  0  0  0  0  0  0  0  0  0
   -5.9706   10.4906   -7.7317 C   0  0  0  0  0  0  0  0  0  0  0  0
   -5.8616   11.7632   -7.1684 C   0  0  0  0  0  0  0  0  0  0  0  0
   -4.6051   12.3126   -6.9180 C   0  0  0  0  0  0  0  0  0  0  0  0
   -3.4544   11.5948   -7.2294 C   0  0  0  0  0  0  0  0  0  0  0  0
   -3.5626   10.3128   -7.8011 C   0  0  0  0  0  0  0  0  0  0  0  0
   -4.8160    9.7710   -8.0425 C   0  0  0  0  0  0  0  0  0  0  0  0
   -2.1083   12.1736   -6.9694 C   0  0  0  0  0  0  0  0  0  0  0  0
   -1.7503   13.4247   -6.4858 C   0  0  0  0  0  0  0  0  0  0  0  0
   -0.4131   13.4674   -6.4189 N   0  0  3  0  0  0  0  0  0  0  0  0
    0.1758   12.3735   -6.8057 N   0  0  0  0  0  0  0  0  0  0  0  0
   -0.8094   11.5620   -7.1791 C   0  0  0  0  0  0  0  0  0  0  0  0
    0.4060   14.5705   -5.9896 C   0  0  0  0  0  0  0  0  0  0  0  0
   -5.6528   14.0066  -14.2746 O   0  0  0  0  0  0  0  0  0  0  0  0
   -6.0747   12.2631   -9.8555 H   0  0  0  0  0  0  0  0  0  0  0  0
   -8.1361   10.1224  -13.9137 H   0  0  0  0  0  0  0  0  0  0  0  0
   -6.7956   12.2399  -14.0855 H   0  0  0  0  0  0  0  0  0  0  0  0
   -8.0279    9.5798   -7.2599 H   0  0  0  0  0  0  0  0  0  0  0  0
   -4.2517   16.0431  -13.8534 H   0  0  0  0  0  0  0  0  0  0  0  0
   -4.9593   16.2038  -12.2102 H   0  0  0  0  0  0  0  0  0  0  0  0
   -3.4743   15.2236  -12.4567 H   0  0  0  0  0  0  0  0  0  0  0  0
   -6.7526   12.3233   -6.9261 H   0  0  0  0  0  0  0  0  0  0  0  0
   -4.5531   13.2553   -7.4825 H   0  0  0  0  0  0  0  0  0  0  0  0
   -4.5624   12.5279   -5.8401 H   0  0  0  0  0  0  0  0  0  0  0  0
   -2.6730    9.7536   -8.0506 H   0  0  0  0  0  0  0  0  0  0  0  0
   -4.8993    8.7846   -8.4743 H   0  0  0  0  0  0  0  0  0  0  0  0
   -2.1167   14.2081   -7.1655 H   0  0  0  0  0  0  0  0  0  0  0  0
   -2.1807   13.5768   -5.4850 H   0  0  0  0  0  0  0  0  0  0  0  0
   -0.6614   10.5729   -7.5868 H   0  0  0  0  0  0  0  0  0  0  0  0
    1.4672   14.2904   -6.0634 H   0  0  0  0  0  0  0  0  0  0  0  0
    0.2117   15.4427   -6.6311 H   0  0  0  0  0  0  0  0  0  0  0  0
    0.1649   14.8218   -4.9462 H   0  0  0  0  0  0  0  0  0  0  0  0
   -6.1759   13.2137  -14.2608 H   0  0  0  0  0  0  0  0  0  0  0  0
  1  2  2  0  0  0  0
  1  4  1  0  0  0  0
  1 13  1  0  0  0  0
  2  6  1  0  0  0  0
  3  4  2  0  0  0  0
  3  5  1  0  0  0  0
  5  6  2  0  0  0  0
  5  9  1  0  0  0  0
  6  7  1  0  0  0  0
  7  8  1  0  0  0  0
  7 10  2  3  0  0  0
  8  9  2  0  0  0  0
 10 14  1  0  0  0  0
 11 12  1  0  0  0  0
 11 13  2  0  0  0  0
 11 26  1  0  0  0  0
 14 15  2  0  0  0  0
 14 19  1  0  0  0  0
 15 16  1  0  0  0  0
 16 17  1  0  0  0  0
 17 18  1  0  0  0  0
 17 20  2  0  0  0  0
 18 19  2  0  0  0  0
 20 21  1  0  0  0  0
 20 24  1  0  0  0  0
 21 22  1  0  0  0  0
 22 23  1  0  0  0  0
 22 25  1  0  0  0  0
 23 24  2  0  0  0  0
  2 27  1  0  0  0  0
  3 28  1  0  0  0  0
  4 29  1  0  0  0  0
 10 30  1  0  0  0  0
 12 31  1  0  0  0  0
 12 32  1  0  0  0  0
 12 33  1  0  0  0  0
 15 34  1  0  0  0  0
 16 35  1  0  0  0  0
 16 36  1  0  0  0  0
 18 37  1  0  0  0  0
 19 38  1  0  0  0  0
 21 39  1  0  0  0  0
 21 40  1  0  0  0  0
 24 41  1  0  0  0  0
 25 42  1  0  0  0  0
 25 43  1  0  0  0  0
 25 44  1  0  0  0  0
 26 45  1  0  0  0  0
M  END
> <Name>
24

> <IC50[uM]>
0.029

$$$$
24
  -OEChem-05192314333D
 Structure written by MMmdl.
 45 48  0     1  0  0  0  0  0999 V2000
   -6.3515   12.3530  -11.9813 C   0  0  0  0  0  0  0  0  0  0  0  0
   -6.5085   11.7912  -10.7247 C   0  0  0  0  0  0  0  0  0  0  0  0
   -7.6802   10.5716  -13.0438 C   0  0  0  0  0  0  0  0  0  0  0  0
   -6.9296   11.7657  -13.1245 C   0  0  0  0  0  0  0  0  0  0  0  0
   -7.7980   10.0044  -11.7669 C   0  0  0  0  0  0  0  0  0  0  0  0
   -7.2328   10.6109  -10.5989 C   0  0  0  0  0  0  0  0  0  0  0  0
   -7.6209    9.7375   -9.5162 C   0  0  0  0  0  0  0  0  0  0  0  0
   -8.2754    8.7446   -9.9970 N   0  0  0  0  0  0  0  0  0  0  0  0
   -8.4233    8.8800  -11.3218 N   0  0  0  0  0  0  0  0  0  0  0  0
   -7.3328    9.8812   -8.0296 C   0  0  0  0  0  0  0  0  0  0  0  0
   -5.3004   14.2773  -13.1499 C   0  0  0  0  0  0  0  0  0  0  0  0
   -4.4346   15.5261  -12.8998 C   0  0  0  0  0  0  0  0  0  0  0  0
   -5.5896   13.5586  -12.0343 N   0  0  0  0  0  0  0  0  0  0  0  0
   -5.9706   10.4906   -7.7317 C   0  0  0  0  0  0  0  0  0  0  0  0
   -5.8616   11.7632   -7.1684 C   0  0  0  0  0  0  0  0  0  0  0  0
   -4.6051   12.3126   -6.9180 C   0  0  0  0  0  0  0  0  0  0  0  0
   -3.4544   11.5948   -7.2294 C   0  0  0  0  0  0  0  0  0  0  0  0
   -3.5626   10.3128   -7.8011 C   0  0  0  0  0  0  0  0  0  0  0  0
   -4.8160    9.7710   -8.0425 C   0  0  0  0  0  0  0  0  0  0  0  0
   -2.1083   12.1736   -6.9694 C   0  0  0  0  0  0  0  0  0  0  0  0
   -1.7503   13.4247   -6.4858 C   0  0  0  0  0  0  0  0  0  0  0  0
   -0.4131   13.4674   -6.4189 N   0  0  3  0  0  0  0  0  0  0  0  0
    0.1758   12.3735   -6.8057 N   0  0  0  0  0  0  0  0  0  0  0  0
   -0.8094   11.5620   -7.1791 C   0  0  0  0  0  0  0  0  0  0  0  0
    0.4060   14.5705   -5.9896 C   0  0  0  0  0  0  0  0  0  0  0  0
   -5.6528   14.0066  -14.2746 O   0  0  0  0  0  0  0  0  0  0  0  0
   -6.0747   12.2631   -9.8555 H   0  0  0  0  0  0  0  0  0  0  0  0
   -8.6945   10.7862  -13.4115 H   0  0  0  0  0  0  0  0  0  0  0  0
   -7.2021    9.8287  -13.6992 H   0  0  0  0  0  0  0  0  0  0  0  0
   -7.5989   12.5237  -13.5575 H   0  0  0  0  0  0  0  0  0  0  0  0
   -6.1027   11.5654  -13.8217 H   0  0  0  0  0  0  0  0  0  0  0  0
   -8.0279    9.5798   -7.2599 H   0  0  0  0  0  0  0  0  0  0  0  0
   -4.2429   16.0373  -13.8548 H   0  0  0  0  0  0  0  0  0  0  0  0
   -4.9638   16.2086  -12.2185 H   0  0  0  0  0  0  0  0  0  0  0  0
   -3.4785   15.2246  -12.4471 H   0  0  0  0  0  0  0  0  0  0  0  0
   -6.7526   12.3233   -6.9261 H   0  0  0  0  0  0  0  0  0  0  0  0
   -4.5246   13.2972   -6.4815 H   0  0  0  0  0  0  0  0  0  0  0  0
   -2.6730    9.7536   -8.0506 H   0  0  0  0  0  0  0  0  0  0  0  0
   -4.8993    8.7846   -8.4743 H   0  0  0  0  0  0  0  0  0  0  0  0
   -2.1167   14.2081   -7.1655 H   0  0  0  0  0  0  0  0  0  0  0  0
   -2.1807   13.5768   -5.4850 H   0  0  0  0  0  0  0  0  0  0  0  0
   -0.6614   10.5729   -7.5868 H   0  0  0  0  0  0  0  0  0  0  0  0
    1.4672   14.2904   -6.0634 H   0  0  0  0  0  0  0  0  0  0  0  0
    0.2117   15.4427   -6.6311 H   0  0  0  0  0  0  0  0  0  0  0  0
    0.1649   14.8218   -4.9462 H   0  0  0  0  0  0  0  0  0  0  0  0
  1  2  1  0  0  0  0
  1  4  1  0  0  0  0
  1 13  2  0  0  0  0
  2  6  2  0  0  0  0
  3  4  1  0  0  0  0
  3  5  1  0  0  0  0
  5  6  1  0  0  0  0
  5  9  2  0  0  0  0
  6  7  1  0  0  0  0
  7  8  2  0  0  0  0
  7 10  1  0  0  0  0
  8  9  1  0  0  0  0
 10 14  2  0  0  0  0
 11 12  1  0  0  0  0
 11 13  1  0  0  0  0
 11 26  2  0  0  0  0
 14 15  1  0  0  0  0
 14 19  1  0  0  0  0
 15 16  2  0  0  0  0
 16 17  1  0  0  0  0
 17 18  1  0  0  0  0
 17 20  2  0  0  0  0
 18 19  2  0  0  0  0
 20 21  1  0  0  0  0
 20 24  1  0  0  0  0
 21 22  1  0  0  0  0
 22 23  1  0  0  0  0
 22 25  1  0  0  0  0
 23 24  2  0  0  0  0
  2 27  1  0  0  0  0
  3 28  1  0  0  0  0
  3 29  1  0  0  0  0
  4 30  1  0  0  0  0
  4 31  1  0  0  0  0
 10 32  1  0  0  0  0
 12 33  1  0  0  0  0
 12 34  1  0  0  0  0
 12 35  1  0  0  0  0
 15 36  1  0  0  0  0
 16 37  1  0  0  0  0
 18 38  1  0  0  0  0
 19 39  1  0  0  0  0
 21 40  1  0  0  0  0
 21 41  1  0  0  0  0
 24 42  1  0  0  0  0
 25 43  1  0  0  0  0
 25 44  1  0  0  0  0
 25 45  1  0  0  0  0
M  END
> <Name>
24

> <IC50[uM]>
0.029

$$$$
24
  -OEChem-05192314333D
 Structure written by MMmdl.
 45 48  0     1  0  0  0  0  0999 V2000
   -6.3515   12.3530  -11.9813 C   0  0  0  0  0  0  0  0  0  0  0  0
   -6.5085   11.7912  -10.7247 C   0  0  0  0  0  0  0  0  0  0  0  0
   -7.6802   10.5716  -13.0438 C   0  0  0  0  0  0  0  0  0  0  0  0
   -6.9296   11.7657  -13.1245 C   0  0  0  0  0  0  0  0  0  0  0  0
   -7.7980   10.0044  -11.7669 C   0  0  0  0  0  0  0  0  0  0  0  0
   -7.2328   10.6109  -10.5989 C   0  0  3  0  0  0  0  0  0  0  0  0
   -7.6209    9.7375   -9.5162 C   0  0  0  0  0  0  0  0  0  0  0  0
   -8.2754    8.7446   -9.9970 N   0  0  0  0  0  0  0  0  0  0  0  0
   -8.4233    8.8800  -11.3218 N   0  0  0  0  0  0  0  0  0  0  0  0
   -7.3328    9.8812   -8.0296 C   0  0  0  0  0  0  0  0  0  0  0  0
   -5.3004   14.2773  -13.1499 C   0  0  0  0  0  0  0  0  0  0  0  0
   -4.4346   15.5261  -12.8998 C   0  0  0  0  0  0  0  0  0  0  0  0
   -5.5896   13.5586  -12.0343 N   0  0  0  0  0  0  0  0  0  0  0  0
   -5.9706   10.4906   -7.7317 C   0  0  0  0  0  0  0  0  0  0  0  0
   -5.8616   11.7632   -7.1684 C   0  0  0  0  0  0  0  0  0  0  0  0
   -4.6051   12.3126   -6.9180 C   0  0  0  0  0  0  0  0  0  0  0  0
   -3.4544   11.5948   -7.2294 C   0  0  0  0  0  0  0  0  0  0  0  0
   -3.5626   10.3128   -7.8011 C   0  0  0  0  0  0  0  0  0  0  0  0
   -4.8160    9.7710   -8.0425 C   0  0  0  0  0  0  0  0  0  0  0  0
   -2.1083   12.1736   -6.9694 C   0  0  0  0  0  0  0  0  0  0  0  0
   -1.7503   13.4247   -6.4858 C   0  0  0  0  0  0  0  0  0  0  0  0
   -0.4131   13.4674   -6.4189 N   0  0  3  0  0  0  0  0  0  0  0  0
    0.1758   12.3735   -6.8057 N   0  0  0  0  0  0  0  0  0  0  0  0
   -0.8094   11.5620   -7.1791 C   0  0  0  0  0  0  0  0  0  0  0  0
    0.4060   14.5705   -5.9896 C   0  0  0  0  0  0  0  0  0  0  0  0
   -5.6528   14.0066  -14.2746 O   0  0  0  0  0  0  0  0  0  0  0  0
   -5.5002   11.5939  -10.3317 H   0  0  0  0  0  0  0  0  0  0  0  0
   -7.0066   12.5435  -10.0954 H   0  0  0  0  0  0  0  0  0  0  0  0
   -8.1361   10.1224  -13.9137 H   0  0  0  0  0  0  0  0  0  0  0  0
   -6.7956   12.2399  -14.0855 H   0  0  0  0  0  0  0  0  0  0  0  0
   -6.3107   10.0281  -10.7406 H   0  0  0  0  0  0  0  0  0  0  0  0
   -8.0279    9.5798   -7.2599 H   0  0  0  0  0  0  0  0  0  0  0  0
   -4.2429   16.0373  -13.8548 H   0  0  0  0  0  0  0  0  0  0  0  0
   -4.9638   16.2086  -12.2185 H   0  0  0  0  0  0  0  0  0  0  0  0
   -3.4785   15.2246  -12.4471 H   0  0  0  0  0  0  0  0  0  0  0  0
   -6.7526   12.3233   -6.9261 H   0  0  0  0  0  0  0  0  0  0  0  0
   -4.5246   13.2972   -6.4815 H   0  0  0  0  0  0  0  0  0  0  0  0
   -2.6730    9.7536   -8.0506 H   0  0  0  0  0  0  0  0  0  0  0  0
   -4.8993    8.7846   -8.4743 H   0  0  0  0  0  0  0  0  0  0  0  0
   -2.1167   14.2081   -7.1655 H   0  0  0  0  0  0  0  0  0  0  0  0
   -2.1807   13.5768   -5.4850 H   0  0  0  0  0  0  0  0  0  0  0  0
   -0.6614   10.5729   -7.5868 H   0  0  0  0  0  0  0  0  0  0  0  0
    1.4672   14.2904   -6.0634 H   0  0  0  0  0  0  0  0  0  0  0  0
    0.2117   15.4427   -6.6311 H   0  0  0  0  0  0  0  0  0  0  0  0
    0.1649   14.8218   -4.9462 H   0  0  0  0  0  0  0  0  0  0  0  0
  1  2  1  0  0  0  0
  1  4  1  0  0  0  0
  1 13  2  0  0  0  0
  2  6  1  0  0  0  0
  3  4  2  0  0  0  0
  3  5  1  0  0  0  0
  5  6  1  0  0  0  0
  5  9  2  0  0  0  0
  6  7  1  0  0  0  0
  7  8  2  0  0  0  0
  7 10  1  0  0  0  0
  8  9  1  0  0  0  0
 10 14  2  0  0  0  0
 11 12  1  0  0  0  0
 11 13  1  0  0  0  0
 11 26  2  0  0  0  0
 14 15  1  0  0  0  0
 14 19  1  0  0  0  0
 15 16  2  0  0  0  0
 16 17  1  0  0  0  0
 17 18  1  0  0  0  0
 17 20  2  0  0  0  0
 18 19  2  0  0  0  0
 20 21  1  0  0  0  0
 20 24  1  0  0  0  0
 21 22  1  0  0  0  0
 22 23  1  0  0  0  0
 22 25  1  0  0  0  0
 23 24  2  0  0  0  0
  2 27  1  0  0  0  0
  2 28  1  0  0  0  0
  3 29  1  0  0  0  0
  4 30  1  0  0  0  0
  6 31  1  0  0  0  0
 10 32  1  0  0  0  0
 12 33  1  0  0  0  0
 12 34  1  0  0  0  0
 12 35  1  0  0  0  0
 15 36  1  0  0  0  0
 16 37  1  0  0  0  0
 18 38  1  0  0  0  0
 19 39  1  0  0  0  0
 21 40  1  0  0  0  0
 21 41  1  0  0  0  0
 24 42  1  0  0  0  0
 25 43  1  0  0  0  0
 25 44  1  0  0  0  0
 25 45  1  0  0  0  0
M  END
> <Name>
24

> <IC50[uM]>
0.029

$$$$
24
  -OEChem-05192314333D
 Structure written by MMmdl.
 45 48  0     1  0  0  0  0  0999 V2000
   -6.3515   12.3530  -11.9813 C   0  0  0  0  0  0  0  0  0  0  0  0
   -6.5085   11.7912  -10.7247 C   0  0  0  0  0  0  0  0  0  0  0  0
   -7.6802   10.5716  -13.0438 C   0  0  0  0  0  0  0  0  0  0  0  0
   -6.9296   11.7657  -13.1245 C   0  0  0  0  0  0  0  0  0  0  0  0
   -7.7980   10.0044  -11.7669 C   0  0  0  0  0  0  0  0  0  0  0  0
   -7.2328   10.6109  -10.5989 C   0  0  3  0  0  0  0  0  0  0  0  0
   -7.6209    9.7375   -9.5162 C   0  0  0  0  0  0  0  0  0  0  0  0
   -8.2754    8.7446   -9.9970 N   0  0  0  0  0  0  0  0  0  0  0  0
   -8.4233    8.8800  -11.3218 N   0  0  0  0  0  0  0  0  0  0  0  0
   -7.3328    9.8812   -8.0296 C   0  0  0  0  0  0  0  0  0  0  0  0
   -5.3004   14.2773  -13.1499 C   0  0  0  0  0  0  0  0  0  0  0  0
   -4.4346   15.5261  -12.8998 C   0  0  0  0  0  0  0  0  0  0  0  0
   -5.5896   13.5586  -12.0343 N   0  0  0  0  0  0  0  0  0  0  0  0
   -5.9706   10.4906   -7.7317 C   0  0  0  0  0  0  0  0  0  0  0  0
   -5.8616   11.7632   -7.1684 C   0  0  0  0  0  0  0  0  0  0  0  0
   -4.6051   12.3126   -6.9180 C   0  0  0  0  0  0  0  0  0  0  0  0
   -3.4544   11.5948   -7.2294 C   0  0  0  0  0  0  0  0  0  0  0  0
   -3.5626   10.3128   -7.8011 C   0  0  0  0  0  0  0  0  0  0  0  0
   -4.8160    9.7710   -8.0425 C   0  0  0  0  0  0  0  0  0  0  0  0
   -2.1083   12.1736   -6.9694 C   0  0  0  0  0  0  0  0  0  0  0  0
   -1.7503   13.4247   -6.4858 C   0  0  0  0  0  0  0  0  0  0  0  0
   -0.4131   13.4674   -6.4189 N   0  0  3  0  0  0  0  0  0  0  0  0
    0.1758   12.3735   -6.8057 N   0  0  0  0  0  0  0  0  0  0  0  0
   -0.8094   11.5620   -7.1791 C   0  0  0  0  0  0  0  0  0  0  0  0
    0.4060   14.5705   -5.9896 C   0  0  0  0  0  0  0  0  0  0  0  0
   -5.6528   14.0066  -14.2746 O   0  0  0  0  0  0  0  0  0  0  0  0
   -6.0747   12.2631   -9.8555 H   0  0  0  0  0  0  0  0  0  0  0  0
   -8.1361   10.1224  -13.9137 H   0  0  0  0  0  0  0  0  0  0  0  0
   -6.7956   12.2399  -14.0855 H   0  0  0  0  0  0  0  0  0  0  0  0
   -6.3107   10.0281  -10.7406 H   0  0  0  0  0  0  0  0  0  0  0  0
   -8.0279    9.5798   -7.2599 H   0  0  0  0  0  0  0  0  0  0  0  0
   -4.2429   16.0373  -13.8548 H   0  0  0  0  0  0  0  0  0  0  0  0
   -4.9638   16.2086  -12.2185 H   0  0  0  0  0  0  0  0  0  0  0  0
   -3.4785   15.2246  -12.4471 H   0  0  0  0  0  0  0  0  0  0  0  0
   -5.2347   13.9076  -11.1670 H   0  0  0  0  0  0  0  0  0  0  0  0
   -6.7526   12.3233   -6.9261 H   0  0  0  0  0  0  0  0  0  0  0  0
   -4.5246   13.2972   -6.4815 H   0  0  0  0  0  0  0  0  0  0  0  0
   -2.6730    9.7536   -8.0506 H   0  0  0  0  0  0  0  0  0  0  0  0
   -4.8993    8.7846   -8.4743 H   0  0  0  0  0  0  0  0  0  0  0  0
   -2.1167   14.2081   -7.1655 H   0  0  0  0  0  0  0  0  0  0  0  0
   -2.1807   13.5768   -5.4850 H   0  0  0  0  0  0  0  0  0  0  0  0
   -0.6614   10.5729   -7.5868 H   0  0  0  0  0  0  0  0  0  0  0  0
    1.4672   14.2904   -6.0634 H   0  0  0  0  0  0  0  0  0  0  0  0
    0.2117   15.4427   -6.6311 H   0  0  0  0  0  0  0  0  0  0  0  0
    0.1649   14.8218   -4.9462 H   0  0  0  0  0  0  0  0  0  0  0  0
  1  2  2  0  0  0  0
  1  4  1  0  0  0  0
  1 13  1  0  0  0  0
  2  6  1  0  0  0  0
  3  4  2  0  0  0  0
  3  5  1  0  0  0  0
  5  6  1  0  0  0  0
  5  9  2  0  0  0  0
  6  7  1  0  0  0  0
  7  8  2  0  0  0  0
  7 10  1  0  0  0  0
  8  9  1  0  0  0  0
 10 14  2  0  0  0  0
 11 12  1  0  0  0  0
 11 13  1  0  0  0  0
 11 26  2  0  0  0  0
 14 15  1  0  0  0  0
 14 19  1  0  0  0  0
 15 16  2  0  0  0  0
 16 17  1  0  0  0  0
 17 18  1  0  0  0  0
 17 20  2  0  0  0  0
 18 19  2  0  0  0  0
 20 21  1  0  0  0  0
 20 24  1  0  0  0  0
 21 22  1  0  0  0  0
 22 23  1  0  0  0  0
 22 25  1  0  0  0  0
 23 24  2  0  0  0  0
  2 27  1  0  0  0  0
  3 28  1  0  0  0  0
  4 29  1  0  0  0  0
  6 30  1  0  0  0  0
 10 31  1  0  0  0  0
 12 32  1  0  0  0  0
 12 33  1  0  0  0  0
 12 34  1  0  0  0  0
 13 35  1  0  0  0  0
 15 36  1  0  0  0  0
 16 37  1  0  0  0  0
 18 38  1  0  0  0  0
 19 39  1  0  0  0  0
 21 40  1  0  0  0  0
 21 41  1  0  0  0  0
 24 42  1  0  0  0  0
 25 43  1  0  0  0  0
 25 44  1  0  0  0  0
 25 45  1  0  0  0  0
M  END
> <Name>
24

> <IC50[uM]>
0.029

$$$$
24
  -OEChem-05192314333D
 Structure written by MMmdl.
 45 48  0     1  0  0  0  0  0999 V2000
   -6.3515   12.3530  -11.9813 C   0  0  3  0  0  0  0  0  0  0  0  0
   -6.5085   11.7912  -10.7247 C   0  0  0  0  0  0  0  0  0  0  0  0
   -7.6802   10.5716  -13.0438 C   0  0  0  0  0  0  0  0  0  0  0  0
   -6.9296   11.7657  -13.1245 C   0  0  0  0  0  0  0  0  0  0  0  0
   -7.7980   10.0044  -11.7669 C   0  0  0  0  0  0  0  0  0  0  0  0
   -7.2328   10.6109  -10.5989 C   0  0  0  0  0  0  0  0  0  0  0  0
   -7.6209    9.7375   -9.5162 C   0  0  0  0  0  0  0  0  0  0  0  0
   -8.2754    8.7446   -9.9970 N   0  0  0  0  0  0  0  0  0  0  0  0
   -8.4233    8.8800  -11.3218 N   0  0  0  0  0  0  0  0  0  0  0  0
   -7.3328    9.8812   -8.0296 C   0  0  0  0  0  0  0  0  0  0  0  0
   -5.3004   14.2773  -13.1499 C   0  0  0  0  0  0  0  0  0  0  0  0
   -4.4346   15.5261  -12.8998 C   0  0  0  0  0  0  0  0  0  0  0  0
   -5.5896   13.5586  -12.0343 N   0  0  0  0  0  0  0  0  0  0  0  0
   -5.9706   10.4906   -7.7317 C   0  0  0  0  0  0  0  0  0  0  0  0
   -5.8616   11.7632   -7.1684 C   0  0  0  0  0  0  0  0  0  0  0  0
   -4.6051   12.3126   -6.9180 C   0  0  0  0  0  0  0  0  0  0  0  0
   -3.4544   11.5948   -7.2294 C   0  0  0  0  0  0  0  0  0  0  0  0
   -3.5626   10.3128   -7.8011 C   0  0  0  0  0  0  0  0  0  0  0  0
   -4.8160    9.7710   -8.0425 C   0  0  0  0  0  0  0  0  0  0  0  0
   -2.1083   12.1736   -6.9694 C   0  0  0  0  0  0  0  0  0  0  0  0
   -1.7503   13.4247   -6.4858 C   0  0  0  0  0  0  0  0  0  0  0  0
   -0.4131   13.4674   -6.4189 N   0  0  3  0  0  0  0  0  0  0  0  0
    0.1758   12.3735   -6.8057 N   0  0  0  0  0  0  0  0  0  0  0  0
   -0.8094   11.5620   -7.1791 C   0  0  0  0  0  0  0  0  0  0  0  0
    0.4060   14.5705   -5.9896 C   0  0  0  0  0  0  0  0  0  0  0  0
   -5.6528   14.0066  -14.2746 O   0  0  0  0  0  0  0  0  0  0  0  0
   -5.4362   11.7628  -12.1356 H   0  0  0  0  0  0  0  0  0  0  0  0
   -6.0747   12.2631   -9.8555 H   0  0  0  0  0  0  0  0  0  0  0  0
   -8.1361   10.1224  -13.9137 H   0  0  0  0  0  0  0  0  0  0  0  0
   -6.7956   12.2399  -14.0855 H   0  0  0  0  0  0  0  0  0  0  0  0
   -8.0279    9.5798   -7.2599 H   0  0  0  0  0  0  0  0  0  0  0  0
   -4.2429   16.0373  -13.8548 H   0  0  0  0  0  0  0  0  0  0  0  0
   -4.9638   16.2086  -12.2185 H   0  0  0  0  0  0  0  0  0  0  0  0
   -3.4785   15.2246  -12.4471 H   0  0  0  0  0  0  0  0  0  0  0  0
   -5.2347   13.9076  -11.1670 H   0  0  0  0  0  0  0  0  0  0  0  0
   -6.7526   12.3233   -6.9261 H   0  0  0  0  0  0  0  0  0  0  0  0
   -4.5246   13.2972   -6.4815 H   0  0  0  0  0  0  0  0  0  0  0  0
   -2.6730    9.7536   -8.0506 H   0  0  0  0  0  0  0  0  0  0  0  0
   -4.8993    8.7846   -8.4743 H   0  0  0  0  0  0  0  0  0  0  0  0
   -2.1167   14.2081   -7.1655 H   0  0  0  0  0  0  0  0  0  0  0  0
   -2.1807   13.5768   -5.4850 H   0  0  0  0  0  0  0  0  0  0  0  0
   -0.6614   10.5729   -7.5868 H   0  0  0  0  0  0  0  0  0  0  0  0
    1.4672   14.2904   -6.0634 H   0  0  0  0  0  0  0  0  0  0  0  0
    0.2117   15.4427   -6.6311 H   0  0  0  0  0  0  0  0  0  0  0  0
    0.1649   14.8218   -4.9462 H   0  0  0  0  0  0  0  0  0  0  0  0
  1  2  1  0  0  0  0
  1  4  1  0  0  0  0
  1 13  1  0  0  0  0
  2  6  2  0  0  0  0
  3  4  2  0  0  0  0
  3  5  1  0  0  0  0
  5  6  1  0  0  0  0
  5  9  2  0  0  0  0
  6  7  1  0  0  0  0
  7  8  2  0  0  0  0
  7 10  1  0  0  0  0
  8  9  1  0  0  0  0
 10 14  2  0  0  0  0
 11 12  1  0  0  0  0
 11 13  1  0  0  0  0
 11 26  2  0  0  0  0
 14 15  1  0  0  0  0
 14 19  1  0  0  0  0
 15 16  2  0  0  0  0
 16 17  1  0  0  0  0
 17 18  1  0  0  0  0
 17 20  2  0  0  0  0
 18 19  2  0  0  0  0
 20 21  1  0  0  0  0
 20 24  1  0  0  0  0
 21 22  1  0  0  0  0
 22 23  1  0  0  0  0
 22 25  1  0  0  0  0
 23 24  2  0  0  0  0
  1 27  1  0  0  0  0
  2 28  1  0  0  0  0
  3 29  1  0  0  0  0
  4 30  1  0  0  0  0
 10 31  1  0  0  0  0
 12 32  1  0  0  0  0
 12 33  1  0  0  0  0
 12 34  1  0  0  0  0
 13 35  1  0  0  0  0
 15 36  1  0  0  0  0
 16 37  1  0  0  0  0
 18 38  1  0  0  0  0
 19 39  1  0  0  0  0
 21 40  1  0  0  0  0
 21 41  1  0  0  0  0
 24 42  1  0  0  0  0
 25 43  1  0  0  0  0
 25 44  1  0  0  0  0
 25 45  1  0  0  0  0
M  END
> <Name>
24

> <IC50[uM]>
0.029

$$$$
24
  -OEChem-05192314333D
 Structure written by MMmdl.
 45 48  0     1  0  0  0  0  0999 V2000
   -6.3515   12.3530  -11.9813 C   0  0  0  0  0  0  0  0  0  0  0  0
   -6.5085   11.7912  -10.7247 C   0  0  0  0  0  0  0  0  0  0  0  0
   -7.6802   10.5716  -13.0438 C   0  0  0  0  0  0  0  0  0  0  0  0
   -6.9296   11.7657  -13.1245 C   0  0  0  0  0  0  0  0  0  0  0  0
   -7.7980   10.0044  -11.7669 C   0  0  3  0  0  0  0  0  0  0  0  0
   -7.2328   10.6109  -10.5989 C   0  0  0  0  0  0  0  0  0  0  0  0
   -7.6209    9.7375   -9.5162 C   0  0  3  0  0  0  0  0  0  0  0  0
   -8.2754    8.7446   -9.9970 N   0  0  0  0  0  0  0  0  0  0  0  0
   -8.4233    8.8800  -11.3218 N   0  0  0  0  0  0  0  0  0  0  0  0
   -7.3328    9.8812   -8.0296 C   0  0  0  0  0  0  0  0  0  0  0  0
   -5.3004   14.2773  -13.1499 C   0  0  0  0  0  0  0  0  0  0  0  0
   -4.4346   15.5261  -12.8998 C   0  0  0  0  0  0  0  0  0  0  0  0
   -5.5896   13.5586  -12.0343 N   0  0  0  0  0  0  0  0  0  0  0  0
   -5.9706   10.4906   -7.7317 C   0  0  0  0  0  0  0  0  0  0  0  0
   -5.8616   11.7632   -7.1684 C   0  0  0  0  0  0  0  0  0  0  0  0
   -4.6051   12.3126   -6.9180 C   0  0  0  0  0  0  0  0  0  0  0  0
   -3.4544   11.5948   -7.2294 C   0  0  0  0  0  0  0  0  0  0  0  0
   -3.5626   10.3128   -7.8011 C   0  0  0  0  0  0  0  0  0  0  0  0
   -4.8160    9.7710   -8.0425 C   0  0  0  0  0  0  0  0  0  0  0  0
   -2.1083   12.1736   -6.9694 C   0  0  0  0  0  0  0  0  0  0  0  0
   -1.7503   13.4247   -6.4858 C   0  0  0  0  0  0  0  0  0  0  0  0
   -0.4131   13.4674   -6.4189 N   0  0  3  0  0  0  0  0  0  0  0  0
    0.1758   12.3735   -6.8057 N   0  0  0  0  0  0  0  0  0  0  0  0
   -0.8094   11.5620   -7.1791 C   0  0  0  0  0  0  0  0  0  0  0  0
    0.4060   14.5705   -5.9896 C   0  0  0  0  0  0  0  0  0  0  0  0
   -5.6528   14.0066  -14.2746 O   0  0  0  0  0  0  0  0  0  0  0  0
   -6.0747   12.2631   -9.8555 H   0  0  0  0  0  0  0  0  0  0  0  0
   -8.1361   10.1224  -13.9137 H   0  0  0  0  0  0  0  0  0  0  0  0
   -6.7956   12.2399  -14.0855 H   0  0  0  0  0  0  0  0  0  0  0  0
   -6.8712    9.4340  -11.9273 H   0  0  0  0  0  0  0  0  0  0  0  0
   -8.5577   10.3007   -9.3927 H   0  0  0  0  0  0  0  0  0  0  0  0
   -8.0279    9.5798   -7.2599 H   0  0  0  0  0  0  0  0  0  0  0  0
   -4.2429   16.0373  -13.8548 H   0  0  0  0  0  0  0  0  0  0  0  0
   -4.9638   16.2086  -12.2185 H   0  0  0  0  0  0  0  0  0  0  0  0
   -3.4785   15.2246  -12.4471 H   0  0  0  0  0  0  0  0  0  0  0  0
   -6.7526   12.3233   -6.9261 H   0  0  0  0  0  0  0  0  0  0  0  0
   -4.5246   13.2972   -6.4815 H   0  0  0  0  0  0  0  0  0  0  0  0
   -2.6730    9.7536   -8.0506 H   0  0  0  0  0  0  0  0  0  0  0  0
   -4.8993    8.7846   -8.4743 H   0  0  0  0  0  0  0  0  0  0  0  0
   -2.1167   14.2081   -7.1655 H   0  0  0  0  0  0  0  0  0  0  0  0
   -2.1807   13.5768   -5.4850 H   0  0  0  0  0  0  0  0  0  0  0  0
   -0.6614   10.5729   -7.5868 H   0  0  0  0  0  0  0  0  0  0  0  0
    1.4672   14.2904   -6.0634 H   0  0  0  0  0  0  0  0  0  0  0  0
    0.2117   15.4427   -6.6311 H   0  0  0  0  0  0  0  0  0  0  0  0
    0.1649   14.8218   -4.9462 H   0  0  0  0  0  0  0  0  0  0  0  0
  1  2  1  0  0  0  0
  1  4  1  0  0  0  0
  1 13  2  0  0  0  0
  2  6  2  0  0  0  0
  3  4  2  0  0  0  0
  3  5  1  0  0  0  0
  5  6  1  0  0  0  0
  5  9  1  0  0  0  0
  6  7  1  0  0  0  0
  7  8  1  0  0  0  0
  7 10  1  0  0  0  0
  8  9  2  0  0  0  0
 10 14  2  0  0  0  0
 11 12  1  0  0  0  0
 11 13  1  0  0  0  0
 11 26  2  0  0  0  0
 14 15  1  0  0  0  0
 14 19  1  0  0  0  0
 15 16  2  0  0  0  0
 16 17  1  0  0  0  0
 17 18  1  0  0  0  0
 17 20  2  0  0  0  0
 18 19  2  0  0  0  0
 20 21  1  0  0  0  0
 20 24  1  0  0  0  0
 21 22  1  0  0  0  0
 22 23  1  0  0  0  0
 22 25  1  0  0  0  0
 23 24  2  0  0  0  0
  2 27  1  0  0  0  0
  3 28  1  0  0  0  0
  4 29  1  0  0  0  0
  5 30  1  0  0  0  0
  7 31  1  0  0  0  0
 10 32  1  0  0  0  0
 12 33  1  0  0  0  0
 12 34  1  0  0  0  0
 12 35  1  0  0  0  0
 15 36  1  0  0  0  0
 16 37  1  0  0  0  0
 18 38  1  0  0  0  0
 19 39  1  0  0  0  0
 21 40  1  0  0  0  0
 21 41  1  0  0  0  0
 24 42  1  0  0  0  0
 25 43  1  0  0  0  0
 25 44  1  0  0  0  0
 25 45  1  0  0  0  0
M  END
> <Name>
24

> <IC50[uM]>
0.029

$$$$
24
  -OEChem-05192314333D
 Structure written by MMmdl.
 45 48  0     1  0  0  0  0  0999 V2000
   -6.3515   12.3530  -11.9813 C   0  0  0  0  0  0  0  0  0  0  0  0
   -6.5085   11.7912  -10.7247 C   0  0  0  0  0  0  0  0  0  0  0  0
   -7.6802   10.5716  -13.0438 C   0  0  0  0  0  0  0  0  0  0  0  0
   -6.9296   11.7657  -13.1245 C   0  0  0  0  0  0  0  0  0  0  0  0
   -7.7980   10.0044  -11.7669 C   0  0  0  0  0  0  0  0  0  0  0  0
   -7.2328   10.6109  -10.5989 C   0  0  0  0  0  0  0  0  0  0  0  0
   -7.6209    9.7375   -9.5162 C   0  0  0  0  0  0  0  0  0  0  0  0
   -8.2754    8.7446   -9.9970 N   0  0  0  0  0  0  0  0  0  0  0  0
   -8.4233    8.8800  -11.3218 N   0  0  0  0  0  0  0  0  0  0  0  0
   -7.3328    9.8812   -8.0296 C   0  0  0  0  0  0  0  0  0  0  0  0
   -5.3004   14.2773  -13.1499 C   0  0  0  0  0  0  0  0  0  0  0  0
   -4.4346   15.5261  -12.8998 C   0  0  0  0  0  0  0  0  0  0  0  0
   -5.5896   13.5586  -12.0343 N   0  0  0  0  0  0  0  0  0  0  0  0
   -5.9706   10.4906   -7.7317 C   0  0  0  0  0  0  0  0  0  0  0  0
   -5.8616   11.7632   -7.1684 C   0  0  0  0  0  0  0  0  0  0  0  0
   -4.6051   12.3126   -6.9180 C   0  0  0  0  0  0  0  0  0  0  0  0
   -3.4544   11.5948   -7.2294 C   0  0  0  0  0  0  0  0  0  0  0  0
   -3.5626   10.3128   -7.8011 C   0  0  0  0  0  0  0  0  0  0  0  0
   -4.8160    9.7710   -8.0425 C   0  0  0  0  0  0  0  0  0  0  0  0
   -2.1083   12.1736   -6.9694 C   0  0  0  0  0  0  0  0  0  0  0  0
   -1.7503   13.4247   -6.4858 C   0  0  0  0  0  0  0  0  0  0  0  0
   -0.4131   13.4674   -6.4189 N   0  0  3  0  0  0  0  0  0  0  0  0
    0.1758   12.3735   -6.8057 N   0  0  0  0  0  0  0  0  0  0  0  0
   -0.8094   11.5620   -7.1791 C   0  0  0  0  0  0  0  0  0  0  0  0
    0.4060   14.5705   -5.9896 C   0  0  0  0  0  0  0  0  0  0  0  0
   -5.6528   14.0066  -14.2746 O   0  0  0  0  0  0  0  0  0  0  0  0
   -6.0747   12.2631   -9.8555 H   0  0  0  0  0  0  0  0  0  0  0  0
   -8.6945   10.7862  -13.4115 H   0  0  0  0  0  0  0  0  0  0  0  0
   -7.2021    9.8287  -13.6992 H   0  0  0  0  0  0  0  0  0  0  0  0
   -6.7956   12.2399  -14.0855 H   0  0  0  0  0  0  0  0  0  0  0  0
   -8.0279    9.5798   -7.2599 H   0  0  0  0  0  0  0  0  0  0  0  0
   -4.2429   16.0373  -13.8548 H   0  0  0  0  0  0  0  0  0  0  0  0
   -4.9638   16.2086  -12.2185 H   0  0  0  0  0  0  0  0  0  0  0  0
   -3.4785   15.2246  -12.4471 H   0  0  0  0  0  0  0  0  0  0  0  0
   -5.2347   13.9076  -11.1670 H   0  0  0  0  0  0  0  0  0  0  0  0
   -6.7526   12.3233   -6.9261 H   0  0  0  0  0  0  0  0  0  0  0  0
   -4.5246   13.2972   -6.4815 H   0  0  0  0  0  0  0  0  0  0  0  0
   -2.6730    9.7536   -8.0506 H   0  0  0  0  0  0  0  0  0  0  0  0
   -4.8993    8.7846   -8.4743 H   0  0  0  0  0  0  0  0  0  0  0  0
   -2.1167   14.2081   -7.1655 H   0  0  0  0  0  0  0  0  0  0  0  0
   -2.1807   13.5768   -5.4850 H   0  0  0  0  0  0  0  0  0  0  0  0
   -0.6614   10.5729   -7.5868 H   0  0  0  0  0  0  0  0  0  0  0  0
    1.4672   14.2904   -6.0634 H   0  0  0  0  0  0  0  0  0  0  0  0
    0.2117   15.4427   -6.6311 H   0  0  0  0  0  0  0  0  0  0  0  0
    0.1649   14.8218   -4.9462 H   0  0  0  0  0  0  0  0  0  0  0  0
  1  2  1  0  0  0  0
  1  4  2  0  0  0  0
  1 13  1  0  0  0  0
  2  6  2  0  0  0  0
  3  4  1  0  0  0  0
  3  5  1  0  0  0  0
  5  6  1  0  0  0  0
  5  9  2  0  0  0  0
  6  7  1  0  0  0  0
  7  8  2  0  0  0  0
  7 10  1  0  0  0  0
  8  9  1  0  0  0  0
 10 14  2  0  0  0  0
 11 12  1  0  0  0  0
 11 13  1  0  0  0  0
 11 26  2  0  0  0  0
 14 15  1  0  0  0  0
 14 19  1  0  0  0  0
 15 16  2  0  0  0  0
 16 17  1  0  0  0  0
 17 18  1  0  0  0  0
 17 20  2  0  0  0  0
 18 19  2  0  0  0  0
 20 21  1  0  0  0  0
 20 24  1  0  0  0  0
 21 22  1  0  0  0  0
 22 23  1  0  0  0  0
 22 25  1  0  0  0  0
 23 24  2  0  0  0  0
  2 27  1  0  0  0  0
  3 28  1  0  0  0  0
  3 29  1  0  0  0  0
  4 30  1  0  0  0  0
 10 31  1  0  0  0  0
 12 32  1  0  0  0  0
 12 33  1  0  0  0  0
 12 34  1  0  0  0  0
 13 35  1  0  0  0  0
 15 36  1  0  0  0  0
 16 37  1  0  0  0  0
 18 38  1  0  0  0  0
 19 39  1  0  0  0  0
 21 40  1  0  0  0  0
 21 41  1  0  0  0  0
 24 42  1  0  0  0  0
 25 43  1  0  0  0  0
 25 44  1  0  0  0  0
 25 45  1  0  0  0  0
M  END
> <Name>
24

> <IC50[uM]>
0.029

$$$$
24
  -OEChem-05192314333D
 Structure written by MMmdl.
 45 48  0     1  0  0  0  0  0999 V2000
   -6.3515   12.3530  -11.9813 C   0  0  0  0  0  0  0  0  0  0  0  0
   -6.5085   11.7912  -10.7247 C   0  0  0  0  0  0  0  0  0  0  0  0
   -7.6802   10.5716  -13.0438 C   0  0  0  0  0  0  0  0  0  0  0  0
   -6.9296   11.7657  -13.1245 C   0  0  0  0  0  0  0  0  0  0  0  0
   -7.7980   10.0044  -11.7669 C   0  0  0  0  0  0  0  0  0  0  0  0
   -7.2328   10.6109  -10.5989 C   0  0  0  0  0  0  0  0  0  0  0  0
   -7.6209    9.7375   -9.5162 C   0  0  3  0  0  0  0  0  0  0  0  0
   -8.2754    8.7446   -9.9970 N   0  0  0  0  0  0  0  0  0  0  0  0
   -8.4233    8.8800  -11.3218 N   0  0  0  0  0  0  0  0  0  0  0  0
   -7.3328    9.8812   -8.0296 C   0  0  0  0  0  0  0  0  0  0  0  0
   -5.3004   14.2773  -13.1499 C   0  0  0  0  0  0  0  0  0  0  0  0
   -4.4346   15.5261  -12.8998 C   0  0  0  0  0  0  0  0  0  0  0  0
   -5.5896   13.5586  -12.0343 N   0  0  0  0  0  0  0  0  0  0  0  0
   -5.9706   10.4906   -7.7317 C   0  0  0  0  0  0  0  0  0  0  0  0
   -5.8616   11.7632   -7.1684 C   0  0  0  0  0  0  0  0  0  0  0  0
   -4.6051   12.3126   -6.9180 C   0  0  0  0  0  0  0  0  0  0  0  0
   -3.4544   11.5948   -7.2294 C   0  0  0  0  0  0  0  0  0  0  0  0
   -3.5626   10.3128   -7.8011 C   0  0  0  0  0  0  0  0  0  0  0  0
   -4.8160    9.7710   -8.0425 C   0  0  0  0  0  0  0  0  0  0  0  0
   -2.1083   12.1736   -6.9694 C   0  0  0  0  0  0  0  0  0  0  0  0
   -1.7503   13.4247   -6.4858 C   0  0  0  0  0  0  0  0  0  0  0  0
   -0.4131   13.4674   -6.4189 N   0  0  3  0  0  0  0  0  0  0  0  0
    0.1758   12.3735   -6.8057 N   0  0  0  0  0  0  0  0  0  0  0  0
   -0.8094   11.5620   -7.1791 C   0  0  0  0  0  0  0  0  0  0  0  0
    0.4060   14.5705   -5.9896 C   0  0  0  0  0  0  0  0  0  0  0  0
   -5.6528   14.0066  -14.2746 O   0  0  0  0  0  0  0  0  0  0  0  0
   -6.0747   12.2631   -9.8555 H   0  0  0  0  0  0  0  0  0  0  0  0
   -8.1361   10.1224  -13.9137 H   0  0  0  0  0  0  0  0  0  0  0  0
   -7.5989   12.5237  -13.5575 H   0  0  0  0  0  0  0  0  0  0  0  0
   -6.1027   11.5654  -13.8217 H   0  0  0  0  0  0  0  0  0  0  0  0
   -8.5577   10.3007   -9.3927 H   0  0  0  0  0  0  0  0  0  0  0  0
   -8.0279    9.5798   -7.2599 H   0  0  0  0  0  0  0  0  0  0  0  0
   -4.2429   16.0373  -13.8548 H   0  0  0  0  0  0  0  0  0  0  0  0
   -4.9638   16.2086  -12.2185 H   0  0  0  0  0  0  0  0  0  0  0  0
   -3.4785   15.2246  -12.4471 H   0  0  0  0  0  0  0  0  0  0  0  0
   -6.7526   12.3233   -6.9261 H   0  0  0  0  0  0  0  0  0  0  0  0
   -4.5246   13.2972   -6.4815 H   0  0  0  0  0  0  0  0  0  0  0  0
   -2.6730    9.7536   -8.0506 H   0  0  0  0  0  0  0  0  0  0  0  0
   -4.8993    8.7846   -8.4743 H   0  0  0  0  0  0  0  0  0  0  0  0
   -2.1167   14.2081   -7.1655 H   0  0  0  0  0  0  0  0  0  0  0  0
   -2.1807   13.5768   -5.4850 H   0  0  0  0  0  0  0  0  0  0  0  0
   -0.6614   10.5729   -7.5868 H   0  0  0  0  0  0  0  0  0  0  0  0
    1.4672   14.2904   -6.0634 H   0  0  0  0  0  0  0  0  0  0  0  0
    0.2117   15.4427   -6.6311 H   0  0  0  0  0  0  0  0  0  0  0  0
    0.1649   14.8218   -4.9462 H   0  0  0  0  0  0  0  0  0  0  0  0
  1  2  1  0  0  0  0
  1  4  1  0  0  0  0
  1 13  2  0  0  0  0
  2  6  2  0  0  0  0
  3  4  1  0  0  0  0
  3  5  2  0  0  0  0
  5  6  1  0  0  0  0
  5  9  1  0  0  0  0
  6  7  1  0  0  0  0
  7  8  1  0  0  0  0
  7 10  1  0  0  0  0
  8  9  2  0  0  0  0
 10 14  2  0  0  0  0
 11 12  1  0  0  0  0
 11 13  1  0  0  0  0
 11 26  2  0  0  0  0
 14 15  1  0  0  0  0
 14 19  1  0  0  0  0
 15 16  2  0  0  0  0
 16 17  1  0  0  0  0
 17 18  1  0  0  0  0
 17 20  2  0  0  0  0
 18 19  2  0  0  0  0
 20 21  1  0  0  0  0
 20 24  1  0  0  0  0
 21 22  1  0  0  0  0
 22 23  1  0  0  0  0
 22 25  1  0  0  0  0
 23 24  2  0  0  0  0
  2 27  1  0  0  0  0
  3 28  1  0  0  0  0
  4 29  1  0  0  0  0
  4 30  1  0  0  0  0
  7 31  1  0  0  0  0
 10 32  1  0  0  0  0
 12 33  1  0  0  0  0
 12 34  1  0  0  0  0
 12 35  1  0  0  0  0
 15 36  1  0  0  0  0
 16 37  1  0  0  0  0
 18 38  1  0  0  0  0
 19 39  1  0  0  0  0
 21 40  1  0  0  0  0
 21 41  1  0  0  0  0
 24 42  1  0  0  0  0
 25 43  1  0  0  0  0
 25 44  1  0  0  0  0
 25 45  1  0  0  0  0
M  END
> <Name>
24

> <IC50[uM]>
0.029

$$$$
24
  -OEChem-05192314333D
 Structure written by MMmdl.
 45 48  0     1  0  0  0  0  0999 V2000
   -6.3515   12.3530  -11.9813 C   0  0  0  0  0  0  0  0  0  0  0  0
   -6.5085   11.7912  -10.7247 C   0  0  0  0  0  0  0  0  0  0  0  0
   -7.6802   10.5716  -13.0438 C   0  0  0  0  0  0  0  0  0  0  0  0
   -6.9296   11.7657  -13.1245 C   0  0  0  0  0  0  0  0  0  0  0  0
   -7.7980   10.0044  -11.7669 C   0  0  0  0  0  0  0  0  0  0  0  0
   -7.2328   10.6109  -10.5989 C   0  0  0  0  0  0  0  0  0  0  0  0
   -7.6209    9.7375   -9.5162 C   0  0  3  0  0  0  0  0  0  0  0  0
   -8.2754    8.7446   -9.9970 N   0  0  0  0  0  0  0  0  0  0  0  0
   -8.4233    8.8800  -11.3218 N   0  0  0  0  0  0  0  0  0  0  0  0
   -7.3328    9.8812   -8.0296 C   0  0  0  0  0  0  0  0  0  0  0  0
   -5.3004   14.2773  -13.1499 C   0  0  0  0  0  0  0  0  0  0  0  0
   -4.4346   15.5261  -12.8998 C   0  0  0  0  0  0  0  0  0  0  0  0
   -5.5896   13.5586  -12.0343 N   0  0  0  0  0  0  0  0  0  0  0  0
   -5.9706   10.4906   -7.7317 C   0  0  0  0  0  0  0  0  0  0  0  0
   -5.8616   11.7632   -7.1684 C   0  0  0  0  0  0  0  0  0  0  0  0
   -4.6051   12.3126   -6.9180 C   0  0  0  0  0  0  0  0  0  0  0  0
   -3.4544   11.5948   -7.2294 C   0  0  0  0  0  0  0  0  0  0  0  0
   -3.5626   10.3128   -7.8011 C   0  0  0  0  0  0  0  0  0  0  0  0
   -4.8160    9.7710   -8.0425 C   0  0  0  0  0  0  0  0  0  0  0  0
   -2.1083   12.1736   -6.9694 C   0  0  0  0  0  0  0  0  0  0  0  0
   -1.7503   13.4247   -6.4858 C   0  0  0  0  0  0  0  0  0  0  0  0
   -0.4131   13.4674   -6.4189 N   0  0  3  0  0  0  0  0  0  0  0  0
    0.1758   12.3735   -6.8057 N   0  0  0  0  0  0  0  0  0  0  0  0
   -0.8094   11.5620   -7.1791 C   0  0  0  0  0  0  0  0  0  0  0  0
    0.4060   14.5705   -5.9896 C   0  0  0  0  0  0  0  0  0  0  0  0
   -5.6528   14.0066  -14.2746 O   0  0  0  0  0  0  0  0  0  0  0  0
   -5.5002   11.5939  -10.3317 H   0  0  0  0  0  0  0  0  0  0  0  0
   -7.0066   12.5435  -10.0954 H   0  0  0  0  0  0  0  0  0  0  0  0
   -8.1361   10.1224  -13.9137 H   0  0  0  0  0  0  0  0  0  0  0  0
   -6.7956   12.2399  -14.0855 H   0  0  0  0  0  0  0  0  0  0  0  0
   -8.5577   10.3007   -9.3927 H   0  0  0  0  0  0  0  0  0  0  0  0
   -8.0279    9.5798   -7.2599 H   0  0  0  0  0  0  0  0  0  0  0  0
   -4.2429   16.0373  -13.8548 H   0  0  0  0  0  0  0  0  0  0  0  0
   -4.9638   16.2086  -12.2185 H   0  0  0  0  0  0  0  0  0  0  0  0
   -3.4785   15.2246  -12.4471 H   0  0  0  0  0  0  0  0  0  0  0  0
   -6.7526   12.3233   -6.9261 H   0  0  0  0  0  0  0  0  0  0  0  0
   -4.5246   13.2972   -6.4815 H   0  0  0  0  0  0  0  0  0  0  0  0
   -2.6730    9.7536   -8.0506 H   0  0  0  0  0  0  0  0  0  0  0  0
   -4.8993    8.7846   -8.4743 H   0  0  0  0  0  0  0  0  0  0  0  0
   -2.1167   14.2081   -7.1655 H   0  0  0  0  0  0  0  0  0  0  0  0
   -2.1807   13.5768   -5.4850 H   0  0  0  0  0  0  0  0  0  0  0  0
   -0.6614   10.5729   -7.5868 H   0  0  0  0  0  0  0  0  0  0  0  0
    1.4672   14.2904   -6.0634 H   0  0  0  0  0  0  0  0  0  0  0  0
    0.2117   15.4427   -6.6311 H   0  0  0  0  0  0  0  0  0  0  0  0
    0.1649   14.8218   -4.9462 H   0  0  0  0  0  0  0  0  0  0  0  0
  1  2  1  0  0  0  0
  1  4  1  0  0  0  0
  1 13  2  0  0  0  0
  2  6  1  0  0  0  0
  3  4  2  0  0  0  0
  3  5  1  0  0  0  0
  5  6  2  0  0  0  0
  5  9  1  0  0  0  0
  6  7  1  0  0  0  0
  7  8  1  0  0  0  0
  7 10  1  0  0  0  0
  8  9  2  0  0  0  0
 10 14  2  0  0  0  0
 11 12  1  0  0  0  0
 11 13  1  0  0  0  0
 11 26  2  0  0  0  0
 14 15  1  0  0  0  0
 14 19  1  0  0  0  0
 15 16  2  0  0  0  0
 16 17  1  0  0  0  0
 17 18  1  0  0  0  0
 17 20  2  0  0  0  0
 18 19  2  0  0  0  0
 20 21  1  0  0  0  0
 20 24  1  0  0  0  0
 21 22  1  0  0  0  0
 22 23  1  0  0  0  0
 22 25  1  0  0  0  0
 23 24  2  0  0  0  0
  2 27  1  0  0  0  0
  2 28  1  0  0  0  0
  3 29  1  0  0  0  0
  4 30  1  0  0  0  0
  7 31  1  0  0  0  0
 10 32  1  0  0  0  0
 12 33  1  0  0  0  0
 12 34  1  0  0  0  0
 12 35  1  0  0  0  0
 15 36  1  0  0  0  0
 16 37  1  0  0  0  0
 18 38  1  0  0  0  0
 19 39  1  0  0  0  0
 21 40  1  0  0  0  0
 21 41  1  0  0  0  0
 24 42  1  0  0  0  0
 25 43  1  0  0  0  0
 25 44  1  0  0  0  0
 25 45  1  0  0  0  0
M  END
> <Name>
24

> <IC50[uM]>
0.029

$$$$
24
  -OEChem-05192314333D
 Structure written by MMmdl.
 45 48  0     1  0  0  0  0  0999 V2000
   -6.3515   12.3530  -11.9813 C   0  0  0  0  0  0  0  0  0  0  0  0
   -6.5085   11.7912  -10.7247 C   0  0  0  0  0  0  0  0  0  0  0  0
   -7.6802   10.5716  -13.0438 C   0  0  0  0  0  0  0  0  0  0  0  0
   -6.9296   11.7657  -13.1245 C   0  0  0  0  0  0  0  0  0  0  0  0
   -7.7980   10.0044  -11.7669 C   0  0  3  0  0  0  0  0  0  0  0  0
   -7.2328   10.6109  -10.5989 C   0  0  0  0  0  0  0  0  0  0  0  0
   -7.6209    9.7375   -9.5162 C   0  0  0  0  0  0  0  0  0  0  0  0
   -8.2754    8.7446   -9.9970 N   0  0  0  0  0  0  0  0  0  0  0  0
   -8.4233    8.8800  -11.3218 N   0  0  0  0  0  0  0  0  0  0  0  0
   -7.3328    9.8812   -8.0296 C   0  0  0  0  0  0  0  0  0  0  0  0
   -5.3004   14.2773  -13.1499 C   0  0  0  0  0  0  0  0  0  0  0  0
   -4.4346   15.5261  -12.8998 C   0  0  0  0  0  0  0  0  0  0  0  0
   -5.5896   13.5586  -12.0343 N   0  0  0  0  0  0  0  0  0  0  0  0
   -5.9706   10.4906   -7.7317 C   0  0  0  0  0  0  0  0  0  0  0  0
   -5.8616   11.7632   -7.1684 C   0  0  0  0  0  0  0  0  0  0  0  0
   -4.6051   12.3126   -6.9180 C   0  0  0  0  0  0  0  0  0  0  0  0
   -3.4544   11.5948   -7.2294 C   0  0  0  0  0  0  0  0  0  0  0  0
   -3.5626   10.3128   -7.8011 C   0  0  0  0  0  0  0  0  0  0  0  0
   -4.8160    9.7710   -8.0425 C   0  0  0  0  0  0  0  0  0  0  0  0
   -2.1083   12.1736   -6.9694 C   0  0  0  0  0  0  0  0  0  0  0  0
   -1.7503   13.4247   -6.4858 C   0  0  0  0  0  0  0  0  0  0  0  0
   -0.4131   13.4674   -6.4189 N   0  0  3  0  0  0  0  0  0  0  0  0
    0.1758   12.3735   -6.8057 N   0  0  0  0  0  0  0  0  0  0  0  0
   -0.8094   11.5620   -7.1791 C   0  0  0  0  0  0  0  0  0  0  0  0
    0.4060   14.5705   -5.9896 C   0  0  0  0  0  0  0  0  0  0  0  0
   -5.6528   14.0066  -14.2746 O   0  0  0  0  0  0  0  0  0  0  0  0
   -5.5002   11.5939  -10.3317 H   0  0  0  0  0  0  0  0  0  0  0  0
   -7.0066   12.5435  -10.0954 H   0  0  0  0  0  0  0  0  0  0  0  0
   -8.1361   10.1224  -13.9137 H   0  0  0  0  0  0  0  0  0  0  0  0
   -6.7956   12.2399  -14.0855 H   0  0  0  0  0  0  0  0  0  0  0  0
   -6.8712    9.4340  -11.9273 H   0  0  0  0  0  0  0  0  0  0  0  0
   -8.0279    9.5798   -7.2599 H   0  0  0  0  0  0  0  0  0  0  0  0
   -4.2429   16.0373  -13.8548 H   0  0  0  0  0  0  0  0  0  0  0  0
   -4.9638   16.2086  -12.2185 H   0  0  0  0  0  0  0  0  0  0  0  0
   -3.4785   15.2246  -12.4471 H   0  0  0  0  0  0  0  0  0  0  0  0
   -6.7526   12.3233   -6.9261 H   0  0  0  0  0  0  0  0  0  0  0  0
   -4.5246   13.2972   -6.4815 H   0  0  0  0  0  0  0  0  0  0  0  0
   -2.6730    9.7536   -8.0506 H   0  0  0  0  0  0  0  0  0  0  0  0
   -4.8993    8.7846   -8.4743 H   0  0  0  0  0  0  0  0  0  0  0  0
   -2.1167   14.2081   -7.1655 H   0  0  0  0  0  0  0  0  0  0  0  0
   -2.1807   13.5768   -5.4850 H   0  0  0  0  0  0  0  0  0  0  0  0
   -0.6614   10.5729   -7.5868 H   0  0  0  0  0  0  0  0  0  0  0  0
    1.4672   14.2904   -6.0634 H   0  0  0  0  0  0  0  0  0  0  0  0
    0.2117   15.4427   -6.6311 H   0  0  0  0  0  0  0  0  0  0  0  0
    0.1649   14.8218   -4.9462 H   0  0  0  0  0  0  0  0  0  0  0  0
  1  2  1  0  0  0  0
  1  4  1  0  0  0  0
  1 13  2  0  0  0  0
  2  6  1  0  0  0  0
  3  4  2  0  0  0  0
  3  5  1  0  0  0  0
  5  6  1  0  0  0  0
  5  9  1  0  0  0  0
  6  7  2  0  0  0  0
  7  8  1  0  0  0  0
  7 10  1  0  0  0  0
  8  9  2  0  0  0  0
 10 14  2  0  0  0  0
 11 12  1  0  0  0  0
 11 13  1  0  0  0  0
 11 26  2  0  0  0  0
 14 15  1  0  0  0  0
 14 19  1  0  0  0  0
 15 16  2  0  0  0  0
 16 17  1  0  0  0  0
 17 18  1  0  0  0  0
 17 20  2  0  0  0  0
 18 19  2  0  0  0  0
 20 21  1  0  0  0  0
 20 24  1  0  0  0  0
 21 22  1  0  0  0  0
 22 23  1  0  0  0  0
 22 25  1  0  0  0  0
 23 24  2  0  0  0  0
  2 27  1  0  0  0  0
  2 28  1  0  0  0  0
  3 29  1  0  0  0  0
  4 30  1  0  0  0  0
  5 31  1  0  0  0  0
 10 32  1  0  0  0  0
 12 33  1  0  0  0  0
 12 34  1  0  0  0  0
 12 35  1  0  0  0  0
 15 36  1  0  0  0  0
 16 37  1  0  0  0  0
 18 38  1  0  0  0  0
 19 39  1  0  0  0  0
 21 40  1  0  0  0  0
 21 41  1  0  0  0  0
 24 42  1  0  0  0  0
 25 43  1  0  0  0  0
 25 44  1  0  0  0  0
 25 45  1  0  0  0  0
M  END
> <Name>
24

> <IC50[uM]>
0.029

$$$$
24
  -OEChem-05192314333D
 Structure written by MMmdl.
 45 48  0     1  0  0  0  0  0999 V2000
   -6.3515   12.3530  -11.9813 C   0  0  0  0  0  0  0  0  0  0  0  0
   -6.5085   11.7912  -10.7247 C   0  0  0  0  0  0  0  0  0  0  0  0
   -7.6802   10.5716  -13.0438 C   0  0  0  0  0  0  0  0  0  0  0  0
   -6.9296   11.7657  -13.1245 C   0  0  0  0  0  0  0  0  0  0  0  0
   -7.7980   10.0044  -11.7669 C   0  0  0  0  0  0  0  0  0  0  0  0
   -7.2328   10.6109  -10.5989 C   0  0  0  0  0  0  0  0  0  0  0  0
   -7.6209    9.7375   -9.5162 C   0  0  0  0  0  0  0  0  0  0  0  0
   -8.2754    8.7446   -9.9970 N   0  0  0  0  0  0  0  0  0  0  0  0
   -8.4233    8.8800  -11.3218 N   0  0  0  0  0  0  0  0  0  0  0  0
   -7.3328    9.8812   -8.0296 C   0  0  0  0  0  0  0  0  0  0  0  0
   -5.3004   14.2773  -13.1499 C   0  0  0  0  0  0  0  0  0  0  0  0
   -4.4346   15.5261  -12.8998 C   0  0  0  0  0  0  0  0  0  0  0  0
   -5.5896   13.5586  -12.0343 N   0  0  0  0  0  0  0  0  0  0  0  0
   -5.9706   10.4906   -7.7317 C   0  0  0  0  0  0  0  0  0  0  0  0
   -5.8616   11.7632   -7.1684 C   0  0  0  0  0  0  0  0  0  0  0  0
   -4.6051   12.3126   -6.9180 C   0  0  0  0  0  0  0  0  0  0  0  0
   -3.4544   11.5948   -7.2294 C   0  0  0  0  0  0  0  0  0  0  0  0
   -3.5626   10.3128   -7.8011 C   0  0  0  0  0  0  0  0  0  0  0  0
   -4.8160    9.7710   -8.0425 C   0  0  0  0  0  0  0  0  0  0  0  0
   -2.1083   12.1736   -6.9694 C   0  0  0  0  0  0  0  0  0  0  0  0
   -1.7503   13.4247   -6.4858 C   0  0  0  0  0  0  0  0  0  0  0  0
   -0.4131   13.4674   -6.4189 N   0  0  3  0  0  0  0  0  0  0  0  0
    0.1758   12.3735   -6.8057 N   0  0  0  0  0  0  0  0  0  0  0  0
   -0.8094   11.5620   -7.1791 C   0  0  0  0  0  0  0  0  0  0  0  0
    0.4060   14.5705   -5.9896 C   0  0  0  0  0  0  0  0  0  0  0  0
   -5.6528   14.0066  -14.2746 O   0  0  0  0  0  0  0  0  0  0  0  0
   -5.5002   11.5939  -10.3317 H   0  0  0  0  0  0  0  0  0  0  0  0
   -7.0066   12.5435  -10.0954 H   0  0  0  0  0  0  0  0  0  0  0  0
   -8.1361   10.1224  -13.9137 H   0  0  0  0  0  0  0  0  0  0  0  0
   -7.5989   12.5237  -13.5575 H   0  0  0  0  0  0  0  0  0  0  0  0
   -6.1027   11.5654  -13.8217 H   0  0  0  0  0  0  0  0  0  0  0  0
   -8.0279    9.5798   -7.2599 H   0  0  0  0  0  0  0  0  0  0  0  0
   -4.2429   16.0373  -13.8548 H   0  0  0  0  0  0  0  0  0  0  0  0
   -4.9638   16.2086  -12.2185 H   0  0  0  0  0  0  0  0  0  0  0  0
   -3.4785   15.2246  -12.4471 H   0  0  0  0  0  0  0  0  0  0  0  0
   -6.7526   12.3233   -6.9261 H   0  0  0  0  0  0  0  0  0  0  0  0
   -4.5246   13.2972   -6.4815 H   0  0  0  0  0  0  0  0  0  0  0  0
   -2.6730    9.7536   -8.0506 H   0  0  0  0  0  0  0  0  0  0  0  0
   -4.8993    8.7846   -8.4743 H   0  0  0  0  0  0  0  0  0  0  0  0
   -2.1167   14.2081   -7.1655 H   0  0  0  0  0  0  0  0  0  0  0  0
   -2.1807   13.5768   -5.4850 H   0  0  0  0  0  0  0  0  0  0  0  0
   -0.6614   10.5729   -7.5868 H   0  0  0  0  0  0  0  0  0  0  0  0
    1.4672   14.2904   -6.0634 H   0  0  0  0  0  0  0  0  0  0  0  0
    0.2117   15.4427   -6.6311 H   0  0  0  0  0  0  0  0  0  0  0  0
    0.1649   14.8218   -4.9462 H   0  0  0  0  0  0  0  0  0  0  0  0
  1  2  1  0  0  0  0
  1  4  1  0  0  0  0
  1 13  2  0  0  0  0
  2  6  1  0  0  0  0
  3  4  1  0  0  0  0
  3  5  2  0  0  0  0
  5  6  1  0  0  0  0
  5  9  1  0  0  0  0
  6  7  2  0  0  0  0
  7  8  1  0  0  0  0
  7 10  1  0  0  0  0
  8  9  2  0  0  0  0
 10 14  2  0  0  0  0
 11 12  1  0  0  0  0
 11 13  1  0  0  0  0
 11 26  2  0  0  0  0
 14 15  1  0  0  0  0
 14 19  1  0  0  0  0
 15 16  2  0  0  0  0
 16 17  1  0  0  0  0
 17 18  1  0  0  0  0
 17 20  2  0  0  0  0
 18 19  2  0  0  0  0
 20 21  1  0  0  0  0
 20 24  1  0  0  0  0
 21 22  1  0  0  0  0
 22 23  1  0  0  0  0
 22 25  1  0  0  0  0
 23 24  2  0  0  0  0
  2 27  1  0  0  0  0
  2 28  1  0  0  0  0
  3 29  1  0  0  0  0
  4 30  1  0  0  0  0
  4 31  1  0  0  0  0
 10 32  1  0  0  0  0
 12 33  1  0  0  0  0
 12 34  1  0  0  0  0
 12 35  1  0  0  0  0
 15 36  1  0  0  0  0
 16 37  1  0  0  0  0
 18 38  1  0  0  0  0
 19 39  1  0  0  0  0
 21 40  1  0  0  0  0
 21 41  1  0  0  0  0
 24 42  1  0  0  0  0
 25 43  1  0  0  0  0
 25 44  1  0  0  0  0
 25 45  1  0  0  0  0
M  END
> <Name>
24

> <IC50[uM]>
0.029

$$$$
24
  -OEChem-05192314333D
 Structure written by MMmdl.
 45 48  0     1  0  0  0  0  0999 V2000
   -6.3515   12.3530  -11.9813 C   0  0  0  0  0  0  0  0  0  0  0  0
   -6.5085   11.7912  -10.7247 C   0  0  0  0  0  0  0  0  0  0  0  0
   -7.6802   10.5716  -13.0438 C   0  0  0  0  0  0  0  0  0  0  0  0
   -6.9296   11.7657  -13.1245 C   0  0  0  0  0  0  0  0  0  0  0  0
   -7.7980   10.0044  -11.7669 C   0  0  0  0  0  0  0  0  0  0  0  0
   -7.2328   10.6109  -10.5989 C   0  0  0  0  0  0  0  0  0  0  0  0
   -7.6209    9.7375   -9.5162 C   0  0  3  0  0  0  0  0  0  0  0  0
   -8.2754    8.7446   -9.9970 N   0  0  0  0  0  0  0  0  0  0  0  0
   -8.4233    8.8800  -11.3218 N   0  0  0  0  0  0  0  0  0  0  0  0
   -7.3328    9.8812   -8.0296 C   0  0  0  0  0  0  0  0  0  0  0  0
   -5.3004   14.2773  -13.1499 C   0  0  0  0  0  0  0  0  0  0  0  0
   -4.4346   15.5261  -12.8998 C   0  0  0  0  0  0  0  0  0  0  0  0
   -5.5896   13.5586  -12.0343 N   0  0  0  0  0  0  0  0  0  0  0  0
   -5.9706   10.4906   -7.7317 C   0  0  0  0  0  0  0  0  0  0  0  0
   -5.8616   11.7632   -7.1684 C   0  0  0  0  0  0  0  0  0  0  0  0
   -4.6051   12.3126   -6.9180 C   0  0  0  0  0  0  0  0  0  0  0  0
   -3.4544   11.5948   -7.2294 C   0  0  0  0  0  0  0  0  0  0  0  0
   -3.5626   10.3128   -7.8011 C   0  0  0  0  0  0  0  0  0  0  0  0
   -4.8160    9.7710   -8.0425 C   0  0  0  0  0  0  0  0  0  0  0  0
   -2.1083   12.1736   -6.9694 C   0  0  0  0  0  0  0  0  0  0  0  0
   -1.7503   13.4247   -6.4858 C   0  0  0  0  0  0  0  0  0  0  0  0
   -0.4131   13.4674   -6.4189 N   0  0  3  0  0  0  0  0  0  0  0  0
    0.1758   12.3735   -6.8057 N   0  0  0  0  0  0  0  0  0  0  0  0
   -0.8094   11.5620   -7.1791 C   0  0  0  0  0  0  0  0  0  0  0  0
    0.4060   14.5705   -5.9896 C   0  0  0  0  0  0  0  0  0  0  0  0
   -5.6528   14.0066  -14.2746 O   0  0  0  0  0  0  0  0  0  0  0  0
   -6.0747   12.2631   -9.8555 H   0  0  0  0  0  0  0  0  0  0  0  0
   -8.1361   10.1224  -13.9137 H   0  0  0  0  0  0  0  0  0  0  0  0
   -6.7956   12.2399  -14.0855 H   0  0  0  0  0  0  0  0  0  0  0  0
   -8.5577   10.3007   -9.3927 H   0  0  0  0  0  0  0  0  0  0  0  0
   -7.7779    7.8985   -9.8058 H   0  0  0  0  0  0  0  0  0  0  0  0
   -8.0279    9.5798   -7.2599 H   0  0  0  0  0  0  0  0  0  0  0  0
   -4.2429   16.0373  -13.8548 H   0  0  0  0  0  0  0  0  0  0  0  0
   -4.9638   16.2086  -12.2185 H   0  0  0  0  0  0  0  0  0  0  0  0
   -3.4785   15.2246  -12.4471 H   0  0  0  0  0  0  0  0  0  0  0  0
   -6.7526   12.3233   -6.9261 H   0  0  0  0  0  0  0  0  0  0  0  0
   -4.5246   13.2972   -6.4815 H   0  0  0  0  0  0  0  0  0  0  0  0
   -2.6730    9.7536   -8.0506 H   0  0  0  0  0  0  0  0  0  0  0  0
   -4.8993    8.7846   -8.4743 H   0  0  0  0  0  0  0  0  0  0  0  0
   -2.1167   14.2081   -7.1655 H   0  0  0  0  0  0  0  0  0  0  0  0
   -2.1807   13.5768   -5.4850 H   0  0  0  0  0  0  0  0  0  0  0  0
   -0.6614   10.5729   -7.5868 H   0  0  0  0  0  0  0  0  0  0  0  0
    1.4672   14.2904   -6.0634 H   0  0  0  0  0  0  0  0  0  0  0  0
    0.2117   15.4427   -6.6311 H   0  0  0  0  0  0  0  0  0  0  0  0
    0.1649   14.8218   -4.9462 H   0  0  0  0  0  0  0  0  0  0  0  0
  1  2  1  0  0  0  0
  1  4  1  0  0  0  0
  1 13  2  0  0  0  0
  2  6  2  0  0  0  0
  3  4  2  0  0  0  0
  3  5  1  0  0  0  0
  5  6  1  0  0  0  0
  5  9  2  0  0  0  0
  6  7  1  0  0  0  0
  7  8  1  0  0  0  0
  7 10  1  0  0  0  0
  8  9  1  0  0  0  0
 10 14  2  0  0  0  0
 11 12  1  0  0  0  0
 11 13  1  0  0  0  0
 11 26  2  0  0  0  0
 14 15  1  0  0  0  0
 14 19  1  0  0  0  0
 15 16  2  0  0  0  0
 16 17  1  0  0  0  0
 17 18  1  0  0  0  0
 17 20  2  0  0  0  0
 18 19  2  0  0  0  0
 20 21  1  0  0  0  0
 20 24  1  0  0  0  0
 21 22  1  0  0  0  0
 22 23  1  0  0  0  0
 22 25  1  0  0  0  0
 23 24  2  0  0  0  0
  2 27  1  0  0  0  0
  3 28  1  0  0  0  0
  4 29  1  0  0  0  0
  7 30  1  0  0  0  0
  8 31  1  0  0  0  0
 10 32  1  0  0  0  0
 12 33  1  0  0  0  0
 12 34  1  0  0  0  0
 12 35  1  0  0  0  0
 15 36  1  0  0  0  0
 16 37  1  0  0  0  0
 18 38  1  0  0  0  0
 19 39  1  0  0  0  0
 21 40  1  0  0  0  0
 21 41  1  0  0  0  0
 24 42  1  0  0  0  0
 25 43  1  0  0  0  0
 25 44  1  0  0  0  0
 25 45  1  0  0  0  0
M  END
> <Name>
24

> <IC50[uM]>
0.029

$$$$
24
  -OEChem-05192314333D
 Structure written by MMmdl.
 45 48  0     1  0  0  0  0  0999 V2000
   -6.3515   12.3530  -11.9813 C   0  0  0  0  0  0  0  0  0  0  0  0
   -6.5085   11.7912  -10.7247 C   0  0  0  0  0  0  0  0  0  0  0  0
   -7.6802   10.5716  -13.0438 C   0  0  0  0  0  0  0  0  0  0  0  0
   -6.9296   11.7657  -13.1245 C   0  0  0  0  0  0  0  0  0  0  0  0
   -7.7980   10.0044  -11.7669 C   0  0  3  0  0  0  0  0  0  0  0  0
   -7.2328   10.6109  -10.5989 C   0  0  0  0  0  0  0  0  0  0  0  0
   -7.6209    9.7375   -9.5162 C   0  0  0  0  0  0  0  0  0  0  0  0
   -8.2754    8.7446   -9.9970 N   0  0  0  0  0  0  0  0  0  0  0  0
   -8.4233    8.8800  -11.3218 N   0  0  0  0  0  0  0  0  0  0  0  0
   -7.3328    9.8812   -8.0296 C   0  0  0  0  0  0  0  0  0  0  0  0
   -5.3004   14.2773  -13.1499 C   0  0  0  0  0  0  0  0  0  0  0  0
   -4.4346   15.5261  -12.8998 C   0  0  0  0  0  0  0  0  0  0  0  0
   -5.5896   13.5586  -12.0343 N   0  0  0  0  0  0  0  0  0  0  0  0
   -5.9706   10.4906   -7.7317 C   0  0  0  0  0  0  0  0  0  0  0  0
   -5.8616   11.7632   -7.1684 C   0  0  0  0  0  0  0  0  0  0  0  0
   -4.6051   12.3126   -6.9180 C   0  0  0  0  0  0  0  0  0  0  0  0
   -3.4544   11.5948   -7.2294 C   0  0  0  0  0  0  0  0  0  0  0  0
   -3.5626   10.3128   -7.8011 C   0  0  0  0  0  0  0  0  0  0  0  0
   -4.8160    9.7710   -8.0425 C   0  0  0  0  0  0  0  0  0  0  0  0
   -2.1083   12.1736   -6.9694 C   0  0  0  0  0  0  0  0  0  0  0  0
   -1.7503   13.4247   -6.4858 C   0  0  0  0  0  0  0  0  0  0  0  0
   -0.4131   13.4674   -6.4189 N   0  0  3  0  0  0  0  0  0  0  0  0
    0.1758   12.3735   -6.8057 N   0  0  0  0  0  0  0  0  0  0  0  0
   -0.8094   11.5620   -7.1791 C   0  0  0  0  0  0  0  0  0  0  0  0
    0.4060   14.5705   -5.9896 C   0  0  0  0  0  0  0  0  0  0  0  0
   -5.6528   14.0066  -14.2746 O   0  0  0  0  0  0  0  0  0  0  0  0
   -6.0747   12.2631   -9.8555 H   0  0  0  0  0  0  0  0  0  0  0  0
   -8.1361   10.1224  -13.9137 H   0  0  0  0  0  0  0  0  0  0  0  0
   -6.7956   12.2399  -14.0855 H   0  0  0  0  0  0  0  0  0  0  0  0
   -6.8712    9.4340  -11.9273 H   0  0  0  0  0  0  0  0  0  0  0  0
   -9.3978    8.9396  -11.5383 H   0  0  0  0  0  0  0  0  0  0  0  0
   -8.0279    9.5798   -7.2599 H   0  0  0  0  0  0  0  0  0  0  0  0
   -4.2429   16.0373  -13.8548 H   0  0  0  0  0  0  0  0  0  0  0  0
   -4.9638   16.2086  -12.2185 H   0  0  0  0  0  0  0  0  0  0  0  0
   -3.4785   15.2246  -12.4471 H   0  0  0  0  0  0  0  0  0  0  0  0
   -6.7526   12.3233   -6.9261 H   0  0  0  0  0  0  0  0  0  0  0  0
   -4.5246   13.2972   -6.4815 H   0  0  0  0  0  0  0  0  0  0  0  0
   -2.6730    9.7536   -8.0506 H   0  0  0  0  0  0  0  0  0  0  0  0
   -4.8993    8.7846   -8.4743 H   0  0  0  0  0  0  0  0  0  0  0  0
   -2.1167   14.2081   -7.1655 H   0  0  0  0  0  0  0  0  0  0  0  0
   -2.1807   13.5768   -5.4850 H   0  0  0  0  0  0  0  0  0  0  0  0
   -0.6614   10.5729   -7.5868 H   0  0  0  0  0  0  0  0  0  0  0  0
    1.4672   14.2904   -6.0634 H   0  0  0  0  0  0  0  0  0  0  0  0
    0.2117   15.4427   -6.6311 H   0  0  0  0  0  0  0  0  0  0  0  0
    0.1649   14.8218   -4.9462 H   0  0  0  0  0  0  0  0  0  0  0  0
  1  2  1  0  0  0  0
  1  4  1  0  0  0  0
  1 13  2  0  0  0  0
  2  6  2  0  0  0  0
  3  4  2  0  0  0  0
  3  5  1  0  0  0  0
  5  6  1  0  0  0  0
  5  9  1  0  0  0  0
  6  7  1  0  0  0  0
  7  8  2  0  0  0  0
  7 10  1  0  0  0  0
  8  9  1  0  0  0  0
 10 14  2  0  0  0  0
 11 12  1  0  0  0  0
 11 13  1  0  0  0  0
 11 26  2  0  0  0  0
 14 15  1  0  0  0  0
 14 19  1  0  0  0  0
 15 16  2  0  0  0  0
 16 17  1  0  0  0  0
 17 18  1  0  0  0  0
 17 20  2  0  0  0  0
 18 19  2  0  0  0  0
 20 21  1  0  0  0  0
 20 24  1  0  0  0  0
 21 22  1  0  0  0  0
 22 23  1  0  0  0  0
 22 25  1  0  0  0  0
 23 24  2  0  0  0  0
  2 27  1  0  0  0  0
  3 28  1  0  0  0  0
  4 29  1  0  0  0  0
  5 30  1  0  0  0  0
  9 31  1  0  0  0  0
 10 32  1  0  0  0  0
 12 33  1  0  0  0  0
 12 34  1  0  0  0  0
 12 35  1  0  0  0  0
 15 36  1  0  0  0  0
 16 37  1  0  0  0  0
 18 38  1  0  0  0  0
 19 39  1  0  0  0  0
 21 40  1  0  0  0  0
 21 41  1  0  0  0  0
 24 42  1  0  0  0  0
 25 43  1  0  0  0  0
 25 44  1  0  0  0  0
 25 45  1  0  0  0  0
M  END
> <Name>
24

> <IC50[uM]>
0.029

$$$$
24
  -OEChem-05192314333D
 Structure written by MMmdl.
 45 48  0     1  0  0  0  0  0999 V2000
   -6.3515   12.3530  -11.9813 C   0  0  0  0  0  0  0  0  0  0  0  0
   -6.5085   11.7912  -10.7247 C   0  0  0  0  0  0  0  0  0  0  0  0
   -7.6802   10.5716  -13.0438 C   0  0  0  0  0  0  0  0  0  0  0  0
   -6.9296   11.7657  -13.1245 C   0  0  0  0  0  0  0  0  0  0  0  0
   -7.7980   10.0044  -11.7669 C   0  0  0  0  0  0  0  0  0  0  0  0
   -7.2328   10.6109  -10.5989 C   0  0  0  0  0  0  0  0  0  0  0  0
   -7.6209    9.7375   -9.5162 C   0  0  0  0  0  0  0  0  0  0  0  0
   -8.2754    8.7446   -9.9970 N   0  0  0  0  0  0  0  0  0  0  0  0
   -8.4233    8.8800  -11.3218 N   0  0  0  0  0  0  0  0  0  0  0  0
   -7.3328    9.8812   -8.0296 C   0  0  0  0  0  0  0  0  0  0  0  0
   -5.3004   14.2773  -13.1499 C   0  0  0  0  0  0  0  0  0  0  0  0
   -4.4346   15.5261  -12.8998 C   0  0  0  0  0  0  0  0  0  0  0  0
   -5.5896   13.5586  -12.0343 N   0  0  0  0  0  0  0  0  0  0  0  0
   -5.9706   10.4906   -7.7317 C   0  0  0  0  0  0  0  0  0  0  0  0
   -5.8616   11.7632   -7.1684 C   0  0  0  0  0  0  0  0  0  0  0  0
   -4.6051   12.3126   -6.9180 C   0  0  0  0  0  0  0  0  0  0  0  0
   -3.4544   11.5948   -7.2294 C   0  0  0  0  0  0  0  0  0  0  0  0
   -3.5626   10.3128   -7.8011 C   0  0  0  0  0  0  0  0  0  0  0  0
   -4.8160    9.7710   -8.0425 C   0  0  0  0  0  0  0  0  0  0  0  0
   -2.1083   12.1736   -6.9694 C   0  0  0  0  0  0  0  0  0  0  0  0
   -1.7503   13.4247   -6.4858 C   0  0  0  0  0  0  0  0  0  0  0  0
   -0.4131   13.4674   -6.4189 N   0  0  3  0  0  0  0  0  0  0  0  0
    0.1758   12.3735   -6.8057 N   0  0  0  0  0  0  0  0  0  0  0  0
   -0.8094   11.5620   -7.1791 C   0  0  0  0  0  0  0  0  0  0  0  0
    0.4060   14.5705   -5.9896 C   0  0  0  0  0  0  0  0  0  0  0  0
   -5.6528   14.0066  -14.2746 O   0  0  0  0  0  0  0  0  0  0  0  0
   -6.0747   12.2631   -9.8555 H   0  0  0  0  0  0  0  0  0  0  0  0
   -8.1361   10.1224  -13.9137 H   0  0  0  0  0  0  0  0  0  0  0  0
   -6.7956   12.2399  -14.0855 H   0  0  0  0  0  0  0  0  0  0  0  0
   -8.0279    9.5798   -7.2599 H   0  0  0  0  0  0  0  0  0  0  0  0
   -4.2429   16.0373  -13.8548 H   0  0  0  0  0  0  0  0  0  0  0  0
   -4.9638   16.2086  -12.2185 H   0  0  0  0  0  0  0  0  0  0  0  0
   -3.4785   15.2246  -12.4471 H   0  0  0  0  0  0  0  0  0  0  0  0
   -6.7526   12.3233   -6.9261 H   0  0  0  0  0  0  0  0  0  0  0  0
   -4.5246   13.2972   -6.4815 H   0  0  0  0  0  0  0  0  0  0  0  0
   -2.6730    9.7536   -8.0506 H   0  0  0  0  0  0  0  0  0  0  0  0
   -4.8993    8.7846   -8.4743 H   0  0  0  0  0  0  0  0  0  0  0  0
   -2.1167   14.2081   -7.1655 H   0  0  0  0  0  0  0  0  0  0  0  0
   -2.1807   13.5768   -5.4850 H   0  0  0  0  0  0  0  0  0  0  0  0
    0.7889   12.5578   -7.5739 H   0  0  0  0  0  0  0  0  0  0  0  0
   -0.7515   10.6346   -6.5905 H   0  0  0  0  0  0  0  0  0  0  0  0
   -0.6933   11.3262   -8.2472 H   0  0  0  0  0  0  0  0  0  0  0  0
    1.4668   14.2860   -6.0513 H   0  0  0  0  0  0  0  0  0  0  0  0
    0.2210   15.4389   -6.6390 H   0  0  0  0  0  0  0  0  0  0  0  0
    0.1560   14.8300   -4.9503 H   0  0  0  0  0  0  0  0  0  0  0  0
  1  2  1  0  0  0  0
  1  4  1  0  0  0  0
  1 13  2  0  0  0  0
  2  6  2  0  0  0  0
  3  4  2  0  0  0  0
  3  5  1  0  0  0  0
  5  6  1  0  0  0  0
  5  9  2  0  0  0  0
  6  7  1  0  0  0  0
  7  8  2  0  0  0  0
  7 10  1  0  0  0  0
  8  9  1  0  0  0  0
 10 14  2  0  0  0  0
 11 12  1  0  0  0  0
 11 13  1  0  0  0  0
 11 26  2  0  0  0  0
 14 15  1  0  0  0  0
 14 19  1  0  0  0  0
 15 16  2  0  0  0  0
 16 17  1  0  0  0  0
 17 18  1  0  0  0  0
 17 20  2  0  0  0  0
 18 19  2  0  0  0  0
 20 21  1  0  0  0  0
 20 24  1  0  0  0  0
 21 22  1  0  0  0  0
 22 23  1  0  0  0  0
 22 25  1  0  0  0  0
 23 24  1  0  0  0  0
  2 27  1  0  0  0  0
  3 28  1  0  0  0  0
  4 29  1  0  0  0  0
 10 30  1  0  0  0  0
 12 31  1  0  0  0  0
 12 32  1  0  0  0  0
 12 33  1  0  0  0  0
 15 34  1  0  0  0  0
 16 35  1  0  0  0  0
 18 36  1  0  0  0  0
 19 37  1  0  0  0  0
 21 38  1  0  0  0  0
 21 39  1  0  0  0  0
 23 40  1  0  0  0  0
 24 41  1  0  0  0  0
 24 42  1  0  0  0  0
 25 43  1  0  0  0  0
 25 44  1  0  0  0  0
 25 45  1  0  0  0  0
M  END
> <Name>
24

> <IC50[uM]>
0.029

$$$$
24
  -OEChem-05192314333D
 Structure written by MMmdl.
 45 48  0     1  0  0  0  0  0999 V2000
   -6.3515   12.3530  -11.9813 C   0  0  0  0  0  0  0  0  0  0  0  0
   -6.5085   11.7912  -10.7247 C   0  0  0  0  0  0  0  0  0  0  0  0
   -7.6802   10.5716  -13.0438 C   0  0  0  0  0  0  0  0  0  0  0  0
   -6.9296   11.7657  -13.1245 C   0  0  0  0  0  0  0  0  0  0  0  0
   -7.7980   10.0044  -11.7669 C   0  0  0  0  0  0  0  0  0  0  0  0
   -7.2328   10.6109  -10.5989 C   0  0  3  0  0  0  0  0  0  0  0  0
   -7.6209    9.7375   -9.5162 C   0  0  0  0  0  0  0  0  0  0  0  0
   -8.2754    8.7446   -9.9970 N   0  0  0  0  0  0  0  0  0  0  0  0
   -8.4233    8.8800  -11.3218 N   0  0  0  0  0  0  0  0  0  0  0  0
   -7.3328    9.8812   -8.0296 C   0  0  0  0  0  0  0  0  0  0  0  0
   -5.3004   14.2773  -13.1499 C   0  0  0  0  0  0  0  0  0  0  0  0
   -4.4346   15.5261  -12.8998 C   0  0  0  0  0  0  0  0  0  0  0  0
   -5.5896   13.5586  -12.0343 N   0  0  0  0  0  0  0  0  0  0  0  0
   -5.9706   10.4906   -7.7317 C   0  0  0  0  0  0  0  0  0  0  0  0
   -5.8616   11.7632   -7.1684 C   0  0  0  0  0  0  0  0  0  0  0  0
   -4.6051   12.3126   -6.9180 C   0  0  0  0  0  0  0  0  0  0  0  0
   -3.4544   11.5948   -7.2294 C   0  0  0  0  0  0  0  0  0  0  0  0
   -3.5626   10.3128   -7.8011 C   0  0  0  0  0  0  0  0  0  0  0  0
   -4.8160    9.7710   -8.0425 C   0  0  0  0  0  0  0  0  0  0  0  0
   -2.1083   12.1736   -6.9694 C   0  0  0  0  0  0  0  0  0  0  0  0
   -1.7503   13.4247   -6.4858 C   0  0  0  0  0  0  0  0  0  0  0  0
   -0.4131   13.4674   -6.4189 N   0  0  3  0  0  0  0  0  0  0  0  0
    0.1758   12.3735   -6.8057 N   0  0  0  0  0  0  0  0  0  0  0  0
   -0.8094   11.5620   -7.1791 C   0  0  0  0  0  0  0  0  0  0  0  0
    0.4060   14.5705   -5.9896 C   0  0  0  0  0  0  0  0  0  0  0  0
   -5.6528   14.0066  -14.2746 O   0  0  0  0  0  0  0  0  0  0  0  0
   -6.0747   12.2631   -9.8555 H   0  0  0  0  0  0  0  0  0  0  0  0
   -8.1361   10.1224  -13.9137 H   0  0  0  0  0  0  0  0  0  0  0  0
   -6.7956   12.2399  -14.0855 H   0  0  0  0  0  0  0  0  0  0  0  0
   -6.3107   10.0281  -10.7406 H   0  0  0  0  0  0  0  0  0  0  0  0
   -8.0279    9.5798   -7.2599 H   0  0  0  0  0  0  0  0  0  0  0  0
   -4.2517   16.0431  -13.8534 H   0  0  0  0  0  0  0  0  0  0  0  0
   -4.9593   16.2038  -12.2102 H   0  0  0  0  0  0  0  0  0  0  0  0
   -3.4743   15.2236  -12.4567 H   0  0  0  0  0  0  0  0  0  0  0  0
   -6.7526   12.3233   -6.9261 H   0  0  0  0  0  0  0  0  0  0  0  0
   -4.5246   13.2972   -6.4815 H   0  0  0  0  0  0  0  0  0  0  0  0
   -2.6730    9.7536   -8.0506 H   0  0  0  0  0  0  0  0  0  0  0  0
   -4.8993    8.7846   -8.4743 H   0  0  0  0  0  0  0  0  0  0  0  0
   -2.1167   14.2081   -7.1655 H   0  0  0  0  0  0  0  0  0  0  0  0
   -2.1807   13.5768   -5.4850 H   0  0  0  0  0  0  0  0  0  0  0  0
   -0.6614   10.5729   -7.5868 H   0  0  0  0  0  0  0  0  0  0  0  0
    1.4672   14.2904   -6.0634 H   0  0  0  0  0  0  0  0  0  0  0  0
    0.2117   15.4427   -6.6311 H   0  0  0  0  0  0  0  0  0  0  0  0
    0.1649   14.8218   -4.9462 H   0  0  0  0  0  0  0  0  0  0  0  0
   -6.1759   13.2137  -14.2608 H   0  0  0  0  0  0  0  0  0  0  0  0
  1  2  2  0  0  0  0
  1  4  1  0  0  0  0
  1 13  1  0  0  0  0
  2  6  1  0  0  0  0
  3  4  2  0  0  0  0
  3  5  1  0  0  0  0
  5  6  1  0  0  0  0
  5  9  2  0  0  0  0
  6  7  1  0  0  0  0
  7  8  2  0  0  0  0
  7 10  1  0  0  0  0
  8  9  1  0  0  0  0
 10 14  2  0  0  0  0
 11 12  1  0  0  0  0
 11 13  2  0  0  0  0
 11 26  1  0  0  0  0
 14 15  1  0  0  0  0
 14 19  1  0  0  0  0
 15 16  2  0  0  0  0
 16 17  1  0  0  0  0
 17 18  1  0  0  0  0
 17 20  2  0  0  0  0
 18 19  2  0  0  0  0
 20 21  1  0  0  0  0
 20 24  1  0  0  0  0
 21 22  1  0  0  0  0
 22 23  1  0  0  0  0
 22 25  1  0  0  0  0
 23 24  2  0  0  0  0
  2 27  1  0  0  0  0
  3 28  1  0  0  0  0
  4 29  1  0  0  0  0
  6 30  1  0  0  0  0
 10 31  1  0  0  0  0
 12 32  1  0  0  0  0
 12 33  1  0  0  0  0
 12 34  1  0  0  0  0
 15 35  1  0  0  0  0
 16 36  1  0  0  0  0
 18 37  1  0  0  0  0
 19 38  1  0  0  0  0
 21 39  1  0  0  0  0
 21 40  1  0  0  0  0
 24 41  1  0  0  0  0
 25 42  1  0  0  0  0
 25 43  1  0  0  0  0
 25 44  1  0  0  0  0
 26 45  1  0  0  0  0
M  END
> <Name>
24

> <IC50[uM]>
0.029

$$$$
24
  -OEChem-05192314333D
 Structure written by MMmdl.
 45 48  0     1  0  0  0  0  0999 V2000
   -6.3515   12.3530  -11.9813 C   0  0  3  0  0  0  0  0  0  0  0  0
   -6.5085   11.7912  -10.7247 C   0  0  0  0  0  0  0  0  0  0  0  0
   -7.6802   10.5716  -13.0438 C   0  0  0  0  0  0  0  0  0  0  0  0
   -6.9296   11.7657  -13.1245 C   0  0  0  0  0  0  0  0  0  0  0  0
   -7.7980   10.0044  -11.7669 C   0  0  0  0  0  0  0  0  0  0  0  0
   -7.2328   10.6109  -10.5989 C   0  0  0  0  0  0  0  0  0  0  0  0
   -7.6209    9.7375   -9.5162 C   0  0  0  0  0  0  0  0  0  0  0  0
   -8.2754    8.7446   -9.9970 N   0  0  0  0  0  0  0  0  0  0  0  0
   -8.4233    8.8800  -11.3218 N   0  0  0  0  0  0  0  0  0  0  0  0
   -7.3328    9.8812   -8.0296 C   0  0  0  0  0  0  0  0  0  0  0  0
   -5.3004   14.2773  -13.1499 C   0  0  0  0  0  0  0  0  0  0  0  0
   -4.4346   15.5261  -12.8998 C   0  0  0  0  0  0  0  0  0  0  0  0
   -5.5896   13.5586  -12.0343 N   0  0  0  0  0  0  0  0  0  0  0  0
   -5.9706   10.4906   -7.7317 C   0  0  0  0  0  0  0  0  0  0  0  0
   -5.8616   11.7632   -7.1684 C   0  0  0  0  0  0  0  0  0  0  0  0
   -4.6051   12.3126   -6.9180 C   0  0  0  0  0  0  0  0  0  0  0  0
   -3.4544   11.5948   -7.2294 C   0  0  0  0  0  0  0  0  0  0  0  0
   -3.5626   10.3128   -7.8011 C   0  0  0  0  0  0  0  0  0  0  0  0
   -4.8160    9.7710   -8.0425 C   0  0  0  0  0  0  0  0  0  0  0  0
   -2.1083   12.1736   -6.9694 C   0  0  0  0  0  0  0  0  0  0  0  0
   -1.7503   13.4247   -6.4858 C   0  0  0  0  0  0  0  0  0  0  0  0
   -0.4131   13.4674   -6.4189 N   0  0  3  0  0  0  0  0  0  0  0  0
    0.1758   12.3735   -6.8057 N   0  0  0  0  0  0  0  0  0  0  0  0
   -0.8094   11.5620   -7.1791 C   0  0  0  0  0  0  0  0  0  0  0  0
    0.4060   14.5705   -5.9896 C   0  0  0  0  0  0  0  0  0  0  0  0
   -5.6528   14.0066  -14.2746 O   0  0  0  0  0  0  0  0  0  0  0  0
   -5.4362   11.7628  -12.1356 H   0  0  0  0  0  0  0  0  0  0  0  0
   -6.0747   12.2631   -9.8555 H   0  0  0  0  0  0  0  0  0  0  0  0
   -8.1361   10.1224  -13.9137 H   0  0  0  0  0  0  0  0  0  0  0  0
   -6.7956   12.2399  -14.0855 H   0  0  0  0  0  0  0  0  0  0  0  0
   -8.0279    9.5798   -7.2599 H   0  0  0  0  0  0  0  0  0  0  0  0
   -4.2517   16.0431  -13.8534 H   0  0  0  0  0  0  0  0  0  0  0  0
   -4.9593   16.2038  -12.2102 H   0  0  0  0  0  0  0  0  0  0  0  0
   -3.4743   15.2236  -12.4567 H   0  0  0  0  0  0  0  0  0  0  0  0
   -6.7526   12.3233   -6.9261 H   0  0  0  0  0  0  0  0  0  0  0  0
   -4.5246   13.2972   -6.4815 H   0  0  0  0  0  0  0  0  0  0  0  0
   -2.6730    9.7536   -8.0506 H   0  0  0  0  0  0  0  0  0  0  0  0
   -4.8993    8.7846   -8.4743 H   0  0  0  0  0  0  0  0  0  0  0  0
   -2.1167   14.2081   -7.1655 H   0  0  0  0  0  0  0  0  0  0  0  0
   -2.1807   13.5768   -5.4850 H   0  0  0  0  0  0  0  0  0  0  0  0
   -0.6614   10.5729   -7.5868 H   0  0  0  0  0  0  0  0  0  0  0  0
    1.4672   14.2904   -6.0634 H   0  0  0  0  0  0  0  0  0  0  0  0
    0.2117   15.4427   -6.6311 H   0  0  0  0  0  0  0  0  0  0  0  0
    0.1649   14.8218   -4.9462 H   0  0  0  0  0  0  0  0  0  0  0  0
   -6.1759   13.2137  -14.2608 H   0  0  0  0  0  0  0  0  0  0  0  0
  1  2  1  0  0  0  0
  1  4  1  0  0  0  0
  1 13  1  0  0  0  0
  2  6  2  0  0  0  0
  3  4  2  0  0  0  0
  3  5  1  0  0  0  0
  5  6  1  0  0  0  0
  5  9  2  0  0  0  0
  6  7  1  0  0  0  0
  7  8  2  0  0  0  0
  7 10  1  0  0  0  0
  8  9  1  0  0  0  0
 10 14  2  0  0  0  0
 11 12  1  0  0  0  0
 11 13  2  0  0  0  0
 11 26  1  0  0  0  0
 14 15  1  0  0  0  0
 14 19  1  0  0  0  0
 15 16  2  0  0  0  0
 16 17  1  0  0  0  0
 17 18  1  0  0  0  0
 17 20  2  0  0  0  0
 18 19  2  0  0  0  0
 20 21  1  0  0  0  0
 20 24  1  0  0  0  0
 21 22  1  0  0  0  0
 22 23  1  0  0  0  0
 22 25  1  0  0  0  0
 23 24  2  0  0  0  0
  1 27  1  0  0  0  0
  2 28  1  0  0  0  0
  3 29  1  0  0  0  0
  4 30  1  0  0  0  0
 10 31  1  0  0  0  0
 12 32  1  0  0  0  0
 12 33  1  0  0  0  0
 12 34  1  0  0  0  0
 15 35  1  0  0  0  0
 16 36  1  0  0  0  0
 18 37  1  0  0  0  0
 19 38  1  0  0  0  0
 21 39  1  0  0  0  0
 21 40  1  0  0  0  0
 24 41  1  0  0  0  0
 25 42  1  0  0  0  0
 25 43  1  0  0  0  0
 25 44  1  0  0  0  0
 26 45  1  0  0  0  0
M  END
> <Name>
24

> <IC50[uM]>
0.029

$$$$
24
  -OEChem-05192314333D
 Structure written by MMmdl.
 45 48  0     1  0  0  0  0  0999 V2000
   -6.3515   12.3530  -11.9813 C   0  0  0  0  0  0  0  0  0  0  0  0
   -6.5085   11.7912  -10.7247 C   0  0  0  0  0  0  0  0  0  0  0  0
   -7.6802   10.5716  -13.0438 C   0  0  0  0  0  0  0  0  0  0  0  0
   -6.9296   11.7657  -13.1245 C   0  0  0  0  0  0  0  0  0  0  0  0
   -7.7980   10.0044  -11.7669 C   0  0  0  0  0  0  0  0  0  0  0  0
   -7.2328   10.6109  -10.5989 C   0  0  0  0  0  0  0  0  0  0  0  0
   -7.6209    9.7375   -9.5162 C   0  0  0  0  0  0  0  0  0  0  0  0
   -8.2754    8.7446   -9.9970 N   0  0  0  0  0  0  0  0  0  0  0  0
   -8.4233    8.8800  -11.3218 N   0  0  0  0  0  0  0  0  0  0  0  0
   -7.3328    9.8812   -8.0296 C   0  0  0  0  0  0  0  0  0  0  0  0
   -5.3004   14.2773  -13.1499 C   0  0  0  0  0  0  0  0  0  0  0  0
   -4.4346   15.5261  -12.8998 C   0  0  0  0  0  0  0  0  0  0  0  0
   -5.5896   13.5586  -12.0343 N   0  0  0  0  0  0  0  0  0  0  0  0
   -5.9706   10.4906   -7.7317 C   0  0  0  0  0  0  0  0  0  0  0  0
   -5.8616   11.7632   -7.1684 C   0  0  0  0  0  0  0  0  0  0  0  0
   -4.6051   12.3126   -6.9180 C   0  0  0  0  0  0  0  0  0  0  0  0
   -3.4544   11.5948   -7.2294 C   0  0  0  0  0  0  0  0  0  0  0  0
   -3.5626   10.3128   -7.8011 C   0  0  0  0  0  0  0  0  0  0  0  0
   -4.8160    9.7710   -8.0425 C   0  0  0  0  0  0  0  0  0  0  0  0
   -2.1083   12.1736   -6.9694 C   0  0  0  0  0  0  0  0  0  0  0  0
   -1.7503   13.4247   -6.4858 C   0  0  0  0  0  0  0  0  0  0  0  0
   -0.4131   13.4674   -6.4189 N   0  0  3  0  0  0  0  0  0  0  0  0
    0.1758   12.3735   -6.8057 N   0  0  0  0  0  0  0  0  0  0  0  0
   -0.8094   11.5620   -7.1791 C   0  0  0  0  0  0  0  0  0  0  0  0
    0.4060   14.5705   -5.9896 C   0  0  0  0  0  0  0  0  0  0  0  0
   -5.6528   14.0066  -14.2746 O   0  0  0  0  0  0  0  0  0  0  0  0
   -6.0747   12.2631   -9.8555 H   0  0  0  0  0  0  0  0  0  0  0  0
   -8.6945   10.7862  -13.4115 H   0  0  0  0  0  0  0  0  0  0  0  0
   -7.2021    9.8287  -13.6992 H   0  0  0  0  0  0  0  0  0  0  0  0
   -6.7956   12.2399  -14.0855 H   0  0  0  0  0  0  0  0  0  0  0  0
   -8.0279    9.5798   -7.2599 H   0  0  0  0  0  0  0  0  0  0  0  0
   -4.2517   16.0431  -13.8534 H   0  0  0  0  0  0  0  0  0  0  0  0
   -4.9593   16.2038  -12.2102 H   0  0  0  0  0  0  0  0  0  0  0  0
   -3.4743   15.2236  -12.4567 H   0  0  0  0  0  0  0  0  0  0  0  0
   -6.7526   12.3233   -6.9261 H   0  0  0  0  0  0  0  0  0  0  0  0
   -4.5246   13.2972   -6.4815 H   0  0  0  0  0  0  0  0  0  0  0  0
   -2.6730    9.7536   -8.0506 H   0  0  0  0  0  0  0  0  0  0  0  0
   -4.8993    8.7846   -8.4743 H   0  0  0  0  0  0  0  0  0  0  0  0
   -2.1167   14.2081   -7.1655 H   0  0  0  0  0  0  0  0  0  0  0  0
   -2.1807   13.5768   -5.4850 H   0  0  0  0  0  0  0  0  0  0  0  0
   -0.6614   10.5729   -7.5868 H   0  0  0  0  0  0  0  0  0  0  0  0
    1.4672   14.2904   -6.0634 H   0  0  0  0  0  0  0  0  0  0  0  0
    0.2117   15.4427   -6.6311 H   0  0  0  0  0  0  0  0  0  0  0  0
    0.1649   14.8218   -4.9462 H   0  0  0  0  0  0  0  0  0  0  0  0
   -6.1759   13.2137  -14.2608 H   0  0  0  0  0  0  0  0  0  0  0  0
  1  2  1  0  0  0  0
  1  4  2  0  0  0  0
  1 13  1  0  0  0  0
  2  6  2  0  0  0  0
  3  4  1  0  0  0  0
  3  5  1  0  0  0  0
  5  6  1  0  0  0  0
  5  9  2  0  0  0  0
  6  7  1  0  0  0  0
  7  8  2  0  0  0  0
  7 10  1  0  0  0  0
  8  9  1  0  0  0  0
 10 14  2  0  0  0  0
 11 12  1  0  0  0  0
 11 13  2  0  0  0  0
 11 26  1  0  0  0  0
 14 15  1  0  0  0  0
 14 19  1  0  0  0  0
 15 16  2  0  0  0  0
 16 17  1  0  0  0  0
 17 18  1  0  0  0  0
 17 20  2  0  0  0  0
 18 19  2  0  0  0  0
 20 21  1  0  0  0  0
 20 24  1  0  0  0  0
 21 22  1  0  0  0  0
 22 23  1  0  0  0  0
 22 25  1  0  0  0  0
 23 24  2  0  0  0  0
  2 27  1  0  0  0  0
  3 28  1  0  0  0  0
  3 29  1  0  0  0  0
  4 30  1  0  0  0  0
 10 31  1  0  0  0  0
 12 32  1  0  0  0  0
 12 33  1  0  0  0  0
 12 34  1  0  0  0  0
 15 35  1  0  0  0  0
 16 36  1  0  0  0  0
 18 37  1  0  0  0  0
 19 38  1  0  0  0  0
 21 39  1  0  0  0  0
 21 40  1  0  0  0  0
 24 41  1  0  0  0  0
 25 42  1  0  0  0  0
 25 43  1  0  0  0  0
 25 44  1  0  0  0  0
 26 45  1  0  0  0  0
M  END
> <Name>
24

> <IC50[uM]>
0.029

$$$$
24
  -OEChem-05192314333D
 Structure written by MMmdl.
 45 48  0     1  0  0  0  0  0999 V2000
   -6.3515   12.3530  -11.9813 C   0  0  0  0  0  0  0  0  0  0  0  0
   -6.5085   11.7912  -10.7247 C   0  0  0  0  0  0  0  0  0  0  0  0
   -7.6802   10.5716  -13.0438 C   0  0  0  0  0  0  0  0  0  0  0  0
   -6.9296   11.7657  -13.1245 C   0  0  0  0  0  0  0  0  0  0  0  0
   -7.7980   10.0044  -11.7669 C   0  0  3  0  0  0  0  0  0  0  0  0
   -7.2328   10.6109  -10.5989 C   0  0  0  0  0  0  0  0  0  0  0  0
   -7.6209    9.7375   -9.5162 C   0  0  0  0  0  0  0  0  0  0  0  0
   -8.2754    8.7446   -9.9970 N   0  0  0  0  0  0  0  0  0  0  0  0
   -8.4233    8.8800  -11.3218 N   0  0  0  0  0  0  0  0  0  0  0  0
   -7.3328    9.8812   -8.0296 C   0  0  0  0  0  0  0  0  0  0  0  0
   -5.3004   14.2773  -13.1499 C   0  0  0  0  0  0  0  0  0  0  0  0
   -4.4346   15.5261  -12.8998 C   0  0  0  0  0  0  0  0  0  0  0  0
   -5.5896   13.5586  -12.0343 N   0  0  0  0  0  0  0  0  0  0  0  0
   -5.9706   10.4906   -7.7317 C   0  0  0  0  0  0  0  0  0  0  0  0
   -5.8616   11.7632   -7.1684 C   0  0  0  0  0  0  0  0  0  0  0  0
   -4.6051   12.3126   -6.9180 C   0  0  0  0  0  0  0  0  0  0  0  0
   -3.4544   11.5948   -7.2294 C   0  0  0  0  0  0  0  0  0  0  0  0
   -3.5626   10.3128   -7.8011 C   0  0  0  0  0  0  0  0  0  0  0  0
   -4.8160    9.7710   -8.0425 C   0  0  0  0  0  0  0  0  0  0  0  0
   -2.1083   12.1736   -6.9694 C   0  0  0  0  0  0  0  0  0  0  0  0
   -1.7503   13.4247   -6.4858 C   0  0  0  0  0  0  0  0  0  0  0  0
   -0.4131   13.4674   -6.4189 N   0  0  3  0  0  0  0  0  0  0  0  0
    0.1758   12.3735   -6.8057 N   0  0  0  0  0  0  0  0  0  0  0  0
   -0.8094   11.5620   -7.1791 C   0  0  0  0  0  0  0  0  0  0  0  0
    0.4060   14.5705   -5.9896 C   0  0  0  0  0  0  0  0  0  0  0  0
   -5.6528   14.0066  -14.2746 O   0  0  0  0  0  0  0  0  0  0  0  0
   -6.0747   12.2631   -9.8555 H   0  0  0  0  0  0  0  0  0  0  0  0
   -8.1361   10.1224  -13.9137 H   0  0  0  0  0  0  0  0  0  0  0  0
   -6.7956   12.2399  -14.0855 H   0  0  0  0  0  0  0  0  0  0  0  0
   -6.8712    9.4340  -11.9273 H   0  0  0  0  0  0  0  0  0  0  0  0
   -8.0279    9.5798   -7.2599 H   0  0  0  0  0  0  0  0  0  0  0  0
   -4.2429   16.0373  -13.8548 H   0  0  0  0  0  0  0  0  0  0  0  0
   -4.9638   16.2086  -12.2185 H   0  0  0  0  0  0  0  0  0  0  0  0
   -3.4785   15.2246  -12.4471 H   0  0  0  0  0  0  0  0  0  0  0  0
   -5.2347   13.9076  -11.1670 H   0  0  0  0  0  0  0  0  0  0  0  0
   -6.7526   12.3233   -6.9261 H   0  0  0  0  0  0  0  0  0  0  0  0
   -4.5246   13.2972   -6.4815 H   0  0  0  0  0  0  0  0  0  0  0  0
   -2.6730    9.7536   -8.0506 H   0  0  0  0  0  0  0  0  0  0  0  0
   -4.8993    8.7846   -8.4743 H   0  0  0  0  0  0  0  0  0  0  0  0
   -2.1167   14.2081   -7.1655 H   0  0  0  0  0  0  0  0  0  0  0  0
   -2.1807   13.5768   -5.4850 H   0  0  0  0  0  0  0  0  0  0  0  0
   -0.6614   10.5729   -7.5868 H   0  0  0  0  0  0  0  0  0  0  0  0
    1.4672   14.2904   -6.0634 H   0  0  0  0  0  0  0  0  0  0  0  0
    0.2117   15.4427   -6.6311 H   0  0  0  0  0  0  0  0  0  0  0  0
    0.1649   14.8218   -4.9462 H   0  0  0  0  0  0  0  0  0  0  0  0
  1  2  2  0  0  0  0
  1  4  1  0  0  0  0
  1 13  1  0  0  0  0
  2  6  1  0  0  0  0
  3  4  2  0  0  0  0
  3  5  1  0  0  0  0
  5  6  1  0  0  0  0
  5  9  1  0  0  0  0
  6  7  2  0  0  0  0
  7  8  1  0  0  0  0
  7 10  1  0  0  0  0
  8  9  2  0  0  0  0
 10 14  2  0  0  0  0
 11 12  1  0  0  0  0
 11 13  1  0  0  0  0
 11 26  2  0  0  0  0
 14 15  1  0  0  0  0
 14 19  1  0  0  0  0
 15 16  2  0  0  0  0
 16 17  1  0  0  0  0
 17 18  1  0  0  0  0
 17 20  2  0  0  0  0
 18 19  2  0  0  0  0
 20 21  1  0  0  0  0
 20 24  1  0  0  0  0
 21 22  1  0  0  0  0
 22 23  1  0  0  0  0
 22 25  1  0  0  0  0
 23 24  2  0  0  0  0
  2 27  1  0  0  0  0
  3 28  1  0  0  0  0
  4 29  1  0  0  0  0
  5 30  1  0  0  0  0
 10 31  1  0  0  0  0
 12 32  1  0  0  0  0
 12 33  1  0  0  0  0
 12 34  1  0  0  0  0
 13 35  1  0  0  0  0
 15 36  1  0  0  0  0
 16 37  1  0  0  0  0
 18 38  1  0  0  0  0
 19 39  1  0  0  0  0
 21 40  1  0  0  0  0
 21 41  1  0  0  0  0
 24 42  1  0  0  0  0
 25 43  1  0  0  0  0
 25 44  1  0  0  0  0
 25 45  1  0  0  0  0
M  END
> <Name>
24

> <IC50[uM]>
0.029

$$$$
24
  -OEChem-05192314333D
 Structure written by MMmdl.
 45 48  0     1  0  0  0  0  0999 V2000
   -6.3515   12.3530  -11.9813 C   0  0  0  0  0  0  0  0  0  0  0  0
   -6.5085   11.7912  -10.7247 C   0  0  0  0  0  0  0  0  0  0  0  0
   -7.6802   10.5716  -13.0438 C   0  0  0  0  0  0  0  0  0  0  0  0
   -6.9296   11.7657  -13.1245 C   0  0  0  0  0  0  0  0  0  0  0  0
   -7.7980   10.0044  -11.7669 C   0  0  0  0  0  0  0  0  0  0  0  0
   -7.2328   10.6109  -10.5989 C   0  0  0  0  0  0  0  0  0  0  0  0
   -7.6209    9.7375   -9.5162 C   0  0  0  0  0  0  0  0  0  0  0  0
   -8.2754    8.7446   -9.9970 N   0  0  0  0  0  0  0  0  0  0  0  0
   -8.4233    8.8800  -11.3218 N   0  0  0  0  0  0  0  0  0  0  0  0
   -7.3328    9.8812   -8.0296 C   0  0  0  0  0  0  0  0  0  0  0  0
   -5.3004   14.2773  -13.1499 C   0  0  0  0  0  0  0  0  0  0  0  0
   -4.4346   15.5261  -12.8998 C   0  0  0  0  0  0  0  0  0  0  0  0
   -5.5896   13.5586  -12.0343 N   0  0  0  0  0  0  0  0  0  0  0  0
   -5.9706   10.4906   -7.7317 C   0  0  0  0  0  0  0  0  0  0  0  0
   -5.8616   11.7632   -7.1684 C   0  0  0  0  0  0  0  0  0  0  0  0
   -4.6051   12.3126   -6.9180 C   0  0  0  0  0  0  0  0  0  0  0  0
   -3.4544   11.5948   -7.2294 C   0  0  0  0  0  0  0  0  0  0  0  0
   -3.5626   10.3128   -7.8011 C   0  0  0  0  0  0  0  0  0  0  0  0
   -4.8160    9.7710   -8.0425 C   0  0  0  0  0  0  0  0  0  0  0  0
   -2.1083   12.1736   -6.9694 C   0  0  0  0  0  0  0  0  0  0  0  0
   -1.7503   13.4247   -6.4858 C   0  0  0  0  0  0  0  0  0  0  0  0
   -0.4131   13.4674   -6.4189 N   0  0  3  0  0  0  0  0  0  0  0  0
    0.1758   12.3735   -6.8057 N   0  0  0  0  0  0  0  0  0  0  0  0
   -0.8094   11.5620   -7.1791 C   0  0  0  0  0  0  0  0  0  0  0  0
    0.4060   14.5705   -5.9896 C   0  0  0  0  0  0  0  0  0  0  0  0
   -5.6528   14.0066  -14.2746 O   0  0  0  0  0  0  0  0  0  0  0  0
   -6.0747   12.2631   -9.8555 H   0  0  0  0  0  0  0  0  0  0  0  0
   -8.1361   10.1224  -13.9137 H   0  0  0  0  0  0  0  0  0  0  0  0
   -7.5989   12.5237  -13.5575 H   0  0  0  0  0  0  0  0  0  0  0  0
   -6.1027   11.5654  -13.8217 H   0  0  0  0  0  0  0  0  0  0  0  0
   -8.0279    9.5798   -7.2599 H   0  0  0  0  0  0  0  0  0  0  0  0
   -4.2429   16.0373  -13.8548 H   0  0  0  0  0  0  0  0  0  0  0  0
   -4.9638   16.2086  -12.2185 H   0  0  0  0  0  0  0  0  0  0  0  0
   -3.4785   15.2246  -12.4471 H   0  0  0  0  0  0  0  0  0  0  0  0
   -5.2347   13.9076  -11.1670 H   0  0  0  0  0  0  0  0  0  0  0  0
   -6.7526   12.3233   -6.9261 H   0  0  0  0  0  0  0  0  0  0  0  0
   -4.5246   13.2972   -6.4815 H   0  0  0  0  0  0  0  0  0  0  0  0
   -2.6730    9.7536   -8.0506 H   0  0  0  0  0  0  0  0  0  0  0  0
   -4.8993    8.7846   -8.4743 H   0  0  0  0  0  0  0  0  0  0  0  0
   -2.1167   14.2081   -7.1655 H   0  0  0  0  0  0  0  0  0  0  0  0
   -2.1807   13.5768   -5.4850 H   0  0  0  0  0  0  0  0  0  0  0  0
   -0.6614   10.5729   -7.5868 H   0  0  0  0  0  0  0  0  0  0  0  0
    1.4672   14.2904   -6.0634 H   0  0  0  0  0  0  0  0  0  0  0  0
    0.2117   15.4427   -6.6311 H   0  0  0  0  0  0  0  0  0  0  0  0
    0.1649   14.8218   -4.9462 H   0  0  0  0  0  0  0  0  0  0  0  0
  1  2  2  0  0  0  0
  1  4  1  0  0  0  0
  1 13  1  0  0  0  0
  2  6  1  0  0  0  0
  3  4  1  0  0  0  0
  3  5  2  0  0  0  0
  5  6  1  0  0  0  0
  5  9  1  0  0  0  0
  6  7  2  0  0  0  0
  7  8  1  0  0  0  0
  7 10  1  0  0  0  0
  8  9  2  0  0  0  0
 10 14  2  0  0  0  0
 11 12  1  0  0  0  0
 11 13  1  0  0  0  0
 11 26  2  0  0  0  0
 14 15  1  0  0  0  0
 14 19  1  0  0  0  0
 15 16  2  0  0  0  0
 16 17  1  0  0  0  0
 17 18  1  0  0  0  0
 17 20  2  0  0  0  0
 18 19  2  0  0  0  0
 20 21  1  0  0  0  0
 20 24  1  0  0  0  0
 21 22  1  0  0  0  0
 22 23  1  0  0  0  0
 22 25  1  0  0  0  0
 23 24  2  0  0  0  0
  2 27  1  0  0  0  0
  3 28  1  0  0  0  0
  4 29  1  0  0  0  0
  4 30  1  0  0  0  0
 10 31  1  0  0  0  0
 12 32  1  0  0  0  0
 12 33  1  0  0  0  0
 12 34  1  0  0  0  0
 13 35  1  0  0  0  0
 15 36  1  0  0  0  0
 16 37  1  0  0  0  0
 18 38  1  0  0  0  0
 19 39  1  0  0  0  0
 21 40  1  0  0  0  0
 21 41  1  0  0  0  0
 24 42  1  0  0  0  0
 25 43  1  0  0  0  0
 25 44  1  0  0  0  0
 25 45  1  0  0  0  0
M  END
> <Name>
24

> <IC50[uM]>
0.029

$$$$
24
  -OEChem-05192314333D
 Structure written by MMmdl.
 45 48  0     1  0  0  0  0  0999 V2000
   -6.3515   12.3530  -11.9813 C   0  0  0  0  0  0  0  0  0  0  0  0
   -6.5085   11.7912  -10.7247 C   0  0  0  0  0  0  0  0  0  0  0  0
   -7.6802   10.5716  -13.0438 C   0  0  0  0  0  0  0  0  0  0  0  0
   -6.9296   11.7657  -13.1245 C   0  0  0  0  0  0  0  0  0  0  0  0
   -7.7980   10.0044  -11.7669 C   0  0  0  0  0  0  0  0  0  0  0  0
   -7.2328   10.6109  -10.5989 C   0  0  0  0  0  0  0  0  0  0  0  0
   -7.6209    9.7375   -9.5162 C   0  0  0  0  0  0  0  0  0  0  0  0
   -8.2754    8.7446   -9.9970 N   0  0  0  0  0  0  0  0  0  0  0  0
   -8.4233    8.8800  -11.3218 N   0  0  0  0  0  0  0  0  0  0  0  0
   -7.3328    9.8812   -8.0296 C   0  0  0  0  0  0  0  0  0  0  0  0
   -5.3004   14.2773  -13.1499 C   0  0  0  0  0  0  0  0  0  0  0  0
   -4.4346   15.5261  -12.8998 C   0  0  0  0  0  0  0  0  0  0  0  0
   -5.5896   13.5586  -12.0343 N   0  0  0  0  0  0  0  0  0  0  0  0
   -5.9706   10.4906   -7.7317 C   0  0  0  0  0  0  0  0  0  0  0  0
   -5.8616   11.7632   -7.1684 C   0  0  0  0  0  0  0  0  0  0  0  0
   -4.6051   12.3126   -6.9180 C   0  0  0  0  0  0  0  0  0  0  0  0
   -3.4544   11.5948   -7.2294 C   0  0  0  0  0  0  0  0  0  0  0  0
   -3.5626   10.3128   -7.8011 C   0  0  0  0  0  0  0  0  0  0  0  0
   -4.8160    9.7710   -8.0425 C   0  0  0  0  0  0  0  0  0  0  0  0
   -2.1083   12.1736   -6.9694 C   0  0  0  0  0  0  0  0  0  0  0  0
   -1.7503   13.4247   -6.4858 C   0  0  0  0  0  0  0  0  0  0  0  0
   -0.4131   13.4674   -6.4189 N   0  0  3  0  0  0  0  0  0  0  0  0
    0.1758   12.3735   -6.8057 N   0  0  0  0  0  0  0  0  0  0  0  0
   -0.8094   11.5620   -7.1791 C   0  0  0  0  0  0  0  0  0  0  0  0
    0.4060   14.5705   -5.9896 C   0  0  0  0  0  0  0  0  0  0  0  0
   -5.6528   14.0066  -14.2746 O   0  0  0  0  0  0  0  0  0  0  0  0
   -5.5002   11.5939  -10.3317 H   0  0  0  0  0  0  0  0  0  0  0  0
   -7.0066   12.5435  -10.0954 H   0  0  0  0  0  0  0  0  0  0  0  0
   -8.1361   10.1224  -13.9137 H   0  0  0  0  0  0  0  0  0  0  0  0
   -6.7956   12.2399  -14.0855 H   0  0  0  0  0  0  0  0  0  0  0  0
   -8.0279    9.5798   -7.2599 H   0  0  0  0  0  0  0  0  0  0  0  0
   -4.2429   16.0373  -13.8548 H   0  0  0  0  0  0  0  0  0  0  0  0
   -4.9638   16.2086  -12.2185 H   0  0  0  0  0  0  0  0  0  0  0  0
   -3.4785   15.2246  -12.4471 H   0  0  0  0  0  0  0  0  0  0  0  0
   -5.2347   13.9076  -11.1670 H   0  0  0  0  0  0  0  0  0  0  0  0
   -6.7526   12.3233   -6.9261 H   0  0  0  0  0  0  0  0  0  0  0  0
   -4.5246   13.2972   -6.4815 H   0  0  0  0  0  0  0  0  0  0  0  0
   -2.6730    9.7536   -8.0506 H   0  0  0  0  0  0  0  0  0  0  0  0
   -4.8993    8.7846   -8.4743 H   0  0  0  0  0  0  0  0  0  0  0  0
   -2.1167   14.2081   -7.1655 H   0  0  0  0  0  0  0  0  0  0  0  0
   -2.1807   13.5768   -5.4850 H   0  0  0  0  0  0  0  0  0  0  0  0
   -0.6614   10.5729   -7.5868 H   0  0  0  0  0  0  0  0  0  0  0  0
    1.4672   14.2904   -6.0634 H   0  0  0  0  0  0  0  0  0  0  0  0
    0.2117   15.4427   -6.6311 H   0  0  0  0  0  0  0  0  0  0  0  0
    0.1649   14.8218   -4.9462 H   0  0  0  0  0  0  0  0  0  0  0  0
  1  2  1  0  0  0  0
  1  4  2  0  0  0  0
  1 13  1  0  0  0  0
  2  6  1  0  0  0  0
  3  4  1  0  0  0  0
  3  5  2  0  0  0  0
  5  6  1  0  0  0  0
  5  9  1  0  0  0  0
  6  7  2  0  0  0  0
  7  8  1  0  0  0  0
  7 10  1  0  0  0  0
  8  9  2  0  0  0  0
 10 14  2  0  0  0  0
 11 12  1  0  0  0  0
 11 13  1  0  0  0  0
 11 26  2  0  0  0  0
 14 15  1  0  0  0  0
 14 19  1  0  0  0  0
 15 16  2  0  0  0  0
 16 17  1  0  0  0  0
 17 18  1  0  0  0  0
 17 20  2  0  0  0  0
 18 19  2  0  0  0  0
 20 21  1  0  0  0  0
 20 24  1  0  0  0  0
 21 22  1  0  0  0  0
 22 23  1  0  0  0  0
 22 25  1  0  0  0  0
 23 24  2  0  0  0  0
  2 27  1  0  0  0  0
  2 28  1  0  0  0  0
  3 29  1  0  0  0  0
  4 30  1  0  0  0  0
 10 31  1  0  0  0  0
 12 32  1  0  0  0  0
 12 33  1  0  0  0  0
 12 34  1  0  0  0  0
 13 35  1  0  0  0  0
 15 36  1  0  0  0  0
 16 37  1  0  0  0  0
 18 38  1  0  0  0  0
 19 39  1  0  0  0  0
 21 40  1  0  0  0  0
 21 41  1  0  0  0  0
 24 42  1  0  0  0  0
 25 43  1  0  0  0  0
 25 44  1  0  0  0  0
 25 45  1  0  0  0  0
M  END
> <Name>
24

> <IC50[uM]>
0.029

$$$$
24
  -OEChem-05192314333D
 Structure written by MMmdl.
 45 48  0     1  0  0  0  0  0999 V2000
   -6.3515   12.3530  -11.9813 C   0  0  0  0  0  0  0  0  0  0  0  0
   -6.5085   11.7912  -10.7247 C   0  0  0  0  0  0  0  0  0  0  0  0
   -7.6802   10.5716  -13.0438 C   0  0  0  0  0  0  0  0  0  0  0  0
   -6.9296   11.7657  -13.1245 C   0  0  0  0  0  0  0  0  0  0  0  0
   -7.7980   10.0044  -11.7669 C   0  0  3  0  0  0  0  0  0  0  0  0
   -7.2328   10.6109  -10.5989 C   0  0  0  0  0  0  0  0  0  0  0  0
   -7.6209    9.7375   -9.5162 C   0  0  0  0  0  0  0  0  0  0  0  0
   -8.2754    8.7446   -9.9970 N   0  0  0  0  0  0  0  0  0  0  0  0
   -8.4233    8.8800  -11.3218 N   0  0  0  0  0  0  0  0  0  0  0  0
   -7.3328    9.8812   -8.0296 C   0  0  0  0  0  0  0  0  0  0  0  0
   -5.3004   14.2773  -13.1499 C   0  0  0  0  0  0  0  0  0  0  0  0
   -4.4346   15.5261  -12.8998 C   0  0  0  0  0  0  0  0  0  0  0  0
   -5.5896   13.5586  -12.0343 N   0  0  0  0  0  0  0  0  0  0  0  0
   -5.9706   10.4906   -7.7317 C   0  0  0  0  0  0  0  0  0  0  0  0
   -5.8616   11.7632   -7.1684 C   0  0  0  0  0  0  0  0  0  0  0  0
   -4.6051   12.3126   -6.9180 C   0  0  0  0  0  0  0  0  0  0  0  0
   -3.4544   11.5948   -7.2294 C   0  0  0  0  0  0  0  0  0  0  0  0
   -3.5626   10.3128   -7.8011 C   0  0  0  0  0  0  0  0  0  0  0  0
   -4.8160    9.7710   -8.0425 C   0  0  0  0  0  0  0  0  0  0  0  0
   -2.1083   12.1736   -6.9694 C   0  0  0  0  0  0  0  0  0  0  0  0
   -1.7503   13.4247   -6.4858 C   0  0  0  0  0  0  0  0  0  0  0  0
   -0.4131   13.4674   -6.4189 N   0  0  3  0  0  0  0  0  0  0  0  0
    0.1758   12.3735   -6.8057 N   0  0  0  0  0  0  0  0  0  0  0  0
   -0.8094   11.5620   -7.1791 C   0  0  0  0  0  0  0  0  0  0  0  0
    0.4060   14.5705   -5.9896 C   0  0  0  0  0  0  0  0  0  0  0  0
   -5.6528   14.0066  -14.2746 O   0  0  0  0  0  0  0  0  0  0  0  0
   -6.0747   12.2631   -9.8555 H   0  0  0  0  0  0  0  0  0  0  0  0
   -8.1361   10.1224  -13.9137 H   0  0  0  0  0  0  0  0  0  0  0  0
   -6.7956   12.2399  -14.0855 H   0  0  0  0  0  0  0  0  0  0  0  0
   -6.8712    9.4340  -11.9273 H   0  0  0  0  0  0  0  0  0  0  0  0
   -8.0279    9.5798   -7.2599 H   0  0  0  0  0  0  0  0  0  0  0  0
   -4.2517   16.0431  -13.8534 H   0  0  0  0  0  0  0  0  0  0  0  0
   -4.9593   16.2038  -12.2102 H   0  0  0  0  0  0  0  0  0  0  0  0
   -3.4743   15.2236  -12.4567 H   0  0  0  0  0  0  0  0  0  0  0  0
   -6.7526   12.3233   -6.9261 H   0  0  0  0  0  0  0  0  0  0  0  0
   -4.5246   13.2972   -6.4815 H   0  0  0  0  0  0  0  0  0  0  0  0
   -2.6730    9.7536   -8.0506 H   0  0  0  0  0  0  0  0  0  0  0  0
   -4.8993    8.7846   -8.4743 H   0  0  0  0  0  0  0  0  0  0  0  0
   -2.1167   14.2081   -7.1655 H   0  0  0  0  0  0  0  0  0  0  0  0
   -2.1807   13.5768   -5.4850 H   0  0  0  0  0  0  0  0  0  0  0  0
   -0.6614   10.5729   -7.5868 H   0  0  0  0  0  0  0  0  0  0  0  0
    1.4672   14.2904   -6.0634 H   0  0  0  0  0  0  0  0  0  0  0  0
    0.2117   15.4427   -6.6311 H   0  0  0  0  0  0  0  0  0  0  0  0
    0.1649   14.8218   -4.9462 H   0  0  0  0  0  0  0  0  0  0  0  0
   -6.1759   13.2137  -14.2608 H   0  0  0  0  0  0  0  0  0  0  0  0
  1  2  2  0  0  0  0
  1  4  1  0  0  0  0
  1 13  1  0  0  0  0
  2  6  1  0  0  0  0
  3  4  2  0  0  0  0
  3  5  1  0  0  0  0
  5  6  1  0  0  0  0
  5  9  1  0  0  0  0
  6  7  2  0  0  0  0
  7  8  1  0  0  0  0
  7 10  1  0  0  0  0
  8  9  2  0  0  0  0
 10 14  2  0  0  0  0
 11 12  1  0  0  0  0
 11 13  2  0  0  0  0
 11 26  1  0  0  0  0
 14 15  1  0  0  0  0
 14 19  1  0  0  0  0
 15 16  2  0  0  0  0
 16 17  1  0  0  0  0
 17 18  1  0  0  0  0
 17 20  2  0  0  0  0
 18 19  2  0  0  0  0
 20 21  1  0  0  0  0
 20 24  1  0  0  0  0
 21 22  1  0  0  0  0
 22 23  1  0  0  0  0
 22 25  1  0  0  0  0
 23 24  2  0  0  0  0
  2 27  1  0  0  0  0
  3 28  1  0  0  0  0
  4 29  1  0  0  0  0
  5 30  1  0  0  0  0
 10 31  1  0  0  0  0
 12 32  1  0  0  0  0
 12 33  1  0  0  0  0
 12 34  1  0  0  0  0
 15 35  1  0  0  0  0
 16 36  1  0  0  0  0
 18 37  1  0  0  0  0
 19 38  1  0  0  0  0
 21 39  1  0  0  0  0
 21 40  1  0  0  0  0
 24 41  1  0  0  0  0
 25 42  1  0  0  0  0
 25 43  1  0  0  0  0
 25 44  1  0  0  0  0
 26 45  1  0  0  0  0
M  END
> <Name>
24

> <IC50[uM]>
0.029

$$$$
24
  -OEChem-05192314333D
 Structure written by MMmdl.
 45 48  0     1  0  0  0  0  0999 V2000
   -6.3515   12.3530  -11.9813 C   0  0  0  0  0  0  0  0  0  0  0  0
   -6.5085   11.7912  -10.7247 C   0  0  0  0  0  0  0  0  0  0  0  0
   -7.6802   10.5716  -13.0438 C   0  0  0  0  0  0  0  0  0  0  0  0
   -6.9296   11.7657  -13.1245 C   0  0  0  0  0  0  0  0  0  0  0  0
   -7.7980   10.0044  -11.7669 C   0  0  0  0  0  0  0  0  0  0  0  0
   -7.2328   10.6109  -10.5989 C   0  0  0  0  0  0  0  0  0  0  0  0
   -7.6209    9.7375   -9.5162 C   0  0  0  0  0  0  0  0  0  0  0  0
   -8.2754    8.7446   -9.9970 N   0  0  0  0  0  0  0  0  0  0  0  0
   -8.4233    8.8800  -11.3218 N   0  0  0  0  0  0  0  0  0  0  0  0
   -7.3328    9.8812   -8.0296 C   0  0  0  0  0  0  0  0  0  0  0  0
   -5.3004   14.2773  -13.1499 C   0  0  0  0  0  0  0  0  0  0  0  0
   -4.4346   15.5261  -12.8998 C   0  0  0  0  0  0  0  0  0  0  0  0
   -5.5896   13.5586  -12.0343 N   0  0  0  0  0  0  0  0  0  0  0  0
   -5.9706   10.4906   -7.7317 C   0  0  0  0  0  0  0  0  0  0  0  0
   -5.8616   11.7632   -7.1684 C   0  0  0  0  0  0  0  0  0  0  0  0
   -4.6051   12.3126   -6.9180 C   0  0  0  0  0  0  0  0  0  0  0  0
   -3.4544   11.5948   -7.2294 C   0  0  0  0  0  0  0  0  0  0  0  0
   -3.5626   10.3128   -7.8011 C   0  0  0  0  0  0  0  0  0  0  0  0
   -4.8160    9.7710   -8.0425 C   0  0  0  0  0  0  0  0  0  0  0  0
   -2.1083   12.1736   -6.9694 C   0  0  0  0  0  0  0  0  0  0  0  0
   -1.7503   13.4247   -6.4858 C   0  0  0  0  0  0  0  0  0  0  0  0
   -0.4131   13.4674   -6.4189 N   0  0  3  0  0  0  0  0  0  0  0  0
    0.1758   12.3735   -6.8057 N   0  0  0  0  0  0  0  0  0  0  0  0
   -0.8094   11.5620   -7.1791 C   0  0  0  0  0  0  0  0  0  0  0  0
    0.4060   14.5705   -5.9896 C   0  0  0  0  0  0  0  0  0  0  0  0
   -5.6528   14.0066  -14.2746 O   0  0  0  0  0  0  0  0  0  0  0  0
   -6.0747   12.2631   -9.8555 H   0  0  0  0  0  0  0  0  0  0  0  0
   -8.1361   10.1224  -13.9137 H   0  0  0  0  0  0  0  0  0  0  0  0
   -7.5989   12.5237  -13.5575 H   0  0  0  0  0  0  0  0  0  0  0  0
   -6.1027   11.5654  -13.8217 H   0  0  0  0  0  0  0  0  0  0  0  0
   -8.0279    9.5798   -7.2599 H   0  0  0  0  0  0  0  0  0  0  0  0
   -4.2517   16.0431  -13.8534 H   0  0  0  0  0  0  0  0  0  0  0  0
   -4.9593   16.2038  -12.2102 H   0  0  0  0  0  0  0  0  0  0  0  0
   -3.4743   15.2236  -12.4567 H   0  0  0  0  0  0  0  0  0  0  0  0
   -6.7526   12.3233   -6.9261 H   0  0  0  0  0  0  0  0  0  0  0  0
   -4.5246   13.2972   -6.4815 H   0  0  0  0  0  0  0  0  0  0  0  0
   -2.6730    9.7536   -8.0506 H   0  0  0  0  0  0  0  0  0  0  0  0
   -4.8993    8.7846   -8.4743 H   0  0  0  0  0  0  0  0  0  0  0  0
   -2.1167   14.2081   -7.1655 H   0  0  0  0  0  0  0  0  0  0  0  0
   -2.1807   13.5768   -5.4850 H   0  0  0  0  0  0  0  0  0  0  0  0
   -0.6614   10.5729   -7.5868 H   0  0  0  0  0  0  0  0  0  0  0  0
    1.4672   14.2904   -6.0634 H   0  0  0  0  0  0  0  0  0  0  0  0
    0.2117   15.4427   -6.6311 H   0  0  0  0  0  0  0  0  0  0  0  0
    0.1649   14.8218   -4.9462 H   0  0  0  0  0  0  0  0  0  0  0  0
   -6.1759   13.2137  -14.2608 H   0  0  0  0  0  0  0  0  0  0  0  0
  1  2  2  0  0  0  0
  1  4  1  0  0  0  0
  1 13  1  0  0  0  0
  2  6  1  0  0  0  0
  3  4  1  0  0  0  0
  3  5  2  0  0  0  0
  5  6  1  0  0  0  0
  5  9  1  0  0  0  0
  6  7  2  0  0  0  0
  7  8  1  0  0  0  0
  7 10  1  0  0  0  0
  8  9  2  0  0  0  0
 10 14  2  0  0  0  0
 11 12  1  0  0  0  0
 11 13  2  0  0  0  0
 11 26  1  0  0  0  0
 14 15  1  0  0  0  0
 14 19  1  0  0  0  0
 15 16  2  0  0  0  0
 16 17  1  0  0  0  0
 17 18  1  0  0  0  0
 17 20  2  0  0  0  0
 18 19  2  0  0  0  0
 20 21  1  0  0  0  0
 20 24  1  0  0  0  0
 21 22  1  0  0  0  0
 22 23  1  0  0  0  0
 22 25  1  0  0  0  0
 23 24  2  0  0  0  0
  2 27  1  0  0  0  0
  3 28  1  0  0  0  0
  4 29  1  0  0  0  0
  4 30  1  0  0  0  0
 10 31  1  0  0  0  0
 12 32  1  0  0  0  0
 12 33  1  0  0  0  0
 12 34  1  0  0  0  0
 15 35  1  0  0  0  0
 16 36  1  0  0  0  0
 18 37  1  0  0  0  0
 19 38  1  0  0  0  0
 21 39  1  0  0  0  0
 21 40  1  0  0  0  0
 24 41  1  0  0  0  0
 25 42  1  0  0  0  0
 25 43  1  0  0  0  0
 25 44  1  0  0  0  0
 26 45  1  0  0  0  0
M  END
> <Name>
24

> <IC50[uM]>
0.029

$$$$
24
  -OEChem-05192314333D
 Structure written by MMmdl.
 45 48  0     1  0  0  0  0  0999 V2000
   -6.3515   12.3530  -11.9813 C   0  0  0  0  0  0  0  0  0  0  0  0
   -6.5085   11.7912  -10.7247 C   0  0  0  0  0  0  0  0  0  0  0  0
   -7.6802   10.5716  -13.0438 C   0  0  0  0  0  0  0  0  0  0  0  0
   -6.9296   11.7657  -13.1245 C   0  0  0  0  0  0  0  0  0  0  0  0
   -7.7980   10.0044  -11.7669 C   0  0  0  0  0  0  0  0  0  0  0  0
   -7.2328   10.6109  -10.5989 C   0  0  0  0  0  0  0  0  0  0  0  0
   -7.6209    9.7375   -9.5162 C   0  0  0  0  0  0  0  0  0  0  0  0
   -8.2754    8.7446   -9.9970 N   0  0  0  0  0  0  0  0  0  0  0  0
   -8.4233    8.8800  -11.3218 N   0  0  0  0  0  0  0  0  0  0  0  0
   -7.3328    9.8812   -8.0296 C   0  0  0  0  0  0  0  0  0  0  0  0
   -5.3004   14.2773  -13.1499 C   0  0  0  0  0  0  0  0  0  0  0  0
   -4.4346   15.5261  -12.8998 C   0  0  0  0  0  0  0  0  0  0  0  0
   -5.5896   13.5586  -12.0343 N   0  0  0  0  0  0  0  0  0  0  0  0
   -5.9706   10.4906   -7.7317 C   0  0  0  0  0  0  0  0  0  0  0  0
   -5.8616   11.7632   -7.1684 C   0  0  0  0  0  0  0  0  0  0  0  0
   -4.6051   12.3126   -6.9180 C   0  0  0  0  0  0  0  0  0  0  0  0
   -3.4544   11.5948   -7.2294 C   0  0  0  0  0  0  0  0  0  0  0  0
   -3.5626   10.3128   -7.8011 C   0  0  0  0  0  0  0  0  0  0  0  0
   -4.8160    9.7710   -8.0425 C   0  0  0  0  0  0  0  0  0  0  0  0
   -2.1083   12.1736   -6.9694 C   0  0  0  0  0  0  0  0  0  0  0  0
   -1.7503   13.4247   -6.4858 C   0  0  0  0  0  0  0  0  0  0  0  0
   -0.4131   13.4674   -6.4189 N   0  0  3  0  0  0  0  0  0  0  0  0
    0.1758   12.3735   -6.8057 N   0  0  0  0  0  0  0  0  0  0  0  0
   -0.8094   11.5620   -7.1791 C   0  0  0  0  0  0  0  0  0  0  0  0
    0.4060   14.5705   -5.9896 C   0  0  0  0  0  0  0  0  0  0  0  0
   -5.6528   14.0066  -14.2746 O   0  0  0  0  0  0  0  0  0  0  0  0
   -5.5002   11.5939  -10.3317 H   0  0  0  0  0  0  0  0  0  0  0  0
   -7.0066   12.5435  -10.0954 H   0  0  0  0  0  0  0  0  0  0  0  0
   -8.1361   10.1224  -13.9137 H   0  0  0  0  0  0  0  0  0  0  0  0
   -6.7956   12.2399  -14.0855 H   0  0  0  0  0  0  0  0  0  0  0  0
   -8.0279    9.5798   -7.2599 H   0  0  0  0  0  0  0  0  0  0  0  0
   -4.2517   16.0431  -13.8534 H   0  0  0  0  0  0  0  0  0  0  0  0
   -4.9593   16.2038  -12.2102 H   0  0  0  0  0  0  0  0  0  0  0  0
   -3.4743   15.2236  -12.4567 H   0  0  0  0  0  0  0  0  0  0  0  0
   -6.7526   12.3233   -6.9261 H   0  0  0  0  0  0  0  0  0  0  0  0
   -4.5246   13.2972   -6.4815 H   0  0  0  0  0  0  0  0  0  0  0  0
   -2.6730    9.7536   -8.0506 H   0  0  0  0  0  0  0  0  0  0  0  0
   -4.8993    8.7846   -8.4743 H   0  0  0  0  0  0  0  0  0  0  0  0
   -2.1167   14.2081   -7.1655 H   0  0  0  0  0  0  0  0  0  0  0  0
   -2.1807   13.5768   -5.4850 H   0  0  0  0  0  0  0  0  0  0  0  0
   -0.6614   10.5729   -7.5868 H   0  0  0  0  0  0  0  0  0  0  0  0
    1.4672   14.2904   -6.0634 H   0  0  0  0  0  0  0  0  0  0  0  0
    0.2117   15.4427   -6.6311 H   0  0  0  0  0  0  0  0  0  0  0  0
    0.1649   14.8218   -4.9462 H   0  0  0  0  0  0  0  0  0  0  0  0
   -6.1759   13.2137  -14.2608 H   0  0  0  0  0  0  0  0  0  0  0  0
  1  2  1  0  0  0  0
  1  4  2  0  0  0  0
  1 13  1  0  0  0  0
  2  6  1  0  0  0  0
  3  4  1  0  0  0  0
  3  5  2  0  0  0  0
  5  6  1  0  0  0  0
  5  9  1  0  0  0  0
  6  7  2  0  0  0  0
  7  8  1  0  0  0  0
  7 10  1  0  0  0  0
  8  9  2  0  0  0  0
 10 14  2  0  0  0  0
 11 12  1  0  0  0  0
 11 13  2  0  0  0  0
 11 26  1  0  0  0  0
 14 15  1  0  0  0  0
 14 19  1  0  0  0  0
 15 16  2  0  0  0  0
 16 17  1  0  0  0  0
 17 18  1  0  0  0  0
 17 20  2  0  0  0  0
 18 19  2  0  0  0  0
 20 21  1  0  0  0  0
 20 24  1  0  0  0  0
 21 22  1  0  0  0  0
 22 23  1  0  0  0  0
 22 25  1  0  0  0  0
 23 24  2  0  0  0  0
  2 27  1  0  0  0  0
  2 28  1  0  0  0  0
  3 29  1  0  0  0  0
  4 30  1  0  0  0  0
 10 31  1  0  0  0  0
 12 32  1  0  0  0  0
 12 33  1  0  0  0  0
 12 34  1  0  0  0  0
 15 35  1  0  0  0  0
 16 36  1  0  0  0  0
 18 37  1  0  0  0  0
 19 38  1  0  0  0  0
 21 39  1  0  0  0  0
 21 40  1  0  0  0  0
 24 41  1  0  0  0  0
 25 42  1  0  0  0  0
 25 43  1  0  0  0  0
 25 44  1  0  0  0  0
 26 45  1  0  0  0  0
M  END
> <Name>
24

> <IC50[uM]>
0.029

$$$$
24
  -OEChem-05192314333D
 Structure written by MMmdl.
 45 48  0     0  0  0  0  0  0999 V2000
   -6.3515   12.3530  -11.9813 C   0  0  0  0  0  0  0  0  0  0  0  0
   -6.5085   11.7912  -10.7247 C   0  0  0  0  0  0  0  0  0  0  0  0
   -7.6802   10.5716  -13.0438 C   0  0  0  0  0  0  0  0  0  0  0  0
   -6.9296   11.7657  -13.1245 C   0  0  0  0  0  0  0  0  0  0  0  0
   -7.7980   10.0044  -11.7669 C   0  0  0  0  0  0  0  0  0  0  0  0
   -7.2328   10.6109  -10.5989 C   0  0  0  0  0  0  0  0  0  0  0  0
   -7.6209    9.7375   -9.5162 C   0  0  0  0  0  0  0  0  0  0  0  0
   -8.2754    8.7446   -9.9970 N   0  0  0  0  0  0  0  0  0  0  0  0
   -8.4233    8.8800  -11.3218 N   0  0  0  0  0  0  0  0  0  0  0  0
   -7.3328    9.8812   -8.0296 C   0  0  0  0  0  0  0  0  0  0  0  0
   -5.3004   14.2773  -13.1499 C   0  0  0  0  0  0  0  0  0  0  0  0
   -4.4346   15.5261  -12.8998 C   0  0  0  0  0  0  0  0  0  0  0  0
   -5.5896   13.5586  -12.0343 N   0  0  0  0  0  0  0  0  0  0  0  0
   -5.9706   10.4906   -7.7317 C   0  0  0  0  0  0  0  0  0  0  0  0
   -5.8616   11.7632   -7.1684 C   0  0  0  0  0  0  0  0  0  0  0  0
   -4.6051   12.3126   -6.9180 C   0  0  0  0  0  0  0  0  0  0  0  0
   -3.4544   11.5948   -7.2294 C   0  0  0  0  0  0  0  0  0  0  0  0
   -3.5626   10.3128   -7.8011 C   0  0  0  0  0  0  0  0  0  0  0  0
   -4.8160    9.7710   -8.0425 C   0  0  0  0  0  0  0  0  0  0  0  0
   -2.1083   12.1736   -6.9694 C   0  0  0  0  0  0  0  0  0  0  0  0
   -1.7503   13.4247   -6.4858 C   0  0  0  0  0  0  0  0  0  0  0  0
   -0.4131   13.4674   -6.4189 N   0  0  0  0  0  0  0  0  0  0  0  0
    0.1758   12.3735   -6.8057 N   0  0  0  0  0  0  0  0  0  0  0  0
   -0.8094   11.5620   -7.1791 C   0  0  0  0  0  0  0  0  0  0  0  0
    0.4060   14.5705   -5.9896 C   0  0  0  0  0  0  0  0  0  0  0  0
   -5.6528   14.0066  -14.2746 O   0  0  0  0  0  0  0  0  0  0  0  0
   -6.0747   12.2631   -9.8555 H   0  0  0  0  0  0  0  0  0  0  0  0
   -8.6945   10.7862  -13.4115 H   0  0  0  0  0  0  0  0  0  0  0  0
   -7.2021    9.8287  -13.6992 H   0  0  0  0  0  0  0  0  0  0  0  0
   -7.5989   12.5237  -13.5575 H   0  0  0  0  0  0  0  0  0  0  0  0
   -6.1027   11.5654  -13.8217 H   0  0  0  0  0  0  0  0  0  0  0  0
   -8.0279    9.5798   -7.2599 H   0  0  0  0  0  0  0  0  0  0  0  0
   -4.2429   16.0373  -13.8548 H   0  0  0  0  0  0  0  0  0  0  0  0
   -4.9638   16.2086  -12.2185 H   0  0  0  0  0  0  0  0  0  0  0  0
   -3.4785   15.2246  -12.4471 H   0  0  0  0  0  0  0  0  0  0  0  0
   -6.7526   12.3233   -6.9261 H   0  0  0  0  0  0  0  0  0  0  0  0
   -4.5246   13.2972   -6.4815 H   0  0  0  0  0  0  0  0  0  0  0  0
   -3.4585   11.1486   -6.2240 H   0  0  0  0  0  0  0  0  0  0  0  0
   -2.6730    9.7536   -8.0506 H   0  0  0  0  0  0  0  0  0  0  0  0
   -4.8993    8.7846   -8.4743 H   0  0  0  0  0  0  0  0  0  0  0  0
   -2.4278   14.2202   -6.2127 H   0  0  0  0  0  0  0  0  0  0  0  0
   -0.6614   10.5729   -7.5868 H   0  0  0  0  0  0  0  0  0  0  0  0
    1.4672   14.2904   -6.0634 H   0  0  0  0  0  0  0  0  0  0  0  0
    0.2117   15.4427   -6.6311 H   0  0  0  0  0  0  0  0  0  0  0  0
    0.1649   14.8218   -4.9462 H   0  0  0  0  0  0  0  0  0  0  0  0
  1  2  1  0  0  0  0
  1  4  1  0  0  0  0
  1 13  2  0  0  0  0
  2  6  2  0  0  0  0
  3  4  1  0  0  0  0
  3  5  1  0  0  0  0
  5  6  1  0  0  0  0
  5  9  2  0  0  0  0
  6  7  1  0  0  0  0
  7  8  2  0  0  0  0
  7 10  1  0  0  0  0
  8  9  1  0  0  0  0
 10 14  2  0  0  0  0
 11 12  1  0  0  0  0
 11 13  1  0  0  0  0
 11 26  2  0  0  0  0
 14 15  1  0  0  0  0
 14 19  1  0  0  0  0
 15 16  2  0  0  0  0
 16 17  1  0  0  0  0
 17 18  1  0  0  0  0
 17 20  1  0  0  0  0
 18 19  2  0  0  0  0
 20 21  2  0  0  0  0
 20 24  1  0  0  0  0
 21 22  1  0  0  0  0
 22 23  1  0  0  0  0
 22 25  1  0  0  0  0
 23 24  2  0  0  0  0
  2 27  1  0  0  0  0
  3 28  1  0  0  0  0
  3 29  1  0  0  0  0
  4 30  1  0  0  0  0
  4 31  1  0  0  0  0
 10 32  1  0  0  0  0
 12 33  1  0  0  0  0
 12 34  1  0  0  0  0
 12 35  1  0  0  0  0
 15 36  1  0  0  0  0
 16 37  1  0  0  0  0
 17 38  1  0  0  0  0
 18 39  1  0  0  0  0
 19 40  1  0  0  0  0
 21 41  1  0  0  0  0
 24 42  1  0  0  0  0
 25 43  1  0  0  0  0
 25 44  1  0  0  0  0
 25 45  1  0  0  0  0
M  END
> <Name>
24

> <IC50[uM]>
0.029

$$$$
24
  -OEChem-05192314333D
 Structure written by MMmdl.
 45 48  0     0  0  0  0  0  0999 V2000
   -6.3515   12.3530  -11.9813 C   0  0  0  0  0  0  0  0  0  0  0  0
   -6.5085   11.7912  -10.7247 C   0  0  0  0  0  0  0  0  0  0  0  0
   -7.6802   10.5716  -13.0438 C   0  0  0  0  0  0  0  0  0  0  0  0
   -6.9296   11.7657  -13.1245 C   0  0  0  0  0  0  0  0  0  0  0  0
   -7.7980   10.0044  -11.7669 C   0  0  0  0  0  0  0  0  0  0  0  0
   -7.2328   10.6109  -10.5989 C   0  0  0  0  0  0  0  0  0  0  0  0
   -7.6209    9.7375   -9.5162 C   0  0  0  0  0  0  0  0  0  0  0  0
   -8.2754    8.7446   -9.9970 N   0  0  0  0  0  0  0  0  0  0  0  0
   -8.4233    8.8800  -11.3218 N   0  0  0  0  0  0  0  0  0  0  0  0
   -7.3328    9.8812   -8.0296 C   0  0  0  0  0  0  0  0  0  0  0  0
   -5.3004   14.2773  -13.1499 C   0  0  0  0  0  0  0  0  0  0  0  0
   -4.4346   15.5261  -12.8998 C   0  0  0  0  0  0  0  0  0  0  0  0
   -5.5896   13.5586  -12.0343 N   0  0  0  0  0  0  0  0  0  0  0  0
   -5.9706   10.4906   -7.7317 C   0  0  0  0  0  0  0  0  0  0  0  0
   -5.8616   11.7632   -7.1684 C   0  0  0  0  0  0  0  0  0  0  0  0
   -4.6051   12.3126   -6.9180 C   0  0  0  0  0  0  0  0  0  0  0  0
   -3.4544   11.5948   -7.2294 C   0  0  0  0  0  0  0  0  0  0  0  0
   -3.5626   10.3128   -7.8011 C   0  0  0  0  0  0  0  0  0  0  0  0
   -4.8160    9.7710   -8.0425 C   0  0  0  0  0  0  0  0  0  0  0  0
   -2.1083   12.1736   -6.9694 C   0  0  0  0  0  0  0  0  0  0  0  0
   -1.7503   13.4247   -6.4858 C   0  0  0  0  0  0  0  0  0  0  0  0
   -0.4131   13.4674   -6.4189 N   0  0  0  0  0  0  0  0  0  0  0  0
    0.1758   12.3735   -6.8057 N   0  0  0  0  0  0  0  0  0  0  0  0
   -0.8094   11.5620   -7.1791 C   0  0  0  0  0  0  0  0  0  0  0  0
    0.4060   14.5705   -5.9896 C   0  0  0  0  0  0  0  0  0  0  0  0
   -5.6528   14.0066  -14.2746 O   0  0  0  0  0  0  0  0  0  0  0  0
   -6.0747   12.2631   -9.8555 H   0  0  0  0  0  0  0  0  0  0  0  0
   -8.6945   10.7862  -13.4115 H   0  0  0  0  0  0  0  0  0  0  0  0
   -7.2021    9.8287  -13.6992 H   0  0  0  0  0  0  0  0  0  0  0  0
   -7.5989   12.5237  -13.5575 H   0  0  0  0  0  0  0  0  0  0  0  0
   -6.1027   11.5654  -13.8217 H   0  0  0  0  0  0  0  0  0  0  0  0
   -8.0279    9.5798   -7.2599 H   0  0  0  0  0  0  0  0  0  0  0  0
   -4.2429   16.0373  -13.8548 H   0  0  0  0  0  0  0  0  0  0  0  0
   -4.9638   16.2086  -12.2185 H   0  0  0  0  0  0  0  0  0  0  0  0
   -3.4785   15.2246  -12.4471 H   0  0  0  0  0  0  0  0  0  0  0  0
   -6.7526   12.3233   -6.9261 H   0  0  0  0  0  0  0  0  0  0  0  0
   -4.5246   13.2972   -6.4815 H   0  0  0  0  0  0  0  0  0  0  0  0
   -2.6730    9.7536   -8.0506 H   0  0  0  0  0  0  0  0  0  0  0  0
   -4.8679    8.8310   -7.4736 H   0  0  0  0  0  0  0  0  0  0  0  0
   -4.8621    9.5509   -9.1193 H   0  0  0  0  0  0  0  0  0  0  0  0
   -2.4278   14.2202   -6.2127 H   0  0  0  0  0  0  0  0  0  0  0  0
   -0.6614   10.5729   -7.5868 H   0  0  0  0  0  0  0  0  0  0  0  0
    1.4672   14.2904   -6.0634 H   0  0  0  0  0  0  0  0  0  0  0  0
    0.2117   15.4427   -6.6311 H   0  0  0  0  0  0  0  0  0  0  0  0
    0.1649   14.8218   -4.9462 H   0  0  0  0  0  0  0  0  0  0  0  0
  1  2  1  0  0  0  0
  1  4  1  0  0  0  0
  1 13  2  0  0  0  0
  2  6  2  0  0  0  0
  3  4  1  0  0  0  0
  3  5  1  0  0  0  0
  5  6  1  0  0  0  0
  5  9  2  0  0  0  0
  6  7  1  0  0  0  0
  7  8  2  0  0  0  0
  7 10  1  0  0  0  0
  8  9  1  0  0  0  0
 10 14  2  3  0  0  0
 11 12  1  0  0  0  0
 11 13  1  0  0  0  0
 11 26  2  0  0  0  0
 14 15  1  0  0  0  0
 14 19  1  0  0  0  0
 15 16  2  0  0  0  0
 16 17  1  0  0  0  0
 17 18  2  0  0  0  0
 17 20  1  0  0  0  0
 18 19  1  0  0  0  0
 20 21  2  0  0  0  0
 20 24  1  0  0  0  0
 21 22  1  0  0  0  0
 22 23  1  0  0  0  0
 22 25  1  0  0  0  0
 23 24  2  0  0  0  0
  2 27  1  0  0  0  0
  3 28  1  0  0  0  0
  3 29  1  0  0  0  0
  4 30  1  0  0  0  0
  4 31  1  0  0  0  0
 10 32  1  0  0  0  0
 12 33  1  0  0  0  0
 12 34  1  0  0  0  0
 12 35  1  0  0  0  0
 15 36  1  0  0  0  0
 16 37  1  0  0  0  0
 18 38  1  0  0  0  0
 19 39  1  0  0  0  0
 19 40  1  0  0  0  0
 21 41  1  0  0  0  0
 24 42  1  0  0  0  0
 25 43  1  0  0  0  0
 25 44  1  0  0  0  0
 25 45  1  0  0  0  0
M  END
> <Name>
24

> <IC50[uM]>
0.029

$$$$
24
  -OEChem-05192314333D
 Structure written by MMmdl.
 45 48  0     1  0  0  0  0  0999 V2000
   -6.3515   12.3530  -11.9813 C   0  0  0  0  0  0  0  0  0  0  0  0
   -6.5085   11.7912  -10.7247 C   0  0  0  0  0  0  0  0  0  0  0  0
   -7.6802   10.5716  -13.0438 C   0  0  0  0  0  0  0  0  0  0  0  0
   -6.9296   11.7657  -13.1245 C   0  0  0  0  0  0  0  0  0  0  0  0
   -7.7980   10.0044  -11.7669 C   0  0  0  0  0  0  0  0  0  0  0  0
   -7.2328   10.6109  -10.5989 C   0  0  0  0  0  0  0  0  0  0  0  0
   -7.6209    9.7375   -9.5162 C   0  0  0  0  0  0  0  0  0  0  0  0
   -8.2754    8.7446   -9.9970 N   0  0  0  0  0  0  0  0  0  0  0  0
   -8.4233    8.8800  -11.3218 N   0  0  0  0  0  0  0  0  0  0  0  0
   -7.3328    9.8812   -8.0296 C   0  0  0  0  0  0  0  0  0  0  0  0
   -5.3004   14.2773  -13.1499 C   0  0  0  0  0  0  0  0  0  0  0  0
   -4.4346   15.5261  -12.8998 C   0  0  0  0  0  0  0  0  0  0  0  0
   -5.5896   13.5586  -12.0343 N   0  0  0  0  0  0  0  0  0  0  0  0
   -5.9706   10.4906   -7.7317 C   0  0  0  0  0  0  0  0  0  0  0  0
   -5.8616   11.7632   -7.1684 C   0  0  0  0  0  0  0  0  0  0  0  0
   -4.6051   12.3126   -6.9180 C   0  0  0  0  0  0  0  0  0  0  0  0
   -3.4544   11.5948   -7.2294 C   0  0  3  0  0  0  0  0  0  0  0  0
   -3.5626   10.3128   -7.8011 C   0  0  0  0  0  0  0  0  0  0  0  0
   -4.8160    9.7710   -8.0425 C   0  0  0  0  0  0  0  0  0  0  0  0
   -2.1083   12.1736   -6.9694 C   0  0  0  0  0  0  0  0  0  0  0  0
   -1.7503   13.4247   -6.4858 C   0  0  0  0  0  0  0  0  0  0  0  0
   -0.4131   13.4674   -6.4189 N   0  0  0  0  0  0  0  0  0  0  0  0
    0.1758   12.3735   -6.8057 N   0  0  0  0  0  0  0  0  0  0  0  0
   -0.8094   11.5620   -7.1791 C   0  0  0  0  0  0  0  0  0  0  0  0
    0.4060   14.5705   -5.9896 C   0  0  0  0  0  0  0  0  0  0  0  0
   -5.6528   14.0066  -14.2746 O   0  0  0  0  0  0  0  0  0  0  0  0
   -6.0747   12.2631   -9.8555 H   0  0  0  0  0  0  0  0  0  0  0  0
   -8.1361   10.1224  -13.9137 H   0  0  0  0  0  0  0  0  0  0  0  0
   -6.7956   12.2399  -14.0855 H   0  0  0  0  0  0  0  0  0  0  0  0
   -8.0279    9.5798   -7.2599 H   0  0  0  0  0  0  0  0  0  0  0  0
   -4.2429   16.0373  -13.8548 H   0  0  0  0  0  0  0  0  0  0  0  0
   -4.9638   16.2086  -12.2185 H   0  0  0  0  0  0  0  0  0  0  0  0
   -3.4785   15.2246  -12.4471 H   0  0  0  0  0  0  0  0  0  0  0  0
   -6.7526   12.3233   -6.9261 H   0  0  0  0  0  0  0  0  0  0  0  0
   -4.5246   13.2972   -6.4815 H   0  0  0  0  0  0  0  0  0  0  0  0
   -3.4585   11.1486   -6.2240 H   0  0  0  0  0  0  0  0  0  0  0  0
   -3.0396   10.3498   -8.7681 H   0  0  0  0  0  0  0  0  0  0  0  0
   -3.0393    9.6182   -7.1276 H   0  0  0  0  0  0  0  0  0  0  0  0
   -4.8679    8.8310   -7.4736 H   0  0  0  0  0  0  0  0  0  0  0  0
   -4.8621    9.5509   -9.1193 H   0  0  0  0  0  0  0  0  0  0  0  0
   -2.4278   14.2202   -6.2127 H   0  0  0  0  0  0  0  0  0  0  0  0
   -0.6614   10.5729   -7.5868 H   0  0  0  0  0  0  0  0  0  0  0  0
    1.4672   14.2904   -6.0634 H   0  0  0  0  0  0  0  0  0  0  0  0
    0.2117   15.4427   -6.6311 H   0  0  0  0  0  0  0  0  0  0  0  0
    0.1649   14.8218   -4.9462 H   0  0  0  0  0  0  0  0  0  0  0  0
  1  2  1  0  0  0  0
  1  4  1  0  0  0  0
  1 13  2  0  0  0  0
  2  6  2  0  0  0  0
  3  4  2  0  0  0  0
  3  5  1  0  0  0  0
  5  6  1  0  0  0  0
  5  9  2  0  0  0  0
  6  7  1  0  0  0  0
  7  8  2  0  0  0  0
  7 10  1  0  0  0  0
  8  9  1  0  0  0  0
 10 14  2  3  0  0  0
 11 12  1  0  0  0  0
 11 13  1  0  0  0  0
 11 26  2  0  0  0  0
 14 15  1  0  0  0  0
 14 19  1  0  0  0  0
 15 16  2  0  0  0  0
 16 17  1  0  0  0  0
 17 18  1  0  0  0  0
 17 20  1  0  0  0  0
 18 19  1  0  0  0  0
 20 21  2  0  0  0  0
 20 24  1  0  0  0  0
 21 22  1  0  0  0  0
 22 23  1  0  0  0  0
 22 25  1  0  0  0  0
 23 24  2  0  0  0  0
  2 27  1  0  0  0  0
  3 28  1  0  0  0  0
  4 29  1  0  0  0  0
 10 30  1  0  0  0  0
 12 31  1  0  0  0  0
 12 32  1  0  0  0  0
 12 33  1  0  0  0  0
 15 34  1  0  0  0  0
 16 35  1  0  0  0  0
 17 36  1  0  0  0  0
 18 37  1  0  0  0  0
 18 38  1  0  0  0  0
 19 39  1  0  0  0  0
 19 40  1  0  0  0  0
 21 41  1  0  0  0  0
 24 42  1  0  0  0  0
 25 43  1  0  0  0  0
 25 44  1  0  0  0  0
 25 45  1  0  0  0  0
M  END
> <Name>
24

> <IC50[uM]>
0.029

$$$$
24
  -OEChem-05192314333D
 Structure written by MMmdl.
 45 48  0     0  0  0  0  0  0999 V2000
   -6.3515   12.3530  -11.9813 C   0  0  0  0  0  0  0  0  0  0  0  0
   -6.5085   11.7912  -10.7247 C   0  0  0  0  0  0  0  0  0  0  0  0
   -7.6802   10.5716  -13.0438 C   0  0  0  0  0  0  0  0  0  0  0  0
   -6.9296   11.7657  -13.1245 C   0  0  0  0  0  0  0  0  0  0  0  0
   -7.7980   10.0044  -11.7669 C   0  0  0  0  0  0  0  0  0  0  0  0
   -7.2328   10.6109  -10.5989 C   0  0  0  0  0  0  0  0  0  0  0  0
   -7.6209    9.7375   -9.5162 C   0  0  0  0  0  0  0  0  0  0  0  0
   -8.2754    8.7446   -9.9970 N   0  0  0  0  0  0  0  0  0  0  0  0
   -8.4233    8.8800  -11.3218 N   0  0  0  0  0  0  0  0  0  0  0  0
   -7.3328    9.8812   -8.0296 C   0  0  0  0  0  0  0  0  0  0  0  0
   -5.3004   14.2773  -13.1499 C   0  0  0  0  0  0  0  0  0  0  0  0
   -4.4346   15.5261  -12.8998 C   0  0  0  0  0  0  0  0  0  0  0  0
   -5.5896   13.5586  -12.0343 N   0  0  0  0  0  0  0  0  0  0  0  0
   -5.9706   10.4906   -7.7317 C   0  0  0  0  0  0  0  0  0  0  0  0
   -5.8616   11.7632   -7.1684 C   0  0  0  0  0  0  0  0  0  0  0  0
   -4.6051   12.3126   -6.9180 C   0  0  0  0  0  0  0  0  0  0  0  0
   -3.4544   11.5948   -7.2294 C   0  0  0  0  0  0  0  0  0  0  0  0
   -3.5626   10.3128   -7.8011 C   0  0  0  0  0  0  0  0  0  0  0  0
   -4.8160    9.7710   -8.0425 C   0  0  0  0  0  0  0  0  0  0  0  0
   -2.1083   12.1736   -6.9694 C   0  0  0  0  0  0  0  0  0  0  0  0
   -1.7503   13.4247   -6.4858 C   0  0  0  0  0  0  0  0  0  0  0  0
   -0.4131   13.4674   -6.4189 N   0  0  0  0  0  0  0  0  0  0  0  0
    0.1758   12.3735   -6.8057 N   0  0  0  0  0  0  0  0  0  0  0  0
   -0.8094   11.5620   -7.1791 C   0  0  0  0  0  0  0  0  0  0  0  0
    0.4060   14.5705   -5.9896 C   0  0  0  0  0  0  0  0  0  0  0  0
   -5.6528   14.0066  -14.2746 O   0  0  0  0  0  0  0  0  0  0  0  0
   -6.0747   12.2631   -9.8555 H   0  0  0  0  0  0  0  0  0  0  0  0
   -8.1361   10.1224  -13.9137 H   0  0  0  0  0  0  0  0  0  0  0  0
   -6.7956   12.2399  -14.0855 H   0  0  0  0  0  0  0  0  0  0  0  0
   -8.0279    9.5798   -7.2599 H   0  0  0  0  0  0  0  0  0  0  0  0
   -4.2429   16.0373  -13.8548 H   0  0  0  0  0  0  0  0  0  0  0  0
   -4.9638   16.2086  -12.2185 H   0  0  0  0  0  0  0  0  0  0  0  0
   -3.4785   15.2246  -12.4471 H   0  0  0  0  0  0  0  0  0  0  0  0
   -6.3807   12.4558   -7.8473 H   0  0  0  0  0  0  0  0  0  0  0  0
   -6.3905   11.7294   -6.2045 H   0  0  0  0  0  0  0  0  0  0  0  0
   -4.5531   13.2553   -7.4825 H   0  0  0  0  0  0  0  0  0  0  0  0
   -4.5624   12.5279   -5.8401 H   0  0  0  0  0  0  0  0  0  0  0  0
   -2.6730    9.7536   -8.0506 H   0  0  0  0  0  0  0  0  0  0  0  0
   -4.8679    8.8310   -7.4736 H   0  0  0  0  0  0  0  0  0  0  0  0
   -4.8621    9.5509   -9.1193 H   0  0  0  0  0  0  0  0  0  0  0  0
   -2.4278   14.2202   -6.2127 H   0  0  0  0  0  0  0  0  0  0  0  0
   -0.6614   10.5729   -7.5868 H   0  0  0  0  0  0  0  0  0  0  0  0
    1.4672   14.2904   -6.0634 H   0  0  0  0  0  0  0  0  0  0  0  0
    0.2117   15.4427   -6.6311 H   0  0  0  0  0  0  0  0  0  0  0  0
    0.1649   14.8218   -4.9462 H   0  0  0  0  0  0  0  0  0  0  0  0
  1  2  1  0  0  0  0
  1  4  1  0  0  0  0
  1 13  2  0  0  0  0
  2  6  2  0  0  0  0
  3  4  2  0  0  0  0
  3  5  1  0  0  0  0
  5  6  1  0  0  0  0
  5  9  2  0  0  0  0
  6  7  1  0  0  0  0
  7  8  2  0  0  0  0
  7 10  1  0  0  0  0
  8  9  1  0  0  0  0
 10 14  2  3  0  0  0
 11 12  1  0  0  0  0
 11 13  1  0  0  0  0
 11 26  2  0  0  0  0
 14 15  1  0  0  0  0
 14 19  1  0  0  0  0
 15 16  1  0  0  0  0
 16 17  1  0  0  0  0
 17 18  2  0  0  0  0
 17 20  1  0  0  0  0
 18 19  1  0  0  0  0
 20 21  2  0  0  0  0
 20 24  1  0  0  0  0
 21 22  1  0  0  0  0
 22 23  1  0  0  0  0
 22 25  1  0  0  0  0
 23 24  2  0  0  0  0
  2 27  1  0  0  0  0
  3 28  1  0  0  0  0
  4 29  1  0  0  0  0
 10 30  1  0  0  0  0
 12 31  1  0  0  0  0
 12 32  1  0  0  0  0
 12 33  1  0  0  0  0
 15 34  1  0  0  0  0
 15 35  1  0  0  0  0
 16 36  1  0  0  0  0
 16 37  1  0  0  0  0
 18 38  1  0  0  0  0
 19 39  1  0  0  0  0
 19 40  1  0  0  0  0
 21 41  1  0  0  0  0
 24 42  1  0  0  0  0
 25 43  1  0  0  0  0
 25 44  1  0  0  0  0
 25 45  1  0  0  0  0
M  END
> <Name>
24

> <IC50[uM]>
0.029

$$$$
24
  -OEChem-05192314333D
 Structure written by MMmdl.
 45 48  0     1  0  0  0  0  0999 V2000
   -6.3515   12.3530  -11.9813 C   0  0  0  0  0  0  0  0  0  0  0  0
   -6.5085   11.7912  -10.7247 C   0  0  0  0  0  0  0  0  0  0  0  0
   -7.6802   10.5716  -13.0438 C   0  0  0  0  0  0  0  0  0  0  0  0
   -6.9296   11.7657  -13.1245 C   0  0  0  0  0  0  0  0  0  0  0  0
   -7.7980   10.0044  -11.7669 C   0  0  0  0  0  0  0  0  0  0  0  0
   -7.2328   10.6109  -10.5989 C   0  0  3  0  0  0  0  0  0  0  0  0
   -7.6209    9.7375   -9.5162 C   0  0  0  0  0  0  0  0  0  0  0  0
   -8.2754    8.7446   -9.9970 N   0  0  0  0  0  0  0  0  0  0  0  0
   -8.4233    8.8800  -11.3218 N   0  0  0  0  0  0  0  0  0  0  0  0
   -7.3328    9.8812   -8.0296 C   0  0  0  0  0  0  0  0  0  0  0  0
   -5.3004   14.2773  -13.1499 C   0  0  0  0  0  0  0  0  0  0  0  0
   -4.4346   15.5261  -12.8998 C   0  0  0  0  0  0  0  0  0  0  0  0
   -5.5896   13.5586  -12.0343 N   0  0  0  0  0  0  0  0  0  0  0  0
   -5.9706   10.4906   -7.7317 C   0  0  0  0  0  0  0  0  0  0  0  0
   -5.8616   11.7632   -7.1684 C   0  0  0  0  0  0  0  0  0  0  0  0
   -4.6051   12.3126   -6.9180 C   0  0  0  0  0  0  0  0  0  0  0  0
   -3.4544   11.5948   -7.2294 C   0  0  0  0  0  0  0  0  0  0  0  0
   -3.5626   10.3128   -7.8011 C   0  0  0  0  0  0  0  0  0  0  0  0
   -4.8160    9.7710   -8.0425 C   0  0  0  0  0  0  0  0  0  0  0  0
   -2.1083   12.1736   -6.9694 C   0  0  0  0  0  0  0  0  0  0  0  0
   -1.7503   13.4247   -6.4858 C   0  0  0  0  0  0  0  0  0  0  0  0
   -0.4131   13.4674   -6.4189 N   0  0  0  0  0  0  0  0  0  0  0  0
    0.1758   12.3735   -6.8057 N   0  0  0  0  0  0  0  0  0  0  0  0
   -0.8094   11.5620   -7.1791 C   0  0  0  0  0  0  0  0  0  0  0  0
    0.4060   14.5705   -5.9896 C   0  0  0  0  0  0  0  0  0  0  0  0
   -5.6528   14.0066  -14.2746 O   0  0  0  0  0  0  0  0  0  0  0  0
   -5.5002   11.5939  -10.3317 H   0  0  0  0  0  0  0  0  0  0  0  0
   -7.0066   12.5435  -10.0954 H   0  0  0  0  0  0  0  0  0  0  0  0
   -8.1361   10.1224  -13.9137 H   0  0  0  0  0  0  0  0  0  0  0  0
   -6.7956   12.2399  -14.0855 H   0  0  0  0  0  0  0  0  0  0  0  0
   -6.3107   10.0281  -10.7406 H   0  0  0  0  0  0  0  0  0  0  0  0
   -8.0279    9.5798   -7.2599 H   0  0  0  0  0  0  0  0  0  0  0  0
   -4.2429   16.0373  -13.8548 H   0  0  0  0  0  0  0  0  0  0  0  0
   -4.9638   16.2086  -12.2185 H   0  0  0  0  0  0  0  0  0  0  0  0
   -3.4785   15.2246  -12.4471 H   0  0  0  0  0  0  0  0  0  0  0  0
   -6.7526   12.3233   -6.9261 H   0  0  0  0  0  0  0  0  0  0  0  0
   -4.5246   13.2972   -6.4815 H   0  0  0  0  0  0  0  0  0  0  0  0
   -3.4585   11.1486   -6.2240 H   0  0  0  0  0  0  0  0  0  0  0  0
   -2.6730    9.7536   -8.0506 H   0  0  0  0  0  0  0  0  0  0  0  0
   -4.8993    8.7846   -8.4743 H   0  0  0  0  0  0  0  0  0  0  0  0
   -2.4278   14.2202   -6.2127 H   0  0  0  0  0  0  0  0  0  0  0  0
   -0.6614   10.5729   -7.5868 H   0  0  0  0  0  0  0  0  0  0  0  0
    1.4672   14.2904   -6.0634 H   0  0  0  0  0  0  0  0  0  0  0  0
    0.2117   15.4427   -6.6311 H   0  0  0  0  0  0  0  0  0  0  0  0
    0.1649   14.8218   -4.9462 H   0  0  0  0  0  0  0  0  0  0  0  0
  1  2  1  0  0  0  0
  1  4  1  0  0  0  0
  1 13  2  0  0  0  0
  2  6  1  0  0  0  0
  3  4  2  0  0  0  0
  3  5  1  0  0  0  0
  5  6  1  0  0  0  0
  5  9  2  0  0  0  0
  6  7  1  0  0  0  0
  7  8  2  0  0  0  0
  7 10  1  0  0  0  0
  8  9  1  0  0  0  0
 10 14  2  0  0  0  0
 11 12  1  0  0  0  0
 11 13  1  0  0  0  0
 11 26  2  0  0  0  0
 14 15  1  0  0  0  0
 14 19  1  0  0  0  0
 15 16  2  0  0  0  0
 16 17  1  0  0  0  0
 17 18  1  0  0  0  0
 17 20  1  0  0  0  0
 18 19  2  0  0  0  0
 20 21  2  0  0  0  0
 20 24  1  0  0  0  0
 21 22  1  0  0  0  0
 22 23  1  0  0  0  0
 22 25  1  0  0  0  0
 23 24  2  0  0  0  0
  2 27  1  0  0  0  0
  2 28  1  0  0  0  0
  3 29  1  0  0  0  0
  4 30  1  0  0  0  0
  6 31  1  0  0  0  0
 10 32  1  0  0  0  0
 12 33  1  0  0  0  0
 12 34  1  0  0  0  0
 12 35  1  0  0  0  0
 15 36  1  0  0  0  0
 16 37  1  0  0  0  0
 17 38  1  0  0  0  0
 18 39  1  0  0  0  0
 19 40  1  0  0  0  0
 21 41  1  0  0  0  0
 24 42  1  0  0  0  0
 25 43  1  0  0  0  0
 25 44  1  0  0  0  0
 25 45  1  0  0  0  0
M  END
> <Name>
24

> <IC50[uM]>
0.029

$$$$
24
  -OEChem-05192314333D
 Structure written by MMmdl.
 45 48  0     1  0  0  0  0  0999 V2000
   -6.3515   12.3530  -11.9813 C   0  0  0  0  0  0  0  0  0  0  0  0
   -6.5085   11.7912  -10.7247 C   0  0  0  0  0  0  0  0  0  0  0  0
   -7.6802   10.5716  -13.0438 C   0  0  0  0  0  0  0  0  0  0  0  0
   -6.9296   11.7657  -13.1245 C   0  0  0  0  0  0  0  0  0  0  0  0
   -7.7980   10.0044  -11.7669 C   0  0  0  0  0  0  0  0  0  0  0  0
   -7.2328   10.6109  -10.5989 C   0  0  3  0  0  0  0  0  0  0  0  0
   -7.6209    9.7375   -9.5162 C   0  0  0  0  0  0  0  0  0  0  0  0
   -8.2754    8.7446   -9.9970 N   0  0  0  0  0  0  0  0  0  0  0  0
   -8.4233    8.8800  -11.3218 N   0  0  0  0  0  0  0  0  0  0  0  0
   -7.3328    9.8812   -8.0296 C   0  0  0  0  0  0  0  0  0  0  0  0
   -5.3004   14.2773  -13.1499 C   0  0  0  0  0  0  0  0  0  0  0  0
   -4.4346   15.5261  -12.8998 C   0  0  0  0  0  0  0  0  0  0  0  0
   -5.5896   13.5586  -12.0343 N   0  0  0  0  0  0  0  0  0  0  0  0
   -5.9706   10.4906   -7.7317 C   0  0  0  0  0  0  0  0  0  0  0  0
   -5.8616   11.7632   -7.1684 C   0  0  0  0  0  0  0  0  0  0  0  0
   -4.6051   12.3126   -6.9180 C   0  0  0  0  0  0  0  0  0  0  0  0
   -3.4544   11.5948   -7.2294 C   0  0  0  0  0  0  0  0  0  0  0  0
   -3.5626   10.3128   -7.8011 C   0  0  0  0  0  0  0  0  0  0  0  0
   -4.8160    9.7710   -8.0425 C   0  0  0  0  0  0  0  0  0  0  0  0
   -2.1083   12.1736   -6.9694 C   0  0  0  0  0  0  0  0  0  0  0  0
   -1.7503   13.4247   -6.4858 C   0  0  0  0  0  0  0  0  0  0  0  0
   -0.4131   13.4674   -6.4189 N   0  0  0  0  0  0  0  0  0  0  0  0
    0.1758   12.3735   -6.8057 N   0  0  0  0  0  0  0  0  0  0  0  0
   -0.8094   11.5620   -7.1791 C   0  0  0  0  0  0  0  0  0  0  0  0
    0.4060   14.5705   -5.9896 C   0  0  0  0  0  0  0  0  0  0  0  0
   -5.6528   14.0066  -14.2746 O   0  0  0  0  0  0  0  0  0  0  0  0
   -5.5002   11.5939  -10.3317 H   0  0  0  0  0  0  0  0  0  0  0  0
   -7.0066   12.5435  -10.0954 H   0  0  0  0  0  0  0  0  0  0  0  0
   -8.1361   10.1224  -13.9137 H   0  0  0  0  0  0  0  0  0  0  0  0
   -6.7956   12.2399  -14.0855 H   0  0  0  0  0  0  0  0  0  0  0  0
   -6.3107   10.0281  -10.7406 H   0  0  0  0  0  0  0  0  0  0  0  0
   -8.0279    9.5798   -7.2599 H   0  0  0  0  0  0  0  0  0  0  0  0
   -4.2429   16.0373  -13.8548 H   0  0  0  0  0  0  0  0  0  0  0  0
   -4.9638   16.2086  -12.2185 H   0  0  0  0  0  0  0  0  0  0  0  0
   -3.4785   15.2246  -12.4471 H   0  0  0  0  0  0  0  0  0  0  0  0
   -6.7526   12.3233   -6.9261 H   0  0  0  0  0  0  0  0  0  0  0  0
   -4.5246   13.2972   -6.4815 H   0  0  0  0  0  0  0  0  0  0  0  0
   -2.6730    9.7536   -8.0506 H   0  0  0  0  0  0  0  0  0  0  0  0
   -4.8679    8.8310   -7.4736 H   0  0  0  0  0  0  0  0  0  0  0  0
   -4.8621    9.5509   -9.1193 H   0  0  0  0  0  0  0  0  0  0  0  0
   -2.4278   14.2202   -6.2127 H   0  0  0  0  0  0  0  0  0  0  0  0
   -0.6614   10.5729   -7.5868 H   0  0  0  0  0  0  0  0  0  0  0  0
    1.4672   14.2904   -6.0634 H   0  0  0  0  0  0  0  0  0  0  0  0
    0.2117   15.4427   -6.6311 H   0  0  0  0  0  0  0  0  0  0  0  0
    0.1649   14.8218   -4.9462 H   0  0  0  0  0  0  0  0  0  0  0  0
  1  2  1  0  0  0  0
  1  4  1  0  0  0  0
  1 13  2  0  0  0  0
  2  6  1  0  0  0  0
  3  4  2  0  0  0  0
  3  5  1  0  0  0  0
  5  6  1  0  0  0  0
  5  9  2  0  0  0  0
  6  7  1  0  0  0  0
  7  8  2  0  0  0  0
  7 10  1  0  0  0  0
  8  9  1  0  0  0  0
 10 14  2  3  0  0  0
 11 12  1  0  0  0  0
 11 13  1  0  0  0  0
 11 26  2  0  0  0  0
 14 15  1  0  0  0  0
 14 19  1  0  0  0  0
 15 16  2  0  0  0  0
 16 17  1  0  0  0  0
 17 18  2  0  0  0  0
 17 20  1  0  0  0  0
 18 19  1  0  0  0  0
 20 21  2  0  0  0  0
 20 24  1  0  0  0  0
 21 22  1  0  0  0  0
 22 23  1  0  0  0  0
 22 25  1  0  0  0  0
 23 24  2  0  0  0  0
  2 27  1  0  0  0  0
  2 28  1  0  0  0  0
  3 29  1  0  0  0  0
  4 30  1  0  0  0  0
  6 31  1  0  0  0  0
 10 32  1  0  0  0  0
 12 33  1  0  0  0  0
 12 34  1  0  0  0  0
 12 35  1  0  0  0  0
 15 36  1  0  0  0  0
 16 37  1  0  0  0  0
 18 38  1  0  0  0  0
 19 39  1  0  0  0  0
 19 40  1  0  0  0  0
 21 41  1  0  0  0  0
 24 42  1  0  0  0  0
 25 43  1  0  0  0  0
 25 44  1  0  0  0  0
 25 45  1  0  0  0  0
M  END
> <Name>
24

> <IC50[uM]>
0.029

$$$$
24
  -OEChem-05192314333D
 Structure written by MMmdl.
 45 48  0     0  0  0  0  0  0999 V2000
   -6.3515   12.3530  -11.9813 C   0  0  0  0  0  0  0  0  0  0  0  0
   -6.5085   11.7912  -10.7247 C   0  0  0  0  0  0  0  0  0  0  0  0
   -7.6802   10.5716  -13.0438 C   0  0  0  0  0  0  0  0  0  0  0  0
   -6.9296   11.7657  -13.1245 C   0  0  0  0  0  0  0  0  0  0  0  0
   -7.7980   10.0044  -11.7669 C   0  0  0  0  0  0  0  0  0  0  0  0
   -7.2328   10.6109  -10.5989 C   0  0  0  0  0  0  0  0  0  0  0  0
   -7.6209    9.7375   -9.5162 C   0  0  0  0  0  0  0  0  0  0  0  0
   -8.2754    8.7446   -9.9970 N   0  0  0  0  0  0  0  0  0  0  0  0
   -8.4233    8.8800  -11.3218 N   0  0  0  0  0  0  0  0  0  0  0  0
   -7.3328    9.8812   -8.0296 C   0  0  0  0  0  0  0  0  0  0  0  0
   -5.3004   14.2773  -13.1499 C   0  0  0  0  0  0  0  0  0  0  0  0
   -4.4346   15.5261  -12.8998 C   0  0  0  0  0  0  0  0  0  0  0  0
   -5.5896   13.5586  -12.0343 N   0  0  0  0  0  0  0  0  0  0  0  0
   -5.9706   10.4906   -7.7317 C   0  0  0  0  0  0  0  0  0  0  0  0
   -5.8616   11.7632   -7.1684 C   0  0  0  0  0  0  0  0  0  0  0  0
   -4.6051   12.3126   -6.9180 C   0  0  0  0  0  0  0  0  0  0  0  0
   -3.4544   11.5948   -7.2294 C   0  0  0  0  0  0  0  0  0  0  0  0
   -3.5626   10.3128   -7.8011 C   0  0  0  0  0  0  0  0  0  0  0  0
   -4.8160    9.7710   -8.0425 C   0  0  0  0  0  0  0  0  0  0  0  0
   -2.1083   12.1736   -6.9694 C   0  0  0  0  0  0  0  0  0  0  0  0
   -1.7503   13.4247   -6.4858 C   0  0  0  0  0  0  0  0  0  0  0  0
   -0.4131   13.4674   -6.4189 N   0  0  0  0  0  0  0  0  0  0  0  0
    0.1758   12.3735   -6.8057 N   0  0  0  0  0  0  0  0  0  0  0  0
   -0.8094   11.5620   -7.1791 C   0  0  0  0  0  0  0  0  0  0  0  0
    0.4060   14.5705   -5.9896 C   0  0  0  0  0  0  0  0  0  0  0  0
   -5.6528   14.0066  -14.2746 O   0  0  0  0  0  0  0  0  0  0  0  0
   -6.0747   12.2631   -9.8555 H   0  0  0  0  0  0  0  0  0  0  0  0
   -8.1361   10.1224  -13.9137 H   0  0  0  0  0  0  0  0  0  0  0  0
   -6.7956   12.2399  -14.0855 H   0  0  0  0  0  0  0  0  0  0  0  0
   -8.1067   10.5245   -7.5855 H   0  0  0  0  0  0  0  0  0  0  0  0
   -7.3763    8.8835   -7.5684 H   0  0  0  0  0  0  0  0  0  0  0  0
   -4.2429   16.0373  -13.8548 H   0  0  0  0  0  0  0  0  0  0  0  0
   -4.9638   16.2086  -12.2185 H   0  0  0  0  0  0  0  0  0  0  0  0
   -3.4785   15.2246  -12.4471 H   0  0  0  0  0  0  0  0  0  0  0  0
   -5.9851   10.0423   -6.7273 H   0  0  0  0  0  0  0  0  0  0  0  0
   -6.7526   12.3233   -6.9261 H   0  0  0  0  0  0  0  0  0  0  0  0
   -4.5246   13.2972   -6.4815 H   0  0  0  0  0  0  0  0  0  0  0  0
   -3.4585   11.1486   -6.2240 H   0  0  0  0  0  0  0  0  0  0  0  0
   -2.6730    9.7536   -8.0506 H   0  0  0  0  0  0  0  0  0  0  0  0
   -4.8993    8.7846   -8.4743 H   0  0  0  0  0  0  0  0  0  0  0  0
   -2.4278   14.2202   -6.2127 H   0  0  0  0  0  0  0  0  0  0  0  0
   -0.6614   10.5729   -7.5868 H   0  0  0  0  0  0  0  0  0  0  0  0
    1.4672   14.2904   -6.0634 H   0  0  0  0  0  0  0  0  0  0  0  0
    0.2117   15.4427   -6.6311 H   0  0  0  0  0  0  0  0  0  0  0  0
    0.1649   14.8218   -4.9462 H   0  0  0  0  0  0  0  0  0  0  0  0
  1  2  1  0  0  0  0
  1  4  1  0  0  0  0
  1 13  2  0  0  0  0
  2  6  2  0  0  0  0
  3  4  2  0  0  0  0
  3  5  1  0  0  0  0
  5  6  1  0  0  0  0
  5  9  2  0  0  0  0
  6  7  1  0  0  0  0
  7  8  2  0  0  0  0
  7 10  1  0  0  0  0
  8  9  1  0  0  0  0
 10 14  1  0  0  0  0
 11 12  1  0  0  0  0
 11 13  1  0  0  0  0
 11 26  2  0  0  0  0
 14 15  1  0  0  0  0
 14 19  1  0  0  0  0
 15 16  2  0  0  0  0
 16 17  1  0  0  0  0
 17 18  1  0  0  0  0
 17 20  1  0  0  0  0
 18 19  2  0  0  0  0
 20 21  2  0  0  0  0
 20 24  1  0  0  0  0
 21 22  1  0  0  0  0
 22 23  1  0  0  0  0
 22 25  1  0  0  0  0
 23 24  2  0  0  0  0
  2 27  1  0  0  0  0
  3 28  1  0  0  0  0
  4 29  1  0  0  0  0
 10 30  1  0  0  0  0
 10 31  1  0  0  0  0
 12 32  1  0  0  0  0
 12 33  1  0  0  0  0
 12 34  1  0  0  0  0
 14 35  1  0  0  0  0
 15 36  1  0  0  0  0
 16 37  1  0  0  0  0
 17 38  1  0  0  0  0
 18 39  1  0  0  0  0
 19 40  1  0  0  0  0
 21 41  1  0  0  0  0
 24 42  1  0  0  0  0
 25 43  1  0  0  0  0
 25 44  1  0  0  0  0
 25 45  1  0  0  0  0
M  END
> <Name>
24

> <IC50[uM]>
0.029

$$$$
24
  -OEChem-05192314333D
 Structure written by MMmdl.
 45 48  0     1  0  0  0  0  0999 V2000
   -6.3515   12.3530  -11.9813 C   0  0  0  0  0  0  0  0  0  0  0  0
   -6.5085   11.7912  -10.7247 C   0  0  0  0  0  0  0  0  0  0  0  0
   -7.6802   10.5716  -13.0438 C   0  0  0  0  0  0  0  0  0  0  0  0
   -6.9296   11.7657  -13.1245 C   0  0  0  0  0  0  0  0  0  0  0  0
   -7.7980   10.0044  -11.7669 C   0  0  0  0  0  0  0  0  0  0  0  0
   -7.2328   10.6109  -10.5989 C   0  0  0  0  0  0  0  0  0  0  0  0
   -7.6209    9.7375   -9.5162 C   0  0  0  0  0  0  0  0  0  0  0  0
   -8.2754    8.7446   -9.9970 N   0  0  0  0  0  0  0  0  0  0  0  0
   -8.4233    8.8800  -11.3218 N   0  0  0  0  0  0  0  0  0  0  0  0
   -7.3328    9.8812   -8.0296 C   0  0  0  0  0  0  0  0  0  0  0  0
   -5.3004   14.2773  -13.1499 C   0  0  0  0  0  0  0  0  0  0  0  0
   -4.4346   15.5261  -12.8998 C   0  0  0  0  0  0  0  0  0  0  0  0
   -5.5896   13.5586  -12.0343 N   0  0  0  0  0  0  0  0  0  0  0  0
   -5.9706   10.4906   -7.7317 C   0  0  0  0  0  0  0  0  0  0  0  0
   -5.8616   11.7632   -7.1684 C   0  0  0  0  0  0  0  0  0  0  0  0
   -4.6051   12.3126   -6.9180 C   0  0  0  0  0  0  0  0  0  0  0  0
   -3.4544   11.5948   -7.2294 C   0  0  3  0  0  0  0  0  0  0  0  0
   -3.5626   10.3128   -7.8011 C   0  0  0  0  0  0  0  0  0  0  0  0
   -4.8160    9.7710   -8.0425 C   0  0  0  0  0  0  0  0  0  0  0  0
   -2.1083   12.1736   -6.9694 C   0  0  0  0  0  0  0  0  0  0  0  0
   -1.7503   13.4247   -6.4858 C   0  0  0  0  0  0  0  0  0  0  0  0
   -0.4131   13.4674   -6.4189 N   0  0  0  0  0  0  0  0  0  0  0  0
    0.1758   12.3735   -6.8057 N   0  0  0  0  0  0  0  0  0  0  0  0
   -0.8094   11.5620   -7.1791 C   0  0  0  0  0  0  0  0  0  0  0  0
    0.4060   14.5705   -5.9896 C   0  0  0  0  0  0  0  0  0  0  0  0
   -5.6528   14.0066  -14.2746 O   0  0  0  0  0  0  0  0  0  0  0  0
   -6.0747   12.2631   -9.8555 H   0  0  0  0  0  0  0  0  0  0  0  0
   -8.1361   10.1224  -13.9137 H   0  0  0  0  0  0  0  0  0  0  0  0
   -6.7956   12.2399  -14.0855 H   0  0  0  0  0  0  0  0  0  0  0  0
   -8.1067   10.5245   -7.5855 H   0  0  0  0  0  0  0  0  0  0  0  0
   -7.3763    8.8835   -7.5684 H   0  0  0  0  0  0  0  0  0  0  0  0
   -4.2429   16.0373  -13.8548 H   0  0  0  0  0  0  0  0  0  0  0  0
   -4.9638   16.2086  -12.2185 H   0  0  0  0  0  0  0  0  0  0  0  0
   -3.4785   15.2246  -12.4471 H   0  0  0  0  0  0  0  0  0  0  0  0
   -6.7526   12.3233   -6.9261 H   0  0  0  0  0  0  0  0  0  0  0  0
   -4.5531   13.2553   -7.4825 H   0  0  0  0  0  0  0  0  0  0  0  0
   -4.5624   12.5279   -5.8401 H   0  0  0  0  0  0  0  0  0  0  0  0
   -3.4585   11.1486   -6.2240 H   0  0  0  0  0  0  0  0  0  0  0  0
   -2.6730    9.7536   -8.0506 H   0  0  0  0  0  0  0  0  0  0  0  0
   -4.8993    8.7846   -8.4743 H   0  0  0  0  0  0  0  0  0  0  0  0
   -2.4278   14.2202   -6.2127 H   0  0  0  0  0  0  0  0  0  0  0  0
   -0.6614   10.5729   -7.5868 H   0  0  0  0  0  0  0  0  0  0  0  0
    1.4672   14.2904   -6.0634 H   0  0  0  0  0  0  0  0  0  0  0  0
    0.2117   15.4427   -6.6311 H   0  0  0  0  0  0  0  0  0  0  0  0
    0.1649   14.8218   -4.9462 H   0  0  0  0  0  0  0  0  0  0  0  0
  1  2  1  0  0  0  0
  1  4  1  0  0  0  0
  1 13  2  0  0  0  0
  2  6  2  0  0  0  0
  3  4  2  0  0  0  0
  3  5  1  0  0  0  0
  5  6  1  0  0  0  0
  5  9  2  0  0  0  0
  6  7  1  0  0  0  0
  7  8  2  0  0  0  0
  7 10  1  0  0  0  0
  8  9  1  0  0  0  0
 10 14  1  0  0  0  0
 11 12  1  0  0  0  0
 11 13  1  0  0  0  0
 11 26  2  0  0  0  0
 14 15  2  0  0  0  0
 14 19  1  0  0  0  0
 15 16  1  0  0  0  0
 16 17  1  0  0  0  0
 17 18  1  0  0  0  0
 17 20  1  0  0  0  0
 18 19  2  0  0  0  0
 20 21  2  0  0  0  0
 20 24  1  0  0  0  0
 21 22  1  0  0  0  0
 22 23  1  0  0  0  0
 22 25  1  0  0  0  0
 23 24  2  0  0  0  0
  2 27  1  0  0  0  0
  3 28  1  0  0  0  0
  4 29  1  0  0  0  0
 10 30  1  0  0  0  0
 10 31  1  0  0  0  0
 12 32  1  0  0  0  0
 12 33  1  0  0  0  0
 12 34  1  0  0  0  0
 15 35  1  0  0  0  0
 16 36  1  0  0  0  0
 16 37  1  0  0  0  0
 17 38  1  0  0  0  0
 18 39  1  0  0  0  0
 19 40  1  0  0  0  0
 21 41  1  0  0  0  0
 24 42  1  0  0  0  0
 25 43  1  0  0  0  0
 25 44  1  0  0  0  0
 25 45  1  0  0  0  0
M  END
> <Name>
24

> <IC50[uM]>
0.029

$$$$
24
  -OEChem-05192314333D
 Structure written by MMmdl.
 45 48  0     1  0  0  0  0  0999 V2000
   -6.3515   12.3530  -11.9813 C   0  0  0  0  0  0  0  0  0  0  0  0
   -6.5085   11.7912  -10.7247 C   0  0  0  0  0  0  0  0  0  0  0  0
   -7.6802   10.5716  -13.0438 C   0  0  0  0  0  0  0  0  0  0  0  0
   -6.9296   11.7657  -13.1245 C   0  0  0  0  0  0  0  0  0  0  0  0
   -7.7980   10.0044  -11.7669 C   0  0  0  0  0  0  0  0  0  0  0  0
   -7.2328   10.6109  -10.5989 C   0  0  0  0  0  0  0  0  0  0  0  0
   -7.6209    9.7375   -9.5162 C   0  0  0  0  0  0  0  0  0  0  0  0
   -8.2754    8.7446   -9.9970 N   0  0  0  0  0  0  0  0  0  0  0  0
   -8.4233    8.8800  -11.3218 N   0  0  0  0  0  0  0  0  0  0  0  0
   -7.3328    9.8812   -8.0296 C   0  0  0  0  0  0  0  0  0  0  0  0
   -5.3004   14.2773  -13.1499 C   0  0  0  0  0  0  0  0  0  0  0  0
   -4.4346   15.5261  -12.8998 C   0  0  0  0  0  0  0  0  0  0  0  0
   -5.5896   13.5586  -12.0343 N   0  0  0  0  0  0  0  0  0  0  0  0
   -5.9706   10.4906   -7.7317 C   0  0  3  0  0  0  0  0  0  0  0  0
   -5.8616   11.7632   -7.1684 C   0  0  0  0  0  0  0  0  0  0  0  0
   -4.6051   12.3126   -6.9180 C   0  0  0  0  0  0  0  0  0  0  0  0
   -3.4544   11.5948   -7.2294 C   0  0  0  0  0  0  0  0  0  0  0  0
   -3.5626   10.3128   -7.8011 C   0  0  0  0  0  0  0  0  0  0  0  0
   -4.8160    9.7710   -8.0425 C   0  0  0  0  0  0  0  0  0  0  0  0
   -2.1083   12.1736   -6.9694 C   0  0  0  0  0  0  0  0  0  0  0  0
   -1.7503   13.4247   -6.4858 C   0  0  0  0  0  0  0  0  0  0  0  0
   -0.4131   13.4674   -6.4189 N   0  0  0  0  0  0  0  0  0  0  0  0
    0.1758   12.3735   -6.8057 N   0  0  0  0  0  0  0  0  0  0  0  0
   -0.8094   11.5620   -7.1791 C   0  0  0  0  0  0  0  0  0  0  0  0
    0.4060   14.5705   -5.9896 C   0  0  0  0  0  0  0  0  0  0  0  0
   -5.6528   14.0066  -14.2746 O   0  0  0  0  0  0  0  0  0  0  0  0
   -6.0747   12.2631   -9.8555 H   0  0  0  0  0  0  0  0  0  0  0  0
   -8.1361   10.1224  -13.9137 H   0  0  0  0  0  0  0  0  0  0  0  0
   -6.7956   12.2399  -14.0855 H   0  0  0  0  0  0  0  0  0  0  0  0
   -8.1067   10.5245   -7.5855 H   0  0  0  0  0  0  0  0  0  0  0  0
   -7.3763    8.8835   -7.5684 H   0  0  0  0  0  0  0  0  0  0  0  0
   -4.2429   16.0373  -13.8548 H   0  0  0  0  0  0  0  0  0  0  0  0
   -4.9638   16.2086  -12.2185 H   0  0  0  0  0  0  0  0  0  0  0  0
   -3.4785   15.2246  -12.4471 H   0  0  0  0  0  0  0  0  0  0  0  0
   -5.9851   10.0423   -6.7273 H   0  0  0  0  0  0  0  0  0  0  0  0
   -6.7526   12.3233   -6.9261 H   0  0  0  0  0  0  0  0  0  0  0  0
   -4.5246   13.2972   -6.4815 H   0  0  0  0  0  0  0  0  0  0  0  0
   -2.6730    9.7536   -8.0506 H   0  0  0  0  0  0  0  0  0  0  0  0
   -4.8679    8.8310   -7.4736 H   0  0  0  0  0  0  0  0  0  0  0  0
   -4.8621    9.5509   -9.1193 H   0  0  0  0  0  0  0  0  0  0  0  0
   -2.4278   14.2202   -6.2127 H   0  0  0  0  0  0  0  0  0  0  0  0
   -0.6614   10.5729   -7.5868 H   0  0  0  0  0  0  0  0  0  0  0  0
    1.4672   14.2904   -6.0634 H   0  0  0  0  0  0  0  0  0  0  0  0
    0.2117   15.4427   -6.6311 H   0  0  0  0  0  0  0  0  0  0  0  0
    0.1649   14.8218   -4.9462 H   0  0  0  0  0  0  0  0  0  0  0  0
  1  2  1  0  0  0  0
  1  4  1  0  0  0  0
  1 13  2  0  0  0  0
  2  6  2  0  0  0  0
  3  4  2  0  0  0  0
  3  5  1  0  0  0  0
  5  6  1  0  0  0  0
  5  9  2  0  0  0  0
  6  7  1  0  0  0  0
  7  8  2  0  0  0  0
  7 10  1  0  0  0  0
  8  9  1  0  0  0  0
 10 14  1  0  0  0  0
 11 12  1  0  0  0  0
 11 13  1  0  0  0  0
 11 26  2  0  0  0  0
 14 15  1  0  0  0  0
 14 19  1  0  0  0  0
 15 16  2  0  0  0  0
 16 17  1  0  0  0  0
 17 18  2  0  0  0  0
 17 20  1  0  0  0  0
 18 19  1  0  0  0  0
 20 21  2  0  0  0  0
 20 24  1  0  0  0  0
 21 22  1  0  0  0  0
 22 23  1  0  0  0  0
 22 25  1  0  0  0  0
 23 24  2  0  0  0  0
  2 27  1  0  0  0  0
  3 28  1  0  0  0  0
  4 29  1  0  0  0  0
 10 30  1  0  0  0  0
 10 31  1  0  0  0  0
 12 32  1  0  0  0  0
 12 33  1  0  0  0  0
 12 34  1  0  0  0  0
 14 35  1  0  0  0  0
 15 36  1  0  0  0  0
 16 37  1  0  0  0  0
 18 38  1  0  0  0  0
 19 39  1  0  0  0  0
 19 40  1  0  0  0  0
 21 41  1  0  0  0  0
 24 42  1  0  0  0  0
 25 43  1  0  0  0  0
 25 44  1  0  0  0  0
 25 45  1  0  0  0  0
M  END
> <Name>
24

> <IC50[uM]>
0.029

$$$$
24
  -OEChem-05192314333D
 Structure written by MMmdl.
 45 48  0     0  0  0  0  0  0999 V2000
   -6.3515   12.3530  -11.9813 C   0  0  0  0  0  0  0  0  0  0  0  0
   -6.5085   11.7912  -10.7247 C   0  0  0  0  0  0  0  0  0  0  0  0
   -7.6802   10.5716  -13.0438 C   0  0  0  0  0  0  0  0  0  0  0  0
   -6.9296   11.7657  -13.1245 C   0  0  0  0  0  0  0  0  0  0  0  0
   -7.7980   10.0044  -11.7669 C   0  0  0  0  0  0  0  0  0  0  0  0
   -7.2328   10.6109  -10.5989 C   0  0  0  0  0  0  0  0  0  0  0  0
   -7.6209    9.7375   -9.5162 C   0  0  0  0  0  0  0  0  0  0  0  0
   -8.2754    8.7446   -9.9970 N   0  0  0  0  0  0  0  0  0  0  0  0
   -8.4233    8.8800  -11.3218 N   0  0  0  0  0  0  0  0  0  0  0  0
   -7.3328    9.8812   -8.0296 C   0  0  0  0  0  0  0  0  0  0  0  0
   -5.3004   14.2773  -13.1499 C   0  0  0  0  0  0  0  0  0  0  0  0
   -4.4346   15.5261  -12.8998 C   0  0  0  0  0  0  0  0  0  0  0  0
   -5.5896   13.5586  -12.0343 N   0  0  0  0  0  0  0  0  0  0  0  0
   -5.9706   10.4906   -7.7317 C   0  0  0  0  0  0  0  0  0  0  0  0
   -5.8616   11.7632   -7.1684 C   0  0  0  0  0  0  0  0  0  0  0  0
   -4.6051   12.3126   -6.9180 C   0  0  0  0  0  0  0  0  0  0  0  0
   -3.4544   11.5948   -7.2294 C   0  0  0  0  0  0  0  0  0  0  0  0
   -3.5626   10.3128   -7.8011 C   0  0  0  0  0  0  0  0  0  0  0  0
   -4.8160    9.7710   -8.0425 C   0  0  0  0  0  0  0  0  0  0  0  0
   -2.1083   12.1736   -6.9694 C   0  0  0  0  0  0  0  0  0  0  0  0
   -1.7503   13.4247   -6.4858 C   0  0  0  0  0  0  0  0  0  0  0  0
   -0.4131   13.4674   -6.4189 N   0  0  0  0  0  0  0  0  0  0  0  0
    0.1758   12.3735   -6.8057 N   0  0  0  0  0  0  0  0  0  0  0  0
   -0.8094   11.5620   -7.1791 C   0  0  0  0  0  0  0  0  0  0  0  0
    0.4060   14.5705   -5.9896 C   0  0  0  0  0  0  0  0  0  0  0  0
   -5.6528   14.0066  -14.2746 O   0  0  0  0  0  0  0  0  0  0  0  0
   -6.0747   12.2631   -9.8555 H   0  0  0  0  0  0  0  0  0  0  0  0
   -8.1361   10.1224  -13.9137 H   0  0  0  0  0  0  0  0  0  0  0  0
   -6.7956   12.2399  -14.0855 H   0  0  0  0  0  0  0  0  0  0  0  0
   -8.1067   10.5245   -7.5855 H   0  0  0  0  0  0  0  0  0  0  0  0
   -7.3763    8.8835   -7.5684 H   0  0  0  0  0  0  0  0  0  0  0  0
   -4.2429   16.0373  -13.8548 H   0  0  0  0  0  0  0  0  0  0  0  0
   -4.9638   16.2086  -12.2185 H   0  0  0  0  0  0  0  0  0  0  0  0
   -3.4785   15.2246  -12.4471 H   0  0  0  0  0  0  0  0  0  0  0  0
   -6.7526   12.3233   -6.9261 H   0  0  0  0  0  0  0  0  0  0  0  0
   -4.5531   13.2553   -7.4825 H   0  0  0  0  0  0  0  0  0  0  0  0
   -4.5624   12.5279   -5.8401 H   0  0  0  0  0  0  0  0  0  0  0  0
   -2.6730    9.7536   -8.0506 H   0  0  0  0  0  0  0  0  0  0  0  0
   -4.8679    8.8310   -7.4736 H   0  0  0  0  0  0  0  0  0  0  0  0
   -4.8621    9.5509   -9.1193 H   0  0  0  0  0  0  0  0  0  0  0  0
   -2.4278   14.2202   -6.2127 H   0  0  0  0  0  0  0  0  0  0  0  0
   -0.6614   10.5729   -7.5868 H   0  0  0  0  0  0  0  0  0  0  0  0
    1.4672   14.2904   -6.0634 H   0  0  0  0  0  0  0  0  0  0  0  0
    0.2117   15.4427   -6.6311 H   0  0  0  0  0  0  0  0  0  0  0  0
    0.1649   14.8218   -4.9462 H   0  0  0  0  0  0  0  0  0  0  0  0
  1  2  1  0  0  0  0
  1  4  1  0  0  0  0
  1 13  2  0  0  0  0
  2  6  2  0  0  0  0
  3  4  2  0  0  0  0
  3  5  1  0  0  0  0
  5  6  1  0  0  0  0
  5  9  2  0  0  0  0
  6  7  1  0  0  0  0
  7  8  2  0  0  0  0
  7 10  1  0  0  0  0
  8  9  1  0  0  0  0
 10 14  1  0  0  0  0
 11 12  1  0  0  0  0
 11 13  1  0  0  0  0
 11 26  2  0  0  0  0
 14 15  2  0  0  0  0
 14 19  1  0  0  0  0
 15 16  1  0  0  0  0
 16 17  1  0  0  0  0
 17 18  2  0  0  0  0
 17 20  1  0  0  0  0
 18 19  1  0  0  0  0
 20 21  2  0  0  0  0
 20 24  1  0  0  0  0
 21 22  1  0  0  0  0
 22 23  1  0  0  0  0
 22 25  1  0  0  0  0
 23 24  2  0  0  0  0
  2 27  1  0  0  0  0
  3 28  1  0  0  0  0
  4 29  1  0  0  0  0
 10 30  1  0  0  0  0
 10 31  1  0  0  0  0
 12 32  1  0  0  0  0
 12 33  1  0  0  0  0
 12 34  1  0  0  0  0
 15 35  1  0  0  0  0
 16 36  1  0  0  0  0
 16 37  1  0  0  0  0
 18 38  1  0  0  0  0
 19 39  1  0  0  0  0
 19 40  1  0  0  0  0
 21 41  1  0  0  0  0
 24 42  1  0  0  0  0
 25 43  1  0  0  0  0
 25 44  1  0  0  0  0
 25 45  1  0  0  0  0
M  END
> <Name>
24

> <IC50[uM]>
0.029

$$$$
24
  -OEChem-05192314333D
 Structure written by MMmdl.
 45 48  0     0  0  0  0  0  0999 V2000
   -6.3515   12.3530  -11.9813 C   0  0  0  0  0  0  0  0  0  0  0  0
   -6.5085   11.7912  -10.7247 C   0  0  0  0  0  0  0  0  0  0  0  0
   -7.6802   10.5716  -13.0438 C   0  0  0  0  0  0  0  0  0  0  0  0
   -6.9296   11.7657  -13.1245 C   0  0  0  0  0  0  0  0  0  0  0  0
   -7.7980   10.0044  -11.7669 C   0  0  0  0  0  0  0  0  0  0  0  0
   -7.2328   10.6109  -10.5989 C   0  0  0  0  0  0  0  0  0  0  0  0
   -7.6209    9.7375   -9.5162 C   0  0  0  0  0  0  0  0  0  0  0  0
   -8.2754    8.7446   -9.9970 N   0  0  0  0  0  0  0  0  0  0  0  0
   -8.4233    8.8800  -11.3218 N   0  0  0  0  0  0  0  0  0  0  0  0
   -7.3328    9.8812   -8.0296 C   0  0  0  0  0  0  0  0  0  0  0  0
   -5.3004   14.2773  -13.1499 C   0  0  0  0  0  0  0  0  0  0  0  0
   -4.4346   15.5261  -12.8998 C   0  0  0  0  0  0  0  0  0  0  0  0
   -5.5896   13.5586  -12.0343 N   0  0  0  0  0  0  0  0  0  0  0  0
   -5.9706   10.4906   -7.7317 C   0  0  0  0  0  0  0  0  0  0  0  0
   -5.8616   11.7632   -7.1684 C   0  0  0  0  0  0  0  0  0  0  0  0
   -4.6051   12.3126   -6.9180 C   0  0  0  0  0  0  0  0  0  0  0  0
   -3.4544   11.5948   -7.2294 C   0  0  0  0  0  0  0  0  0  0  0  0
   -3.5626   10.3128   -7.8011 C   0  0  0  0  0  0  0  0  0  0  0  0
   -4.8160    9.7710   -8.0425 C   0  0  0  0  0  0  0  0  0  0  0  0
   -2.1083   12.1736   -6.9694 C   0  0  0  0  0  0  0  0  0  0  0  0
   -1.7503   13.4247   -6.4858 C   0  0  0  0  0  0  0  0  0  0  0  0
   -0.4131   13.4674   -6.4189 N   0  0  0  0  0  0  0  0  0  0  0  0
    0.1758   12.3735   -6.8057 N   0  0  0  0  0  0  0  0  0  0  0  0
   -0.8094   11.5620   -7.1791 C   0  0  0  0  0  0  0  0  0  0  0  0
    0.4060   14.5705   -5.9896 C   0  0  0  0  0  0  0  0  0  0  0  0
   -5.6528   14.0066  -14.2746 O   0  0  0  0  0  0  0  0  0  0  0  0
   -6.0747   12.2631   -9.8555 H   0  0  0  0  0  0  0  0  0  0  0  0
   -8.1361   10.1224  -13.9137 H   0  0  0  0  0  0  0  0  0  0  0  0
   -6.7956   12.2399  -14.0855 H   0  0  0  0  0  0  0  0  0  0  0  0
   -8.1067   10.5245   -7.5855 H   0  0  0  0  0  0  0  0  0  0  0  0
   -7.3763    8.8835   -7.5684 H   0  0  0  0  0  0  0  0  0  0  0  0
   -4.2429   16.0373  -13.8548 H   0  0  0  0  0  0  0  0  0  0  0  0
   -4.9638   16.2086  -12.2185 H   0  0  0  0  0  0  0  0  0  0  0  0
   -3.4785   15.2246  -12.4471 H   0  0  0  0  0  0  0  0  0  0  0  0
   -6.7526   12.3233   -6.9261 H   0  0  0  0  0  0  0  0  0  0  0  0
   -4.5246   13.2972   -6.4815 H   0  0  0  0  0  0  0  0  0  0  0  0
   -3.0396   10.3498   -8.7681 H   0  0  0  0  0  0  0  0  0  0  0  0
   -3.0393    9.6182   -7.1276 H   0  0  0  0  0  0  0  0  0  0  0  0
   -4.8679    8.8310   -7.4736 H   0  0  0  0  0  0  0  0  0  0  0  0
   -4.8621    9.5509   -9.1193 H   0  0  0  0  0  0  0  0  0  0  0  0
   -2.4278   14.2202   -6.2127 H   0  0  0  0  0  0  0  0  0  0  0  0
   -0.6614   10.5729   -7.5868 H   0  0  0  0  0  0  0  0  0  0  0  0
    1.4672   14.2904   -6.0634 H   0  0  0  0  0  0  0  0  0  0  0  0
    0.2117   15.4427   -6.6311 H   0  0  0  0  0  0  0  0  0  0  0  0
    0.1649   14.8218   -4.9462 H   0  0  0  0  0  0  0  0  0  0  0  0
  1  2  1  0  0  0  0
  1  4  1  0  0  0  0
  1 13  2  0  0  0  0
  2  6  2  0  0  0  0
  3  4  2  0  0  0  0
  3  5  1  0  0  0  0
  5  6  1  0  0  0  0
  5  9  2  0  0  0  0
  6  7  1  0  0  0  0
  7  8  2  0  0  0  0
  7 10  1  0  0  0  0
  8  9  1  0  0  0  0
 10 14  1  0  0  0  0
 11 12  1  0  0  0  0
 11 13  1  0  0  0  0
 11 26  2  0  0  0  0
 14 15  2  0  0  0  0
 14 19  1  0  0  0  0
 15 16  1  0  0  0  0
 16 17  2  0  0  0  0
 17 18  1  0  0  0  0
 17 20  1  0  0  0  0
 18 19  1  0  0  0  0
 20 21  2  0  0  0  0
 20 24  1  0  0  0  0
 21 22  1  0  0  0  0
 22 23  1  0  0  0  0
 22 25  1  0  0  0  0
 23 24  2  0  0  0  0
  2 27  1  0  0  0  0
  3 28  1  0  0  0  0
  4 29  1  0  0  0  0
 10 30  1  0  0  0  0
 10 31  1  0  0  0  0
 12 32  1  0  0  0  0
 12 33  1  0  0  0  0
 12 34  1  0  0  0  0
 15 35  1  0  0  0  0
 16 36  1  0  0  0  0
 18 37  1  0  0  0  0
 18 38  1  0  0  0  0
 19 39  1  0  0  0  0
 19 40  1  0  0  0  0
 21 41  1  0  0  0  0
 24 42  1  0  0  0  0
 25 43  1  0  0  0  0
 25 44  1  0  0  0  0
 25 45  1  0  0  0  0
M  END
> <Name>
24

> <IC50[uM]>
0.029

$$$$
24
  -OEChem-05192314333D
 Structure written by MMmdl.
 45 48  0     1  0  0  0  0  0999 V2000
   -6.3515   12.3530  -11.9813 C   0  0  0  0  0  0  0  0  0  0  0  0
   -6.5085   11.7912  -10.7247 C   0  0  0  0  0  0  0  0  0  0  0  0
   -7.6802   10.5716  -13.0438 C   0  0  0  0  0  0  0  0  0  0  0  0
   -6.9296   11.7657  -13.1245 C   0  0  0  0  0  0  0  0  0  0  0  0
   -7.7980   10.0044  -11.7669 C   0  0  0  0  0  0  0  0  0  0  0  0
   -7.2328   10.6109  -10.5989 C   0  0  3  0  0  0  0  0  0  0  0  0
   -7.6209    9.7375   -9.5162 C   0  0  0  0  0  0  0  0  0  0  0  0
   -8.2754    8.7446   -9.9970 N   0  0  0  0  0  0  0  0  0  0  0  0
   -8.4233    8.8800  -11.3218 N   0  0  0  0  0  0  0  0  0  0  0  0
   -7.3328    9.8812   -8.0296 C   0  0  0  0  0  0  0  0  0  0  0  0
   -5.3004   14.2773  -13.1499 C   0  0  0  0  0  0  0  0  0  0  0  0
   -4.4346   15.5261  -12.8998 C   0  0  0  0  0  0  0  0  0  0  0  0
   -5.5896   13.5586  -12.0343 N   0  0  0  0  0  0  0  0  0  0  0  0
   -5.9706   10.4906   -7.7317 C   0  0  0  0  0  0  0  0  0  0  0  0
   -5.8616   11.7632   -7.1684 C   0  0  0  0  0  0  0  0  0  0  0  0
   -4.6051   12.3126   -6.9180 C   0  0  0  0  0  0  0  0  0  0  0  0
   -3.4544   11.5948   -7.2294 C   0  0  0  0  0  0  0  0  0  0  0  0
   -3.5626   10.3128   -7.8011 C   0  0  0  0  0  0  0  0  0  0  0  0
   -4.8160    9.7710   -8.0425 C   0  0  0  0  0  0  0  0  0  0  0  0
   -2.1083   12.1736   -6.9694 C   0  0  0  0  0  0  0  0  0  0  0  0
   -1.7503   13.4247   -6.4858 C   0  0  0  0  0  0  0  0  0  0  0  0
   -0.4131   13.4674   -6.4189 N   0  0  0  0  0  0  0  0  0  0  0  0
    0.1758   12.3735   -6.8057 N   0  0  0  0  0  0  0  0  0  0  0  0
   -0.8094   11.5620   -7.1791 C   0  0  0  0  0  0  0  0  0  0  0  0
    0.4060   14.5705   -5.9896 C   0  0  0  0  0  0  0  0  0  0  0  0
   -5.6528   14.0066  -14.2746 O   0  0  0  0  0  0  0  0  0  0  0  0
   -6.0747   12.2631   -9.8555 H   0  0  0  0  0  0  0  0  0  0  0  0
   -8.1361   10.1224  -13.9137 H   0  0  0  0  0  0  0  0  0  0  0  0
   -6.7956   12.2399  -14.0855 H   0  0  0  0  0  0  0  0  0  0  0  0
   -6.3107   10.0281  -10.7406 H   0  0  0  0  0  0  0  0  0  0  0  0
   -8.0279    9.5798   -7.2599 H   0  0  0  0  0  0  0  0  0  0  0  0
   -4.2429   16.0373  -13.8548 H   0  0  0  0  0  0  0  0  0  0  0  0
   -4.9638   16.2086  -12.2185 H   0  0  0  0  0  0  0  0  0  0  0  0
   -3.4785   15.2246  -12.4471 H   0  0  0  0  0  0  0  0  0  0  0  0
   -5.2347   13.9076  -11.1670 H   0  0  0  0  0  0  0  0  0  0  0  0
   -6.7526   12.3233   -6.9261 H   0  0  0  0  0  0  0  0  0  0  0  0
   -4.5246   13.2972   -6.4815 H   0  0  0  0  0  0  0  0  0  0  0  0
   -3.4585   11.1486   -6.2240 H   0  0  0  0  0  0  0  0  0  0  0  0
   -2.6730    9.7536   -8.0506 H   0  0  0  0  0  0  0  0  0  0  0  0
   -4.8993    8.7846   -8.4743 H   0  0  0  0  0  0  0  0  0  0  0  0
   -2.4278   14.2202   -6.2127 H   0  0  0  0  0  0  0  0  0  0  0  0
   -0.6614   10.5729   -7.5868 H   0  0  0  0  0  0  0  0  0  0  0  0
    1.4672   14.2904   -6.0634 H   0  0  0  0  0  0  0  0  0  0  0  0
    0.2117   15.4427   -6.6311 H   0  0  0  0  0  0  0  0  0  0  0  0
    0.1649   14.8218   -4.9462 H   0  0  0  0  0  0  0  0  0  0  0  0
  1  2  2  0  0  0  0
  1  4  1  0  0  0  0
  1 13  1  0  0  0  0
  2  6  1  0  0  0  0
  3  4  2  0  0  0  0
  3  5  1  0  0  0  0
  5  6  1  0  0  0  0
  5  9  2  0  0  0  0
  6  7  1  0  0  0  0
  7  8  2  0  0  0  0
  7 10  1  0  0  0  0
  8  9  1  0  0  0  0
 10 14  2  0  0  0  0
 11 12  1  0  0  0  0
 11 13  1  0  0  0  0
 11 26  2  0  0  0  0
 14 15  1  0  0  0  0
 14 19  1  0  0  0  0
 15 16  2  0  0  0  0
 16 17  1  0  0  0  0
 17 18  1  0  0  0  0
 17 20  1  0  0  0  0
 18 19  2  0  0  0  0
 20 21  2  0  0  0  0
 20 24  1  0  0  0  0
 21 22  1  0  0  0  0
 22 23  1  0  0  0  0
 22 25  1  0  0  0  0
 23 24  2  0  0  0  0
  2 27  1  0  0  0  0
  3 28  1  0  0  0  0
  4 29  1  0  0  0  0
  6 30  1  0  0  0  0
 10 31  1  0  0  0  0
 12 32  1  0  0  0  0
 12 33  1  0  0  0  0
 12 34  1  0  0  0  0
 13 35  1  0  0  0  0
 15 36  1  0  0  0  0
 16 37  1  0  0  0  0
 17 38  1  0  0  0  0
 18 39  1  0  0  0  0
 19 40  1  0  0  0  0
 21 41  1  0  0  0  0
 24 42  1  0  0  0  0
 25 43  1  0  0  0  0
 25 44  1  0  0  0  0
 25 45  1  0  0  0  0
M  END
> <Name>
24

> <IC50[uM]>
0.029

$$$$
24
  -OEChem-05192314333D
 Structure written by MMmdl.
 45 48  0     1  0  0  0  0  0999 V2000
   -6.3515   12.3530  -11.9813 C   0  0  3  0  0  0  0  0  0  0  0  0
   -6.5085   11.7912  -10.7247 C   0  0  0  0  0  0  0  0  0  0  0  0
   -7.6802   10.5716  -13.0438 C   0  0  0  0  0  0  0  0  0  0  0  0
   -6.9296   11.7657  -13.1245 C   0  0  0  0  0  0  0  0  0  0  0  0
   -7.7980   10.0044  -11.7669 C   0  0  0  0  0  0  0  0  0  0  0  0
   -7.2328   10.6109  -10.5989 C   0  0  0  0  0  0  0  0  0  0  0  0
   -7.6209    9.7375   -9.5162 C   0  0  0  0  0  0  0  0  0  0  0  0
   -8.2754    8.7446   -9.9970 N   0  0  0  0  0  0  0  0  0  0  0  0
   -8.4233    8.8800  -11.3218 N   0  0  0  0  0  0  0  0  0  0  0  0
   -7.3328    9.8812   -8.0296 C   0  0  0  0  0  0  0  0  0  0  0  0
   -5.3004   14.2773  -13.1499 C   0  0  0  0  0  0  0  0  0  0  0  0
   -4.4346   15.5261  -12.8998 C   0  0  0  0  0  0  0  0  0  0  0  0
   -5.5896   13.5586  -12.0343 N   0  0  0  0  0  0  0  0  0  0  0  0
   -5.9706   10.4906   -7.7317 C   0  0  0  0  0  0  0  0  0  0  0  0
   -5.8616   11.7632   -7.1684 C   0  0  0  0  0  0  0  0  0  0  0  0
   -4.6051   12.3126   -6.9180 C   0  0  0  0  0  0  0  0  0  0  0  0
   -3.4544   11.5948   -7.2294 C   0  0  0  0  0  0  0  0  0  0  0  0
   -3.5626   10.3128   -7.8011 C   0  0  0  0  0  0  0  0  0  0  0  0
   -4.8160    9.7710   -8.0425 C   0  0  0  0  0  0  0  0  0  0  0  0
   -2.1083   12.1736   -6.9694 C   0  0  0  0  0  0  0  0  0  0  0  0
   -1.7503   13.4247   -6.4858 C   0  0  0  0  0  0  0  0  0  0  0  0
   -0.4131   13.4674   -6.4189 N   0  0  0  0  0  0  0  0  0  0  0  0
    0.1758   12.3735   -6.8057 N   0  0  0  0  0  0  0  0  0  0  0  0
   -0.8094   11.5620   -7.1791 C   0  0  0  0  0  0  0  0  0  0  0  0
    0.4060   14.5705   -5.9896 C   0  0  0  0  0  0  0  0  0  0  0  0
   -5.6528   14.0066  -14.2746 O   0  0  0  0  0  0  0  0  0  0  0  0
   -5.4362   11.7628  -12.1356 H   0  0  0  0  0  0  0  0  0  0  0  0
   -6.0747   12.2631   -9.8555 H   0  0  0  0  0  0  0  0  0  0  0  0
   -8.1361   10.1224  -13.9137 H   0  0  0  0  0  0  0  0  0  0  0  0
   -6.7956   12.2399  -14.0855 H   0  0  0  0  0  0  0  0  0  0  0  0
   -8.0279    9.5798   -7.2599 H   0  0  0  0  0  0  0  0  0  0  0  0
   -4.2429   16.0373  -13.8548 H   0  0  0  0  0  0  0  0  0  0  0  0
   -4.9638   16.2086  -12.2185 H   0  0  0  0  0  0  0  0  0  0  0  0
   -3.4785   15.2246  -12.4471 H   0  0  0  0  0  0  0  0  0  0  0  0
   -5.2347   13.9076  -11.1670 H   0  0  0  0  0  0  0  0  0  0  0  0
   -6.7526   12.3233   -6.9261 H   0  0  0  0  0  0  0  0  0  0  0  0
   -4.5246   13.2972   -6.4815 H   0  0  0  0  0  0  0  0  0  0  0  0
   -3.4585   11.1486   -6.2240 H   0  0  0  0  0  0  0  0  0  0  0  0
   -2.6730    9.7536   -8.0506 H   0  0  0  0  0  0  0  0  0  0  0  0
   -4.8993    8.7846   -8.4743 H   0  0  0  0  0  0  0  0  0  0  0  0
   -2.4278   14.2202   -6.2127 H   0  0  0  0  0  0  0  0  0  0  0  0
   -0.6614   10.5729   -7.5868 H   0  0  0  0  0  0  0  0  0  0  0  0
    1.4672   14.2904   -6.0634 H   0  0  0  0  0  0  0  0  0  0  0  0
    0.2117   15.4427   -6.6311 H   0  0  0  0  0  0  0  0  0  0  0  0
    0.1649   14.8218   -4.9462 H   0  0  0  0  0  0  0  0  0  0  0  0
  1  2  1  0  0  0  0
  1  4  1  0  0  0  0
  1 13  1  0  0  0  0
  2  6  2  0  0  0  0
  3  4  2  0  0  0  0
  3  5  1  0  0  0  0
  5  6  1  0  0  0  0
  5  9  2  0  0  0  0
  6  7  1  0  0  0  0
  7  8  2  0  0  0  0
  7 10  1  0  0  0  0
  8  9  1  0  0  0  0
 10 14  2  0  0  0  0
 11 12  1  0  0  0  0
 11 13  1  0  0  0  0
 11 26  2  0  0  0  0
 14 15  1  0  0  0  0
 14 19  1  0  0  0  0
 15 16  2  0  0  0  0
 16 17  1  0  0  0  0
 17 18  1  0  0  0  0
 17 20  1  0  0  0  0
 18 19  2  0  0  0  0
 20 21  2  0  0  0  0
 20 24  1  0  0  0  0
 21 22  1  0  0  0  0
 22 23  1  0  0  0  0
 22 25  1  0  0  0  0
 23 24  2  0  0  0  0
  1 27  1  0  0  0  0
  2 28  1  0  0  0  0
  3 29  1  0  0  0  0
  4 30  1  0  0  0  0
 10 31  1  0  0  0  0
 12 32  1  0  0  0  0
 12 33  1  0  0  0  0
 12 34  1  0  0  0  0
 13 35  1  0  0  0  0
 15 36  1  0  0  0  0
 16 37  1  0  0  0  0
 17 38  1  0  0  0  0
 18 39  1  0  0  0  0
 19 40  1  0  0  0  0
 21 41  1  0  0  0  0
 24 42  1  0  0  0  0
 25 43  1  0  0  0  0
 25 44  1  0  0  0  0
 25 45  1  0  0  0  0
M  END
> <Name>
24

> <IC50[uM]>
0.029

$$$$
24
  -OEChem-05192314333D
 Structure written by MMmdl.
 45 48  0     1  0  0  0  0  0999 V2000
   -6.3515   12.3530  -11.9813 C   0  0  0  0  0  0  0  0  0  0  0  0
   -6.5085   11.7912  -10.7247 C   0  0  0  0  0  0  0  0  0  0  0  0
   -7.6802   10.5716  -13.0438 C   0  0  0  0  0  0  0  0  0  0  0  0
   -6.9296   11.7657  -13.1245 C   0  0  0  0  0  0  0  0  0  0  0  0
   -7.7980   10.0044  -11.7669 C   0  0  3  0  0  0  0  0  0  0  0  0
   -7.2328   10.6109  -10.5989 C   0  0  0  0  0  0  0  0  0  0  0  0
   -7.6209    9.7375   -9.5162 C   0  0  0  0  0  0  0  0  0  0  0  0
   -8.2754    8.7446   -9.9970 N   0  0  0  0  0  0  0  0  0  0  0  0
   -8.4233    8.8800  -11.3218 N   0  0  0  0  0  0  0  0  0  0  0  0
   -7.3328    9.8812   -8.0296 C   0  0  0  0  0  0  0  0  0  0  0  0
   -5.3004   14.2773  -13.1499 C   0  0  0  0  0  0  0  0  0  0  0  0
   -4.4346   15.5261  -12.8998 C   0  0  0  0  0  0  0  0  0  0  0  0
   -5.5896   13.5586  -12.0343 N   0  0  0  0  0  0  0  0  0  0  0  0
   -5.9706   10.4906   -7.7317 C   0  0  0  0  0  0  0  0  0  0  0  0
   -5.8616   11.7632   -7.1684 C   0  0  0  0  0  0  0  0  0  0  0  0
   -4.6051   12.3126   -6.9180 C   0  0  0  0  0  0  0  0  0  0  0  0
   -3.4544   11.5948   -7.2294 C   0  0  0  0  0  0  0  0  0  0  0  0
   -3.5626   10.3128   -7.8011 C   0  0  0  0  0  0  0  0  0  0  0  0
   -4.8160    9.7710   -8.0425 C   0  0  0  0  0  0  0  0  0  0  0  0
   -2.1083   12.1736   -6.9694 C   0  0  0  0  0  0  0  0  0  0  0  0
   -1.7503   13.4247   -6.4858 C   0  0  0  0  0  0  0  0  0  0  0  0
   -0.4131   13.4674   -6.4189 N   0  0  0  0  0  0  0  0  0  0  0  0
    0.1758   12.3735   -6.8057 N   0  0  0  0  0  0  0  0  0  0  0  0
   -0.8094   11.5620   -7.1791 C   0  0  0  0  0  0  0  0  0  0  0  0
    0.4060   14.5705   -5.9896 C   0  0  0  0  0  0  0  0  0  0  0  0
   -5.6528   14.0066  -14.2746 O   0  0  0  0  0  0  0  0  0  0  0  0
   -6.0747   12.2631   -9.8555 H   0  0  0  0  0  0  0  0  0  0  0  0
   -8.1361   10.1224  -13.9137 H   0  0  0  0  0  0  0  0  0  0  0  0
   -6.7956   12.2399  -14.0855 H   0  0  0  0  0  0  0  0  0  0  0  0
   -6.8712    9.4340  -11.9273 H   0  0  0  0  0  0  0  0  0  0  0  0
   -8.0279    9.5798   -7.2599 H   0  0  0  0  0  0  0  0  0  0  0  0
   -4.2429   16.0373  -13.8548 H   0  0  0  0  0  0  0  0  0  0  0  0
   -4.9638   16.2086  -12.2185 H   0  0  0  0  0  0  0  0  0  0  0  0
   -3.4785   15.2246  -12.4471 H   0  0  0  0  0  0  0  0  0  0  0  0
   -5.9851   10.0423   -6.7273 H   0  0  0  0  0  0  0  0  0  0  0  0
   -6.7526   12.3233   -6.9261 H   0  0  0  0  0  0  0  0  0  0  0  0
   -4.5246   13.2972   -6.4815 H   0  0  0  0  0  0  0  0  0  0  0  0
   -3.4585   11.1486   -6.2240 H   0  0  0  0  0  0  0  0  0  0  0  0
   -2.6730    9.7536   -8.0506 H   0  0  0  0  0  0  0  0  0  0  0  0
   -4.8993    8.7846   -8.4743 H   0  0  0  0  0  0  0  0  0  0  0  0
   -2.4278   14.2202   -6.2127 H   0  0  0  0  0  0  0  0  0  0  0  0
   -0.6614   10.5729   -7.5868 H   0  0  0  0  0  0  0  0  0  0  0  0
    1.4672   14.2904   -6.0634 H   0  0  0  0  0  0  0  0  0  0  0  0
    0.2117   15.4427   -6.6311 H   0  0  0  0  0  0  0  0  0  0  0  0
    0.1649   14.8218   -4.9462 H   0  0  0  0  0  0  0  0  0  0  0  0
  1  2  1  0  0  0  0
  1  4  1  0  0  0  0
  1 13  2  0  0  0  0
  2  6  2  0  0  0  0
  3  4  2  0  0  0  0
  3  5  1  0  0  0  0
  5  6  1  0  0  0  0
  5  9  1  0  0  0  0
  6  7  1  0  0  0  0
  7  8  1  0  0  0  0
  7 10  2  3  0  0  0
  8  9  2  0  0  0  0
 10 14  1  0  0  0  0
 11 12  1  0  0  0  0
 11 13  1  0  0  0  0
 11 26  2  0  0  0  0
 14 15  1  0  0  0  0
 14 19  1  0  0  0  0
 15 16  2  0  0  0  0
 16 17  1  0  0  0  0
 17 18  1  0  0  0  0
 17 20  1  0  0  0  0
 18 19  2  0  0  0  0
 20 21  2  0  0  0  0
 20 24  1  0  0  0  0
 21 22  1  0  0  0  0
 22 23  1  0  0  0  0
 22 25  1  0  0  0  0
 23 24  2  0  0  0  0
  2 27  1  0  0  0  0
  3 28  1  0  0  0  0
  4 29  1  0  0  0  0
  5 30  1  0  0  0  0
 10 31  1  0  0  0  0
 12 32  1  0  0  0  0
 12 33  1  0  0  0  0
 12 34  1  0  0  0  0
 14 35  1  0  0  0  0
 15 36  1  0  0  0  0
 16 37  1  0  0  0  0
 17 38  1  0  0  0  0
 18 39  1  0  0  0  0
 19 40  1  0  0  0  0
 21 41  1  0  0  0  0
 24 42  1  0  0  0  0
 25 43  1  0  0  0  0
 25 44  1  0  0  0  0
 25 45  1  0  0  0  0
M  END
> <Name>
24

> <IC50[uM]>
0.029

$$$$
24
  -OEChem-05192314333D
 Structure written by MMmdl.
 45 48  0     1  0  0  0  0  0999 V2000
   -6.3515   12.3530  -11.9813 C   0  0  0  0  0  0  0  0  0  0  0  0
   -6.5085   11.7912  -10.7247 C   0  0  0  0  0  0  0  0  0  0  0  0
   -7.6802   10.5716  -13.0438 C   0  0  0  0  0  0  0  0  0  0  0  0
   -6.9296   11.7657  -13.1245 C   0  0  0  0  0  0  0  0  0  0  0  0
   -7.7980   10.0044  -11.7669 C   0  0  3  0  0  0  0  0  0  0  0  0
   -7.2328   10.6109  -10.5989 C   0  0  0  0  0  0  0  0  0  0  0  0
   -7.6209    9.7375   -9.5162 C   0  0  3  0  0  0  0  0  0  0  0  0
   -8.2754    8.7446   -9.9970 N   0  0  0  0  0  0  0  0  0  0  0  0
   -8.4233    8.8800  -11.3218 N   0  0  0  0  0  0  0  0  0  0  0  0
   -7.3328    9.8812   -8.0296 C   0  0  0  0  0  0  0  0  0  0  0  0
   -5.3004   14.2773  -13.1499 C   0  0  0  0  0  0  0  0  0  0  0  0
   -4.4346   15.5261  -12.8998 C   0  0  0  0  0  0  0  0  0  0  0  0
   -5.5896   13.5586  -12.0343 N   0  0  0  0  0  0  0  0  0  0  0  0
   -5.9706   10.4906   -7.7317 C   0  0  0  0  0  0  0  0  0  0  0  0
   -5.8616   11.7632   -7.1684 C   0  0  0  0  0  0  0  0  0  0  0  0
   -4.6051   12.3126   -6.9180 C   0  0  0  0  0  0  0  0  0  0  0  0
   -3.4544   11.5948   -7.2294 C   0  0  0  0  0  0  0  0  0  0  0  0
   -3.5626   10.3128   -7.8011 C   0  0  0  0  0  0  0  0  0  0  0  0
   -4.8160    9.7710   -8.0425 C   0  0  0  0  0  0  0  0  0  0  0  0
   -2.1083   12.1736   -6.9694 C   0  0  0  0  0  0  0  0  0  0  0  0
   -1.7503   13.4247   -6.4858 C   0  0  0  0  0  0  0  0  0  0  0  0
   -0.4131   13.4674   -6.4189 N   0  0  0  0  0  0  0  0  0  0  0  0
    0.1758   12.3735   -6.8057 N   0  0  0  0  0  0  0  0  0  0  0  0
   -0.8094   11.5620   -7.1791 C   0  0  0  0  0  0  0  0  0  0  0  0
    0.4060   14.5705   -5.9896 C   0  0  0  0  0  0  0  0  0  0  0  0
   -5.6528   14.0066  -14.2746 O   0  0  0  0  0  0  0  0  0  0  0  0
   -6.0747   12.2631   -9.8555 H   0  0  0  0  0  0  0  0  0  0  0  0
   -8.1361   10.1224  -13.9137 H   0  0  0  0  0  0  0  0  0  0  0  0
   -6.7956   12.2399  -14.0855 H   0  0  0  0  0  0  0  0  0  0  0  0
   -6.8712    9.4340  -11.9273 H   0  0  0  0  0  0  0  0  0  0  0  0
   -8.5577   10.3007   -9.3927 H   0  0  0  0  0  0  0  0  0  0  0  0
   -8.0279    9.5798   -7.2599 H   0  0  0  0  0  0  0  0  0  0  0  0
   -4.2429   16.0373  -13.8548 H   0  0  0  0  0  0  0  0  0  0  0  0
   -4.9638   16.2086  -12.2185 H   0  0  0  0  0  0  0  0  0  0  0  0
   -3.4785   15.2246  -12.4471 H   0  0  0  0  0  0  0  0  0  0  0  0
   -6.7526   12.3233   -6.9261 H   0  0  0  0  0  0  0  0  0  0  0  0
   -4.5246   13.2972   -6.4815 H   0  0  0  0  0  0  0  0  0  0  0  0
   -3.4585   11.1486   -6.2240 H   0  0  0  0  0  0  0  0  0  0  0  0
   -2.6730    9.7536   -8.0506 H   0  0  0  0  0  0  0  0  0  0  0  0
   -4.8993    8.7846   -8.4743 H   0  0  0  0  0  0  0  0  0  0  0  0
   -2.4278   14.2202   -6.2127 H   0  0  0  0  0  0  0  0  0  0  0  0
   -0.6614   10.5729   -7.5868 H   0  0  0  0  0  0  0  0  0  0  0  0
    1.4672   14.2904   -6.0634 H   0  0  0  0  0  0  0  0  0  0  0  0
    0.2117   15.4427   -6.6311 H   0  0  0  0  0  0  0  0  0  0  0  0
    0.1649   14.8218   -4.9462 H   0  0  0  0  0  0  0  0  0  0  0  0
  1  2  1  0  0  0  0
  1  4  1  0  0  0  0
  1 13  2  0  0  0  0
  2  6  2  0  0  0  0
  3  4  2  0  0  0  0
  3  5  1  0  0  0  0
  5  6  1  0  0  0  0
  5  9  1  0  0  0  0
  6  7  1  0  0  0  0
  7  8  1  0  0  0  0
  7 10  1  0  0  0  0
  8  9  2  0  0  0  0
 10 14  2  0  0  0  0
 11 12  1  0  0  0  0
 11 13  1  0  0  0  0
 11 26  2  0  0  0  0
 14 15  1  0  0  0  0
 14 19  1  0  0  0  0
 15 16  2  0  0  0  0
 16 17  1  0  0  0  0
 17 18  1  0  0  0  0
 17 20  1  0  0  0  0
 18 19  2  0  0  0  0
 20 21  2  0  0  0  0
 20 24  1  0  0  0  0
 21 22  1  0  0  0  0
 22 23  1  0  0  0  0
 22 25  1  0  0  0  0
 23 24  2  0  0  0  0
  2 27  1  0  0  0  0
  3 28  1  0  0  0  0
  4 29  1  0  0  0  0
  5 30  1  0  0  0  0
  7 31  1  0  0  0  0
 10 32  1  0  0  0  0
 12 33  1  0  0  0  0
 12 34  1  0  0  0  0
 12 35  1  0  0  0  0
 15 36  1  0  0  0  0
 16 37  1  0  0  0  0
 17 38  1  0  0  0  0
 18 39  1  0  0  0  0
 19 40  1  0  0  0  0
 21 41  1  0  0  0  0
 24 42  1  0  0  0  0
 25 43  1  0  0  0  0
 25 44  1  0  0  0  0
 25 45  1  0  0  0  0
M  END
> <Name>
24

> <IC50[uM]>
0.029

$$$$
24
  -OEChem-05192314333D
 Structure written by MMmdl.
 45 48  0     0  0  0  0  0  0999 V2000
   -6.3515   12.3530  -11.9813 C   0  0  0  0  0  0  0  0  0  0  0  0
   -6.5085   11.7912  -10.7247 C   0  0  0  0  0  0  0  0  0  0  0  0
   -7.6802   10.5716  -13.0438 C   0  0  0  0  0  0  0  0  0  0  0  0
   -6.9296   11.7657  -13.1245 C   0  0  0  0  0  0  0  0  0  0  0  0
   -7.7980   10.0044  -11.7669 C   0  0  0  0  0  0  0  0  0  0  0  0
   -7.2328   10.6109  -10.5989 C   0  0  0  0  0  0  0  0  0  0  0  0
   -7.6209    9.7375   -9.5162 C   0  0  0  0  0  0  0  0  0  0  0  0
   -8.2754    8.7446   -9.9970 N   0  0  0  0  0  0  0  0  0  0  0  0
   -8.4233    8.8800  -11.3218 N   0  0  0  0  0  0  0  0  0  0  0  0
   -7.3328    9.8812   -8.0296 C   0  0  0  0  0  0  0  0  0  0  0  0
   -5.3004   14.2773  -13.1499 C   0  0  0  0  0  0  0  0  0  0  0  0
   -4.4346   15.5261  -12.8998 C   0  0  0  0  0  0  0  0  0  0  0  0
   -5.5896   13.5586  -12.0343 N   0  0  0  0  0  0  0  0  0  0  0  0
   -5.9706   10.4906   -7.7317 C   0  0  0  0  0  0  0  0  0  0  0  0
   -5.8616   11.7632   -7.1684 C   0  0  0  0  0  0  0  0  0  0  0  0
   -4.6051   12.3126   -6.9180 C   0  0  0  0  0  0  0  0  0  0  0  0
   -3.4544   11.5948   -7.2294 C   0  0  0  0  0  0  0  0  0  0  0  0
   -3.5626   10.3128   -7.8011 C   0  0  0  0  0  0  0  0  0  0  0  0
   -4.8160    9.7710   -8.0425 C   0  0  0  0  0  0  0  0  0  0  0  0
   -2.1083   12.1736   -6.9694 C   0  0  0  0  0  0  0  0  0  0  0  0
   -1.7503   13.4247   -6.4858 C   0  0  0  0  0  0  0  0  0  0  0  0
   -0.4131   13.4674   -6.4189 N   0  0  0  0  0  0  0  0  0  0  0  0
    0.1758   12.3735   -6.8057 N   0  0  0  0  0  0  0  0  0  0  0  0
   -0.8094   11.5620   -7.1791 C   0  0  0  0  0  0  0  0  0  0  0  0
    0.4060   14.5705   -5.9896 C   0  0  0  0  0  0  0  0  0  0  0  0
   -5.6528   14.0066  -14.2746 O   0  0  0  0  0  0  0  0  0  0  0  0
   -6.0747   12.2631   -9.8555 H   0  0  0  0  0  0  0  0  0  0  0  0
   -8.6945   10.7862  -13.4115 H   0  0  0  0  0  0  0  0  0  0  0  0
   -7.2021    9.8287  -13.6992 H   0  0  0  0  0  0  0  0  0  0  0  0
   -6.7956   12.2399  -14.0855 H   0  0  0  0  0  0  0  0  0  0  0  0
   -8.0279    9.5798   -7.2599 H   0  0  0  0  0  0  0  0  0  0  0  0
   -4.2429   16.0373  -13.8548 H   0  0  0  0  0  0  0  0  0  0  0  0
   -4.9638   16.2086  -12.2185 H   0  0  0  0  0  0  0  0  0  0  0  0
   -3.4785   15.2246  -12.4471 H   0  0  0  0  0  0  0  0  0  0  0  0
   -5.2347   13.9076  -11.1670 H   0  0  0  0  0  0  0  0  0  0  0  0
   -6.7526   12.3233   -6.9261 H   0  0  0  0  0  0  0  0  0  0  0  0
   -4.5246   13.2972   -6.4815 H   0  0  0  0  0  0  0  0  0  0  0  0
   -3.4585   11.1486   -6.2240 H   0  0  0  0  0  0  0  0  0  0  0  0
   -2.6730    9.7536   -8.0506 H   0  0  0  0  0  0  0  0  0  0  0  0
   -4.8993    8.7846   -8.4743 H   0  0  0  0  0  0  0  0  0  0  0  0
   -2.4278   14.2202   -6.2127 H   0  0  0  0  0  0  0  0  0  0  0  0
   -0.6614   10.5729   -7.5868 H   0  0  0  0  0  0  0  0  0  0  0  0
    1.4672   14.2904   -6.0634 H   0  0  0  0  0  0  0  0  0  0  0  0
    0.2117   15.4427   -6.6311 H   0  0  0  0  0  0  0  0  0  0  0  0
    0.1649   14.8218   -4.9462 H   0  0  0  0  0  0  0  0  0  0  0  0
  1  2  1  0  0  0  0
  1  4  2  0  0  0  0
  1 13  1  0  0  0  0
  2  6  2  0  0  0  0
  3  4  1  0  0  0  0
  3  5  1  0  0  0  0
  5  6  1  0  0  0  0
  5  9  2  0  0  0  0
  6  7  1  0  0  0  0
  7  8  2  0  0  0  0
  7 10  1  0  0  0  0
  8  9  1  0  0  0  0
 10 14  2  0  0  0  0
 11 12  1  0  0  0  0
 11 13  1  0  0  0  0
 11 26  2  0  0  0  0
 14 15  1  0  0  0  0
 14 19  1  0  0  0  0
 15 16  2  0  0  0  0
 16 17  1  0  0  0  0
 17 18  1  0  0  0  0
 17 20  1  0  0  0  0
 18 19  2  0  0  0  0
 20 21  2  0  0  0  0
 20 24  1  0  0  0  0
 21 22  1  0  0  0  0
 22 23  1  0  0  0  0
 22 25  1  0  0  0  0
 23 24  2  0  0  0  0
  2 27  1  0  0  0  0
  3 28  1  0  0  0  0
  3 29  1  0  0  0  0
  4 30  1  0  0  0  0
 10 31  1  0  0  0  0
 12 32  1  0  0  0  0
 12 33  1  0  0  0  0
 12 34  1  0  0  0  0
 13 35  1  0  0  0  0
 15 36  1  0  0  0  0
 16 37  1  0  0  0  0
 17 38  1  0  0  0  0
 18 39  1  0  0  0  0
 19 40  1  0  0  0  0
 21 41  1  0  0  0  0
 24 42  1  0  0  0  0
 25 43  1  0  0  0  0
 25 44  1  0  0  0  0
 25 45  1  0  0  0  0
M  END
> <Name>
24

> <IC50[uM]>
0.029

$$$$
24
  -OEChem-05192314333D
 Structure written by MMmdl.
 45 48  0     0  0  0  0  0  0999 V2000
   -6.3515   12.3530  -11.9813 C   0  0  0  0  0  0  0  0  0  0  0  0
   -6.5085   11.7912  -10.7247 C   0  0  0  0  0  0  0  0  0  0  0  0
   -7.6802   10.5716  -13.0438 C   0  0  0  0  0  0  0  0  0  0  0  0
   -6.9296   11.7657  -13.1245 C   0  0  0  0  0  0  0  0  0  0  0  0
   -7.7980   10.0044  -11.7669 C   0  0  0  0  0  0  0  0  0  0  0  0
   -7.2328   10.6109  -10.5989 C   0  0  0  0  0  0  0  0  0  0  0  0
   -7.6209    9.7375   -9.5162 C   0  0  0  0  0  0  0  0  0  0  0  0
   -8.2754    8.7446   -9.9970 N   0  0  0  0  0  0  0  0  0  0  0  0
   -8.4233    8.8800  -11.3218 N   0  0  0  0  0  0  0  0  0  0  0  0
   -7.3328    9.8812   -8.0296 C   0  0  0  0  0  0  0  0  0  0  0  0
   -5.3004   14.2773  -13.1499 C   0  0  0  0  0  0  0  0  0  0  0  0
   -4.4346   15.5261  -12.8998 C   0  0  0  0  0  0  0  0  0  0  0  0
   -5.5896   13.5586  -12.0343 N   0  0  0  0  0  0  0  0  0  0  0  0
   -5.9706   10.4906   -7.7317 C   0  0  0  0  0  0  0  0  0  0  0  0
   -5.8616   11.7632   -7.1684 C   0  0  0  0  0  0  0  0  0  0  0  0
   -4.6051   12.3126   -6.9180 C   0  0  0  0  0  0  0  0  0  0  0  0
   -3.4544   11.5948   -7.2294 C   0  0  0  0  0  0  0  0  0  0  0  0
   -3.5626   10.3128   -7.8011 C   0  0  0  0  0  0  0  0  0  0  0  0
   -4.8160    9.7710   -8.0425 C   0  0  0  0  0  0  0  0  0  0  0  0
   -2.1083   12.1736   -6.9694 C   0  0  0  0  0  0  0  0  0  0  0  0
   -1.7503   13.4247   -6.4858 C   0  0  0  0  0  0  0  0  0  0  0  0
   -0.4131   13.4674   -6.4189 N   0  0  0  0  0  0  0  0  0  0  0  0
    0.1758   12.3735   -6.8057 N   0  0  0  0  0  0  0  0  0  0  0  0
   -0.8094   11.5620   -7.1791 C   0  0  0  0  0  0  0  0  0  0  0  0
    0.4060   14.5705   -5.9896 C   0  0  0  0  0  0  0  0  0  0  0  0
   -5.6528   14.0066  -14.2746 O   0  0  0  0  0  0  0  0  0  0  0  0
   -6.0747   12.2631   -9.8555 H   0  0  0  0  0  0  0  0  0  0  0  0
   -8.1361   10.1224  -13.9137 H   0  0  0  0  0  0  0  0  0  0  0  0
   -7.5989   12.5237  -13.5575 H   0  0  0  0  0  0  0  0  0  0  0  0
   -6.1027   11.5654  -13.8217 H   0  0  0  0  0  0  0  0  0  0  0  0
   -8.0279    9.5798   -7.2599 H   0  0  0  0  0  0  0  0  0  0  0  0
   -4.2429   16.0373  -13.8548 H   0  0  0  0  0  0  0  0  0  0  0  0
   -4.9638   16.2086  -12.2185 H   0  0  0  0  0  0  0  0  0  0  0  0
   -3.4785   15.2246  -12.4471 H   0  0  0  0  0  0  0  0  0  0  0  0
   -5.9851   10.0423   -6.7273 H   0  0  0  0  0  0  0  0  0  0  0  0
   -6.7526   12.3233   -6.9261 H   0  0  0  0  0  0  0  0  0  0  0  0
   -4.5246   13.2972   -6.4815 H   0  0  0  0  0  0  0  0  0  0  0  0
   -3.4585   11.1486   -6.2240 H   0  0  0  0  0  0  0  0  0  0  0  0
   -2.6730    9.7536   -8.0506 H   0  0  0  0  0  0  0  0  0  0  0  0
   -4.8993    8.7846   -8.4743 H   0  0  0  0  0  0  0  0  0  0  0  0
   -2.4278   14.2202   -6.2127 H   0  0  0  0  0  0  0  0  0  0  0  0
   -0.6614   10.5729   -7.5868 H   0  0  0  0  0  0  0  0  0  0  0  0
    1.4672   14.2904   -6.0634 H   0  0  0  0  0  0  0  0  0  0  0  0
    0.2117   15.4427   -6.6311 H   0  0  0  0  0  0  0  0  0  0  0  0
    0.1649   14.8218   -4.9462 H   0  0  0  0  0  0  0  0  0  0  0  0
  1  2  1  0  0  0  0
  1  4  1  0  0  0  0
  1 13  2  0  0  0  0
  2  6  2  0  0  0  0
  3  4  1  0  0  0  0
  3  5  2  0  0  0  0
  5  6  1  0  0  0  0
  5  9  1  0  0  0  0
  6  7  1  0  0  0  0
  7  8  1  0  0  0  0
  7 10  2  3  0  0  0
  8  9  2  0  0  0  0
 10 14  1  0  0  0  0
 11 12  1  0  0  0  0
 11 13  1  0  0  0  0
 11 26  2  0  0  0  0
 14 15  1  0  0  0  0
 14 19  1  0  0  0  0
 15 16  2  0  0  0  0
 16 17  1  0  0  0  0
 17 18  1  0  0  0  0
 17 20  1  0  0  0  0
 18 19  2  0  0  0  0
 20 21  2  0  0  0  0
 20 24  1  0  0  0  0
 21 22  1  0  0  0  0
 22 23  1  0  0  0  0
 22 25  1  0  0  0  0
 23 24  2  0  0  0  0
  2 27  1  0  0  0  0
  3 28  1  0  0  0  0
  4 29  1  0  0  0  0
  4 30  1  0  0  0  0
 10 31  1  0  0  0  0
 12 32  1  0  0  0  0
 12 33  1  0  0  0  0
 12 34  1  0  0  0  0
 14 35  1  0  0  0  0
 15 36  1  0  0  0  0
 16 37  1  0  0  0  0
 17 38  1  0  0  0  0
 18 39  1  0  0  0  0
 19 40  1  0  0  0  0
 21 41  1  0  0  0  0
 24 42  1  0  0  0  0
 25 43  1  0  0  0  0
 25 44  1  0  0  0  0
 25 45  1  0  0  0  0
M  END
> <Name>
24

> <IC50[uM]>
0.029

$$$$
24
  -OEChem-05192314333D
 Structure written by MMmdl.
 45 48  0     1  0  0  0  0  0999 V2000
   -6.3515   12.3530  -11.9813 C   0  0  0  0  0  0  0  0  0  0  0  0
   -6.5085   11.7912  -10.7247 C   0  0  0  0  0  0  0  0  0  0  0  0
   -7.6802   10.5716  -13.0438 C   0  0  0  0  0  0  0  0  0  0  0  0
   -6.9296   11.7657  -13.1245 C   0  0  0  0  0  0  0  0  0  0  0  0
   -7.7980   10.0044  -11.7669 C   0  0  0  0  0  0  0  0  0  0  0  0
   -7.2328   10.6109  -10.5989 C   0  0  0  0  0  0  0  0  0  0  0  0
   -7.6209    9.7375   -9.5162 C   0  0  3  0  0  0  0  0  0  0  0  0
   -8.2754    8.7446   -9.9970 N   0  0  0  0  0  0  0  0  0  0  0  0
   -8.4233    8.8800  -11.3218 N   0  0  0  0  0  0  0  0  0  0  0  0
   -7.3328    9.8812   -8.0296 C   0  0  0  0  0  0  0  0  0  0  0  0
   -5.3004   14.2773  -13.1499 C   0  0  0  0  0  0  0  0  0  0  0  0
   -4.4346   15.5261  -12.8998 C   0  0  0  0  0  0  0  0  0  0  0  0
   -5.5896   13.5586  -12.0343 N   0  0  0  0  0  0  0  0  0  0  0  0
   -5.9706   10.4906   -7.7317 C   0  0  0  0  0  0  0  0  0  0  0  0
   -5.8616   11.7632   -7.1684 C   0  0  0  0  0  0  0  0  0  0  0  0
   -4.6051   12.3126   -6.9180 C   0  0  0  0  0  0  0  0  0  0  0  0
   -3.4544   11.5948   -7.2294 C   0  0  0  0  0  0  0  0  0  0  0  0
   -3.5626   10.3128   -7.8011 C   0  0  0  0  0  0  0  0  0  0  0  0
   -4.8160    9.7710   -8.0425 C   0  0  0  0  0  0  0  0  0  0  0  0
   -2.1083   12.1736   -6.9694 C   0  0  0  0  0  0  0  0  0  0  0  0
   -1.7503   13.4247   -6.4858 C   0  0  0  0  0  0  0  0  0  0  0  0
   -0.4131   13.4674   -6.4189 N   0  0  0  0  0  0  0  0  0  0  0  0
    0.1758   12.3735   -6.8057 N   0  0  0  0  0  0  0  0  0  0  0  0
   -0.8094   11.5620   -7.1791 C   0  0  0  0  0  0  0  0  0  0  0  0
    0.4060   14.5705   -5.9896 C   0  0  0  0  0  0  0  0  0  0  0  0
   -5.6528   14.0066  -14.2746 O   0  0  0  0  0  0  0  0  0  0  0  0
   -6.0747   12.2631   -9.8555 H   0  0  0  0  0  0  0  0  0  0  0  0
   -8.1361   10.1224  -13.9137 H   0  0  0  0  0  0  0  0  0  0  0  0
   -7.5989   12.5237  -13.5575 H   0  0  0  0  0  0  0  0  0  0  0  0
   -6.1027   11.5654  -13.8217 H   0  0  0  0  0  0  0  0  0  0  0  0
   -8.5577   10.3007   -9.3927 H   0  0  0  0  0  0  0  0  0  0  0  0
   -8.0279    9.5798   -7.2599 H   0  0  0  0  0  0  0  0  0  0  0  0
   -4.2429   16.0373  -13.8548 H   0  0  0  0  0  0  0  0  0  0  0  0
   -4.9638   16.2086  -12.2185 H   0  0  0  0  0  0  0  0  0  0  0  0
   -3.4785   15.2246  -12.4471 H   0  0  0  0  0  0  0  0  0  0  0  0
   -6.7526   12.3233   -6.9261 H   0  0  0  0  0  0  0  0  0  0  0  0
   -4.5246   13.2972   -6.4815 H   0  0  0  0  0  0  0  0  0  0  0  0
   -3.4585   11.1486   -6.2240 H   0  0  0  0  0  0  0  0  0  0  0  0
   -2.6730    9.7536   -8.0506 H   0  0  0  0  0  0  0  0  0  0  0  0
   -4.8993    8.7846   -8.4743 H   0  0  0  0  0  0  0  0  0  0  0  0
   -2.4278   14.2202   -6.2127 H   0  0  0  0  0  0  0  0  0  0  0  0
   -0.6614   10.5729   -7.5868 H   0  0  0  0  0  0  0  0  0  0  0  0
    1.4672   14.2904   -6.0634 H   0  0  0  0  0  0  0  0  0  0  0  0
    0.2117   15.4427   -6.6311 H   0  0  0  0  0  0  0  0  0  0  0  0
    0.1649   14.8218   -4.9462 H   0  0  0  0  0  0  0  0  0  0  0  0
  1  2  1  0  0  0  0
  1  4  1  0  0  0  0
  1 13  2  0  0  0  0
  2  6  2  0  0  0  0
  3  4  1  0  0  0  0
  3  5  2  0  0  0  0
  5  6  1  0  0  0  0
  5  9  1  0  0  0  0
  6  7  1  0  0  0  0
  7  8  1  0  0  0  0
  7 10  1  0  0  0  0
  8  9  2  0  0  0  0
 10 14  2  0  0  0  0
 11 12  1  0  0  0  0
 11 13  1  0  0  0  0
 11 26  2  0  0  0  0
 14 15  1  0  0  0  0
 14 19  1  0  0  0  0
 15 16  2  0  0  0  0
 16 17  1  0  0  0  0
 17 18  1  0  0  0  0
 17 20  1  0  0  0  0
 18 19  2  0  0  0  0
 20 21  2  0  0  0  0
 20 24  1  0  0  0  0
 21 22  1  0  0  0  0
 22 23  1  0  0  0  0
 22 25  1  0  0  0  0
 23 24  2  0  0  0  0
  2 27  1  0  0  0  0
  3 28  1  0  0  0  0
  4 29  1  0  0  0  0
  4 30  1  0  0  0  0
  7 31  1  0  0  0  0
 10 32  1  0  0  0  0
 12 33  1  0  0  0  0
 12 34  1  0  0  0  0
 12 35  1  0  0  0  0
 15 36  1  0  0  0  0
 16 37  1  0  0  0  0
 17 38  1  0  0  0  0
 18 39  1  0  0  0  0
 19 40  1  0  0  0  0
 21 41  1  0  0  0  0
 24 42  1  0  0  0  0
 25 43  1  0  0  0  0
 25 44  1  0  0  0  0
 25 45  1  0  0  0  0
M  END
> <Name>
24

> <IC50[uM]>
0.029

$$$$
24
  -OEChem-05192314333D
 Structure written by MMmdl.
 45 48  0     1  0  0  0  0  0999 V2000
   -6.3515   12.3530  -11.9813 C   0  0  0  0  0  0  0  0  0  0  0  0
   -6.5085   11.7912  -10.7247 C   0  0  0  0  0  0  0  0  0  0  0  0
   -7.6802   10.5716  -13.0438 C   0  0  0  0  0  0  0  0  0  0  0  0
   -6.9296   11.7657  -13.1245 C   0  0  0  0  0  0  0  0  0  0  0  0
   -7.7980   10.0044  -11.7669 C   0  0  3  0  0  0  0  0  0  0  0  0
   -7.2328   10.6109  -10.5989 C   0  0  0  0  0  0  0  0  0  0  0  0
   -7.6209    9.7375   -9.5162 C   0  0  0  0  0  0  0  0  0  0  0  0
   -8.2754    8.7446   -9.9970 N   0  0  0  0  0  0  0  0  0  0  0  0
   -8.4233    8.8800  -11.3218 N   0  0  0  0  0  0  0  0  0  0  0  0
   -7.3328    9.8812   -8.0296 C   0  0  0  0  0  0  0  0  0  0  0  0
   -5.3004   14.2773  -13.1499 C   0  0  0  0  0  0  0  0  0  0  0  0
   -4.4346   15.5261  -12.8998 C   0  0  0  0  0  0  0  0  0  0  0  0
   -5.5896   13.5586  -12.0343 N   0  0  0  0  0  0  0  0  0  0  0  0
   -5.9706   10.4906   -7.7317 C   0  0  0  0  0  0  0  0  0  0  0  0
   -5.8616   11.7632   -7.1684 C   0  0  0  0  0  0  0  0  0  0  0  0
   -4.6051   12.3126   -6.9180 C   0  0  0  0  0  0  0  0  0  0  0  0
   -3.4544   11.5948   -7.2294 C   0  0  3  0  0  0  0  0  0  0  0  0
   -3.5626   10.3128   -7.8011 C   0  0  0  0  0  0  0  0  0  0  0  0
   -4.8160    9.7710   -8.0425 C   0  0  0  0  0  0  0  0  0  0  0  0
   -2.1083   12.1736   -6.9694 C   0  0  0  0  0  0  0  0  0  0  0  0
   -1.7503   13.4247   -6.4858 C   0  0  0  0  0  0  0  0  0  0  0  0
   -0.4131   13.4674   -6.4189 N   0  0  0  0  0  0  0  0  0  0  0  0
    0.1758   12.3735   -6.8057 N   0  0  0  0  0  0  0  0  0  0  0  0
   -0.8094   11.5620   -7.1791 C   0  0  0  0  0  0  0  0  0  0  0  0
    0.4060   14.5705   -5.9896 C   0  0  0  0  0  0  0  0  0  0  0  0
   -5.6528   14.0066  -14.2746 O   0  0  0  0  0  0  0  0  0  0  0  0
   -6.0747   12.2631   -9.8555 H   0  0  0  0  0  0  0  0  0  0  0  0
   -8.1361   10.1224  -13.9137 H   0  0  0  0  0  0  0  0  0  0  0  0
   -6.7956   12.2399  -14.0855 H   0  0  0  0  0  0  0  0  0  0  0  0
   -6.8712    9.4340  -11.9273 H   0  0  0  0  0  0  0  0  0  0  0  0
   -8.0279    9.5798   -7.2599 H   0  0  0  0  0  0  0  0  0  0  0  0
   -4.2429   16.0373  -13.8548 H   0  0  0  0  0  0  0  0  0  0  0  0
   -4.9638   16.2086  -12.2185 H   0  0  0  0  0  0  0  0  0  0  0  0
   -3.4785   15.2246  -12.4471 H   0  0  0  0  0  0  0  0  0  0  0  0
   -6.7526   12.3233   -6.9261 H   0  0  0  0  0  0  0  0  0  0  0  0
   -4.5531   13.2553   -7.4825 H   0  0  0  0  0  0  0  0  0  0  0  0
   -4.5624   12.5279   -5.8401 H   0  0  0  0  0  0  0  0  0  0  0  0
   -3.4585   11.1486   -6.2240 H   0  0  0  0  0  0  0  0  0  0  0  0
   -2.6730    9.7536   -8.0506 H   0  0  0  0  0  0  0  0  0  0  0  0
   -4.8993    8.7846   -8.4743 H   0  0  0  0  0  0  0  0  0  0  0  0
   -2.4278   14.2202   -6.2127 H   0  0  0  0  0  0  0  0  0  0  0  0
   -0.6614   10.5729   -7.5868 H   0  0  0  0  0  0  0  0  0  0  0  0
    1.4672   14.2904   -6.0634 H   0  0  0  0  0  0  0  0  0  0  0  0
    0.2117   15.4427   -6.6311 H   0  0  0  0  0  0  0  0  0  0  0  0
    0.1649   14.8218   -4.9462 H   0  0  0  0  0  0  0  0  0  0  0  0
  1  2  1  0  0  0  0
  1  4  1  0  0  0  0
  1 13  2  0  0  0  0
  2  6  2  0  0  0  0
  3  4  2  0  0  0  0
  3  5  1  0  0  0  0
  5  6  1  0  0  0  0
  5  9  1  0  0  0  0
  6  7  1  0  0  0  0
  7  8  1  0  0  0  0
  7 10  2  3  0  0  0
  8  9  2  0  0  0  0
 10 14  1  0  0  0  0
 11 12  1  0  0  0  0
 11 13  1  0  0  0  0
 11 26  2  0  0  0  0
 14 15  2  0  0  0  0
 14 19  1  0  0  0  0
 15 16  1  0  0  0  0
 16 17  1  0  0  0  0
 17 18  1  0  0  0  0
 17 20  1  0  0  0  0
 18 19  2  0  0  0  0
 20 21  2  0  0  0  0
 20 24  1  0  0  0  0
 21 22  1  0  0  0  0
 22 23  1  0  0  0  0
 22 25  1  0  0  0  0
 23 24  2  0  0  0  0
  2 27  1  0  0  0  0
  3 28  1  0  0  0  0
  4 29  1  0  0  0  0
  5 30  1  0  0  0  0
 10 31  1  0  0  0  0
 12 32  1  0  0  0  0
 12 33  1  0  0  0  0
 12 34  1  0  0  0  0
 15 35  1  0  0  0  0
 16 36  1  0  0  0  0
 16 37  1  0  0  0  0
 17 38  1  0  0  0  0
 18 39  1  0  0  0  0
 19 40  1  0  0  0  0
 21 41  1  0  0  0  0
 24 42  1  0  0  0  0
 25 43  1  0  0  0  0
 25 44  1  0  0  0  0
 25 45  1  0  0  0  0
M  END
> <Name>
24

> <IC50[uM]>
0.029

$$$$
24
  -OEChem-05192314333D
 Structure written by MMmdl.
 45 48  0     1  0  0  0  0  0999 V2000
   -6.3515   12.3530  -11.9813 C   0  0  0  0  0  0  0  0  0  0  0  0
   -6.5085   11.7912  -10.7247 C   0  0  0  0  0  0  0  0  0  0  0  0
   -7.6802   10.5716  -13.0438 C   0  0  0  0  0  0  0  0  0  0  0  0
   -6.9296   11.7657  -13.1245 C   0  0  0  0  0  0  0  0  0  0  0  0
   -7.7980   10.0044  -11.7669 C   0  0  0  0  0  0  0  0  0  0  0  0
   -7.2328   10.6109  -10.5989 C   0  0  0  0  0  0  0  0  0  0  0  0
   -7.6209    9.7375   -9.5162 C   0  0  0  0  0  0  0  0  0  0  0  0
   -8.2754    8.7446   -9.9970 N   0  0  0  0  0  0  0  0  0  0  0  0
   -8.4233    8.8800  -11.3218 N   0  0  0  0  0  0  0  0  0  0  0  0
   -7.3328    9.8812   -8.0296 C   0  0  0  0  0  0  0  0  0  0  0  0
   -5.3004   14.2773  -13.1499 C   0  0  0  0  0  0  0  0  0  0  0  0
   -4.4346   15.5261  -12.8998 C   0  0  0  0  0  0  0  0  0  0  0  0
   -5.5896   13.5586  -12.0343 N   0  0  0  0  0  0  0  0  0  0  0  0
   -5.9706   10.4906   -7.7317 C   0  0  0  0  0  0  0  0  0  0  0  0
   -5.8616   11.7632   -7.1684 C   0  0  0  0  0  0  0  0  0  0  0  0
   -4.6051   12.3126   -6.9180 C   0  0  0  0  0  0  0  0  0  0  0  0
   -3.4544   11.5948   -7.2294 C   0  0  3  0  0  0  0  0  0  0  0  0
   -3.5626   10.3128   -7.8011 C   0  0  0  0  0  0  0  0  0  0  0  0
   -4.8160    9.7710   -8.0425 C   0  0  0  0  0  0  0  0  0  0  0  0
   -2.1083   12.1736   -6.9694 C   0  0  0  0  0  0  0  0  0  0  0  0
   -1.7503   13.4247   -6.4858 C   0  0  0  0  0  0  0  0  0  0  0  0
   -0.4131   13.4674   -6.4189 N   0  0  0  0  0  0  0  0  0  0  0  0
    0.1758   12.3735   -6.8057 N   0  0  0  0  0  0  0  0  0  0  0  0
   -0.8094   11.5620   -7.1791 C   0  0  0  0  0  0  0  0  0  0  0  0
    0.4060   14.5705   -5.9896 C   0  0  0  0  0  0  0  0  0  0  0  0
   -5.6528   14.0066  -14.2746 O   0  0  0  0  0  0  0  0  0  0  0  0
   -6.0747   12.2631   -9.8555 H   0  0  0  0  0  0  0  0  0  0  0  0
   -8.1361   10.1224  -13.9137 H   0  0  0  0  0  0  0  0  0  0  0  0
   -7.5989   12.5237  -13.5575 H   0  0  0  0  0  0  0  0  0  0  0  0
   -6.1027   11.5654  -13.8217 H   0  0  0  0  0  0  0  0  0  0  0  0
   -8.0279    9.5798   -7.2599 H   0  0  0  0  0  0  0  0  0  0  0  0
   -4.2429   16.0373  -13.8548 H   0  0  0  0  0  0  0  0  0  0  0  0
   -4.9638   16.2086  -12.2185 H   0  0  0  0  0  0  0  0  0  0  0  0
   -3.4785   15.2246  -12.4471 H   0  0  0  0  0  0  0  0  0  0  0  0
   -6.7526   12.3233   -6.9261 H   0  0  0  0  0  0  0  0  0  0  0  0
   -4.5531   13.2553   -7.4825 H   0  0  0  0  0  0  0  0  0  0  0  0
   -4.5624   12.5279   -5.8401 H   0  0  0  0  0  0  0  0  0  0  0  0
   -3.4585   11.1486   -6.2240 H   0  0  0  0  0  0  0  0  0  0  0  0
   -2.6730    9.7536   -8.0506 H   0  0  0  0  0  0  0  0  0  0  0  0
   -4.8993    8.7846   -8.4743 H   0  0  0  0  0  0  0  0  0  0  0  0
   -2.4278   14.2202   -6.2127 H   0  0  0  0  0  0  0  0  0  0  0  0
   -0.6614   10.5729   -7.5868 H   0  0  0  0  0  0  0  0  0  0  0  0
    1.4672   14.2904   -6.0634 H   0  0  0  0  0  0  0  0  0  0  0  0
    0.2117   15.4427   -6.6311 H   0  0  0  0  0  0  0  0  0  0  0  0
    0.1649   14.8218   -4.9462 H   0  0  0  0  0  0  0  0  0  0  0  0
  1  2  1  0  0  0  0
  1  4  1  0  0  0  0
  1 13  2  0  0  0  0
  2  6  2  0  0  0  0
  3  4  1  0  0  0  0
  3  5  2  0  0  0  0
  5  6  1  0  0  0  0
  5  9  1  0  0  0  0
  6  7  1  0  0  0  0
  7  8  1  0  0  0  0
  7 10  2  3  0  0  0
  8  9  2  0  0  0  0
 10 14  1  0  0  0  0
 11 12  1  0  0  0  0
 11 13  1  0  0  0  0
 11 26  2  0  0  0  0
 14 15  2  0  0  0  0
 14 19  1  0  0  0  0
 15 16  1  0  0  0  0
 16 17  1  0  0  0  0
 17 18  1  0  0  0  0
 17 20  1  0  0  0  0
 18 19  2  0  0  0  0
 20 21  2  0  0  0  0
 20 24  1  0  0  0  0
 21 22  1  0  0  0  0
 22 23  1  0  0  0  0
 22 25  1  0  0  0  0
 23 24  2  0  0  0  0
  2 27  1  0  0  0  0
  3 28  1  0  0  0  0
  4 29  1  0  0  0  0
  4 30  1  0  0  0  0
 10 31  1  0  0  0  0
 12 32  1  0  0  0  0
 12 33  1  0  0  0  0
 12 34  1  0  0  0  0
 15 35  1  0  0  0  0
 16 36  1  0  0  0  0
 16 37  1  0  0  0  0
 17 38  1  0  0  0  0
 18 39  1  0  0  0  0
 19 40  1  0  0  0  0
 21 41  1  0  0  0  0
 24 42  1  0  0  0  0
 25 43  1  0  0  0  0
 25 44  1  0  0  0  0
 25 45  1  0  0  0  0
M  END
> <Name>
24

> <IC50[uM]>
0.029

$$$$
24
  -OEChem-05192314333D
 Structure written by MMmdl.
 45 48  0     1  0  0  0  0  0999 V2000
   -6.3515   12.3530  -11.9813 C   0  0  0  0  0  0  0  0  0  0  0  0
   -6.5085   11.7912  -10.7247 C   0  0  0  0  0  0  0  0  0  0  0  0
   -7.6802   10.5716  -13.0438 C   0  0  0  0  0  0  0  0  0  0  0  0
   -6.9296   11.7657  -13.1245 C   0  0  0  0  0  0  0  0  0  0  0  0
   -7.7980   10.0044  -11.7669 C   0  0  0  0  0  0  0  0  0  0  0  0
   -7.2328   10.6109  -10.5989 C   0  0  3  0  0  0  0  0  0  0  0  0
   -7.6209    9.7375   -9.5162 C   0  0  0  0  0  0  0  0  0  0  0  0
   -8.2754    8.7446   -9.9970 N   0  0  0  0  0  0  0  0  0  0  0  0
   -8.4233    8.8800  -11.3218 N   0  0  0  0  0  0  0  0  0  0  0  0
   -7.3328    9.8812   -8.0296 C   0  0  0  0  0  0  0  0  0  0  0  0
   -5.3004   14.2773  -13.1499 C   0  0  0  0  0  0  0  0  0  0  0  0
   -4.4346   15.5261  -12.8998 C   0  0  0  0  0  0  0  0  0  0  0  0
   -5.5896   13.5586  -12.0343 N   0  0  0  0  0  0  0  0  0  0  0  0
   -5.9706   10.4906   -7.7317 C   0  0  0  0  0  0  0  0  0  0  0  0
   -5.8616   11.7632   -7.1684 C   0  0  0  0  0  0  0  0  0  0  0  0
   -4.6051   12.3126   -6.9180 C   0  0  0  0  0  0  0  0  0  0  0  0
   -3.4544   11.5948   -7.2294 C   0  0  0  0  0  0  0  0  0  0  0  0
   -3.5626   10.3128   -7.8011 C   0  0  0  0  0  0  0  0  0  0  0  0
   -4.8160    9.7710   -8.0425 C   0  0  0  0  0  0  0  0  0  0  0  0
   -2.1083   12.1736   -6.9694 C   0  0  0  0  0  0  0  0  0  0  0  0
   -1.7503   13.4247   -6.4858 C   0  0  0  0  0  0  0  0  0  0  0  0
   -0.4131   13.4674   -6.4189 N   0  0  0  0  0  0  0  0  0  0  0  0
    0.1758   12.3735   -6.8057 N   0  0  0  0  0  0  0  0  0  0  0  0
   -0.8094   11.5620   -7.1791 C   0  0  0  0  0  0  0  0  0  0  0  0
    0.4060   14.5705   -5.9896 C   0  0  0  0  0  0  0  0  0  0  0  0
   -5.6528   14.0066  -14.2746 O   0  0  0  0  0  0  0  0  0  0  0  0
   -6.0747   12.2631   -9.8555 H   0  0  0  0  0  0  0  0  0  0  0  0
   -8.1361   10.1224  -13.9137 H   0  0  0  0  0  0  0  0  0  0  0  0
   -6.7956   12.2399  -14.0855 H   0  0  0  0  0  0  0  0  0  0  0  0
   -6.3107   10.0281  -10.7406 H   0  0  0  0  0  0  0  0  0  0  0  0
   -8.0279    9.5798   -7.2599 H   0  0  0  0  0  0  0  0  0  0  0  0
   -4.2429   16.0373  -13.8548 H   0  0  0  0  0  0  0  0  0  0  0  0
   -4.9638   16.2086  -12.2185 H   0  0  0  0  0  0  0  0  0  0  0  0
   -3.4785   15.2246  -12.4471 H   0  0  0  0  0  0  0  0  0  0  0  0
   -5.2347   13.9076  -11.1670 H   0  0  0  0  0  0  0  0  0  0  0  0
   -6.7526   12.3233   -6.9261 H   0  0  0  0  0  0  0  0  0  0  0  0
   -4.5246   13.2972   -6.4815 H   0  0  0  0  0  0  0  0  0  0  0  0
   -2.6730    9.7536   -8.0506 H   0  0  0  0  0  0  0  0  0  0  0  0
   -4.8679    8.8310   -7.4736 H   0  0  0  0  0  0  0  0  0  0  0  0
   -4.8621    9.5509   -9.1193 H   0  0  0  0  0  0  0  0  0  0  0  0
   -2.4278   14.2202   -6.2127 H   0  0  0  0  0  0  0  0  0  0  0  0
   -0.6614   10.5729   -7.5868 H   0  0  0  0  0  0  0  0  0  0  0  0
    1.4672   14.2904   -6.0634 H   0  0  0  0  0  0  0  0  0  0  0  0
    0.2117   15.4427   -6.6311 H   0  0  0  0  0  0  0  0  0  0  0  0
    0.1649   14.8218   -4.9462 H   0  0  0  0  0  0  0  0  0  0  0  0
  1  2  2  0  0  0  0
  1  4  1  0  0  0  0
  1 13  1  0  0  0  0
  2  6  1  0  0  0  0
  3  4  2  0  0  0  0
  3  5  1  0  0  0  0
  5  6  1  0  0  0  0
  5  9  2  0  0  0  0
  6  7  1  0  0  0  0
  7  8  2  0  0  0  0
  7 10  1  0  0  0  0
  8  9  1  0  0  0  0
 10 14  2  3  0  0  0
 11 12  1  0  0  0  0
 11 13  1  0  0  0  0
 11 26  2  0  0  0  0
 14 15  1  0  0  0  0
 14 19  1  0  0  0  0
 15 16  2  0  0  0  0
 16 17  1  0  0  0  0
 17 18  2  0  0  0  0
 17 20  1  0  0  0  0
 18 19  1  0  0  0  0
 20 21  2  0  0  0  0
 20 24  1  0  0  0  0
 21 22  1  0  0  0  0
 22 23  1  0  0  0  0
 22 25  1  0  0  0  0
 23 24  2  0  0  0  0
  2 27  1  0  0  0  0
  3 28  1  0  0  0  0
  4 29  1  0  0  0  0
  6 30  1  0  0  0  0
 10 31  1  0  0  0  0
 12 32  1  0  0  0  0
 12 33  1  0  0  0  0
 12 34  1  0  0  0  0
 13 35  1  0  0  0  0
 15 36  1  0  0  0  0
 16 37  1  0  0  0  0
 18 38  1  0  0  0  0
 19 39  1  0  0  0  0
 19 40  1  0  0  0  0
 21 41  1  0  0  0  0
 24 42  1  0  0  0  0
 25 43  1  0  0  0  0
 25 44  1  0  0  0  0
 25 45  1  0  0  0  0
M  END
> <Name>
24

> <IC50[uM]>
0.029

$$$$
24
  -OEChem-05192314333D
 Structure written by MMmdl.
 45 48  0     1  0  0  0  0  0999 V2000
   -6.3515   12.3530  -11.9813 C   0  0  3  0  0  0  0  0  0  0  0  0
   -6.5085   11.7912  -10.7247 C   0  0  0  0  0  0  0  0  0  0  0  0
   -7.6802   10.5716  -13.0438 C   0  0  0  0  0  0  0  0  0  0  0  0
   -6.9296   11.7657  -13.1245 C   0  0  0  0  0  0  0  0  0  0  0  0
   -7.7980   10.0044  -11.7669 C   0  0  0  0  0  0  0  0  0  0  0  0
   -7.2328   10.6109  -10.5989 C   0  0  0  0  0  0  0  0  0  0  0  0
   -7.6209    9.7375   -9.5162 C   0  0  0  0  0  0  0  0  0  0  0  0
   -8.2754    8.7446   -9.9970 N   0  0  0  0  0  0  0  0  0  0  0  0
   -8.4233    8.8800  -11.3218 N   0  0  0  0  0  0  0  0  0  0  0  0
   -7.3328    9.8812   -8.0296 C   0  0  0  0  0  0  0  0  0  0  0  0
   -5.3004   14.2773  -13.1499 C   0  0  0  0  0  0  0  0  0  0  0  0
   -4.4346   15.5261  -12.8998 C   0  0  0  0  0  0  0  0  0  0  0  0
   -5.5896   13.5586  -12.0343 N   0  0  0  0  0  0  0  0  0  0  0  0
   -5.9706   10.4906   -7.7317 C   0  0  0  0  0  0  0  0  0  0  0  0
   -5.8616   11.7632   -7.1684 C   0  0  0  0  0  0  0  0  0  0  0  0
   -4.6051   12.3126   -6.9180 C   0  0  0  0  0  0  0  0  0  0  0  0
   -3.4544   11.5948   -7.2294 C   0  0  0  0  0  0  0  0  0  0  0  0
   -3.5626   10.3128   -7.8011 C   0  0  0  0  0  0  0  0  0  0  0  0
   -4.8160    9.7710   -8.0425 C   0  0  0  0  0  0  0  0  0  0  0  0
   -2.1083   12.1736   -6.9694 C   0  0  0  0  0  0  0  0  0  0  0  0
   -1.7503   13.4247   -6.4858 C   0  0  0  0  0  0  0  0  0  0  0  0
   -0.4131   13.4674   -6.4189 N   0  0  0  0  0  0  0  0  0  0  0  0
    0.1758   12.3735   -6.8057 N   0  0  0  0  0  0  0  0  0  0  0  0
   -0.8094   11.5620   -7.1791 C   0  0  0  0  0  0  0  0  0  0  0  0
    0.4060   14.5705   -5.9896 C   0  0  0  0  0  0  0  0  0  0  0  0
   -5.6528   14.0066  -14.2746 O   0  0  0  0  0  0  0  0  0  0  0  0
   -5.4362   11.7628  -12.1356 H   0  0  0  0  0  0  0  0  0  0  0  0
   -6.0747   12.2631   -9.8555 H   0  0  0  0  0  0  0  0  0  0  0  0
   -8.1361   10.1224  -13.9137 H   0  0  0  0  0  0  0  0  0  0  0  0
   -6.7956   12.2399  -14.0855 H   0  0  0  0  0  0  0  0  0  0  0  0
   -8.0279    9.5798   -7.2599 H   0  0  0  0  0  0  0  0  0  0  0  0
   -4.2429   16.0373  -13.8548 H   0  0  0  0  0  0  0  0  0  0  0  0
   -4.9638   16.2086  -12.2185 H   0  0  0  0  0  0  0  0  0  0  0  0
   -3.4785   15.2246  -12.4471 H   0  0  0  0  0  0  0  0  0  0  0  0
   -5.2347   13.9076  -11.1670 H   0  0  0  0  0  0  0  0  0  0  0  0
   -6.7526   12.3233   -6.9261 H   0  0  0  0  0  0  0  0  0  0  0  0
   -4.5246   13.2972   -6.4815 H   0  0  0  0  0  0  0  0  0  0  0  0
   -2.6730    9.7536   -8.0506 H   0  0  0  0  0  0  0  0  0  0  0  0
   -4.8679    8.8310   -7.4736 H   0  0  0  0  0  0  0  0  0  0  0  0
   -4.8621    9.5509   -9.1193 H   0  0  0  0  0  0  0  0  0  0  0  0
   -2.4278   14.2202   -6.2127 H   0  0  0  0  0  0  0  0  0  0  0  0
   -0.6614   10.5729   -7.5868 H   0  0  0  0  0  0  0  0  0  0  0  0
    1.4672   14.2904   -6.0634 H   0  0  0  0  0  0  0  0  0  0  0  0
    0.2117   15.4427   -6.6311 H   0  0  0  0  0  0  0  0  0  0  0  0
    0.1649   14.8218   -4.9462 H   0  0  0  0  0  0  0  0  0  0  0  0
  1  2  1  0  0  0  0
  1  4  1  0  0  0  0
  1 13  1  0  0  0  0
  2  6  2  0  0  0  0
  3  4  2  0  0  0  0
  3  5  1  0  0  0  0
  5  6  1  0  0  0  0
  5  9  2  0  0  0  0
  6  7  1  0  0  0  0
  7  8  2  0  0  0  0
  7 10  1  0  0  0  0
  8  9  1  0  0  0  0
 10 14  2  3  0  0  0
 11 12  1  0  0  0  0
 11 13  1  0  0  0  0
 11 26  2  0  0  0  0
 14 15  1  0  0  0  0
 14 19  1  0  0  0  0
 15 16  2  0  0  0  0
 16 17  1  0  0  0  0
 17 18  2  0  0  0  0
 17 20  1  0  0  0  0
 18 19  1  0  0  0  0
 20 21  2  0  0  0  0
 20 24  1  0  0  0  0
 21 22  1  0  0  0  0
 22 23  1  0  0  0  0
 22 25  1  0  0  0  0
 23 24  2  0  0  0  0
  1 27  1  0  0  0  0
  2 28  1  0  0  0  0
  3 29  1  0  0  0  0
  4 30  1  0  0  0  0
 10 31  1  0  0  0  0
 12 32  1  0  0  0  0
 12 33  1  0  0  0  0
 12 34  1  0  0  0  0
 13 35  1  0  0  0  0
 15 36  1  0  0  0  0
 16 37  1  0  0  0  0
 18 38  1  0  0  0  0
 19 39  1  0  0  0  0
 19 40  1  0  0  0  0
 21 41  1  0  0  0  0
 24 42  1  0  0  0  0
 25 43  1  0  0  0  0
 25 44  1  0  0  0  0
 25 45  1  0  0  0  0
M  END
> <Name>
24

> <IC50[uM]>
0.029

$$$$
24
  -OEChem-05192314333D
 Structure written by MMmdl.
 45 48  0     1  0  0  0  0  0999 V2000
   -6.3515   12.3530  -11.9813 C   0  0  0  0  0  0  0  0  0  0  0  0
   -6.5085   11.7912  -10.7247 C   0  0  0  0  0  0  0  0  0  0  0  0
   -7.6802   10.5716  -13.0438 C   0  0  0  0  0  0  0  0  0  0  0  0
   -6.9296   11.7657  -13.1245 C   0  0  0  0  0  0  0  0  0  0  0  0
   -7.7980   10.0044  -11.7669 C   0  0  3  0  0  0  0  0  0  0  0  0
   -7.2328   10.6109  -10.5989 C   0  0  0  0  0  0  0  0  0  0  0  0
   -7.6209    9.7375   -9.5162 C   0  0  0  0  0  0  0  0  0  0  0  0
   -8.2754    8.7446   -9.9970 N   0  0  0  0  0  0  0  0  0  0  0  0
   -8.4233    8.8800  -11.3218 N   0  0  0  0  0  0  0  0  0  0  0  0
   -7.3328    9.8812   -8.0296 C   0  0  0  0  0  0  0  0  0  0  0  0
   -5.3004   14.2773  -13.1499 C   0  0  0  0  0  0  0  0  0  0  0  0
   -4.4346   15.5261  -12.8998 C   0  0  0  0  0  0  0  0  0  0  0  0
   -5.5896   13.5586  -12.0343 N   0  0  0  0  0  0  0  0  0  0  0  0
   -5.9706   10.4906   -7.7317 C   0  0  3  0  0  0  0  0  0  0  0  0
   -5.8616   11.7632   -7.1684 C   0  0  0  0  0  0  0  0  0  0  0  0
   -4.6051   12.3126   -6.9180 C   0  0  0  0  0  0  0  0  0  0  0  0
   -3.4544   11.5948   -7.2294 C   0  0  0  0  0  0  0  0  0  0  0  0
   -3.5626   10.3128   -7.8011 C   0  0  0  0  0  0  0  0  0  0  0  0
   -4.8160    9.7710   -8.0425 C   0  0  0  0  0  0  0  0  0  0  0  0
   -2.1083   12.1736   -6.9694 C   0  0  0  0  0  0  0  0  0  0  0  0
   -1.7503   13.4247   -6.4858 C   0  0  0  0  0  0  0  0  0  0  0  0
   -0.4131   13.4674   -6.4189 N   0  0  0  0  0  0  0  0  0  0  0  0
    0.1758   12.3735   -6.8057 N   0  0  0  0  0  0  0  0  0  0  0  0
   -0.8094   11.5620   -7.1791 C   0  0  0  0  0  0  0  0  0  0  0  0
    0.4060   14.5705   -5.9896 C   0  0  0  0  0  0  0  0  0  0  0  0
   -5.6528   14.0066  -14.2746 O   0  0  0  0  0  0  0  0  0  0  0  0
   -6.0747   12.2631   -9.8555 H   0  0  0  0  0  0  0  0  0  0  0  0
   -8.1361   10.1224  -13.9137 H   0  0  0  0  0  0  0  0  0  0  0  0
   -6.7956   12.2399  -14.0855 H   0  0  0  0  0  0  0  0  0  0  0  0
   -6.8712    9.4340  -11.9273 H   0  0  0  0  0  0  0  0  0  0  0  0
   -8.0279    9.5798   -7.2599 H   0  0  0  0  0  0  0  0  0  0  0  0
   -4.2429   16.0373  -13.8548 H   0  0  0  0  0  0  0  0  0  0  0  0
   -4.9638   16.2086  -12.2185 H   0  0  0  0  0  0  0  0  0  0  0  0
   -3.4785   15.2246  -12.4471 H   0  0  0  0  0  0  0  0  0  0  0  0
   -5.9851   10.0423   -6.7273 H   0  0  0  0  0  0  0  0  0  0  0  0
   -6.7526   12.3233   -6.9261 H   0  0  0  0  0  0  0  0  0  0  0  0
   -4.5246   13.2972   -6.4815 H   0  0  0  0  0  0  0  0  0  0  0  0
   -2.6730    9.7536   -8.0506 H   0  0  0  0  0  0  0  0  0  0  0  0
   -4.8679    8.8310   -7.4736 H   0  0  0  0  0  0  0  0  0  0  0  0
   -4.8621    9.5509   -9.1193 H   0  0  0  0  0  0  0  0  0  0  0  0
   -2.4278   14.2202   -6.2127 H   0  0  0  0  0  0  0  0  0  0  0  0
   -0.6614   10.5729   -7.5868 H   0  0  0  0  0  0  0  0  0  0  0  0
    1.4672   14.2904   -6.0634 H   0  0  0  0  0  0  0  0  0  0  0  0
    0.2117   15.4427   -6.6311 H   0  0  0  0  0  0  0  0  0  0  0  0
    0.1649   14.8218   -4.9462 H   0  0  0  0  0  0  0  0  0  0  0  0
  1  2  1  0  0  0  0
  1  4  1  0  0  0  0
  1 13  2  0  0  0  0
  2  6  2  0  0  0  0
  3  4  2  0  0  0  0
  3  5  1  0  0  0  0
  5  6  1  0  0  0  0
  5  9  1  0  0  0  0
  6  7  1  0  0  0  0
  7  8  1  0  0  0  0
  7 10  2  3  0  0  0
  8  9  2  0  0  0  0
 10 14  1  0  0  0  0
 11 12  1  0  0  0  0
 11 13  1  0  0  0  0
 11 26  2  0  0  0  0
 14 15  1  0  0  0  0
 14 19  1  0  0  0  0
 15 16  2  0  0  0  0
 16 17  1  0  0  0  0
 17 18  2  0  0  0  0
 17 20  1  0  0  0  0
 18 19  1  0  0  0  0
 20 21  2  0  0  0  0
 20 24  1  0  0  0  0
 21 22  1  0  0  0  0
 22 23  1  0  0  0  0
 22 25  1  0  0  0  0
 23 24  2  0  0  0  0
  2 27  1  0  0  0  0
  3 28  1  0  0  0  0
  4 29  1  0  0  0  0
  5 30  1  0  0  0  0
 10 31  1  0  0  0  0
 12 32  1  0  0  0  0
 12 33  1  0  0  0  0
 12 34  1  0  0  0  0
 14 35  1  0  0  0  0
 15 36  1  0  0  0  0
 16 37  1  0  0  0  0
 18 38  1  0  0  0  0
 19 39  1  0  0  0  0
 19 40  1  0  0  0  0
 21 41  1  0  0  0  0
 24 42  1  0  0  0  0
 25 43  1  0  0  0  0
 25 44  1  0  0  0  0
 25 45  1  0  0  0  0
M  END
> <Name>
24

> <IC50[uM]>
0.029

$$$$
24
  -OEChem-05192314333D
 Structure written by MMmdl.
 45 48  0     1  0  0  0  0  0999 V2000
   -6.3515   12.3530  -11.9813 C   0  0  0  0  0  0  0  0  0  0  0  0
   -6.5085   11.7912  -10.7247 C   0  0  0  0  0  0  0  0  0  0  0  0
   -7.6802   10.5716  -13.0438 C   0  0  0  0  0  0  0  0  0  0  0  0
   -6.9296   11.7657  -13.1245 C   0  0  0  0  0  0  0  0  0  0  0  0
   -7.7980   10.0044  -11.7669 C   0  0  3  0  0  0  0  0  0  0  0  0
   -7.2328   10.6109  -10.5989 C   0  0  0  0  0  0  0  0  0  0  0  0
   -7.6209    9.7375   -9.5162 C   0  0  3  0  0  0  0  0  0  0  0  0
   -8.2754    8.7446   -9.9970 N   0  0  0  0  0  0  0  0  0  0  0  0
   -8.4233    8.8800  -11.3218 N   0  0  0  0  0  0  0  0  0  0  0  0
   -7.3328    9.8812   -8.0296 C   0  0  0  0  0  0  0  0  0  0  0  0
   -5.3004   14.2773  -13.1499 C   0  0  0  0  0  0  0  0  0  0  0  0
   -4.4346   15.5261  -12.8998 C   0  0  0  0  0  0  0  0  0  0  0  0
   -5.5896   13.5586  -12.0343 N   0  0  0  0  0  0  0  0  0  0  0  0
   -5.9706   10.4906   -7.7317 C   0  0  0  0  0  0  0  0  0  0  0  0
   -5.8616   11.7632   -7.1684 C   0  0  0  0  0  0  0  0  0  0  0  0
   -4.6051   12.3126   -6.9180 C   0  0  0  0  0  0  0  0  0  0  0  0
   -3.4544   11.5948   -7.2294 C   0  0  0  0  0  0  0  0  0  0  0  0
   -3.5626   10.3128   -7.8011 C   0  0  0  0  0  0  0  0  0  0  0  0
   -4.8160    9.7710   -8.0425 C   0  0  0  0  0  0  0  0  0  0  0  0
   -2.1083   12.1736   -6.9694 C   0  0  0  0  0  0  0  0  0  0  0  0
   -1.7503   13.4247   -6.4858 C   0  0  0  0  0  0  0  0  0  0  0  0
   -0.4131   13.4674   -6.4189 N   0  0  0  0  0  0  0  0  0  0  0  0
    0.1758   12.3735   -6.8057 N   0  0  0  0  0  0  0  0  0  0  0  0
   -0.8094   11.5620   -7.1791 C   0  0  0  0  0  0  0  0  0  0  0  0
    0.4060   14.5705   -5.9896 C   0  0  0  0  0  0  0  0  0  0  0  0
   -5.6528   14.0066  -14.2746 O   0  0  0  0  0  0  0  0  0  0  0  0
   -6.0747   12.2631   -9.8555 H   0  0  0  0  0  0  0  0  0  0  0  0
   -8.1361   10.1224  -13.9137 H   0  0  0  0  0  0  0  0  0  0  0  0
   -6.7956   12.2399  -14.0855 H   0  0  0  0  0  0  0  0  0  0  0  0
   -6.8712    9.4340  -11.9273 H   0  0  0  0  0  0  0  0  0  0  0  0
   -8.5577   10.3007   -9.3927 H   0  0  0  0  0  0  0  0  0  0  0  0
   -8.0279    9.5798   -7.2599 H   0  0  0  0  0  0  0  0  0  0  0  0
   -4.2429   16.0373  -13.8548 H   0  0  0  0  0  0  0  0  0  0  0  0
   -4.9638   16.2086  -12.2185 H   0  0  0  0  0  0  0  0  0  0  0  0
   -3.4785   15.2246  -12.4471 H   0  0  0  0  0  0  0  0  0  0  0  0
   -6.7526   12.3233   -6.9261 H   0  0  0  0  0  0  0  0  0  0  0  0
   -4.5246   13.2972   -6.4815 H   0  0  0  0  0  0  0  0  0  0  0  0
   -2.6730    9.7536   -8.0506 H   0  0  0  0  0  0  0  0  0  0  0  0
   -4.8679    8.8310   -7.4736 H   0  0  0  0  0  0  0  0  0  0  0  0
   -4.8621    9.5509   -9.1193 H   0  0  0  0  0  0  0  0  0  0  0  0
   -2.4278   14.2202   -6.2127 H   0  0  0  0  0  0  0  0  0  0  0  0
   -0.6614   10.5729   -7.5868 H   0  0  0  0  0  0  0  0  0  0  0  0
    1.4672   14.2904   -6.0634 H   0  0  0  0  0  0  0  0  0  0  0  0
    0.2117   15.4427   -6.6311 H   0  0  0  0  0  0  0  0  0  0  0  0
    0.1649   14.8218   -4.9462 H   0  0  0  0  0  0  0  0  0  0  0  0
  1  2  1  0  0  0  0
  1  4  1  0  0  0  0
  1 13  2  0  0  0  0
  2  6  2  0  0  0  0
  3  4  2  0  0  0  0
  3  5  1  0  0  0  0
  5  6  1  0  0  0  0
  5  9  1  0  0  0  0
  6  7  1  0  0  0  0
  7  8  1  0  0  0  0
  7 10  1  0  0  0  0
  8  9  2  0  0  0  0
 10 14  2  3  0  0  0
 11 12  1  0  0  0  0
 11 13  1  0  0  0  0
 11 26  2  0  0  0  0
 14 15  1  0  0  0  0
 14 19  1  0  0  0  0
 15 16  2  0  0  0  0
 16 17  1  0  0  0  0
 17 18  2  0  0  0  0
 17 20  1  0  0  0  0
 18 19  1  0  0  0  0
 20 21  2  0  0  0  0
 20 24  1  0  0  0  0
 21 22  1  0  0  0  0
 22 23  1  0  0  0  0
 22 25  1  0  0  0  0
 23 24  2  0  0  0  0
  2 27  1  0  0  0  0
  3 28  1  0  0  0  0
  4 29  1  0  0  0  0
  5 30  1  0  0  0  0
  7 31  1  0  0  0  0
 10 32  1  0  0  0  0
 12 33  1  0  0  0  0
 12 34  1  0  0  0  0
 12 35  1  0  0  0  0
 15 36  1  0  0  0  0
 16 37  1  0  0  0  0
 18 38  1  0  0  0  0
 19 39  1  0  0  0  0
 19 40  1  0  0  0  0
 21 41  1  0  0  0  0
 24 42  1  0  0  0  0
 25 43  1  0  0  0  0
 25 44  1  0  0  0  0
 25 45  1  0  0  0  0
M  END
> <Name>
24

> <IC50[uM]>
0.029

$$$$
24
  -OEChem-05192314333D
 Structure written by MMmdl.
 45 48  0     0  0  0  0  0  0999 V2000
   -6.3515   12.3530  -11.9813 C   0  0  0  0  0  0  0  0  0  0  0  0
   -6.5085   11.7912  -10.7247 C   0  0  0  0  0  0  0  0  0  0  0  0
   -7.6802   10.5716  -13.0438 C   0  0  0  0  0  0  0  0  0  0  0  0
   -6.9296   11.7657  -13.1245 C   0  0  0  0  0  0  0  0  0  0  0  0
   -7.7980   10.0044  -11.7669 C   0  0  0  0  0  0  0  0  0  0  0  0
   -7.2328   10.6109  -10.5989 C   0  0  0  0  0  0  0  0  0  0  0  0
   -7.6209    9.7375   -9.5162 C   0  0  0  0  0  0  0  0  0  0  0  0
   -8.2754    8.7446   -9.9970 N   0  0  0  0  0  0  0  0  0  0  0  0
   -8.4233    8.8800  -11.3218 N   0  0  0  0  0  0  0  0  0  0  0  0
   -7.3328    9.8812   -8.0296 C   0  0  0  0  0  0  0  0  0  0  0  0
   -5.3004   14.2773  -13.1499 C   0  0  0  0  0  0  0  0  0  0  0  0
   -4.4346   15.5261  -12.8998 C   0  0  0  0  0  0  0  0  0  0  0  0
   -5.5896   13.5586  -12.0343 N   0  0  0  0  0  0  0  0  0  0  0  0
   -5.9706   10.4906   -7.7317 C   0  0  0  0  0  0  0  0  0  0  0  0
   -5.8616   11.7632   -7.1684 C   0  0  0  0  0  0  0  0  0  0  0  0
   -4.6051   12.3126   -6.9180 C   0  0  0  0  0  0  0  0  0  0  0  0
   -3.4544   11.5948   -7.2294 C   0  0  0  0  0  0  0  0  0  0  0  0
   -3.5626   10.3128   -7.8011 C   0  0  0  0  0  0  0  0  0  0  0  0
   -4.8160    9.7710   -8.0425 C   0  0  0  0  0  0  0  0  0  0  0  0
   -2.1083   12.1736   -6.9694 C   0  0  0  0  0  0  0  0  0  0  0  0
   -1.7503   13.4247   -6.4858 C   0  0  0  0  0  0  0  0  0  0  0  0
   -0.4131   13.4674   -6.4189 N   0  0  0  0  0  0  0  0  0  0  0  0
    0.1758   12.3735   -6.8057 N   0  0  0  0  0  0  0  0  0  0  0  0
   -0.8094   11.5620   -7.1791 C   0  0  0  0  0  0  0  0  0  0  0  0
    0.4060   14.5705   -5.9896 C   0  0  0  0  0  0  0  0  0  0  0  0
   -5.6528   14.0066  -14.2746 O   0  0  0  0  0  0  0  0  0  0  0  0
   -6.0747   12.2631   -9.8555 H   0  0  0  0  0  0  0  0  0  0  0  0
   -8.6945   10.7862  -13.4115 H   0  0  0  0  0  0  0  0  0  0  0  0
   -7.2021    9.8287  -13.6992 H   0  0  0  0  0  0  0  0  0  0  0  0
   -6.7956   12.2399  -14.0855 H   0  0  0  0  0  0  0  0  0  0  0  0
   -8.0279    9.5798   -7.2599 H   0  0  0  0  0  0  0  0  0  0  0  0
   -4.2429   16.0373  -13.8548 H   0  0  0  0  0  0  0  0  0  0  0  0
   -4.9638   16.2086  -12.2185 H   0  0  0  0  0  0  0  0  0  0  0  0
   -3.4785   15.2246  -12.4471 H   0  0  0  0  0  0  0  0  0  0  0  0
   -5.2347   13.9076  -11.1670 H   0  0  0  0  0  0  0  0  0  0  0  0
   -6.7526   12.3233   -6.9261 H   0  0  0  0  0  0  0  0  0  0  0  0
   -4.5246   13.2972   -6.4815 H   0  0  0  0  0  0  0  0  0  0  0  0
   -2.6730    9.7536   -8.0506 H   0  0  0  0  0  0  0  0  0  0  0  0
   -4.8679    8.8310   -7.4736 H   0  0  0  0  0  0  0  0  0  0  0  0
   -4.8621    9.5509   -9.1193 H   0  0  0  0  0  0  0  0  0  0  0  0
   -2.4278   14.2202   -6.2127 H   0  0  0  0  0  0  0  0  0  0  0  0
   -0.6614   10.5729   -7.5868 H   0  0  0  0  0  0  0  0  0  0  0  0
    1.4672   14.2904   -6.0634 H   0  0  0  0  0  0  0  0  0  0  0  0
    0.2117   15.4427   -6.6311 H   0  0  0  0  0  0  0  0  0  0  0  0
    0.1649   14.8218   -4.9462 H   0  0  0  0  0  0  0  0  0  0  0  0
  1  2  1  0  0  0  0
  1  4  2  0  0  0  0
  1 13  1  0  0  0  0
  2  6  2  0  0  0  0
  3  4  1  0  0  0  0
  3  5  1  0  0  0  0
  5  6  1  0  0  0  0
  5  9  2  0  0  0  0
  6  7  1  0  0  0  0
  7  8  2  0  0  0  0
  7 10  1  0  0  0  0
  8  9  1  0  0  0  0
 10 14  2  3  0  0  0
 11 12  1  0  0  0  0
 11 13  1  0  0  0  0
 11 26  2  0  0  0  0
 14 15  1  0  0  0  0
 14 19  1  0  0  0  0
 15 16  2  0  0  0  0
 16 17  1  0  0  0  0
 17 18  2  0  0  0  0
 17 20  1  0  0  0  0
 18 19  1  0  0  0  0
 20 21  2  0  0  0  0
 20 24  1  0  0  0  0
 21 22  1  0  0  0  0
 22 23  1  0  0  0  0
 22 25  1  0  0  0  0
 23 24  2  0  0  0  0
  2 27  1  0  0  0  0
  3 28  1  0  0  0  0
  3 29  1  0  0  0  0
  4 30  1  0  0  0  0
 10 31  1  0  0  0  0
 12 32  1  0  0  0  0
 12 33  1  0  0  0  0
 12 34  1  0  0  0  0
 13 35  1  0  0  0  0
 15 36  1  0  0  0  0
 16 37  1  0  0  0  0
 18 38  1  0  0  0  0
 19 39  1  0  0  0  0
 19 40  1  0  0  0  0
 21 41  1  0  0  0  0
 24 42  1  0  0  0  0
 25 43  1  0  0  0  0
 25 44  1  0  0  0  0
 25 45  1  0  0  0  0
M  END
> <Name>
24

> <IC50[uM]>
0.029

$$$$
24
  -OEChem-05192314333D
 Structure written by MMmdl.
 45 48  0     1  0  0  0  0  0999 V2000
   -6.3515   12.3530  -11.9813 C   0  0  0  0  0  0  0  0  0  0  0  0
   -6.5085   11.7912  -10.7247 C   0  0  0  0  0  0  0  0  0  0  0  0
   -7.6802   10.5716  -13.0438 C   0  0  0  0  0  0  0  0  0  0  0  0
   -6.9296   11.7657  -13.1245 C   0  0  0  0  0  0  0  0  0  0  0  0
   -7.7980   10.0044  -11.7669 C   0  0  0  0  0  0  0  0  0  0  0  0
   -7.2328   10.6109  -10.5989 C   0  0  0  0  0  0  0  0  0  0  0  0
   -7.6209    9.7375   -9.5162 C   0  0  0  0  0  0  0  0  0  0  0  0
   -8.2754    8.7446   -9.9970 N   0  0  0  0  0  0  0  0  0  0  0  0
   -8.4233    8.8800  -11.3218 N   0  0  0  0  0  0  0  0  0  0  0  0
   -7.3328    9.8812   -8.0296 C   0  0  0  0  0  0  0  0  0  0  0  0
   -5.3004   14.2773  -13.1499 C   0  0  0  0  0  0  0  0  0  0  0  0
   -4.4346   15.5261  -12.8998 C   0  0  0  0  0  0  0  0  0  0  0  0
   -5.5896   13.5586  -12.0343 N   0  0  0  0  0  0  0  0  0  0  0  0
   -5.9706   10.4906   -7.7317 C   0  0  3  0  0  0  0  0  0  0  0  0
   -5.8616   11.7632   -7.1684 C   0  0  0  0  0  0  0  0  0  0  0  0
   -4.6051   12.3126   -6.9180 C   0  0  0  0  0  0  0  0  0  0  0  0
   -3.4544   11.5948   -7.2294 C   0  0  0  0  0  0  0  0  0  0  0  0
   -3.5626   10.3128   -7.8011 C   0  0  0  0  0  0  0  0  0  0  0  0
   -4.8160    9.7710   -8.0425 C   0  0  0  0  0  0  0  0  0  0  0  0
   -2.1083   12.1736   -6.9694 C   0  0  0  0  0  0  0  0  0  0  0  0
   -1.7503   13.4247   -6.4858 C   0  0  0  0  0  0  0  0  0  0  0  0
   -0.4131   13.4674   -6.4189 N   0  0  0  0  0  0  0  0  0  0  0  0
    0.1758   12.3735   -6.8057 N   0  0  0  0  0  0  0  0  0  0  0  0
   -0.8094   11.5620   -7.1791 C   0  0  0  0  0  0  0  0  0  0  0  0
    0.4060   14.5705   -5.9896 C   0  0  0  0  0  0  0  0  0  0  0  0
   -5.6528   14.0066  -14.2746 O   0  0  0  0  0  0  0  0  0  0  0  0
   -6.0747   12.2631   -9.8555 H   0  0  0  0  0  0  0  0  0  0  0  0
   -8.1361   10.1224  -13.9137 H   0  0  0  0  0  0  0  0  0  0  0  0
   -7.5989   12.5237  -13.5575 H   0  0  0  0  0  0  0  0  0  0  0  0
   -6.1027   11.5654  -13.8217 H   0  0  0  0  0  0  0  0  0  0  0  0
   -8.0279    9.5798   -7.2599 H   0  0  0  0  0  0  0  0  0  0  0  0
   -4.2429   16.0373  -13.8548 H   0  0  0  0  0  0  0  0  0  0  0  0
   -4.9638   16.2086  -12.2185 H   0  0  0  0  0  0  0  0  0  0  0  0
   -3.4785   15.2246  -12.4471 H   0  0  0  0  0  0  0  0  0  0  0  0
   -5.9851   10.0423   -6.7273 H   0  0  0  0  0  0  0  0  0  0  0  0
   -6.7526   12.3233   -6.9261 H   0  0  0  0  0  0  0  0  0  0  0  0
   -4.5246   13.2972   -6.4815 H   0  0  0  0  0  0  0  0  0  0  0  0
   -2.6730    9.7536   -8.0506 H   0  0  0  0  0  0  0  0  0  0  0  0
   -4.8679    8.8310   -7.4736 H   0  0  0  0  0  0  0  0  0  0  0  0
   -4.8621    9.5509   -9.1193 H   0  0  0  0  0  0  0  0  0  0  0  0
   -2.4278   14.2202   -6.2127 H   0  0  0  0  0  0  0  0  0  0  0  0
   -0.6614   10.5729   -7.5868 H   0  0  0  0  0  0  0  0  0  0  0  0
    1.4672   14.2904   -6.0634 H   0  0  0  0  0  0  0  0  0  0  0  0
    0.2117   15.4427   -6.6311 H   0  0  0  0  0  0  0  0  0  0  0  0
    0.1649   14.8218   -4.9462 H   0  0  0  0  0  0  0  0  0  0  0  0
  1  2  1  0  0  0  0
  1  4  1  0  0  0  0
  1 13  2  0  0  0  0
  2  6  2  0  0  0  0
  3  4  1  0  0  0  0
  3  5  2  0  0  0  0
  5  6  1  0  0  0  0
  5  9  1  0  0  0  0
  6  7  1  0  0  0  0
  7  8  1  0  0  0  0
  7 10  2  3  0  0  0
  8  9  2  0  0  0  0
 10 14  1  0  0  0  0
 11 12  1  0  0  0  0
 11 13  1  0  0  0  0
 11 26  2  0  0  0  0
 14 15  1  0  0  0  0
 14 19  1  0  0  0  0
 15 16  2  0  0  0  0
 16 17  1  0  0  0  0
 17 18  2  0  0  0  0
 17 20  1  0  0  0  0
 18 19  1  0  0  0  0
 20 21  2  0  0  0  0
 20 24  1  0  0  0  0
 21 22  1  0  0  0  0
 22 23  1  0  0  0  0
 22 25  1  0  0  0  0
 23 24  2  0  0  0  0
  2 27  1  0  0  0  0
  3 28  1  0  0  0  0
  4 29  1  0  0  0  0
  4 30  1  0  0  0  0
 10 31  1  0  0  0  0
 12 32  1  0  0  0  0
 12 33  1  0  0  0  0
 12 34  1  0  0  0  0
 14 35  1  0  0  0  0
 15 36  1  0  0  0  0
 16 37  1  0  0  0  0
 18 38  1  0  0  0  0
 19 39  1  0  0  0  0
 19 40  1  0  0  0  0
 21 41  1  0  0  0  0
 24 42  1  0  0  0  0
 25 43  1  0  0  0  0
 25 44  1  0  0  0  0
 25 45  1  0  0  0  0
M  END
> <Name>
24

> <IC50[uM]>
0.029

$$$$
24
  -OEChem-05192314333D
 Structure written by MMmdl.
 45 48  0     1  0  0  0  0  0999 V2000
   -6.3515   12.3530  -11.9813 C   0  0  0  0  0  0  0  0  0  0  0  0
   -6.5085   11.7912  -10.7247 C   0  0  0  0  0  0  0  0  0  0  0  0
   -7.6802   10.5716  -13.0438 C   0  0  0  0  0  0  0  0  0  0  0  0
   -6.9296   11.7657  -13.1245 C   0  0  0  0  0  0  0  0  0  0  0  0
   -7.7980   10.0044  -11.7669 C   0  0  0  0  0  0  0  0  0  0  0  0
   -7.2328   10.6109  -10.5989 C   0  0  0  0  0  0  0  0  0  0  0  0
   -7.6209    9.7375   -9.5162 C   0  0  3  0  0  0  0  0  0  0  0  0
   -8.2754    8.7446   -9.9970 N   0  0  0  0  0  0  0  0  0  0  0  0
   -8.4233    8.8800  -11.3218 N   0  0  0  0  0  0  0  0  0  0  0  0
   -7.3328    9.8812   -8.0296 C   0  0  0  0  0  0  0  0  0  0  0  0
   -5.3004   14.2773  -13.1499 C   0  0  0  0  0  0  0  0  0  0  0  0
   -4.4346   15.5261  -12.8998 C   0  0  0  0  0  0  0  0  0  0  0  0
   -5.5896   13.5586  -12.0343 N   0  0  0  0  0  0  0  0  0  0  0  0
   -5.9706   10.4906   -7.7317 C   0  0  0  0  0  0  0  0  0  0  0  0
   -5.8616   11.7632   -7.1684 C   0  0  0  0  0  0  0  0  0  0  0  0
   -4.6051   12.3126   -6.9180 C   0  0  0  0  0  0  0  0  0  0  0  0
   -3.4544   11.5948   -7.2294 C   0  0  0  0  0  0  0  0  0  0  0  0
   -3.5626   10.3128   -7.8011 C   0  0  0  0  0  0  0  0  0  0  0  0
   -4.8160    9.7710   -8.0425 C   0  0  0  0  0  0  0  0  0  0  0  0
   -2.1083   12.1736   -6.9694 C   0  0  0  0  0  0  0  0  0  0  0  0
   -1.7503   13.4247   -6.4858 C   0  0  0  0  0  0  0  0  0  0  0  0
   -0.4131   13.4674   -6.4189 N   0  0  0  0  0  0  0  0  0  0  0  0
    0.1758   12.3735   -6.8057 N   0  0  0  0  0  0  0  0  0  0  0  0
   -0.8094   11.5620   -7.1791 C   0  0  0  0  0  0  0  0  0  0  0  0
    0.4060   14.5705   -5.9896 C   0  0  0  0  0  0  0  0  0  0  0  0
   -5.6528   14.0066  -14.2746 O   0  0  0  0  0  0  0  0  0  0  0  0
   -6.0747   12.2631   -9.8555 H   0  0  0  0  0  0  0  0  0  0  0  0
   -8.1361   10.1224  -13.9137 H   0  0  0  0  0  0  0  0  0  0  0  0
   -7.5989   12.5237  -13.5575 H   0  0  0  0  0  0  0  0  0  0  0  0
   -6.1027   11.5654  -13.8217 H   0  0  0  0  0  0  0  0  0  0  0  0
   -8.5577   10.3007   -9.3927 H   0  0  0  0  0  0  0  0  0  0  0  0
   -8.0279    9.5798   -7.2599 H   0  0  0  0  0  0  0  0  0  0  0  0
   -4.2429   16.0373  -13.8548 H   0  0  0  0  0  0  0  0  0  0  0  0
   -4.9638   16.2086  -12.2185 H   0  0  0  0  0  0  0  0  0  0  0  0
   -3.4785   15.2246  -12.4471 H   0  0  0  0  0  0  0  0  0  0  0  0
   -6.7526   12.3233   -6.9261 H   0  0  0  0  0  0  0  0  0  0  0  0
   -4.5246   13.2972   -6.4815 H   0  0  0  0  0  0  0  0  0  0  0  0
   -2.6730    9.7536   -8.0506 H   0  0  0  0  0  0  0  0  0  0  0  0
   -4.8679    8.8310   -7.4736 H   0  0  0  0  0  0  0  0  0  0  0  0
   -4.8621    9.5509   -9.1193 H   0  0  0  0  0  0  0  0  0  0  0  0
   -2.4278   14.2202   -6.2127 H   0  0  0  0  0  0  0  0  0  0  0  0
   -0.6614   10.5729   -7.5868 H   0  0  0  0  0  0  0  0  0  0  0  0
    1.4672   14.2904   -6.0634 H   0  0  0  0  0  0  0  0  0  0  0  0
    0.2117   15.4427   -6.6311 H   0  0  0  0  0  0  0  0  0  0  0  0
    0.1649   14.8218   -4.9462 H   0  0  0  0  0  0  0  0  0  0  0  0
  1  2  1  0  0  0  0
  1  4  1  0  0  0  0
  1 13  2  0  0  0  0
  2  6  2  0  0  0  0
  3  4  1  0  0  0  0
  3  5  2  0  0  0  0
  5  6  1  0  0  0  0
  5  9  1  0  0  0  0
  6  7  1  0  0  0  0
  7  8  1  0  0  0  0
  7 10  1  0  0  0  0
  8  9  2  0  0  0  0
 10 14  2  3  0  0  0
 11 12  1  0  0  0  0
 11 13  1  0  0  0  0
 11 26  2  0  0  0  0
 14 15  1  0  0  0  0
 14 19  1  0  0  0  0
 15 16  2  0  0  0  0
 16 17  1  0  0  0  0
 17 18  2  0  0  0  0
 17 20  1  0  0  0  0
 18 19  1  0  0  0  0
 20 21  2  0  0  0  0
 20 24  1  0  0  0  0
 21 22  1  0  0  0  0
 22 23  1  0  0  0  0
 22 25  1  0  0  0  0
 23 24  2  0  0  0  0
  2 27  1  0  0  0  0
  3 28  1  0  0  0  0
  4 29  1  0  0  0  0
  4 30  1  0  0  0  0
  7 31  1  0  0  0  0
 10 32  1  0  0  0  0
 12 33  1  0  0  0  0
 12 34  1  0  0  0  0
 12 35  1  0  0  0  0
 15 36  1  0  0  0  0
 16 37  1  0  0  0  0
 18 38  1  0  0  0  0
 19 39  1  0  0  0  0
 19 40  1  0  0  0  0
 21 41  1  0  0  0  0
 24 42  1  0  0  0  0
 25 43  1  0  0  0  0
 25 44  1  0  0  0  0
 25 45  1  0  0  0  0
M  END
> <Name>
24

> <IC50[uM]>
0.029

$$$$
24
  -OEChem-05192314333D
 Structure written by MMmdl.
 45 48  0     1  0  0  0  0  0999 V2000
   -6.3515   12.3530  -11.9813 C   0  0  0  0  0  0  0  0  0  0  0  0
   -6.5085   11.7912  -10.7247 C   0  0  0  0  0  0  0  0  0  0  0  0
   -7.6802   10.5716  -13.0438 C   0  0  0  0  0  0  0  0  0  0  0  0
   -6.9296   11.7657  -13.1245 C   0  0  0  0  0  0  0  0  0  0  0  0
   -7.7980   10.0044  -11.7669 C   0  0  3  0  0  0  0  0  0  0  0  0
   -7.2328   10.6109  -10.5989 C   0  0  0  0  0  0  0  0  0  0  0  0
   -7.6209    9.7375   -9.5162 C   0  0  0  0  0  0  0  0  0  0  0  0
   -8.2754    8.7446   -9.9970 N   0  0  0  0  0  0  0  0  0  0  0  0
   -8.4233    8.8800  -11.3218 N   0  0  0  0  0  0  0  0  0  0  0  0
   -7.3328    9.8812   -8.0296 C   0  0  0  0  0  0  0  0  0  0  0  0
   -5.3004   14.2773  -13.1499 C   0  0  0  0  0  0  0  0  0  0  0  0
   -4.4346   15.5261  -12.8998 C   0  0  0  0  0  0  0  0  0  0  0  0
   -5.5896   13.5586  -12.0343 N   0  0  0  0  0  0  0  0  0  0  0  0
   -5.9706   10.4906   -7.7317 C   0  0  0  0  0  0  0  0  0  0  0  0
   -5.8616   11.7632   -7.1684 C   0  0  0  0  0  0  0  0  0  0  0  0
   -4.6051   12.3126   -6.9180 C   0  0  0  0  0  0  0  0  0  0  0  0
   -3.4544   11.5948   -7.2294 C   0  0  0  0  0  0  0  0  0  0  0  0
   -3.5626   10.3128   -7.8011 C   0  0  0  0  0  0  0  0  0  0  0  0
   -4.8160    9.7710   -8.0425 C   0  0  0  0  0  0  0  0  0  0  0  0
   -2.1083   12.1736   -6.9694 C   0  0  0  0  0  0  0  0  0  0  0  0
   -1.7503   13.4247   -6.4858 C   0  0  0  0  0  0  0  0  0  0  0  0
   -0.4131   13.4674   -6.4189 N   0  0  0  0  0  0  0  0  0  0  0  0
    0.1758   12.3735   -6.8057 N   0  0  0  0  0  0  0  0  0  0  0  0
   -0.8094   11.5620   -7.1791 C   0  0  0  0  0  0  0  0  0  0  0  0
    0.4060   14.5705   -5.9896 C   0  0  0  0  0  0  0  0  0  0  0  0
   -5.6528   14.0066  -14.2746 O   0  0  0  0  0  0  0  0  0  0  0  0
   -6.0747   12.2631   -9.8555 H   0  0  0  0  0  0  0  0  0  0  0  0
   -8.1361   10.1224  -13.9137 H   0  0  0  0  0  0  0  0  0  0  0  0
   -6.7956   12.2399  -14.0855 H   0  0  0  0  0  0  0  0  0  0  0  0
   -6.8712    9.4340  -11.9273 H   0  0  0  0  0  0  0  0  0  0  0  0
   -8.0279    9.5798   -7.2599 H   0  0  0  0  0  0  0  0  0  0  0  0
   -4.2429   16.0373  -13.8548 H   0  0  0  0  0  0  0  0  0  0  0  0
   -4.9638   16.2086  -12.2185 H   0  0  0  0  0  0  0  0  0  0  0  0
   -3.4785   15.2246  -12.4471 H   0  0  0  0  0  0  0  0  0  0  0  0
   -6.7526   12.3233   -6.9261 H   0  0  0  0  0  0  0  0  0  0  0  0
   -4.5531   13.2553   -7.4825 H   0  0  0  0  0  0  0  0  0  0  0  0
   -4.5624   12.5279   -5.8401 H   0  0  0  0  0  0  0  0  0  0  0  0
   -2.6730    9.7536   -8.0506 H   0  0  0  0  0  0  0  0  0  0  0  0
   -4.8679    8.8310   -7.4736 H   0  0  0  0  0  0  0  0  0  0  0  0
   -4.8621    9.5509   -9.1193 H   0  0  0  0  0  0  0  0  0  0  0  0
   -2.4278   14.2202   -6.2127 H   0  0  0  0  0  0  0  0  0  0  0  0
   -0.6614   10.5729   -7.5868 H   0  0  0  0  0  0  0  0  0  0  0  0
    1.4672   14.2904   -6.0634 H   0  0  0  0  0  0  0  0  0  0  0  0
    0.2117   15.4427   -6.6311 H   0  0  0  0  0  0  0  0  0  0  0  0
    0.1649   14.8218   -4.9462 H   0  0  0  0  0  0  0  0  0  0  0  0
  1  2  1  0  0  0  0
  1  4  1  0  0  0  0
  1 13  2  0  0  0  0
  2  6  2  0  0  0  0
  3  4  2  0  0  0  0
  3  5  1  0  0  0  0
  5  6  1  0  0  0  0
  5  9  1  0  0  0  0
  6  7  1  0  0  0  0
  7  8  1  0  0  0  0
  7 10  2  3  0  0  0
  8  9  2  0  0  0  0
 10 14  1  0  0  0  0
 11 12  1  0  0  0  0
 11 13  1  0  0  0  0
 11 26  2  0  0  0  0
 14 15  2  0  0  0  0
 14 19  1  0  0  0  0
 15 16  1  0  0  0  0
 16 17  1  0  0  0  0
 17 18  2  0  0  0  0
 17 20  1  0  0  0  0
 18 19  1  0  0  0  0
 20 21  2  0  0  0  0
 20 24  1  0  0  0  0
 21 22  1  0  0  0  0
 22 23  1  0  0  0  0
 22 25  1  0  0  0  0
 23 24  2  0  0  0  0
  2 27  1  0  0  0  0
  3 28  1  0  0  0  0
  4 29  1  0  0  0  0
  5 30  1  0  0  0  0
 10 31  1  0  0  0  0
 12 32  1  0  0  0  0
 12 33  1  0  0  0  0
 12 34  1  0  0  0  0
 15 35  1  0  0  0  0
 16 36  1  0  0  0  0
 16 37  1  0  0  0  0
 18 38  1  0  0  0  0
 19 39  1  0  0  0  0
 19 40  1  0  0  0  0
 21 41  1  0  0  0  0
 24 42  1  0  0  0  0
 25 43  1  0  0  0  0
 25 44  1  0  0  0  0
 25 45  1  0  0  0  0
M  END
> <Name>
24

> <IC50[uM]>
0.029

$$$$
24
  -OEChem-05192314333D
 Structure written by MMmdl.
 45 48  0     0  0  0  0  0  0999 V2000
   -6.3515   12.3530  -11.9813 C   0  0  0  0  0  0  0  0  0  0  0  0
   -6.5085   11.7912  -10.7247 C   0  0  0  0  0  0  0  0  0  0  0  0
   -7.6802   10.5716  -13.0438 C   0  0  0  0  0  0  0  0  0  0  0  0
   -6.9296   11.7657  -13.1245 C   0  0  0  0  0  0  0  0  0  0  0  0
   -7.7980   10.0044  -11.7669 C   0  0  0  0  0  0  0  0  0  0  0  0
   -7.2328   10.6109  -10.5989 C   0  0  0  0  0  0  0  0  0  0  0  0
   -7.6209    9.7375   -9.5162 C   0  0  0  0  0  0  0  0  0  0  0  0
   -8.2754    8.7446   -9.9970 N   0  0  0  0  0  0  0  0  0  0  0  0
   -8.4233    8.8800  -11.3218 N   0  0  0  0  0  0  0  0  0  0  0  0
   -7.3328    9.8812   -8.0296 C   0  0  0  0  0  0  0  0  0  0  0  0
   -5.3004   14.2773  -13.1499 C   0  0  0  0  0  0  0  0  0  0  0  0
   -4.4346   15.5261  -12.8998 C   0  0  0  0  0  0  0  0  0  0  0  0
   -5.5896   13.5586  -12.0343 N   0  0  0  0  0  0  0  0  0  0  0  0
   -5.9706   10.4906   -7.7317 C   0  0  0  0  0  0  0  0  0  0  0  0
   -5.8616   11.7632   -7.1684 C   0  0  0  0  0  0  0  0  0  0  0  0
   -4.6051   12.3126   -6.9180 C   0  0  0  0  0  0  0  0  0  0  0  0
   -3.4544   11.5948   -7.2294 C   0  0  0  0  0  0  0  0  0  0  0  0
   -3.5626   10.3128   -7.8011 C   0  0  0  0  0  0  0  0  0  0  0  0
   -4.8160    9.7710   -8.0425 C   0  0  0  0  0  0  0  0  0  0  0  0
   -2.1083   12.1736   -6.9694 C   0  0  0  0  0  0  0  0  0  0  0  0
   -1.7503   13.4247   -6.4858 C   0  0  0  0  0  0  0  0  0  0  0  0
   -0.4131   13.4674   -6.4189 N   0  0  0  0  0  0  0  0  0  0  0  0
    0.1758   12.3735   -6.8057 N   0  0  0  0  0  0  0  0  0  0  0  0
   -0.8094   11.5620   -7.1791 C   0  0  0  0  0  0  0  0  0  0  0  0
    0.4060   14.5705   -5.9896 C   0  0  0  0  0  0  0  0  0  0  0  0
   -5.6528   14.0066  -14.2746 O   0  0  0  0  0  0  0  0  0  0  0  0
   -6.0747   12.2631   -9.8555 H   0  0  0  0  0  0  0  0  0  0  0  0
   -8.1361   10.1224  -13.9137 H   0  0  0  0  0  0  0  0  0  0  0  0
   -7.5989   12.5237  -13.5575 H   0  0  0  0  0  0  0  0  0  0  0  0
   -6.1027   11.5654  -13.8217 H   0  0  0  0  0  0  0  0  0  0  0  0
   -8.0279    9.5798   -7.2599 H   0  0  0  0  0  0  0  0  0  0  0  0
   -4.2429   16.0373  -13.8548 H   0  0  0  0  0  0  0  0  0  0  0  0
   -4.9638   16.2086  -12.2185 H   0  0  0  0  0  0  0  0  0  0  0  0
   -3.4785   15.2246  -12.4471 H   0  0  0  0  0  0  0  0  0  0  0  0
   -6.7526   12.3233   -6.9261 H   0  0  0  0  0  0  0  0  0  0  0  0
   -4.5531   13.2553   -7.4825 H   0  0  0  0  0  0  0  0  0  0  0  0
   -4.5624   12.5279   -5.8401 H   0  0  0  0  0  0  0  0  0  0  0  0
   -2.6730    9.7536   -8.0506 H   0  0  0  0  0  0  0  0  0  0  0  0
   -4.8679    8.8310   -7.4736 H   0  0  0  0  0  0  0  0  0  0  0  0
   -4.8621    9.5509   -9.1193 H   0  0  0  0  0  0  0  0  0  0  0  0
   -2.4278   14.2202   -6.2127 H   0  0  0  0  0  0  0  0  0  0  0  0
   -0.6614   10.5729   -7.5868 H   0  0  0  0  0  0  0  0  0  0  0  0
    1.4672   14.2904   -6.0634 H   0  0  0  0  0  0  0  0  0  0  0  0
    0.2117   15.4427   -6.6311 H   0  0  0  0  0  0  0  0  0  0  0  0
    0.1649   14.8218   -4.9462 H   0  0  0  0  0  0  0  0  0  0  0  0
  1  2  1  0  0  0  0
  1  4  1  0  0  0  0
  1 13  2  0  0  0  0
  2  6  2  0  0  0  0
  3  4  1  0  0  0  0
  3  5  2  0  0  0  0
  5  6  1  0  0  0  0
  5  9  1  0  0  0  0
  6  7  1  0  0  0  0
  7  8  1  0  0  0  0
  7 10  2  3  0  0  0
  8  9  2  0  0  0  0
 10 14  1  0  0  0  0
 11 12  1  0  0  0  0
 11 13  1  0  0  0  0
 11 26  2  0  0  0  0
 14 15  2  0  0  0  0
 14 19  1  0  0  0  0
 15 16  1  0  0  0  0
 16 17  1  0  0  0  0
 17 18  2  0  0  0  0
 17 20  1  0  0  0  0
 18 19  1  0  0  0  0
 20 21  2  0  0  0  0
 20 24  1  0  0  0  0
 21 22  1  0  0  0  0
 22 23  1  0  0  0  0
 22 25  1  0  0  0  0
 23 24  2  0  0  0  0
  2 27  1  0  0  0  0
  3 28  1  0  0  0  0
  4 29  1  0  0  0  0
  4 30  1  0  0  0  0
 10 31  1  0  0  0  0
 12 32  1  0  0  0  0
 12 33  1  0  0  0  0
 12 34  1  0  0  0  0
 15 35  1  0  0  0  0
 16 36  1  0  0  0  0
 16 37  1  0  0  0  0
 18 38  1  0  0  0  0
 19 39  1  0  0  0  0
 19 40  1  0  0  0  0
 21 41  1  0  0  0  0
 24 42  1  0  0  0  0
 25 43  1  0  0  0  0
 25 44  1  0  0  0  0
 25 45  1  0  0  0  0
M  END
> <Name>
24

> <IC50[uM]>
0.029

$$$$
24
  -OEChem-05192314333D
 Structure written by MMmdl.
 45 48  0     1  0  0  0  0  0999 V2000
   -6.3515   12.3530  -11.9813 C   0  0  0  0  0  0  0  0  0  0  0  0
   -6.5085   11.7912  -10.7247 C   0  0  0  0  0  0  0  0  0  0  0  0
   -7.6802   10.5716  -13.0438 C   0  0  0  0  0  0  0  0  0  0  0  0
   -6.9296   11.7657  -13.1245 C   0  0  0  0  0  0  0  0  0  0  0  0
   -7.7980   10.0044  -11.7669 C   0  0  3  0  0  0  0  0  0  0  0  0
   -7.2328   10.6109  -10.5989 C   0  0  0  0  0  0  0  0  0  0  0  0
   -7.6209    9.7375   -9.5162 C   0  0  0  0  0  0  0  0  0  0  0  0
   -8.2754    8.7446   -9.9970 N   0  0  0  0  0  0  0  0  0  0  0  0
   -8.4233    8.8800  -11.3218 N   0  0  0  0  0  0  0  0  0  0  0  0
   -7.3328    9.8812   -8.0296 C   0  0  0  0  0  0  0  0  0  0  0  0
   -5.3004   14.2773  -13.1499 C   0  0  0  0  0  0  0  0  0  0  0  0
   -4.4346   15.5261  -12.8998 C   0  0  0  0  0  0  0  0  0  0  0  0
   -5.5896   13.5586  -12.0343 N   0  0  0  0  0  0  0  0  0  0  0  0
   -5.9706   10.4906   -7.7317 C   0  0  0  0  0  0  0  0  0  0  0  0
   -5.8616   11.7632   -7.1684 C   0  0  0  0  0  0  0  0  0  0  0  0
   -4.6051   12.3126   -6.9180 C   0  0  0  0  0  0  0  0  0  0  0  0
   -3.4544   11.5948   -7.2294 C   0  0  0  0  0  0  0  0  0  0  0  0
   -3.5626   10.3128   -7.8011 C   0  0  0  0  0  0  0  0  0  0  0  0
   -4.8160    9.7710   -8.0425 C   0  0  0  0  0  0  0  0  0  0  0  0
   -2.1083   12.1736   -6.9694 C   0  0  0  0  0  0  0  0  0  0  0  0
   -1.7503   13.4247   -6.4858 C   0  0  0  0  0  0  0  0  0  0  0  0
   -0.4131   13.4674   -6.4189 N   0  0  0  0  0  0  0  0  0  0  0  0
    0.1758   12.3735   -6.8057 N   0  0  0  0  0  0  0  0  0  0  0  0
   -0.8094   11.5620   -7.1791 C   0  0  0  0  0  0  0  0  0  0  0  0
    0.4060   14.5705   -5.9896 C   0  0  0  0  0  0  0  0  0  0  0  0
   -5.6528   14.0066  -14.2746 O   0  0  0  0  0  0  0  0  0  0  0  0
   -6.0747   12.2631   -9.8555 H   0  0  0  0  0  0  0  0  0  0  0  0
   -8.1361   10.1224  -13.9137 H   0  0  0  0  0  0  0  0  0  0  0  0
   -6.7956   12.2399  -14.0855 H   0  0  0  0  0  0  0  0  0  0  0  0
   -6.8712    9.4340  -11.9273 H   0  0  0  0  0  0  0  0  0  0  0  0
   -8.0279    9.5798   -7.2599 H   0  0  0  0  0  0  0  0  0  0  0  0
   -4.2429   16.0373  -13.8548 H   0  0  0  0  0  0  0  0  0  0  0  0
   -4.9638   16.2086  -12.2185 H   0  0  0  0  0  0  0  0  0  0  0  0
   -3.4785   15.2246  -12.4471 H   0  0  0  0  0  0  0  0  0  0  0  0
   -6.7526   12.3233   -6.9261 H   0  0  0  0  0  0  0  0  0  0  0  0
   -4.5246   13.2972   -6.4815 H   0  0  0  0  0  0  0  0  0  0  0  0
   -3.0396   10.3498   -8.7681 H   0  0  0  0  0  0  0  0  0  0  0  0
   -3.0393    9.6182   -7.1276 H   0  0  0  0  0  0  0  0  0  0  0  0
   -4.8679    8.8310   -7.4736 H   0  0  0  0  0  0  0  0  0  0  0  0
   -4.8621    9.5509   -9.1193 H   0  0  0  0  0  0  0  0  0  0  0  0
   -2.4278   14.2202   -6.2127 H   0  0  0  0  0  0  0  0  0  0  0  0
   -0.6614   10.5729   -7.5868 H   0  0  0  0  0  0  0  0  0  0  0  0
    1.4672   14.2904   -6.0634 H   0  0  0  0  0  0  0  0  0  0  0  0
    0.2117   15.4427   -6.6311 H   0  0  0  0  0  0  0  0  0  0  0  0
    0.1649   14.8218   -4.9462 H   0  0  0  0  0  0  0  0  0  0  0  0
  1  2  1  0  0  0  0
  1  4  1  0  0  0  0
  1 13  2  0  0  0  0
  2  6  2  0  0  0  0
  3  4  2  0  0  0  0
  3  5  1  0  0  0  0
  5  6  1  0  0  0  0
  5  9  1  0  0  0  0
  6  7  1  0  0  0  0
  7  8  1  0  0  0  0
  7 10  2  3  0  0  0
  8  9  2  0  0  0  0
 10 14  1  0  0  0  0
 11 12  1  0  0  0  0
 11 13  1  0  0  0  0
 11 26  2  0  0  0  0
 14 15  2  0  0  0  0
 14 19  1  0  0  0  0
 15 16  1  0  0  0  0
 16 17  2  0  0  0  0
 17 18  1  0  0  0  0
 17 20  1  0  0  0  0
 18 19  1  0  0  0  0
 20 21  2  0  0  0  0
 20 24  1  0  0  0  0
 21 22  1  0  0  0  0
 22 23  1  0  0  0  0
 22 25  1  0  0  0  0
 23 24  2  0  0  0  0
  2 27  1  0  0  0  0
  3 28  1  0  0  0  0
  4 29  1  0  0  0  0
  5 30  1  0  0  0  0
 10 31  1  0  0  0  0
 12 32  1  0  0  0  0
 12 33  1  0  0  0  0
 12 34  1  0  0  0  0
 15 35  1  0  0  0  0
 16 36  1  0  0  0  0
 18 37  1  0  0  0  0
 18 38  1  0  0  0  0
 19 39  1  0  0  0  0
 19 40  1  0  0  0  0
 21 41  1  0  0  0  0
 24 42  1  0  0  0  0
 25 43  1  0  0  0  0
 25 44  1  0  0  0  0
 25 45  1  0  0  0  0
M  END
> <Name>
24

> <IC50[uM]>
0.029

$$$$
24
  -OEChem-05192314333D
 Structure written by MMmdl.
 45 48  0     0  0  0  0  0  0999 V2000
   -6.3515   12.3530  -11.9813 C   0  0  0  0  0  0  0  0  0  0  0  0
   -6.5085   11.7912  -10.7247 C   0  0  0  0  0  0  0  0  0  0  0  0
   -7.6802   10.5716  -13.0438 C   0  0  0  0  0  0  0  0  0  0  0  0
   -6.9296   11.7657  -13.1245 C   0  0  0  0  0  0  0  0  0  0  0  0
   -7.7980   10.0044  -11.7669 C   0  0  0  0  0  0  0  0  0  0  0  0
   -7.2328   10.6109  -10.5989 C   0  0  0  0  0  0  0  0  0  0  0  0
   -7.6209    9.7375   -9.5162 C   0  0  0  0  0  0  0  0  0  0  0  0
   -8.2754    8.7446   -9.9970 N   0  0  0  0  0  0  0  0  0  0  0  0
   -8.4233    8.8800  -11.3218 N   0  0  0  0  0  0  0  0  0  0  0  0
   -7.3328    9.8812   -8.0296 C   0  0  0  0  0  0  0  0  0  0  0  0
   -5.3004   14.2773  -13.1499 C   0  0  0  0  0  0  0  0  0  0  0  0
   -4.4346   15.5261  -12.8998 C   0  0  0  0  0  0  0  0  0  0  0  0
   -5.5896   13.5586  -12.0343 N   0  0  0  0  0  0  0  0  0  0  0  0
   -5.9706   10.4906   -7.7317 C   0  0  0  0  0  0  0  0  0  0  0  0
   -5.8616   11.7632   -7.1684 C   0  0  0  0  0  0  0  0  0  0  0  0
   -4.6051   12.3126   -6.9180 C   0  0  0  0  0  0  0  0  0  0  0  0
   -3.4544   11.5948   -7.2294 C   0  0  0  0  0  0  0  0  0  0  0  0
   -3.5626   10.3128   -7.8011 C   0  0  0  0  0  0  0  0  0  0  0  0
   -4.8160    9.7710   -8.0425 C   0  0  0  0  0  0  0  0  0  0  0  0
   -2.1083   12.1736   -6.9694 C   0  0  0  0  0  0  0  0  0  0  0  0
   -1.7503   13.4247   -6.4858 C   0  0  0  0  0  0  0  0  0  0  0  0
   -0.4131   13.4674   -6.4189 N   0  0  0  0  0  0  0  0  0  0  0  0
    0.1758   12.3735   -6.8057 N   0  0  0  0  0  0  0  0  0  0  0  0
   -0.8094   11.5620   -7.1791 C   0  0  0  0  0  0  0  0  0  0  0  0
    0.4060   14.5705   -5.9896 C   0  0  0  0  0  0  0  0  0  0  0  0
   -5.6528   14.0066  -14.2746 O   0  0  0  0  0  0  0  0  0  0  0  0
   -6.0747   12.2631   -9.8555 H   0  0  0  0  0  0  0  0  0  0  0  0
   -8.1361   10.1224  -13.9137 H   0  0  0  0  0  0  0  0  0  0  0  0
   -7.5989   12.5237  -13.5575 H   0  0  0  0  0  0  0  0  0  0  0  0
   -6.1027   11.5654  -13.8217 H   0  0  0  0  0  0  0  0  0  0  0  0
   -8.0279    9.5798   -7.2599 H   0  0  0  0  0  0  0  0  0  0  0  0
   -4.2429   16.0373  -13.8548 H   0  0  0  0  0  0  0  0  0  0  0  0
   -4.9638   16.2086  -12.2185 H   0  0  0  0  0  0  0  0  0  0  0  0
   -3.4785   15.2246  -12.4471 H   0  0  0  0  0  0  0  0  0  0  0  0
   -6.7526   12.3233   -6.9261 H   0  0  0  0  0  0  0  0  0  0  0  0
   -4.5246   13.2972   -6.4815 H   0  0  0  0  0  0  0  0  0  0  0  0
   -3.0396   10.3498   -8.7681 H   0  0  0  0  0  0  0  0  0  0  0  0
   -3.0393    9.6182   -7.1276 H   0  0  0  0  0  0  0  0  0  0  0  0
   -4.8679    8.8310   -7.4736 H   0  0  0  0  0  0  0  0  0  0  0  0
   -4.8621    9.5509   -9.1193 H   0  0  0  0  0  0  0  0  0  0  0  0
   -2.4278   14.2202   -6.2127 H   0  0  0  0  0  0  0  0  0  0  0  0
   -0.6614   10.5729   -7.5868 H   0  0  0  0  0  0  0  0  0  0  0  0
    1.4672   14.2904   -6.0634 H   0  0  0  0  0  0  0  0  0  0  0  0
    0.2117   15.4427   -6.6311 H   0  0  0  0  0  0  0  0  0  0  0  0
    0.1649   14.8218   -4.9462 H   0  0  0  0  0  0  0  0  0  0  0  0
  1  2  1  0  0  0  0
  1  4  1  0  0  0  0
  1 13  2  0  0  0  0
  2  6  2  0  0  0  0
  3  4  1  0  0  0  0
  3  5  2  0  0  0  0
  5  6  1  0  0  0  0
  5  9  1  0  0  0  0
  6  7  1  0  0  0  0
  7  8  1  0  0  0  0
  7 10  2  3  0  0  0
  8  9  2  0  0  0  0
 10 14  1  0  0  0  0
 11 12  1  0  0  0  0
 11 13  1  0  0  0  0
 11 26  2  0  0  0  0
 14 15  2  0  0  0  0
 14 19  1  0  0  0  0
 15 16  1  0  0  0  0
 16 17  2  0  0  0  0
 17 18  1  0  0  0  0
 17 20  1  0  0  0  0
 18 19  1  0  0  0  0
 20 21  2  0  0  0  0
 20 24  1  0  0  0  0
 21 22  1  0  0  0  0
 22 23  1  0  0  0  0
 22 25  1  0  0  0  0
 23 24  2  0  0  0  0
  2 27  1  0  0  0  0
  3 28  1  0  0  0  0
  4 29  1  0  0  0  0
  4 30  1  0  0  0  0
 10 31  1  0  0  0  0
 12 32  1  0  0  0  0
 12 33  1  0  0  0  0
 12 34  1  0  0  0  0
 15 35  1  0  0  0  0
 16 36  1  0  0  0  0
 18 37  1  0  0  0  0
 18 38  1  0  0  0  0
 19 39  1  0  0  0  0
 19 40  1  0  0  0  0
 21 41  1  0  0  0  0
 24 42  1  0  0  0  0
 25 43  1  0  0  0  0
 25 44  1  0  0  0  0
 25 45  1  0  0  0  0
M  END
> <Name>
24

> <IC50[uM]>
0.029

$$$$
24
  -OEChem-05192314333D
 Structure written by MMmdl.
 45 48  0     0  0  0  0  0  0999 V2000
   -6.3515   12.3530  -11.9813 C   0  0  0  0  0  0  0  0  0  0  0  0
   -6.5085   11.7912  -10.7247 C   0  0  0  0  0  0  0  0  0  0  0  0
   -7.6802   10.5716  -13.0438 C   0  0  0  0  0  0  0  0  0  0  0  0
   -6.9296   11.7657  -13.1245 C   0  0  0  0  0  0  0  0  0  0  0  0
   -7.7980   10.0044  -11.7669 C   0  0  0  0  0  0  0  0  0  0  0  0
   -7.2328   10.6109  -10.5989 C   0  0  0  0  0  0  0  0  0  0  0  0
   -7.6209    9.7375   -9.5162 C   0  0  0  0  0  0  0  0  0  0  0  0
   -8.2754    8.7446   -9.9970 N   0  0  0  0  0  0  0  0  0  0  0  0
   -8.4233    8.8800  -11.3218 N   0  0  0  0  0  0  0  0  0  0  0  0
   -7.3328    9.8812   -8.0296 C   0  0  0  0  0  0  0  0  0  0  0  0
   -5.3004   14.2773  -13.1499 C   0  0  0  0  0  0  0  0  0  0  0  0
   -4.4346   15.5261  -12.8998 C   0  0  0  0  0  0  0  0  0  0  0  0
   -5.5896   13.5586  -12.0343 N   0  0  0  0  0  0  0  0  0  0  0  0
   -5.9706   10.4906   -7.7317 C   0  0  0  0  0  0  0  0  0  0  0  0
   -5.8616   11.7632   -7.1684 C   0  0  0  0  0  0  0  0  0  0  0  0
   -4.6051   12.3126   -6.9180 C   0  0  0  0  0  0  0  0  0  0  0  0
   -3.4544   11.5948   -7.2294 C   0  0  0  0  0  0  0  0  0  0  0  0
   -3.5626   10.3128   -7.8011 C   0  0  0  0  0  0  0  0  0  0  0  0
   -4.8160    9.7710   -8.0425 C   0  0  0  0  0  0  0  0  0  0  0  0
   -2.1083   12.1736   -6.9694 C   0  0  0  0  0  0  0  0  0  0  0  0
   -1.7503   13.4247   -6.4858 C   0  0  0  0  0  0  0  0  0  0  0  0
   -0.4131   13.4674   -6.4189 N   0  0  0  0  0  0  0  0  0  0  0  0
    0.1758   12.3735   -6.8057 N   0  0  0  0  0  0  0  0  0  0  0  0
   -0.8094   11.5620   -7.1791 C   0  0  0  0  0  0  0  0  0  0  0  0
    0.4060   14.5705   -5.9896 C   0  0  0  0  0  0  0  0  0  0  0  0
   -5.6528   14.0066  -14.2746 O   0  0  0  0  0  0  0  0  0  0  0  0
   -5.5002   11.5939  -10.3317 H   0  0  0  0  0  0  0  0  0  0  0  0
   -7.0066   12.5435  -10.0954 H   0  0  0  0  0  0  0  0  0  0  0  0
   -8.1361   10.1224  -13.9137 H   0  0  0  0  0  0  0  0  0  0  0  0
   -6.7956   12.2399  -14.0855 H   0  0  0  0  0  0  0  0  0  0  0  0
   -8.0279    9.5798   -7.2599 H   0  0  0  0  0  0  0  0  0  0  0  0
   -4.2429   16.0373  -13.8548 H   0  0  0  0  0  0  0  0  0  0  0  0
   -4.9638   16.2086  -12.2185 H   0  0  0  0  0  0  0  0  0  0  0  0
   -3.4785   15.2246  -12.4471 H   0  0  0  0  0  0  0  0  0  0  0  0
   -5.9851   10.0423   -6.7273 H   0  0  0  0  0  0  0  0  0  0  0  0
   -6.7526   12.3233   -6.9261 H   0  0  0  0  0  0  0  0  0  0  0  0
   -4.5246   13.2972   -6.4815 H   0  0  0  0  0  0  0  0  0  0  0  0
   -3.4585   11.1486   -6.2240 H   0  0  0  0  0  0  0  0  0  0  0  0
   -2.6730    9.7536   -8.0506 H   0  0  0  0  0  0  0  0  0  0  0  0
   -4.8993    8.7846   -8.4743 H   0  0  0  0  0  0  0  0  0  0  0  0
   -2.4278   14.2202   -6.2127 H   0  0  0  0  0  0  0  0  0  0  0  0
   -0.6614   10.5729   -7.5868 H   0  0  0  0  0  0  0  0  0  0  0  0
    1.4672   14.2904   -6.0634 H   0  0  0  0  0  0  0  0  0  0  0  0
    0.2117   15.4427   -6.6311 H   0  0  0  0  0  0  0  0  0  0  0  0
    0.1649   14.8218   -4.9462 H   0  0  0  0  0  0  0  0  0  0  0  0
  1  2  1  0  0  0  0
  1  4  1  0  0  0  0
  1 13  2  0  0  0  0
  2  6  1  0  0  0  0
  3  4  2  0  0  0  0
  3  5  1  0  0  0  0
  5  6  2  0  0  0  0
  5  9  1  0  0  0  0
  6  7  1  0  0  0  0
  7  8  1  0  0  0  0
  7 10  2  3  0  0  0
  8  9  2  0  0  0  0
 10 14  1  0  0  0  0
 11 12  1  0  0  0  0
 11 13  1  0  0  0  0
 11 26  2  0  0  0  0
 14 15  1  0  0  0  0
 14 19  1  0  0  0  0
 15 16  2  0  0  0  0
 16 17  1  0  0  0  0
 17 18  1  0  0  0  0
 17 20  1  0  0  0  0
 18 19  2  0  0  0  0
 20 21  2  0  0  0  0
 20 24  1  0  0  0  0
 21 22  1  0  0  0  0
 22 23  1  0  0  0  0
 22 25  1  0  0  0  0
 23 24  2  0  0  0  0
  2 27  1  0  0  0  0
  2 28  1  0  0  0  0
  3 29  1  0  0  0  0
  4 30  1  0  0  0  0
 10 31  1  0  0  0  0
 12 32  1  0  0  0  0
 12 33  1  0  0  0  0
 12 34  1  0  0  0  0
 14 35  1  0  0  0  0
 15 36  1  0  0  0  0
 16 37  1  0  0  0  0
 17 38  1  0  0  0  0
 18 39  1  0  0  0  0
 19 40  1  0  0  0  0
 21 41  1  0  0  0  0
 24 42  1  0  0  0  0
 25 43  1  0  0  0  0
 25 44  1  0  0  0  0
 25 45  1  0  0  0  0
M  END
> <Name>
24

> <IC50[uM]>
0.029

$$$$
24
  -OEChem-05192314333D
 Structure written by MMmdl.
 45 48  0     1  0  0  0  0  0999 V2000
   -6.3515   12.3530  -11.9813 C   0  0  0  0  0  0  0  0  0  0  0  0
   -6.5085   11.7912  -10.7247 C   0  0  0  0  0  0  0  0  0  0  0  0
   -7.6802   10.5716  -13.0438 C   0  0  0  0  0  0  0  0  0  0  0  0
   -6.9296   11.7657  -13.1245 C   0  0  0  0  0  0  0  0  0  0  0  0
   -7.7980   10.0044  -11.7669 C   0  0  0  0  0  0  0  0  0  0  0  0
   -7.2328   10.6109  -10.5989 C   0  0  0  0  0  0  0  0  0  0  0  0
   -7.6209    9.7375   -9.5162 C   0  0  3  0  0  0  0  0  0  0  0  0
   -8.2754    8.7446   -9.9970 N   0  0  0  0  0  0  0  0  0  0  0  0
   -8.4233    8.8800  -11.3218 N   0  0  0  0  0  0  0  0  0  0  0  0
   -7.3328    9.8812   -8.0296 C   0  0  0  0  0  0  0  0  0  0  0  0
   -5.3004   14.2773  -13.1499 C   0  0  0  0  0  0  0  0  0  0  0  0
   -4.4346   15.5261  -12.8998 C   0  0  0  0  0  0  0  0  0  0  0  0
   -5.5896   13.5586  -12.0343 N   0  0  0  0  0  0  0  0  0  0  0  0
   -5.9706   10.4906   -7.7317 C   0  0  0  0  0  0  0  0  0  0  0  0
   -5.8616   11.7632   -7.1684 C   0  0  0  0  0  0  0  0  0  0  0  0
   -4.6051   12.3126   -6.9180 C   0  0  0  0  0  0  0  0  0  0  0  0
   -3.4544   11.5948   -7.2294 C   0  0  0  0  0  0  0  0  0  0  0  0
   -3.5626   10.3128   -7.8011 C   0  0  0  0  0  0  0  0  0  0  0  0
   -4.8160    9.7710   -8.0425 C   0  0  0  0  0  0  0  0  0  0  0  0
   -2.1083   12.1736   -6.9694 C   0  0  0  0  0  0  0  0  0  0  0  0
   -1.7503   13.4247   -6.4858 C   0  0  0  0  0  0  0  0  0  0  0  0
   -0.4131   13.4674   -6.4189 N   0  0  0  0  0  0  0  0  0  0  0  0
    0.1758   12.3735   -6.8057 N   0  0  0  0  0  0  0  0  0  0  0  0
   -0.8094   11.5620   -7.1791 C   0  0  0  0  0  0  0  0  0  0  0  0
    0.4060   14.5705   -5.9896 C   0  0  0  0  0  0  0  0  0  0  0  0
   -5.6528   14.0066  -14.2746 O   0  0  0  0  0  0  0  0  0  0  0  0
   -5.5002   11.5939  -10.3317 H   0  0  0  0  0  0  0  0  0  0  0  0
   -7.0066   12.5435  -10.0954 H   0  0  0  0  0  0  0  0  0  0  0  0
   -8.1361   10.1224  -13.9137 H   0  0  0  0  0  0  0  0  0  0  0  0
   -6.7956   12.2399  -14.0855 H   0  0  0  0  0  0  0  0  0  0  0  0
   -8.5577   10.3007   -9.3927 H   0  0  0  0  0  0  0  0  0  0  0  0
   -8.0279    9.5798   -7.2599 H   0  0  0  0  0  0  0  0  0  0  0  0
   -4.2429   16.0373  -13.8548 H   0  0  0  0  0  0  0  0  0  0  0  0
   -4.9638   16.2086  -12.2185 H   0  0  0  0  0  0  0  0  0  0  0  0
   -3.4785   15.2246  -12.4471 H   0  0  0  0  0  0  0  0  0  0  0  0
   -6.7526   12.3233   -6.9261 H   0  0  0  0  0  0  0  0  0  0  0  0
   -4.5246   13.2972   -6.4815 H   0  0  0  0  0  0  0  0  0  0  0  0
   -3.4585   11.1486   -6.2240 H   0  0  0  0  0  0  0  0  0  0  0  0
   -2.6730    9.7536   -8.0506 H   0  0  0  0  0  0  0  0  0  0  0  0
   -4.8993    8.7846   -8.4743 H   0  0  0  0  0  0  0  0  0  0  0  0
   -2.4278   14.2202   -6.2127 H   0  0  0  0  0  0  0  0  0  0  0  0
   -0.6614   10.5729   -7.5868 H   0  0  0  0  0  0  0  0  0  0  0  0
    1.4672   14.2904   -6.0634 H   0  0  0  0  0  0  0  0  0  0  0  0
    0.2117   15.4427   -6.6311 H   0  0  0  0  0  0  0  0  0  0  0  0
    0.1649   14.8218   -4.9462 H   0  0  0  0  0  0  0  0  0  0  0  0
  1  2  1  0  0  0  0
  1  4  1  0  0  0  0
  1 13  2  0  0  0  0
  2  6  1  0  0  0  0
  3  4  2  0  0  0  0
  3  5  1  0  0  0  0
  5  6  2  0  0  0  0
  5  9  1  0  0  0  0
  6  7  1  0  0  0  0
  7  8  1  0  0  0  0
  7 10  1  0  0  0  0
  8  9  2  0  0  0  0
 10 14  2  0  0  0  0
 11 12  1  0  0  0  0
 11 13  1  0  0  0  0
 11 26  2  0  0  0  0
 14 15  1  0  0  0  0
 14 19  1  0  0  0  0
 15 16  2  0  0  0  0
 16 17  1  0  0  0  0
 17 18  1  0  0  0  0
 17 20  1  0  0  0  0
 18 19  2  0  0  0  0
 20 21  2  0  0  0  0
 20 24  1  0  0  0  0
 21 22  1  0  0  0  0
 22 23  1  0  0  0  0
 22 25  1  0  0  0  0
 23 24  2  0  0  0  0
  2 27  1  0  0  0  0
  2 28  1  0  0  0  0
  3 29  1  0  0  0  0
  4 30  1  0  0  0  0
  7 31  1  0  0  0  0
 10 32  1  0  0  0  0
 12 33  1  0  0  0  0
 12 34  1  0  0  0  0
 12 35  1  0  0  0  0
 15 36  1  0  0  0  0
 16 37  1  0  0  0  0
 17 38  1  0  0  0  0
 18 39  1  0  0  0  0
 19 40  1  0  0  0  0
 21 41  1  0  0  0  0
 24 42  1  0  0  0  0
 25 43  1  0  0  0  0
 25 44  1  0  0  0  0
 25 45  1  0  0  0  0
M  END
> <Name>
24

> <IC50[uM]>
0.029

$$$$
24
  -OEChem-05192314333D
 Structure written by MMmdl.
 45 48  0     1  0  0  0  0  0999 V2000
   -6.3515   12.3530  -11.9813 C   0  0  0  0  0  0  0  0  0  0  0  0
   -6.5085   11.7912  -10.7247 C   0  0  0  0  0  0  0  0  0  0  0  0
   -7.6802   10.5716  -13.0438 C   0  0  0  0  0  0  0  0  0  0  0  0
   -6.9296   11.7657  -13.1245 C   0  0  0  0  0  0  0  0  0  0  0  0
   -7.7980   10.0044  -11.7669 C   0  0  3  0  0  0  0  0  0  0  0  0
   -7.2328   10.6109  -10.5989 C   0  0  0  0  0  0  0  0  0  0  0  0
   -7.6209    9.7375   -9.5162 C   0  0  0  0  0  0  0  0  0  0  0  0
   -8.2754    8.7446   -9.9970 N   0  0  0  0  0  0  0  0  0  0  0  0
   -8.4233    8.8800  -11.3218 N   0  0  0  0  0  0  0  0  0  0  0  0
   -7.3328    9.8812   -8.0296 C   0  0  0  0  0  0  0  0  0  0  0  0
   -5.3004   14.2773  -13.1499 C   0  0  0  0  0  0  0  0  0  0  0  0
   -4.4346   15.5261  -12.8998 C   0  0  0  0  0  0  0  0  0  0  0  0
   -5.5896   13.5586  -12.0343 N   0  0  0  0  0  0  0  0  0  0  0  0
   -5.9706   10.4906   -7.7317 C   0  0  0  0  0  0  0  0  0  0  0  0
   -5.8616   11.7632   -7.1684 C   0  0  0  0  0  0  0  0  0  0  0  0
   -4.6051   12.3126   -6.9180 C   0  0  0  0  0  0  0  0  0  0  0  0
   -3.4544   11.5948   -7.2294 C   0  0  0  0  0  0  0  0  0  0  0  0
   -3.5626   10.3128   -7.8011 C   0  0  0  0  0  0  0  0  0  0  0  0
   -4.8160    9.7710   -8.0425 C   0  0  0  0  0  0  0  0  0  0  0  0
   -2.1083   12.1736   -6.9694 C   0  0  0  0  0  0  0  0  0  0  0  0
   -1.7503   13.4247   -6.4858 C   0  0  0  0  0  0  0  0  0  0  0  0
   -0.4131   13.4674   -6.4189 N   0  0  0  0  0  0  0  0  0  0  0  0
    0.1758   12.3735   -6.8057 N   0  0  0  0  0  0  0  0  0  0  0  0
   -0.8094   11.5620   -7.1791 C   0  0  0  0  0  0  0  0  0  0  0  0
    0.4060   14.5705   -5.9896 C   0  0  0  0  0  0  0  0  0  0  0  0
   -5.6528   14.0066  -14.2746 O   0  0  0  0  0  0  0  0  0  0  0  0
   -5.5002   11.5939  -10.3317 H   0  0  0  0  0  0  0  0  0  0  0  0
   -7.0066   12.5435  -10.0954 H   0  0  0  0  0  0  0  0  0  0  0  0
   -8.1361   10.1224  -13.9137 H   0  0  0  0  0  0  0  0  0  0  0  0
   -6.7956   12.2399  -14.0855 H   0  0  0  0  0  0  0  0  0  0  0  0
   -6.8712    9.4340  -11.9273 H   0  0  0  0  0  0  0  0  0  0  0  0
   -8.0279    9.5798   -7.2599 H   0  0  0  0  0  0  0  0  0  0  0  0
   -4.2429   16.0373  -13.8548 H   0  0  0  0  0  0  0  0  0  0  0  0
   -4.9638   16.2086  -12.2185 H   0  0  0  0  0  0  0  0  0  0  0  0
   -3.4785   15.2246  -12.4471 H   0  0  0  0  0  0  0  0  0  0  0  0
   -6.7526   12.3233   -6.9261 H   0  0  0  0  0  0  0  0  0  0  0  0
   -4.5246   13.2972   -6.4815 H   0  0  0  0  0  0  0  0  0  0  0  0
   -3.4585   11.1486   -6.2240 H   0  0  0  0  0  0  0  0  0  0  0  0
   -2.6730    9.7536   -8.0506 H   0  0  0  0  0  0  0  0  0  0  0  0
   -4.8993    8.7846   -8.4743 H   0  0  0  0  0  0  0  0  0  0  0  0
   -2.4278   14.2202   -6.2127 H   0  0  0  0  0  0  0  0  0  0  0  0
   -0.6614   10.5729   -7.5868 H   0  0  0  0  0  0  0  0  0  0  0  0
    1.4672   14.2904   -6.0634 H   0  0  0  0  0  0  0  0  0  0  0  0
    0.2117   15.4427   -6.6311 H   0  0  0  0  0  0  0  0  0  0  0  0
    0.1649   14.8218   -4.9462 H   0  0  0  0  0  0  0  0  0  0  0  0
  1  2  1  0  0  0  0
  1  4  1  0  0  0  0
  1 13  2  0  0  0  0
  2  6  1  0  0  0  0
  3  4  2  0  0  0  0
  3  5  1  0  0  0  0
  5  6  1  0  0  0  0
  5  9  1  0  0  0  0
  6  7  2  0  0  0  0
  7  8  1  0  0  0  0
  7 10  1  0  0  0  0
  8  9  2  0  0  0  0
 10 14  2  0  0  0  0
 11 12  1  0  0  0  0
 11 13  1  0  0  0  0
 11 26  2  0  0  0  0
 14 15  1  0  0  0  0
 14 19  1  0  0  0  0
 15 16  2  0  0  0  0
 16 17  1  0  0  0  0
 17 18  1  0  0  0  0
 17 20  1  0  0  0  0
 18 19  2  0  0  0  0
 20 21  2  0  0  0  0
 20 24  1  0  0  0  0
 21 22  1  0  0  0  0
 22 23  1  0  0  0  0
 22 25  1  0  0  0  0
 23 24  2  0  0  0  0
  2 27  1  0  0  0  0
  2 28  1  0  0  0  0
  3 29  1  0  0  0  0
  4 30  1  0  0  0  0
  5 31  1  0  0  0  0
 10 32  1  0  0  0  0
 12 33  1  0  0  0  0
 12 34  1  0  0  0  0
 12 35  1  0  0  0  0
 15 36  1  0  0  0  0
 16 37  1  0  0  0  0
 17 38  1  0  0  0  0
 18 39  1  0  0  0  0
 19 40  1  0  0  0  0
 21 41  1  0  0  0  0
 24 42  1  0  0  0  0
 25 43  1  0  0  0  0
 25 44  1  0  0  0  0
 25 45  1  0  0  0  0
M  END
> <Name>
24

> <IC50[uM]>
0.029

$$$$
24
  -OEChem-05192314333D
 Structure written by MMmdl.
 45 48  0     0  0  0  0  0  0999 V2000
   -6.3515   12.3530  -11.9813 C   0  0  0  0  0  0  0  0  0  0  0  0
   -6.5085   11.7912  -10.7247 C   0  0  0  0  0  0  0  0  0  0  0  0
   -7.6802   10.5716  -13.0438 C   0  0  0  0  0  0  0  0  0  0  0  0
   -6.9296   11.7657  -13.1245 C   0  0  0  0  0  0  0  0  0  0  0  0
   -7.7980   10.0044  -11.7669 C   0  0  0  0  0  0  0  0  0  0  0  0
   -7.2328   10.6109  -10.5989 C   0  0  0  0  0  0  0  0  0  0  0  0
   -7.6209    9.7375   -9.5162 C   0  0  0  0  0  0  0  0  0  0  0  0
   -8.2754    8.7446   -9.9970 N   0  0  0  0  0  0  0  0  0  0  0  0
   -8.4233    8.8800  -11.3218 N   0  0  0  0  0  0  0  0  0  0  0  0
   -7.3328    9.8812   -8.0296 C   0  0  0  0  0  0  0  0  0  0  0  0
   -5.3004   14.2773  -13.1499 C   0  0  0  0  0  0  0  0  0  0  0  0
   -4.4346   15.5261  -12.8998 C   0  0  0  0  0  0  0  0  0  0  0  0
   -5.5896   13.5586  -12.0343 N   0  0  0  0  0  0  0  0  0  0  0  0
   -5.9706   10.4906   -7.7317 C   0  0  0  0  0  0  0  0  0  0  0  0
   -5.8616   11.7632   -7.1684 C   0  0  0  0  0  0  0  0  0  0  0  0
   -4.6051   12.3126   -6.9180 C   0  0  0  0  0  0  0  0  0  0  0  0
   -3.4544   11.5948   -7.2294 C   0  0  0  0  0  0  0  0  0  0  0  0
   -3.5626   10.3128   -7.8011 C   0  0  0  0  0  0  0  0  0  0  0  0
   -4.8160    9.7710   -8.0425 C   0  0  0  0  0  0  0  0  0  0  0  0
   -2.1083   12.1736   -6.9694 C   0  0  0  0  0  0  0  0  0  0  0  0
   -1.7503   13.4247   -6.4858 C   0  0  0  0  0  0  0  0  0  0  0  0
   -0.4131   13.4674   -6.4189 N   0  0  0  0  0  0  0  0  0  0  0  0
    0.1758   12.3735   -6.8057 N   0  0  0  0  0  0  0  0  0  0  0  0
   -0.8094   11.5620   -7.1791 C   0  0  0  0  0  0  0  0  0  0  0  0
    0.4060   14.5705   -5.9896 C   0  0  0  0  0  0  0  0  0  0  0  0
   -5.6528   14.0066  -14.2746 O   0  0  0  0  0  0  0  0  0  0  0  0
   -5.5002   11.5939  -10.3317 H   0  0  0  0  0  0  0  0  0  0  0  0
   -7.0066   12.5435  -10.0954 H   0  0  0  0  0  0  0  0  0  0  0  0
   -8.1361   10.1224  -13.9137 H   0  0  0  0  0  0  0  0  0  0  0  0
   -7.5989   12.5237  -13.5575 H   0  0  0  0  0  0  0  0  0  0  0  0
   -6.1027   11.5654  -13.8217 H   0  0  0  0  0  0  0  0  0  0  0  0
   -8.0279    9.5798   -7.2599 H   0  0  0  0  0  0  0  0  0  0  0  0
   -4.2429   16.0373  -13.8548 H   0  0  0  0  0  0  0  0  0  0  0  0
   -4.9638   16.2086  -12.2185 H   0  0  0  0  0  0  0  0  0  0  0  0
   -3.4785   15.2246  -12.4471 H   0  0  0  0  0  0  0  0  0  0  0  0
   -6.7526   12.3233   -6.9261 H   0  0  0  0  0  0  0  0  0  0  0  0
   -4.5246   13.2972   -6.4815 H   0  0  0  0  0  0  0  0  0  0  0  0
   -3.4585   11.1486   -6.2240 H   0  0  0  0  0  0  0  0  0  0  0  0
   -2.6730    9.7536   -8.0506 H   0  0  0  0  0  0  0  0  0  0  0  0
   -4.8993    8.7846   -8.4743 H   0  0  0  0  0  0  0  0  0  0  0  0
   -2.4278   14.2202   -6.2127 H   0  0  0  0  0  0  0  0  0  0  0  0
   -0.6614   10.5729   -7.5868 H   0  0  0  0  0  0  0  0  0  0  0  0
    1.4672   14.2904   -6.0634 H   0  0  0  0  0  0  0  0  0  0  0  0
    0.2117   15.4427   -6.6311 H   0  0  0  0  0  0  0  0  0  0  0  0
    0.1649   14.8218   -4.9462 H   0  0  0  0  0  0  0  0  0  0  0  0
  1  2  1  0  0  0  0
  1  4  1  0  0  0  0
  1 13  2  0  0  0  0
  2  6  1  0  0  0  0
  3  4  1  0  0  0  0
  3  5  2  0  0  0  0
  5  6  1  0  0  0  0
  5  9  1  0  0  0  0
  6  7  2  0  0  0  0
  7  8  1  0  0  0  0
  7 10  1  0  0  0  0
  8  9  2  0  0  0  0
 10 14  2  0  0  0  0
 11 12  1  0  0  0  0
 11 13  1  0  0  0  0
 11 26  2  0  0  0  0
 14 15  1  0  0  0  0
 14 19  1  0  0  0  0
 15 16  2  0  0  0  0
 16 17  1  0  0  0  0
 17 18  1  0  0  0  0
 17 20  1  0  0  0  0
 18 19  2  0  0  0  0
 20 21  2  0  0  0  0
 20 24  1  0  0  0  0
 21 22  1  0  0  0  0
 22 23  1  0  0  0  0
 22 25  1  0  0  0  0
 23 24  2  0  0  0  0
  2 27  1  0  0  0  0
  2 28  1  0  0  0  0
  3 29  1  0  0  0  0
  4 30  1  0  0  0  0
  4 31  1  0  0  0  0
 10 32  1  0  0  0  0
 12 33  1  0  0  0  0
 12 34  1  0  0  0  0
 12 35  1  0  0  0  0
 15 36  1  0  0  0  0
 16 37  1  0  0  0  0
 17 38  1  0  0  0  0
 18 39  1  0  0  0  0
 19 40  1  0  0  0  0
 21 41  1  0  0  0  0
 24 42  1  0  0  0  0
 25 43  1  0  0  0  0
 25 44  1  0  0  0  0
 25 45  1  0  0  0  0
M  END
> <Name>
24

> <IC50[uM]>
0.029

$$$$
24
  -OEChem-05192314333D
 Structure written by MMmdl.
 45 48  0     1  0  0  0  0  0999 V2000
   -6.3515   12.3530  -11.9813 C   0  0  0  0  0  0  0  0  0  0  0  0
   -6.5085   11.7912  -10.7247 C   0  0  0  0  0  0  0  0  0  0  0  0
   -7.6802   10.5716  -13.0438 C   0  0  0  0  0  0  0  0  0  0  0  0
   -6.9296   11.7657  -13.1245 C   0  0  0  0  0  0  0  0  0  0  0  0
   -7.7980   10.0044  -11.7669 C   0  0  0  0  0  0  0  0  0  0  0  0
   -7.2328   10.6109  -10.5989 C   0  0  0  0  0  0  0  0  0  0  0  0
   -7.6209    9.7375   -9.5162 C   0  0  0  0  0  0  0  0  0  0  0  0
   -8.2754    8.7446   -9.9970 N   0  0  0  0  0  0  0  0  0  0  0  0
   -8.4233    8.8800  -11.3218 N   0  0  0  0  0  0  0  0  0  0  0  0
   -7.3328    9.8812   -8.0296 C   0  0  0  0  0  0  0  0  0  0  0  0
   -5.3004   14.2773  -13.1499 C   0  0  0  0  0  0  0  0  0  0  0  0
   -4.4346   15.5261  -12.8998 C   0  0  0  0  0  0  0  0  0  0  0  0
   -5.5896   13.5586  -12.0343 N   0  0  0  0  0  0  0  0  0  0  0  0
   -5.9706   10.4906   -7.7317 C   0  0  0  0  0  0  0  0  0  0  0  0
   -5.8616   11.7632   -7.1684 C   0  0  0  0  0  0  0  0  0  0  0  0
   -4.6051   12.3126   -6.9180 C   0  0  0  0  0  0  0  0  0  0  0  0
   -3.4544   11.5948   -7.2294 C   0  0  3  0  0  0  0  0  0  0  0  0
   -3.5626   10.3128   -7.8011 C   0  0  0  0  0  0  0  0  0  0  0  0
   -4.8160    9.7710   -8.0425 C   0  0  0  0  0  0  0  0  0  0  0  0
   -2.1083   12.1736   -6.9694 C   0  0  0  0  0  0  0  0  0  0  0  0
   -1.7503   13.4247   -6.4858 C   0  0  0  0  0  0  0  0  0  0  0  0
   -0.4131   13.4674   -6.4189 N   0  0  0  0  0  0  0  0  0  0  0  0
    0.1758   12.3735   -6.8057 N   0  0  0  0  0  0  0  0  0  0  0  0
   -0.8094   11.5620   -7.1791 C   0  0  0  0  0  0  0  0  0  0  0  0
    0.4060   14.5705   -5.9896 C   0  0  0  0  0  0  0  0  0  0  0  0
   -5.6528   14.0066  -14.2746 O   0  0  0  0  0  0  0  0  0  0  0  0
   -5.5002   11.5939  -10.3317 H   0  0  0  0  0  0  0  0  0  0  0  0
   -7.0066   12.5435  -10.0954 H   0  0  0  0  0  0  0  0  0  0  0  0
   -8.1361   10.1224  -13.9137 H   0  0  0  0  0  0  0  0  0  0  0  0
   -6.7956   12.2399  -14.0855 H   0  0  0  0  0  0  0  0  0  0  0  0
   -8.0279    9.5798   -7.2599 H   0  0  0  0  0  0  0  0  0  0  0  0
   -4.2429   16.0373  -13.8548 H   0  0  0  0  0  0  0  0  0  0  0  0
   -4.9638   16.2086  -12.2185 H   0  0  0  0  0  0  0  0  0  0  0  0
   -3.4785   15.2246  -12.4471 H   0  0  0  0  0  0  0  0  0  0  0  0
   -6.7526   12.3233   -6.9261 H   0  0  0  0  0  0  0  0  0  0  0  0
   -4.5531   13.2553   -7.4825 H   0  0  0  0  0  0  0  0  0  0  0  0
   -4.5624   12.5279   -5.8401 H   0  0  0  0  0  0  0  0  0  0  0  0
   -3.4585   11.1486   -6.2240 H   0  0  0  0  0  0  0  0  0  0  0  0
   -2.6730    9.7536   -8.0506 H   0  0  0  0  0  0  0  0  0  0  0  0
   -4.8993    8.7846   -8.4743 H   0  0  0  0  0  0  0  0  0  0  0  0
   -2.4278   14.2202   -6.2127 H   0  0  0  0  0  0  0  0  0  0  0  0
   -0.6614   10.5729   -7.5868 H   0  0  0  0  0  0  0  0  0  0  0  0
    1.4672   14.2904   -6.0634 H   0  0  0  0  0  0  0  0  0  0  0  0
    0.2117   15.4427   -6.6311 H   0  0  0  0  0  0  0  0  0  0  0  0
    0.1649   14.8218   -4.9462 H   0  0  0  0  0  0  0  0  0  0  0  0
  1  2  1  0  0  0  0
  1  4  1  0  0  0  0
  1 13  2  0  0  0  0
  2  6  1  0  0  0  0
  3  4  2  0  0  0  0
  3  5  1  0  0  0  0
  5  6  2  0  0  0  0
  5  9  1  0  0  0  0
  6  7  1  0  0  0  0
  7  8  1  0  0  0  0
  7 10  2  3  0  0  0
  8  9  2  0  0  0  0
 10 14  1  0  0  0  0
 11 12  1  0  0  0  0
 11 13  1  0  0  0  0
 11 26  2  0  0  0  0
 14 15  2  0  0  0  0
 14 19  1  0  0  0  0
 15 16  1  0  0  0  0
 16 17  1  0  0  0  0
 17 18  1  0  0  0  0
 17 20  1  0  0  0  0
 18 19  2  0  0  0  0
 20 21  2  0  0  0  0
 20 24  1  0  0  0  0
 21 22  1  0  0  0  0
 22 23  1  0  0  0  0
 22 25  1  0  0  0  0
 23 24  2  0  0  0  0
  2 27  1  0  0  0  0
  2 28  1  0  0  0  0
  3 29  1  0  0  0  0
  4 30  1  0  0  0  0
 10 31  1  0  0  0  0
 12 32  1  0  0  0  0
 12 33  1  0  0  0  0
 12 34  1  0  0  0  0
 15 35  1  0  0  0  0
 16 36  1  0  0  0  0
 16 37  1  0  0  0  0
 17 38  1  0  0  0  0
 18 39  1  0  0  0  0
 19 40  1  0  0  0  0
 21 41  1  0  0  0  0
 24 42  1  0  0  0  0
 25 43  1  0  0  0  0
 25 44  1  0  0  0  0
 25 45  1  0  0  0  0
M  END
> <Name>
24

> <IC50[uM]>
0.029

$$$$
24
  -OEChem-05192314333D
 Structure written by MMmdl.
 45 48  0     1  0  0  0  0  0999 V2000
   -6.3515   12.3530  -11.9813 C   0  0  0  0  0  0  0  0  0  0  0  0
   -6.5085   11.7912  -10.7247 C   0  0  0  0  0  0  0  0  0  0  0  0
   -7.6802   10.5716  -13.0438 C   0  0  0  0  0  0  0  0  0  0  0  0
   -6.9296   11.7657  -13.1245 C   0  0  0  0  0  0  0  0  0  0  0  0
   -7.7980   10.0044  -11.7669 C   0  0  0  0  0  0  0  0  0  0  0  0
   -7.2328   10.6109  -10.5989 C   0  0  0  0  0  0  0  0  0  0  0  0
   -7.6209    9.7375   -9.5162 C   0  0  0  0  0  0  0  0  0  0  0  0
   -8.2754    8.7446   -9.9970 N   0  0  0  0  0  0  0  0  0  0  0  0
   -8.4233    8.8800  -11.3218 N   0  0  0  0  0  0  0  0  0  0  0  0
   -7.3328    9.8812   -8.0296 C   0  0  0  0  0  0  0  0  0  0  0  0
   -5.3004   14.2773  -13.1499 C   0  0  0  0  0  0  0  0  0  0  0  0
   -4.4346   15.5261  -12.8998 C   0  0  0  0  0  0  0  0  0  0  0  0
   -5.5896   13.5586  -12.0343 N   0  0  0  0  0  0  0  0  0  0  0  0
   -5.9706   10.4906   -7.7317 C   0  0  3  0  0  0  0  0  0  0  0  0
   -5.8616   11.7632   -7.1684 C   0  0  0  0  0  0  0  0  0  0  0  0
   -4.6051   12.3126   -6.9180 C   0  0  0  0  0  0  0  0  0  0  0  0
   -3.4544   11.5948   -7.2294 C   0  0  0  0  0  0  0  0  0  0  0  0
   -3.5626   10.3128   -7.8011 C   0  0  0  0  0  0  0  0  0  0  0  0
   -4.8160    9.7710   -8.0425 C   0  0  0  0  0  0  0  0  0  0  0  0
   -2.1083   12.1736   -6.9694 C   0  0  0  0  0  0  0  0  0  0  0  0
   -1.7503   13.4247   -6.4858 C   0  0  0  0  0  0  0  0  0  0  0  0
   -0.4131   13.4674   -6.4189 N   0  0  0  0  0  0  0  0  0  0  0  0
    0.1758   12.3735   -6.8057 N   0  0  0  0  0  0  0  0  0  0  0  0
   -0.8094   11.5620   -7.1791 C   0  0  0  0  0  0  0  0  0  0  0  0
    0.4060   14.5705   -5.9896 C   0  0  0  0  0  0  0  0  0  0  0  0
   -5.6528   14.0066  -14.2746 O   0  0  0  0  0  0  0  0  0  0  0  0
   -5.5002   11.5939  -10.3317 H   0  0  0  0  0  0  0  0  0  0  0  0
   -7.0066   12.5435  -10.0954 H   0  0  0  0  0  0  0  0  0  0  0  0
   -8.1361   10.1224  -13.9137 H   0  0  0  0  0  0  0  0  0  0  0  0
   -6.7956   12.2399  -14.0855 H   0  0  0  0  0  0  0  0  0  0  0  0
   -8.0279    9.5798   -7.2599 H   0  0  0  0  0  0  0  0  0  0  0  0
   -4.2429   16.0373  -13.8548 H   0  0  0  0  0  0  0  0  0  0  0  0
   -4.9638   16.2086  -12.2185 H   0  0  0  0  0  0  0  0  0  0  0  0
   -3.4785   15.2246  -12.4471 H   0  0  0  0  0  0  0  0  0  0  0  0
   -5.9851   10.0423   -6.7273 H   0  0  0  0  0  0  0  0  0  0  0  0
   -6.7526   12.3233   -6.9261 H   0  0  0  0  0  0  0  0  0  0  0  0
   -4.5246   13.2972   -6.4815 H   0  0  0  0  0  0  0  0  0  0  0  0
   -2.6730    9.7536   -8.0506 H   0  0  0  0  0  0  0  0  0  0  0  0
   -4.8679    8.8310   -7.4736 H   0  0  0  0  0  0  0  0  0  0  0  0
   -4.8621    9.5509   -9.1193 H   0  0  0  0  0  0  0  0  0  0  0  0
   -2.4278   14.2202   -6.2127 H   0  0  0  0  0  0  0  0  0  0  0  0
   -0.6614   10.5729   -7.5868 H   0  0  0  0  0  0  0  0  0  0  0  0
    1.4672   14.2904   -6.0634 H   0  0  0  0  0  0  0  0  0  0  0  0
    0.2117   15.4427   -6.6311 H   0  0  0  0  0  0  0  0  0  0  0  0
    0.1649   14.8218   -4.9462 H   0  0  0  0  0  0  0  0  0  0  0  0
  1  2  1  0  0  0  0
  1  4  1  0  0  0  0
  1 13  2  0  0  0  0
  2  6  1  0  0  0  0
  3  4  2  0  0  0  0
  3  5  1  0  0  0  0
  5  6  2  0  0  0  0
  5  9  1  0  0  0  0
  6  7  1  0  0  0  0
  7  8  1  0  0  0  0
  7 10  2  3  0  0  0
  8  9  2  0  0  0  0
 10 14  1  0  0  0  0
 11 12  1  0  0  0  0
 11 13  1  0  0  0  0
 11 26  2  0  0  0  0
 14 15  1  0  0  0  0
 14 19  1  0  0  0  0
 15 16  2  0  0  0  0
 16 17  1  0  0  0  0
 17 18  2  0  0  0  0
 17 20  1  0  0  0  0
 18 19  1  0  0  0  0
 20 21  2  0  0  0  0
 20 24  1  0  0  0  0
 21 22  1  0  0  0  0
 22 23  1  0  0  0  0
 22 25  1  0  0  0  0
 23 24  2  0  0  0  0
  2 27  1  0  0  0  0
  2 28  1  0  0  0  0
  3 29  1  0  0  0  0
  4 30  1  0  0  0  0
 10 31  1  0  0  0  0
 12 32  1  0  0  0  0
 12 33  1  0  0  0  0
 12 34  1  0  0  0  0
 14 35  1  0  0  0  0
 15 36  1  0  0  0  0
 16 37  1  0  0  0  0
 18 38  1  0  0  0  0
 19 39  1  0  0  0  0
 19 40  1  0  0  0  0
 21 41  1  0  0  0  0
 24 42  1  0  0  0  0
 25 43  1  0  0  0  0
 25 44  1  0  0  0  0
 25 45  1  0  0  0  0
M  END
> <Name>
24

> <IC50[uM]>
0.029

$$$$
24
  -OEChem-05192314333D
 Structure written by MMmdl.
 45 48  0     1  0  0  0  0  0999 V2000
   -6.3515   12.3530  -11.9813 C   0  0  0  0  0  0  0  0  0  0  0  0
   -6.5085   11.7912  -10.7247 C   0  0  0  0  0  0  0  0  0  0  0  0
   -7.6802   10.5716  -13.0438 C   0  0  0  0  0  0  0  0  0  0  0  0
   -6.9296   11.7657  -13.1245 C   0  0  0  0  0  0  0  0  0  0  0  0
   -7.7980   10.0044  -11.7669 C   0  0  0  0  0  0  0  0  0  0  0  0
   -7.2328   10.6109  -10.5989 C   0  0  0  0  0  0  0  0  0  0  0  0
   -7.6209    9.7375   -9.5162 C   0  0  3  0  0  0  0  0  0  0  0  0
   -8.2754    8.7446   -9.9970 N   0  0  0  0  0  0  0  0  0  0  0  0
   -8.4233    8.8800  -11.3218 N   0  0  0  0  0  0  0  0  0  0  0  0
   -7.3328    9.8812   -8.0296 C   0  0  0  0  0  0  0  0  0  0  0  0
   -5.3004   14.2773  -13.1499 C   0  0  0  0  0  0  0  0  0  0  0  0
   -4.4346   15.5261  -12.8998 C   0  0  0  0  0  0  0  0  0  0  0  0
   -5.5896   13.5586  -12.0343 N   0  0  0  0  0  0  0  0  0  0  0  0
   -5.9706   10.4906   -7.7317 C   0  0  0  0  0  0  0  0  0  0  0  0
   -5.8616   11.7632   -7.1684 C   0  0  0  0  0  0  0  0  0  0  0  0
   -4.6051   12.3126   -6.9180 C   0  0  0  0  0  0  0  0  0  0  0  0
   -3.4544   11.5948   -7.2294 C   0  0  0  0  0  0  0  0  0  0  0  0
   -3.5626   10.3128   -7.8011 C   0  0  0  0  0  0  0  0  0  0  0  0
   -4.8160    9.7710   -8.0425 C   0  0  0  0  0  0  0  0  0  0  0  0
   -2.1083   12.1736   -6.9694 C   0  0  0  0  0  0  0  0  0  0  0  0
   -1.7503   13.4247   -6.4858 C   0  0  0  0  0  0  0  0  0  0  0  0
   -0.4131   13.4674   -6.4189 N   0  0  0  0  0  0  0  0  0  0  0  0
    0.1758   12.3735   -6.8057 N   0  0  0  0  0  0  0  0  0  0  0  0
   -0.8094   11.5620   -7.1791 C   0  0  0  0  0  0  0  0  0  0  0  0
    0.4060   14.5705   -5.9896 C   0  0  0  0  0  0  0  0  0  0  0  0
   -5.6528   14.0066  -14.2746 O   0  0  0  0  0  0  0  0  0  0  0  0
   -5.5002   11.5939  -10.3317 H   0  0  0  0  0  0  0  0  0  0  0  0
   -7.0066   12.5435  -10.0954 H   0  0  0  0  0  0  0  0  0  0  0  0
   -8.1361   10.1224  -13.9137 H   0  0  0  0  0  0  0  0  0  0  0  0
   -6.7956   12.2399  -14.0855 H   0  0  0  0  0  0  0  0  0  0  0  0
   -8.5577   10.3007   -9.3927 H   0  0  0  0  0  0  0  0  0  0  0  0
   -8.0279    9.5798   -7.2599 H   0  0  0  0  0  0  0  0  0  0  0  0
   -4.2429   16.0373  -13.8548 H   0  0  0  0  0  0  0  0  0  0  0  0
   -4.9638   16.2086  -12.2185 H   0  0  0  0  0  0  0  0  0  0  0  0
   -3.4785   15.2246  -12.4471 H   0  0  0  0  0  0  0  0  0  0  0  0
   -6.7526   12.3233   -6.9261 H   0  0  0  0  0  0  0  0  0  0  0  0
   -4.5246   13.2972   -6.4815 H   0  0  0  0  0  0  0  0  0  0  0  0
   -2.6730    9.7536   -8.0506 H   0  0  0  0  0  0  0  0  0  0  0  0
   -4.8679    8.8310   -7.4736 H   0  0  0  0  0  0  0  0  0  0  0  0
   -4.8621    9.5509   -9.1193 H   0  0  0  0  0  0  0  0  0  0  0  0
   -2.4278   14.2202   -6.2127 H   0  0  0  0  0  0  0  0  0  0  0  0
   -0.6614   10.5729   -7.5868 H   0  0  0  0  0  0  0  0  0  0  0  0
    1.4672   14.2904   -6.0634 H   0  0  0  0  0  0  0  0  0  0  0  0
    0.2117   15.4427   -6.6311 H   0  0  0  0  0  0  0  0  0  0  0  0
    0.1649   14.8218   -4.9462 H   0  0  0  0  0  0  0  0  0  0  0  0
  1  2  1  0  0  0  0
  1  4  1  0  0  0  0
  1 13  2  0  0  0  0
  2  6  1  0  0  0  0
  3  4  2  0  0  0  0
  3  5  1  0  0  0  0
  5  6  2  0  0  0  0
  5  9  1  0  0  0  0
  6  7  1  0  0  0  0
  7  8  1  0  0  0  0
  7 10  1  0  0  0  0
  8  9  2  0  0  0  0
 10 14  2  3  0  0  0
 11 12  1  0  0  0  0
 11 13  1  0  0  0  0
 11 26  2  0  0  0  0
 14 15  1  0  0  0  0
 14 19  1  0  0  0  0
 15 16  2  0  0  0  0
 16 17  1  0  0  0  0
 17 18  2  0  0  0  0
 17 20  1  0  0  0  0
 18 19  1  0  0  0  0
 20 21  2  0  0  0  0
 20 24  1  0  0  0  0
 21 22  1  0  0  0  0
 22 23  1  0  0  0  0
 22 25  1  0  0  0  0
 23 24  2  0  0  0  0
  2 27  1  0  0  0  0
  2 28  1  0  0  0  0
  3 29  1  0  0  0  0
  4 30  1  0  0  0  0
  7 31  1  0  0  0  0
 10 32  1  0  0  0  0
 12 33  1  0  0  0  0
 12 34  1  0  0  0  0
 12 35  1  0  0  0  0
 15 36  1  0  0  0  0
 16 37  1  0  0  0  0
 18 38  1  0  0  0  0
 19 39  1  0  0  0  0
 19 40  1  0  0  0  0
 21 41  1  0  0  0  0
 24 42  1  0  0  0  0
 25 43  1  0  0  0  0
 25 44  1  0  0  0  0
 25 45  1  0  0  0  0
M  END
> <Name>
24

> <IC50[uM]>
0.029

$$$$
24
  -OEChem-05192314333D
 Structure written by MMmdl.
 45 48  0     1  0  0  0  0  0999 V2000
   -6.3515   12.3530  -11.9813 C   0  0  0  0  0  0  0  0  0  0  0  0
   -6.5085   11.7912  -10.7247 C   0  0  0  0  0  0  0  0  0  0  0  0
   -7.6802   10.5716  -13.0438 C   0  0  0  0  0  0  0  0  0  0  0  0
   -6.9296   11.7657  -13.1245 C   0  0  0  0  0  0  0  0  0  0  0  0
   -7.7980   10.0044  -11.7669 C   0  0  3  0  0  0  0  0  0  0  0  0
   -7.2328   10.6109  -10.5989 C   0  0  0  0  0  0  0  0  0  0  0  0
   -7.6209    9.7375   -9.5162 C   0  0  0  0  0  0  0  0  0  0  0  0
   -8.2754    8.7446   -9.9970 N   0  0  0  0  0  0  0  0  0  0  0  0
   -8.4233    8.8800  -11.3218 N   0  0  0  0  0  0  0  0  0  0  0  0
   -7.3328    9.8812   -8.0296 C   0  0  0  0  0  0  0  0  0  0  0  0
   -5.3004   14.2773  -13.1499 C   0  0  0  0  0  0  0  0  0  0  0  0
   -4.4346   15.5261  -12.8998 C   0  0  0  0  0  0  0  0  0  0  0  0
   -5.5896   13.5586  -12.0343 N   0  0  0  0  0  0  0  0  0  0  0  0
   -5.9706   10.4906   -7.7317 C   0  0  0  0  0  0  0  0  0  0  0  0
   -5.8616   11.7632   -7.1684 C   0  0  0  0  0  0  0  0  0  0  0  0
   -4.6051   12.3126   -6.9180 C   0  0  0  0  0  0  0  0  0  0  0  0
   -3.4544   11.5948   -7.2294 C   0  0  0  0  0  0  0  0  0  0  0  0
   -3.5626   10.3128   -7.8011 C   0  0  0  0  0  0  0  0  0  0  0  0
   -4.8160    9.7710   -8.0425 C   0  0  0  0  0  0  0  0  0  0  0  0
   -2.1083   12.1736   -6.9694 C   0  0  0  0  0  0  0  0  0  0  0  0
   -1.7503   13.4247   -6.4858 C   0  0  0  0  0  0  0  0  0  0  0  0
   -0.4131   13.4674   -6.4189 N   0  0  0  0  0  0  0  0  0  0  0  0
    0.1758   12.3735   -6.8057 N   0  0  0  0  0  0  0  0  0  0  0  0
   -0.8094   11.5620   -7.1791 C   0  0  0  0  0  0  0  0  0  0  0  0
    0.4060   14.5705   -5.9896 C   0  0  0  0  0  0  0  0  0  0  0  0
   -5.6528   14.0066  -14.2746 O   0  0  0  0  0  0  0  0  0  0  0  0
   -5.5002   11.5939  -10.3317 H   0  0  0  0  0  0  0  0  0  0  0  0
   -7.0066   12.5435  -10.0954 H   0  0  0  0  0  0  0  0  0  0  0  0
   -8.1361   10.1224  -13.9137 H   0  0  0  0  0  0  0  0  0  0  0  0
   -6.7956   12.2399  -14.0855 H   0  0  0  0  0  0  0  0  0  0  0  0
   -6.8712    9.4340  -11.9273 H   0  0  0  0  0  0  0  0  0  0  0  0
   -8.0279    9.5798   -7.2599 H   0  0  0  0  0  0  0  0  0  0  0  0
   -4.2429   16.0373  -13.8548 H   0  0  0  0  0  0  0  0  0  0  0  0
   -4.9638   16.2086  -12.2185 H   0  0  0  0  0  0  0  0  0  0  0  0
   -3.4785   15.2246  -12.4471 H   0  0  0  0  0  0  0  0  0  0  0  0
   -6.7526   12.3233   -6.9261 H   0  0  0  0  0  0  0  0  0  0  0  0
   -4.5246   13.2972   -6.4815 H   0  0  0  0  0  0  0  0  0  0  0  0
   -2.6730    9.7536   -8.0506 H   0  0  0  0  0  0  0  0  0  0  0  0
   -4.8679    8.8310   -7.4736 H   0  0  0  0  0  0  0  0  0  0  0  0
   -4.8621    9.5509   -9.1193 H   0  0  0  0  0  0  0  0  0  0  0  0
   -2.4278   14.2202   -6.2127 H   0  0  0  0  0  0  0  0  0  0  0  0
   -0.6614   10.5729   -7.5868 H   0  0  0  0  0  0  0  0  0  0  0  0
    1.4672   14.2904   -6.0634 H   0  0  0  0  0  0  0  0  0  0  0  0
    0.2117   15.4427   -6.6311 H   0  0  0  0  0  0  0  0  0  0  0  0
    0.1649   14.8218   -4.9462 H   0  0  0  0  0  0  0  0  0  0  0  0
  1  2  1  0  0  0  0
  1  4  1  0  0  0  0
  1 13  2  0  0  0  0
  2  6  1  0  0  0  0
  3  4  2  0  0  0  0
  3  5  1  0  0  0  0
  5  6  1  0  0  0  0
  5  9  1  0  0  0  0
  6  7  2  0  0  0  0
  7  8  1  0  0  0  0
  7 10  1  0  0  0  0
  8  9  2  0  0  0  0
 10 14  2  3  0  0  0
 11 12  1  0  0  0  0
 11 13  1  0  0  0  0
 11 26  2  0  0  0  0
 14 15  1  0  0  0  0
 14 19  1  0  0  0  0
 15 16  2  0  0  0  0
 16 17  1  0  0  0  0
 17 18  2  0  0  0  0
 17 20  1  0  0  0  0
 18 19  1  0  0  0  0
 20 21  2  0  0  0  0
 20 24  1  0  0  0  0
 21 22  1  0  0  0  0
 22 23  1  0  0  0  0
 22 25  1  0  0  0  0
 23 24  2  0  0  0  0
  2 27  1  0  0  0  0
  2 28  1  0  0  0  0
  3 29  1  0  0  0  0
  4 30  1  0  0  0  0
  5 31  1  0  0  0  0
 10 32  1  0  0  0  0
 12 33  1  0  0  0  0
 12 34  1  0  0  0  0
 12 35  1  0  0  0  0
 15 36  1  0  0  0  0
 16 37  1  0  0  0  0
 18 38  1  0  0  0  0
 19 39  1  0  0  0  0
 19 40  1  0  0  0  0
 21 41  1  0  0  0  0
 24 42  1  0  0  0  0
 25 43  1  0  0  0  0
 25 44  1  0  0  0  0
 25 45  1  0  0  0  0
M  END
> <Name>
24

> <IC50[uM]>
0.029

$$$$
24
  -OEChem-05192314333D
 Structure written by MMmdl.
 45 48  0     0  0  0  0  0  0999 V2000
   -6.3515   12.3530  -11.9813 C   0  0  0  0  0  0  0  0  0  0  0  0
   -6.5085   11.7912  -10.7247 C   0  0  0  0  0  0  0  0  0  0  0  0
   -7.6802   10.5716  -13.0438 C   0  0  0  0  0  0  0  0  0  0  0  0
   -6.9296   11.7657  -13.1245 C   0  0  0  0  0  0  0  0  0  0  0  0
   -7.7980   10.0044  -11.7669 C   0  0  0  0  0  0  0  0  0  0  0  0
   -7.2328   10.6109  -10.5989 C   0  0  0  0  0  0  0  0  0  0  0  0
   -7.6209    9.7375   -9.5162 C   0  0  0  0  0  0  0  0  0  0  0  0
   -8.2754    8.7446   -9.9970 N   0  0  0  0  0  0  0  0  0  0  0  0
   -8.4233    8.8800  -11.3218 N   0  0  0  0  0  0  0  0  0  0  0  0
   -7.3328    9.8812   -8.0296 C   0  0  0  0  0  0  0  0  0  0  0  0
   -5.3004   14.2773  -13.1499 C   0  0  0  0  0  0  0  0  0  0  0  0
   -4.4346   15.5261  -12.8998 C   0  0  0  0  0  0  0  0  0  0  0  0
   -5.5896   13.5586  -12.0343 N   0  0  0  0  0  0  0  0  0  0  0  0
   -5.9706   10.4906   -7.7317 C   0  0  0  0  0  0  0  0  0  0  0  0
   -5.8616   11.7632   -7.1684 C   0  0  0  0  0  0  0  0  0  0  0  0
   -4.6051   12.3126   -6.9180 C   0  0  0  0  0  0  0  0  0  0  0  0
   -3.4544   11.5948   -7.2294 C   0  0  0  0  0  0  0  0  0  0  0  0
   -3.5626   10.3128   -7.8011 C   0  0  0  0  0  0  0  0  0  0  0  0
   -4.8160    9.7710   -8.0425 C   0  0  0  0  0  0  0  0  0  0  0  0
   -2.1083   12.1736   -6.9694 C   0  0  0  0  0  0  0  0  0  0  0  0
   -1.7503   13.4247   -6.4858 C   0  0  0  0  0  0  0  0  0  0  0  0
   -0.4131   13.4674   -6.4189 N   0  0  0  0  0  0  0  0  0  0  0  0
    0.1758   12.3735   -6.8057 N   0  0  0  0  0  0  0  0  0  0  0  0
   -0.8094   11.5620   -7.1791 C   0  0  0  0  0  0  0  0  0  0  0  0
    0.4060   14.5705   -5.9896 C   0  0  0  0  0  0  0  0  0  0  0  0
   -5.6528   14.0066  -14.2746 O   0  0  0  0  0  0  0  0  0  0  0  0
   -5.5002   11.5939  -10.3317 H   0  0  0  0  0  0  0  0  0  0  0  0
   -7.0066   12.5435  -10.0954 H   0  0  0  0  0  0  0  0  0  0  0  0
   -8.1361   10.1224  -13.9137 H   0  0  0  0  0  0  0  0  0  0  0  0
   -7.5989   12.5237  -13.5575 H   0  0  0  0  0  0  0  0  0  0  0  0
   -6.1027   11.5654  -13.8217 H   0  0  0  0  0  0  0  0  0  0  0  0
   -8.0279    9.5798   -7.2599 H   0  0  0  0  0  0  0  0  0  0  0  0
   -4.2429   16.0373  -13.8548 H   0  0  0  0  0  0  0  0  0  0  0  0
   -4.9638   16.2086  -12.2185 H   0  0  0  0  0  0  0  0  0  0  0  0
   -3.4785   15.2246  -12.4471 H   0  0  0  0  0  0  0  0  0  0  0  0
   -6.7526   12.3233   -6.9261 H   0  0  0  0  0  0  0  0  0  0  0  0
   -4.5246   13.2972   -6.4815 H   0  0  0  0  0  0  0  0  0  0  0  0
   -2.6730    9.7536   -8.0506 H   0  0  0  0  0  0  0  0  0  0  0  0
   -4.8679    8.8310   -7.4736 H   0  0  0  0  0  0  0  0  0  0  0  0
   -4.8621    9.5509   -9.1193 H   0  0  0  0  0  0  0  0  0  0  0  0
   -2.4278   14.2202   -6.2127 H   0  0  0  0  0  0  0  0  0  0  0  0
   -0.6614   10.5729   -7.5868 H   0  0  0  0  0  0  0  0  0  0  0  0
    1.4672   14.2904   -6.0634 H   0  0  0  0  0  0  0  0  0  0  0  0
    0.2117   15.4427   -6.6311 H   0  0  0  0  0  0  0  0  0  0  0  0
    0.1649   14.8218   -4.9462 H   0  0  0  0  0  0  0  0  0  0  0  0
  1  2  1  0  0  0  0
  1  4  1  0  0  0  0
  1 13  2  0  0  0  0
  2  6  1  0  0  0  0
  3  4  1  0  0  0  0
  3  5  2  0  0  0  0
  5  6  1  0  0  0  0
  5  9  1  0  0  0  0
  6  7  2  0  0  0  0
  7  8  1  0  0  0  0
  7 10  1  0  0  0  0
  8  9  2  0  0  0  0
 10 14  2  3  0  0  0
 11 12  1  0  0  0  0
 11 13  1  0  0  0  0
 11 26  2  0  0  0  0
 14 15  1  0  0  0  0
 14 19  1  0  0  0  0
 15 16  2  0  0  0  0
 16 17  1  0  0  0  0
 17 18  2  0  0  0  0
 17 20  1  0  0  0  0
 18 19  1  0  0  0  0
 20 21  2  0  0  0  0
 20 24  1  0  0  0  0
 21 22  1  0  0  0  0
 22 23  1  0  0  0  0
 22 25  1  0  0  0  0
 23 24  2  0  0  0  0
  2 27  1  0  0  0  0
  2 28  1  0  0  0  0
  3 29  1  0  0  0  0
  4 30  1  0  0  0  0
  4 31  1  0  0  0  0
 10 32  1  0  0  0  0
 12 33  1  0  0  0  0
 12 34  1  0  0  0  0
 12 35  1  0  0  0  0
 15 36  1  0  0  0  0
 16 37  1  0  0  0  0
 18 38  1  0  0  0  0
 19 39  1  0  0  0  0
 19 40  1  0  0  0  0
 21 41  1  0  0  0  0
 24 42  1  0  0  0  0
 25 43  1  0  0  0  0
 25 44  1  0  0  0  0
 25 45  1  0  0  0  0
M  END
> <Name>
24

> <IC50[uM]>
0.029

$$$$
24
  -OEChem-05192314333D
 Structure written by MMmdl.
 45 48  0     0  0  0  0  0  0999 V2000
   -6.3515   12.3530  -11.9813 C   0  0  0  0  0  0  0  0  0  0  0  0
   -6.5085   11.7912  -10.7247 C   0  0  0  0  0  0  0  0  0  0  0  0
   -7.6802   10.5716  -13.0438 C   0  0  0  0  0  0  0  0  0  0  0  0
   -6.9296   11.7657  -13.1245 C   0  0  0  0  0  0  0  0  0  0  0  0
   -7.7980   10.0044  -11.7669 C   0  0  0  0  0  0  0  0  0  0  0  0
   -7.2328   10.6109  -10.5989 C   0  0  0  0  0  0  0  0  0  0  0  0
   -7.6209    9.7375   -9.5162 C   0  0  0  0  0  0  0  0  0  0  0  0
   -8.2754    8.7446   -9.9970 N   0  0  0  0  0  0  0  0  0  0  0  0
   -8.4233    8.8800  -11.3218 N   0  0  0  0  0  0  0  0  0  0  0  0
   -7.3328    9.8812   -8.0296 C   0  0  0  0  0  0  0  0  0  0  0  0
   -5.3004   14.2773  -13.1499 C   0  0  0  0  0  0  0  0  0  0  0  0
   -4.4346   15.5261  -12.8998 C   0  0  0  0  0  0  0  0  0  0  0  0
   -5.5896   13.5586  -12.0343 N   0  0  0  0  0  0  0  0  0  0  0  0
   -5.9706   10.4906   -7.7317 C   0  0  0  0  0  0  0  0  0  0  0  0
   -5.8616   11.7632   -7.1684 C   0  0  0  0  0  0  0  0  0  0  0  0
   -4.6051   12.3126   -6.9180 C   0  0  0  0  0  0  0  0  0  0  0  0
   -3.4544   11.5948   -7.2294 C   0  0  0  0  0  0  0  0  0  0  0  0
   -3.5626   10.3128   -7.8011 C   0  0  0  0  0  0  0  0  0  0  0  0
   -4.8160    9.7710   -8.0425 C   0  0  0  0  0  0  0  0  0  0  0  0
   -2.1083   12.1736   -6.9694 C   0  0  0  0  0  0  0  0  0  0  0  0
   -1.7503   13.4247   -6.4858 C   0  0  0  0  0  0  0  0  0  0  0  0
   -0.4131   13.4674   -6.4189 N   0  0  0  0  0  0  0  0  0  0  0  0
    0.1758   12.3735   -6.8057 N   0  0  0  0  0  0  0  0  0  0  0  0
   -0.8094   11.5620   -7.1791 C   0  0  0  0  0  0  0  0  0  0  0  0
    0.4060   14.5705   -5.9896 C   0  0  0  0  0  0  0  0  0  0  0  0
   -5.6528   14.0066  -14.2746 O   0  0  0  0  0  0  0  0  0  0  0  0
   -5.5002   11.5939  -10.3317 H   0  0  0  0  0  0  0  0  0  0  0  0
   -7.0066   12.5435  -10.0954 H   0  0  0  0  0  0  0  0  0  0  0  0
   -8.1361   10.1224  -13.9137 H   0  0  0  0  0  0  0  0  0  0  0  0
   -6.7956   12.2399  -14.0855 H   0  0  0  0  0  0  0  0  0  0  0  0
   -8.0279    9.5798   -7.2599 H   0  0  0  0  0  0  0  0  0  0  0  0
   -4.2429   16.0373  -13.8548 H   0  0  0  0  0  0  0  0  0  0  0  0
   -4.9638   16.2086  -12.2185 H   0  0  0  0  0  0  0  0  0  0  0  0
   -3.4785   15.2246  -12.4471 H   0  0  0  0  0  0  0  0  0  0  0  0
   -6.7526   12.3233   -6.9261 H   0  0  0  0  0  0  0  0  0  0  0  0
   -4.5531   13.2553   -7.4825 H   0  0  0  0  0  0  0  0  0  0  0  0
   -4.5624   12.5279   -5.8401 H   0  0  0  0  0  0  0  0  0  0  0  0
   -2.6730    9.7536   -8.0506 H   0  0  0  0  0  0  0  0  0  0  0  0
   -4.8679    8.8310   -7.4736 H   0  0  0  0  0  0  0  0  0  0  0  0
   -4.8621    9.5509   -9.1193 H   0  0  0  0  0  0  0  0  0  0  0  0
   -2.4278   14.2202   -6.2127 H   0  0  0  0  0  0  0  0  0  0  0  0
   -0.6614   10.5729   -7.5868 H   0  0  0  0  0  0  0  0  0  0  0  0
    1.4672   14.2904   -6.0634 H   0  0  0  0  0  0  0  0  0  0  0  0
    0.2117   15.4427   -6.6311 H   0  0  0  0  0  0  0  0  0  0  0  0
    0.1649   14.8218   -4.9462 H   0  0  0  0  0  0  0  0  0  0  0  0
  1  2  1  0  0  0  0
  1  4  1  0  0  0  0
  1 13  2  0  0  0  0
  2  6  1  0  0  0  0
  3  4  2  0  0  0  0
  3  5  1  0  0  0  0
  5  6  2  0  0  0  0
  5  9  1  0  0  0  0
  6  7  1  0  0  0  0
  7  8  1  0  0  0  0
  7 10  2  3  0  0  0
  8  9  2  0  0  0  0
 10 14  1  0  0  0  0
 11 12  1  0  0  0  0
 11 13  1  0  0  0  0
 11 26  2  0  0  0  0
 14 15  2  0  0  0  0
 14 19  1  0  0  0  0
 15 16  1  0  0  0  0
 16 17  1  0  0  0  0
 17 18  2  0  0  0  0
 17 20  1  0  0  0  0
 18 19  1  0  0  0  0
 20 21  2  0  0  0  0
 20 24  1  0  0  0  0
 21 22  1  0  0  0  0
 22 23  1  0  0  0  0
 22 25  1  0  0  0  0
 23 24  2  0  0  0  0
  2 27  1  0  0  0  0
  2 28  1  0  0  0  0
  3 29  1  0  0  0  0
  4 30  1  0  0  0  0
 10 31  1  0  0  0  0
 12 32  1  0  0  0  0
 12 33  1  0  0  0  0
 12 34  1  0  0  0  0
 15 35  1  0  0  0  0
 16 36  1  0  0  0  0
 16 37  1  0  0  0  0
 18 38  1  0  0  0  0
 19 39  1  0  0  0  0
 19 40  1  0  0  0  0
 21 41  1  0  0  0  0
 24 42  1  0  0  0  0
 25 43  1  0  0  0  0
 25 44  1  0  0  0  0
 25 45  1  0  0  0  0
M  END
> <Name>
24

> <IC50[uM]>
0.029

$$$$
24
  -OEChem-05192314333D
 Structure written by MMmdl.
 45 48  0     0  0  0  0  0  0999 V2000
   -6.3515   12.3530  -11.9813 C   0  0  0  0  0  0  0  0  0  0  0  0
   -6.5085   11.7912  -10.7247 C   0  0  0  0  0  0  0  0  0  0  0  0
   -7.6802   10.5716  -13.0438 C   0  0  0  0  0  0  0  0  0  0  0  0
   -6.9296   11.7657  -13.1245 C   0  0  0  0  0  0  0  0  0  0  0  0
   -7.7980   10.0044  -11.7669 C   0  0  0  0  0  0  0  0  0  0  0  0
   -7.2328   10.6109  -10.5989 C   0  0  0  0  0  0  0  0  0  0  0  0
   -7.6209    9.7375   -9.5162 C   0  0  0  0  0  0  0  0  0  0  0  0
   -8.2754    8.7446   -9.9970 N   0  0  0  0  0  0  0  0  0  0  0  0
   -8.4233    8.8800  -11.3218 N   0  0  0  0  0  0  0  0  0  0  0  0
   -7.3328    9.8812   -8.0296 C   0  0  0  0  0  0  0  0  0  0  0  0
   -5.3004   14.2773  -13.1499 C   0  0  0  0  0  0  0  0  0  0  0  0
   -4.4346   15.5261  -12.8998 C   0  0  0  0  0  0  0  0  0  0  0  0
   -5.5896   13.5586  -12.0343 N   0  0  0  0  0  0  0  0  0  0  0  0
   -5.9706   10.4906   -7.7317 C   0  0  0  0  0  0  0  0  0  0  0  0
   -5.8616   11.7632   -7.1684 C   0  0  0  0  0  0  0  0  0  0  0  0
   -4.6051   12.3126   -6.9180 C   0  0  0  0  0  0  0  0  0  0  0  0
   -3.4544   11.5948   -7.2294 C   0  0  0  0  0  0  0  0  0  0  0  0
   -3.5626   10.3128   -7.8011 C   0  0  0  0  0  0  0  0  0  0  0  0
   -4.8160    9.7710   -8.0425 C   0  0  0  0  0  0  0  0  0  0  0  0
   -2.1083   12.1736   -6.9694 C   0  0  0  0  0  0  0  0  0  0  0  0
   -1.7503   13.4247   -6.4858 C   0  0  0  0  0  0  0  0  0  0  0  0
   -0.4131   13.4674   -6.4189 N   0  0  0  0  0  0  0  0  0  0  0  0
    0.1758   12.3735   -6.8057 N   0  0  0  0  0  0  0  0  0  0  0  0
   -0.8094   11.5620   -7.1791 C   0  0  0  0  0  0  0  0  0  0  0  0
    0.4060   14.5705   -5.9896 C   0  0  0  0  0  0  0  0  0  0  0  0
   -5.6528   14.0066  -14.2746 O   0  0  0  0  0  0  0  0  0  0  0  0
   -5.5002   11.5939  -10.3317 H   0  0  0  0  0  0  0  0  0  0  0  0
   -7.0066   12.5435  -10.0954 H   0  0  0  0  0  0  0  0  0  0  0  0
   -8.1361   10.1224  -13.9137 H   0  0  0  0  0  0  0  0  0  0  0  0
   -6.7956   12.2399  -14.0855 H   0  0  0  0  0  0  0  0  0  0  0  0
   -8.0279    9.5798   -7.2599 H   0  0  0  0  0  0  0  0  0  0  0  0
   -4.2429   16.0373  -13.8548 H   0  0  0  0  0  0  0  0  0  0  0  0
   -4.9638   16.2086  -12.2185 H   0  0  0  0  0  0  0  0  0  0  0  0
   -3.4785   15.2246  -12.4471 H   0  0  0  0  0  0  0  0  0  0  0  0
   -6.7526   12.3233   -6.9261 H   0  0  0  0  0  0  0  0  0  0  0  0
   -4.5246   13.2972   -6.4815 H   0  0  0  0  0  0  0  0  0  0  0  0
   -3.0396   10.3498   -8.7681 H   0  0  0  0  0  0  0  0  0  0  0  0
   -3.0393    9.6182   -7.1276 H   0  0  0  0  0  0  0  0  0  0  0  0
   -4.8679    8.8310   -7.4736 H   0  0  0  0  0  0  0  0  0  0  0  0
   -4.8621    9.5509   -9.1193 H   0  0  0  0  0  0  0  0  0  0  0  0
   -2.4278   14.2202   -6.2127 H   0  0  0  0  0  0  0  0  0  0  0  0
   -0.6614   10.5729   -7.5868 H   0  0  0  0  0  0  0  0  0  0  0  0
    1.4672   14.2904   -6.0634 H   0  0  0  0  0  0  0  0  0  0  0  0
    0.2117   15.4427   -6.6311 H   0  0  0  0  0  0  0  0  0  0  0  0
    0.1649   14.8218   -4.9462 H   0  0  0  0  0  0  0  0  0  0  0  0
  1  2  1  0  0  0  0
  1  4  1  0  0  0  0
  1 13  2  0  0  0  0
  2  6  1  0  0  0  0
  3  4  2  0  0  0  0
  3  5  1  0  0  0  0
  5  6  2  0  0  0  0
  5  9  1  0  0  0  0
  6  7  1  0  0  0  0
  7  8  1  0  0  0  0
  7 10  2  3  0  0  0
  8  9  2  0  0  0  0
 10 14  1  0  0  0  0
 11 12  1  0  0  0  0
 11 13  1  0  0  0  0
 11 26  2  0  0  0  0
 14 15  2  0  0  0  0
 14 19  1  0  0  0  0
 15 16  1  0  0  0  0
 16 17  2  0  0  0  0
 17 18  1  0  0  0  0
 17 20  1  0  0  0  0
 18 19  1  0  0  0  0
 20 21  2  0  0  0  0
 20 24  1  0  0  0  0
 21 22  1  0  0  0  0
 22 23  1  0  0  0  0
 22 25  1  0  0  0  0
 23 24  2  0  0  0  0
  2 27  1  0  0  0  0
  2 28  1  0  0  0  0
  3 29  1  0  0  0  0
  4 30  1  0  0  0  0
 10 31  1  0  0  0  0
 12 32  1  0  0  0  0
 12 33  1  0  0  0  0
 12 34  1  0  0  0  0
 15 35  1  0  0  0  0
 16 36  1  0  0  0  0
 18 37  1  0  0  0  0
 18 38  1  0  0  0  0
 19 39  1  0  0  0  0
 19 40  1  0  0  0  0
 21 41  1  0  0  0  0
 24 42  1  0  0  0  0
 25 43  1  0  0  0  0
 25 44  1  0  0  0  0
 25 45  1  0  0  0  0
M  END
> <Name>
24

> <IC50[uM]>
0.029

$$$$
24
  -OEChem-05192314333D
 Structure written by MMmdl.
 45 48  0     1  0  0  0  0  0999 V2000
   -6.3515   12.3530  -11.9813 C   0  0  0  0  0  0  0  0  0  0  0  0
   -6.5085   11.7912  -10.7247 C   0  0  0  0  0  0  0  0  0  0  0  0
   -7.6802   10.5716  -13.0438 C   0  0  0  0  0  0  0  0  0  0  0  0
   -6.9296   11.7657  -13.1245 C   0  0  0  0  0  0  0  0  0  0  0  0
   -7.7980   10.0044  -11.7669 C   0  0  0  0  0  0  0  0  0  0  0  0
   -7.2328   10.6109  -10.5989 C   0  0  0  0  0  0  0  0  0  0  0  0
   -7.6209    9.7375   -9.5162 C   0  0  3  0  0  0  0  0  0  0  0  0
   -8.2754    8.7446   -9.9970 N   0  0  0  0  0  0  0  0  0  0  0  0
   -8.4233    8.8800  -11.3218 N   0  0  0  0  0  0  0  0  0  0  0  0
   -7.3328    9.8812   -8.0296 C   0  0  0  0  0  0  0  0  0  0  0  0
   -5.3004   14.2773  -13.1499 C   0  0  0  0  0  0  0  0  0  0  0  0
   -4.4346   15.5261  -12.8998 C   0  0  0  0  0  0  0  0  0  0  0  0
   -5.5896   13.5586  -12.0343 N   0  0  0  0  0  0  0  0  0  0  0  0
   -5.9706   10.4906   -7.7317 C   0  0  0  0  0  0  0  0  0  0  0  0
   -5.8616   11.7632   -7.1684 C   0  0  0  0  0  0  0  0  0  0  0  0
   -4.6051   12.3126   -6.9180 C   0  0  0  0  0  0  0  0  0  0  0  0
   -3.4544   11.5948   -7.2294 C   0  0  0  0  0  0  0  0  0  0  0  0
   -3.5626   10.3128   -7.8011 C   0  0  0  0  0  0  0  0  0  0  0  0
   -4.8160    9.7710   -8.0425 C   0  0  0  0  0  0  0  0  0  0  0  0
   -2.1083   12.1736   -6.9694 C   0  0  0  0  0  0  0  0  0  0  0  0
   -1.7503   13.4247   -6.4858 C   0  0  0  0  0  0  0  0  0  0  0  0
   -0.4131   13.4674   -6.4189 N   0  0  0  0  0  0  0  0  0  0  0  0
    0.1758   12.3735   -6.8057 N   0  0  0  0  0  0  0  0  0  0  0  0
   -0.8094   11.5620   -7.1791 C   0  0  0  0  0  0  0  0  0  0  0  0
    0.4060   14.5705   -5.9896 C   0  0  0  0  0  0  0  0  0  0  0  0
   -5.6528   14.0066  -14.2746 O   0  0  0  0  0  0  0  0  0  0  0  0
   -6.0747   12.2631   -9.8555 H   0  0  0  0  0  0  0  0  0  0  0  0
   -8.1361   10.1224  -13.9137 H   0  0  0  0  0  0  0  0  0  0  0  0
   -6.7956   12.2399  -14.0855 H   0  0  0  0  0  0  0  0  0  0  0  0
   -8.5577   10.3007   -9.3927 H   0  0  0  0  0  0  0  0  0  0  0  0
   -7.7779    7.8985   -9.8058 H   0  0  0  0  0  0  0  0  0  0  0  0
   -8.0279    9.5798   -7.2599 H   0  0  0  0  0  0  0  0  0  0  0  0
   -4.2429   16.0373  -13.8548 H   0  0  0  0  0  0  0  0  0  0  0  0
   -4.9638   16.2086  -12.2185 H   0  0  0  0  0  0  0  0  0  0  0  0
   -3.4785   15.2246  -12.4471 H   0  0  0  0  0  0  0  0  0  0  0  0
   -6.7526   12.3233   -6.9261 H   0  0  0  0  0  0  0  0  0  0  0  0
   -4.5246   13.2972   -6.4815 H   0  0  0  0  0  0  0  0  0  0  0  0
   -3.4585   11.1486   -6.2240 H   0  0  0  0  0  0  0  0  0  0  0  0
   -2.6730    9.7536   -8.0506 H   0  0  0  0  0  0  0  0  0  0  0  0
   -4.8993    8.7846   -8.4743 H   0  0  0  0  0  0  0  0  0  0  0  0
   -2.4278   14.2202   -6.2127 H   0  0  0  0  0  0  0  0  0  0  0  0
   -0.6614   10.5729   -7.5868 H   0  0  0  0  0  0  0  0  0  0  0  0
    1.4672   14.2904   -6.0634 H   0  0  0  0  0  0  0  0  0  0  0  0
    0.2117   15.4427   -6.6311 H   0  0  0  0  0  0  0  0  0  0  0  0
    0.1649   14.8218   -4.9462 H   0  0  0  0  0  0  0  0  0  0  0  0
  1  2  1  0  0  0  0
  1  4  1  0  0  0  0
  1 13  2  0  0  0  0
  2  6  2  0  0  0  0
  3  4  2  0  0  0  0
  3  5  1  0  0  0  0
  5  6  1  0  0  0  0
  5  9  2  0  0  0  0
  6  7  1  0  0  0  0
  7  8  1  0  0  0  0
  7 10  1  0  0  0  0
  8  9  1  0  0  0  0
 10 14  2  0  0  0  0
 11 12  1  0  0  0  0
 11 13  1  0  0  0  0
 11 26  2  0  0  0  0
 14 15  1  0  0  0  0
 14 19  1  0  0  0  0
 15 16  2  0  0  0  0
 16 17  1  0  0  0  0
 17 18  1  0  0  0  0
 17 20  1  0  0  0  0
 18 19  2  0  0  0  0
 20 21  2  0  0  0  0
 20 24  1  0  0  0  0
 21 22  1  0  0  0  0
 22 23  1  0  0  0  0
 22 25  1  0  0  0  0
 23 24  2  0  0  0  0
  2 27  1  0  0  0  0
  3 28  1  0  0  0  0
  4 29  1  0  0  0  0
  7 30  1  0  0  0  0
  8 31  1  0  0  0  0
 10 32  1  0  0  0  0
 12 33  1  0  0  0  0
 12 34  1  0  0  0  0
 12 35  1  0  0  0  0
 15 36  1  0  0  0  0
 16 37  1  0  0  0  0
 17 38  1  0  0  0  0
 18 39  1  0  0  0  0
 19 40  1  0  0  0  0
 21 41  1  0  0  0  0
 24 42  1  0  0  0  0
 25 43  1  0  0  0  0
 25 44  1  0  0  0  0
 25 45  1  0  0  0  0
M  END
> <Name>
24

> <IC50[uM]>
0.029

$$$$
24
  -OEChem-05192314333D
 Structure written by MMmdl.
 45 48  0     1  0  0  0  0  0999 V2000
   -6.3515   12.3530  -11.9813 C   0  0  0  0  0  0  0  0  0  0  0  0
   -6.5085   11.7912  -10.7247 C   0  0  0  0  0  0  0  0  0  0  0  0
   -7.6802   10.5716  -13.0438 C   0  0  0  0  0  0  0  0  0  0  0  0
   -6.9296   11.7657  -13.1245 C   0  0  0  0  0  0  0  0  0  0  0  0
   -7.7980   10.0044  -11.7669 C   0  0  3  0  0  0  0  0  0  0  0  0
   -7.2328   10.6109  -10.5989 C   0  0  0  0  0  0  0  0  0  0  0  0
   -7.6209    9.7375   -9.5162 C   0  0  0  0  0  0  0  0  0  0  0  0
   -8.2754    8.7446   -9.9970 N   0  0  0  0  0  0  0  0  0  0  0  0
   -8.4233    8.8800  -11.3218 N   0  0  0  0  0  0  0  0  0  0  0  0
   -7.3328    9.8812   -8.0296 C   0  0  0  0  0  0  0  0  0  0  0  0
   -5.3004   14.2773  -13.1499 C   0  0  0  0  0  0  0  0  0  0  0  0
   -4.4346   15.5261  -12.8998 C   0  0  0  0  0  0  0  0  0  0  0  0
   -5.5896   13.5586  -12.0343 N   0  0  0  0  0  0  0  0  0  0  0  0
   -5.9706   10.4906   -7.7317 C   0  0  0  0  0  0  0  0  0  0  0  0
   -5.8616   11.7632   -7.1684 C   0  0  0  0  0  0  0  0  0  0  0  0
   -4.6051   12.3126   -6.9180 C   0  0  0  0  0  0  0  0  0  0  0  0
   -3.4544   11.5948   -7.2294 C   0  0  0  0  0  0  0  0  0  0  0  0
   -3.5626   10.3128   -7.8011 C   0  0  0  0  0  0  0  0  0  0  0  0
   -4.8160    9.7710   -8.0425 C   0  0  0  0  0  0  0  0  0  0  0  0
   -2.1083   12.1736   -6.9694 C   0  0  0  0  0  0  0  0  0  0  0  0
   -1.7503   13.4247   -6.4858 C   0  0  0  0  0  0  0  0  0  0  0  0
   -0.4131   13.4674   -6.4189 N   0  0  0  0  0  0  0  0  0  0  0  0
    0.1758   12.3735   -6.8057 N   0  0  0  0  0  0  0  0  0  0  0  0
   -0.8094   11.5620   -7.1791 C   0  0  0  0  0  0  0  0  0  0  0  0
    0.4060   14.5705   -5.9896 C   0  0  0  0  0  0  0  0  0  0  0  0
   -5.6528   14.0066  -14.2746 O   0  0  0  0  0  0  0  0  0  0  0  0
   -6.0747   12.2631   -9.8555 H   0  0  0  0  0  0  0  0  0  0  0  0
   -8.1361   10.1224  -13.9137 H   0  0  0  0  0  0  0  0  0  0  0  0
   -6.7956   12.2399  -14.0855 H   0  0  0  0  0  0  0  0  0  0  0  0
   -6.8712    9.4340  -11.9273 H   0  0  0  0  0  0  0  0  0  0  0  0
   -9.3978    8.9396  -11.5383 H   0  0  0  0  0  0  0  0  0  0  0  0
   -8.0279    9.5798   -7.2599 H   0  0  0  0  0  0  0  0  0  0  0  0
   -4.2429   16.0373  -13.8548 H   0  0  0  0  0  0  0  0  0  0  0  0
   -4.9638   16.2086  -12.2185 H   0  0  0  0  0  0  0  0  0  0  0  0
   -3.4785   15.2246  -12.4471 H   0  0  0  0  0  0  0  0  0  0  0  0
   -6.7526   12.3233   -6.9261 H   0  0  0  0  0  0  0  0  0  0  0  0
   -4.5246   13.2972   -6.4815 H   0  0  0  0  0  0  0  0  0  0  0  0
   -3.4585   11.1486   -6.2240 H   0  0  0  0  0  0  0  0  0  0  0  0
   -2.6730    9.7536   -8.0506 H   0  0  0  0  0  0  0  0  0  0  0  0
   -4.8993    8.7846   -8.4743 H   0  0  0  0  0  0  0  0  0  0  0  0
   -2.4278   14.2202   -6.2127 H   0  0  0  0  0  0  0  0  0  0  0  0
   -0.6614   10.5729   -7.5868 H   0  0  0  0  0  0  0  0  0  0  0  0
    1.4672   14.2904   -6.0634 H   0  0  0  0  0  0  0  0  0  0  0  0
    0.2117   15.4427   -6.6311 H   0  0  0  0  0  0  0  0  0  0  0  0
    0.1649   14.8218   -4.9462 H   0  0  0  0  0  0  0  0  0  0  0  0
  1  2  1  0  0  0  0
  1  4  1  0  0  0  0
  1 13  2  0  0  0  0
  2  6  2  0  0  0  0
  3  4  2  0  0  0  0
  3  5  1  0  0  0  0
  5  6  1  0  0  0  0
  5  9  1  0  0  0  0
  6  7  1  0  0  0  0
  7  8  2  0  0  0  0
  7 10  1  0  0  0  0
  8  9  1  0  0  0  0
 10 14  2  0  0  0  0
 11 12  1  0  0  0  0
 11 13  1  0  0  0  0
 11 26  2  0  0  0  0
 14 15  1  0  0  0  0
 14 19  1  0  0  0  0
 15 16  2  0  0  0  0
 16 17  1  0  0  0  0
 17 18  1  0  0  0  0
 17 20  1  0  0  0  0
 18 19  2  0  0  0  0
 20 21  2  0  0  0  0
 20 24  1  0  0  0  0
 21 22  1  0  0  0  0
 22 23  1  0  0  0  0
 22 25  1  0  0  0  0
 23 24  2  0  0  0  0
  2 27  1  0  0  0  0
  3 28  1  0  0  0  0
  4 29  1  0  0  0  0
  5 30  1  0  0  0  0
  9 31  1  0  0  0  0
 10 32  1  0  0  0  0
 12 33  1  0  0  0  0
 12 34  1  0  0  0  0
 12 35  1  0  0  0  0
 15 36  1  0  0  0  0
 16 37  1  0  0  0  0
 17 38  1  0  0  0  0
 18 39  1  0  0  0  0
 19 40  1  0  0  0  0
 21 41  1  0  0  0  0
 24 42  1  0  0  0  0
 25 43  1  0  0  0  0
 25 44  1  0  0  0  0
 25 45  1  0  0  0  0
M  END
> <Name>
24

> <IC50[uM]>
0.029

$$$$
24
  -OEChem-05192314333D
 Structure written by MMmdl.
 45 48  0     1  0  0  0  0  0999 V2000
   -6.3515   12.3530  -11.9813 C   0  0  0  0  0  0  0  0  0  0  0  0
   -6.5085   11.7912  -10.7247 C   0  0  0  0  0  0  0  0  0  0  0  0
   -7.6802   10.5716  -13.0438 C   0  0  0  0  0  0  0  0  0  0  0  0
   -6.9296   11.7657  -13.1245 C   0  0  0  0  0  0  0  0  0  0  0  0
   -7.7980   10.0044  -11.7669 C   0  0  0  0  0  0  0  0  0  0  0  0
   -7.2328   10.6109  -10.5989 C   0  0  0  0  0  0  0  0  0  0  0  0
   -7.6209    9.7375   -9.5162 C   0  0  3  0  0  0  0  0  0  0  0  0
   -8.2754    8.7446   -9.9970 N   0  0  0  0  0  0  0  0  0  0  0  0
   -8.4233    8.8800  -11.3218 N   0  0  0  0  0  0  0  0  0  0  0  0
   -7.3328    9.8812   -8.0296 C   0  0  0  0  0  0  0  0  0  0  0  0
   -5.3004   14.2773  -13.1499 C   0  0  0  0  0  0  0  0  0  0  0  0
   -4.4346   15.5261  -12.8998 C   0  0  0  0  0  0  0  0  0  0  0  0
   -5.5896   13.5586  -12.0343 N   0  0  0  0  0  0  0  0  0  0  0  0
   -5.9706   10.4906   -7.7317 C   0  0  0  0  0  0  0  0  0  0  0  0
   -5.8616   11.7632   -7.1684 C   0  0  0  0  0  0  0  0  0  0  0  0
   -4.6051   12.3126   -6.9180 C   0  0  0  0  0  0  0  0  0  0  0  0
   -3.4544   11.5948   -7.2294 C   0  0  0  0  0  0  0  0  0  0  0  0
   -3.5626   10.3128   -7.8011 C   0  0  0  0  0  0  0  0  0  0  0  0
   -4.8160    9.7710   -8.0425 C   0  0  0  0  0  0  0  0  0  0  0  0
   -2.1083   12.1736   -6.9694 C   0  0  0  0  0  0  0  0  0  0  0  0
   -1.7503   13.4247   -6.4858 C   0  0  0  0  0  0  0  0  0  0  0  0
   -0.4131   13.4674   -6.4189 N   0  0  0  0  0  0  0  0  0  0  0  0
    0.1758   12.3735   -6.8057 N   0  0  0  0  0  0  0  0  0  0  0  0
   -0.8094   11.5620   -7.1791 C   0  0  0  0  0  0  0  0  0  0  0  0
    0.4060   14.5705   -5.9896 C   0  0  0  0  0  0  0  0  0  0  0  0
   -5.6528   14.0066  -14.2746 O   0  0  0  0  0  0  0  0  0  0  0  0
   -6.0747   12.2631   -9.8555 H   0  0  0  0  0  0  0  0  0  0  0  0
   -8.1361   10.1224  -13.9137 H   0  0  0  0  0  0  0  0  0  0  0  0
   -6.7956   12.2399  -14.0855 H   0  0  0  0  0  0  0  0  0  0  0  0
   -8.5577   10.3007   -9.3927 H   0  0  0  0  0  0  0  0  0  0  0  0
   -7.7779    7.8985   -9.8058 H   0  0  0  0  0  0  0  0  0  0  0  0
   -8.0279    9.5798   -7.2599 H   0  0  0  0  0  0  0  0  0  0  0  0
   -4.2429   16.0373  -13.8548 H   0  0  0  0  0  0  0  0  0  0  0  0
   -4.9638   16.2086  -12.2185 H   0  0  0  0  0  0  0  0  0  0  0  0
   -3.4785   15.2246  -12.4471 H   0  0  0  0  0  0  0  0  0  0  0  0
   -6.7526   12.3233   -6.9261 H   0  0  0  0  0  0  0  0  0  0  0  0
   -4.5246   13.2972   -6.4815 H   0  0  0  0  0  0  0  0  0  0  0  0
   -2.6730    9.7536   -8.0506 H   0  0  0  0  0  0  0  0  0  0  0  0
   -4.8679    8.8310   -7.4736 H   0  0  0  0  0  0  0  0  0  0  0  0
   -4.8621    9.5509   -9.1193 H   0  0  0  0  0  0  0  0  0  0  0  0
   -2.4278   14.2202   -6.2127 H   0  0  0  0  0  0  0  0  0  0  0  0
   -0.6614   10.5729   -7.5868 H   0  0  0  0  0  0  0  0  0  0  0  0
    1.4672   14.2904   -6.0634 H   0  0  0  0  0  0  0  0  0  0  0  0
    0.2117   15.4427   -6.6311 H   0  0  0  0  0  0  0  0  0  0  0  0
    0.1649   14.8218   -4.9462 H   0  0  0  0  0  0  0  0  0  0  0  0
  1  2  1  0  0  0  0
  1  4  1  0  0  0  0
  1 13  2  0  0  0  0
  2  6  2  0  0  0  0
  3  4  2  0  0  0  0
  3  5  1  0  0  0  0
  5  6  1  0  0  0  0
  5  9  2  0  0  0  0
  6  7  1  0  0  0  0
  7  8  1  0  0  0  0
  7 10  1  0  0  0  0
  8  9  1  0  0  0  0
 10 14  2  3  0  0  0
 11 12  1  0  0  0  0
 11 13  1  0  0  0  0
 11 26  2  0  0  0  0
 14 15  1  0  0  0  0
 14 19  1  0  0  0  0
 15 16  2  0  0  0  0
 16 17  1  0  0  0  0
 17 18  2  0  0  0  0
 17 20  1  0  0  0  0
 18 19  1  0  0  0  0
 20 21  2  0  0  0  0
 20 24  1  0  0  0  0
 21 22  1  0  0  0  0
 22 23  1  0  0  0  0
 22 25  1  0  0  0  0
 23 24  2  0  0  0  0
  2 27  1  0  0  0  0
  3 28  1  0  0  0  0
  4 29  1  0  0  0  0
  7 30  1  0  0  0  0
  8 31  1  0  0  0  0
 10 32  1  0  0  0  0
 12 33  1  0  0  0  0
 12 34  1  0  0  0  0
 12 35  1  0  0  0  0
 15 36  1  0  0  0  0
 16 37  1  0  0  0  0
 18 38  1  0  0  0  0
 19 39  1  0  0  0  0
 19 40  1  0  0  0  0
 21 41  1  0  0  0  0
 24 42  1  0  0  0  0
 25 43  1  0  0  0  0
 25 44  1  0  0  0  0
 25 45  1  0  0  0  0
M  END
> <Name>
24

> <IC50[uM]>
0.029

$$$$
24
  -OEChem-05192314333D
 Structure written by MMmdl.
 45 48  0     1  0  0  0  0  0999 V2000
   -6.3515   12.3530  -11.9813 C   0  0  0  0  0  0  0  0  0  0  0  0
   -6.5085   11.7912  -10.7247 C   0  0  0  0  0  0  0  0  0  0  0  0
   -7.6802   10.5716  -13.0438 C   0  0  0  0  0  0  0  0  0  0  0  0
   -6.9296   11.7657  -13.1245 C   0  0  0  0  0  0  0  0  0  0  0  0
   -7.7980   10.0044  -11.7669 C   0  0  3  0  0  0  0  0  0  0  0  0
   -7.2328   10.6109  -10.5989 C   0  0  0  0  0  0  0  0  0  0  0  0
   -7.6209    9.7375   -9.5162 C   0  0  0  0  0  0  0  0  0  0  0  0
   -8.2754    8.7446   -9.9970 N   0  0  0  0  0  0  0  0  0  0  0  0
   -8.4233    8.8800  -11.3218 N   0  0  0  0  0  0  0  0  0  0  0  0
   -7.3328    9.8812   -8.0296 C   0  0  0  0  0  0  0  0  0  0  0  0
   -5.3004   14.2773  -13.1499 C   0  0  0  0  0  0  0  0  0  0  0  0
   -4.4346   15.5261  -12.8998 C   0  0  0  0  0  0  0  0  0  0  0  0
   -5.5896   13.5586  -12.0343 N   0  0  0  0  0  0  0  0  0  0  0  0
   -5.9706   10.4906   -7.7317 C   0  0  0  0  0  0  0  0  0  0  0  0
   -5.8616   11.7632   -7.1684 C   0  0  0  0  0  0  0  0  0  0  0  0
   -4.6051   12.3126   -6.9180 C   0  0  0  0  0  0  0  0  0  0  0  0
   -3.4544   11.5948   -7.2294 C   0  0  0  0  0  0  0  0  0  0  0  0
   -3.5626   10.3128   -7.8011 C   0  0  0  0  0  0  0  0  0  0  0  0
   -4.8160    9.7710   -8.0425 C   0  0  0  0  0  0  0  0  0  0  0  0
   -2.1083   12.1736   -6.9694 C   0  0  0  0  0  0  0  0  0  0  0  0
   -1.7503   13.4247   -6.4858 C   0  0  0  0  0  0  0  0  0  0  0  0
   -0.4131   13.4674   -6.4189 N   0  0  0  0  0  0  0  0  0  0  0  0
    0.1758   12.3735   -6.8057 N   0  0  0  0  0  0  0  0  0  0  0  0
   -0.8094   11.5620   -7.1791 C   0  0  0  0  0  0  0  0  0  0  0  0
    0.4060   14.5705   -5.9896 C   0  0  0  0  0  0  0  0  0  0  0  0
   -5.6528   14.0066  -14.2746 O   0  0  0  0  0  0  0  0  0  0  0  0
   -6.0747   12.2631   -9.8555 H   0  0  0  0  0  0  0  0  0  0  0  0
   -8.1361   10.1224  -13.9137 H   0  0  0  0  0  0  0  0  0  0  0  0
   -6.7956   12.2399  -14.0855 H   0  0  0  0  0  0  0  0  0  0  0  0
   -6.8712    9.4340  -11.9273 H   0  0  0  0  0  0  0  0  0  0  0  0
   -9.3978    8.9396  -11.5383 H   0  0  0  0  0  0  0  0  0  0  0  0
   -8.0279    9.5798   -7.2599 H   0  0  0  0  0  0  0  0  0  0  0  0
   -4.2429   16.0373  -13.8548 H   0  0  0  0  0  0  0  0  0  0  0  0
   -4.9638   16.2086  -12.2185 H   0  0  0  0  0  0  0  0  0  0  0  0
   -3.4785   15.2246  -12.4471 H   0  0  0  0  0  0  0  0  0  0  0  0
   -6.7526   12.3233   -6.9261 H   0  0  0  0  0  0  0  0  0  0  0  0
   -4.5246   13.2972   -6.4815 H   0  0  0  0  0  0  0  0  0  0  0  0
   -2.6730    9.7536   -8.0506 H   0  0  0  0  0  0  0  0  0  0  0  0
   -4.8679    8.8310   -7.4736 H   0  0  0  0  0  0  0  0  0  0  0  0
   -4.8621    9.5509   -9.1193 H   0  0  0  0  0  0  0  0  0  0  0  0
   -2.4278   14.2202   -6.2127 H   0  0  0  0  0  0  0  0  0  0  0  0
   -0.6614   10.5729   -7.5868 H   0  0  0  0  0  0  0  0  0  0  0  0
    1.4672   14.2904   -6.0634 H   0  0  0  0  0  0  0  0  0  0  0  0
    0.2117   15.4427   -6.6311 H   0  0  0  0  0  0  0  0  0  0  0  0
    0.1649   14.8218   -4.9462 H   0  0  0  0  0  0  0  0  0  0  0  0
  1  2  1  0  0  0  0
  1  4  1  0  0  0  0
  1 13  2  0  0  0  0
  2  6  2  0  0  0  0
  3  4  2  0  0  0  0
  3  5  1  0  0  0  0
  5  6  1  0  0  0  0
  5  9  1  0  0  0  0
  6  7  1  0  0  0  0
  7  8  2  0  0  0  0
  7 10  1  0  0  0  0
  8  9  1  0  0  0  0
 10 14  2  3  0  0  0
 11 12  1  0  0  0  0
 11 13  1  0  0  0  0
 11 26  2  0  0  0  0
 14 15  1  0  0  0  0
 14 19  1  0  0  0  0
 15 16  2  0  0  0  0
 16 17  1  0  0  0  0
 17 18  2  0  0  0  0
 17 20  1  0  0  0  0
 18 19  1  0  0  0  0
 20 21  2  0  0  0  0
 20 24  1  0  0  0  0
 21 22  1  0  0  0  0
 22 23  1  0  0  0  0
 22 25  1  0  0  0  0
 23 24  2  0  0  0  0
  2 27  1  0  0  0  0
  3 28  1  0  0  0  0
  4 29  1  0  0  0  0
  5 30  1  0  0  0  0
  9 31  1  0  0  0  0
 10 32  1  0  0  0  0
 12 33  1  0  0  0  0
 12 34  1  0  0  0  0
 12 35  1  0  0  0  0
 15 36  1  0  0  0  0
 16 37  1  0  0  0  0
 18 38  1  0  0  0  0
 19 39  1  0  0  0  0
 19 40  1  0  0  0  0
 21 41  1  0  0  0  0
 24 42  1  0  0  0  0
 25 43  1  0  0  0  0
 25 44  1  0  0  0  0
 25 45  1  0  0  0  0
M  END
> <Name>
24

> <IC50[uM]>
0.029

$$$$
24
  -OEChem-05192314333D
 Structure written by MMmdl.
 45 48  0     1  0  0  0  0  0999 V2000
   -6.3515   12.3530  -11.9813 C   0  0  0  0  0  0  0  0  0  0  0  0
   -6.5085   11.7912  -10.7247 C   0  0  0  0  0  0  0  0  0  0  0  0
   -7.6802   10.5716  -13.0438 C   0  0  0  0  0  0  0  0  0  0  0  0
   -6.9296   11.7657  -13.1245 C   0  0  0  0  0  0  0  0  0  0  0  0
   -7.7980   10.0044  -11.7669 C   0  0  0  0  0  0  0  0  0  0  0  0
   -7.2328   10.6109  -10.5989 C   0  0  3  0  0  0  0  0  0  0  0  0
   -7.6209    9.7375   -9.5162 C   0  0  0  0  0  0  0  0  0  0  0  0
   -8.2754    8.7446   -9.9970 N   0  0  0  0  0  0  0  0  0  0  0  0
   -8.4233    8.8800  -11.3218 N   0  0  0  0  0  0  0  0  0  0  0  0
   -7.3328    9.8812   -8.0296 C   0  0  0  0  0  0  0  0  0  0  0  0
   -5.3004   14.2773  -13.1499 C   0  0  0  0  0  0  0  0  0  0  0  0
   -4.4346   15.5261  -12.8998 C   0  0  0  0  0  0  0  0  0  0  0  0
   -5.5896   13.5586  -12.0343 N   0  0  0  0  0  0  0  0  0  0  0  0
   -5.9706   10.4906   -7.7317 C   0  0  0  0  0  0  0  0  0  0  0  0
   -5.8616   11.7632   -7.1684 C   0  0  0  0  0  0  0  0  0  0  0  0
   -4.6051   12.3126   -6.9180 C   0  0  0  0  0  0  0  0  0  0  0  0
   -3.4544   11.5948   -7.2294 C   0  0  0  0  0  0  0  0  0  0  0  0
   -3.5626   10.3128   -7.8011 C   0  0  0  0  0  0  0  0  0  0  0  0
   -4.8160    9.7710   -8.0425 C   0  0  0  0  0  0  0  0  0  0  0  0
   -2.1083   12.1736   -6.9694 C   0  0  0  0  0  0  0  0  0  0  0  0
   -1.7503   13.4247   -6.4858 C   0  0  0  0  0  0  0  0  0  0  0  0
   -0.4131   13.4674   -6.4189 N   0  0  0  0  0  0  0  0  0  0  0  0
    0.1758   12.3735   -6.8057 N   0  0  0  0  0  0  0  0  0  0  0  0
   -0.8094   11.5620   -7.1791 C   0  0  0  0  0  0  0  0  0  0  0  0
    0.4060   14.5705   -5.9896 C   0  0  0  0  0  0  0  0  0  0  0  0
   -5.6528   14.0066  -14.2746 O   0  0  0  0  0  0  0  0  0  0  0  0
   -6.0747   12.2631   -9.8555 H   0  0  0  0  0  0  0  0  0  0  0  0
   -8.1361   10.1224  -13.9137 H   0  0  0  0  0  0  0  0  0  0  0  0
   -6.7956   12.2399  -14.0855 H   0  0  0  0  0  0  0  0  0  0  0  0
   -6.3107   10.0281  -10.7406 H   0  0  0  0  0  0  0  0  0  0  0  0
   -8.0279    9.5798   -7.2599 H   0  0  0  0  0  0  0  0  0  0  0  0
   -4.2517   16.0431  -13.8534 H   0  0  0  0  0  0  0  0  0  0  0  0
   -4.9593   16.2038  -12.2102 H   0  0  0  0  0  0  0  0  0  0  0  0
   -3.4743   15.2236  -12.4567 H   0  0  0  0  0  0  0  0  0  0  0  0
   -6.7526   12.3233   -6.9261 H   0  0  0  0  0  0  0  0  0  0  0  0
   -4.5246   13.2972   -6.4815 H   0  0  0  0  0  0  0  0  0  0  0  0
   -3.4585   11.1486   -6.2240 H   0  0  0  0  0  0  0  0  0  0  0  0
   -2.6730    9.7536   -8.0506 H   0  0  0  0  0  0  0  0  0  0  0  0
   -4.8993    8.7846   -8.4743 H   0  0  0  0  0  0  0  0  0  0  0  0
   -2.4278   14.2202   -6.2127 H   0  0  0  0  0  0  0  0  0  0  0  0
   -0.6614   10.5729   -7.5868 H   0  0  0  0  0  0  0  0  0  0  0  0
    1.4672   14.2904   -6.0634 H   0  0  0  0  0  0  0  0  0  0  0  0
    0.2117   15.4427   -6.6311 H   0  0  0  0  0  0  0  0  0  0  0  0
    0.1649   14.8218   -4.9462 H   0  0  0  0  0  0  0  0  0  0  0  0
   -6.1759   13.2137  -14.2608 H   0  0  0  0  0  0  0  0  0  0  0  0
  1  2  2  0  0  0  0
  1  4  1  0  0  0  0
  1 13  1  0  0  0  0
  2  6  1  0  0  0  0
  3  4  2  0  0  0  0
  3  5  1  0  0  0  0
  5  6  1  0  0  0  0
  5  9  2  0  0  0  0
  6  7  1  0  0  0  0
  7  8  2  0  0  0  0
  7 10  1  0  0  0  0
  8  9  1  0  0  0  0
 10 14  2  0  0  0  0
 11 12  1  0  0  0  0
 11 13  2  0  0  0  0
 11 26  1  0  0  0  0
 14 15  1  0  0  0  0
 14 19  1  0  0  0  0
 15 16  2  0  0  0  0
 16 17  1  0  0  0  0
 17 18  1  0  0  0  0
 17 20  1  0  0  0  0
 18 19  2  0  0  0  0
 20 21  2  0  0  0  0
 20 24  1  0  0  0  0
 21 22  1  0  0  0  0
 22 23  1  0  0  0  0
 22 25  1  0  0  0  0
 23 24  2  0  0  0  0
  2 27  1  0  0  0  0
  3 28  1  0  0  0  0
  4 29  1  0  0  0  0
  6 30  1  0  0  0  0
 10 31  1  0  0  0  0
 12 32  1  0  0  0  0
 12 33  1  0  0  0  0
 12 34  1  0  0  0  0
 15 35  1  0  0  0  0
 16 36  1  0  0  0  0
 17 37  1  0  0  0  0
 18 38  1  0  0  0  0
 19 39  1  0  0  0  0
 21 40  1  0  0  0  0
 24 41  1  0  0  0  0
 25 42  1  0  0  0  0
 25 43  1  0  0  0  0
 25 44  1  0  0  0  0
 26 45  1  0  0  0  0
M  END
> <Name>
24

> <IC50[uM]>
0.029

$$$$
24
  -OEChem-05192314333D
 Structure written by MMmdl.
 45 48  0     1  0  0  0  0  0999 V2000
   -6.3515   12.3530  -11.9813 C   0  0  3  0  0  0  0  0  0  0  0  0
   -6.5085   11.7912  -10.7247 C   0  0  0  0  0  0  0  0  0  0  0  0
   -7.6802   10.5716  -13.0438 C   0  0  0  0  0  0  0  0  0  0  0  0
   -6.9296   11.7657  -13.1245 C   0  0  0  0  0  0  0  0  0  0  0  0
   -7.7980   10.0044  -11.7669 C   0  0  0  0  0  0  0  0  0  0  0  0
   -7.2328   10.6109  -10.5989 C   0  0  0  0  0  0  0  0  0  0  0  0
   -7.6209    9.7375   -9.5162 C   0  0  0  0  0  0  0  0  0  0  0  0
   -8.2754    8.7446   -9.9970 N   0  0  0  0  0  0  0  0  0  0  0  0
   -8.4233    8.8800  -11.3218 N   0  0  0  0  0  0  0  0  0  0  0  0
   -7.3328    9.8812   -8.0296 C   0  0  0  0  0  0  0  0  0  0  0  0
   -5.3004   14.2773  -13.1499 C   0  0  0  0  0  0  0  0  0  0  0  0
   -4.4346   15.5261  -12.8998 C   0  0  0  0  0  0  0  0  0  0  0  0
   -5.5896   13.5586  -12.0343 N   0  0  0  0  0  0  0  0  0  0  0  0
   -5.9706   10.4906   -7.7317 C   0  0  0  0  0  0  0  0  0  0  0  0
   -5.8616   11.7632   -7.1684 C   0  0  0  0  0  0  0  0  0  0  0  0
   -4.6051   12.3126   -6.9180 C   0  0  0  0  0  0  0  0  0  0  0  0
   -3.4544   11.5948   -7.2294 C   0  0  0  0  0  0  0  0  0  0  0  0
   -3.5626   10.3128   -7.8011 C   0  0  0  0  0  0  0  0  0  0  0  0
   -4.8160    9.7710   -8.0425 C   0  0  0  0  0  0  0  0  0  0  0  0
   -2.1083   12.1736   -6.9694 C   0  0  0  0  0  0  0  0  0  0  0  0
   -1.7503   13.4247   -6.4858 C   0  0  0  0  0  0  0  0  0  0  0  0
   -0.4131   13.4674   -6.4189 N   0  0  0  0  0  0  0  0  0  0  0  0
    0.1758   12.3735   -6.8057 N   0  0  0  0  0  0  0  0  0  0  0  0
   -0.8094   11.5620   -7.1791 C   0  0  0  0  0  0  0  0  0  0  0  0
    0.4060   14.5705   -5.9896 C   0  0  0  0  0  0  0  0  0  0  0  0
   -5.6528   14.0066  -14.2746 O   0  0  0  0  0  0  0  0  0  0  0  0
   -5.4362   11.7628  -12.1356 H   0  0  0  0  0  0  0  0  0  0  0  0
   -6.0747   12.2631   -9.8555 H   0  0  0  0  0  0  0  0  0  0  0  0
   -8.1361   10.1224  -13.9137 H   0  0  0  0  0  0  0  0  0  0  0  0
   -6.7956   12.2399  -14.0855 H   0  0  0  0  0  0  0  0  0  0  0  0
   -8.0279    9.5798   -7.2599 H   0  0  0  0  0  0  0  0  0  0  0  0
   -4.2517   16.0431  -13.8534 H   0  0  0  0  0  0  0  0  0  0  0  0
   -4.9593   16.2038  -12.2102 H   0  0  0  0  0  0  0  0  0  0  0  0
   -3.4743   15.2236  -12.4567 H   0  0  0  0  0  0  0  0  0  0  0  0
   -6.7526   12.3233   -6.9261 H   0  0  0  0  0  0  0  0  0  0  0  0
   -4.5246   13.2972   -6.4815 H   0  0  0  0  0  0  0  0  0  0  0  0
   -3.4585   11.1486   -6.2240 H   0  0  0  0  0  0  0  0  0  0  0  0
   -2.6730    9.7536   -8.0506 H   0  0  0  0  0  0  0  0  0  0  0  0
   -4.8993    8.7846   -8.4743 H   0  0  0  0  0  0  0  0  0  0  0  0
   -2.4278   14.2202   -6.2127 H   0  0  0  0  0  0  0  0  0  0  0  0
   -0.6614   10.5729   -7.5868 H   0  0  0  0  0  0  0  0  0  0  0  0
    1.4672   14.2904   -6.0634 H   0  0  0  0  0  0  0  0  0  0  0  0
    0.2117   15.4427   -6.6311 H   0  0  0  0  0  0  0  0  0  0  0  0
    0.1649   14.8218   -4.9462 H   0  0  0  0  0  0  0  0  0  0  0  0
   -6.1759   13.2137  -14.2608 H   0  0  0  0  0  0  0  0  0  0  0  0
  1  2  1  0  0  0  0
  1  4  1  0  0  0  0
  1 13  1  0  0  0  0
  2  6  2  0  0  0  0
  3  4  2  0  0  0  0
  3  5  1  0  0  0  0
  5  6  1  0  0  0  0
  5  9  2  0  0  0  0
  6  7  1  0  0  0  0
  7  8  2  0  0  0  0
  7 10  1  0  0  0  0
  8  9  1  0  0  0  0
 10 14  2  0  0  0  0
 11 12  1  0  0  0  0
 11 13  2  0  0  0  0
 11 26  1  0  0  0  0
 14 15  1  0  0  0  0
 14 19  1  0  0  0  0
 15 16  2  0  0  0  0
 16 17  1  0  0  0  0
 17 18  1  0  0  0  0
 17 20  1  0  0  0  0
 18 19  2  0  0  0  0
 20 21  2  0  0  0  0
 20 24  1  0  0  0  0
 21 22  1  0  0  0  0
 22 23  1  0  0  0  0
 22 25  1  0  0  0  0
 23 24  2  0  0  0  0
  1 27  1  0  0  0  0
  2 28  1  0  0  0  0
  3 29  1  0  0  0  0
  4 30  1  0  0  0  0
 10 31  1  0  0  0  0
 12 32  1  0  0  0  0
 12 33  1  0  0  0  0
 12 34  1  0  0  0  0
 15 35  1  0  0  0  0
 16 36  1  0  0  0  0
 17 37  1  0  0  0  0
 18 38  1  0  0  0  0
 19 39  1  0  0  0  0
 21 40  1  0  0  0  0
 24 41  1  0  0  0  0
 25 42  1  0  0  0  0
 25 43  1  0  0  0  0
 25 44  1  0  0  0  0
 26 45  1  0  0  0  0
M  END
> <Name>
24

> <IC50[uM]>
0.029

$$$$
24
  -OEChem-05192314333D
 Structure written by MMmdl.
 45 48  0     0  0  0  0  0  0999 V2000
   -6.3515   12.3530  -11.9813 C   0  0  0  0  0  0  0  0  0  0  0  0
   -6.5085   11.7912  -10.7247 C   0  0  0  0  0  0  0  0  0  0  0  0
   -7.6802   10.5716  -13.0438 C   0  0  0  0  0  0  0  0  0  0  0  0
   -6.9296   11.7657  -13.1245 C   0  0  0  0  0  0  0  0  0  0  0  0
   -7.7980   10.0044  -11.7669 C   0  0  0  0  0  0  0  0  0  0  0  0
   -7.2328   10.6109  -10.5989 C   0  0  0  0  0  0  0  0  0  0  0  0
   -7.6209    9.7375   -9.5162 C   0  0  0  0  0  0  0  0  0  0  0  0
   -8.2754    8.7446   -9.9970 N   0  0  0  0  0  0  0  0  0  0  0  0
   -8.4233    8.8800  -11.3218 N   0  0  0  0  0  0  0  0  0  0  0  0
   -7.3328    9.8812   -8.0296 C   0  0  0  0  0  0  0  0  0  0  0  0
   -5.3004   14.2773  -13.1499 C   0  0  0  0  0  0  0  0  0  0  0  0
   -4.4346   15.5261  -12.8998 C   0  0  0  0  0  0  0  0  0  0  0  0
   -5.5896   13.5586  -12.0343 N   0  0  0  0  0  0  0  0  0  0  0  0
   -5.9706   10.4906   -7.7317 C   0  0  0  0  0  0  0  0  0  0  0  0
   -5.8616   11.7632   -7.1684 C   0  0  0  0  0  0  0  0  0  0  0  0
   -4.6051   12.3126   -6.9180 C   0  0  0  0  0  0  0  0  0  0  0  0
   -3.4544   11.5948   -7.2294 C   0  0  0  0  0  0  0  0  0  0  0  0
   -3.5626   10.3128   -7.8011 C   0  0  0  0  0  0  0  0  0  0  0  0
   -4.8160    9.7710   -8.0425 C   0  0  0  0  0  0  0  0  0  0  0  0
   -2.1083   12.1736   -6.9694 C   0  0  0  0  0  0  0  0  0  0  0  0
   -1.7503   13.4247   -6.4858 C   0  0  0  0  0  0  0  0  0  0  0  0
   -0.4131   13.4674   -6.4189 N   0  0  0  0  0  0  0  0  0  0  0  0
    0.1758   12.3735   -6.8057 N   0  0  0  0  0  0  0  0  0  0  0  0
   -0.8094   11.5620   -7.1791 C   0  0  0  0  0  0  0  0  0  0  0  0
    0.4060   14.5705   -5.9896 C   0  0  0  0  0  0  0  0  0  0  0  0
   -5.6528   14.0066  -14.2746 O   0  0  0  0  0  0  0  0  0  0  0  0
   -6.0747   12.2631   -9.8555 H   0  0  0  0  0  0  0  0  0  0  0  0
   -8.6945   10.7862  -13.4115 H   0  0  0  0  0  0  0  0  0  0  0  0
   -7.2021    9.8287  -13.6992 H   0  0  0  0  0  0  0  0  0  0  0  0
   -6.7956   12.2399  -14.0855 H   0  0  0  0  0  0  0  0  0  0  0  0
   -8.0279    9.5798   -7.2599 H   0  0  0  0  0  0  0  0  0  0  0  0
   -4.2517   16.0431  -13.8534 H   0  0  0  0  0  0  0  0  0  0  0  0
   -4.9593   16.2038  -12.2102 H   0  0  0  0  0  0  0  0  0  0  0  0
   -3.4743   15.2236  -12.4567 H   0  0  0  0  0  0  0  0  0  0  0  0
   -6.7526   12.3233   -6.9261 H   0  0  0  0  0  0  0  0  0  0  0  0
   -4.5246   13.2972   -6.4815 H   0  0  0  0  0  0  0  0  0  0  0  0
   -3.4585   11.1486   -6.2240 H   0  0  0  0  0  0  0  0  0  0  0  0
   -2.6730    9.7536   -8.0506 H   0  0  0  0  0  0  0  0  0  0  0  0
   -4.8993    8.7846   -8.4743 H   0  0  0  0  0  0  0  0  0  0  0  0
   -2.4278   14.2202   -6.2127 H   0  0  0  0  0  0  0  0  0  0  0  0
   -0.6614   10.5729   -7.5868 H   0  0  0  0  0  0  0  0  0  0  0  0
    1.4672   14.2904   -6.0634 H   0  0  0  0  0  0  0  0  0  0  0  0
    0.2117   15.4427   -6.6311 H   0  0  0  0  0  0  0  0  0  0  0  0
    0.1649   14.8218   -4.9462 H   0  0  0  0  0  0  0  0  0  0  0  0
   -6.1759   13.2137  -14.2608 H   0  0  0  0  0  0  0  0  0  0  0  0
  1  2  1  0  0  0  0
  1  4  2  0  0  0  0
  1 13  1  0  0  0  0
  2  6  2  0  0  0  0
  3  4  1  0  0  0  0
  3  5  1  0  0  0  0
  5  6  1  0  0  0  0
  5  9  2  0  0  0  0
  6  7  1  0  0  0  0
  7  8  2  0  0  0  0
  7 10  1  0  0  0  0
  8  9  1  0  0  0  0
 10 14  2  0  0  0  0
 11 12  1  0  0  0  0
 11 13  2  0  0  0  0
 11 26  1  0  0  0  0
 14 15  1  0  0  0  0
 14 19  1  0  0  0  0
 15 16  2  0  0  0  0
 16 17  1  0  0  0  0
 17 18  1  0  0  0  0
 17 20  1  0  0  0  0
 18 19  2  0  0  0  0
 20 21  2  0  0  0  0
 20 24  1  0  0  0  0
 21 22  1  0  0  0  0
 22 23  1  0  0  0  0
 22 25  1  0  0  0  0
 23 24  2  0  0  0  0
  2 27  1  0  0  0  0
  3 28  1  0  0  0  0
  3 29  1  0  0  0  0
  4 30  1  0  0  0  0
 10 31  1  0  0  0  0
 12 32  1  0  0  0  0
 12 33  1  0  0  0  0
 12 34  1  0  0  0  0
 15 35  1  0  0  0  0
 16 36  1  0  0  0  0
 17 37  1  0  0  0  0
 18 38  1  0  0  0  0
 19 39  1  0  0  0  0
 21 40  1  0  0  0  0
 24 41  1  0  0  0  0
 25 42  1  0  0  0  0
 25 43  1  0  0  0  0
 25 44  1  0  0  0  0
 26 45  1  0  0  0  0
M  END
> <Name>
24

> <IC50[uM]>
0.029

$$$$
24
  -OEChem-05192314333D
 Structure written by MMmdl.
 45 48  0     1  0  0  0  0  0999 V2000
   -6.3515   12.3530  -11.9813 C   0  0  0  0  0  0  0  0  0  0  0  0
   -6.5085   11.7912  -10.7247 C   0  0  0  0  0  0  0  0  0  0  0  0
   -7.6802   10.5716  -13.0438 C   0  0  0  0  0  0  0  0  0  0  0  0
   -6.9296   11.7657  -13.1245 C   0  0  0  0  0  0  0  0  0  0  0  0
   -7.7980   10.0044  -11.7669 C   0  0  0  0  0  0  0  0  0  0  0  0
   -7.2328   10.6109  -10.5989 C   0  0  3  0  0  0  0  0  0  0  0  0
   -7.6209    9.7375   -9.5162 C   0  0  0  0  0  0  0  0  0  0  0  0
   -8.2754    8.7446   -9.9970 N   0  0  0  0  0  0  0  0  0  0  0  0
   -8.4233    8.8800  -11.3218 N   0  0  0  0  0  0  0  0  0  0  0  0
   -7.3328    9.8812   -8.0296 C   0  0  0  0  0  0  0  0  0  0  0  0
   -5.3004   14.2773  -13.1499 C   0  0  0  0  0  0  0  0  0  0  0  0
   -4.4346   15.5261  -12.8998 C   0  0  0  0  0  0  0  0  0  0  0  0
   -5.5896   13.5586  -12.0343 N   0  0  0  0  0  0  0  0  0  0  0  0
   -5.9706   10.4906   -7.7317 C   0  0  0  0  0  0  0  0  0  0  0  0
   -5.8616   11.7632   -7.1684 C   0  0  0  0  0  0  0  0  0  0  0  0
   -4.6051   12.3126   -6.9180 C   0  0  0  0  0  0  0  0  0  0  0  0
   -3.4544   11.5948   -7.2294 C   0  0  0  0  0  0  0  0  0  0  0  0
   -3.5626   10.3128   -7.8011 C   0  0  0  0  0  0  0  0  0  0  0  0
   -4.8160    9.7710   -8.0425 C   0  0  0  0  0  0  0  0  0  0  0  0
   -2.1083   12.1736   -6.9694 C   0  0  0  0  0  0  0  0  0  0  0  0
   -1.7503   13.4247   -6.4858 C   0  0  0  0  0  0  0  0  0  0  0  0
   -0.4131   13.4674   -6.4189 N   0  0  0  0  0  0  0  0  0  0  0  0
    0.1758   12.3735   -6.8057 N   0  0  0  0  0  0  0  0  0  0  0  0
   -0.8094   11.5620   -7.1791 C   0  0  0  0  0  0  0  0  0  0  0  0
    0.4060   14.5705   -5.9896 C   0  0  0  0  0  0  0  0  0  0  0  0
   -5.6528   14.0066  -14.2746 O   0  0  0  0  0  0  0  0  0  0  0  0
   -6.0747   12.2631   -9.8555 H   0  0  0  0  0  0  0  0  0  0  0  0
   -8.1361   10.1224  -13.9137 H   0  0  0  0  0  0  0  0  0  0  0  0
   -6.7956   12.2399  -14.0855 H   0  0  0  0  0  0  0  0  0  0  0  0
   -6.3107   10.0281  -10.7406 H   0  0  0  0  0  0  0  0  0  0  0  0
   -8.0279    9.5798   -7.2599 H   0  0  0  0  0  0  0  0  0  0  0  0
   -4.2517   16.0431  -13.8534 H   0  0  0  0  0  0  0  0  0  0  0  0
   -4.9593   16.2038  -12.2102 H   0  0  0  0  0  0  0  0  0  0  0  0
   -3.4743   15.2236  -12.4567 H   0  0  0  0  0  0  0  0  0  0  0  0
   -6.7526   12.3233   -6.9261 H   0  0  0  0  0  0  0  0  0  0  0  0
   -4.5246   13.2972   -6.4815 H   0  0  0  0  0  0  0  0  0  0  0  0
   -2.6730    9.7536   -8.0506 H   0  0  0  0  0  0  0  0  0  0  0  0
   -4.8679    8.8310   -7.4736 H   0  0  0  0  0  0  0  0  0  0  0  0
   -4.8621    9.5509   -9.1193 H   0  0  0  0  0  0  0  0  0  0  0  0
   -2.4278   14.2202   -6.2127 H   0  0  0  0  0  0  0  0  0  0  0  0
   -0.6614   10.5729   -7.5868 H   0  0  0  0  0  0  0  0  0  0  0  0
    1.4672   14.2904   -6.0634 H   0  0  0  0  0  0  0  0  0  0  0  0
    0.2117   15.4427   -6.6311 H   0  0  0  0  0  0  0  0  0  0  0  0
    0.1649   14.8218   -4.9462 H   0  0  0  0  0  0  0  0  0  0  0  0
   -6.1759   13.2137  -14.2608 H   0  0  0  0  0  0  0  0  0  0  0  0
  1  2  2  0  0  0  0
  1  4  1  0  0  0  0
  1 13  1  0  0  0  0
  2  6  1  0  0  0  0
  3  4  2  0  0  0  0
  3  5  1  0  0  0  0
  5  6  1  0  0  0  0
  5  9  2  0  0  0  0
  6  7  1  0  0  0  0
  7  8  2  0  0  0  0
  7 10  1  0  0  0  0
  8  9  1  0  0  0  0
 10 14  2  3  0  0  0
 11 12  1  0  0  0  0
 11 13  2  0  0  0  0
 11 26  1  0  0  0  0
 14 15  1  0  0  0  0
 14 19  1  0  0  0  0
 15 16  2  0  0  0  0
 16 17  1  0  0  0  0
 17 18  2  0  0  0  0
 17 20  1  0  0  0  0
 18 19  1  0  0  0  0
 20 21  2  0  0  0  0
 20 24  1  0  0  0  0
 21 22  1  0  0  0  0
 22 23  1  0  0  0  0
 22 25  1  0  0  0  0
 23 24  2  0  0  0  0
  2 27  1  0  0  0  0
  3 28  1  0  0  0  0
  4 29  1  0  0  0  0
  6 30  1  0  0  0  0
 10 31  1  0  0  0  0
 12 32  1  0  0  0  0
 12 33  1  0  0  0  0
 12 34  1  0  0  0  0
 15 35  1  0  0  0  0
 16 36  1  0  0  0  0
 18 37  1  0  0  0  0
 19 38  1  0  0  0  0
 19 39  1  0  0  0  0
 21 40  1  0  0  0  0
 24 41  1  0  0  0  0
 25 42  1  0  0  0  0
 25 43  1  0  0  0  0
 25 44  1  0  0  0  0
 26 45  1  0  0  0  0
M  END
> <Name>
24

> <IC50[uM]>
0.029

$$$$
24
  -OEChem-05192314333D
 Structure written by MMmdl.
 45 48  0     1  0  0  0  0  0999 V2000
   -6.3515   12.3530  -11.9813 C   0  0  3  0  0  0  0  0  0  0  0  0
   -6.5085   11.7912  -10.7247 C   0  0  0  0  0  0  0  0  0  0  0  0
   -7.6802   10.5716  -13.0438 C   0  0  0  0  0  0  0  0  0  0  0  0
   -6.9296   11.7657  -13.1245 C   0  0  0  0  0  0  0  0  0  0  0  0
   -7.7980   10.0044  -11.7669 C   0  0  0  0  0  0  0  0  0  0  0  0
   -7.2328   10.6109  -10.5989 C   0  0  0  0  0  0  0  0  0  0  0  0
   -7.6209    9.7375   -9.5162 C   0  0  0  0  0  0  0  0  0  0  0  0
   -8.2754    8.7446   -9.9970 N   0  0  0  0  0  0  0  0  0  0  0  0
   -8.4233    8.8800  -11.3218 N   0  0  0  0  0  0  0  0  0  0  0  0
   -7.3328    9.8812   -8.0296 C   0  0  0  0  0  0  0  0  0  0  0  0
   -5.3004   14.2773  -13.1499 C   0  0  0  0  0  0  0  0  0  0  0  0
   -4.4346   15.5261  -12.8998 C   0  0  0  0  0  0  0  0  0  0  0  0
   -5.5896   13.5586  -12.0343 N   0  0  0  0  0  0  0  0  0  0  0  0
   -5.9706   10.4906   -7.7317 C   0  0  0  0  0  0  0  0  0  0  0  0
   -5.8616   11.7632   -7.1684 C   0  0  0  0  0  0  0  0  0  0  0  0
   -4.6051   12.3126   -6.9180 C   0  0  0  0  0  0  0  0  0  0  0  0
   -3.4544   11.5948   -7.2294 C   0  0  0  0  0  0  0  0  0  0  0  0
   -3.5626   10.3128   -7.8011 C   0  0  0  0  0  0  0  0  0  0  0  0
   -4.8160    9.7710   -8.0425 C   0  0  0  0  0  0  0  0  0  0  0  0
   -2.1083   12.1736   -6.9694 C   0  0  0  0  0  0  0  0  0  0  0  0
   -1.7503   13.4247   -6.4858 C   0  0  0  0  0  0  0  0  0  0  0  0
   -0.4131   13.4674   -6.4189 N   0  0  0  0  0  0  0  0  0  0  0  0
    0.1758   12.3735   -6.8057 N   0  0  0  0  0  0  0  0  0  0  0  0
   -0.8094   11.5620   -7.1791 C   0  0  0  0  0  0  0  0  0  0  0  0
    0.4060   14.5705   -5.9896 C   0  0  0  0  0  0  0  0  0  0  0  0
   -5.6528   14.0066  -14.2746 O   0  0  0  0  0  0  0  0  0  0  0  0
   -5.4362   11.7628  -12.1356 H   0  0  0  0  0  0  0  0  0  0  0  0
   -6.0747   12.2631   -9.8555 H   0  0  0  0  0  0  0  0  0  0  0  0
   -8.1361   10.1224  -13.9137 H   0  0  0  0  0  0  0  0  0  0  0  0
   -6.7956   12.2399  -14.0855 H   0  0  0  0  0  0  0  0  0  0  0  0
   -8.0279    9.5798   -7.2599 H   0  0  0  0  0  0  0  0  0  0  0  0
   -4.2517   16.0431  -13.8534 H   0  0  0  0  0  0  0  0  0  0  0  0
   -4.9593   16.2038  -12.2102 H   0  0  0  0  0  0  0  0  0  0  0  0
   -3.4743   15.2236  -12.4567 H   0  0  0  0  0  0  0  0  0  0  0  0
   -6.7526   12.3233   -6.9261 H   0  0  0  0  0  0  0  0  0  0  0  0
   -4.5246   13.2972   -6.4815 H   0  0  0  0  0  0  0  0  0  0  0  0
   -2.6730    9.7536   -8.0506 H   0  0  0  0  0  0  0  0  0  0  0  0
   -4.8679    8.8310   -7.4736 H   0  0  0  0  0  0  0  0  0  0  0  0
   -4.8621    9.5509   -9.1193 H   0  0  0  0  0  0  0  0  0  0  0  0
   -2.4278   14.2202   -6.2127 H   0  0  0  0  0  0  0  0  0  0  0  0
   -0.6614   10.5729   -7.5868 H   0  0  0  0  0  0  0  0  0  0  0  0
    1.4672   14.2904   -6.0634 H   0  0  0  0  0  0  0  0  0  0  0  0
    0.2117   15.4427   -6.6311 H   0  0  0  0  0  0  0  0  0  0  0  0
    0.1649   14.8218   -4.9462 H   0  0  0  0  0  0  0  0  0  0  0  0
   -6.1759   13.2137  -14.2608 H   0  0  0  0  0  0  0  0  0  0  0  0
  1  2  1  0  0  0  0
  1  4  1  0  0  0  0
  1 13  1  0  0  0  0
  2  6  2  0  0  0  0
  3  4  2  0  0  0  0
  3  5  1  0  0  0  0
  5  6  1  0  0  0  0
  5  9  2  0  0  0  0
  6  7  1  0  0  0  0
  7  8  2  0  0  0  0
  7 10  1  0  0  0  0
  8  9  1  0  0  0  0
 10 14  2  3  0  0  0
 11 12  1  0  0  0  0
 11 13  2  0  0  0  0
 11 26  1  0  0  0  0
 14 15  1  0  0  0  0
 14 19  1  0  0  0  0
 15 16  2  0  0  0  0
 16 17  1  0  0  0  0
 17 18  2  0  0  0  0
 17 20  1  0  0  0  0
 18 19  1  0  0  0  0
 20 21  2  0  0  0  0
 20 24  1  0  0  0  0
 21 22  1  0  0  0  0
 22 23  1  0  0  0  0
 22 25  1  0  0  0  0
 23 24  2  0  0  0  0
  1 27  1  0  0  0  0
  2 28  1  0  0  0  0
  3 29  1  0  0  0  0
  4 30  1  0  0  0  0
 10 31  1  0  0  0  0
 12 32  1  0  0  0  0
 12 33  1  0  0  0  0
 12 34  1  0  0  0  0
 15 35  1  0  0  0  0
 16 36  1  0  0  0  0
 18 37  1  0  0  0  0
 19 38  1  0  0  0  0
 19 39  1  0  0  0  0
 21 40  1  0  0  0  0
 24 41  1  0  0  0  0
 25 42  1  0  0  0  0
 25 43  1  0  0  0  0
 25 44  1  0  0  0  0
 26 45  1  0  0  0  0
M  END
> <Name>
24

> <IC50[uM]>
0.029

$$$$
24
  -OEChem-05192314333D
 Structure written by MMmdl.
 45 48  0     0  0  0  0  0  0999 V2000
   -6.3515   12.3530  -11.9813 C   0  0  0  0  0  0  0  0  0  0  0  0
   -6.5085   11.7912  -10.7247 C   0  0  0  0  0  0  0  0  0  0  0  0
   -7.6802   10.5716  -13.0438 C   0  0  0  0  0  0  0  0  0  0  0  0
   -6.9296   11.7657  -13.1245 C   0  0  0  0  0  0  0  0  0  0  0  0
   -7.7980   10.0044  -11.7669 C   0  0  0  0  0  0  0  0  0  0  0  0
   -7.2328   10.6109  -10.5989 C   0  0  0  0  0  0  0  0  0  0  0  0
   -7.6209    9.7375   -9.5162 C   0  0  0  0  0  0  0  0  0  0  0  0
   -8.2754    8.7446   -9.9970 N   0  0  0  0  0  0  0  0  0  0  0  0
   -8.4233    8.8800  -11.3218 N   0  0  0  0  0  0  0  0  0  0  0  0
   -7.3328    9.8812   -8.0296 C   0  0  0  0  0  0  0  0  0  0  0  0
   -5.3004   14.2773  -13.1499 C   0  0  0  0  0  0  0  0  0  0  0  0
   -4.4346   15.5261  -12.8998 C   0  0  0  0  0  0  0  0  0  0  0  0
   -5.5896   13.5586  -12.0343 N   0  0  0  0  0  0  0  0  0  0  0  0
   -5.9706   10.4906   -7.7317 C   0  0  0  0  0  0  0  0  0  0  0  0
   -5.8616   11.7632   -7.1684 C   0  0  0  0  0  0  0  0  0  0  0  0
   -4.6051   12.3126   -6.9180 C   0  0  0  0  0  0  0  0  0  0  0  0
   -3.4544   11.5948   -7.2294 C   0  0  0  0  0  0  0  0  0  0  0  0
   -3.5626   10.3128   -7.8011 C   0  0  0  0  0  0  0  0  0  0  0  0
   -4.8160    9.7710   -8.0425 C   0  0  0  0  0  0  0  0  0  0  0  0
   -2.1083   12.1736   -6.9694 C   0  0  0  0  0  0  0  0  0  0  0  0
   -1.7503   13.4247   -6.4858 C   0  0  0  0  0  0  0  0  0  0  0  0
   -0.4131   13.4674   -6.4189 N   0  0  0  0  0  0  0  0  0  0  0  0
    0.1758   12.3735   -6.8057 N   0  0  0  0  0  0  0  0  0  0  0  0
   -0.8094   11.5620   -7.1791 C   0  0  0  0  0  0  0  0  0  0  0  0
    0.4060   14.5705   -5.9896 C   0  0  0  0  0  0  0  0  0  0  0  0
   -5.6528   14.0066  -14.2746 O   0  0  0  0  0  0  0  0  0  0  0  0
   -6.0747   12.2631   -9.8555 H   0  0  0  0  0  0  0  0  0  0  0  0
   -8.6945   10.7862  -13.4115 H   0  0  0  0  0  0  0  0  0  0  0  0
   -7.2021    9.8287  -13.6992 H   0  0  0  0  0  0  0  0  0  0  0  0
   -6.7956   12.2399  -14.0855 H   0  0  0  0  0  0  0  0  0  0  0  0
   -8.0279    9.5798   -7.2599 H   0  0  0  0  0  0  0  0  0  0  0  0
   -4.2517   16.0431  -13.8534 H   0  0  0  0  0  0  0  0  0  0  0  0
   -4.9593   16.2038  -12.2102 H   0  0  0  0  0  0  0  0  0  0  0  0
   -3.4743   15.2236  -12.4567 H   0  0  0  0  0  0  0  0  0  0  0  0
   -6.7526   12.3233   -6.9261 H   0  0  0  0  0  0  0  0  0  0  0  0
   -4.5246   13.2972   -6.4815 H   0  0  0  0  0  0  0  0  0  0  0  0
   -2.6730    9.7536   -8.0506 H   0  0  0  0  0  0  0  0  0  0  0  0
   -4.8679    8.8310   -7.4736 H   0  0  0  0  0  0  0  0  0  0  0  0
   -4.8621    9.5509   -9.1193 H   0  0  0  0  0  0  0  0  0  0  0  0
   -2.4278   14.2202   -6.2127 H   0  0  0  0  0  0  0  0  0  0  0  0
   -0.6614   10.5729   -7.5868 H   0  0  0  0  0  0  0  0  0  0  0  0
    1.4672   14.2904   -6.0634 H   0  0  0  0  0  0  0  0  0  0  0  0
    0.2117   15.4427   -6.6311 H   0  0  0  0  0  0  0  0  0  0  0  0
    0.1649   14.8218   -4.9462 H   0  0  0  0  0  0  0  0  0  0  0  0
   -6.1759   13.2137  -14.2608 H   0  0  0  0  0  0  0  0  0  0  0  0
  1  2  1  0  0  0  0
  1  4  2  0  0  0  0
  1 13  1  0  0  0  0
  2  6  2  0  0  0  0
  3  4  1  0  0  0  0
  3  5  1  0  0  0  0
  5  6  1  0  0  0  0
  5  9  2  0  0  0  0
  6  7  1  0  0  0  0
  7  8  2  0  0  0  0
  7 10  1  0  0  0  0
  8  9  1  0  0  0  0
 10 14  2  3  0  0  0
 11 12  1  0  0  0  0
 11 13  2  0  0  0  0
 11 26  1  0  0  0  0
 14 15  1  0  0  0  0
 14 19  1  0  0  0  0
 15 16  2  0  0  0  0
 16 17  1  0  0  0  0
 17 18  2  0  0  0  0
 17 20  1  0  0  0  0
 18 19  1  0  0  0  0
 20 21  2  0  0  0  0
 20 24  1  0  0  0  0
 21 22  1  0  0  0  0
 22 23  1  0  0  0  0
 22 25  1  0  0  0  0
 23 24  2  0  0  0  0
  2 27  1  0  0  0  0
  3 28  1  0  0  0  0
  3 29  1  0  0  0  0
  4 30  1  0  0  0  0
 10 31  1  0  0  0  0
 12 32  1  0  0  0  0
 12 33  1  0  0  0  0
 12 34  1  0  0  0  0
 15 35  1  0  0  0  0
 16 36  1  0  0  0  0
 18 37  1  0  0  0  0
 19 38  1  0  0  0  0
 19 39  1  0  0  0  0
 21 40  1  0  0  0  0
 24 41  1  0  0  0  0
 25 42  1  0  0  0  0
 25 43  1  0  0  0  0
 25 44  1  0  0  0  0
 26 45  1  0  0  0  0
M  END
> <Name>
24

> <IC50[uM]>
0.029

$$$$
24
  -OEChem-05192314333D
 Structure written by MMmdl.
 45 48  0     1  0  0  0  0  0999 V2000
   -6.3515   12.3530  -11.9813 C   0  0  0  0  0  0  0  0  0  0  0  0
   -6.5085   11.7912  -10.7247 C   0  0  0  0  0  0  0  0  0  0  0  0
   -7.6802   10.5716  -13.0438 C   0  0  0  0  0  0  0  0  0  0  0  0
   -6.9296   11.7657  -13.1245 C   0  0  0  0  0  0  0  0  0  0  0  0
   -7.7980   10.0044  -11.7669 C   0  0  3  0  0  0  0  0  0  0  0  0
   -7.2328   10.6109  -10.5989 C   0  0  0  0  0  0  0  0  0  0  0  0
   -7.6209    9.7375   -9.5162 C   0  0  0  0  0  0  0  0  0  0  0  0
   -8.2754    8.7446   -9.9970 N   0  0  0  0  0  0  0  0  0  0  0  0
   -8.4233    8.8800  -11.3218 N   0  0  0  0  0  0  0  0  0  0  0  0
   -7.3328    9.8812   -8.0296 C   0  0  0  0  0  0  0  0  0  0  0  0
   -5.3004   14.2773  -13.1499 C   0  0  0  0  0  0  0  0  0  0  0  0
   -4.4346   15.5261  -12.8998 C   0  0  0  0  0  0  0  0  0  0  0  0
   -5.5896   13.5586  -12.0343 N   0  0  0  0  0  0  0  0  0  0  0  0
   -5.9706   10.4906   -7.7317 C   0  0  0  0  0  0  0  0  0  0  0  0
   -5.8616   11.7632   -7.1684 C   0  0  0  0  0  0  0  0  0  0  0  0
   -4.6051   12.3126   -6.9180 C   0  0  0  0  0  0  0  0  0  0  0  0
   -3.4544   11.5948   -7.2294 C   0  0  0  0  0  0  0  0  0  0  0  0
   -3.5626   10.3128   -7.8011 C   0  0  0  0  0  0  0  0  0  0  0  0
   -4.8160    9.7710   -8.0425 C   0  0  0  0  0  0  0  0  0  0  0  0
   -2.1083   12.1736   -6.9694 C   0  0  0  0  0  0  0  0  0  0  0  0
   -1.7503   13.4247   -6.4858 C   0  0  0  0  0  0  0  0  0  0  0  0
   -0.4131   13.4674   -6.4189 N   0  0  0  0  0  0  0  0  0  0  0  0
    0.1758   12.3735   -6.8057 N   0  0  0  0  0  0  0  0  0  0  0  0
   -0.8094   11.5620   -7.1791 C   0  0  0  0  0  0  0  0  0  0  0  0
    0.4060   14.5705   -5.9896 C   0  0  0  0  0  0  0  0  0  0  0  0
   -5.6528   14.0066  -14.2746 O   0  0  0  0  0  0  0  0  0  0  0  0
   -6.0747   12.2631   -9.8555 H   0  0  0  0  0  0  0  0  0  0  0  0
   -8.1361   10.1224  -13.9137 H   0  0  0  0  0  0  0  0  0  0  0  0
   -6.7956   12.2399  -14.0855 H   0  0  0  0  0  0  0  0  0  0  0  0
   -6.8712    9.4340  -11.9273 H   0  0  0  0  0  0  0  0  0  0  0  0
   -8.0279    9.5798   -7.2599 H   0  0  0  0  0  0  0  0  0  0  0  0
   -4.2429   16.0373  -13.8548 H   0  0  0  0  0  0  0  0  0  0  0  0
   -4.9638   16.2086  -12.2185 H   0  0  0  0  0  0  0  0  0  0  0  0
   -3.4785   15.2246  -12.4471 H   0  0  0  0  0  0  0  0  0  0  0  0
   -5.2347   13.9076  -11.1670 H   0  0  0  0  0  0  0  0  0  0  0  0
   -6.7526   12.3233   -6.9261 H   0  0  0  0  0  0  0  0  0  0  0  0
   -4.5246   13.2972   -6.4815 H   0  0  0  0  0  0  0  0  0  0  0  0
   -3.4585   11.1486   -6.2240 H   0  0  0  0  0  0  0  0  0  0  0  0
   -2.6730    9.7536   -8.0506 H   0  0  0  0  0  0  0  0  0  0  0  0
   -4.8993    8.7846   -8.4743 H   0  0  0  0  0  0  0  0  0  0  0  0
   -2.4278   14.2202   -6.2127 H   0  0  0  0  0  0  0  0  0  0  0  0
   -0.6614   10.5729   -7.5868 H   0  0  0  0  0  0  0  0  0  0  0  0
    1.4672   14.2904   -6.0634 H   0  0  0  0  0  0  0  0  0  0  0  0
    0.2117   15.4427   -6.6311 H   0  0  0  0  0  0  0  0  0  0  0  0
    0.1649   14.8218   -4.9462 H   0  0  0  0  0  0  0  0  0  0  0  0
  1  2  2  0  0  0  0
  1  4  1  0  0  0  0
  1 13  1  0  0  0  0
  2  6  1  0  0  0  0
  3  4  2  0  0  0  0
  3  5  1  0  0  0  0
  5  6  1  0  0  0  0
  5  9  1  0  0  0  0
  6  7  2  0  0  0  0
  7  8  1  0  0  0  0
  7 10  1  0  0  0  0
  8  9  2  0  0  0  0
 10 14  2  0  0  0  0
 11 12  1  0  0  0  0
 11 13  1  0  0  0  0
 11 26  2  0  0  0  0
 14 15  1  0  0  0  0
 14 19  1  0  0  0  0
 15 16  2  0  0  0  0
 16 17  1  0  0  0  0
 17 18  1  0  0  0  0
 17 20  1  0  0  0  0
 18 19  2  0  0  0  0
 20 21  2  0  0  0  0
 20 24  1  0  0  0  0
 21 22  1  0  0  0  0
 22 23  1  0  0  0  0
 22 25  1  0  0  0  0
 23 24  2  0  0  0  0
  2 27  1  0  0  0  0
  3 28  1  0  0  0  0
  4 29  1  0  0  0  0
  5 30  1  0  0  0  0
 10 31  1  0  0  0  0
 12 32  1  0  0  0  0
 12 33  1  0  0  0  0
 12 34  1  0  0  0  0
 13 35  1  0  0  0  0
 15 36  1  0  0  0  0
 16 37  1  0  0  0  0
 17 38  1  0  0  0  0
 18 39  1  0  0  0  0
 19 40  1  0  0  0  0
 21 41  1  0  0  0  0
 24 42  1  0  0  0  0
 25 43  1  0  0  0  0
 25 44  1  0  0  0  0
 25 45  1  0  0  0  0
M  END
> <Name>
24

> <IC50[uM]>
0.029

$$$$
24
  -OEChem-05192314333D
 Structure written by MMmdl.
 45 48  0     0  0  0  0  0  0999 V2000
   -6.3515   12.3530  -11.9813 C   0  0  0  0  0  0  0  0  0  0  0  0
   -6.5085   11.7912  -10.7247 C   0  0  0  0  0  0  0  0  0  0  0  0
   -7.6802   10.5716  -13.0438 C   0  0  0  0  0  0  0  0  0  0  0  0
   -6.9296   11.7657  -13.1245 C   0  0  0  0  0  0  0  0  0  0  0  0
   -7.7980   10.0044  -11.7669 C   0  0  0  0  0  0  0  0  0  0  0  0
   -7.2328   10.6109  -10.5989 C   0  0  0  0  0  0  0  0  0  0  0  0
   -7.6209    9.7375   -9.5162 C   0  0  0  0  0  0  0  0  0  0  0  0
   -8.2754    8.7446   -9.9970 N   0  0  0  0  0  0  0  0  0  0  0  0
   -8.4233    8.8800  -11.3218 N   0  0  0  0  0  0  0  0  0  0  0  0
   -7.3328    9.8812   -8.0296 C   0  0  0  0  0  0  0  0  0  0  0  0
   -5.3004   14.2773  -13.1499 C   0  0  0  0  0  0  0  0  0  0  0  0
   -4.4346   15.5261  -12.8998 C   0  0  0  0  0  0  0  0  0  0  0  0
   -5.5896   13.5586  -12.0343 N   0  0  0  0  0  0  0  0  0  0  0  0
   -5.9706   10.4906   -7.7317 C   0  0  0  0  0  0  0  0  0  0  0  0
   -5.8616   11.7632   -7.1684 C   0  0  0  0  0  0  0  0  0  0  0  0
   -4.6051   12.3126   -6.9180 C   0  0  0  0  0  0  0  0  0  0  0  0
   -3.4544   11.5948   -7.2294 C   0  0  0  0  0  0  0  0  0  0  0  0
   -3.5626   10.3128   -7.8011 C   0  0  0  0  0  0  0  0  0  0  0  0
   -4.8160    9.7710   -8.0425 C   0  0  0  0  0  0  0  0  0  0  0  0
   -2.1083   12.1736   -6.9694 C   0  0  0  0  0  0  0  0  0  0  0  0
   -1.7503   13.4247   -6.4858 C   0  0  0  0  0  0  0  0  0  0  0  0
   -0.4131   13.4674   -6.4189 N   0  0  0  0  0  0  0  0  0  0  0  0
    0.1758   12.3735   -6.8057 N   0  0  0  0  0  0  0  0  0  0  0  0
   -0.8094   11.5620   -7.1791 C   0  0  0  0  0  0  0  0  0  0  0  0
    0.4060   14.5705   -5.9896 C   0  0  0  0  0  0  0  0  0  0  0  0
   -5.6528   14.0066  -14.2746 O   0  0  0  0  0  0  0  0  0  0  0  0
   -6.0747   12.2631   -9.8555 H   0  0  0  0  0  0  0  0  0  0  0  0
   -8.1361   10.1224  -13.9137 H   0  0  0  0  0  0  0  0  0  0  0  0
   -7.5989   12.5237  -13.5575 H   0  0  0  0  0  0  0  0  0  0  0  0
   -6.1027   11.5654  -13.8217 H   0  0  0  0  0  0  0  0  0  0  0  0
   -8.0279    9.5798   -7.2599 H   0  0  0  0  0  0  0  0  0  0  0  0
   -4.2429   16.0373  -13.8548 H   0  0  0  0  0  0  0  0  0  0  0  0
   -4.9638   16.2086  -12.2185 H   0  0  0  0  0  0  0  0  0  0  0  0
   -3.4785   15.2246  -12.4471 H   0  0  0  0  0  0  0  0  0  0  0  0
   -5.2347   13.9076  -11.1670 H   0  0  0  0  0  0  0  0  0  0  0  0
   -6.7526   12.3233   -6.9261 H   0  0  0  0  0  0  0  0  0  0  0  0
   -4.5246   13.2972   -6.4815 H   0  0  0  0  0  0  0  0  0  0  0  0
   -3.4585   11.1486   -6.2240 H   0  0  0  0  0  0  0  0  0  0  0  0
   -2.6730    9.7536   -8.0506 H   0  0  0  0  0  0  0  0  0  0  0  0
   -4.8993    8.7846   -8.4743 H   0  0  0  0  0  0  0  0  0  0  0  0
   -2.4278   14.2202   -6.2127 H   0  0  0  0  0  0  0  0  0  0  0  0
   -0.6614   10.5729   -7.5868 H   0  0  0  0  0  0  0  0  0  0  0  0
    1.4672   14.2904   -6.0634 H   0  0  0  0  0  0  0  0  0  0  0  0
    0.2117   15.4427   -6.6311 H   0  0  0  0  0  0  0  0  0  0  0  0
    0.1649   14.8218   -4.9462 H   0  0  0  0  0  0  0  0  0  0  0  0
  1  2  2  0  0  0  0
  1  4  1  0  0  0  0
  1 13  1  0  0  0  0
  2  6  1  0  0  0  0
  3  4  1  0  0  0  0
  3  5  2  0  0  0  0
  5  6  1  0  0  0  0
  5  9  1  0  0  0  0
  6  7  2  0  0  0  0
  7  8  1  0  0  0  0
  7 10  1  0  0  0  0
  8  9  2  0  0  0  0
 10 14  2  0  0  0  0
 11 12  1  0  0  0  0
 11 13  1  0  0  0  0
 11 26  2  0  0  0  0
 14 15  1  0  0  0  0
 14 19  1  0  0  0  0
 15 16  2  0  0  0  0
 16 17  1  0  0  0  0
 17 18  1  0  0  0  0
 17 20  1  0  0  0  0
 18 19  2  0  0  0  0
 20 21  2  0  0  0  0
 20 24  1  0  0  0  0
 21 22  1  0  0  0  0
 22 23  1  0  0  0  0
 22 25  1  0  0  0  0
 23 24  2  0  0  0  0
  2 27  1  0  0  0  0
  3 28  1  0  0  0  0
  4 29  1  0  0  0  0
  4 30  1  0  0  0  0
 10 31  1  0  0  0  0
 12 32  1  0  0  0  0
 12 33  1  0  0  0  0
 12 34  1  0  0  0  0
 13 35  1  0  0  0  0
 15 36  1  0  0  0  0
 16 37  1  0  0  0  0
 17 38  1  0  0  0  0
 18 39  1  0  0  0  0
 19 40  1  0  0  0  0
 21 41  1  0  0  0  0
 24 42  1  0  0  0  0
 25 43  1  0  0  0  0
 25 44  1  0  0  0  0
 25 45  1  0  0  0  0
M  END
> <Name>
24

> <IC50[uM]>
0.029

$$$$
24
  -OEChem-05192314333D
 Structure written by MMmdl.
 45 48  0     1  0  0  0  0  0999 V2000
   -6.3515   12.3530  -11.9813 C   0  0  0  0  0  0  0  0  0  0  0  0
   -6.5085   11.7912  -10.7247 C   0  0  0  0  0  0  0  0  0  0  0  0
   -7.6802   10.5716  -13.0438 C   0  0  0  0  0  0  0  0  0  0  0  0
   -6.9296   11.7657  -13.1245 C   0  0  0  0  0  0  0  0  0  0  0  0
   -7.7980   10.0044  -11.7669 C   0  0  3  0  0  0  0  0  0  0  0  0
   -7.2328   10.6109  -10.5989 C   0  0  0  0  0  0  0  0  0  0  0  0
   -7.6209    9.7375   -9.5162 C   0  0  0  0  0  0  0  0  0  0  0  0
   -8.2754    8.7446   -9.9970 N   0  0  0  0  0  0  0  0  0  0  0  0
   -8.4233    8.8800  -11.3218 N   0  0  0  0  0  0  0  0  0  0  0  0
   -7.3328    9.8812   -8.0296 C   0  0  0  0  0  0  0  0  0  0  0  0
   -5.3004   14.2773  -13.1499 C   0  0  0  0  0  0  0  0  0  0  0  0
   -4.4346   15.5261  -12.8998 C   0  0  0  0  0  0  0  0  0  0  0  0
   -5.5896   13.5586  -12.0343 N   0  0  0  0  0  0  0  0  0  0  0  0
   -5.9706   10.4906   -7.7317 C   0  0  0  0  0  0  0  0  0  0  0  0
   -5.8616   11.7632   -7.1684 C   0  0  0  0  0  0  0  0  0  0  0  0
   -4.6051   12.3126   -6.9180 C   0  0  0  0  0  0  0  0  0  0  0  0
   -3.4544   11.5948   -7.2294 C   0  0  0  0  0  0  0  0  0  0  0  0
   -3.5626   10.3128   -7.8011 C   0  0  0  0  0  0  0  0  0  0  0  0
   -4.8160    9.7710   -8.0425 C   0  0  0  0  0  0  0  0  0  0  0  0
   -2.1083   12.1736   -6.9694 C   0  0  0  0  0  0  0  0  0  0  0  0
   -1.7503   13.4247   -6.4858 C   0  0  0  0  0  0  0  0  0  0  0  0
   -0.4131   13.4674   -6.4189 N   0  0  0  0  0  0  0  0  0  0  0  0
    0.1758   12.3735   -6.8057 N   0  0  0  0  0  0  0  0  0  0  0  0
   -0.8094   11.5620   -7.1791 C   0  0  0  0  0  0  0  0  0  0  0  0
    0.4060   14.5705   -5.9896 C   0  0  0  0  0  0  0  0  0  0  0  0
   -5.6528   14.0066  -14.2746 O   0  0  0  0  0  0  0  0  0  0  0  0
   -6.0747   12.2631   -9.8555 H   0  0  0  0  0  0  0  0  0  0  0  0
   -8.1361   10.1224  -13.9137 H   0  0  0  0  0  0  0  0  0  0  0  0
   -6.7956   12.2399  -14.0855 H   0  0  0  0  0  0  0  0  0  0  0  0
   -6.8712    9.4340  -11.9273 H   0  0  0  0  0  0  0  0  0  0  0  0
   -8.0279    9.5798   -7.2599 H   0  0  0  0  0  0  0  0  0  0  0  0
   -4.2429   16.0373  -13.8548 H   0  0  0  0  0  0  0  0  0  0  0  0
   -4.9638   16.2086  -12.2185 H   0  0  0  0  0  0  0  0  0  0  0  0
   -3.4785   15.2246  -12.4471 H   0  0  0  0  0  0  0  0  0  0  0  0
   -5.2347   13.9076  -11.1670 H   0  0  0  0  0  0  0  0  0  0  0  0
   -6.7526   12.3233   -6.9261 H   0  0  0  0  0  0  0  0  0  0  0  0
   -4.5246   13.2972   -6.4815 H   0  0  0  0  0  0  0  0  0  0  0  0
   -2.6730    9.7536   -8.0506 H   0  0  0  0  0  0  0  0  0  0  0  0
   -4.8679    8.8310   -7.4736 H   0  0  0  0  0  0  0  0  0  0  0  0
   -4.8621    9.5509   -9.1193 H   0  0  0  0  0  0  0  0  0  0  0  0
   -2.4278   14.2202   -6.2127 H   0  0  0  0  0  0  0  0  0  0  0  0
   -0.6614   10.5729   -7.5868 H   0  0  0  0  0  0  0  0  0  0  0  0
    1.4672   14.2904   -6.0634 H   0  0  0  0  0  0  0  0  0  0  0  0
    0.2117   15.4427   -6.6311 H   0  0  0  0  0  0  0  0  0  0  0  0
    0.1649   14.8218   -4.9462 H   0  0  0  0  0  0  0  0  0  0  0  0
  1  2  2  0  0  0  0
  1  4  1  0  0  0  0
  1 13  1  0  0  0  0
  2  6  1  0  0  0  0
  3  4  2  0  0  0  0
  3  5  1  0  0  0  0
  5  6  1  0  0  0  0
  5  9  1  0  0  0  0
  6  7  2  0  0  0  0
  7  8  1  0  0  0  0
  7 10  1  0  0  0  0
  8  9  2  0  0  0  0
 10 14  2  3  0  0  0
 11 12  1  0  0  0  0
 11 13  1  0  0  0  0
 11 26  2  0  0  0  0
 14 15  1  0  0  0  0
 14 19  1  0  0  0  0
 15 16  2  0  0  0  0
 16 17  1  0  0  0  0
 17 18  2  0  0  0  0
 17 20  1  0  0  0  0
 18 19  1  0  0  0  0
 20 21  2  0  0  0  0
 20 24  1  0  0  0  0
 21 22  1  0  0  0  0
 22 23  1  0  0  0  0
 22 25  1  0  0  0  0
 23 24  2  0  0  0  0
  2 27  1  0  0  0  0
  3 28  1  0  0  0  0
  4 29  1  0  0  0  0
  5 30  1  0  0  0  0
 10 31  1  0  0  0  0
 12 32  1  0  0  0  0
 12 33  1  0  0  0  0
 12 34  1  0  0  0  0
 13 35  1  0  0  0  0
 15 36  1  0  0  0  0
 16 37  1  0  0  0  0
 18 38  1  0  0  0  0
 19 39  1  0  0  0  0
 19 40  1  0  0  0  0
 21 41  1  0  0  0  0
 24 42  1  0  0  0  0
 25 43  1  0  0  0  0
 25 44  1  0  0  0  0
 25 45  1  0  0  0  0
M  END
> <Name>
24

> <IC50[uM]>
0.029

$$$$
24
  -OEChem-05192314333D
 Structure written by MMmdl.
 45 48  0     0  0  0  0  0  0999 V2000
   -6.3515   12.3530  -11.9813 C   0  0  0  0  0  0  0  0  0  0  0  0
   -6.5085   11.7912  -10.7247 C   0  0  0  0  0  0  0  0  0  0  0  0
   -7.6802   10.5716  -13.0438 C   0  0  0  0  0  0  0  0  0  0  0  0
   -6.9296   11.7657  -13.1245 C   0  0  0  0  0  0  0  0  0  0  0  0
   -7.7980   10.0044  -11.7669 C   0  0  0  0  0  0  0  0  0  0  0  0
   -7.2328   10.6109  -10.5989 C   0  0  0  0  0  0  0  0  0  0  0  0
   -7.6209    9.7375   -9.5162 C   0  0  0  0  0  0  0  0  0  0  0  0
   -8.2754    8.7446   -9.9970 N   0  0  0  0  0  0  0  0  0  0  0  0
   -8.4233    8.8800  -11.3218 N   0  0  0  0  0  0  0  0  0  0  0  0
   -7.3328    9.8812   -8.0296 C   0  0  0  0  0  0  0  0  0  0  0  0
   -5.3004   14.2773  -13.1499 C   0  0  0  0  0  0  0  0  0  0  0  0
   -4.4346   15.5261  -12.8998 C   0  0  0  0  0  0  0  0  0  0  0  0
   -5.5896   13.5586  -12.0343 N   0  0  0  0  0  0  0  0  0  0  0  0
   -5.9706   10.4906   -7.7317 C   0  0  0  0  0  0  0  0  0  0  0  0
   -5.8616   11.7632   -7.1684 C   0  0  0  0  0  0  0  0  0  0  0  0
   -4.6051   12.3126   -6.9180 C   0  0  0  0  0  0  0  0  0  0  0  0
   -3.4544   11.5948   -7.2294 C   0  0  0  0  0  0  0  0  0  0  0  0
   -3.5626   10.3128   -7.8011 C   0  0  0  0  0  0  0  0  0  0  0  0
   -4.8160    9.7710   -8.0425 C   0  0  0  0  0  0  0  0  0  0  0  0
   -2.1083   12.1736   -6.9694 C   0  0  0  0  0  0  0  0  0  0  0  0
   -1.7503   13.4247   -6.4858 C   0  0  0  0  0  0  0  0  0  0  0  0
   -0.4131   13.4674   -6.4189 N   0  0  0  0  0  0  0  0  0  0  0  0
    0.1758   12.3735   -6.8057 N   0  0  0  0  0  0  0  0  0  0  0  0
   -0.8094   11.5620   -7.1791 C   0  0  0  0  0  0  0  0  0  0  0  0
    0.4060   14.5705   -5.9896 C   0  0  0  0  0  0  0  0  0  0  0  0
   -5.6528   14.0066  -14.2746 O   0  0  0  0  0  0  0  0  0  0  0  0
   -6.0747   12.2631   -9.8555 H   0  0  0  0  0  0  0  0  0  0  0  0
   -8.1361   10.1224  -13.9137 H   0  0  0  0  0  0  0  0  0  0  0  0
   -7.5989   12.5237  -13.5575 H   0  0  0  0  0  0  0  0  0  0  0  0
   -6.1027   11.5654  -13.8217 H   0  0  0  0  0  0  0  0  0  0  0  0
   -8.0279    9.5798   -7.2599 H   0  0  0  0  0  0  0  0  0  0  0  0
   -4.2429   16.0373  -13.8548 H   0  0  0  0  0  0  0  0  0  0  0  0
   -4.9638   16.2086  -12.2185 H   0  0  0  0  0  0  0  0  0  0  0  0
   -3.4785   15.2246  -12.4471 H   0  0  0  0  0  0  0  0  0  0  0  0
   -5.2347   13.9076  -11.1670 H   0  0  0  0  0  0  0  0  0  0  0  0
   -6.7526   12.3233   -6.9261 H   0  0  0  0  0  0  0  0  0  0  0  0
   -4.5246   13.2972   -6.4815 H   0  0  0  0  0  0  0  0  0  0  0  0
   -2.6730    9.7536   -8.0506 H   0  0  0  0  0  0  0  0  0  0  0  0
   -4.8679    8.8310   -7.4736 H   0  0  0  0  0  0  0  0  0  0  0  0
   -4.8621    9.5509   -9.1193 H   0  0  0  0  0  0  0  0  0  0  0  0
   -2.4278   14.2202   -6.2127 H   0  0  0  0  0  0  0  0  0  0  0  0
   -0.6614   10.5729   -7.5868 H   0  0  0  0  0  0  0  0  0  0  0  0
    1.4672   14.2904   -6.0634 H   0  0  0  0  0  0  0  0  0  0  0  0
    0.2117   15.4427   -6.6311 H   0  0  0  0  0  0  0  0  0  0  0  0
    0.1649   14.8218   -4.9462 H   0  0  0  0  0  0  0  0  0  0  0  0
  1  2  2  0  0  0  0
  1  4  1  0  0  0  0
  1 13  1  0  0  0  0
  2  6  1  0  0  0  0
  3  4  1  0  0  0  0
  3  5  2  0  0  0  0
  5  6  1  0  0  0  0
  5  9  1  0  0  0  0
  6  7  2  0  0  0  0
  7  8  1  0  0  0  0
  7 10  1  0  0  0  0
  8  9  2  0  0  0  0
 10 14  2  3  0  0  0
 11 12  1  0  0  0  0
 11 13  1  0  0  0  0
 11 26  2  0  0  0  0
 14 15  1  0  0  0  0
 14 19  1  0  0  0  0
 15 16  2  0  0  0  0
 16 17  1  0  0  0  0
 17 18  2  0  0  0  0
 17 20  1  0  0  0  0
 18 19  1  0  0  0  0
 20 21  2  0  0  0  0
 20 24  1  0  0  0  0
 21 22  1  0  0  0  0
 22 23  1  0  0  0  0
 22 25  1  0  0  0  0
 23 24  2  0  0  0  0
  2 27  1  0  0  0  0
  3 28  1  0  0  0  0
  4 29  1  0  0  0  0
  4 30  1  0  0  0  0
 10 31  1  0  0  0  0
 12 32  1  0  0  0  0
 12 33  1  0  0  0  0
 12 34  1  0  0  0  0
 13 35  1  0  0  0  0
 15 36  1  0  0  0  0
 16 37  1  0  0  0  0
 18 38  1  0  0  0  0
 19 39  1  0  0  0  0
 19 40  1  0  0  0  0
 21 41  1  0  0  0  0
 24 42  1  0  0  0  0
 25 43  1  0  0  0  0
 25 44  1  0  0  0  0
 25 45  1  0  0  0  0
M  END
> <Name>
24

> <IC50[uM]>
0.029

$$$$
24
  -OEChem-05192314333D
 Structure written by MMmdl.
 45 48  0     0  0  0  0  0  0999 V2000
   -6.3515   12.3530  -11.9813 C   0  0  0  0  0  0  0  0  0  0  0  0
   -6.5085   11.7912  -10.7247 C   0  0  0  0  0  0  0  0  0  0  0  0
   -7.6802   10.5716  -13.0438 C   0  0  0  0  0  0  0  0  0  0  0  0
   -6.9296   11.7657  -13.1245 C   0  0  0  0  0  0  0  0  0  0  0  0
   -7.7980   10.0044  -11.7669 C   0  0  0  0  0  0  0  0  0  0  0  0
   -7.2328   10.6109  -10.5989 C   0  0  0  0  0  0  0  0  0  0  0  0
   -7.6209    9.7375   -9.5162 C   0  0  0  0  0  0  0  0  0  0  0  0
   -8.2754    8.7446   -9.9970 N   0  0  0  0  0  0  0  0  0  0  0  0
   -8.4233    8.8800  -11.3218 N   0  0  0  0  0  0  0  0  0  0  0  0
   -7.3328    9.8812   -8.0296 C   0  0  0  0  0  0  0  0  0  0  0  0
   -5.3004   14.2773  -13.1499 C   0  0  0  0  0  0  0  0  0  0  0  0
   -4.4346   15.5261  -12.8998 C   0  0  0  0  0  0  0  0  0  0  0  0
   -5.5896   13.5586  -12.0343 N   0  0  0  0  0  0  0  0  0  0  0  0
   -5.9706   10.4906   -7.7317 C   0  0  0  0  0  0  0  0  0  0  0  0
   -5.8616   11.7632   -7.1684 C   0  0  0  0  0  0  0  0  0  0  0  0
   -4.6051   12.3126   -6.9180 C   0  0  0  0  0  0  0  0  0  0  0  0
   -3.4544   11.5948   -7.2294 C   0  0  0  0  0  0  0  0  0  0  0  0
   -3.5626   10.3128   -7.8011 C   0  0  0  0  0  0  0  0  0  0  0  0
   -4.8160    9.7710   -8.0425 C   0  0  0  0  0  0  0  0  0  0  0  0
   -2.1083   12.1736   -6.9694 C   0  0  0  0  0  0  0  0  0  0  0  0
   -1.7503   13.4247   -6.4858 C   0  0  0  0  0  0  0  0  0  0  0  0
   -0.4131   13.4674   -6.4189 N   0  0  0  0  0  0  0  0  0  0  0  0
    0.1758   12.3735   -6.8057 N   0  0  0  0  0  0  0  0  0  0  0  0
   -0.8094   11.5620   -7.1791 C   0  0  0  0  0  0  0  0  0  0  0  0
    0.4060   14.5705   -5.9896 C   0  0  0  0  0  0  0  0  0  0  0  0
   -5.6528   14.0066  -14.2746 O   0  0  0  0  0  0  0  0  0  0  0  0
   -5.5002   11.5939  -10.3317 H   0  0  0  0  0  0  0  0  0  0  0  0
   -7.0066   12.5435  -10.0954 H   0  0  0  0  0  0  0  0  0  0  0  0
   -8.1361   10.1224  -13.9137 H   0  0  0  0  0  0  0  0  0  0  0  0
   -6.7956   12.2399  -14.0855 H   0  0  0  0  0  0  0  0  0  0  0  0
   -8.0279    9.5798   -7.2599 H   0  0  0  0  0  0  0  0  0  0  0  0
   -4.2429   16.0373  -13.8548 H   0  0  0  0  0  0  0  0  0  0  0  0
   -4.9638   16.2086  -12.2185 H   0  0  0  0  0  0  0  0  0  0  0  0
   -3.4785   15.2246  -12.4471 H   0  0  0  0  0  0  0  0  0  0  0  0
   -5.2347   13.9076  -11.1670 H   0  0  0  0  0  0  0  0  0  0  0  0
   -6.7526   12.3233   -6.9261 H   0  0  0  0  0  0  0  0  0  0  0  0
   -4.5246   13.2972   -6.4815 H   0  0  0  0  0  0  0  0  0  0  0  0
   -3.4585   11.1486   -6.2240 H   0  0  0  0  0  0  0  0  0  0  0  0
   -2.6730    9.7536   -8.0506 H   0  0  0  0  0  0  0  0  0  0  0  0
   -4.8993    8.7846   -8.4743 H   0  0  0  0  0  0  0  0  0  0  0  0
   -2.4278   14.2202   -6.2127 H   0  0  0  0  0  0  0  0  0  0  0  0
   -0.6614   10.5729   -7.5868 H   0  0  0  0  0  0  0  0  0  0  0  0
    1.4672   14.2904   -6.0634 H   0  0  0  0  0  0  0  0  0  0  0  0
    0.2117   15.4427   -6.6311 H   0  0  0  0  0  0  0  0  0  0  0  0
    0.1649   14.8218   -4.9462 H   0  0  0  0  0  0  0  0  0  0  0  0
  1  2  1  0  0  0  0
  1  4  2  0  0  0  0
  1 13  1  0  0  0  0
  2  6  1  0  0  0  0
  3  4  1  0  0  0  0
  3  5  2  0  0  0  0
  5  6  1  0  0  0  0
  5  9  1  0  0  0  0
  6  7  2  0  0  0  0
  7  8  1  0  0  0  0
  7 10  1  0  0  0  0
  8  9  2  0  0  0  0
 10 14  2  0  0  0  0
 11 12  1  0  0  0  0
 11 13  1  0  0  0  0
 11 26  2  0  0  0  0
 14 15  1  0  0  0  0
 14 19  1  0  0  0  0
 15 16  2  0  0  0  0
 16 17  1  0  0  0  0
 17 18  1  0  0  0  0
 17 20  1  0  0  0  0
 18 19  2  0  0  0  0
 20 21  2  0  0  0  0
 20 24  1  0  0  0  0
 21 22  1  0  0  0  0
 22 23  1  0  0  0  0
 22 25  1  0  0  0  0
 23 24  2  0  0  0  0
  2 27  1  0  0  0  0
  2 28  1  0  0  0  0
  3 29  1  0  0  0  0
  4 30  1  0  0  0  0
 10 31  1  0  0  0  0
 12 32  1  0  0  0  0
 12 33  1  0  0  0  0
 12 34  1  0  0  0  0
 13 35  1  0  0  0  0
 15 36  1  0  0  0  0
 16 37  1  0  0  0  0
 17 38  1  0  0  0  0
 18 39  1  0  0  0  0
 19 40  1  0  0  0  0
 21 41  1  0  0  0  0
 24 42  1  0  0  0  0
 25 43  1  0  0  0  0
 25 44  1  0  0  0  0
 25 45  1  0  0  0  0
M  END
> <Name>
24

> <IC50[uM]>
0.029

$$$$
24
  -OEChem-05192314333D
 Structure written by MMmdl.
 45 48  0     0  0  0  0  0  0999 V2000
   -6.3515   12.3530  -11.9813 C   0  0  0  0  0  0  0  0  0  0  0  0
   -6.5085   11.7912  -10.7247 C   0  0  0  0  0  0  0  0  0  0  0  0
   -7.6802   10.5716  -13.0438 C   0  0  0  0  0  0  0  0  0  0  0  0
   -6.9296   11.7657  -13.1245 C   0  0  0  0  0  0  0  0  0  0  0  0
   -7.7980   10.0044  -11.7669 C   0  0  0  0  0  0  0  0  0  0  0  0
   -7.2328   10.6109  -10.5989 C   0  0  0  0  0  0  0  0  0  0  0  0
   -7.6209    9.7375   -9.5162 C   0  0  0  0  0  0  0  0  0  0  0  0
   -8.2754    8.7446   -9.9970 N   0  0  0  0  0  0  0  0  0  0  0  0
   -8.4233    8.8800  -11.3218 N   0  0  0  0  0  0  0  0  0  0  0  0
   -7.3328    9.8812   -8.0296 C   0  0  0  0  0  0  0  0  0  0  0  0
   -5.3004   14.2773  -13.1499 C   0  0  0  0  0  0  0  0  0  0  0  0
   -4.4346   15.5261  -12.8998 C   0  0  0  0  0  0  0  0  0  0  0  0
   -5.5896   13.5586  -12.0343 N   0  0  0  0  0  0  0  0  0  0  0  0
   -5.9706   10.4906   -7.7317 C   0  0  0  0  0  0  0  0  0  0  0  0
   -5.8616   11.7632   -7.1684 C   0  0  0  0  0  0  0  0  0  0  0  0
   -4.6051   12.3126   -6.9180 C   0  0  0  0  0  0  0  0  0  0  0  0
   -3.4544   11.5948   -7.2294 C   0  0  0  0  0  0  0  0  0  0  0  0
   -3.5626   10.3128   -7.8011 C   0  0  0  0  0  0  0  0  0  0  0  0
   -4.8160    9.7710   -8.0425 C   0  0  0  0  0  0  0  0  0  0  0  0
   -2.1083   12.1736   -6.9694 C   0  0  0  0  0  0  0  0  0  0  0  0
   -1.7503   13.4247   -6.4858 C   0  0  0  0  0  0  0  0  0  0  0  0
   -0.4131   13.4674   -6.4189 N   0  0  0  0  0  0  0  0  0  0  0  0
    0.1758   12.3735   -6.8057 N   0  0  0  0  0  0  0  0  0  0  0  0
   -0.8094   11.5620   -7.1791 C   0  0  0  0  0  0  0  0  0  0  0  0
    0.4060   14.5705   -5.9896 C   0  0  0  0  0  0  0  0  0  0  0  0
   -5.6528   14.0066  -14.2746 O   0  0  0  0  0  0  0  0  0  0  0  0
   -5.5002   11.5939  -10.3317 H   0  0  0  0  0  0  0  0  0  0  0  0
   -7.0066   12.5435  -10.0954 H   0  0  0  0  0  0  0  0  0  0  0  0
   -8.1361   10.1224  -13.9137 H   0  0  0  0  0  0  0  0  0  0  0  0
   -6.7956   12.2399  -14.0855 H   0  0  0  0  0  0  0  0  0  0  0  0
   -8.0279    9.5798   -7.2599 H   0  0  0  0  0  0  0  0  0  0  0  0
   -4.2429   16.0373  -13.8548 H   0  0  0  0  0  0  0  0  0  0  0  0
   -4.9638   16.2086  -12.2185 H   0  0  0  0  0  0  0  0  0  0  0  0
   -3.4785   15.2246  -12.4471 H   0  0  0  0  0  0  0  0  0  0  0  0
   -5.2347   13.9076  -11.1670 H   0  0  0  0  0  0  0  0  0  0  0  0
   -6.7526   12.3233   -6.9261 H   0  0  0  0  0  0  0  0  0  0  0  0
   -4.5246   13.2972   -6.4815 H   0  0  0  0  0  0  0  0  0  0  0  0
   -2.6730    9.7536   -8.0506 H   0  0  0  0  0  0  0  0  0  0  0  0
   -4.8679    8.8310   -7.4736 H   0  0  0  0  0  0  0  0  0  0  0  0
   -4.8621    9.5509   -9.1193 H   0  0  0  0  0  0  0  0  0  0  0  0
   -2.4278   14.2202   -6.2127 H   0  0  0  0  0  0  0  0  0  0  0  0
   -0.6614   10.5729   -7.5868 H   0  0  0  0  0  0  0  0  0  0  0  0
    1.4672   14.2904   -6.0634 H   0  0  0  0  0  0  0  0  0  0  0  0
    0.2117   15.4427   -6.6311 H   0  0  0  0  0  0  0  0  0  0  0  0
    0.1649   14.8218   -4.9462 H   0  0  0  0  0  0  0  0  0  0  0  0
  1  2  1  0  0  0  0
  1  4  2  0  0  0  0
  1 13  1  0  0  0  0
  2  6  1  0  0  0  0
  3  4  1  0  0  0  0
  3  5  2  0  0  0  0
  5  6  1  0  0  0  0
  5  9  1  0  0  0  0
  6  7  2  0  0  0  0
  7  8  1  0  0  0  0
  7 10  1  0  0  0  0
  8  9  2  0  0  0  0
 10 14  2  3  0  0  0
 11 12  1  0  0  0  0
 11 13  1  0  0  0  0
 11 26  2  0  0  0  0
 14 15  1  0  0  0  0
 14 19  1  0  0  0  0
 15 16  2  0  0  0  0
 16 17  1  0  0  0  0
 17 18  2  0  0  0  0
 17 20  1  0  0  0  0
 18 19  1  0  0  0  0
 20 21  2  0  0  0  0
 20 24  1  0  0  0  0
 21 22  1  0  0  0  0
 22 23  1  0  0  0  0
 22 25  1  0  0  0  0
 23 24  2  0  0  0  0
  2 27  1  0  0  0  0
  2 28  1  0  0  0  0
  3 29  1  0  0  0  0
  4 30  1  0  0  0  0
 10 31  1  0  0  0  0
 12 32  1  0  0  0  0
 12 33  1  0  0  0  0
 12 34  1  0  0  0  0
 13 35  1  0  0  0  0
 15 36  1  0  0  0  0
 16 37  1  0  0  0  0
 18 38  1  0  0  0  0
 19 39  1  0  0  0  0
 19 40  1  0  0  0  0
 21 41  1  0  0  0  0
 24 42  1  0  0  0  0
 25 43  1  0  0  0  0
 25 44  1  0  0  0  0
 25 45  1  0  0  0  0
M  END
> <Name>
24

> <IC50[uM]>
0.029

$$$$
24
  -OEChem-05192314333D
 Structure written by MMmdl.
 45 48  0     1  0  0  0  0  0999 V2000
   -6.3515   12.3530  -11.9813 C   0  0  0  0  0  0  0  0  0  0  0  0
   -6.5085   11.7912  -10.7247 C   0  0  0  0  0  0  0  0  0  0  0  0
   -7.6802   10.5716  -13.0438 C   0  0  0  0  0  0  0  0  0  0  0  0
   -6.9296   11.7657  -13.1245 C   0  0  0  0  0  0  0  0  0  0  0  0
   -7.7980   10.0044  -11.7669 C   0  0  3  0  0  0  0  0  0  0  0  0
   -7.2328   10.6109  -10.5989 C   0  0  0  0  0  0  0  0  0  0  0  0
   -7.6209    9.7375   -9.5162 C   0  0  0  0  0  0  0  0  0  0  0  0
   -8.2754    8.7446   -9.9970 N   0  0  0  0  0  0  0  0  0  0  0  0
   -8.4233    8.8800  -11.3218 N   0  0  0  0  0  0  0  0  0  0  0  0
   -7.3328    9.8812   -8.0296 C   0  0  0  0  0  0  0  0  0  0  0  0
   -5.3004   14.2773  -13.1499 C   0  0  0  0  0  0  0  0  0  0  0  0
   -4.4346   15.5261  -12.8998 C   0  0  0  0  0  0  0  0  0  0  0  0
   -5.5896   13.5586  -12.0343 N   0  0  0  0  0  0  0  0  0  0  0  0
   -5.9706   10.4906   -7.7317 C   0  0  0  0  0  0  0  0  0  0  0  0
   -5.8616   11.7632   -7.1684 C   0  0  0  0  0  0  0  0  0  0  0  0
   -4.6051   12.3126   -6.9180 C   0  0  0  0  0  0  0  0  0  0  0  0
   -3.4544   11.5948   -7.2294 C   0  0  0  0  0  0  0  0  0  0  0  0
   -3.5626   10.3128   -7.8011 C   0  0  0  0  0  0  0  0  0  0  0  0
   -4.8160    9.7710   -8.0425 C   0  0  0  0  0  0  0  0  0  0  0  0
   -2.1083   12.1736   -6.9694 C   0  0  0  0  0  0  0  0  0  0  0  0
   -1.7503   13.4247   -6.4858 C   0  0  0  0  0  0  0  0  0  0  0  0
   -0.4131   13.4674   -6.4189 N   0  0  0  0  0  0  0  0  0  0  0  0
    0.1758   12.3735   -6.8057 N   0  0  0  0  0  0  0  0  0  0  0  0
   -0.8094   11.5620   -7.1791 C   0  0  0  0  0  0  0  0  0  0  0  0
    0.4060   14.5705   -5.9896 C   0  0  0  0  0  0  0  0  0  0  0  0
   -5.6528   14.0066  -14.2746 O   0  0  0  0  0  0  0  0  0  0  0  0
   -6.0747   12.2631   -9.8555 H   0  0  0  0  0  0  0  0  0  0  0  0
   -8.1361   10.1224  -13.9137 H   0  0  0  0  0  0  0  0  0  0  0  0
   -6.7956   12.2399  -14.0855 H   0  0  0  0  0  0  0  0  0  0  0  0
   -6.8712    9.4340  -11.9273 H   0  0  0  0  0  0  0  0  0  0  0  0
   -8.0279    9.5798   -7.2599 H   0  0  0  0  0  0  0  0  0  0  0  0
   -4.2517   16.0431  -13.8534 H   0  0  0  0  0  0  0  0  0  0  0  0
   -4.9593   16.2038  -12.2102 H   0  0  0  0  0  0  0  0  0  0  0  0
   -3.4743   15.2236  -12.4567 H   0  0  0  0  0  0  0  0  0  0  0  0
   -6.7526   12.3233   -6.9261 H   0  0  0  0  0  0  0  0  0  0  0  0
   -4.5246   13.2972   -6.4815 H   0  0  0  0  0  0  0  0  0  0  0  0
   -3.4585   11.1486   -6.2240 H   0  0  0  0  0  0  0  0  0  0  0  0
   -2.6730    9.7536   -8.0506 H   0  0  0  0  0  0  0  0  0  0  0  0
   -4.8993    8.7846   -8.4743 H   0  0  0  0  0  0  0  0  0  0  0  0
   -2.4278   14.2202   -6.2127 H   0  0  0  0  0  0  0  0  0  0  0  0
   -0.6614   10.5729   -7.5868 H   0  0  0  0  0  0  0  0  0  0  0  0
    1.4672   14.2904   -6.0634 H   0  0  0  0  0  0  0  0  0  0  0  0
    0.2117   15.4427   -6.6311 H   0  0  0  0  0  0  0  0  0  0  0  0
    0.1649   14.8218   -4.9462 H   0  0  0  0  0  0  0  0  0  0  0  0
   -6.1759   13.2137  -14.2608 H   0  0  0  0  0  0  0  0  0  0  0  0
  1  2  2  0  0  0  0
  1  4  1  0  0  0  0
  1 13  1  0  0  0  0
  2  6  1  0  0  0  0
  3  4  2  0  0  0  0
  3  5  1  0  0  0  0
  5  6  1  0  0  0  0
  5  9  1  0  0  0  0
  6  7  2  0  0  0  0
  7  8  1  0  0  0  0
  7 10  1  0  0  0  0
  8  9  2  0  0  0  0
 10 14  2  0  0  0  0
 11 12  1  0  0  0  0
 11 13  2  0  0  0  0
 11 26  1  0  0  0  0
 14 15  1  0  0  0  0
 14 19  1  0  0  0  0
 15 16  2  0  0  0  0
 16 17  1  0  0  0  0
 17 18  1  0  0  0  0
 17 20  1  0  0  0  0
 18 19  2  0  0  0  0
 20 21  2  0  0  0  0
 20 24  1  0  0  0  0
 21 22  1  0  0  0  0
 22 23  1  0  0  0  0
 22 25  1  0  0  0  0
 23 24  2  0  0  0  0
  2 27  1  0  0  0  0
  3 28  1  0  0  0  0
  4 29  1  0  0  0  0
  5 30  1  0  0  0  0
 10 31  1  0  0  0  0
 12 32  1  0  0  0  0
 12 33  1  0  0  0  0
 12 34  1  0  0  0  0
 15 35  1  0  0  0  0
 16 36  1  0  0  0  0
 17 37  1  0  0  0  0
 18 38  1  0  0  0  0
 19 39  1  0  0  0  0
 21 40  1  0  0  0  0
 24 41  1  0  0  0  0
 25 42  1  0  0  0  0
 25 43  1  0  0  0  0
 25 44  1  0  0  0  0
 26 45  1  0  0  0  0
M  END
> <Name>
24

> <IC50[uM]>
0.029

$$$$
24
  -OEChem-05192314333D
 Structure written by MMmdl.
 45 48  0     0  0  0  0  0  0999 V2000
   -6.3515   12.3530  -11.9813 C   0  0  0  0  0  0  0  0  0  0  0  0
   -6.5085   11.7912  -10.7247 C   0  0  0  0  0  0  0  0  0  0  0  0
   -7.6802   10.5716  -13.0438 C   0  0  0  0  0  0  0  0  0  0  0  0
   -6.9296   11.7657  -13.1245 C   0  0  0  0  0  0  0  0  0  0  0  0
   -7.7980   10.0044  -11.7669 C   0  0  0  0  0  0  0  0  0  0  0  0
   -7.2328   10.6109  -10.5989 C   0  0  0  0  0  0  0  0  0  0  0  0
   -7.6209    9.7375   -9.5162 C   0  0  0  0  0  0  0  0  0  0  0  0
   -8.2754    8.7446   -9.9970 N   0  0  0  0  0  0  0  0  0  0  0  0
   -8.4233    8.8800  -11.3218 N   0  0  0  0  0  0  0  0  0  0  0  0
   -7.3328    9.8812   -8.0296 C   0  0  0  0  0  0  0  0  0  0  0  0
   -5.3004   14.2773  -13.1499 C   0  0  0  0  0  0  0  0  0  0  0  0
   -4.4346   15.5261  -12.8998 C   0  0  0  0  0  0  0  0  0  0  0  0
   -5.5896   13.5586  -12.0343 N   0  0  0  0  0  0  0  0  0  0  0  0
   -5.9706   10.4906   -7.7317 C   0  0  0  0  0  0  0  0  0  0  0  0
   -5.8616   11.7632   -7.1684 C   0  0  0  0  0  0  0  0  0  0  0  0
   -4.6051   12.3126   -6.9180 C   0  0  0  0  0  0  0  0  0  0  0  0
   -3.4544   11.5948   -7.2294 C   0  0  0  0  0  0  0  0  0  0  0  0
   -3.5626   10.3128   -7.8011 C   0  0  0  0  0  0  0  0  0  0  0  0
   -4.8160    9.7710   -8.0425 C   0  0  0  0  0  0  0  0  0  0  0  0
   -2.1083   12.1736   -6.9694 C   0  0  0  0  0  0  0  0  0  0  0  0
   -1.7503   13.4247   -6.4858 C   0  0  0  0  0  0  0  0  0  0  0  0
   -0.4131   13.4674   -6.4189 N   0  0  0  0  0  0  0  0  0  0  0  0
    0.1758   12.3735   -6.8057 N   0  0  0  0  0  0  0  0  0  0  0  0
   -0.8094   11.5620   -7.1791 C   0  0  0  0  0  0  0  0  0  0  0  0
    0.4060   14.5705   -5.9896 C   0  0  0  0  0  0  0  0  0  0  0  0
   -5.6528   14.0066  -14.2746 O   0  0  0  0  0  0  0  0  0  0  0  0
   -6.0747   12.2631   -9.8555 H   0  0  0  0  0  0  0  0  0  0  0  0
   -8.1361   10.1224  -13.9137 H   0  0  0  0  0  0  0  0  0  0  0  0
   -7.5989   12.5237  -13.5575 H   0  0  0  0  0  0  0  0  0  0  0  0
   -6.1027   11.5654  -13.8217 H   0  0  0  0  0  0  0  0  0  0  0  0
   -8.0279    9.5798   -7.2599 H   0  0  0  0  0  0  0  0  0  0  0  0
   -4.2517   16.0431  -13.8534 H   0  0  0  0  0  0  0  0  0  0  0  0
   -4.9593   16.2038  -12.2102 H   0  0  0  0  0  0  0  0  0  0  0  0
   -3.4743   15.2236  -12.4567 H   0  0  0  0  0  0  0  0  0  0  0  0
   -6.7526   12.3233   -6.9261 H   0  0  0  0  0  0  0  0  0  0  0  0
   -4.5246   13.2972   -6.4815 H   0  0  0  0  0  0  0  0  0  0  0  0
   -3.4585   11.1486   -6.2240 H   0  0  0  0  0  0  0  0  0  0  0  0
   -2.6730    9.7536   -8.0506 H   0  0  0  0  0  0  0  0  0  0  0  0
   -4.8993    8.7846   -8.4743 H   0  0  0  0  0  0  0  0  0  0  0  0
   -2.4278   14.2202   -6.2127 H   0  0  0  0  0  0  0  0  0  0  0  0
   -0.6614   10.5729   -7.5868 H   0  0  0  0  0  0  0  0  0  0  0  0
    1.4672   14.2904   -6.0634 H   0  0  0  0  0  0  0  0  0  0  0  0
    0.2117   15.4427   -6.6311 H   0  0  0  0  0  0  0  0  0  0  0  0
    0.1649   14.8218   -4.9462 H   0  0  0  0  0  0  0  0  0  0  0  0
   -6.1759   13.2137  -14.2608 H   0  0  0  0  0  0  0  0  0  0  0  0
  1  2  2  0  0  0  0
  1  4  1  0  0  0  0
  1 13  1  0  0  0  0
  2  6  1  0  0  0  0
  3  4  1  0  0  0  0
  3  5  2  0  0  0  0
  5  6  1  0  0  0  0
  5  9  1  0  0  0  0
  6  7  2  0  0  0  0
  7  8  1  0  0  0  0
  7 10  1  0  0  0  0
  8  9  2  0  0  0  0
 10 14  2  0  0  0  0
 11 12  1  0  0  0  0
 11 13  2  0  0  0  0
 11 26  1  0  0  0  0
 14 15  1  0  0  0  0
 14 19  1  0  0  0  0
 15 16  2  0  0  0  0
 16 17  1  0  0  0  0
 17 18  1  0  0  0  0
 17 20  1  0  0  0  0
 18 19  2  0  0  0  0
 20 21  2  0  0  0  0
 20 24  1  0  0  0  0
 21 22  1  0  0  0  0
 22 23  1  0  0  0  0
 22 25  1  0  0  0  0
 23 24  2  0  0  0  0
  2 27  1  0  0  0  0
  3 28  1  0  0  0  0
  4 29  1  0  0  0  0
  4 30  1  0  0  0  0
 10 31  1  0  0  0  0
 12 32  1  0  0  0  0
 12 33  1  0  0  0  0
 12 34  1  0  0  0  0
 15 35  1  0  0  0  0
 16 36  1  0  0  0  0
 17 37  1  0  0  0  0
 18 38  1  0  0  0  0
 19 39  1  0  0  0  0
 21 40  1  0  0  0  0
 24 41  1  0  0  0  0
 25 42  1  0  0  0  0
 25 43  1  0  0  0  0
 25 44  1  0  0  0  0
 26 45  1  0  0  0  0
M  END
> <Name>
24

> <IC50[uM]>
0.029

$$$$
24
  -OEChem-05192314333D
 Structure written by MMmdl.
 45 48  0     1  0  0  0  0  0999 V2000
   -6.3515   12.3530  -11.9813 C   0  0  0  0  0  0  0  0  0  0  0  0
   -6.5085   11.7912  -10.7247 C   0  0  0  0  0  0  0  0  0  0  0  0
   -7.6802   10.5716  -13.0438 C   0  0  0  0  0  0  0  0  0  0  0  0
   -6.9296   11.7657  -13.1245 C   0  0  0  0  0  0  0  0  0  0  0  0
   -7.7980   10.0044  -11.7669 C   0  0  3  0  0  0  0  0  0  0  0  0
   -7.2328   10.6109  -10.5989 C   0  0  0  0  0  0  0  0  0  0  0  0
   -7.6209    9.7375   -9.5162 C   0  0  0  0  0  0  0  0  0  0  0  0
   -8.2754    8.7446   -9.9970 N   0  0  0  0  0  0  0  0  0  0  0  0
   -8.4233    8.8800  -11.3218 N   0  0  0  0  0  0  0  0  0  0  0  0
   -7.3328    9.8812   -8.0296 C   0  0  0  0  0  0  0  0  0  0  0  0
   -5.3004   14.2773  -13.1499 C   0  0  0  0  0  0  0  0  0  0  0  0
   -4.4346   15.5261  -12.8998 C   0  0  0  0  0  0  0  0  0  0  0  0
   -5.5896   13.5586  -12.0343 N   0  0  0  0  0  0  0  0  0  0  0  0
   -5.9706   10.4906   -7.7317 C   0  0  0  0  0  0  0  0  0  0  0  0
   -5.8616   11.7632   -7.1684 C   0  0  0  0  0  0  0  0  0  0  0  0
   -4.6051   12.3126   -6.9180 C   0  0  0  0  0  0  0  0  0  0  0  0
   -3.4544   11.5948   -7.2294 C   0  0  0  0  0  0  0  0  0  0  0  0
   -3.5626   10.3128   -7.8011 C   0  0  0  0  0  0  0  0  0  0  0  0
   -4.8160    9.7710   -8.0425 C   0  0  0  0  0  0  0  0  0  0  0  0
   -2.1083   12.1736   -6.9694 C   0  0  0  0  0  0  0  0  0  0  0  0
   -1.7503   13.4247   -6.4858 C   0  0  0  0  0  0  0  0  0  0  0  0
   -0.4131   13.4674   -6.4189 N   0  0  0  0  0  0  0  0  0  0  0  0
    0.1758   12.3735   -6.8057 N   0  0  0  0  0  0  0  0  0  0  0  0
   -0.8094   11.5620   -7.1791 C   0  0  0  0  0  0  0  0  0  0  0  0
    0.4060   14.5705   -5.9896 C   0  0  0  0  0  0  0  0  0  0  0  0
   -5.6528   14.0066  -14.2746 O   0  0  0  0  0  0  0  0  0  0  0  0
   -6.0747   12.2631   -9.8555 H   0  0  0  0  0  0  0  0  0  0  0  0
   -8.1361   10.1224  -13.9137 H   0  0  0  0  0  0  0  0  0  0  0  0
   -6.7956   12.2399  -14.0855 H   0  0  0  0  0  0  0  0  0  0  0  0
   -6.8712    9.4340  -11.9273 H   0  0  0  0  0  0  0  0  0  0  0  0
   -8.0279    9.5798   -7.2599 H   0  0  0  0  0  0  0  0  0  0  0  0
   -4.2517   16.0431  -13.8534 H   0  0  0  0  0  0  0  0  0  0  0  0
   -4.9593   16.2038  -12.2102 H   0  0  0  0  0  0  0  0  0  0  0  0
   -3.4743   15.2236  -12.4567 H   0  0  0  0  0  0  0  0  0  0  0  0
   -6.7526   12.3233   -6.9261 H   0  0  0  0  0  0  0  0  0  0  0  0
   -4.5246   13.2972   -6.4815 H   0  0  0  0  0  0  0  0  0  0  0  0
   -2.6730    9.7536   -8.0506 H   0  0  0  0  0  0  0  0  0  0  0  0
   -4.8679    8.8310   -7.4736 H   0  0  0  0  0  0  0  0  0  0  0  0
   -4.8621    9.5509   -9.1193 H   0  0  0  0  0  0  0  0  0  0  0  0
   -2.4278   14.2202   -6.2127 H   0  0  0  0  0  0  0  0  0  0  0  0
   -0.6614   10.5729   -7.5868 H   0  0  0  0  0  0  0  0  0  0  0  0
    1.4672   14.2904   -6.0634 H   0  0  0  0  0  0  0  0  0  0  0  0
    0.2117   15.4427   -6.6311 H   0  0  0  0  0  0  0  0  0  0  0  0
    0.1649   14.8218   -4.9462 H   0  0  0  0  0  0  0  0  0  0  0  0
   -6.1759   13.2137  -14.2608 H   0  0  0  0  0  0  0  0  0  0  0  0
  1  2  2  0  0  0  0
  1  4  1  0  0  0  0
  1 13  1  0  0  0  0
  2  6  1  0  0  0  0
  3  4  2  0  0  0  0
  3  5  1  0  0  0  0
  5  6  1  0  0  0  0
  5  9  1  0  0  0  0
  6  7  2  0  0  0  0
  7  8  1  0  0  0  0
  7 10  1  0  0  0  0
  8  9  2  0  0  0  0
 10 14  2  3  0  0  0
 11 12  1  0  0  0  0
 11 13  2  0  0  0  0
 11 26  1  0  0  0  0
 14 15  1  0  0  0  0
 14 19  1  0  0  0  0
 15 16  2  0  0  0  0
 16 17  1  0  0  0  0
 17 18  2  0  0  0  0
 17 20  1  0  0  0  0
 18 19  1  0  0  0  0
 20 21  2  0  0  0  0
 20 24  1  0  0  0  0
 21 22  1  0  0  0  0
 22 23  1  0  0  0  0
 22 25  1  0  0  0  0
 23 24  2  0  0  0  0
  2 27  1  0  0  0  0
  3 28  1  0  0  0  0
  4 29  1  0  0  0  0
  5 30  1  0  0  0  0
 10 31  1  0  0  0  0
 12 32  1  0  0  0  0
 12 33  1  0  0  0  0
 12 34  1  0  0  0  0
 15 35  1  0  0  0  0
 16 36  1  0  0  0  0
 18 37  1  0  0  0  0
 19 38  1  0  0  0  0
 19 39  1  0  0  0  0
 21 40  1  0  0  0  0
 24 41  1  0  0  0  0
 25 42  1  0  0  0  0
 25 43  1  0  0  0  0
 25 44  1  0  0  0  0
 26 45  1  0  0  0  0
M  END
> <Name>
24

> <IC50[uM]>
0.029

$$$$
24
  -OEChem-05192314333D
 Structure written by MMmdl.
 45 48  0     0  0  0  0  0  0999 V2000
   -6.3515   12.3530  -11.9813 C   0  0  0  0  0  0  0  0  0  0  0  0
   -6.5085   11.7912  -10.7247 C   0  0  0  0  0  0  0  0  0  0  0  0
   -7.6802   10.5716  -13.0438 C   0  0  0  0  0  0  0  0  0  0  0  0
   -6.9296   11.7657  -13.1245 C   0  0  0  0  0  0  0  0  0  0  0  0
   -7.7980   10.0044  -11.7669 C   0  0  0  0  0  0  0  0  0  0  0  0
   -7.2328   10.6109  -10.5989 C   0  0  0  0  0  0  0  0  0  0  0  0
   -7.6209    9.7375   -9.5162 C   0  0  0  0  0  0  0  0  0  0  0  0
   -8.2754    8.7446   -9.9970 N   0  0  0  0  0  0  0  0  0  0  0  0
   -8.4233    8.8800  -11.3218 N   0  0  0  0  0  0  0  0  0  0  0  0
   -7.3328    9.8812   -8.0296 C   0  0  0  0  0  0  0  0  0  0  0  0
   -5.3004   14.2773  -13.1499 C   0  0  0  0  0  0  0  0  0  0  0  0
   -4.4346   15.5261  -12.8998 C   0  0  0  0  0  0  0  0  0  0  0  0
   -5.5896   13.5586  -12.0343 N   0  0  0  0  0  0  0  0  0  0  0  0
   -5.9706   10.4906   -7.7317 C   0  0  0  0  0  0  0  0  0  0  0  0
   -5.8616   11.7632   -7.1684 C   0  0  0  0  0  0  0  0  0  0  0  0
   -4.6051   12.3126   -6.9180 C   0  0  0  0  0  0  0  0  0  0  0  0
   -3.4544   11.5948   -7.2294 C   0  0  0  0  0  0  0  0  0  0  0  0
   -3.5626   10.3128   -7.8011 C   0  0  0  0  0  0  0  0  0  0  0  0
   -4.8160    9.7710   -8.0425 C   0  0  0  0  0  0  0  0  0  0  0  0
   -2.1083   12.1736   -6.9694 C   0  0  0  0  0  0  0  0  0  0  0  0
   -1.7503   13.4247   -6.4858 C   0  0  0  0  0  0  0  0  0  0  0  0
   -0.4131   13.4674   -6.4189 N   0  0  0  0  0  0  0  0  0  0  0  0
    0.1758   12.3735   -6.8057 N   0  0  0  0  0  0  0  0  0  0  0  0
   -0.8094   11.5620   -7.1791 C   0  0  0  0  0  0  0  0  0  0  0  0
    0.4060   14.5705   -5.9896 C   0  0  0  0  0  0  0  0  0  0  0  0
   -5.6528   14.0066  -14.2746 O   0  0  0  0  0  0  0  0  0  0  0  0
   -6.0747   12.2631   -9.8555 H   0  0  0  0  0  0  0  0  0  0  0  0
   -8.1361   10.1224  -13.9137 H   0  0  0  0  0  0  0  0  0  0  0  0
   -7.5989   12.5237  -13.5575 H   0  0  0  0  0  0  0  0  0  0  0  0
   -6.1027   11.5654  -13.8217 H   0  0  0  0  0  0  0  0  0  0  0  0
   -8.0279    9.5798   -7.2599 H   0  0  0  0  0  0  0  0  0  0  0  0
   -4.2517   16.0431  -13.8534 H   0  0  0  0  0  0  0  0  0  0  0  0
   -4.9593   16.2038  -12.2102 H   0  0  0  0  0  0  0  0  0  0  0  0
   -3.4743   15.2236  -12.4567 H   0  0  0  0  0  0  0  0  0  0  0  0
   -6.7526   12.3233   -6.9261 H   0  0  0  0  0  0  0  0  0  0  0  0
   -4.5246   13.2972   -6.4815 H   0  0  0  0  0  0  0  0  0  0  0  0
   -2.6730    9.7536   -8.0506 H   0  0  0  0  0  0  0  0  0  0  0  0
   -4.8679    8.8310   -7.4736 H   0  0  0  0  0  0  0  0  0  0  0  0
   -4.8621    9.5509   -9.1193 H   0  0  0  0  0  0  0  0  0  0  0  0
   -2.4278   14.2202   -6.2127 H   0  0  0  0  0  0  0  0  0  0  0  0
   -0.6614   10.5729   -7.5868 H   0  0  0  0  0  0  0  0  0  0  0  0
    1.4672   14.2904   -6.0634 H   0  0  0  0  0  0  0  0  0  0  0  0
    0.2117   15.4427   -6.6311 H   0  0  0  0  0  0  0  0  0  0  0  0
    0.1649   14.8218   -4.9462 H   0  0  0  0  0  0  0  0  0  0  0  0
   -6.1759   13.2137  -14.2608 H   0  0  0  0  0  0  0  0  0  0  0  0
  1  2  2  0  0  0  0
  1  4  1  0  0  0  0
  1 13  1  0  0  0  0
  2  6  1  0  0  0  0
  3  4  1  0  0  0  0
  3  5  2  0  0  0  0
  5  6  1  0  0  0  0
  5  9  1  0  0  0  0
  6  7  2  0  0  0  0
  7  8  1  0  0  0  0
  7 10  1  0  0  0  0
  8  9  2  0  0  0  0
 10 14  2  3  0  0  0
 11 12  1  0  0  0  0
 11 13  2  0  0  0  0
 11 26  1  0  0  0  0
 14 15  1  0  0  0  0
 14 19  1  0  0  0  0
 15 16  2  0  0  0  0
 16 17  1  0  0  0  0
 17 18  2  0  0  0  0
 17 20  1  0  0  0  0
 18 19  1  0  0  0  0
 20 21  2  0  0  0  0
 20 24  1  0  0  0  0
 21 22  1  0  0  0  0
 22 23  1  0  0  0  0
 22 25  1  0  0  0  0
 23 24  2  0  0  0  0
  2 27  1  0  0  0  0
  3 28  1  0  0  0  0
  4 29  1  0  0  0  0
  4 30  1  0  0  0  0
 10 31  1  0  0  0  0
 12 32  1  0  0  0  0
 12 33  1  0  0  0  0
 12 34  1  0  0  0  0
 15 35  1  0  0  0  0
 16 36  1  0  0  0  0
 18 37  1  0  0  0  0
 19 38  1  0  0  0  0
 19 39  1  0  0  0  0
 21 40  1  0  0  0  0
 24 41  1  0  0  0  0
 25 42  1  0  0  0  0
 25 43  1  0  0  0  0
 25 44  1  0  0  0  0
 26 45  1  0  0  0  0
M  END
> <Name>
24

> <IC50[uM]>
0.029

$$$$
24
  -OEChem-05192314333D
 Structure written by MMmdl.
 45 48  0     0  0  0  0  0  0999 V2000
   -6.3515   12.3530  -11.9813 C   0  0  0  0  0  0  0  0  0  0  0  0
   -6.5085   11.7912  -10.7247 C   0  0  0  0  0  0  0  0  0  0  0  0
   -7.6802   10.5716  -13.0438 C   0  0  0  0  0  0  0  0  0  0  0  0
   -6.9296   11.7657  -13.1245 C   0  0  0  0  0  0  0  0  0  0  0  0
   -7.7980   10.0044  -11.7669 C   0  0  0  0  0  0  0  0  0  0  0  0
   -7.2328   10.6109  -10.5989 C   0  0  0  0  0  0  0  0  0  0  0  0
   -7.6209    9.7375   -9.5162 C   0  0  0  0  0  0  0  0  0  0  0  0
   -8.2754    8.7446   -9.9970 N   0  0  0  0  0  0  0  0  0  0  0  0
   -8.4233    8.8800  -11.3218 N   0  0  0  0  0  0  0  0  0  0  0  0
   -7.3328    9.8812   -8.0296 C   0  0  0  0  0  0  0  0  0  0  0  0
   -5.3004   14.2773  -13.1499 C   0  0  0  0  0  0  0  0  0  0  0  0
   -4.4346   15.5261  -12.8998 C   0  0  0  0  0  0  0  0  0  0  0  0
   -5.5896   13.5586  -12.0343 N   0  0  0  0  0  0  0  0  0  0  0  0
   -5.9706   10.4906   -7.7317 C   0  0  0  0  0  0  0  0  0  0  0  0
   -5.8616   11.7632   -7.1684 C   0  0  0  0  0  0  0  0  0  0  0  0
   -4.6051   12.3126   -6.9180 C   0  0  0  0  0  0  0  0  0  0  0  0
   -3.4544   11.5948   -7.2294 C   0  0  0  0  0  0  0  0  0  0  0  0
   -3.5626   10.3128   -7.8011 C   0  0  0  0  0  0  0  0  0  0  0  0
   -4.8160    9.7710   -8.0425 C   0  0  0  0  0  0  0  0  0  0  0  0
   -2.1083   12.1736   -6.9694 C   0  0  0  0  0  0  0  0  0  0  0  0
   -1.7503   13.4247   -6.4858 C   0  0  0  0  0  0  0  0  0  0  0  0
   -0.4131   13.4674   -6.4189 N   0  0  0  0  0  0  0  0  0  0  0  0
    0.1758   12.3735   -6.8057 N   0  0  0  0  0  0  0  0  0  0  0  0
   -0.8094   11.5620   -7.1791 C   0  0  0  0  0  0  0  0  0  0  0  0
    0.4060   14.5705   -5.9896 C   0  0  0  0  0  0  0  0  0  0  0  0
   -5.6528   14.0066  -14.2746 O   0  0  0  0  0  0  0  0  0  0  0  0
   -5.5002   11.5939  -10.3317 H   0  0  0  0  0  0  0  0  0  0  0  0
   -7.0066   12.5435  -10.0954 H   0  0  0  0  0  0  0  0  0  0  0  0
   -8.1361   10.1224  -13.9137 H   0  0  0  0  0  0  0  0  0  0  0  0
   -6.7956   12.2399  -14.0855 H   0  0  0  0  0  0  0  0  0  0  0  0
   -8.0279    9.5798   -7.2599 H   0  0  0  0  0  0  0  0  0  0  0  0
   -4.2517   16.0431  -13.8534 H   0  0  0  0  0  0  0  0  0  0  0  0
   -4.9593   16.2038  -12.2102 H   0  0  0  0  0  0  0  0  0  0  0  0
   -3.4743   15.2236  -12.4567 H   0  0  0  0  0  0  0  0  0  0  0  0
   -6.7526   12.3233   -6.9261 H   0  0  0  0  0  0  0  0  0  0  0  0
   -4.5246   13.2972   -6.4815 H   0  0  0  0  0  0  0  0  0  0  0  0
   -3.4585   11.1486   -6.2240 H   0  0  0  0  0  0  0  0  0  0  0  0
   -2.6730    9.7536   -8.0506 H   0  0  0  0  0  0  0  0  0  0  0  0
   -4.8993    8.7846   -8.4743 H   0  0  0  0  0  0  0  0  0  0  0  0
   -2.4278   14.2202   -6.2127 H   0  0  0  0  0  0  0  0  0  0  0  0
   -0.6614   10.5729   -7.5868 H   0  0  0  0  0  0  0  0  0  0  0  0
    1.4672   14.2904   -6.0634 H   0  0  0  0  0  0  0  0  0  0  0  0
    0.2117   15.4427   -6.6311 H   0  0  0  0  0  0  0  0  0  0  0  0
    0.1649   14.8218   -4.9462 H   0  0  0  0  0  0  0  0  0  0  0  0
   -6.1759   13.2137  -14.2608 H   0  0  0  0  0  0  0  0  0  0  0  0
  1  2  1  0  0  0  0
  1  4  2  0  0  0  0
  1 13  1  0  0  0  0
  2  6  1  0  0  0  0
  3  4  1  0  0  0  0
  3  5  2  0  0  0  0
  5  6  1  0  0  0  0
  5  9  1  0  0  0  0
  6  7  2  0  0  0  0
  7  8  1  0  0  0  0
  7 10  1  0  0  0  0
  8  9  2  0  0  0  0
 10 14  2  0  0  0  0
 11 12  1  0  0  0  0
 11 13  2  0  0  0  0
 11 26  1  0  0  0  0
 14 15  1  0  0  0  0
 14 19  1  0  0  0  0
 15 16  2  0  0  0  0
 16 17  1  0  0  0  0
 17 18  1  0  0  0  0
 17 20  1  0  0  0  0
 18 19  2  0  0  0  0
 20 21  2  0  0  0  0
 20 24  1  0  0  0  0
 21 22  1  0  0  0  0
 22 23  1  0  0  0  0
 22 25  1  0  0  0  0
 23 24  2  0  0  0  0
  2 27  1  0  0  0  0
  2 28  1  0  0  0  0
  3 29  1  0  0  0  0
  4 30  1  0  0  0  0
 10 31  1  0  0  0  0
 12 32  1  0  0  0  0
 12 33  1  0  0  0  0
 12 34  1  0  0  0  0
 15 35  1  0  0  0  0
 16 36  1  0  0  0  0
 17 37  1  0  0  0  0
 18 38  1  0  0  0  0
 19 39  1  0  0  0  0
 21 40  1  0  0  0  0
 24 41  1  0  0  0  0
 25 42  1  0  0  0  0
 25 43  1  0  0  0  0
 25 44  1  0  0  0  0
 26 45  1  0  0  0  0
M  END
> <Name>
24

> <IC50[uM]>
0.029

$$$$
24
  -OEChem-05192314333D
 Structure written by MMmdl.
 45 48  0     0  0  0  0  0  0999 V2000
   -6.3515   12.3530  -11.9813 C   0  0  0  0  0  0  0  0  0  0  0  0
   -6.5085   11.7912  -10.7247 C   0  0  0  0  0  0  0  0  0  0  0  0
   -7.6802   10.5716  -13.0438 C   0  0  0  0  0  0  0  0  0  0  0  0
   -6.9296   11.7657  -13.1245 C   0  0  0  0  0  0  0  0  0  0  0  0
   -7.7980   10.0044  -11.7669 C   0  0  0  0  0  0  0  0  0  0  0  0
   -7.2328   10.6109  -10.5989 C   0  0  0  0  0  0  0  0  0  0  0  0
   -7.6209    9.7375   -9.5162 C   0  0  0  0  0  0  0  0  0  0  0  0
   -8.2754    8.7446   -9.9970 N   0  0  0  0  0  0  0  0  0  0  0  0
   -8.4233    8.8800  -11.3218 N   0  0  0  0  0  0  0  0  0  0  0  0
   -7.3328    9.8812   -8.0296 C   0  0  0  0  0  0  0  0  0  0  0  0
   -5.3004   14.2773  -13.1499 C   0  0  0  0  0  0  0  0  0  0  0  0
   -4.4346   15.5261  -12.8998 C   0  0  0  0  0  0  0  0  0  0  0  0
   -5.5896   13.5586  -12.0343 N   0  0  0  0  0  0  0  0  0  0  0  0
   -5.9706   10.4906   -7.7317 C   0  0  0  0  0  0  0  0  0  0  0  0
   -5.8616   11.7632   -7.1684 C   0  0  0  0  0  0  0  0  0  0  0  0
   -4.6051   12.3126   -6.9180 C   0  0  0  0  0  0  0  0  0  0  0  0
   -3.4544   11.5948   -7.2294 C   0  0  0  0  0  0  0  0  0  0  0  0
   -3.5626   10.3128   -7.8011 C   0  0  0  0  0  0  0  0  0  0  0  0
   -4.8160    9.7710   -8.0425 C   0  0  0  0  0  0  0  0  0  0  0  0
   -2.1083   12.1736   -6.9694 C   0  0  0  0  0  0  0  0  0  0  0  0
   -1.7503   13.4247   -6.4858 C   0  0  0  0  0  0  0  0  0  0  0  0
   -0.4131   13.4674   -6.4189 N   0  0  0  0  0  0  0  0  0  0  0  0
    0.1758   12.3735   -6.8057 N   0  0  0  0  0  0  0  0  0  0  0  0
   -0.8094   11.5620   -7.1791 C   0  0  0  0  0  0  0  0  0  0  0  0
    0.4060   14.5705   -5.9896 C   0  0  0  0  0  0  0  0  0  0  0  0
   -5.6528   14.0066  -14.2746 O   0  0  0  0  0  0  0  0  0  0  0  0
   -5.5002   11.5939  -10.3317 H   0  0  0  0  0  0  0  0  0  0  0  0
   -7.0066   12.5435  -10.0954 H   0  0  0  0  0  0  0  0  0  0  0  0
   -8.1361   10.1224  -13.9137 H   0  0  0  0  0  0  0  0  0  0  0  0
   -6.7956   12.2399  -14.0855 H   0  0  0  0  0  0  0  0  0  0  0  0
   -8.0279    9.5798   -7.2599 H   0  0  0  0  0  0  0  0  0  0  0  0
   -4.2517   16.0431  -13.8534 H   0  0  0  0  0  0  0  0  0  0  0  0
   -4.9593   16.2038  -12.2102 H   0  0  0  0  0  0  0  0  0  0  0  0
   -3.4743   15.2236  -12.4567 H   0  0  0  0  0  0  0  0  0  0  0  0
   -6.7526   12.3233   -6.9261 H   0  0  0  0  0  0  0  0  0  0  0  0
   -4.5246   13.2972   -6.4815 H   0  0  0  0  0  0  0  0  0  0  0  0
   -2.6730    9.7536   -8.0506 H   0  0  0  0  0  0  0  0  0  0  0  0
   -4.8679    8.8310   -7.4736 H   0  0  0  0  0  0  0  0  0  0  0  0
   -4.8621    9.5509   -9.1193 H   0  0  0  0  0  0  0  0  0  0  0  0
   -2.4278   14.2202   -6.2127 H   0  0  0  0  0  0  0  0  0  0  0  0
   -0.6614   10.5729   -7.5868 H   0  0  0  0  0  0  0  0  0  0  0  0
    1.4672   14.2904   -6.0634 H   0  0  0  0  0  0  0  0  0  0  0  0
    0.2117   15.4427   -6.6311 H   0  0  0  0  0  0  0  0  0  0  0  0
    0.1649   14.8218   -4.9462 H   0  0  0  0  0  0  0  0  0  0  0  0
   -6.1759   13.2137  -14.2608 H   0  0  0  0  0  0  0  0  0  0  0  0
  1  2  1  0  0  0  0
  1  4  2  0  0  0  0
  1 13  1  0  0  0  0
  2  6  1  0  0  0  0
  3  4  1  0  0  0  0
  3  5  2  0  0  0  0
  5  6  1  0  0  0  0
  5  9  1  0  0  0  0
  6  7  2  0  0  0  0
  7  8  1  0  0  0  0
  7 10  1  0  0  0  0
  8  9  2  0  0  0  0
 10 14  2  3  0  0  0
 11 12  1  0  0  0  0
 11 13  2  0  0  0  0
 11 26  1  0  0  0  0
 14 15  1  0  0  0  0
 14 19  1  0  0  0  0
 15 16  2  0  0  0  0
 16 17  1  0  0  0  0
 17 18  2  0  0  0  0
 17 20  1  0  0  0  0
 18 19  1  0  0  0  0
 20 21  2  0  0  0  0
 20 24  1  0  0  0  0
 21 22  1  0  0  0  0
 22 23  1  0  0  0  0
 22 25  1  0  0  0  0
 23 24  2  0  0  0  0
  2 27  1  0  0  0  0
  2 28  1  0  0  0  0
  3 29  1  0  0  0  0
  4 30  1  0  0  0  0
 10 31  1  0  0  0  0
 12 32  1  0  0  0  0
 12 33  1  0  0  0  0
 12 34  1  0  0  0  0
 15 35  1  0  0  0  0
 16 36  1  0  0  0  0
 18 37  1  0  0  0  0
 19 38  1  0  0  0  0
 19 39  1  0  0  0  0
 21 40  1  0  0  0  0
 24 41  1  0  0  0  0
 25 42  1  0  0  0  0
 25 43  1  0  0  0  0
 25 44  1  0  0  0  0
 26 45  1  0  0  0  0
M  END
> <Name>
24

> <IC50[uM]>
0.029

$$$$
24
  -OEChem-05192314333D
 Structure written by MMmdl.
 45 48  0     1  0  0  0  0  0999 V2000
   -6.3515   12.3530  -11.9813 C   0  0  0  0  0  0  0  0  0  0  0  0
   -6.5085   11.7912  -10.7247 C   0  0  0  0  0  0  0  0  0  0  0  0
   -7.6802   10.5716  -13.0438 C   0  0  0  0  0  0  0  0  0  0  0  0
   -6.9296   11.7657  -13.1245 C   0  0  0  0  0  0  0  0  0  0  0  0
   -7.7980   10.0044  -11.7669 C   0  0  0  0  0  0  0  0  0  0  0  0
   -7.2328   10.6109  -10.5989 C   0  0  0  0  0  0  0  0  0  0  0  0
   -7.6209    9.7375   -9.5162 C   0  0  0  0  0  0  0  0  0  0  0  0
   -8.2754    8.7446   -9.9970 N   0  0  0  0  0  0  0  0  0  0  0  0
   -8.4233    8.8800  -11.3218 N   0  0  0  0  0  0  0  0  0  0  0  0
   -7.3328    9.8812   -8.0296 C   0  0  0  0  0  0  0  0  0  0  0  0
   -5.3004   14.2773  -13.1499 C   0  0  0  0  0  0  0  0  0  0  0  0
   -4.4346   15.5261  -12.8998 C   0  0  0  0  0  0  0  0  0  0  0  0
   -5.5896   13.5586  -12.0343 N   0  0  0  0  0  0  0  0  0  0  0  0
   -5.9706   10.4906   -7.7317 C   0  0  0  0  0  0  0  0  0  0  0  0
   -5.8616   11.7632   -7.1684 C   0  0  0  0  0  0  0  0  0  0  0  0
   -4.6051   12.3126   -6.9180 C   0  0  0  0  0  0  0  0  0  0  0  0
   -3.4544   11.5948   -7.2294 C   0  0  0  0  0  0  0  0  0  0  0  0
   -3.5626   10.3128   -7.8011 C   0  0  0  0  0  0  0  0  0  0  0  0
   -4.8160    9.7710   -8.0425 C   0  0  0  0  0  0  0  0  0  0  0  0
   -2.1083   12.1736   -6.9694 C   0  0  0  0  0  0  0  0  0  0  0  0
   -1.7503   13.4247   -6.4858 C   0  0  0  0  0  0  0  0  0  0  0  0
   -0.4131   13.4674   -6.4189 N   0  0  3  0  0  0  0  0  0  0  0  0
    0.1758   12.3735   -6.8057 N   0  0  0  0  0  0  0  0  0  0  0  0
   -0.8094   11.5620   -7.1791 C   0  0  0  0  0  0  0  0  0  0  0  0
    0.4060   14.5705   -5.9896 C   0  0  0  0  0  0  0  0  0  0  0  0
   -5.6528   14.0066  -14.2746 O   0  0  0  0  0  0  0  0  0  0  0  0
   -6.0747   12.2631   -9.8555 H   0  0  0  0  0  0  0  0  0  0  0  0
   -8.1361   10.1224  -13.9137 H   0  0  0  0  0  0  0  0  0  0  0  0
   -6.7956   12.2399  -14.0855 H   0  0  0  0  0  0  0  0  0  0  0  0
   -8.6258    7.9778   -9.4591 H   0  0  0  0  0  0  0  0  0  0  0  0
   -8.0279    9.5798   -7.2599 H   0  0  0  0  0  0  0  0  0  0  0  0
   -4.2429   16.0373  -13.8548 H   0  0  0  0  0  0  0  0  0  0  0  0
   -4.9638   16.2086  -12.2185 H   0  0  0  0  0  0  0  0  0  0  0  0
   -3.4785   15.2246  -12.4471 H   0  0  0  0  0  0  0  0  0  0  0  0
   -5.9851   10.0423   -6.7273 H   0  0  0  0  0  0  0  0  0  0  0  0
   -6.7526   12.3233   -6.9261 H   0  0  0  0  0  0  0  0  0  0  0  0
   -4.5246   13.2972   -6.4815 H   0  0  0  0  0  0  0  0  0  0  0  0
   -2.6730    9.7536   -8.0506 H   0  0  0  0  0  0  0  0  0  0  0  0
   -4.8993    8.7846   -8.4743 H   0  0  0  0  0  0  0  0  0  0  0  0
   -2.1167   14.2081   -7.1655 H   0  0  0  0  0  0  0  0  0  0  0  0
   -2.1807   13.5768   -5.4850 H   0  0  0  0  0  0  0  0  0  0  0  0
   -0.6614   10.5729   -7.5868 H   0  0  0  0  0  0  0  0  0  0  0  0
    1.4672   14.2904   -6.0634 H   0  0  0  0  0  0  0  0  0  0  0  0
    0.2117   15.4427   -6.6311 H   0  0  0  0  0  0  0  0  0  0  0  0
    0.1649   14.8218   -4.9462 H   0  0  0  0  0  0  0  0  0  0  0  0
  1  2  1  0  0  0  0
  1  4  1  0  0  0  0
  1 13  2  0  0  0  0
  2  6  2  0  0  0  0
  3  4  2  0  0  0  0
  3  5  1  0  0  0  0
  5  6  1  0  0  0  0
  5  9  2  0  0  0  0
  6  7  1  0  0  0  0
  7  8  1  0  0  0  0
  7 10  2  3  0  0  0
  8  9  1  0  0  0  0
 10 14  1  0  0  0  0
 11 12  1  0  0  0  0
 11 13  1  0  0  0  0
 11 26  2  0  0  0  0
 14 15  1  0  0  0  0
 14 19  1  0  0  0  0
 15 16  2  0  0  0  0
 16 17  1  0  0  0  0
 17 18  1  0  0  0  0
 17 20  2  0  0  0  0
 18 19  2  0  0  0  0
 20 21  1  0  0  0  0
 20 24  1  0  0  0  0
 21 22  1  0  0  0  0
 22 23  1  0  0  0  0
 22 25  1  0  0  0  0
 23 24  2  0  0  0  0
  2 27  1  0  0  0  0
  3 28  1  0  0  0  0
  4 29  1  0  0  0  0
  8 30  1  0  0  0  0
 10 31  1  0  0  0  0
 12 32  1  0  0  0  0
 12 33  1  0  0  0  0
 12 34  1  0  0  0  0
 14 35  1  0  0  0  0
 15 36  1  0  0  0  0
 16 37  1  0  0  0  0
 18 38  1  0  0  0  0
 19 39  1  0  0  0  0
 21 40  1  0  0  0  0
 21 41  1  0  0  0  0
 24 42  1  0  0  0  0
 25 43  1  0  0  0  0
 25 44  1  0  0  0  0
 25 45  1  0  0  0  0
M  END
> <Name>
24

> <IC50[uM]>
0.029

$$$$
24
  -OEChem-05192314333D
 Structure written by MMmdl.
 45 48  0     1  0  0  0  0  0999 V2000
   -6.3515   12.3530  -11.9813 C   0  0  0  0  0  0  0  0  0  0  0  0
   -6.5085   11.7912  -10.7247 C   0  0  0  0  0  0  0  0  0  0  0  0
   -7.6802   10.5716  -13.0438 C   0  0  0  0  0  0  0  0  0  0  0  0
   -6.9296   11.7657  -13.1245 C   0  0  0  0  0  0  0  0  0  0  0  0
   -7.7980   10.0044  -11.7669 C   0  0  0  0  0  0  0  0  0  0  0  0
   -7.2328   10.6109  -10.5989 C   0  0  0  0  0  0  0  0  0  0  0  0
   -7.6209    9.7375   -9.5162 C   0  0  0  0  0  0  0  0  0  0  0  0
   -8.2754    8.7446   -9.9970 N   0  0  0  0  0  0  0  0  0  0  0  0
   -8.4233    8.8800  -11.3218 N   0  0  0  0  0  0  0  0  0  0  0  0
   -7.3328    9.8812   -8.0296 C   0  0  0  0  0  0  0  0  0  0  0  0
   -5.3004   14.2773  -13.1499 C   0  0  0  0  0  0  0  0  0  0  0  0
   -4.4346   15.5261  -12.8998 C   0  0  0  0  0  0  0  0  0  0  0  0
   -5.5896   13.5586  -12.0343 N   0  0  0  0  0  0  0  0  0  0  0  0
   -5.9706   10.4906   -7.7317 C   0  0  0  0  0  0  0  0  0  0  0  0
   -5.8616   11.7632   -7.1684 C   0  0  0  0  0  0  0  0  0  0  0  0
   -4.6051   12.3126   -6.9180 C   0  0  0  0  0  0  0  0  0  0  0  0
   -3.4544   11.5948   -7.2294 C   0  0  0  0  0  0  0  0  0  0  0  0
   -3.5626   10.3128   -7.8011 C   0  0  0  0  0  0  0  0  0  0  0  0
   -4.8160    9.7710   -8.0425 C   0  0  0  0  0  0  0  0  0  0  0  0
   -2.1083   12.1736   -6.9694 C   0  0  0  0  0  0  0  0  0  0  0  0
   -1.7503   13.4247   -6.4858 C   0  0  0  0  0  0  0  0  0  0  0  0
   -0.4131   13.4674   -6.4189 N   0  0  3  0  0  0  0  0  0  0  0  0
    0.1758   12.3735   -6.8057 N   0  0  0  0  0  0  0  0  0  0  0  0
   -0.8094   11.5620   -7.1791 C   0  0  0  0  0  0  0  0  0  0  0  0
    0.4060   14.5705   -5.9896 C   0  0  0  0  0  0  0  0  0  0  0  0
   -5.6528   14.0066  -14.2746 O   0  0  0  0  0  0  0  0  0  0  0  0
   -6.0747   12.2631   -9.8555 H   0  0  0  0  0  0  0  0  0  0  0  0
   -8.1361   10.1224  -13.9137 H   0  0  0  0  0  0  0  0  0  0  0  0
   -6.7956   12.2399  -14.0855 H   0  0  0  0  0  0  0  0  0  0  0  0
   -8.6258    7.9778   -9.4591 H   0  0  0  0  0  0  0  0  0  0  0  0
   -8.0279    9.5798   -7.2599 H   0  0  0  0  0  0  0  0  0  0  0  0
   -4.2429   16.0373  -13.8548 H   0  0  0  0  0  0  0  0  0  0  0  0
   -4.9638   16.2086  -12.2185 H   0  0  0  0  0  0  0  0  0  0  0  0
   -3.4785   15.2246  -12.4471 H   0  0  0  0  0  0  0  0  0  0  0  0
   -6.7526   12.3233   -6.9261 H   0  0  0  0  0  0  0  0  0  0  0  0
   -4.5531   13.2553   -7.4825 H   0  0  0  0  0  0  0  0  0  0  0  0
   -4.5624   12.5279   -5.8401 H   0  0  0  0  0  0  0  0  0  0  0  0
   -2.6730    9.7536   -8.0506 H   0  0  0  0  0  0  0  0  0  0  0  0
   -4.8993    8.7846   -8.4743 H   0  0  0  0  0  0  0  0  0  0  0  0
   -2.1167   14.2081   -7.1655 H   0  0  0  0  0  0  0  0  0  0  0  0
   -2.1807   13.5768   -5.4850 H   0  0  0  0  0  0  0  0  0  0  0  0
   -0.6614   10.5729   -7.5868 H   0  0  0  0  0  0  0  0  0  0  0  0
    1.4672   14.2904   -6.0634 H   0  0  0  0  0  0  0  0  0  0  0  0
    0.2117   15.4427   -6.6311 H   0  0  0  0  0  0  0  0  0  0  0  0
    0.1649   14.8218   -4.9462 H   0  0  0  0  0  0  0  0  0  0  0  0
  1  2  1  0  0  0  0
  1  4  1  0  0  0  0
  1 13  2  0  0  0  0
  2  6  2  0  0  0  0
  3  4  2  0  0  0  0
  3  5  1  0  0  0  0
  5  6  1  0  0  0  0
  5  9  2  0  0  0  0
  6  7  1  0  0  0  0
  7  8  1  0  0  0  0
  7 10  2  3  0  0  0
  8  9  1  0  0  0  0
 10 14  1  0  0  0  0
 11 12  1  0  0  0  0
 11 13  1  0  0  0  0
 11 26  2  0  0  0  0
 14 15  2  0  0  0  0
 14 19  1  0  0  0  0
 15 16  1  0  0  0  0
 16 17  1  0  0  0  0
 17 18  1  0  0  0  0
 17 20  2  0  0  0  0
 18 19  2  0  0  0  0
 20 21  1  0  0  0  0
 20 24  1  0  0  0  0
 21 22  1  0  0  0  0
 22 23  1  0  0  0  0
 22 25  1  0  0  0  0
 23 24  2  0  0  0  0
  2 27  1  0  0  0  0
  3 28  1  0  0  0  0
  4 29  1  0  0  0  0
  8 30  1  0  0  0  0
 10 31  1  0  0  0  0
 12 32  1  0  0  0  0
 12 33  1  0  0  0  0
 12 34  1  0  0  0  0
 15 35  1  0  0  0  0
 16 36  1  0  0  0  0
 16 37  1  0  0  0  0
 18 38  1  0  0  0  0
 19 39  1  0  0  0  0
 21 40  1  0  0  0  0
 21 41  1  0  0  0  0
 24 42  1  0  0  0  0
 25 43  1  0  0  0  0
 25 44  1  0  0  0  0
 25 45  1  0  0  0  0
M  END
> <Name>
24

> <IC50[uM]>
0.029

$$$$
24
  -OEChem-05192314333D
 Structure written by MMmdl.
 45 48  0     1  0  0  0  0  0999 V2000
   -6.3515   12.3530  -11.9813 C   0  0  0  0  0  0  0  0  0  0  0  0
   -6.5085   11.7912  -10.7247 C   0  0  0  0  0  0  0  0  0  0  0  0
   -7.6802   10.5716  -13.0438 C   0  0  0  0  0  0  0  0  0  0  0  0
   -6.9296   11.7657  -13.1245 C   0  0  0  0  0  0  0  0  0  0  0  0
   -7.7980   10.0044  -11.7669 C   0  0  0  0  0  0  0  0  0  0  0  0
   -7.2328   10.6109  -10.5989 C   0  0  0  0  0  0  0  0  0  0  0  0
   -7.6209    9.7375   -9.5162 C   0  0  0  0  0  0  0  0  0  0  0  0
   -8.2754    8.7446   -9.9970 N   0  0  0  0  0  0  0  0  0  0  0  0
   -8.4233    8.8800  -11.3218 N   0  0  0  0  0  0  0  0  0  0  0  0
   -7.3328    9.8812   -8.0296 C   0  0  0  0  0  0  0  0  0  0  0  0
   -5.3004   14.2773  -13.1499 C   0  0  0  0  0  0  0  0  0  0  0  0
   -4.4346   15.5261  -12.8998 C   0  0  0  0  0  0  0  0  0  0  0  0
   -5.5896   13.5586  -12.0343 N   0  0  0  0  0  0  0  0  0  0  0  0
   -5.9706   10.4906   -7.7317 C   0  0  0  0  0  0  0  0  0  0  0  0
   -5.8616   11.7632   -7.1684 C   0  0  0  0  0  0  0  0  0  0  0  0
   -4.6051   12.3126   -6.9180 C   0  0  0  0  0  0  0  0  0  0  0  0
   -3.4544   11.5948   -7.2294 C   0  0  0  0  0  0  0  0  0  0  0  0
   -3.5626   10.3128   -7.8011 C   0  0  0  0  0  0  0  0  0  0  0  0
   -4.8160    9.7710   -8.0425 C   0  0  0  0  0  0  0  0  0  0  0  0
   -2.1083   12.1736   -6.9694 C   0  0  3  0  0  0  0  0  0  0  0  0
   -1.7503   13.4247   -6.4858 C   0  0  0  0  0  0  0  0  0  0  0  0
   -0.4131   13.4674   -6.4189 N   0  0  3  0  0  0  0  0  0  0  0  0
    0.1758   12.3735   -6.8057 N   0  0  0  0  0  0  0  0  0  0  0  0
   -0.8094   11.5620   -7.1791 C   0  0  0  0  0  0  0  0  0  0  0  0
    0.4060   14.5705   -5.9896 C   0  0  0  0  0  0  0  0  0  0  0  0
   -5.6528   14.0066  -14.2746 O   0  0  0  0  0  0  0  0  0  0  0  0
   -6.0747   12.2631   -9.8555 H   0  0  0  0  0  0  0  0  0  0  0  0
   -8.1361   10.1224  -13.9137 H   0  0  0  0  0  0  0  0  0  0  0  0
   -6.7956   12.2399  -14.0855 H   0  0  0  0  0  0  0  0  0  0  0  0
   -8.0279    9.5798   -7.2599 H   0  0  0  0  0  0  0  0  0  0  0  0
   -4.2429   16.0373  -13.8548 H   0  0  0  0  0  0  0  0  0  0  0  0
   -4.9638   16.2086  -12.2185 H   0  0  0  0  0  0  0  0  0  0  0  0
   -3.4785   15.2246  -12.4471 H   0  0  0  0  0  0  0  0  0  0  0  0
   -6.7526   12.3233   -6.9261 H   0  0  0  0  0  0  0  0  0  0  0  0
   -4.5246   13.2972   -6.4815 H   0  0  0  0  0  0  0  0  0  0  0  0
   -3.4585   11.1486   -6.2240 H   0  0  0  0  0  0  0  0  0  0  0  0
   -2.6730    9.7536   -8.0506 H   0  0  0  0  0  0  0  0  0  0  0  0
   -4.8993    8.7846   -8.4743 H   0  0  0  0  0  0  0  0  0  0  0  0
   -2.1327   11.7792   -5.9428 H   0  0  0  0  0  0  0  0  0  0  0  0
   -2.1167   14.2081   -7.1655 H   0  0  0  0  0  0  0  0  0  0  0  0
   -2.1807   13.5768   -5.4850 H   0  0  0  0  0  0  0  0  0  0  0  0
   -0.6614   10.5729   -7.5868 H   0  0  0  0  0  0  0  0  0  0  0  0
    1.4672   14.2904   -6.0634 H   0  0  0  0  0  0  0  0  0  0  0  0
    0.2117   15.4427   -6.6311 H   0  0  0  0  0  0  0  0  0  0  0  0
    0.1649   14.8218   -4.9462 H   0  0  0  0  0  0  0  0  0  0  0  0
  1  2  1  0  0  0  0
  1  4  1  0  0  0  0
  1 13  2  0  0  0  0
  2  6  2  0  0  0  0
  3  4  2  0  0  0  0
  3  5  1  0  0  0  0
  5  6  1  0  0  0  0
  5  9  2  0  0  0  0
  6  7  1  0  0  0  0
  7  8  2  0  0  0  0
  7 10  1  0  0  0  0
  8  9  1  0  0  0  0
 10 14  2  0  0  0  0
 11 12  1  0  0  0  0
 11 13  1  0  0  0  0
 11 26  2  0  0  0  0
 14 15  1  0  0  0  0
 14 19  1  0  0  0  0
 15 16  2  0  0  0  0
 16 17  1  0  0  0  0
 17 18  1  0  0  0  0
 17 20  1  0  0  0  0
 18 19  2  0  0  0  0
 20 21  1  0  0  0  0
 20 24  1  0  0  0  0
 21 22  1  0  0  0  0
 22 23  1  0  0  0  0
 22 25  1  0  0  0  0
 23 24  2  0  0  0  0
  2 27  1  0  0  0  0
  3 28  1  0  0  0  0
  4 29  1  0  0  0  0
 10 30  1  0  0  0  0
 12 31  1  0  0  0  0
 12 32  1  0  0  0  0
 12 33  1  0  0  0  0
 15 34  1  0  0  0  0
 16 35  1  0  0  0  0
 17 36  1  0  0  0  0
 18 37  1  0  0  0  0
 19 38  1  0  0  0  0
 20 39  1  0  0  0  0
 21 40  1  0  0  0  0
 21 41  1  0  0  0  0
 24 42  1  0  0  0  0
 25 43  1  0  0  0  0
 25 44  1  0  0  0  0
 25 45  1  0  0  0  0
M  END
> <Name>
24

> <IC50[uM]>
0.029

$$$$
24
  -OEChem-05192314333D
 Structure written by MMmdl.
 45 48  0     1  0  0  0  0  0999 V2000
   -6.3515   12.3530  -11.9813 C   0  0  0  0  0  0  0  0  0  0  0  0
   -6.5085   11.7912  -10.7247 C   0  0  0  0  0  0  0  0  0  0  0  0
   -7.6802   10.5716  -13.0438 C   0  0  0  0  0  0  0  0  0  0  0  0
   -6.9296   11.7657  -13.1245 C   0  0  0  0  0  0  0  0  0  0  0  0
   -7.7980   10.0044  -11.7669 C   0  0  0  0  0  0  0  0  0  0  0  0
   -7.2328   10.6109  -10.5989 C   0  0  0  0  0  0  0  0  0  0  0  0
   -7.6209    9.7375   -9.5162 C   0  0  0  0  0  0  0  0  0  0  0  0
   -8.2754    8.7446   -9.9970 N   0  0  0  0  0  0  0  0  0  0  0  0
   -8.4233    8.8800  -11.3218 N   0  0  0  0  0  0  0  0  0  0  0  0
   -7.3328    9.8812   -8.0296 C   0  0  0  0  0  0  0  0  0  0  0  0
   -5.3004   14.2773  -13.1499 C   0  0  0  0  0  0  0  0  0  0  0  0
   -4.4346   15.5261  -12.8998 C   0  0  0  0  0  0  0  0  0  0  0  0
   -5.5896   13.5586  -12.0343 N   0  0  0  0  0  0  0  0  0  0  0  0
   -5.9706   10.4906   -7.7317 C   0  0  0  0  0  0  0  0  0  0  0  0
   -5.8616   11.7632   -7.1684 C   0  0  0  0  0  0  0  0  0  0  0  0
   -4.6051   12.3126   -6.9180 C   0  0  0  0  0  0  0  0  0  0  0  0
   -3.4544   11.5948   -7.2294 C   0  0  0  0  0  0  0  0  0  0  0  0
   -3.5626   10.3128   -7.8011 C   0  0  0  0  0  0  0  0  0  0  0  0
   -4.8160    9.7710   -8.0425 C   0  0  0  0  0  0  0  0  0  0  0  0
   -2.1083   12.1736   -6.9694 C   0  0  3  0  0  0  0  0  0  0  0  0
   -1.7503   13.4247   -6.4858 C   0  0  0  0  0  0  0  0  0  0  0  0
   -0.4131   13.4674   -6.4189 N   0  0  3  0  0  0  0  0  0  0  0  0
    0.1758   12.3735   -6.8057 N   0  0  0  0  0  0  0  0  0  0  0  0
   -0.8094   11.5620   -7.1791 C   0  0  0  0  0  0  0  0  0  0  0  0
    0.4060   14.5705   -5.9896 C   0  0  0  0  0  0  0  0  0  0  0  0
   -5.6528   14.0066  -14.2746 O   0  0  0  0  0  0  0  0  0  0  0  0
   -6.0747   12.2631   -9.8555 H   0  0  0  0  0  0  0  0  0  0  0  0
   -8.1361   10.1224  -13.9137 H   0  0  0  0  0  0  0  0  0  0  0  0
   -6.7956   12.2399  -14.0855 H   0  0  0  0  0  0  0  0  0  0  0  0
   -8.0279    9.5798   -7.2599 H   0  0  0  0  0  0  0  0  0  0  0  0
   -4.2429   16.0373  -13.8548 H   0  0  0  0  0  0  0  0  0  0  0  0
   -4.9638   16.2086  -12.2185 H   0  0  0  0  0  0  0  0  0  0  0  0
   -3.4785   15.2246  -12.4471 H   0  0  0  0  0  0  0  0  0  0  0  0
   -6.7526   12.3233   -6.9261 H   0  0  0  0  0  0  0  0  0  0  0  0
   -4.5246   13.2972   -6.4815 H   0  0  0  0  0  0  0  0  0  0  0  0
   -2.6730    9.7536   -8.0506 H   0  0  0  0  0  0  0  0  0  0  0  0
   -4.8679    8.8310   -7.4736 H   0  0  0  0  0  0  0  0  0  0  0  0
   -4.8621    9.5509   -9.1193 H   0  0  0  0  0  0  0  0  0  0  0  0
   -2.1327   11.7792   -5.9428 H   0  0  0  0  0  0  0  0  0  0  0  0
   -2.1167   14.2081   -7.1655 H   0  0  0  0  0  0  0  0  0  0  0  0
   -2.1807   13.5768   -5.4850 H   0  0  0  0  0  0  0  0  0  0  0  0
   -0.6614   10.5729   -7.5868 H   0  0  0  0  0  0  0  0  0  0  0  0
    1.4672   14.2904   -6.0634 H   0  0  0  0  0  0  0  0  0  0  0  0
    0.2117   15.4427   -6.6311 H   0  0  0  0  0  0  0  0  0  0  0  0
    0.1649   14.8218   -4.9462 H   0  0  0  0  0  0  0  0  0  0  0  0
  1  2  1  0  0  0  0
  1  4  1  0  0  0  0
  1 13  2  0  0  0  0
  2  6  2  0  0  0  0
  3  4  2  0  0  0  0
  3  5  1  0  0  0  0
  5  6  1  0  0  0  0
  5  9  2  0  0  0  0
  6  7  1  0  0  0  0
  7  8  2  0  0  0  0
  7 10  1  0  0  0  0
  8  9  1  0  0  0  0
 10 14  2  3  0  0  0
 11 12  1  0  0  0  0
 11 13  1  0  0  0  0
 11 26  2  0  0  0  0
 14 15  1  0  0  0  0
 14 19  1  0  0  0  0
 15 16  2  0  0  0  0
 16 17  1  0  0  0  0
 17 18  2  0  0  0  0
 17 20  1  0  0  0  0
 18 19  1  0  0  0  0
 20 21  1  0  0  0  0
 20 24  1  0  0  0  0
 21 22  1  0  0  0  0
 22 23  1  0  0  0  0
 22 25  1  0  0  0  0
 23 24  2  0  0  0  0
  2 27  1  0  0  0  0
  3 28  1  0  0  0  0
  4 29  1  0  0  0  0
 10 30  1  0  0  0  0
 12 31  1  0  0  0  0
 12 32  1  0  0  0  0
 12 33  1  0  0  0  0
 15 34  1  0  0  0  0
 16 35  1  0  0  0  0
 18 36  1  0  0  0  0
 19 37  1  0  0  0  0
 19 38  1  0  0  0  0
 20 39  1  0  0  0  0
 21 40  1  0  0  0  0
 21 41  1  0  0  0  0
 24 42  1  0  0  0  0
 25 43  1  0  0  0  0
 25 44  1  0  0  0  0
 25 45  1  0  0  0  0
M  END
> <Name>
24

> <IC50[uM]>
0.029

$$$$
24
  -OEChem-05192314333D
 Structure written by MMmdl.
 45 48  0     1  0  0  0  0  0999 V2000
   -6.3515   12.3530  -11.9813 C   0  0  0  0  0  0  0  0  0  0  0  0
   -6.5085   11.7912  -10.7247 C   0  0  0  0  0  0  0  0  0  0  0  0
   -7.6802   10.5716  -13.0438 C   0  0  0  0  0  0  0  0  0  0  0  0
   -6.9296   11.7657  -13.1245 C   0  0  0  0  0  0  0  0  0  0  0  0
   -7.7980   10.0044  -11.7669 C   0  0  0  0  0  0  0  0  0  0  0  0
   -7.2328   10.6109  -10.5989 C   0  0  0  0  0  0  0  0  0  0  0  0
   -7.6209    9.7375   -9.5162 C   0  0  0  0  0  0  0  0  0  0  0  0
   -8.2754    8.7446   -9.9970 N   0  0  0  0  0  0  0  0  0  0  0  0
   -8.4233    8.8800  -11.3218 N   0  0  0  0  0  0  0  0  0  0  0  0
   -7.3328    9.8812   -8.0296 C   0  0  0  0  0  0  0  0  0  0  0  0
   -5.3004   14.2773  -13.1499 C   0  0  0  0  0  0  0  0  0  0  0  0
   -4.4346   15.5261  -12.8998 C   0  0  0  0  0  0  0  0  0  0  0  0
   -5.5896   13.5586  -12.0343 N   0  0  0  0  0  0  0  0  0  0  0  0
   -5.9706   10.4906   -7.7317 C   0  0  0  0  0  0  0  0  0  0  0  0
   -5.8616   11.7632   -7.1684 C   0  0  0  0  0  0  0  0  0  0  0  0
   -4.6051   12.3126   -6.9180 C   0  0  0  0  0  0  0  0  0  0  0  0
   -3.4544   11.5948   -7.2294 C   0  0  0  0  0  0  0  0  0  0  0  0
   -3.5626   10.3128   -7.8011 C   0  0  0  0  0  0  0  0  0  0  0  0
   -4.8160    9.7710   -8.0425 C   0  0  0  0  0  0  0  0  0  0  0  0
   -2.1083   12.1736   -6.9694 C   0  0  0  0  0  0  0  0  0  0  0  0
   -1.7503   13.4247   -6.4858 C   0  0  0  0  0  0  0  0  0  0  0  0
   -0.4131   13.4674   -6.4189 N   0  0  3  0  0  0  0  0  0  0  0  0
    0.1758   12.3735   -6.8057 N   0  0  0  0  0  0  0  0  0  0  0  0
   -0.8094   11.5620   -7.1791 C   0  0  0  0  0  0  0  0  0  0  0  0
    0.4060   14.5705   -5.9896 C   0  0  0  0  0  0  0  0  0  0  0  0
   -5.6528   14.0066  -14.2746 O   0  0  0  0  0  0  0  0  0  0  0  0
   -6.0747   12.2631   -9.8555 H   0  0  0  0  0  0  0  0  0  0  0  0
   -8.1361   10.1224  -13.9137 H   0  0  0  0  0  0  0  0  0  0  0  0
   -6.7956   12.2399  -14.0855 H   0  0  0  0  0  0  0  0  0  0  0  0
   -8.0279    9.5798   -7.2599 H   0  0  0  0  0  0  0  0  0  0  0  0
   -4.2429   16.0373  -13.8548 H   0  0  0  0  0  0  0  0  0  0  0  0
   -4.9638   16.2086  -12.2185 H   0  0  0  0  0  0  0  0  0  0  0  0
   -3.4785   15.2246  -12.4471 H   0  0  0  0  0  0  0  0  0  0  0  0
   -6.7526   12.3233   -6.9261 H   0  0  0  0  0  0  0  0  0  0  0  0
   -4.5246   13.2972   -6.4815 H   0  0  0  0  0  0  0  0  0  0  0  0
   -3.0396   10.3498   -8.7681 H   0  0  0  0  0  0  0  0  0  0  0  0
   -3.0393    9.6182   -7.1276 H   0  0  0  0  0  0  0  0  0  0  0  0
   -4.8679    8.8310   -7.4736 H   0  0  0  0  0  0  0  0  0  0  0  0
   -4.8621    9.5509   -9.1193 H   0  0  0  0  0  0  0  0  0  0  0  0
   -2.1167   14.2081   -7.1655 H   0  0  0  0  0  0  0  0  0  0  0  0
   -2.1807   13.5768   -5.4850 H   0  0  0  0  0  0  0  0  0  0  0  0
   -0.6614   10.5729   -7.5868 H   0  0  0  0  0  0  0  0  0  0  0  0
    1.4672   14.2904   -6.0634 H   0  0  0  0  0  0  0  0  0  0  0  0
    0.2117   15.4427   -6.6311 H   0  0  0  0  0  0  0  0  0  0  0  0
    0.1649   14.8218   -4.9462 H   0  0  0  0  0  0  0  0  0  0  0  0
  1  2  1  0  0  0  0
  1  4  1  0  0  0  0
  1 13  2  0  0  0  0
  2  6  2  0  0  0  0
  3  4  2  0  0  0  0
  3  5  1  0  0  0  0
  5  6  1  0  0  0  0
  5  9  2  0  0  0  0
  6  7  1  0  0  0  0
  7  8  2  0  0  0  0
  7 10  1  0  0  0  0
  8  9  1  0  0  0  0
 10 14  2  3  0  0  0
 11 12  1  0  0  0  0
 11 13  1  0  0  0  0
 11 26  2  0  0  0  0
 14 15  1  0  0  0  0
 14 19  1  0  0  0  0
 15 16  2  0  0  0  0
 16 17  1  0  0  0  0
 17 18  1  0  0  0  0
 17 20  2  0  0  0  0
 18 19  1  0  0  0  0
 20 21  1  0  0  0  0
 20 24  1  0  0  0  0
 21 22  1  0  0  0  0
 22 23  1  0  0  0  0
 22 25  1  0  0  0  0
 23 24  2  0  0  0  0
  2 27  1  0  0  0  0
  3 28  1  0  0  0  0
  4 29  1  0  0  0  0
 10 30  1  0  0  0  0
 12 31  1  0  0  0  0
 12 32  1  0  0  0  0
 12 33  1  0  0  0  0
 15 34  1  0  0  0  0
 16 35  1  0  0  0  0
 18 36  1  0  0  0  0
 18 37  1  0  0  0  0
 19 38  1  0  0  0  0
 19 39  1  0  0  0  0
 21 40  1  0  0  0  0
 21 41  1  0  0  0  0
 24 42  1  0  0  0  0
 25 43  1  0  0  0  0
 25 44  1  0  0  0  0
 25 45  1  0  0  0  0
M  END
> <Name>
24

> <IC50[uM]>
0.029

$$$$
24
  -OEChem-05192314333D
 Structure written by MMmdl.
 45 48  0     1  0  0  0  0  0999 V2000
   -6.3515   12.3530  -11.9813 C   0  0  0  0  0  0  0  0  0  0  0  0
   -6.5085   11.7912  -10.7247 C   0  0  0  0  0  0  0  0  0  0  0  0
   -7.6802   10.5716  -13.0438 C   0  0  0  0  0  0  0  0  0  0  0  0
   -6.9296   11.7657  -13.1245 C   0  0  0  0  0  0  0  0  0  0  0  0
   -7.7980   10.0044  -11.7669 C   0  0  0  0  0  0  0  0  0  0  0  0
   -7.2328   10.6109  -10.5989 C   0  0  0  0  0  0  0  0  0  0  0  0
   -7.6209    9.7375   -9.5162 C   0  0  0  0  0  0  0  0  0  0  0  0
   -8.2754    8.7446   -9.9970 N   0  0  0  0  0  0  0  0  0  0  0  0
   -8.4233    8.8800  -11.3218 N   0  0  0  0  0  0  0  0  0  0  0  0
   -7.3328    9.8812   -8.0296 C   0  0  0  0  0  0  0  0  0  0  0  0
   -5.3004   14.2773  -13.1499 C   0  0  0  0  0  0  0  0  0  0  0  0
   -4.4346   15.5261  -12.8998 C   0  0  0  0  0  0  0  0  0  0  0  0
   -5.5896   13.5586  -12.0343 N   0  0  0  0  0  0  0  0  0  0  0  0
   -5.9706   10.4906   -7.7317 C   0  0  0  0  0  0  0  0  0  0  0  0
   -5.8616   11.7632   -7.1684 C   0  0  0  0  0  0  0  0  0  0  0  0
   -4.6051   12.3126   -6.9180 C   0  0  0  0  0  0  0  0  0  0  0  0
   -3.4544   11.5948   -7.2294 C   0  0  0  0  0  0  0  0  0  0  0  0
   -3.5626   10.3128   -7.8011 C   0  0  0  0  0  0  0  0  0  0  0  0
   -4.8160    9.7710   -8.0425 C   0  0  0  0  0  0  0  0  0  0  0  0
   -2.1083   12.1736   -6.9694 C   0  0  0  0  0  0  0  0  0  0  0  0
   -1.7503   13.4247   -6.4858 C   0  0  0  0  0  0  0  0  0  0  0  0
   -0.4131   13.4674   -6.4189 N   0  0  3  0  0  0  0  0  0  0  0  0
    0.1758   12.3735   -6.8057 N   0  0  0  0  0  0  0  0  0  0  0  0
   -0.8094   11.5620   -7.1791 C   0  0  0  0  0  0  0  0  0  0  0  0
    0.4060   14.5705   -5.9896 C   0  0  0  0  0  0  0  0  0  0  0  0
   -5.6528   14.0066  -14.2746 O   0  0  0  0  0  0  0  0  0  0  0  0
   -6.0747   12.2631   -9.8555 H   0  0  0  0  0  0  0  0  0  0  0  0
   -8.1361   10.1224  -13.9137 H   0  0  0  0  0  0  0  0  0  0  0  0
   -6.7956   12.2399  -14.0855 H   0  0  0  0  0  0  0  0  0  0  0  0
   -8.1067   10.5245   -7.5855 H   0  0  0  0  0  0  0  0  0  0  0  0
   -7.3763    8.8835   -7.5684 H   0  0  0  0  0  0  0  0  0  0  0  0
   -4.2429   16.0373  -13.8548 H   0  0  0  0  0  0  0  0  0  0  0  0
   -4.9638   16.2086  -12.2185 H   0  0  0  0  0  0  0  0  0  0  0  0
   -3.4785   15.2246  -12.4471 H   0  0  0  0  0  0  0  0  0  0  0  0
   -5.9851   10.0423   -6.7273 H   0  0  0  0  0  0  0  0  0  0  0  0
   -6.7526   12.3233   -6.9261 H   0  0  0  0  0  0  0  0  0  0  0  0
   -4.5246   13.2972   -6.4815 H   0  0  0  0  0  0  0  0  0  0  0  0
   -2.6730    9.7536   -8.0506 H   0  0  0  0  0  0  0  0  0  0  0  0
   -4.8993    8.7846   -8.4743 H   0  0  0  0  0  0  0  0  0  0  0  0
   -2.1167   14.2081   -7.1655 H   0  0  0  0  0  0  0  0  0  0  0  0
   -2.1807   13.5768   -5.4850 H   0  0  0  0  0  0  0  0  0  0  0  0
   -0.6614   10.5729   -7.5868 H   0  0  0  0  0  0  0  0  0  0  0  0
    1.4672   14.2904   -6.0634 H   0  0  0  0  0  0  0  0  0  0  0  0
    0.2117   15.4427   -6.6311 H   0  0  0  0  0  0  0  0  0  0  0  0
    0.1649   14.8218   -4.9462 H   0  0  0  0  0  0  0  0  0  0  0  0
  1  2  1  0  0  0  0
  1  4  1  0  0  0  0
  1 13  2  0  0  0  0
  2  6  2  0  0  0  0
  3  4  2  0  0  0  0
  3  5  1  0  0  0  0
  5  6  1  0  0  0  0
  5  9  2  0  0  0  0
  6  7  1  0  0  0  0
  7  8  2  0  0  0  0
  7 10  1  0  0  0  0
  8  9  1  0  0  0  0
 10 14  1  0  0  0  0
 11 12  1  0  0  0  0
 11 13  1  0  0  0  0
 11 26  2  0  0  0  0
 14 15  1  0  0  0  0
 14 19  1  0  0  0  0
 15 16  2  0  0  0  0
 16 17  1  0  0  0  0
 17 18  1  0  0  0  0
 17 20  2  0  0  0  0
 18 19  2  0  0  0  0
 20 21  1  0  0  0  0
 20 24  1  0  0  0  0
 21 22  1  0  0  0  0
 22 23  1  0  0  0  0
 22 25  1  0  0  0  0
 23 24  2  0  0  0  0
  2 27  1  0  0  0  0
  3 28  1  0  0  0  0
  4 29  1  0  0  0  0
 10 30  1  0  0  0  0
 10 31  1  0  0  0  0
 12 32  1  0  0  0  0
 12 33  1  0  0  0  0
 12 34  1  0  0  0  0
 14 35  1  0  0  0  0
 15 36  1  0  0  0  0
 16 37  1  0  0  0  0
 18 38  1  0  0  0  0
 19 39  1  0  0  0  0
 21 40  1  0  0  0  0
 21 41  1  0  0  0  0
 24 42  1  0  0  0  0
 25 43  1  0  0  0  0
 25 44  1  0  0  0  0
 25 45  1  0  0  0  0
M  END
> <Name>
24

> <IC50[uM]>
0.029

$$$$
24
  -OEChem-05192314333D
 Structure written by MMmdl.
 45 48  0     1  0  0  0  0  0999 V2000
   -6.3515   12.3530  -11.9813 C   0  0  0  0  0  0  0  0  0  0  0  0
   -6.5085   11.7912  -10.7247 C   0  0  0  0  0  0  0  0  0  0  0  0
   -7.6802   10.5716  -13.0438 C   0  0  0  0  0  0  0  0  0  0  0  0
   -6.9296   11.7657  -13.1245 C   0  0  0  0  0  0  0  0  0  0  0  0
   -7.7980   10.0044  -11.7669 C   0  0  0  0  0  0  0  0  0  0  0  0
   -7.2328   10.6109  -10.5989 C   0  0  0  0  0  0  0  0  0  0  0  0
   -7.6209    9.7375   -9.5162 C   0  0  0  0  0  0  0  0  0  0  0  0
   -8.2754    8.7446   -9.9970 N   0  0  0  0  0  0  0  0  0  0  0  0
   -8.4233    8.8800  -11.3218 N   0  0  0  0  0  0  0  0  0  0  0  0
   -7.3328    9.8812   -8.0296 C   0  0  0  0  0  0  0  0  0  0  0  0
   -5.3004   14.2773  -13.1499 C   0  0  0  0  0  0  0  0  0  0  0  0
   -4.4346   15.5261  -12.8998 C   0  0  0  0  0  0  0  0  0  0  0  0
   -5.5896   13.5586  -12.0343 N   0  0  0  0  0  0  0  0  0  0  0  0
   -5.9706   10.4906   -7.7317 C   0  0  0  0  0  0  0  0  0  0  0  0
   -5.8616   11.7632   -7.1684 C   0  0  0  0  0  0  0  0  0  0  0  0
   -4.6051   12.3126   -6.9180 C   0  0  0  0  0  0  0  0  0  0  0  0
   -3.4544   11.5948   -7.2294 C   0  0  0  0  0  0  0  0  0  0  0  0
   -3.5626   10.3128   -7.8011 C   0  0  0  0  0  0  0  0  0  0  0  0
   -4.8160    9.7710   -8.0425 C   0  0  0  0  0  0  0  0  0  0  0  0
   -2.1083   12.1736   -6.9694 C   0  0  0  0  0  0  0  0  0  0  0  0
   -1.7503   13.4247   -6.4858 C   0  0  0  0  0  0  0  0  0  0  0  0
   -0.4131   13.4674   -6.4189 N   0  0  3  0  0  0  0  0  0  0  0  0
    0.1758   12.3735   -6.8057 N   0  0  0  0  0  0  0  0  0  0  0  0
   -0.8094   11.5620   -7.1791 C   0  0  0  0  0  0  0  0  0  0  0  0
    0.4060   14.5705   -5.9896 C   0  0  0  0  0  0  0  0  0  0  0  0
   -5.6528   14.0066  -14.2746 O   0  0  0  0  0  0  0  0  0  0  0  0
   -6.0747   12.2631   -9.8555 H   0  0  0  0  0  0  0  0  0  0  0  0
   -8.1361   10.1224  -13.9137 H   0  0  0  0  0  0  0  0  0  0  0  0
   -6.7956   12.2399  -14.0855 H   0  0  0  0  0  0  0  0  0  0  0  0
   -8.1067   10.5245   -7.5855 H   0  0  0  0  0  0  0  0  0  0  0  0
   -7.3763    8.8835   -7.5684 H   0  0  0  0  0  0  0  0  0  0  0  0
   -4.2429   16.0373  -13.8548 H   0  0  0  0  0  0  0  0  0  0  0  0
   -4.9638   16.2086  -12.2185 H   0  0  0  0  0  0  0  0  0  0  0  0
   -3.4785   15.2246  -12.4471 H   0  0  0  0  0  0  0  0  0  0  0  0
   -6.7526   12.3233   -6.9261 H   0  0  0  0  0  0  0  0  0  0  0  0
   -4.5531   13.2553   -7.4825 H   0  0  0  0  0  0  0  0  0  0  0  0
   -4.5624   12.5279   -5.8401 H   0  0  0  0  0  0  0  0  0  0  0  0
   -2.6730    9.7536   -8.0506 H   0  0  0  0  0  0  0  0  0  0  0  0
   -4.8993    8.7846   -8.4743 H   0  0  0  0  0  0  0  0  0  0  0  0
   -2.1167   14.2081   -7.1655 H   0  0  0  0  0  0  0  0  0  0  0  0
   -2.1807   13.5768   -5.4850 H   0  0  0  0  0  0  0  0  0  0  0  0
   -0.6614   10.5729   -7.5868 H   0  0  0  0  0  0  0  0  0  0  0  0
    1.4672   14.2904   -6.0634 H   0  0  0  0  0  0  0  0  0  0  0  0
    0.2117   15.4427   -6.6311 H   0  0  0  0  0  0  0  0  0  0  0  0
    0.1649   14.8218   -4.9462 H   0  0  0  0  0  0  0  0  0  0  0  0
  1  2  1  0  0  0  0
  1  4  1  0  0  0  0
  1 13  2  0  0  0  0
  2  6  2  0  0  0  0
  3  4  2  0  0  0  0
  3  5  1  0  0  0  0
  5  6  1  0  0  0  0
  5  9  2  0  0  0  0
  6  7  1  0  0  0  0
  7  8  2  0  0  0  0
  7 10  1  0  0  0  0
  8  9  1  0  0  0  0
 10 14  1  0  0  0  0
 11 12  1  0  0  0  0
 11 13  1  0  0  0  0
 11 26  2  0  0  0  0
 14 15  2  0  0  0  0
 14 19  1  0  0  0  0
 15 16  1  0  0  0  0
 16 17  1  0  0  0  0
 17 18  1  0  0  0  0
 17 20  2  0  0  0  0
 18 19  2  0  0  0  0
 20 21  1  0  0  0  0
 20 24  1  0  0  0  0
 21 22  1  0  0  0  0
 22 23  1  0  0  0  0
 22 25  1  0  0  0  0
 23 24  2  0  0  0  0
  2 27  1  0  0  0  0
  3 28  1  0  0  0  0
  4 29  1  0  0  0  0
 10 30  1  0  0  0  0
 10 31  1  0  0  0  0
 12 32  1  0  0  0  0
 12 33  1  0  0  0  0
 12 34  1  0  0  0  0
 15 35  1  0  0  0  0
 16 36  1  0  0  0  0
 16 37  1  0  0  0  0
 18 38  1  0  0  0  0
 19 39  1  0  0  0  0
 21 40  1  0  0  0  0
 21 41  1  0  0  0  0
 24 42  1  0  0  0  0
 25 43  1  0  0  0  0
 25 44  1  0  0  0  0
 25 45  1  0  0  0  0
M  END
> <Name>
24

> <IC50[uM]>
0.029

$$$$
24
  -OEChem-05192314333D
 Structure written by MMmdl.
 45 48  0     1  0  0  0  0  0999 V2000
   -6.3515   12.3530  -11.9813 C   0  0  0  0  0  0  0  0  0  0  0  0
   -6.5085   11.7912  -10.7247 C   0  0  0  0  0  0  0  0  0  0  0  0
   -7.6802   10.5716  -13.0438 C   0  0  0  0  0  0  0  0  0  0  0  0
   -6.9296   11.7657  -13.1245 C   0  0  0  0  0  0  0  0  0  0  0  0
   -7.7980   10.0044  -11.7669 C   0  0  3  0  0  0  0  0  0  0  0  0
   -7.2328   10.6109  -10.5989 C   0  0  0  0  0  0  0  0  0  0  0  0
   -7.6209    9.7375   -9.5162 C   0  0  0  0  0  0  0  0  0  0  0  0
   -8.2754    8.7446   -9.9970 N   0  0  0  0  0  0  0  0  0  0  0  0
   -8.4233    8.8800  -11.3218 N   0  0  0  0  0  0  0  0  0  0  0  0
   -7.3328    9.8812   -8.0296 C   0  0  0  0  0  0  0  0  0  0  0  0
   -5.3004   14.2773  -13.1499 C   0  0  0  0  0  0  0  0  0  0  0  0
   -4.4346   15.5261  -12.8998 C   0  0  0  0  0  0  0  0  0  0  0  0
   -5.5896   13.5586  -12.0343 N   0  0  0  0  0  0  0  0  0  0  0  0
   -5.9706   10.4906   -7.7317 C   0  0  0  0  0  0  0  0  0  0  0  0
   -5.8616   11.7632   -7.1684 C   0  0  0  0  0  0  0  0  0  0  0  0
   -4.6051   12.3126   -6.9180 C   0  0  0  0  0  0  0  0  0  0  0  0
   -3.4544   11.5948   -7.2294 C   0  0  0  0  0  0  0  0  0  0  0  0
   -3.5626   10.3128   -7.8011 C   0  0  0  0  0  0  0  0  0  0  0  0
   -4.8160    9.7710   -8.0425 C   0  0  0  0  0  0  0  0  0  0  0  0
   -2.1083   12.1736   -6.9694 C   0  0  0  0  0  0  0  0  0  0  0  0
   -1.7503   13.4247   -6.4858 C   0  0  0  0  0  0  0  0  0  0  0  0
   -0.4131   13.4674   -6.4189 N   0  0  3  0  0  0  0  0  0  0  0  0
    0.1758   12.3735   -6.8057 N   0  0  0  0  0  0  0  0  0  0  0  0
   -0.8094   11.5620   -7.1791 C   0  0  0  0  0  0  0  0  0  0  0  0
    0.4060   14.5705   -5.9896 C   0  0  0  0  0  0  0  0  0  0  0  0
   -5.6528   14.0066  -14.2746 O   0  0  0  0  0  0  0  0  0  0  0  0
   -6.0747   12.2631   -9.8555 H   0  0  0  0  0  0  0  0  0  0  0  0
   -8.1361   10.1224  -13.9137 H   0  0  0  0  0  0  0  0  0  0  0  0
   -6.7956   12.2399  -14.0855 H   0  0  0  0  0  0  0  0  0  0  0  0
   -6.8712    9.4340  -11.9273 H   0  0  0  0  0  0  0  0  0  0  0  0
   -8.0279    9.5798   -7.2599 H   0  0  0  0  0  0  0  0  0  0  0  0
   -4.2429   16.0373  -13.8548 H   0  0  0  0  0  0  0  0  0  0  0  0
   -4.9638   16.2086  -12.2185 H   0  0  0  0  0  0  0  0  0  0  0  0
   -3.4785   15.2246  -12.4471 H   0  0  0  0  0  0  0  0  0  0  0  0
   -5.9851   10.0423   -6.7273 H   0  0  0  0  0  0  0  0  0  0  0  0
   -6.7526   12.3233   -6.9261 H   0  0  0  0  0  0  0  0  0  0  0  0
   -4.5246   13.2972   -6.4815 H   0  0  0  0  0  0  0  0  0  0  0  0
   -2.6730    9.7536   -8.0506 H   0  0  0  0  0  0  0  0  0  0  0  0
   -4.8993    8.7846   -8.4743 H   0  0  0  0  0  0  0  0  0  0  0  0
   -2.1167   14.2081   -7.1655 H   0  0  0  0  0  0  0  0  0  0  0  0
   -2.1807   13.5768   -5.4850 H   0  0  0  0  0  0  0  0  0  0  0  0
   -0.6614   10.5729   -7.5868 H   0  0  0  0  0  0  0  0  0  0  0  0
    1.4672   14.2904   -6.0634 H   0  0  0  0  0  0  0  0  0  0  0  0
    0.2117   15.4427   -6.6311 H   0  0  0  0  0  0  0  0  0  0  0  0
    0.1649   14.8218   -4.9462 H   0  0  0  0  0  0  0  0  0  0  0  0
  1  2  1  0  0  0  0
  1  4  1  0  0  0  0
  1 13  2  0  0  0  0
  2  6  2  0  0  0  0
  3  4  2  0  0  0  0
  3  5  1  0  0  0  0
  5  6  1  0  0  0  0
  5  9  1  0  0  0  0
  6  7  1  0  0  0  0
  7  8  1  0  0  0  0
  7 10  2  3  0  0  0
  8  9  2  0  0  0  0
 10 14  1  0  0  0  0
 11 12  1  0  0  0  0
 11 13  1  0  0  0  0
 11 26  2  0  0  0  0
 14 15  1  0  0  0  0
 14 19  1  0  0  0  0
 15 16  2  0  0  0  0
 16 17  1  0  0  0  0
 17 18  1  0  0  0  0
 17 20  2  0  0  0  0
 18 19  2  0  0  0  0
 20 21  1  0  0  0  0
 20 24  1  0  0  0  0
 21 22  1  0  0  0  0
 22 23  1  0  0  0  0
 22 25  1  0  0  0  0
 23 24  2  0  0  0  0
  2 27  1  0  0  0  0
  3 28  1  0  0  0  0
  4 29  1  0  0  0  0
  5 30  1  0  0  0  0
 10 31  1  0  0  0  0
 12 32  1  0  0  0  0
 12 33  1  0  0  0  0
 12 34  1  0  0  0  0
 14 35  1  0  0  0  0
 15 36  1  0  0  0  0
 16 37  1  0  0  0  0
 18 38  1  0  0  0  0
 19 39  1  0  0  0  0
 21 40  1  0  0  0  0
 21 41  1  0  0  0  0
 24 42  1  0  0  0  0
 25 43  1  0  0  0  0
 25 44  1  0  0  0  0
 25 45  1  0  0  0  0
M  END
> <Name>
24

> <IC50[uM]>
0.029

$$$$
24
  -OEChem-05192314333D
 Structure written by MMmdl.
 45 48  0     1  0  0  0  0  0999 V2000
   -6.3515   12.3530  -11.9813 C   0  0  0  0  0  0  0  0  0  0  0  0
   -6.5085   11.7912  -10.7247 C   0  0  0  0  0  0  0  0  0  0  0  0
   -7.6802   10.5716  -13.0438 C   0  0  0  0  0  0  0  0  0  0  0  0
   -6.9296   11.7657  -13.1245 C   0  0  0  0  0  0  0  0  0  0  0  0
   -7.7980   10.0044  -11.7669 C   0  0  0  0  0  0  0  0  0  0  0  0
   -7.2328   10.6109  -10.5989 C   0  0  0  0  0  0  0  0  0  0  0  0
   -7.6209    9.7375   -9.5162 C   0  0  0  0  0  0  0  0  0  0  0  0
   -8.2754    8.7446   -9.9970 N   0  0  0  0  0  0  0  0  0  0  0  0
   -8.4233    8.8800  -11.3218 N   0  0  0  0  0  0  0  0  0  0  0  0
   -7.3328    9.8812   -8.0296 C   0  0  0  0  0  0  0  0  0  0  0  0
   -5.3004   14.2773  -13.1499 C   0  0  0  0  0  0  0  0  0  0  0  0
   -4.4346   15.5261  -12.8998 C   0  0  0  0  0  0  0  0  0  0  0  0
   -5.5896   13.5586  -12.0343 N   0  0  0  0  0  0  0  0  0  0  0  0
   -5.9706   10.4906   -7.7317 C   0  0  0  0  0  0  0  0  0  0  0  0
   -5.8616   11.7632   -7.1684 C   0  0  0  0  0  0  0  0  0  0  0  0
   -4.6051   12.3126   -6.9180 C   0  0  0  0  0  0  0  0  0  0  0  0
   -3.4544   11.5948   -7.2294 C   0  0  0  0  0  0  0  0  0  0  0  0
   -3.5626   10.3128   -7.8011 C   0  0  0  0  0  0  0  0  0  0  0  0
   -4.8160    9.7710   -8.0425 C   0  0  0  0  0  0  0  0  0  0  0  0
   -2.1083   12.1736   -6.9694 C   0  0  0  0  0  0  0  0  0  0  0  0
   -1.7503   13.4247   -6.4858 C   0  0  0  0  0  0  0  0  0  0  0  0
   -0.4131   13.4674   -6.4189 N   0  0  3  0  0  0  0  0  0  0  0  0
    0.1758   12.3735   -6.8057 N   0  0  0  0  0  0  0  0  0  0  0  0
   -0.8094   11.5620   -7.1791 C   0  0  0  0  0  0  0  0  0  0  0  0
    0.4060   14.5705   -5.9896 C   0  0  0  0  0  0  0  0  0  0  0  0
   -5.6528   14.0066  -14.2746 O   0  0  0  0  0  0  0  0  0  0  0  0
   -6.0747   12.2631   -9.8555 H   0  0  0  0  0  0  0  0  0  0  0  0
   -8.1361   10.1224  -13.9137 H   0  0  0  0  0  0  0  0  0  0  0  0
   -7.5989   12.5237  -13.5575 H   0  0  0  0  0  0  0  0  0  0  0  0
   -6.1027   11.5654  -13.8217 H   0  0  0  0  0  0  0  0  0  0  0  0
   -8.0279    9.5798   -7.2599 H   0  0  0  0  0  0  0  0  0  0  0  0
   -4.2429   16.0373  -13.8548 H   0  0  0  0  0  0  0  0  0  0  0  0
   -4.9638   16.2086  -12.2185 H   0  0  0  0  0  0  0  0  0  0  0  0
   -3.4785   15.2246  -12.4471 H   0  0  0  0  0  0  0  0  0  0  0  0
   -5.9851   10.0423   -6.7273 H   0  0  0  0  0  0  0  0  0  0  0  0
   -6.7526   12.3233   -6.9261 H   0  0  0  0  0  0  0  0  0  0  0  0
   -4.5246   13.2972   -6.4815 H   0  0  0  0  0  0  0  0  0  0  0  0
   -2.6730    9.7536   -8.0506 H   0  0  0  0  0  0  0  0  0  0  0  0
   -4.8993    8.7846   -8.4743 H   0  0  0  0  0  0  0  0  0  0  0  0
   -2.1167   14.2081   -7.1655 H   0  0  0  0  0  0  0  0  0  0  0  0
   -2.1807   13.5768   -5.4850 H   0  0  0  0  0  0  0  0  0  0  0  0
   -0.6614   10.5729   -7.5868 H   0  0  0  0  0  0  0  0  0  0  0  0
    1.4672   14.2904   -6.0634 H   0  0  0  0  0  0  0  0  0  0  0  0
    0.2117   15.4427   -6.6311 H   0  0  0  0  0  0  0  0  0  0  0  0
    0.1649   14.8218   -4.9462 H   0  0  0  0  0  0  0  0  0  0  0  0
  1  2  1  0  0  0  0
  1  4  1  0  0  0  0
  1 13  2  0  0  0  0
  2  6  2  0  0  0  0
  3  4  1  0  0  0  0
  3  5  2  0  0  0  0
  5  6  1  0  0  0  0
  5  9  1  0  0  0  0
  6  7  1  0  0  0  0
  7  8  1  0  0  0  0
  7 10  2  3  0  0  0
  8  9  2  0  0  0  0
 10 14  1  0  0  0  0
 11 12  1  0  0  0  0
 11 13  1  0  0  0  0
 11 26  2  0  0  0  0
 14 15  1  0  0  0  0
 14 19  1  0  0  0  0
 15 16  2  0  0  0  0
 16 17  1  0  0  0  0
 17 18  1  0  0  0  0
 17 20  2  0  0  0  0
 18 19  2  0  0  0  0
 20 21  1  0  0  0  0
 20 24  1  0  0  0  0
 21 22  1  0  0  0  0
 22 23  1  0  0  0  0
 22 25  1  0  0  0  0
 23 24  2  0  0  0  0
  2 27  1  0  0  0  0
  3 28  1  0  0  0  0
  4 29  1  0  0  0  0
  4 30  1  0  0  0  0
 10 31  1  0  0  0  0
 12 32  1  0  0  0  0
 12 33  1  0  0  0  0
 12 34  1  0  0  0  0
 14 35  1  0  0  0  0
 15 36  1  0  0  0  0
 16 37  1  0  0  0  0
 18 38  1  0  0  0  0
 19 39  1  0  0  0  0
 21 40  1  0  0  0  0
 21 41  1  0  0  0  0
 24 42  1  0  0  0  0
 25 43  1  0  0  0  0
 25 44  1  0  0  0  0
 25 45  1  0  0  0  0
M  END
> <Name>
24

> <IC50[uM]>
0.029

$$$$
24
  -OEChem-05192314333D
 Structure written by MMmdl.
 45 48  0     1  0  0  0  0  0999 V2000
   -6.3515   12.3530  -11.9813 C   0  0  0  0  0  0  0  0  0  0  0  0
   -6.5085   11.7912  -10.7247 C   0  0  0  0  0  0  0  0  0  0  0  0
   -7.6802   10.5716  -13.0438 C   0  0  0  0  0  0  0  0  0  0  0  0
   -6.9296   11.7657  -13.1245 C   0  0  0  0  0  0  0  0  0  0  0  0
   -7.7980   10.0044  -11.7669 C   0  0  3  0  0  0  0  0  0  0  0  0
   -7.2328   10.6109  -10.5989 C   0  0  0  0  0  0  0  0  0  0  0  0
   -7.6209    9.7375   -9.5162 C   0  0  0  0  0  0  0  0  0  0  0  0
   -8.2754    8.7446   -9.9970 N   0  0  0  0  0  0  0  0  0  0  0  0
   -8.4233    8.8800  -11.3218 N   0  0  0  0  0  0  0  0  0  0  0  0
   -7.3328    9.8812   -8.0296 C   0  0  0  0  0  0  0  0  0  0  0  0
   -5.3004   14.2773  -13.1499 C   0  0  0  0  0  0  0  0  0  0  0  0
   -4.4346   15.5261  -12.8998 C   0  0  0  0  0  0  0  0  0  0  0  0
   -5.5896   13.5586  -12.0343 N   0  0  0  0  0  0  0  0  0  0  0  0
   -5.9706   10.4906   -7.7317 C   0  0  0  0  0  0  0  0  0  0  0  0
   -5.8616   11.7632   -7.1684 C   0  0  0  0  0  0  0  0  0  0  0  0
   -4.6051   12.3126   -6.9180 C   0  0  0  0  0  0  0  0  0  0  0  0
   -3.4544   11.5948   -7.2294 C   0  0  0  0  0  0  0  0  0  0  0  0
   -3.5626   10.3128   -7.8011 C   0  0  0  0  0  0  0  0  0  0  0  0
   -4.8160    9.7710   -8.0425 C   0  0  0  0  0  0  0  0  0  0  0  0
   -2.1083   12.1736   -6.9694 C   0  0  0  0  0  0  0  0  0  0  0  0
   -1.7503   13.4247   -6.4858 C   0  0  0  0  0  0  0  0  0  0  0  0
   -0.4131   13.4674   -6.4189 N   0  0  3  0  0  0  0  0  0  0  0  0
    0.1758   12.3735   -6.8057 N   0  0  0  0  0  0  0  0  0  0  0  0
   -0.8094   11.5620   -7.1791 C   0  0  0  0  0  0  0  0  0  0  0  0
    0.4060   14.5705   -5.9896 C   0  0  0  0  0  0  0  0  0  0  0  0
   -5.6528   14.0066  -14.2746 O   0  0  0  0  0  0  0  0  0  0  0  0
   -6.0747   12.2631   -9.8555 H   0  0  0  0  0  0  0  0  0  0  0  0
   -8.1361   10.1224  -13.9137 H   0  0  0  0  0  0  0  0  0  0  0  0
   -6.7956   12.2399  -14.0855 H   0  0  0  0  0  0  0  0  0  0  0  0
   -6.8712    9.4340  -11.9273 H   0  0  0  0  0  0  0  0  0  0  0  0
   -8.0279    9.5798   -7.2599 H   0  0  0  0  0  0  0  0  0  0  0  0
   -4.2429   16.0373  -13.8548 H   0  0  0  0  0  0  0  0  0  0  0  0
   -4.9638   16.2086  -12.2185 H   0  0  0  0  0  0  0  0  0  0  0  0
   -3.4785   15.2246  -12.4471 H   0  0  0  0  0  0  0  0  0  0  0  0
   -6.7526   12.3233   -6.9261 H   0  0  0  0  0  0  0  0  0  0  0  0
   -4.5531   13.2553   -7.4825 H   0  0  0  0  0  0  0  0  0  0  0  0
   -4.5624   12.5279   -5.8401 H   0  0  0  0  0  0  0  0  0  0  0  0
   -2.6730    9.7536   -8.0506 H   0  0  0  0  0  0  0  0  0  0  0  0
   -4.8993    8.7846   -8.4743 H   0  0  0  0  0  0  0  0  0  0  0  0
   -2.1167   14.2081   -7.1655 H   0  0  0  0  0  0  0  0  0  0  0  0
   -2.1807   13.5768   -5.4850 H   0  0  0  0  0  0  0  0  0  0  0  0
   -0.6614   10.5729   -7.5868 H   0  0  0  0  0  0  0  0  0  0  0  0
    1.4672   14.2904   -6.0634 H   0  0  0  0  0  0  0  0  0  0  0  0
    0.2117   15.4427   -6.6311 H   0  0  0  0  0  0  0  0  0  0  0  0
    0.1649   14.8218   -4.9462 H   0  0  0  0  0  0  0  0  0  0  0  0
  1  2  1  0  0  0  0
  1  4  1  0  0  0  0
  1 13  2  0  0  0  0
  2  6  2  0  0  0  0
  3  4  2  0  0  0  0
  3  5  1  0  0  0  0
  5  6  1  0  0  0  0
  5  9  1  0  0  0  0
  6  7  1  0  0  0  0
  7  8  1  0  0  0  0
  7 10  2  3  0  0  0
  8  9  2  0  0  0  0
 10 14  1  0  0  0  0
 11 12  1  0  0  0  0
 11 13  1  0  0  0  0
 11 26  2  0  0  0  0
 14 15  2  0  0  0  0
 14 19  1  0  0  0  0
 15 16  1  0  0  0  0
 16 17  1  0  0  0  0
 17 18  1  0  0  0  0
 17 20  2  0  0  0  0
 18 19  2  0  0  0  0
 20 21  1  0  0  0  0
 20 24  1  0  0  0  0
 21 22  1  0  0  0  0
 22 23  1  0  0  0  0
 22 25  1  0  0  0  0
 23 24  2  0  0  0  0
  2 27  1  0  0  0  0
  3 28  1  0  0  0  0
  4 29  1  0  0  0  0
  5 30  1  0  0  0  0
 10 31  1  0  0  0  0
 12 32  1  0  0  0  0
 12 33  1  0  0  0  0
 12 34  1  0  0  0  0
 15 35  1  0  0  0  0
 16 36  1  0  0  0  0
 16 37  1  0  0  0  0
 18 38  1  0  0  0  0
 19 39  1  0  0  0  0
 21 40  1  0  0  0  0
 21 41  1  0  0  0  0
 24 42  1  0  0  0  0
 25 43  1  0  0  0  0
 25 44  1  0  0  0  0
 25 45  1  0  0  0  0
M  END
> <Name>
24

> <IC50[uM]>
0.029

$$$$
24
  -OEChem-05192314333D
 Structure written by MMmdl.
 45 48  0     1  0  0  0  0  0999 V2000
   -6.3515   12.3530  -11.9813 C   0  0  0  0  0  0  0  0  0  0  0  0
   -6.5085   11.7912  -10.7247 C   0  0  0  0  0  0  0  0  0  0  0  0
   -7.6802   10.5716  -13.0438 C   0  0  0  0  0  0  0  0  0  0  0  0
   -6.9296   11.7657  -13.1245 C   0  0  0  0  0  0  0  0  0  0  0  0
   -7.7980   10.0044  -11.7669 C   0  0  0  0  0  0  0  0  0  0  0  0
   -7.2328   10.6109  -10.5989 C   0  0  0  0  0  0  0  0  0  0  0  0
   -7.6209    9.7375   -9.5162 C   0  0  0  0  0  0  0  0  0  0  0  0
   -8.2754    8.7446   -9.9970 N   0  0  0  0  0  0  0  0  0  0  0  0
   -8.4233    8.8800  -11.3218 N   0  0  0  0  0  0  0  0  0  0  0  0
   -7.3328    9.8812   -8.0296 C   0  0  0  0  0  0  0  0  0  0  0  0
   -5.3004   14.2773  -13.1499 C   0  0  0  0  0  0  0  0  0  0  0  0
   -4.4346   15.5261  -12.8998 C   0  0  0  0  0  0  0  0  0  0  0  0
   -5.5896   13.5586  -12.0343 N   0  0  0  0  0  0  0  0  0  0  0  0
   -5.9706   10.4906   -7.7317 C   0  0  0  0  0  0  0  0  0  0  0  0
   -5.8616   11.7632   -7.1684 C   0  0  0  0  0  0  0  0  0  0  0  0
   -4.6051   12.3126   -6.9180 C   0  0  0  0  0  0  0  0  0  0  0  0
   -3.4544   11.5948   -7.2294 C   0  0  0  0  0  0  0  0  0  0  0  0
   -3.5626   10.3128   -7.8011 C   0  0  0  0  0  0  0  0  0  0  0  0
   -4.8160    9.7710   -8.0425 C   0  0  0  0  0  0  0  0  0  0  0  0
   -2.1083   12.1736   -6.9694 C   0  0  0  0  0  0  0  0  0  0  0  0
   -1.7503   13.4247   -6.4858 C   0  0  0  0  0  0  0  0  0  0  0  0
   -0.4131   13.4674   -6.4189 N   0  0  3  0  0  0  0  0  0  0  0  0
    0.1758   12.3735   -6.8057 N   0  0  0  0  0  0  0  0  0  0  0  0
   -0.8094   11.5620   -7.1791 C   0  0  0  0  0  0  0  0  0  0  0  0
    0.4060   14.5705   -5.9896 C   0  0  0  0  0  0  0  0  0  0  0  0
   -5.6528   14.0066  -14.2746 O   0  0  0  0  0  0  0  0  0  0  0  0
   -6.0747   12.2631   -9.8555 H   0  0  0  0  0  0  0  0  0  0  0  0
   -8.1361   10.1224  -13.9137 H   0  0  0  0  0  0  0  0  0  0  0  0
   -7.5989   12.5237  -13.5575 H   0  0  0  0  0  0  0  0  0  0  0  0
   -6.1027   11.5654  -13.8217 H   0  0  0  0  0  0  0  0  0  0  0  0
   -8.0279    9.5798   -7.2599 H   0  0  0  0  0  0  0  0  0  0  0  0
   -4.2429   16.0373  -13.8548 H   0  0  0  0  0  0  0  0  0  0  0  0
   -4.9638   16.2086  -12.2185 H   0  0  0  0  0  0  0  0  0  0  0  0
   -3.4785   15.2246  -12.4471 H   0  0  0  0  0  0  0  0  0  0  0  0
   -6.7526   12.3233   -6.9261 H   0  0  0  0  0  0  0  0  0  0  0  0
   -4.5531   13.2553   -7.4825 H   0  0  0  0  0  0  0  0  0  0  0  0
   -4.5624   12.5279   -5.8401 H   0  0  0  0  0  0  0  0  0  0  0  0
   -2.6730    9.7536   -8.0506 H   0  0  0  0  0  0  0  0  0  0  0  0
   -4.8993    8.7846   -8.4743 H   0  0  0  0  0  0  0  0  0  0  0  0
   -2.1167   14.2081   -7.1655 H   0  0  0  0  0  0  0  0  0  0  0  0
   -2.1807   13.5768   -5.4850 H   0  0  0  0  0  0  0  0  0  0  0  0
   -0.6614   10.5729   -7.5868 H   0  0  0  0  0  0  0  0  0  0  0  0
    1.4672   14.2904   -6.0634 H   0  0  0  0  0  0  0  0  0  0  0  0
    0.2117   15.4427   -6.6311 H   0  0  0  0  0  0  0  0  0  0  0  0
    0.1649   14.8218   -4.9462 H   0  0  0  0  0  0  0  0  0  0  0  0
  1  2  1  0  0  0  0
  1  4  1  0  0  0  0
  1 13  2  0  0  0  0
  2  6  2  0  0  0  0
  3  4  1  0  0  0  0
  3  5  2  0  0  0  0
  5  6  1  0  0  0  0
  5  9  1  0  0  0  0
  6  7  1  0  0  0  0
  7  8  1  0  0  0  0
  7 10  2  3  0  0  0
  8  9  2  0  0  0  0
 10 14  1  0  0  0  0
 11 12  1  0  0  0  0
 11 13  1  0  0  0  0
 11 26  2  0  0  0  0
 14 15  2  0  0  0  0
 14 19  1  0  0  0  0
 15 16  1  0  0  0  0
 16 17  1  0  0  0  0
 17 18  1  0  0  0  0
 17 20  2  0  0  0  0
 18 19  2  0  0  0  0
 20 21  1  0  0  0  0
 20 24  1  0  0  0  0
 21 22  1  0  0  0  0
 22 23  1  0  0  0  0
 22 25  1  0  0  0  0
 23 24  2  0  0  0  0
  2 27  1  0  0  0  0
  3 28  1  0  0  0  0
  4 29  1  0  0  0  0
  4 30  1  0  0  0  0
 10 31  1  0  0  0  0
 12 32  1  0  0  0  0
 12 33  1  0  0  0  0
 12 34  1  0  0  0  0
 15 35  1  0  0  0  0
 16 36  1  0  0  0  0
 16 37  1  0  0  0  0
 18 38  1  0  0  0  0
 19 39  1  0  0  0  0
 21 40  1  0  0  0  0
 21 41  1  0  0  0  0
 24 42  1  0  0  0  0
 25 43  1  0  0  0  0
 25 44  1  0  0  0  0
 25 45  1  0  0  0  0
M  END
> <Name>
24

> <IC50[uM]>
0.029

$$$$
24
  -OEChem-05192314333D
 Structure written by MMmdl.
 45 48  0     1  0  0  0  0  0999 V2000
   -6.3515   12.3530  -11.9813 C   0  0  0  0  0  0  0  0  0  0  0  0
   -6.5085   11.7912  -10.7247 C   0  0  0  0  0  0  0  0  0  0  0  0
   -7.6802   10.5716  -13.0438 C   0  0  0  0  0  0  0  0  0  0  0  0
   -6.9296   11.7657  -13.1245 C   0  0  0  0  0  0  0  0  0  0  0  0
   -7.7980   10.0044  -11.7669 C   0  0  0  0  0  0  0  0  0  0  0  0
   -7.2328   10.6109  -10.5989 C   0  0  0  0  0  0  0  0  0  0  0  0
   -7.6209    9.7375   -9.5162 C   0  0  0  0  0  0  0  0  0  0  0  0
   -8.2754    8.7446   -9.9970 N   0  0  0  0  0  0  0  0  0  0  0  0
   -8.4233    8.8800  -11.3218 N   0  0  0  0  0  0  0  0  0  0  0  0
   -7.3328    9.8812   -8.0296 C   0  0  0  0  0  0  0  0  0  0  0  0
   -5.3004   14.2773  -13.1499 C   0  0  0  0  0  0  0  0  0  0  0  0
   -4.4346   15.5261  -12.8998 C   0  0  0  0  0  0  0  0  0  0  0  0
   -5.5896   13.5586  -12.0343 N   0  0  0  0  0  0  0  0  0  0  0  0
   -5.9706   10.4906   -7.7317 C   0  0  0  0  0  0  0  0  0  0  0  0
   -5.8616   11.7632   -7.1684 C   0  0  0  0  0  0  0  0  0  0  0  0
   -4.6051   12.3126   -6.9180 C   0  0  0  0  0  0  0  0  0  0  0  0
   -3.4544   11.5948   -7.2294 C   0  0  0  0  0  0  0  0  0  0  0  0
   -3.5626   10.3128   -7.8011 C   0  0  0  0  0  0  0  0  0  0  0  0
   -4.8160    9.7710   -8.0425 C   0  0  0  0  0  0  0  0  0  0  0  0
   -2.1083   12.1736   -6.9694 C   0  0  0  0  0  0  0  0  0  0  0  0
   -1.7503   13.4247   -6.4858 C   0  0  0  0  0  0  0  0  0  0  0  0
   -0.4131   13.4674   -6.4189 N   0  0  3  0  0  0  0  0  0  0  0  0
    0.1758   12.3735   -6.8057 N   0  0  0  0  0  0  0  0  0  0  0  0
   -0.8094   11.5620   -7.1791 C   0  0  0  0  0  0  0  0  0  0  0  0
    0.4060   14.5705   -5.9896 C   0  0  0  0  0  0  0  0  0  0  0  0
   -5.6528   14.0066  -14.2746 O   0  0  0  0  0  0  0  0  0  0  0  0
   -5.5002   11.5939  -10.3317 H   0  0  0  0  0  0  0  0  0  0  0  0
   -7.0066   12.5435  -10.0954 H   0  0  0  0  0  0  0  0  0  0  0  0
   -8.1361   10.1224  -13.9137 H   0  0  0  0  0  0  0  0  0  0  0  0
   -6.7956   12.2399  -14.0855 H   0  0  0  0  0  0  0  0  0  0  0  0
   -8.0279    9.5798   -7.2599 H   0  0  0  0  0  0  0  0  0  0  0  0
   -4.2429   16.0373  -13.8548 H   0  0  0  0  0  0  0  0  0  0  0  0
   -4.9638   16.2086  -12.2185 H   0  0  0  0  0  0  0  0  0  0  0  0
   -3.4785   15.2246  -12.4471 H   0  0  0  0  0  0  0  0  0  0  0  0
   -5.9851   10.0423   -6.7273 H   0  0  0  0  0  0  0  0  0  0  0  0
   -6.7526   12.3233   -6.9261 H   0  0  0  0  0  0  0  0  0  0  0  0
   -4.5246   13.2972   -6.4815 H   0  0  0  0  0  0  0  0  0  0  0  0
   -2.6730    9.7536   -8.0506 H   0  0  0  0  0  0  0  0  0  0  0  0
   -4.8993    8.7846   -8.4743 H   0  0  0  0  0  0  0  0  0  0  0  0
   -2.1167   14.2081   -7.1655 H   0  0  0  0  0  0  0  0  0  0  0  0
   -2.1807   13.5768   -5.4850 H   0  0  0  0  0  0  0  0  0  0  0  0
   -0.6614   10.5729   -7.5868 H   0  0  0  0  0  0  0  0  0  0  0  0
    1.4672   14.2904   -6.0634 H   0  0  0  0  0  0  0  0  0  0  0  0
    0.2117   15.4427   -6.6311 H   0  0  0  0  0  0  0  0  0  0  0  0
    0.1649   14.8218   -4.9462 H   0  0  0  0  0  0  0  0  0  0  0  0
  1  2  1  0  0  0  0
  1  4  1  0  0  0  0
  1 13  2  0  0  0  0
  2  6  1  0  0  0  0
  3  4  2  0  0  0  0
  3  5  1  0  0  0  0
  5  6  2  0  0  0  0
  5  9  1  0  0  0  0
  6  7  1  0  0  0  0
  7  8  1  0  0  0  0
  7 10  2  3  0  0  0
  8  9  2  0  0  0  0
 10 14  1  0  0  0  0
 11 12  1  0  0  0  0
 11 13  1  0  0  0  0
 11 26  2  0  0  0  0
 14 15  1  0  0  0  0
 14 19  1  0  0  0  0
 15 16  2  0  0  0  0
 16 17  1  0  0  0  0
 17 18  1  0  0  0  0
 17 20  2  0  0  0  0
 18 19  2  0  0  0  0
 20 21  1  0  0  0  0
 20 24  1  0  0  0  0
 21 22  1  0  0  0  0
 22 23  1  0  0  0  0
 22 25  1  0  0  0  0
 23 24  2  0  0  0  0
  2 27  1  0  0  0  0
  2 28  1  0  0  0  0
  3 29  1  0  0  0  0
  4 30  1  0  0  0  0
 10 31  1  0  0  0  0
 12 32  1  0  0  0  0
 12 33  1  0  0  0  0
 12 34  1  0  0  0  0
 14 35  1  0  0  0  0
 15 36  1  0  0  0  0
 16 37  1  0  0  0  0
 18 38  1  0  0  0  0
 19 39  1  0  0  0  0
 21 40  1  0  0  0  0
 21 41  1  0  0  0  0
 24 42  1  0  0  0  0
 25 43  1  0  0  0  0
 25 44  1  0  0  0  0
 25 45  1  0  0  0  0
M  END
> <Name>
24

> <IC50[uM]>
0.029

$$$$
24
  -OEChem-05192314333D
 Structure written by MMmdl.
 45 48  0     1  0  0  0  0  0999 V2000
   -6.3515   12.3530  -11.9813 C   0  0  0  0  0  0  0  0  0  0  0  0
   -6.5085   11.7912  -10.7247 C   0  0  0  0  0  0  0  0  0  0  0  0
   -7.6802   10.5716  -13.0438 C   0  0  0  0  0  0  0  0  0  0  0  0
   -6.9296   11.7657  -13.1245 C   0  0  0  0  0  0  0  0  0  0  0  0
   -7.7980   10.0044  -11.7669 C   0  0  0  0  0  0  0  0  0  0  0  0
   -7.2328   10.6109  -10.5989 C   0  0  0  0  0  0  0  0  0  0  0  0
   -7.6209    9.7375   -9.5162 C   0  0  0  0  0  0  0  0  0  0  0  0
   -8.2754    8.7446   -9.9970 N   0  0  0  0  0  0  0  0  0  0  0  0
   -8.4233    8.8800  -11.3218 N   0  0  0  0  0  0  0  0  0  0  0  0
   -7.3328    9.8812   -8.0296 C   0  0  0  0  0  0  0  0  0  0  0  0
   -5.3004   14.2773  -13.1499 C   0  0  0  0  0  0  0  0  0  0  0  0
   -4.4346   15.5261  -12.8998 C   0  0  0  0  0  0  0  0  0  0  0  0
   -5.5896   13.5586  -12.0343 N   0  0  0  0  0  0  0  0  0  0  0  0
   -5.9706   10.4906   -7.7317 C   0  0  0  0  0  0  0  0  0  0  0  0
   -5.8616   11.7632   -7.1684 C   0  0  0  0  0  0  0  0  0  0  0  0
   -4.6051   12.3126   -6.9180 C   0  0  0  0  0  0  0  0  0  0  0  0
   -3.4544   11.5948   -7.2294 C   0  0  0  0  0  0  0  0  0  0  0  0
   -3.5626   10.3128   -7.8011 C   0  0  0  0  0  0  0  0  0  0  0  0
   -4.8160    9.7710   -8.0425 C   0  0  0  0  0  0  0  0  0  0  0  0
   -2.1083   12.1736   -6.9694 C   0  0  0  0  0  0  0  0  0  0  0  0
   -1.7503   13.4247   -6.4858 C   0  0  0  0  0  0  0  0  0  0  0  0
   -0.4131   13.4674   -6.4189 N   0  0  3  0  0  0  0  0  0  0  0  0
    0.1758   12.3735   -6.8057 N   0  0  0  0  0  0  0  0  0  0  0  0
   -0.8094   11.5620   -7.1791 C   0  0  0  0  0  0  0  0  0  0  0  0
    0.4060   14.5705   -5.9896 C   0  0  0  0  0  0  0  0  0  0  0  0
   -5.6528   14.0066  -14.2746 O   0  0  0  0  0  0  0  0  0  0  0  0
   -5.5002   11.5939  -10.3317 H   0  0  0  0  0  0  0  0  0  0  0  0
   -7.0066   12.5435  -10.0954 H   0  0  0  0  0  0  0  0  0  0  0  0
   -8.1361   10.1224  -13.9137 H   0  0  0  0  0  0  0  0  0  0  0  0
   -6.7956   12.2399  -14.0855 H   0  0  0  0  0  0  0  0  0  0  0  0
   -8.0279    9.5798   -7.2599 H   0  0  0  0  0  0  0  0  0  0  0  0
   -4.2429   16.0373  -13.8548 H   0  0  0  0  0  0  0  0  0  0  0  0
   -4.9638   16.2086  -12.2185 H   0  0  0  0  0  0  0  0  0  0  0  0
   -3.4785   15.2246  -12.4471 H   0  0  0  0  0  0  0  0  0  0  0  0
   -6.7526   12.3233   -6.9261 H   0  0  0  0  0  0  0  0  0  0  0  0
   -4.5531   13.2553   -7.4825 H   0  0  0  0  0  0  0  0  0  0  0  0
   -4.5624   12.5279   -5.8401 H   0  0  0  0  0  0  0  0  0  0  0  0
   -2.6730    9.7536   -8.0506 H   0  0  0  0  0  0  0  0  0  0  0  0
   -4.8993    8.7846   -8.4743 H   0  0  0  0  0  0  0  0  0  0  0  0
   -2.1167   14.2081   -7.1655 H   0  0  0  0  0  0  0  0  0  0  0  0
   -2.1807   13.5768   -5.4850 H   0  0  0  0  0  0  0  0  0  0  0  0
   -0.6614   10.5729   -7.5868 H   0  0  0  0  0  0  0  0  0  0  0  0
    1.4672   14.2904   -6.0634 H   0  0  0  0  0  0  0  0  0  0  0  0
    0.2117   15.4427   -6.6311 H   0  0  0  0  0  0  0  0  0  0  0  0
    0.1649   14.8218   -4.9462 H   0  0  0  0  0  0  0  0  0  0  0  0
  1  2  1  0  0  0  0
  1  4  1  0  0  0  0
  1 13  2  0  0  0  0
  2  6  1  0  0  0  0
  3  4  2  0  0  0  0
  3  5  1  0  0  0  0
  5  6  2  0  0  0  0
  5  9  1  0  0  0  0
  6  7  1  0  0  0  0
  7  8  1  0  0  0  0
  7 10  2  3  0  0  0
  8  9  2  0  0  0  0
 10 14  1  0  0  0  0
 11 12  1  0  0  0  0
 11 13  1  0  0  0  0
 11 26  2  0  0  0  0
 14 15  2  0  0  0  0
 14 19  1  0  0  0  0
 15 16  1  0  0  0  0
 16 17  1  0  0  0  0
 17 18  1  0  0  0  0
 17 20  2  0  0  0  0
 18 19  2  0  0  0  0
 20 21  1  0  0  0  0
 20 24  1  0  0  0  0
 21 22  1  0  0  0  0
 22 23  1  0  0  0  0
 22 25  1  0  0  0  0
 23 24  2  0  0  0  0
  2 27  1  0  0  0  0
  2 28  1  0  0  0  0
  3 29  1  0  0  0  0
  4 30  1  0  0  0  0
 10 31  1  0  0  0  0
 12 32  1  0  0  0  0
 12 33  1  0  0  0  0
 12 34  1  0  0  0  0
 15 35  1  0  0  0  0
 16 36  1  0  0  0  0
 16 37  1  0  0  0  0
 18 38  1  0  0  0  0
 19 39  1  0  0  0  0
 21 40  1  0  0  0  0
 21 41  1  0  0  0  0
 24 42  1  0  0  0  0
 25 43  1  0  0  0  0
 25 44  1  0  0  0  0
 25 45  1  0  0  0  0
M  END
> <Name>
24

> <IC50[uM]>
0.029

$$$$
24
  -OEChem-05192314333D
 Structure written by MMmdl.
 45 48  0     1  0  0  0  0  0999 V2000
   -6.3515   12.3530  -11.9813 C   0  0  0  0  0  0  0  0  0  0  0  0
   -6.5085   11.7912  -10.7247 C   0  0  0  0  0  0  0  0  0  0  0  0
   -7.6802   10.5716  -13.0438 C   0  0  0  0  0  0  0  0  0  0  0  0
   -6.9296   11.7657  -13.1245 C   0  0  0  0  0  0  0  0  0  0  0  0
   -7.7980   10.0044  -11.7669 C   0  0  0  0  0  0  0  0  0  0  0  0
   -7.2328   10.6109  -10.5989 C   0  0  0  0  0  0  0  0  0  0  0  0
   -7.6209    9.7375   -9.5162 C   0  0  0  0  0  0  0  0  0  0  0  0
   -8.2754    8.7446   -9.9970 N   0  0  0  0  0  0  0  0  0  0  0  0
   -8.4233    8.8800  -11.3218 N   0  0  0  0  0  0  0  0  0  0  0  0
   -7.3328    9.8812   -8.0296 C   0  0  0  0  0  0  0  0  0  0  0  0
   -5.3004   14.2773  -13.1499 C   0  0  0  0  0  0  0  0  0  0  0  0
   -4.4346   15.5261  -12.8998 C   0  0  0  0  0  0  0  0  0  0  0  0
   -5.5896   13.5586  -12.0343 N   0  0  0  0  0  0  0  0  0  0  0  0
   -5.9706   10.4906   -7.7317 C   0  0  0  0  0  0  0  0  0  0  0  0
   -5.8616   11.7632   -7.1684 C   0  0  0  0  0  0  0  0  0  0  0  0
   -4.6051   12.3126   -6.9180 C   0  0  0  0  0  0  0  0  0  0  0  0
   -3.4544   11.5948   -7.2294 C   0  0  0  0  0  0  0  0  0  0  0  0
   -3.5626   10.3128   -7.8011 C   0  0  0  0  0  0  0  0  0  0  0  0
   -4.8160    9.7710   -8.0425 C   0  0  0  0  0  0  0  0  0  0  0  0
   -2.1083   12.1736   -6.9694 C   0  0  0  0  0  0  0  0  0  0  0  0
   -1.7503   13.4247   -6.4858 C   0  0  0  0  0  0  0  0  0  0  0  0
   -0.4131   13.4674   -6.4189 N   0  0  3  0  0  0  0  0  0  0  0  0
    0.1758   12.3735   -6.8057 N   0  0  0  0  0  0  0  0  0  0  0  0
   -0.8094   11.5620   -7.1791 C   0  0  0  0  0  0  0  0  0  0  0  0
    0.4060   14.5705   -5.9896 C   0  0  0  0  0  0  0  0  0  0  0  0
   -5.6528   14.0066  -14.2746 O   0  0  0  0  0  0  0  0  0  0  0  0
   -6.0747   12.2631   -9.8555 H   0  0  0  0  0  0  0  0  0  0  0  0
   -8.1361   10.1224  -13.9137 H   0  0  0  0  0  0  0  0  0  0  0  0
   -6.7956   12.2399  -14.0855 H   0  0  0  0  0  0  0  0  0  0  0  0
   -8.0279    9.5798   -7.2599 H   0  0  0  0  0  0  0  0  0  0  0  0
   -4.2429   16.0373  -13.8548 H   0  0  0  0  0  0  0  0  0  0  0  0
   -4.9638   16.2086  -12.2185 H   0  0  0  0  0  0  0  0  0  0  0  0
   -3.4785   15.2246  -12.4471 H   0  0  0  0  0  0  0  0  0  0  0  0
   -6.7526   12.3233   -6.9261 H   0  0  0  0  0  0  0  0  0  0  0  0
   -4.5246   13.2972   -6.4815 H   0  0  0  0  0  0  0  0  0  0  0  0
   -3.4585   11.1486   -6.2240 H   0  0  0  0  0  0  0  0  0  0  0  0
   -2.6730    9.7536   -8.0506 H   0  0  0  0  0  0  0  0  0  0  0  0
   -4.8993    8.7846   -8.4743 H   0  0  0  0  0  0  0  0  0  0  0  0
   -2.4278   14.2202   -6.2127 H   0  0  0  0  0  0  0  0  0  0  0  0
    0.7889   12.5578   -7.5739 H   0  0  0  0  0  0  0  0  0  0  0  0
   -0.7515   10.6346   -6.5905 H   0  0  0  0  0  0  0  0  0  0  0  0
   -0.6933   11.3262   -8.2472 H   0  0  0  0  0  0  0  0  0  0  0  0
    1.4668   14.2860   -6.0513 H   0  0  0  0  0  0  0  0  0  0  0  0
    0.2210   15.4389   -6.6390 H   0  0  0  0  0  0  0  0  0  0  0  0
    0.1560   14.8300   -4.9503 H   0  0  0  0  0  0  0  0  0  0  0  0
  1  2  1  0  0  0  0
  1  4  1  0  0  0  0
  1 13  2  0  0  0  0
  2  6  2  0  0  0  0
  3  4  2  0  0  0  0
  3  5  1  0  0  0  0
  5  6  1  0  0  0  0
  5  9  2  0  0  0  0
  6  7  1  0  0  0  0
  7  8  2  0  0  0  0
  7 10  1  0  0  0  0
  8  9  1  0  0  0  0
 10 14  2  0  0  0  0
 11 12  1  0  0  0  0
 11 13  1  0  0  0  0
 11 26  2  0  0  0  0
 14 15  1  0  0  0  0
 14 19  1  0  0  0  0
 15 16  2  0  0  0  0
 16 17  1  0  0  0  0
 17 18  1  0  0  0  0
 17 20  1  0  0  0  0
 18 19  2  0  0  0  0
 20 21  2  0  0  0  0
 20 24  1  0  0  0  0
 21 22  1  0  0  0  0
 22 23  1  0  0  0  0
 22 25  1  0  0  0  0
 23 24  1  0  0  0  0
  2 27  1  0  0  0  0
  3 28  1  0  0  0  0
  4 29  1  0  0  0  0
 10 30  1  0  0  0  0
 12 31  1  0  0  0  0
 12 32  1  0  0  0  0
 12 33  1  0  0  0  0
 15 34  1  0  0  0  0
 16 35  1  0  0  0  0
 17 36  1  0  0  0  0
 18 37  1  0  0  0  0
 19 38  1  0  0  0  0
 21 39  1  0  0  0  0
 23 40  1  0  0  0  0
 24 41  1  0  0  0  0
 24 42  1  0  0  0  0
 25 43  1  0  0  0  0
 25 44  1  0  0  0  0
 25 45  1  0  0  0  0
M  END
> <Name>
24

> <IC50[uM]>
0.029

$$$$
24
  -OEChem-05192314333D
 Structure written by MMmdl.
 45 48  0     1  0  0  0  0  0999 V2000
   -6.3515   12.3530  -11.9813 C   0  0  0  0  0  0  0  0  0  0  0  0
   -6.5085   11.7912  -10.7247 C   0  0  0  0  0  0  0  0  0  0  0  0
   -7.6802   10.5716  -13.0438 C   0  0  0  0  0  0  0  0  0  0  0  0
   -6.9296   11.7657  -13.1245 C   0  0  0  0  0  0  0  0  0  0  0  0
   -7.7980   10.0044  -11.7669 C   0  0  0  0  0  0  0  0  0  0  0  0
   -7.2328   10.6109  -10.5989 C   0  0  0  0  0  0  0  0  0  0  0  0
   -7.6209    9.7375   -9.5162 C   0  0  0  0  0  0  0  0  0  0  0  0
   -8.2754    8.7446   -9.9970 N   0  0  0  0  0  0  0  0  0  0  0  0
   -8.4233    8.8800  -11.3218 N   0  0  0  0  0  0  0  0  0  0  0  0
   -7.3328    9.8812   -8.0296 C   0  0  0  0  0  0  0  0  0  0  0  0
   -5.3004   14.2773  -13.1499 C   0  0  0  0  0  0  0  0  0  0  0  0
   -4.4346   15.5261  -12.8998 C   0  0  0  0  0  0  0  0  0  0  0  0
   -5.5896   13.5586  -12.0343 N   0  0  0  0  0  0  0  0  0  0  0  0
   -5.9706   10.4906   -7.7317 C   0  0  0  0  0  0  0  0  0  0  0  0
   -5.8616   11.7632   -7.1684 C   0  0  0  0  0  0  0  0  0  0  0  0
   -4.6051   12.3126   -6.9180 C   0  0  0  0  0  0  0  0  0  0  0  0
   -3.4544   11.5948   -7.2294 C   0  0  0  0  0  0  0  0  0  0  0  0
   -3.5626   10.3128   -7.8011 C   0  0  0  0  0  0  0  0  0  0  0  0
   -4.8160    9.7710   -8.0425 C   0  0  0  0  0  0  0  0  0  0  0  0
   -2.1083   12.1736   -6.9694 C   0  0  0  0  0  0  0  0  0  0  0  0
   -1.7503   13.4247   -6.4858 C   0  0  0  0  0  0  0  0  0  0  0  0
   -0.4131   13.4674   -6.4189 N   0  0  3  0  0  0  0  0  0  0  0  0
    0.1758   12.3735   -6.8057 N   0  0  0  0  0  0  0  0  0  0  0  0
   -0.8094   11.5620   -7.1791 C   0  0  0  0  0  0  0  0  0  0  0  0
    0.4060   14.5705   -5.9896 C   0  0  0  0  0  0  0  0  0  0  0  0
   -5.6528   14.0066  -14.2746 O   0  0  0  0  0  0  0  0  0  0  0  0
   -6.0747   12.2631   -9.8555 H   0  0  0  0  0  0  0  0  0  0  0  0
   -8.1361   10.1224  -13.9137 H   0  0  0  0  0  0  0  0  0  0  0  0
   -6.7956   12.2399  -14.0855 H   0  0  0  0  0  0  0  0  0  0  0  0
   -8.0279    9.5798   -7.2599 H   0  0  0  0  0  0  0  0  0  0  0  0
   -4.2429   16.0373  -13.8548 H   0  0  0  0  0  0  0  0  0  0  0  0
   -4.9638   16.2086  -12.2185 H   0  0  0  0  0  0  0  0  0  0  0  0
   -3.4785   15.2246  -12.4471 H   0  0  0  0  0  0  0  0  0  0  0  0
   -6.7526   12.3233   -6.9261 H   0  0  0  0  0  0  0  0  0  0  0  0
   -4.5246   13.2972   -6.4815 H   0  0  0  0  0  0  0  0  0  0  0  0
   -2.6730    9.7536   -8.0506 H   0  0  0  0  0  0  0  0  0  0  0  0
   -4.8679    8.8310   -7.4736 H   0  0  0  0  0  0  0  0  0  0  0  0
   -4.8621    9.5509   -9.1193 H   0  0  0  0  0  0  0  0  0  0  0  0
   -2.4278   14.2202   -6.2127 H   0  0  0  0  0  0  0  0  0  0  0  0
    0.7889   12.5578   -7.5739 H   0  0  0  0  0  0  0  0  0  0  0  0
   -0.7515   10.6346   -6.5905 H   0  0  0  0  0  0  0  0  0  0  0  0
   -0.6933   11.3262   -8.2472 H   0  0  0  0  0  0  0  0  0  0  0  0
    1.4668   14.2860   -6.0513 H   0  0  0  0  0  0  0  0  0  0  0  0
    0.2210   15.4389   -6.6390 H   0  0  0  0  0  0  0  0  0  0  0  0
    0.1560   14.8300   -4.9503 H   0  0  0  0  0  0  0  0  0  0  0  0
  1  2  1  0  0  0  0
  1  4  1  0  0  0  0
  1 13  2  0  0  0  0
  2  6  2  0  0  0  0
  3  4  2  0  0  0  0
  3  5  1  0  0  0  0
  5  6  1  0  0  0  0
  5  9  2  0  0  0  0
  6  7  1  0  0  0  0
  7  8  2  0  0  0  0
  7 10  1  0  0  0  0
  8  9  1  0  0  0  0
 10 14  2  3  0  0  0
 11 12  1  0  0  0  0
 11 13  1  0  0  0  0
 11 26  2  0  0  0  0
 14 15  1  0  0  0  0
 14 19  1  0  0  0  0
 15 16  2  0  0  0  0
 16 17  1  0  0  0  0
 17 18  2  0  0  0  0
 17 20  1  0  0  0  0
 18 19  1  0  0  0  0
 20 21  2  0  0  0  0
 20 24  1  0  0  0  0
 21 22  1  0  0  0  0
 22 23  1  0  0  0  0
 22 25  1  0  0  0  0
 23 24  1  0  0  0  0
  2 27  1  0  0  0  0
  3 28  1  0  0  0  0
  4 29  1  0  0  0  0
 10 30  1  0  0  0  0
 12 31  1  0  0  0  0
 12 32  1  0  0  0  0
 12 33  1  0  0  0  0
 15 34  1  0  0  0  0
 16 35  1  0  0  0  0
 18 36  1  0  0  0  0
 19 37  1  0  0  0  0
 19 38  1  0  0  0  0
 21 39  1  0  0  0  0
 23 40  1  0  0  0  0
 24 41  1  0  0  0  0
 24 42  1  0  0  0  0
 25 43  1  0  0  0  0
 25 44  1  0  0  0  0
 25 45  1  0  0  0  0
M  END
> <Name>
24

> <IC50[uM]>
0.029

$$$$
24
  -OEChem-05192314333D
 Structure written by MMmdl.
 45 48  0     1  0  0  0  0  0999 V2000
   -6.3515   12.3530  -11.9813 C   0  0  0  0  0  0  0  0  0  0  0  0
   -6.5085   11.7912  -10.7247 C   0  0  0  0  0  0  0  0  0  0  0  0
   -7.6802   10.5716  -13.0438 C   0  0  0  0  0  0  0  0  0  0  0  0
   -6.9296   11.7657  -13.1245 C   0  0  0  0  0  0  0  0  0  0  0  0
   -7.7980   10.0044  -11.7669 C   0  0  0  0  0  0  0  0  0  0  0  0
   -7.2328   10.6109  -10.5989 C   0  0  0  0  0  0  0  0  0  0  0  0
   -7.6209    9.7375   -9.5162 C   0  0  0  0  0  0  0  0  0  0  0  0
   -8.2754    8.7446   -9.9970 N   0  0  0  0  0  0  0  0  0  0  0  0
   -8.4233    8.8800  -11.3218 N   0  0  0  0  0  0  0  0  0  0  0  0
   -7.3328    9.8812   -8.0296 C   0  0  0  0  0  0  0  0  0  0  0  0
   -5.3004   14.2773  -13.1499 C   0  0  0  0  0  0  0  0  0  0  0  0
   -4.4346   15.5261  -12.8998 C   0  0  0  0  0  0  0  0  0  0  0  0
   -5.5896   13.5586  -12.0343 N   0  0  0  0  0  0  0  0  0  0  0  0
   -5.9706   10.4906   -7.7317 C   0  0  0  0  0  0  0  0  0  0  0  0
   -5.8616   11.7632   -7.1684 C   0  0  0  0  0  0  0  0  0  0  0  0
   -4.6051   12.3126   -6.9180 C   0  0  0  0  0  0  0  0  0  0  0  0
   -3.4544   11.5948   -7.2294 C   0  0  0  0  0  0  0  0  0  0  0  0
   -3.5626   10.3128   -7.8011 C   0  0  0  0  0  0  0  0  0  0  0  0
   -4.8160    9.7710   -8.0425 C   0  0  0  0  0  0  0  0  0  0  0  0
   -2.1083   12.1736   -6.9694 C   0  0  0  0  0  0  0  0  0  0  0  0
   -1.7503   13.4247   -6.4858 C   0  0  0  0  0  0  0  0  0  0  0  0
   -0.4131   13.4674   -6.4189 N   0  0  3  0  0  0  0  0  0  0  0  0
    0.1758   12.3735   -6.8057 N   0  0  0  0  0  0  0  0  0  0  0  0
   -0.8094   11.5620   -7.1791 C   0  0  0  0  0  0  0  0  0  0  0  0
    0.4060   14.5705   -5.9896 C   0  0  0  0  0  0  0  0  0  0  0  0
   -5.6528   14.0066  -14.2746 O   0  0  0  0  0  0  0  0  0  0  0  0
   -6.0747   12.2631   -9.8555 H   0  0  0  0  0  0  0  0  0  0  0  0
   -8.1361   10.1224  -13.9137 H   0  0  0  0  0  0  0  0  0  0  0  0
   -6.7956   12.2399  -14.0855 H   0  0  0  0  0  0  0  0  0  0  0  0
   -8.0279    9.5798   -7.2599 H   0  0  0  0  0  0  0  0  0  0  0  0
   -4.2429   16.0373  -13.8548 H   0  0  0  0  0  0  0  0  0  0  0  0
   -4.9638   16.2086  -12.2185 H   0  0  0  0  0  0  0  0  0  0  0  0
   -3.4785   15.2246  -12.4471 H   0  0  0  0  0  0  0  0  0  0  0  0
   -6.7526   12.3233   -6.9261 H   0  0  0  0  0  0  0  0  0  0  0  0
   -4.5246   13.2972   -6.4815 H   0  0  0  0  0  0  0  0  0  0  0  0
   -3.4585   11.1486   -6.2240 H   0  0  0  0  0  0  0  0  0  0  0  0
   -2.6730    9.7536   -8.0506 H   0  0  0  0  0  0  0  0  0  0  0  0
   -4.8993    8.7846   -8.4743 H   0  0  0  0  0  0  0  0  0  0  0  0
   -2.1167   14.2081   -7.1655 H   0  0  0  0  0  0  0  0  0  0  0  0
   -2.1807   13.5768   -5.4850 H   0  0  0  0  0  0  0  0  0  0  0  0
    0.7889   12.5578   -7.5739 H   0  0  0  0  0  0  0  0  0  0  0  0
   -0.6614   10.5729   -7.5868 H   0  0  0  0  0  0  0  0  0  0  0  0
    1.4668   14.2860   -6.0513 H   0  0  0  0  0  0  0  0  0  0  0  0
    0.2210   15.4389   -6.6390 H   0  0  0  0  0  0  0  0  0  0  0  0
    0.1560   14.8300   -4.9503 H   0  0  0  0  0  0  0  0  0  0  0  0
  1  2  1  0  0  0  0
  1  4  1  0  0  0  0
  1 13  2  0  0  0  0
  2  6  2  0  0  0  0
  3  4  2  0  0  0  0
  3  5  1  0  0  0  0
  5  6  1  0  0  0  0
  5  9  2  0  0  0  0
  6  7  1  0  0  0  0
  7  8  2  0  0  0  0
  7 10  1  0  0  0  0
  8  9  1  0  0  0  0
 10 14  2  0  0  0  0
 11 12  1  0  0  0  0
 11 13  1  0  0  0  0
 11 26  2  0  0  0  0
 14 15  1  0  0  0  0
 14 19  1  0  0  0  0
 15 16  2  0  0  0  0
 16 17  1  0  0  0  0
 17 18  1  0  0  0  0
 17 20  1  0  0  0  0
 18 19  2  0  0  0  0
 20 21  1  0  0  0  0
 20 24  2  0  0  0  0
 21 22  1  0  0  0  0
 22 23  1  0  0  0  0
 22 25  1  0  0  0  0
 23 24  1  0  0  0  0
  2 27  1  0  0  0  0
  3 28  1  0  0  0  0
  4 29  1  0  0  0  0
 10 30  1  0  0  0  0
 12 31  1  0  0  0  0
 12 32  1  0  0  0  0
 12 33  1  0  0  0  0
 15 34  1  0  0  0  0
 16 35  1  0  0  0  0
 17 36  1  0  0  0  0
 18 37  1  0  0  0  0
 19 38  1  0  0  0  0
 21 39  1  0  0  0  0
 21 40  1  0  0  0  0
 23 41  1  0  0  0  0
 24 42  1  0  0  0  0
 25 43  1  0  0  0  0
 25 44  1  0  0  0  0
 25 45  1  0  0  0  0
M  END
> <Name>
24

> <IC50[uM]>
0.029

$$$$
24
  -OEChem-05192314333D
 Structure written by MMmdl.
 45 48  0     1  0  0  0  0  0999 V2000
   -6.3515   12.3530  -11.9813 C   0  0  0  0  0  0  0  0  0  0  0  0
   -6.5085   11.7912  -10.7247 C   0  0  0  0  0  0  0  0  0  0  0  0
   -7.6802   10.5716  -13.0438 C   0  0  0  0  0  0  0  0  0  0  0  0
   -6.9296   11.7657  -13.1245 C   0  0  0  0  0  0  0  0  0  0  0  0
   -7.7980   10.0044  -11.7669 C   0  0  0  0  0  0  0  0  0  0  0  0
   -7.2328   10.6109  -10.5989 C   0  0  0  0  0  0  0  0  0  0  0  0
   -7.6209    9.7375   -9.5162 C   0  0  0  0  0  0  0  0  0  0  0  0
   -8.2754    8.7446   -9.9970 N   0  0  0  0  0  0  0  0  0  0  0  0
   -8.4233    8.8800  -11.3218 N   0  0  0  0  0  0  0  0  0  0  0  0
   -7.3328    9.8812   -8.0296 C   0  0  0  0  0  0  0  0  0  0  0  0
   -5.3004   14.2773  -13.1499 C   0  0  0  0  0  0  0  0  0  0  0  0
   -4.4346   15.5261  -12.8998 C   0  0  0  0  0  0  0  0  0  0  0  0
   -5.5896   13.5586  -12.0343 N   0  0  0  0  0  0  0  0  0  0  0  0
   -5.9706   10.4906   -7.7317 C   0  0  0  0  0  0  0  0  0  0  0  0
   -5.8616   11.7632   -7.1684 C   0  0  0  0  0  0  0  0  0  0  0  0
   -4.6051   12.3126   -6.9180 C   0  0  0  0  0  0  0  0  0  0  0  0
   -3.4544   11.5948   -7.2294 C   0  0  0  0  0  0  0  0  0  0  0  0
   -3.5626   10.3128   -7.8011 C   0  0  0  0  0  0  0  0  0  0  0  0
   -4.8160    9.7710   -8.0425 C   0  0  0  0  0  0  0  0  0  0  0  0
   -2.1083   12.1736   -6.9694 C   0  0  0  0  0  0  0  0  0  0  0  0
   -1.7503   13.4247   -6.4858 C   0  0  0  0  0  0  0  0  0  0  0  0
   -0.4131   13.4674   -6.4189 N   0  0  3  0  0  0  0  0  0  0  0  0
    0.1758   12.3735   -6.8057 N   0  0  0  0  0  0  0  0  0  0  0  0
   -0.8094   11.5620   -7.1791 C   0  0  0  0  0  0  0  0  0  0  0  0
    0.4060   14.5705   -5.9896 C   0  0  0  0  0  0  0  0  0  0  0  0
   -5.6528   14.0066  -14.2746 O   0  0  0  0  0  0  0  0  0  0  0  0
   -6.0747   12.2631   -9.8555 H   0  0  0  0  0  0  0  0  0  0  0  0
   -8.1361   10.1224  -13.9137 H   0  0  0  0  0  0  0  0  0  0  0  0
   -6.7956   12.2399  -14.0855 H   0  0  0  0  0  0  0  0  0  0  0  0
   -8.0279    9.5798   -7.2599 H   0  0  0  0  0  0  0  0  0  0  0  0
   -4.2429   16.0373  -13.8548 H   0  0  0  0  0  0  0  0  0  0  0  0
   -4.9638   16.2086  -12.2185 H   0  0  0  0  0  0  0  0  0  0  0  0
   -3.4785   15.2246  -12.4471 H   0  0  0  0  0  0  0  0  0  0  0  0
   -6.7526   12.3233   -6.9261 H   0  0  0  0  0  0  0  0  0  0  0  0
   -4.5246   13.2972   -6.4815 H   0  0  0  0  0  0  0  0  0  0  0  0
   -2.6730    9.7536   -8.0506 H   0  0  0  0  0  0  0  0  0  0  0  0
   -4.8679    8.8310   -7.4736 H   0  0  0  0  0  0  0  0  0  0  0  0
   -4.8621    9.5509   -9.1193 H   0  0  0  0  0  0  0  0  0  0  0  0
   -2.1167   14.2081   -7.1655 H   0  0  0  0  0  0  0  0  0  0  0  0
   -2.1807   13.5768   -5.4850 H   0  0  0  0  0  0  0  0  0  0  0  0
    0.7889   12.5578   -7.5739 H   0  0  0  0  0  0  0  0  0  0  0  0
   -0.6614   10.5729   -7.5868 H   0  0  0  0  0  0  0  0  0  0  0  0
    1.4668   14.2860   -6.0513 H   0  0  0  0  0  0  0  0  0  0  0  0
    0.2210   15.4389   -6.6390 H   0  0  0  0  0  0  0  0  0  0  0  0
    0.1560   14.8300   -4.9503 H   0  0  0  0  0  0  0  0  0  0  0  0
  1  2  1  0  0  0  0
  1  4  1  0  0  0  0
  1 13  2  0  0  0  0
  2  6  2  0  0  0  0
  3  4  2  0  0  0  0
  3  5  1  0  0  0  0
  5  6  1  0  0  0  0
  5  9  2  0  0  0  0
  6  7  1  0  0  0  0
  7  8  2  0  0  0  0
  7 10  1  0  0  0  0
  8  9  1  0  0  0  0
 10 14  2  3  0  0  0
 11 12  1  0  0  0  0
 11 13  1  0  0  0  0
 11 26  2  0  0  0  0
 14 15  1  0  0  0  0
 14 19  1  0  0  0  0
 15 16  2  0  0  0  0
 16 17  1  0  0  0  0
 17 18  2  0  0  0  0
 17 20  1  0  0  0  0
 18 19  1  0  0  0  0
 20 21  1  0  0  0  0
 20 24  2  0  0  0  0
 21 22  1  0  0  0  0
 22 23  1  0  0  0  0
 22 25  1  0  0  0  0
 23 24  1  0  0  0  0
  2 27  1  0  0  0  0
  3 28  1  0  0  0  0
  4 29  1  0  0  0  0
 10 30  1  0  0  0  0
 12 31  1  0  0  0  0
 12 32  1  0  0  0  0
 12 33  1  0  0  0  0
 15 34  1  0  0  0  0
 16 35  1  0  0  0  0
 18 36  1  0  0  0  0
 19 37  1  0  0  0  0
 19 38  1  0  0  0  0
 21 39  1  0  0  0  0
 21 40  1  0  0  0  0
 23 41  1  0  0  0  0
 24 42  1  0  0  0  0
 25 43  1  0  0  0  0
 25 44  1  0  0  0  0
 25 45  1  0  0  0  0
M  END
> <Name>
24

> <IC50[uM]>
0.029

$$$$
24
  -OEChem-05192314333D
 Structure written by MMmdl.
 45 48  0     1  0  0  0  0  0999 V2000
   -6.3515   12.3530  -11.9813 C   0  0  0  0  0  0  0  0  0  0  0  0
   -6.5085   11.7912  -10.7247 C   0  0  0  0  0  0  0  0  0  0  0  0
   -7.6802   10.5716  -13.0438 C   0  0  0  0  0  0  0  0  0  0  0  0
   -6.9296   11.7657  -13.1245 C   0  0  0  0  0  0  0  0  0  0  0  0
   -7.7980   10.0044  -11.7669 C   0  0  0  0  0  0  0  0  0  0  0  0
   -7.2328   10.6109  -10.5989 C   0  0  0  0  0  0  0  0  0  0  0  0
   -7.6209    9.7375   -9.5162 C   0  0  0  0  0  0  0  0  0  0  0  0
   -8.2754    8.7446   -9.9970 N   0  0  0  0  0  0  0  0  0  0  0  0
   -8.4233    8.8800  -11.3218 N   0  0  0  0  0  0  0  0  0  0  0  0
   -7.3328    9.8812   -8.0296 C   0  0  0  0  0  0  0  0  0  0  0  0
   -5.3004   14.2773  -13.1499 C   0  0  3  0  0  0  0  0  0  0  0  0
   -4.4346   15.5261  -12.8998 C   0  0  0  0  0  0  0  0  0  0  0  0
   -5.5896   13.5586  -12.0343 N   0  0  0  0  0  0  0  0  0  0  0  0
   -5.9706   10.4906   -7.7317 C   0  0  0  0  0  0  0  0  0  0  0  0
   -5.8616   11.7632   -7.1684 C   0  0  0  0  0  0  0  0  0  0  0  0
   -4.6051   12.3126   -6.9180 C   0  0  0  0  0  0  0  0  0  0  0  0
   -3.4544   11.5948   -7.2294 C   0  0  0  0  0  0  0  0  0  0  0  0
   -3.5626   10.3128   -7.8011 C   0  0  0  0  0  0  0  0  0  0  0  0
   -4.8160    9.7710   -8.0425 C   0  0  0  0  0  0  0  0  0  0  0  0
   -2.1083   12.1736   -6.9694 C   0  0  0  0  0  0  0  0  0  0  0  0
   -1.7503   13.4247   -6.4858 C   0  0  0  0  0  0  0  0  0  0  0  0
   -0.4131   13.4674   -6.4189 N   0  0  0  0  0  0  0  0  0  0  0  0
    0.1758   12.3735   -6.8057 N   0  0  0  0  0  0  0  0  0  0  0  0
   -0.8094   11.5620   -7.1791 C   0  0  0  0  0  0  0  0  0  0  0  0
    0.4060   14.5705   -5.9896 C   0  0  0  0  0  0  0  0  0  0  0  0
   -5.6528   14.0066  -14.2746 O   0  0  0  0  0  0  0  0  0  0  0  0
   -6.0747   12.2631   -9.8555 H   0  0  0  0  0  0  0  0  0  0  0  0
   -8.1361   10.1224  -13.9137 H   0  0  0  0  0  0  0  0  0  0  0  0
   -6.7956   12.2399  -14.0855 H   0  0  0  0  0  0  0  0  0  0  0  0
   -8.0279    9.5798   -7.2599 H   0  0  0  0  0  0  0  0  0  0  0  0
   -6.2116   14.8762  -13.0044 H   0  0  0  0  0  0  0  0  0  0  0  0
   -4.2517   16.0431  -13.8534 H   0  0  0  0  0  0  0  0  0  0  0  0
   -4.9593   16.2038  -12.2102 H   0  0  0  0  0  0  0  0  0  0  0  0
   -3.4743   15.2236  -12.4567 H   0  0  0  0  0  0  0  0  0  0  0  0
   -6.0672   14.1960  -11.4297 H   0  0  0  0  0  0  0  0  0  0  0  0
   -6.7526   12.3233   -6.9261 H   0  0  0  0  0  0  0  0  0  0  0  0
   -4.5246   13.2972   -6.4815 H   0  0  0  0  0  0  0  0  0  0  0  0
   -2.6730    9.7536   -8.0506 H   0  0  0  0  0  0  0  0  0  0  0  0
   -4.8993    8.7846   -8.4743 H   0  0  0  0  0  0  0  0  0  0  0  0
   -2.4278   14.2202   -6.2127 H   0  0  0  0  0  0  0  0  0  0  0  0
   -0.6614   10.5729   -7.5868 H   0  0  0  0  0  0  0  0  0  0  0  0
    1.4672   14.2904   -6.0634 H   0  0  0  0  0  0  0  0  0  0  0  0
    0.2117   15.4427   -6.6311 H   0  0  0  0  0  0  0  0  0  0  0  0
    0.1649   14.8218   -4.9462 H   0  0  0  0  0  0  0  0  0  0  0  0
   -6.1759   13.2137  -14.2608 H   0  0  0  0  0  0  0  0  0  0  0  0
  1  2  2  0  0  0  0
  1  4  1  0  0  0  0
  1 13  1  0  0  0  0
  2  6  1  0  0  0  0
  3  4  2  0  0  0  0
  3  5  1  0  0  0  0
  5  6  2  0  0  0  0
  5  9  1  0  0  0  0
  6  7  1  0  0  0  0
  7  8  1  0  0  0  0
  7 10  2  3  0  0  0
  8  9  2  0  0  0  0
 10 14  1  0  0  0  0
 11 12  1  0  0  0  0
 11 13  1  0  0  0  0
 11 26  1  0  0  0  0
 14 15  2  0  0  0  0
 14 19  1  0  0  0  0
 15 16  1  0  0  0  0
 16 17  2  0  0  0  0
 17 18  1  0  0  0  0
 17 20  1  0  0  0  0
 18 19  2  0  0  0  0
 20 21  2  0  0  0  0
 20 24  1  0  0  0  0
 21 22  1  0  0  0  0
 22 23  1  0  0  0  0
 22 25  1  0  0  0  0
 23 24  2  0  0  0  0
  2 27  1  0  0  0  0
  3 28  1  0  0  0  0
  4 29  1  0  0  0  0
 10 30  1  0  0  0  0
 11 31  1  0  0  0  0
 12 32  1  0  0  0  0
 12 33  1  0  0  0  0
 12 34  1  0  0  0  0
 13 35  1  0  0  0  0
 15 36  1  0  0  0  0
 16 37  1  0  0  0  0
 18 38  1  0  0  0  0
 19 39  1  0  0  0  0
 21 40  1  0  0  0  0
 24 41  1  0  0  0  0
 25 42  1  0  0  0  0
 25 43  1  0  0  0  0
 25 44  1  0  0  0  0
 26 45  1  0  0  0  0
M  END
> <Name>
24

> <IC50[uM]>
0.029

$$$$
24
  -OEChem-05192314333D
 Structure written by MMmdl.
 45 48  0     1  0  0  0  0  0999 V2000
   -6.3515   12.3530  -11.9813 C   0  0  0  0  0  0  0  0  0  0  0  0
   -6.5085   11.7912  -10.7247 C   0  0  0  0  0  0  0  0  0  0  0  0
   -7.6802   10.5716  -13.0438 C   0  0  0  0  0  0  0  0  0  0  0  0
   -6.9296   11.7657  -13.1245 C   0  0  0  0  0  0  0  0  0  0  0  0
   -7.7980   10.0044  -11.7669 C   0  0  0  0  0  0  0  0  0  0  0  0
   -7.2328   10.6109  -10.5989 C   0  0  0  0  0  0  0  0  0  0  0  0
   -7.6209    9.7375   -9.5162 C   0  0  0  0  0  0  0  0  0  0  0  0
   -8.2754    8.7446   -9.9970 N   0  0  0  0  0  0  0  0  0  0  0  0
   -8.4233    8.8800  -11.3218 N   0  0  0  0  0  0  0  0  0  0  0  0
   -7.3328    9.8812   -8.0296 C   0  0  0  0  0  0  0  0  0  0  0  0
   -5.3004   14.2773  -13.1499 C   0  0  3  0  0  0  0  0  0  0  0  0
   -4.4346   15.5261  -12.8998 C   0  0  0  0  0  0  0  0  0  0  0  0
   -5.5896   13.5586  -12.0343 N   0  0  0  0  0  0  0  0  0  0  0  0
   -5.9706   10.4906   -7.7317 C   0  0  0  0  0  0  0  0  0  0  0  0
   -5.8616   11.7632   -7.1684 C   0  0  0  0  0  0  0  0  0  0  0  0
   -4.6051   12.3126   -6.9180 C   0  0  0  0  0  0  0  0  0  0  0  0
   -3.4544   11.5948   -7.2294 C   0  0  0  0  0  0  0  0  0  0  0  0
   -3.5626   10.3128   -7.8011 C   0  0  0  0  0  0  0  0  0  0  0  0
   -4.8160    9.7710   -8.0425 C   0  0  0  0  0  0  0  0  0  0  0  0
   -2.1083   12.1736   -6.9694 C   0  0  0  0  0  0  0  0  0  0  0  0
   -1.7503   13.4247   -6.4858 C   0  0  0  0  0  0  0  0  0  0  0  0
   -0.4131   13.4674   -6.4189 N   0  0  0  0  0  0  0  0  0  0  0  0
    0.1758   12.3735   -6.8057 N   0  0  0  0  0  0  0  0  0  0  0  0
   -0.8094   11.5620   -7.1791 C   0  0  0  0  0  0  0  0  0  0  0  0
    0.4060   14.5705   -5.9896 C   0  0  0  0  0  0  0  0  0  0  0  0
   -5.6528   14.0066  -14.2746 O   0  0  0  0  0  0  0  0  0  0  0  0
   -6.0747   12.2631   -9.8555 H   0  0  0  0  0  0  0  0  0  0  0  0
   -8.1361   10.1224  -13.9137 H   0  0  0  0  0  0  0  0  0  0  0  0
   -6.7956   12.2399  -14.0855 H   0  0  0  0  0  0  0  0  0  0  0  0
   -8.6258    7.9778   -9.4591 H   0  0  0  0  0  0  0  0  0  0  0  0
   -8.0279    9.5798   -7.2599 H   0  0  0  0  0  0  0  0  0  0  0  0
   -6.2116   14.8762  -13.0044 H   0  0  0  0  0  0  0  0  0  0  0  0
   -4.2517   16.0431  -13.8534 H   0  0  0  0  0  0  0  0  0  0  0  0
   -4.9593   16.2038  -12.2102 H   0  0  0  0  0  0  0  0  0  0  0  0
   -3.4743   15.2236  -12.4567 H   0  0  0  0  0  0  0  0  0  0  0  0
   -6.7526   12.3233   -6.9261 H   0  0  0  0  0  0  0  0  0  0  0  0
   -4.5246   13.2972   -6.4815 H   0  0  0  0  0  0  0  0  0  0  0  0
   -2.6730    9.7536   -8.0506 H   0  0  0  0  0  0  0  0  0  0  0  0
   -4.8993    8.7846   -8.4743 H   0  0  0  0  0  0  0  0  0  0  0  0
   -2.4278   14.2202   -6.2127 H   0  0  0  0  0  0  0  0  0  0  0  0
   -0.6614   10.5729   -7.5868 H   0  0  0  0  0  0  0  0  0  0  0  0
    1.4672   14.2904   -6.0634 H   0  0  0  0  0  0  0  0  0  0  0  0
    0.2117   15.4427   -6.6311 H   0  0  0  0  0  0  0  0  0  0  0  0
    0.1649   14.8218   -4.9462 H   0  0  0  0  0  0  0  0  0  0  0  0
   -6.1759   13.2137  -14.2608 H   0  0  0  0  0  0  0  0  0  0  0  0
  1  2  1  0  0  0  0
  1  4  1  0  0  0  0
  1 13  2  0  0  0  0
  2  6  2  0  0  0  0
  3  4  2  0  0  0  0
  3  5  1  0  0  0  0
  5  6  1  0  0  0  0
  5  9  2  0  0  0  0
  6  7  1  0  0  0  0
  7  8  1  0  0  0  0
  7 10  2  3  0  0  0
  8  9  1  0  0  0  0
 10 14  1  0  0  0  0
 11 12  1  0  0  0  0
 11 13  1  0  0  0  0
 11 26  1  0  0  0  0
 14 15  2  0  0  0  0
 14 19  1  0  0  0  0
 15 16  1  0  0  0  0
 16 17  2  0  0  0  0
 17 18  1  0  0  0  0
 17 20  1  0  0  0  0
 18 19  2  0  0  0  0
 20 21  2  0  0  0  0
 20 24  1  0  0  0  0
 21 22  1  0  0  0  0
 22 23  1  0  0  0  0
 22 25  1  0  0  0  0
 23 24  2  0  0  0  0
  2 27  1  0  0  0  0
  3 28  1  0  0  0  0
  4 29  1  0  0  0  0
  8 30  1  0  0  0  0
 10 31  1  0  0  0  0
 11 32  1  0  0  0  0
 12 33  1  0  0  0  0
 12 34  1  0  0  0  0
 12 35  1  0  0  0  0
 15 36  1  0  0  0  0
 16 37  1  0  0  0  0
 18 38  1  0  0  0  0
 19 39  1  0  0  0  0
 21 40  1  0  0  0  0
 24 41  1  0  0  0  0
 25 42  1  0  0  0  0
 25 43  1  0  0  0  0
 25 44  1  0  0  0  0
 26 45  1  0  0  0  0
M  END
> <Name>
24

> <IC50[uM]>
0.029

$$$$
24
  -OEChem-05192314333D
 Structure written by MMmdl.
 45 48  0     1  0  0  0  0  0999 V2000
   -6.3515   12.3530  -11.9813 C   0  0  0  0  0  0  0  0  0  0  0  0
   -6.5085   11.7912  -10.7247 C   0  0  0  0  0  0  0  0  0  0  0  0
   -7.6802   10.5716  -13.0438 C   0  0  0  0  0  0  0  0  0  0  0  0
   -6.9296   11.7657  -13.1245 C   0  0  0  0  0  0  0  0  0  0  0  0
   -7.7980   10.0044  -11.7669 C   0  0  0  0  0  0  0  0  0  0  0  0
   -7.2328   10.6109  -10.5989 C   0  0  0  0  0  0  0  0  0  0  0  0
   -7.6209    9.7375   -9.5162 C   0  0  0  0  0  0  0  0  0  0  0  0
   -8.2754    8.7446   -9.9970 N   0  0  0  0  0  0  0  0  0  0  0  0
   -8.4233    8.8800  -11.3218 N   0  0  0  0  0  0  0  0  0  0  0  0
   -7.3328    9.8812   -8.0296 C   0  0  0  0  0  0  0  0  0  0  0  0
   -5.3004   14.2773  -13.1499 C   0  0  3  0  0  0  0  0  0  0  0  0
   -4.4346   15.5261  -12.8998 C   0  0  0  0  0  0  0  0  0  0  0  0
   -5.5896   13.5586  -12.0343 N   0  0  0  0  0  0  0  0  0  0  0  0
   -5.9706   10.4906   -7.7317 C   0  0  0  0  0  0  0  0  0  0  0  0
   -5.8616   11.7632   -7.1684 C   0  0  0  0  0  0  0  0  0  0  0  0
   -4.6051   12.3126   -6.9180 C   0  0  0  0  0  0  0  0  0  0  0  0
   -3.4544   11.5948   -7.2294 C   0  0  0  0  0  0  0  0  0  0  0  0
   -3.5626   10.3128   -7.8011 C   0  0  0  0  0  0  0  0  0  0  0  0
   -4.8160    9.7710   -8.0425 C   0  0  0  0  0  0  0  0  0  0  0  0
   -2.1083   12.1736   -6.9694 C   0  0  0  0  0  0  0  0  0  0  0  0
   -1.7503   13.4247   -6.4858 C   0  0  0  0  0  0  0  0  0  0  0  0
   -0.4131   13.4674   -6.4189 N   0  0  0  0  0  0  0  0  0  0  0  0
    0.1758   12.3735   -6.8057 N   0  0  0  0  0  0  0  0  0  0  0  0
   -0.8094   11.5620   -7.1791 C   0  0  0  0  0  0  0  0  0  0  0  0
    0.4060   14.5705   -5.9896 C   0  0  0  0  0  0  0  0  0  0  0  0
   -5.6528   14.0066  -14.2746 O   0  0  0  0  0  0  0  0  0  0  0  0
   -6.0747   12.2631   -9.8555 H   0  0  0  0  0  0  0  0  0  0  0  0
   -8.1361   10.1224  -13.9137 H   0  0  0  0  0  0  0  0  0  0  0  0
   -6.7956   12.2399  -14.0855 H   0  0  0  0  0  0  0  0  0  0  0  0
   -8.1067   10.5245   -7.5855 H   0  0  0  0  0  0  0  0  0  0  0  0
   -7.3763    8.8835   -7.5684 H   0  0  0  0  0  0  0  0  0  0  0  0
   -6.2116   14.8762  -13.0044 H   0  0  0  0  0  0  0  0  0  0  0  0
   -4.2517   16.0431  -13.8534 H   0  0  0  0  0  0  0  0  0  0  0  0
   -4.9593   16.2038  -12.2102 H   0  0  0  0  0  0  0  0  0  0  0  0
   -3.4743   15.2236  -12.4567 H   0  0  0  0  0  0  0  0  0  0  0  0
   -6.7526   12.3233   -6.9261 H   0  0  0  0  0  0  0  0  0  0  0  0
   -4.5246   13.2972   -6.4815 H   0  0  0  0  0  0  0  0  0  0  0  0
   -2.6730    9.7536   -8.0506 H   0  0  0  0  0  0  0  0  0  0  0  0
   -4.8993    8.7846   -8.4743 H   0  0  0  0  0  0  0  0  0  0  0  0
   -2.4278   14.2202   -6.2127 H   0  0  0  0  0  0  0  0  0  0  0  0
   -0.6614   10.5729   -7.5868 H   0  0  0  0  0  0  0  0  0  0  0  0
    1.4672   14.2904   -6.0634 H   0  0  0  0  0  0  0  0  0  0  0  0
    0.2117   15.4427   -6.6311 H   0  0  0  0  0  0  0  0  0  0  0  0
    0.1649   14.8218   -4.9462 H   0  0  0  0  0  0  0  0  0  0  0  0
   -6.1759   13.2137  -14.2608 H   0  0  0  0  0  0  0  0  0  0  0  0
  1  2  1  0  0  0  0
  1  4  1  0  0  0  0
  1 13  2  0  0  0  0
  2  6  2  0  0  0  0
  3  4  2  0  0  0  0
  3  5  1  0  0  0  0
  5  6  1  0  0  0  0
  5  9  2  0  0  0  0
  6  7  1  0  0  0  0
  7  8  2  0  0  0  0
  7 10  1  0  0  0  0
  8  9  1  0  0  0  0
 10 14  1  0  0  0  0
 11 12  1  0  0  0  0
 11 13  1  0  0  0  0
 11 26  1  0  0  0  0
 14 15  2  0  0  0  0
 14 19  1  0  0  0  0
 15 16  1  0  0  0  0
 16 17  2  0  0  0  0
 17 18  1  0  0  0  0
 17 20  1  0  0  0  0
 18 19  2  0  0  0  0
 20 21  2  0  0  0  0
 20 24  1  0  0  0  0
 21 22  1  0  0  0  0
 22 23  1  0  0  0  0
 22 25  1  0  0  0  0
 23 24  2  0  0  0  0
  2 27  1  0  0  0  0
  3 28  1  0  0  0  0
  4 29  1  0  0  0  0
 10 30  1  0  0  0  0
 10 31  1  0  0  0  0
 11 32  1  0  0  0  0
 12 33  1  0  0  0  0
 12 34  1  0  0  0  0
 12 35  1  0  0  0  0
 15 36  1  0  0  0  0
 16 37  1  0  0  0  0
 18 38  1  0  0  0  0
 19 39  1  0  0  0  0
 21 40  1  0  0  0  0
 24 41  1  0  0  0  0
 25 42  1  0  0  0  0
 25 43  1  0  0  0  0
 25 44  1  0  0  0  0
 26 45  1  0  0  0  0
M  END
> <Name>
24

> <IC50[uM]>
0.029

$$$$
24
  -OEChem-05192314333D
 Structure written by MMmdl.
 45 48  0     1  0  0  0  0  0999 V2000
   -6.3515   12.3530  -11.9813 C   0  0  0  0  0  0  0  0  0  0  0  0
   -6.5085   11.7912  -10.7247 C   0  0  0  0  0  0  0  0  0  0  0  0
   -7.6802   10.5716  -13.0438 C   0  0  0  0  0  0  0  0  0  0  0  0
   -6.9296   11.7657  -13.1245 C   0  0  0  0  0  0  0  0  0  0  0  0
   -7.7980   10.0044  -11.7669 C   0  0  3  0  0  0  0  0  0  0  0  0
   -7.2328   10.6109  -10.5989 C   0  0  0  0  0  0  0  0  0  0  0  0
   -7.6209    9.7375   -9.5162 C   0  0  0  0  0  0  0  0  0  0  0  0
   -8.2754    8.7446   -9.9970 N   0  0  0  0  0  0  0  0  0  0  0  0
   -8.4233    8.8800  -11.3218 N   0  0  0  0  0  0  0  0  0  0  0  0
   -7.3328    9.8812   -8.0296 C   0  0  0  0  0  0  0  0  0  0  0  0
   -5.3004   14.2773  -13.1499 C   0  0  3  0  0  0  0  0  0  0  0  0
   -4.4346   15.5261  -12.8998 C   0  0  0  0  0  0  0  0  0  0  0  0
   -5.5896   13.5586  -12.0343 N   0  0  0  0  0  0  0  0  0  0  0  0
   -5.9706   10.4906   -7.7317 C   0  0  0  0  0  0  0  0  0  0  0  0
   -5.8616   11.7632   -7.1684 C   0  0  0  0  0  0  0  0  0  0  0  0
   -4.6051   12.3126   -6.9180 C   0  0  0  0  0  0  0  0  0  0  0  0
   -3.4544   11.5948   -7.2294 C   0  0  0  0  0  0  0  0  0  0  0  0
   -3.5626   10.3128   -7.8011 C   0  0  0  0  0  0  0  0  0  0  0  0
   -4.8160    9.7710   -8.0425 C   0  0  0  0  0  0  0  0  0  0  0  0
   -2.1083   12.1736   -6.9694 C   0  0  0  0  0  0  0  0  0  0  0  0
   -1.7503   13.4247   -6.4858 C   0  0  0  0  0  0  0  0  0  0  0  0
   -0.4131   13.4674   -6.4189 N   0  0  0  0  0  0  0  0  0  0  0  0
    0.1758   12.3735   -6.8057 N   0  0  0  0  0  0  0  0  0  0  0  0
   -0.8094   11.5620   -7.1791 C   0  0  0  0  0  0  0  0  0  0  0  0
    0.4060   14.5705   -5.9896 C   0  0  0  0  0  0  0  0  0  0  0  0
   -5.6528   14.0066  -14.2746 O   0  0  0  0  0  0  0  0  0  0  0  0
   -6.0747   12.2631   -9.8555 H   0  0  0  0  0  0  0  0  0  0  0  0
   -8.1361   10.1224  -13.9137 H   0  0  0  0  0  0  0  0  0  0  0  0
   -6.7956   12.2399  -14.0855 H   0  0  0  0  0  0  0  0  0  0  0  0
   -6.8712    9.4340  -11.9273 H   0  0  0  0  0  0  0  0  0  0  0  0
   -8.0279    9.5798   -7.2599 H   0  0  0  0  0  0  0  0  0  0  0  0
   -6.2116   14.8762  -13.0044 H   0  0  0  0  0  0  0  0  0  0  0  0
   -4.2517   16.0431  -13.8534 H   0  0  0  0  0  0  0  0  0  0  0  0
   -4.9593   16.2038  -12.2102 H   0  0  0  0  0  0  0  0  0  0  0  0
   -3.4743   15.2236  -12.4567 H   0  0  0  0  0  0  0  0  0  0  0  0
   -6.7526   12.3233   -6.9261 H   0  0  0  0  0  0  0  0  0  0  0  0
   -4.5246   13.2972   -6.4815 H   0  0  0  0  0  0  0  0  0  0  0  0
   -2.6730    9.7536   -8.0506 H   0  0  0  0  0  0  0  0  0  0  0  0
   -4.8993    8.7846   -8.4743 H   0  0  0  0  0  0  0  0  0  0  0  0
   -2.4278   14.2202   -6.2127 H   0  0  0  0  0  0  0  0  0  0  0  0
   -0.6614   10.5729   -7.5868 H   0  0  0  0  0  0  0  0  0  0  0  0
    1.4672   14.2904   -6.0634 H   0  0  0  0  0  0  0  0  0  0  0  0
    0.2117   15.4427   -6.6311 H   0  0  0  0  0  0  0  0  0  0  0  0
    0.1649   14.8218   -4.9462 H   0  0  0  0  0  0  0  0  0  0  0  0
   -6.1759   13.2137  -14.2608 H   0  0  0  0  0  0  0  0  0  0  0  0
  1  2  1  0  0  0  0
  1  4  1  0  0  0  0
  1 13  2  0  0  0  0
  2  6  2  0  0  0  0
  3  4  2  0  0  0  0
  3  5  1  0  0  0  0
  5  6  1  0  0  0  0
  5  9  1  0  0  0  0
  6  7  1  0  0  0  0
  7  8  1  0  0  0  0
  7 10  2  3  0  0  0
  8  9  2  0  0  0  0
 10 14  1  0  0  0  0
 11 12  1  0  0  0  0
 11 13  1  0  0  0  0
 11 26  1  0  0  0  0
 14 15  2  0  0  0  0
 14 19  1  0  0  0  0
 15 16  1  0  0  0  0
 16 17  2  0  0  0  0
 17 18  1  0  0  0  0
 17 20  1  0  0  0  0
 18 19  2  0  0  0  0
 20 21  2  0  0  0  0
 20 24  1  0  0  0  0
 21 22  1  0  0  0  0
 22 23  1  0  0  0  0
 22 25  1  0  0  0  0
 23 24  2  0  0  0  0
  2 27  1  0  0  0  0
  3 28  1  0  0  0  0
  4 29  1  0  0  0  0
  5 30  1  0  0  0  0
 10 31  1  0  0  0  0
 11 32  1  0  0  0  0
 12 33  1  0  0  0  0
 12 34  1  0  0  0  0
 12 35  1  0  0  0  0
 15 36  1  0  0  0  0
 16 37  1  0  0  0  0
 18 38  1  0  0  0  0
 19 39  1  0  0  0  0
 21 40  1  0  0  0  0
 24 41  1  0  0  0  0
 25 42  1  0  0  0  0
 25 43  1  0  0  0  0
 25 44  1  0  0  0  0
 26 45  1  0  0  0  0
M  END
> <Name>
24

> <IC50[uM]>
0.029

$$$$
24
  -OEChem-05192314333D
 Structure written by MMmdl.
 45 48  0     1  0  0  0  0  0999 V2000
   -6.3515   12.3530  -11.9813 C   0  0  0  0  0  0  0  0  0  0  0  0
   -6.5085   11.7912  -10.7247 C   0  0  0  0  0  0  0  0  0  0  0  0
   -7.6802   10.5716  -13.0438 C   0  0  0  0  0  0  0  0  0  0  0  0
   -6.9296   11.7657  -13.1245 C   0  0  0  0  0  0  0  0  0  0  0  0
   -7.7980   10.0044  -11.7669 C   0  0  0  0  0  0  0  0  0  0  0  0
   -7.2328   10.6109  -10.5989 C   0  0  0  0  0  0  0  0  0  0  0  0
   -7.6209    9.7375   -9.5162 C   0  0  0  0  0  0  0  0  0  0  0  0
   -8.2754    8.7446   -9.9970 N   0  0  0  0  0  0  0  0  0  0  0  0
   -8.4233    8.8800  -11.3218 N   0  0  0  0  0  0  0  0  0  0  0  0
   -7.3328    9.8812   -8.0296 C   0  0  0  0  0  0  0  0  0  0  0  0
   -5.3004   14.2773  -13.1499 C   0  0  3  0  0  0  0  0  0  0  0  0
   -4.4346   15.5261  -12.8998 C   0  0  0  0  0  0  0  0  0  0  0  0
   -5.5896   13.5586  -12.0343 N   0  0  0  0  0  0  0  0  0  0  0  0
   -5.9706   10.4906   -7.7317 C   0  0  0  0  0  0  0  0  0  0  0  0
   -5.8616   11.7632   -7.1684 C   0  0  0  0  0  0  0  0  0  0  0  0
   -4.6051   12.3126   -6.9180 C   0  0  0  0  0  0  0  0  0  0  0  0
   -3.4544   11.5948   -7.2294 C   0  0  0  0  0  0  0  0  0  0  0  0
   -3.5626   10.3128   -7.8011 C   0  0  0  0  0  0  0  0  0  0  0  0
   -4.8160    9.7710   -8.0425 C   0  0  0  0  0  0  0  0  0  0  0  0
   -2.1083   12.1736   -6.9694 C   0  0  0  0  0  0  0  0  0  0  0  0
   -1.7503   13.4247   -6.4858 C   0  0  0  0  0  0  0  0  0  0  0  0
   -0.4131   13.4674   -6.4189 N   0  0  0  0  0  0  0  0  0  0  0  0
    0.1758   12.3735   -6.8057 N   0  0  0  0  0  0  0  0  0  0  0  0
   -0.8094   11.5620   -7.1791 C   0  0  0  0  0  0  0  0  0  0  0  0
    0.4060   14.5705   -5.9896 C   0  0  0  0  0  0  0  0  0  0  0  0
   -5.6528   14.0066  -14.2746 O   0  0  0  0  0  0  0  0  0  0  0  0
   -6.0747   12.2631   -9.8555 H   0  0  0  0  0  0  0  0  0  0  0  0
   -8.1361   10.1224  -13.9137 H   0  0  0  0  0  0  0  0  0  0  0  0
   -7.5989   12.5237  -13.5575 H   0  0  0  0  0  0  0  0  0  0  0  0
   -6.1027   11.5654  -13.8217 H   0  0  0  0  0  0  0  0  0  0  0  0
   -8.0279    9.5798   -7.2599 H   0  0  0  0  0  0  0  0  0  0  0  0
   -6.2116   14.8762  -13.0044 H   0  0  0  0  0  0  0  0  0  0  0  0
   -4.2517   16.0431  -13.8534 H   0  0  0  0  0  0  0  0  0  0  0  0
   -4.9593   16.2038  -12.2102 H   0  0  0  0  0  0  0  0  0  0  0  0
   -3.4743   15.2236  -12.4567 H   0  0  0  0  0  0  0  0  0  0  0  0
   -6.7526   12.3233   -6.9261 H   0  0  0  0  0  0  0  0  0  0  0  0
   -4.5246   13.2972   -6.4815 H   0  0  0  0  0  0  0  0  0  0  0  0
   -2.6730    9.7536   -8.0506 H   0  0  0  0  0  0  0  0  0  0  0  0
   -4.8993    8.7846   -8.4743 H   0  0  0  0  0  0  0  0  0  0  0  0
   -2.4278   14.2202   -6.2127 H   0  0  0  0  0  0  0  0  0  0  0  0
   -0.6614   10.5729   -7.5868 H   0  0  0  0  0  0  0  0  0  0  0  0
    1.4672   14.2904   -6.0634 H   0  0  0  0  0  0  0  0  0  0  0  0
    0.2117   15.4427   -6.6311 H   0  0  0  0  0  0  0  0  0  0  0  0
    0.1649   14.8218   -4.9462 H   0  0  0  0  0  0  0  0  0  0  0  0
   -6.1759   13.2137  -14.2608 H   0  0  0  0  0  0  0  0  0  0  0  0
  1  2  1  0  0  0  0
  1  4  1  0  0  0  0
  1 13  2  0  0  0  0
  2  6  2  0  0  0  0
  3  4  1  0  0  0  0
  3  5  2  0  0  0  0
  5  6  1  0  0  0  0
  5  9  1  0  0  0  0
  6  7  1  0  0  0  0
  7  8  1  0  0  0  0
  7 10  2  3  0  0  0
  8  9  2  0  0  0  0
 10 14  1  0  0  0  0
 11 12  1  0  0  0  0
 11 13  1  0  0  0  0
 11 26  1  0  0  0  0
 14 15  2  0  0  0  0
 14 19  1  0  0  0  0
 15 16  1  0  0  0  0
 16 17  2  0  0  0  0
 17 18  1  0  0  0  0
 17 20  1  0  0  0  0
 18 19  2  0  0  0  0
 20 21  2  0  0  0  0
 20 24  1  0  0  0  0
 21 22  1  0  0  0  0
 22 23  1  0  0  0  0
 22 25  1  0  0  0  0
 23 24  2  0  0  0  0
  2 27  1  0  0  0  0
  3 28  1  0  0  0  0
  4 29  1  0  0  0  0
  4 30  1  0  0  0  0
 10 31  1  0  0  0  0
 11 32  1  0  0  0  0
 12 33  1  0  0  0  0
 12 34  1  0  0  0  0
 12 35  1  0  0  0  0
 15 36  1  0  0  0  0
 16 37  1  0  0  0  0
 18 38  1  0  0  0  0
 19 39  1  0  0  0  0
 21 40  1  0  0  0  0
 24 41  1  0  0  0  0
 25 42  1  0  0  0  0
 25 43  1  0  0  0  0
 25 44  1  0  0  0  0
 26 45  1  0  0  0  0
M  END
> <Name>
24

> <IC50[uM]>
0.029

$$$$
24
  -OEChem-05192314333D
 Structure written by MMmdl.
 45 48  0     1  0  0  0  0  0999 V2000
   -6.3515   12.3530  -11.9813 C   0  0  0  0  0  0  0  0  0  0  0  0
   -6.5085   11.7912  -10.7247 C   0  0  0  0  0  0  0  0  0  0  0  0
   -7.6802   10.5716  -13.0438 C   0  0  0  0  0  0  0  0  0  0  0  0
   -6.9296   11.7657  -13.1245 C   0  0  0  0  0  0  0  0  0  0  0  0
   -7.7980   10.0044  -11.7669 C   0  0  0  0  0  0  0  0  0  0  0  0
   -7.2328   10.6109  -10.5989 C   0  0  0  0  0  0  0  0  0  0  0  0
   -7.6209    9.7375   -9.5162 C   0  0  0  0  0  0  0  0  0  0  0  0
   -8.2754    8.7446   -9.9970 N   0  0  0  0  0  0  0  0  0  0  0  0
   -8.4233    8.8800  -11.3218 N   0  0  0  0  0  0  0  0  0  0  0  0
   -7.3328    9.8812   -8.0296 C   0  0  0  0  0  0  0  0  0  0  0  0
   -5.3004   14.2773  -13.1499 C   0  0  3  0  0  0  0  0  0  0  0  0
   -4.4346   15.5261  -12.8998 C   0  0  0  0  0  0  0  0  0  0  0  0
   -5.5896   13.5586  -12.0343 N   0  0  0  0  0  0  0  0  0  0  0  0
   -5.9706   10.4906   -7.7317 C   0  0  0  0  0  0  0  0  0  0  0  0
   -5.8616   11.7632   -7.1684 C   0  0  0  0  0  0  0  0  0  0  0  0
   -4.6051   12.3126   -6.9180 C   0  0  0  0  0  0  0  0  0  0  0  0
   -3.4544   11.5948   -7.2294 C   0  0  0  0  0  0  0  0  0  0  0  0
   -3.5626   10.3128   -7.8011 C   0  0  0  0  0  0  0  0  0  0  0  0
   -4.8160    9.7710   -8.0425 C   0  0  0  0  0  0  0  0  0  0  0  0
   -2.1083   12.1736   -6.9694 C   0  0  0  0  0  0  0  0  0  0  0  0
   -1.7503   13.4247   -6.4858 C   0  0  0  0  0  0  0  0  0  0  0  0
   -0.4131   13.4674   -6.4189 N   0  0  0  0  0  0  0  0  0  0  0  0
    0.1758   12.3735   -6.8057 N   0  0  0  0  0  0  0  0  0  0  0  0
   -0.8094   11.5620   -7.1791 C   0  0  0  0  0  0  0  0  0  0  0  0
    0.4060   14.5705   -5.9896 C   0  0  0  0  0  0  0  0  0  0  0  0
   -5.6528   14.0066  -14.2746 O   0  0  0  0  0  0  0  0  0  0  0  0
   -5.5002   11.5939  -10.3317 H   0  0  0  0  0  0  0  0  0  0  0  0
   -7.0066   12.5435  -10.0954 H   0  0  0  0  0  0  0  0  0  0  0  0
   -8.1361   10.1224  -13.9137 H   0  0  0  0  0  0  0  0  0  0  0  0
   -6.7956   12.2399  -14.0855 H   0  0  0  0  0  0  0  0  0  0  0  0
   -8.0279    9.5798   -7.2599 H   0  0  0  0  0  0  0  0  0  0  0  0
   -6.2116   14.8762  -13.0044 H   0  0  0  0  0  0  0  0  0  0  0  0
   -4.2517   16.0431  -13.8534 H   0  0  0  0  0  0  0  0  0  0  0  0
   -4.9593   16.2038  -12.2102 H   0  0  0  0  0  0  0  0  0  0  0  0
   -3.4743   15.2236  -12.4567 H   0  0  0  0  0  0  0  0  0  0  0  0
   -6.7526   12.3233   -6.9261 H   0  0  0  0  0  0  0  0  0  0  0  0
   -4.5246   13.2972   -6.4815 H   0  0  0  0  0  0  0  0  0  0  0  0
   -2.6730    9.7536   -8.0506 H   0  0  0  0  0  0  0  0  0  0  0  0
   -4.8993    8.7846   -8.4743 H   0  0  0  0  0  0  0  0  0  0  0  0
   -2.4278   14.2202   -6.2127 H   0  0  0  0  0  0  0  0  0  0  0  0
   -0.6614   10.5729   -7.5868 H   0  0  0  0  0  0  0  0  0  0  0  0
    1.4672   14.2904   -6.0634 H   0  0  0  0  0  0  0  0  0  0  0  0
    0.2117   15.4427   -6.6311 H   0  0  0  0  0  0  0  0  0  0  0  0
    0.1649   14.8218   -4.9462 H   0  0  0  0  0  0  0  0  0  0  0  0
   -6.1759   13.2137  -14.2608 H   0  0  0  0  0  0  0  0  0  0  0  0
  1  2  1  0  0  0  0
  1  4  1  0  0  0  0
  1 13  2  0  0  0  0
  2  6  1  0  0  0  0
  3  4  2  0  0  0  0
  3  5  1  0  0  0  0
  5  6  2  0  0  0  0
  5  9  1  0  0  0  0
  6  7  1  0  0  0  0
  7  8  1  0  0  0  0
  7 10  2  3  0  0  0
  8  9  2  0  0  0  0
 10 14  1  0  0  0  0
 11 12  1  0  0  0  0
 11 13  1  0  0  0  0
 11 26  1  0  0  0  0
 14 15  2  0  0  0  0
 14 19  1  0  0  0  0
 15 16  1  0  0  0  0
 16 17  2  0  0  0  0
 17 18  1  0  0  0  0
 17 20  1  0  0  0  0
 18 19  2  0  0  0  0
 20 21  2  0  0  0  0
 20 24  1  0  0  0  0
 21 22  1  0  0  0  0
 22 23  1  0  0  0  0
 22 25  1  0  0  0  0
 23 24  2  0  0  0  0
  2 27  1  0  0  0  0
  2 28  1  0  0  0  0
  3 29  1  0  0  0  0
  4 30  1  0  0  0  0
 10 31  1  0  0  0  0
 11 32  1  0  0  0  0
 12 33  1  0  0  0  0
 12 34  1  0  0  0  0
 12 35  1  0  0  0  0
 15 36  1  0  0  0  0
 16 37  1  0  0  0  0
 18 38  1  0  0  0  0
 19 39  1  0  0  0  0
 21 40  1  0  0  0  0
 24 41  1  0  0  0  0
 25 42  1  0  0  0  0
 25 43  1  0  0  0  0
 25 44  1  0  0  0  0
 26 45  1  0  0  0  0
M  END
> <Name>
24

> <IC50[uM]>
0.029

$$$$
24
  -OEChem-05192314333D
 Structure written by MMmdl.
 45 48  0     1  0  0  0  0  0999 V2000
   -6.3515   12.3530  -11.9813 C   0  0  0  0  0  0  0  0  0  0  0  0
   -6.5085   11.7912  -10.7247 C   0  0  0  0  0  0  0  0  0  0  0  0
   -7.6802   10.5716  -13.0438 C   0  0  0  0  0  0  0  0  0  0  0  0
   -6.9296   11.7657  -13.1245 C   0  0  0  0  0  0  0  0  0  0  0  0
   -7.7980   10.0044  -11.7669 C   0  0  0  0  0  0  0  0  0  0  0  0
   -7.2328   10.6109  -10.5989 C   0  0  0  0  0  0  0  0  0  0  0  0
   -7.6209    9.7375   -9.5162 C   0  0  0  0  0  0  0  0  0  0  0  0
   -8.2754    8.7446   -9.9970 N   0  0  0  0  0  0  0  0  0  0  0  0
   -8.4233    8.8800  -11.3218 N   0  0  0  0  0  0  0  0  0  0  0  0
   -7.3328    9.8812   -8.0296 C   0  0  0  0  0  0  0  0  0  0  0  0
   -5.3004   14.2773  -13.1499 C   0  0  3  0  0  0  0  0  0  0  0  0
   -4.4346   15.5261  -12.8998 C   0  0  0  0  0  0  0  0  0  0  0  0
   -5.5896   13.5586  -12.0343 N   0  0  0  0  0  0  0  0  0  0  0  0
   -5.9706   10.4906   -7.7317 C   0  0  0  0  0  0  0  0  0  0  0  0
   -5.8616   11.7632   -7.1684 C   0  0  0  0  0  0  0  0  0  0  0  0
   -4.6051   12.3126   -6.9180 C   0  0  0  0  0  0  0  0  0  0  0  0
   -3.4544   11.5948   -7.2294 C   0  0  0  0  0  0  0  0  0  0  0  0
   -3.5626   10.3128   -7.8011 C   0  0  0  0  0  0  0  0  0  0  0  0
   -4.8160    9.7710   -8.0425 C   0  0  0  0  0  0  0  0  0  0  0  0
   -2.1083   12.1736   -6.9694 C   0  0  0  0  0  0  0  0  0  0  0  0
   -1.7503   13.4247   -6.4858 C   0  0  0  0  0  0  0  0  0  0  0  0
   -0.4131   13.4674   -6.4189 N   0  0  3  0  0  0  0  0  0  0  0  0
    0.1758   12.3735   -6.8057 N   0  0  0  0  0  0  0  0  0  0  0  0
   -0.8094   11.5620   -7.1791 C   0  0  0  0  0  0  0  0  0  0  0  0
    0.4060   14.5705   -5.9896 C   0  0  0  0  0  0  0  0  0  0  0  0
   -5.6528   14.0066  -14.2746 O   0  0  0  0  0  0  0  0  0  0  0  0
   -6.0747   12.2631   -9.8555 H   0  0  0  0  0  0  0  0  0  0  0  0
   -8.1361   10.1224  -13.9137 H   0  0  0  0  0  0  0  0  0  0  0  0
   -6.7956   12.2399  -14.0855 H   0  0  0  0  0  0  0  0  0  0  0  0
   -8.0279    9.5798   -7.2599 H   0  0  0  0  0  0  0  0  0  0  0  0
   -6.2116   14.8762  -13.0044 H   0  0  0  0  0  0  0  0  0  0  0  0
   -4.2517   16.0431  -13.8534 H   0  0  0  0  0  0  0  0  0  0  0  0
   -4.9593   16.2038  -12.2102 H   0  0  0  0  0  0  0  0  0  0  0  0
   -3.4743   15.2236  -12.4567 H   0  0  0  0  0  0  0  0  0  0  0  0
   -6.7526   12.3233   -6.9261 H   0  0  0  0  0  0  0  0  0  0  0  0
   -4.5246   13.2972   -6.4815 H   0  0  0  0  0  0  0  0  0  0  0  0
   -2.6730    9.7536   -8.0506 H   0  0  0  0  0  0  0  0  0  0  0  0
   -4.8993    8.7846   -8.4743 H   0  0  0  0  0  0  0  0  0  0  0  0
   -2.1167   14.2081   -7.1655 H   0  0  0  0  0  0  0  0  0  0  0  0
   -2.1807   13.5768   -5.4850 H   0  0  0  0  0  0  0  0  0  0  0  0
   -0.6614   10.5729   -7.5868 H   0  0  0  0  0  0  0  0  0  0  0  0
    1.4672   14.2904   -6.0634 H   0  0  0  0  0  0  0  0  0  0  0  0
    0.2117   15.4427   -6.6311 H   0  0  0  0  0  0  0  0  0  0  0  0
    0.1649   14.8218   -4.9462 H   0  0  0  0  0  0  0  0  0  0  0  0
   -6.1759   13.2137  -14.2608 H   0  0  0  0  0  0  0  0  0  0  0  0
  1  2  1  0  0  0  0
  1  4  1  0  0  0  0
  1 13  2  0  0  0  0
  2  6  2  0  0  0  0
  3  4  2  0  0  0  0
  3  5  1  0  0  0  0
  5  6  1  0  0  0  0
  5  9  2  0  0  0  0
  6  7  1  0  0  0  0
  7  8  2  0  0  0  0
  7 10  1  0  0  0  0
  8  9  1  0  0  0  0
 10 14  2  0  0  0  0
 11 12  1  0  0  0  0
 11 13  1  0  0  0  0
 11 26  1  0  0  0  0
 14 15  1  0  0  0  0
 14 19  1  0  0  0  0
 15 16  2  0  0  0  0
 16 17  1  0  0  0  0
 17 18  1  0  0  0  0
 17 20  2  0  0  0  0
 18 19  2  0  0  0  0
 20 21  1  0  0  0  0
 20 24  1  0  0  0  0
 21 22  1  0  0  0  0
 22 23  1  0  0  0  0
 22 25  1  0  0  0  0
 23 24  2  0  0  0  0
  2 27  1  0  0  0  0
  3 28  1  0  0  0  0
  4 29  1  0  0  0  0
 10 30  1  0  0  0  0
 11 31  1  0  0  0  0
 12 32  1  0  0  0  0
 12 33  1  0  0  0  0
 12 34  1  0  0  0  0
 15 35  1  0  0  0  0
 16 36  1  0  0  0  0
 18 37  1  0  0  0  0
 19 38  1  0  0  0  0
 21 39  1  0  0  0  0
 21 40  1  0  0  0  0
 24 41  1  0  0  0  0
 25 42  1  0  0  0  0
 25 43  1  0  0  0  0
 25 44  1  0  0  0  0
 26 45  1  0  0  0  0
M  END
> <Name>
24

> <IC50[uM]>
0.029

$$$$
24
  -OEChem-05192314333D
 Structure written by MMmdl.
 45 48  0     1  0  0  0  0  0999 V2000
   -6.3515   12.3530  -11.9813 C   0  0  0  0  0  0  0  0  0  0  0  0
   -6.5085   11.7912  -10.7247 C   0  0  0  0  0  0  0  0  0  0  0  0
   -7.6802   10.5716  -13.0438 C   0  0  0  0  0  0  0  0  0  0  0  0
   -6.9296   11.7657  -13.1245 C   0  0  0  0  0  0  0  0  0  0  0  0
   -7.7980   10.0044  -11.7669 C   0  0  0  0  0  0  0  0  0  0  0  0
   -7.2328   10.6109  -10.5989 C   0  0  0  0  0  0  0  0  0  0  0  0
   -7.6209    9.7375   -9.5162 C   0  0  0  0  0  0  0  0  0  0  0  0
   -8.2754    8.7446   -9.9970 N   0  0  0  0  0  0  0  0  0  0  0  0
   -8.4233    8.8800  -11.3218 N   0  0  0  0  0  0  0  0  0  0  0  0
   -7.3328    9.8812   -8.0296 C   0  0  0  0  0  0  0  0  0  0  0  0
   -5.3004   14.2773  -13.1499 C   0  0  3  0  0  0  0  0  0  0  0  0
   -4.4346   15.5261  -12.8998 C   0  0  0  0  0  0  0  0  0  0  0  0
   -5.5896   13.5586  -12.0343 N   0  0  0  0  0  0  0  0  0  0  0  0
   -5.9706   10.4906   -7.7317 C   0  0  0  0  0  0  0  0  0  0  0  0
   -5.8616   11.7632   -7.1684 C   0  0  0  0  0  0  0  0  0  0  0  0
   -4.6051   12.3126   -6.9180 C   0  0  0  0  0  0  0  0  0  0  0  0
   -3.4544   11.5948   -7.2294 C   0  0  0  0  0  0  0  0  0  0  0  0
   -3.5626   10.3128   -7.8011 C   0  0  0  0  0  0  0  0  0  0  0  0
   -4.8160    9.7710   -8.0425 C   0  0  0  0  0  0  0  0  0  0  0  0
   -2.1083   12.1736   -6.9694 C   0  0  0  0  0  0  0  0  0  0  0  0
   -1.7503   13.4247   -6.4858 C   0  0  0  0  0  0  0  0  0  0  0  0
   -0.4131   13.4674   -6.4189 N   0  0  0  0  0  0  0  0  0  0  0  0
    0.1758   12.3735   -6.8057 N   0  0  0  0  0  0  0  0  0  0  0  0
   -0.8094   11.5620   -7.1791 C   0  0  0  0  0  0  0  0  0  0  0  0
    0.4060   14.5705   -5.9896 C   0  0  0  0  0  0  0  0  0  0  0  0
   -5.6528   14.0066  -14.2746 O   0  0  0  0  0  0  0  0  0  0  0  0
   -6.0747   12.2631   -9.8555 H   0  0  0  0  0  0  0  0  0  0  0  0
   -8.1361   10.1224  -13.9137 H   0  0  0  0  0  0  0  0  0  0  0  0
   -6.7956   12.2399  -14.0855 H   0  0  0  0  0  0  0  0  0  0  0  0
   -8.0279    9.5798   -7.2599 H   0  0  0  0  0  0  0  0  0  0  0  0
   -6.2116   14.8762  -13.0044 H   0  0  0  0  0  0  0  0  0  0  0  0
   -4.2517   16.0431  -13.8534 H   0  0  0  0  0  0  0  0  0  0  0  0
   -4.9593   16.2038  -12.2102 H   0  0  0  0  0  0  0  0  0  0  0  0
   -3.4743   15.2236  -12.4567 H   0  0  0  0  0  0  0  0  0  0  0  0
   -6.7526   12.3233   -6.9261 H   0  0  0  0  0  0  0  0  0  0  0  0
   -4.5246   13.2972   -6.4815 H   0  0  0  0  0  0  0  0  0  0  0  0
   -3.4585   11.1486   -6.2240 H   0  0  0  0  0  0  0  0  0  0  0  0
   -2.6730    9.7536   -8.0506 H   0  0  0  0  0  0  0  0  0  0  0  0
   -4.8993    8.7846   -8.4743 H   0  0  0  0  0  0  0  0  0  0  0  0
   -2.4278   14.2202   -6.2127 H   0  0  0  0  0  0  0  0  0  0  0  0
   -0.6614   10.5729   -7.5868 H   0  0  0  0  0  0  0  0  0  0  0  0
    1.4672   14.2904   -6.0634 H   0  0  0  0  0  0  0  0  0  0  0  0
    0.2117   15.4427   -6.6311 H   0  0  0  0  0  0  0  0  0  0  0  0
    0.1649   14.8218   -4.9462 H   0  0  0  0  0  0  0  0  0  0  0  0
   -6.1759   13.2137  -14.2608 H   0  0  0  0  0  0  0  0  0  0  0  0
  1  2  1  0  0  0  0
  1  4  1  0  0  0  0
  1 13  2  0  0  0  0
  2  6  2  0  0  0  0
  3  4  2  0  0  0  0
  3  5  1  0  0  0  0
  5  6  1  0  0  0  0
  5  9  2  0  0  0  0
  6  7  1  0  0  0  0
  7  8  2  0  0  0  0
  7 10  1  0  0  0  0
  8  9  1  0  0  0  0
 10 14  2  0  0  0  0
 11 12  1  0  0  0  0
 11 13  1  0  0  0  0
 11 26  1  0  0  0  0
 14 15  1  0  0  0  0
 14 19  1  0  0  0  0
 15 16  2  0  0  0  0
 16 17  1  0  0  0  0
 17 18  1  0  0  0  0
 17 20  1  0  0  0  0
 18 19  2  0  0  0  0
 20 21  2  0  0  0  0
 20 24  1  0  0  0  0
 21 22  1  0  0  0  0
 22 23  1  0  0  0  0
 22 25  1  0  0  0  0
 23 24  2  0  0  0  0
  2 27  1  0  0  0  0
  3 28  1  0  0  0  0
  4 29  1  0  0  0  0
 10 30  1  0  0  0  0
 11 31  1  0  0  0  0
 12 32  1  0  0  0  0
 12 33  1  0  0  0  0
 12 34  1  0  0  0  0
 15 35  1  0  0  0  0
 16 36  1  0  0  0  0
 17 37  1  0  0  0  0
 18 38  1  0  0  0  0
 19 39  1  0  0  0  0
 21 40  1  0  0  0  0
 24 41  1  0  0  0  0
 25 42  1  0  0  0  0
 25 43  1  0  0  0  0
 25 44  1  0  0  0  0
 26 45  1  0  0  0  0
M  END
> <Name>
24

> <IC50[uM]>
0.029

$$$$
24
  -OEChem-05192314333D
 Structure written by MMmdl.
 45 48  0     1  0  0  0  0  0999 V2000
   -6.3515   12.3530  -11.9813 C   0  0  0  0  0  0  0  0  0  0  0  0
   -6.5085   11.7912  -10.7247 C   0  0  0  0  0  0  0  0  0  0  0  0
   -7.6802   10.5716  -13.0438 C   0  0  0  0  0  0  0  0  0  0  0  0
   -6.9296   11.7657  -13.1245 C   0  0  0  0  0  0  0  0  0  0  0  0
   -7.7980   10.0044  -11.7669 C   0  0  0  0  0  0  0  0  0  0  0  0
   -7.2328   10.6109  -10.5989 C   0  0  0  0  0  0  0  0  0  0  0  0
   -7.6209    9.7375   -9.5162 C   0  0  0  0  0  0  0  0  0  0  0  0
   -8.2754    8.7446   -9.9970 N   0  0  0  0  0  0  0  0  0  0  0  0
   -8.4233    8.8800  -11.3218 N   0  0  0  0  0  0  0  0  0  0  0  0
   -7.3328    9.8812   -8.0296 C   0  0  0  0  0  0  0  0  0  0  0  0
   -5.3004   14.2773  -13.1499 C   0  0  3  0  0  0  0  0  0  0  0  0
   -4.4346   15.5261  -12.8998 C   0  0  0  0  0  0  0  0  0  0  0  0
   -5.5896   13.5586  -12.0343 N   0  0  0  0  0  0  0  0  0  0  0  0
   -5.9706   10.4906   -7.7317 C   0  0  0  0  0  0  0  0  0  0  0  0
   -5.8616   11.7632   -7.1684 C   0  0  0  0  0  0  0  0  0  0  0  0
   -4.6051   12.3126   -6.9180 C   0  0  0  0  0  0  0  0  0  0  0  0
   -3.4544   11.5948   -7.2294 C   0  0  0  0  0  0  0  0  0  0  0  0
   -3.5626   10.3128   -7.8011 C   0  0  0  0  0  0  0  0  0  0  0  0
   -4.8160    9.7710   -8.0425 C   0  0  0  0  0  0  0  0  0  0  0  0
   -2.1083   12.1736   -6.9694 C   0  0  0  0  0  0  0  0  0  0  0  0
   -1.7503   13.4247   -6.4858 C   0  0  0  0  0  0  0  0  0  0  0  0
   -0.4131   13.4674   -6.4189 N   0  0  0  0  0  0  0  0  0  0  0  0
    0.1758   12.3735   -6.8057 N   0  0  0  0  0  0  0  0  0  0  0  0
   -0.8094   11.5620   -7.1791 C   0  0  0  0  0  0  0  0  0  0  0  0
    0.4060   14.5705   -5.9896 C   0  0  0  0  0  0  0  0  0  0  0  0
   -5.6528   14.0066  -14.2746 O   0  0  0  0  0  0  0  0  0  0  0  0
   -6.0747   12.2631   -9.8555 H   0  0  0  0  0  0  0  0  0  0  0  0
   -8.1361   10.1224  -13.9137 H   0  0  0  0  0  0  0  0  0  0  0  0
   -6.7956   12.2399  -14.0855 H   0  0  0  0  0  0  0  0  0  0  0  0
   -8.0279    9.5798   -7.2599 H   0  0  0  0  0  0  0  0  0  0  0  0
   -6.2116   14.8762  -13.0044 H   0  0  0  0  0  0  0  0  0  0  0  0
   -4.2517   16.0431  -13.8534 H   0  0  0  0  0  0  0  0  0  0  0  0
   -4.9593   16.2038  -12.2102 H   0  0  0  0  0  0  0  0  0  0  0  0
   -3.4743   15.2236  -12.4567 H   0  0  0  0  0  0  0  0  0  0  0  0
   -6.7526   12.3233   -6.9261 H   0  0  0  0  0  0  0  0  0  0  0  0
   -4.5246   13.2972   -6.4815 H   0  0  0  0  0  0  0  0  0  0  0  0
   -2.6730    9.7536   -8.0506 H   0  0  0  0  0  0  0  0  0  0  0  0
   -4.8679    8.8310   -7.4736 H   0  0  0  0  0  0  0  0  0  0  0  0
   -4.8621    9.5509   -9.1193 H   0  0  0  0  0  0  0  0  0  0  0  0
   -2.4278   14.2202   -6.2127 H   0  0  0  0  0  0  0  0  0  0  0  0
   -0.6614   10.5729   -7.5868 H   0  0  0  0  0  0  0  0  0  0  0  0
    1.4672   14.2904   -6.0634 H   0  0  0  0  0  0  0  0  0  0  0  0
    0.2117   15.4427   -6.6311 H   0  0  0  0  0  0  0  0  0  0  0  0
    0.1649   14.8218   -4.9462 H   0  0  0  0  0  0  0  0  0  0  0  0
   -6.1759   13.2137  -14.2608 H   0  0  0  0  0  0  0  0  0  0  0  0
  1  2  1  0  0  0  0
  1  4  1  0  0  0  0
  1 13  2  0  0  0  0
  2  6  2  0  0  0  0
  3  4  2  0  0  0  0
  3  5  1  0  0  0  0
  5  6  1  0  0  0  0
  5  9  2  0  0  0  0
  6  7  1  0  0  0  0
  7  8  2  0  0  0  0
  7 10  1  0  0  0  0
  8  9  1  0  0  0  0
 10 14  2  3  0  0  0
 11 12  1  0  0  0  0
 11 13  1  0  0  0  0
 11 26  1  0  0  0  0
 14 15  1  0  0  0  0
 14 19  1  0  0  0  0
 15 16  2  0  0  0  0
 16 17  1  0  0  0  0
 17 18  2  0  0  0  0
 17 20  1  0  0  0  0
 18 19  1  0  0  0  0
 20 21  2  0  0  0  0
 20 24  1  0  0  0  0
 21 22  1  0  0  0  0
 22 23  1  0  0  0  0
 22 25  1  0  0  0  0
 23 24  2  0  0  0  0
  2 27  1  0  0  0  0
  3 28  1  0  0  0  0
  4 29  1  0  0  0  0
 10 30  1  0  0  0  0
 11 31  1  0  0  0  0
 12 32  1  0  0  0  0
 12 33  1  0  0  0  0
 12 34  1  0  0  0  0
 15 35  1  0  0  0  0
 16 36  1  0  0  0  0
 18 37  1  0  0  0  0
 19 38  1  0  0  0  0
 19 39  1  0  0  0  0
 21 40  1  0  0  0  0
 24 41  1  0  0  0  0
 25 42  1  0  0  0  0
 25 43  1  0  0  0  0
 25 44  1  0  0  0  0
 26 45  1  0  0  0  0
M  END
> <Name>
24

> <IC50[uM]>
0.029

$$$$
