21
  -OEChem-05192314333D
 Structure written by MMmdl.
 48 52  0     0  0  0  0  0  0999 V2000
   -6.3865   12.3338  -12.0432 C   0  0  0  0  0  0  0  0  0  0  0  0
   -6.4856   11.7841  -10.7704 C   0  0  0  0  0  0  0  0  0  0  0  0
   -7.7472   10.5643  -13.0426 C   0  0  0  0  0  0  0  0  0  0  0  0
   -7.0167   11.7500  -13.1460 C   0  0  0  0  0  0  0  0  0  0  0  0
   -7.8303   10.0081  -11.7598 C   0  0  0  0  0  0  0  0  0  0  0  0
   -7.2256   10.6149  -10.6156 C   0  0  0  0  0  0  0  0  0  0  0  0
   -7.6010    9.7518   -9.5145 C   0  0  0  0  0  0  0  0  0  0  0  0
   -8.2842    8.7423   -9.9828 N   0  0  0  0  0  0  0  0  0  0  0  0
   -8.4323    8.8733  -11.2925 N   0  0  0  0  0  0  0  0  0  0  0  0
   -7.3270    9.8938   -8.0225 C   0  0  0  0  0  0  0  0  0  0  0  0
   -5.5587   13.5285  -12.2266 C   0  0  0  0  0  0  0  0  0  0  0  0
   -5.9618   10.4909   -7.7327 C   0  0  0  0  0  0  0  0  0  0  0  0
   -5.8582   11.7635   -7.1652 C   0  0  0  0  0  0  0  0  0  0  0  0
   -4.6045   12.3140   -6.9191 C   0  0  0  0  0  0  0  0  0  0  0  0
   -3.4477   11.5945   -7.2362 C   0  0  0  0  0  0  0  0  0  0  0  0
   -3.5614   10.3184   -7.7958 C   0  0  0  0  0  0  0  0  0  0  0  0
   -4.8112    9.7685   -8.0438 C   0  0  0  0  0  0  0  0  0  0  0  0
   -2.1002   12.1716   -6.9783 C   0  0  0  0  0  0  0  0  0  0  0  0
   -1.7494   13.4275   -6.4902 C   0  0  0  0  0  0  0  0  0  0  0  0
   -0.4141   13.4605   -6.4332 N   0  0  0  0  0  0  0  0  0  0  0  0
    0.1744   12.3664   -6.8143 N   0  0  0  0  0  0  0  0  0  0  0  0
   -0.8092   11.5630   -7.1796 C   0  0  0  0  0  0  0  0  0  0  0  0
    0.4176   14.5730   -6.0003 C   0  0  0  0  0  0  0  0  0  0  0  0
   -4.4279   13.9049  -11.5130 C   0  0  0  0  0  0  0  0  0  0  0  0
   -4.0090   15.0294  -12.0677 N   0  0  0  0  0  0  0  0  0  0  0  0
   -4.8449   15.3445  -13.0534 C   0  0  0  0  0  0  0  0  0  0  0  0
   -5.7816   14.4464  -13.2081 N   0  0  0  0  0  0  0  0  0  0  0  0
   -2.9003   15.7800  -11.6435 C   0  0  0  0  0  0  0  0  0  0  0  0
   -6.0020   12.2509   -9.9250 H   0  0  0  0  0  0  0  0  0  0  0  0
   -8.2188   10.1047  -13.8986 H   0  0  0  0  0  0  0  0  0  0  0  0
   -6.9360   12.2316  -14.1093 H   0  0  0  0  0  0  0  0  0  0  0  0
   -8.6414    7.9853   -9.4357 H   0  0  0  0  0  0  0  0  0  0  0  0
   -8.0967   10.5457   -7.5837 H   0  0  0  0  0  0  0  0  0  0  0  0
   -7.3815    8.8981   -7.5582 H   0  0  0  0  0  0  0  0  0  0  0  0
   -6.7506   12.3193   -6.9178 H   0  0  0  0  0  0  0  0  0  0  0  0
   -4.5243   13.2985   -6.4825 H   0  0  0  0  0  0  0  0  0  0  0  0
   -2.6708    9.7569   -8.0367 H   0  0  0  0  0  0  0  0  0  0  0  0
   -4.8921    8.7825   -8.4771 H   0  0  0  0  0  0  0  0  0  0  0  0
   -2.4257   14.2220   -6.2113 H   0  0  0  0  0  0  0  0  0  0  0  0
   -0.6634   10.5708   -7.5804 H   0  0  0  0  0  0  0  0  0  0  0  0
    1.4777   14.2881   -6.0708 H   0  0  0  0  0  0  0  0  0  0  0  0
    0.2286   15.4443   -6.6446 H   0  0  0  0  0  0  0  0  0  0  0  0
    0.1751   14.8281   -4.9581 H   0  0  0  0  0  0  0  0  0  0  0  0
   -3.9826   13.3858  -10.6771 H   0  0  0  0  0  0  0  0  0  0  0  0
   -4.7595   16.2374  -13.6550 H   0  0  0  0  0  0  0  0  0  0  0  0
   -2.7876   16.6646  -12.2876 H   0  0  0  0  0  0  0  0  0  0  0  0
   -3.0519   16.1015  -10.6025 H   0  0  0  0  0  0  0  0  0  0  0  0
   -1.9928   15.1617  -11.7078 H   0  0  0  0  0  0  0  0  0  0  0  0
  1  2  2  0  0  0  0
  1  4  1  0  0  0  0
  1 11  1  0  0  0  0
  2  6  1  0  0  0  0
  3  4  2  0  0  0  0
  3  5  1  0  0  0  0
  5  6  1  0  0  0  0
  5  9  2  0  0  0  0
  6  7  2  0  0  0  0
  7  8  1  0  0  0  0
  7 10  1  0  0  0  0
  8  9  1  0  0  0  0
 10 12  1  0  0  0  0
 11 24  2  0  0  0  0
 11 27  1  0  0  0  0
 12 13  2  0  0  0  0
 12 17  1  0  0  0  0
 13 14  1  0  0  0  0
 14 15  2  0  0  0  0
 15 16  1  0  0  0  0
 15 18  1  0  0  0  0
 16 17  2  0  0  0  0
 18 19  2  0  0  0  0
 18 22  1  0  0  0  0
 19 20  1  0  0  0  0
 20 21  1  0  0  0  0
 20 23  1  0  0  0  0
 21 22  2  0  0  0  0
 24 25  1  0  0  0  0
 25 26  1  0  0  0  0
 25 28  1  0  0  0  0
 26 27  2  0  0  0  0
  2 29  1  0  0  0  0
  3 30  1  0  0  0  0
  4 31  1  0  0  0  0
  8 32  1  0  0  0  0
 10 33  1  0  0  0  0
 10 34  1  0  0  0  0
 13 35  1  0  0  0  0
 14 36  1  0  0  0  0
 16 37  1  0  0  0  0
 17 38  1  0  0  0  0
 19 39  1  0  0  0  0
 22 40  1  0  0  0  0
 23 41  1  0  0  0  0
 23 42  1  0  0  0  0
 23 43  1  0  0  0  0
 24 44  1  0  0  0  0
 26 45  1  0  0  0  0
 28 46  1  0  0  0  0
 28 47  1  0  0  0  0
 28 48  1  0  0  0  0
M  END
> <Name>
21

> <IC50[uM]>
0.078

$$$$
21
  -OEChem-05192314333D
 Structure written by MMmdl.
 48 52  0     0  0  0  0  0  0999 V2000
   -6.3865   12.3338  -12.0432 C   0  0  0  0  0  0  0  0  0  0  0  0
   -6.4856   11.7841  -10.7704 C   0  0  0  0  0  0  0  0  0  0  0  0
   -7.7472   10.5643  -13.0426 C   0  0  0  0  0  0  0  0  0  0  0  0
   -7.0167   11.7500  -13.1460 C   0  0  0  0  0  0  0  0  0  0  0  0
   -7.8303   10.0081  -11.7598 C   0  0  0  0  0  0  0  0  0  0  0  0
   -7.2256   10.6149  -10.6156 C   0  0  0  0  0  0  0  0  0  0  0  0
   -7.6010    9.7518   -9.5145 C   0  0  0  0  0  0  0  0  0  0  0  0
   -8.2842    8.7423   -9.9828 N   0  0  0  0  0  0  0  0  0  0  0  0
   -8.4323    8.8733  -11.2925 N   0  0  0  0  0  0  0  0  0  0  0  0
   -7.3270    9.8938   -8.0225 C   0  0  0  0  0  0  0  0  0  0  0  0
   -5.5587   13.5285  -12.2266 C   0  0  0  0  0  0  0  0  0  0  0  0
   -5.9618   10.4909   -7.7327 C   0  0  0  0  0  0  0  0  0  0  0  0
   -5.8582   11.7635   -7.1652 C   0  0  0  0  0  0  0  0  0  0  0  0
   -4.6045   12.3140   -6.9191 C   0  0  0  0  0  0  0  0  0  0  0  0
   -3.4477   11.5945   -7.2362 C   0  0  0  0  0  0  0  0  0  0  0  0
   -3.5614   10.3184   -7.7958 C   0  0  0  0  0  0  0  0  0  0  0  0
   -4.8112    9.7685   -8.0438 C   0  0  0  0  0  0  0  0  0  0  0  0
   -2.1002   12.1716   -6.9783 C   0  0  0  0  0  0  0  0  0  0  0  0
   -1.7494   13.4275   -6.4902 C   0  0  0  0  0  0  0  0  0  0  0  0
   -0.4141   13.4605   -6.4332 N   0  0  0  0  0  0  0  0  0  0  0  0
    0.1744   12.3664   -6.8143 N   0  0  0  0  0  0  0  0  0  0  0  0
   -0.8092   11.5630   -7.1796 C   0  0  0  0  0  0  0  0  0  0  0  0
    0.4176   14.5730   -6.0003 C   0  0  0  0  0  0  0  0  0  0  0  0
   -4.4279   13.9049  -11.5130 C   0  0  0  0  0  0  0  0  0  0  0  0
   -4.0090   15.0294  -12.0677 N   0  0  0  0  0  0  0  0  0  0  0  0
   -4.8449   15.3445  -13.0534 C   0  0  0  0  0  0  0  0  0  0  0  0
   -5.7816   14.4464  -13.2081 N   0  0  0  0  0  0  0  0  0  0  0  0
   -2.9003   15.7800  -11.6435 C   0  0  0  0  0  0  0  0  0  0  0  0
   -6.0020   12.2509   -9.9250 H   0  0  0  0  0  0  0  0  0  0  0  0
   -8.2188   10.1047  -13.8986 H   0  0  0  0  0  0  0  0  0  0  0  0
   -6.9360   12.2316  -14.1093 H   0  0  0  0  0  0  0  0  0  0  0  0
   -8.9246    8.2214  -11.8692 H   0  0  0  0  0  0  0  0  0  0  0  0
   -8.0967   10.5457   -7.5837 H   0  0  0  0  0  0  0  0  0  0  0  0
   -7.3815    8.8981   -7.5582 H   0  0  0  0  0  0  0  0  0  0  0  0
   -6.7506   12.3193   -6.9178 H   0  0  0  0  0  0  0  0  0  0  0  0
   -4.5243   13.2985   -6.4825 H   0  0  0  0  0  0  0  0  0  0  0  0
   -2.6708    9.7569   -8.0367 H   0  0  0  0  0  0  0  0  0  0  0  0
   -4.8921    8.7825   -8.4771 H   0  0  0  0  0  0  0  0  0  0  0  0
   -2.4257   14.2220   -6.2113 H   0  0  0  0  0  0  0  0  0  0  0  0
   -0.6634   10.5708   -7.5804 H   0  0  0  0  0  0  0  0  0  0  0  0
    1.4777   14.2881   -6.0708 H   0  0  0  0  0  0  0  0  0  0  0  0
    0.2286   15.4443   -6.6446 H   0  0  0  0  0  0  0  0  0  0  0  0
    0.1751   14.8281   -4.9581 H   0  0  0  0  0  0  0  0  0  0  0  0
   -3.9826   13.3858  -10.6771 H   0  0  0  0  0  0  0  0  0  0  0  0
   -4.7595   16.2374  -13.6550 H   0  0  0  0  0  0  0  0  0  0  0  0
   -2.7876   16.6646  -12.2876 H   0  0  0  0  0  0  0  0  0  0  0  0
   -3.0519   16.1015  -10.6025 H   0  0  0  0  0  0  0  0  0  0  0  0
   -1.9928   15.1617  -11.7078 H   0  0  0  0  0  0  0  0  0  0  0  0
  1  2  2  0  0  0  0
  1  4  1  0  0  0  0
  1 11  1  0  0  0  0
  2  6  1  0  0  0  0
  3  4  2  0  0  0  0
  3  5  1  0  0  0  0
  5  6  2  0  0  0  0
  5  9  1  0  0  0  0
  6  7  1  0  0  0  0
  7  8  2  0  0  0  0
  7 10  1  0  0  0  0
  8  9  1  0  0  0  0
 10 12  1  0  0  0  0
 11 24  2  0  0  0  0
 11 27  1  0  0  0  0
 12 13  2  0  0  0  0
 12 17  1  0  0  0  0
 13 14  1  0  0  0  0
 14 15  2  0  0  0  0
 15 16  1  0  0  0  0
 15 18  1  0  0  0  0
 16 17  2  0  0  0  0
 18 19  2  0  0  0  0
 18 22  1  0  0  0  0
 19 20  1  0  0  0  0
 20 21  1  0  0  0  0
 20 23  1  0  0  0  0
 21 22  2  0  0  0  0
 24 25  1  0  0  0  0
 25 26  1  0  0  0  0
 25 28  1  0  0  0  0
 26 27  2  0  0  0  0
  2 29  1  0  0  0  0
  3 30  1  0  0  0  0
  4 31  1  0  0  0  0
  9 32  1  0  0  0  0
 10 33  1  0  0  0  0
 10 34  1  0  0  0  0
 13 35  1  0  0  0  0
 14 36  1  0  0  0  0
 16 37  1  0  0  0  0
 17 38  1  0  0  0  0
 19 39  1  0  0  0  0
 22 40  1  0  0  0  0
 23 41  1  0  0  0  0
 23 42  1  0  0  0  0
 23 43  1  0  0  0  0
 24 44  1  0  0  0  0
 26 45  1  0  0  0  0
 28 46  1  0  0  0  0
 28 47  1  0  0  0  0
 28 48  1  0  0  0  0
M  END
> <Name>
21

> <IC50[uM]>
0.078

$$$$
21
  -OEChem-05192314333D
 Structure written by MMmdl.
 48 52  0     1  0  0  0  0  0999 V2000
   -6.3865   12.3338  -12.0432 C   0  0  0  0  0  0  0  0  0  0  0  0
   -6.4856   11.7841  -10.7704 C   0  0  0  0  0  0  0  0  0  0  0  0
   -7.7472   10.5643  -13.0426 C   0  0  0  0  0  0  0  0  0  0  0  0
   -7.0167   11.7500  -13.1460 C   0  0  0  0  0  0  0  0  0  0  0  0
   -7.8303   10.0081  -11.7598 C   0  0  0  0  0  0  0  0  0  0  0  0
   -7.2256   10.6149  -10.6156 C   0  0  0  0  0  0  0  0  0  0  0  0
   -7.6010    9.7518   -9.5145 C   0  0  3  0  0  0  0  0  0  0  0  0
   -8.2842    8.7423   -9.9828 N   0  0  0  0  0  0  0  0  0  0  0  0
   -8.4323    8.8733  -11.2925 N   0  0  0  0  0  0  0  0  0  0  0  0
   -7.3270    9.8938   -8.0225 C   0  0  0  0  0  0  0  0  0  0  0  0
   -5.5587   13.5285  -12.2266 C   0  0  0  0  0  0  0  0  0  0  0  0
   -5.9618   10.4909   -7.7327 C   0  0  0  0  0  0  0  0  0  0  0  0
   -5.8582   11.7635   -7.1652 C   0  0  0  0  0  0  0  0  0  0  0  0
   -4.6045   12.3140   -6.9191 C   0  0  0  0  0  0  0  0  0  0  0  0
   -3.4477   11.5945   -7.2362 C   0  0  0  0  0  0  0  0  0  0  0  0
   -3.5614   10.3184   -7.7958 C   0  0  0  0  0  0  0  0  0  0  0  0
   -4.8112    9.7685   -8.0438 C   0  0  0  0  0  0  0  0  0  0  0  0
   -2.1002   12.1716   -6.9783 C   0  0  0  0  0  0  0  0  0  0  0  0
   -1.7494   13.4275   -6.4902 C   0  0  0  0  0  0  0  0  0  0  0  0
   -0.4141   13.4605   -6.4332 N   0  0  0  0  0  0  0  0  0  0  0  0
    0.1744   12.3664   -6.8143 N   0  0  0  0  0  0  0  0  0  0  0  0
   -0.8092   11.5630   -7.1796 C   0  0  0  0  0  0  0  0  0  0  0  0
    0.4176   14.5730   -6.0003 C   0  0  0  0  0  0  0  0  0  0  0  0
   -4.4279   13.9049  -11.5130 C   0  0  0  0  0  0  0  0  0  0  0  0
   -4.0090   15.0294  -12.0677 N   0  0  0  0  0  0  0  0  0  0  0  0
   -4.8449   15.3445  -13.0534 C   0  0  0  0  0  0  0  0  0  0  0  0
   -5.7816   14.4464  -13.2081 N   0  0  0  0  0  0  0  0  0  0  0  0
   -2.9003   15.7800  -11.6435 C   0  0  0  0  0  0  0  0  0  0  0  0
   -6.0020   12.2509   -9.9250 H   0  0  0  0  0  0  0  0  0  0  0  0
   -8.2188   10.1047  -13.8986 H   0  0  0  0  0  0  0  0  0  0  0  0
   -6.9360   12.2316  -14.1093 H   0  0  0  0  0  0  0  0  0  0  0  0
   -6.6674    9.1829   -9.6362 H   0  0  0  0  0  0  0  0  0  0  0  0
   -8.0967   10.5457   -7.5837 H   0  0  0  0  0  0  0  0  0  0  0  0
   -7.3815    8.8981   -7.5582 H   0  0  0  0  0  0  0  0  0  0  0  0
   -6.7506   12.3193   -6.9178 H   0  0  0  0  0  0  0  0  0  0  0  0
   -4.5243   13.2985   -6.4825 H   0  0  0  0  0  0  0  0  0  0  0  0
   -2.6708    9.7569   -8.0367 H   0  0  0  0  0  0  0  0  0  0  0  0
   -4.8921    8.7825   -8.4771 H   0  0  0  0  0  0  0  0  0  0  0  0
   -2.4257   14.2220   -6.2113 H   0  0  0  0  0  0  0  0  0  0  0  0
   -0.6634   10.5708   -7.5804 H   0  0  0  0  0  0  0  0  0  0  0  0
    1.4777   14.2881   -6.0708 H   0  0  0  0  0  0  0  0  0  0  0  0
    0.2286   15.4443   -6.6446 H   0  0  0  0  0  0  0  0  0  0  0  0
    0.1751   14.8281   -4.9581 H   0  0  0  0  0  0  0  0  0  0  0  0
   -3.9826   13.3858  -10.6771 H   0  0  0  0  0  0  0  0  0  0  0  0
   -4.7595   16.2374  -13.6550 H   0  0  0  0  0  0  0  0  0  0  0  0
   -2.7876   16.6646  -12.2876 H   0  0  0  0  0  0  0  0  0  0  0  0
   -3.0519   16.1015  -10.6025 H   0  0  0  0  0  0  0  0  0  0  0  0
   -1.9928   15.1617  -11.7078 H   0  0  0  0  0  0  0  0  0  0  0  0
  1  2  2  0  0  0  0
  1  4  1  0  0  0  0
  1 11  1  0  0  0  0
  2  6  1  0  0  0  0
  3  4  2  0  0  0  0
  3  5  1  0  0  0  0
  5  6  2  0  0  0  0
  5  9  1  0  0  0  0
  6  7  1  0  0  0  0
  7  8  1  0  0  0  0
  7 10  1  0  0  0  0
  8  9  2  0  0  0  0
 10 12  1  0  0  0  0
 11 24  2  0  0  0  0
 11 27  1  0  0  0  0
 12 13  2  0  0  0  0
 12 17  1  0  0  0  0
 13 14  1  0  0  0  0
 14 15  2  0  0  0  0
 15 16  1  0  0  0  0
 15 18  1  0  0  0  0
 16 17  2  0  0  0  0
 18 19  2  0  0  0  0
 18 22  1  0  0  0  0
 19 20  1  0  0  0  0
 20 21  1  0  0  0  0
 20 23  1  0  0  0  0
 21 22  2  0  0  0  0
 24 25  1  0  0  0  0
 25 26  1  0  0  0  0
 25 28  1  0  0  0  0
 26 27  2  0  0  0  0
  2 29  1  0  0  0  0
  3 30  1  0  0  0  0
  4 31  1  0  0  0  0
  7 32  1  0  0  0  0
 10 33  1  0  0  0  0
 10 34  1  0  0  0  0
 13 35  1  0  0  0  0
 14 36  1  0  0  0  0
 16 37  1  0  0  0  0
 17 38  1  0  0  0  0
 19 39  1  0  0  0  0
 22 40  1  0  0  0  0
 23 41  1  0  0  0  0
 23 42  1  0  0  0  0
 23 43  1  0  0  0  0
 24 44  1  0  0  0  0
 26 45  1  0  0  0  0
 28 46  1  0  0  0  0
 28 47  1  0  0  0  0
 28 48  1  0  0  0  0
M  END
> <Name>
21

> <IC50[uM]>
0.078

$$$$
21
  -OEChem-05192314333D
 Structure written by MMmdl.
 48 52  0     0  0  0  0  0  0999 V2000
   -6.3865   12.3338  -12.0432 C   0  0  0  0  0  0  0  0  0  0  0  0
   -6.4856   11.7841  -10.7704 C   0  0  0  0  0  0  0  0  0  0  0  0
   -7.7472   10.5643  -13.0426 C   0  0  0  0  0  0  0  0  0  0  0  0
   -7.0167   11.7500  -13.1460 C   0  0  0  0  0  0  0  0  0  0  0  0
   -7.8303   10.0081  -11.7598 C   0  0  0  0  0  0  0  0  0  0  0  0
   -7.2256   10.6149  -10.6156 C   0  0  0  0  0  0  0  0  0  0  0  0
   -7.6010    9.7518   -9.5145 C   0  0  0  0  0  0  0  0  0  0  0  0
   -8.2842    8.7423   -9.9828 N   0  0  0  0  0  0  0  0  0  0  0  0
   -8.4323    8.8733  -11.2925 N   0  0  0  0  0  0  0  0  0  0  0  0
   -7.3270    9.8938   -8.0225 C   0  0  0  0  0  0  0  0  0  0  0  0
   -5.5587   13.5285  -12.2266 C   0  0  0  0  0  0  0  0  0  0  0  0
   -5.9618   10.4909   -7.7327 C   0  0  0  0  0  0  0  0  0  0  0  0
   -5.8582   11.7635   -7.1652 C   0  0  0  0  0  0  0  0  0  0  0  0
   -4.6045   12.3140   -6.9191 C   0  0  0  0  0  0  0  0  0  0  0  0
   -3.4477   11.5945   -7.2362 C   0  0  0  0  0  0  0  0  0  0  0  0
   -3.5614   10.3184   -7.7958 C   0  0  0  0  0  0  0  0  0  0  0  0
   -4.8112    9.7685   -8.0438 C   0  0  0  0  0  0  0  0  0  0  0  0
   -2.1002   12.1716   -6.9783 C   0  0  0  0  0  0  0  0  0  0  0  0
   -1.7494   13.4275   -6.4902 C   0  0  0  0  0  0  0  0  0  0  0  0
   -0.4141   13.4605   -6.4332 N   0  0  0  0  0  0  0  0  0  0  0  0
    0.1744   12.3664   -6.8143 N   0  0  0  0  0  0  0  0  0  0  0  0
   -0.8092   11.5630   -7.1796 C   0  0  0  0  0  0  0  0  0  0  0  0
    0.4176   14.5730   -6.0003 C   0  0  0  0  0  0  0  0  0  0  0  0
   -4.4279   13.9049  -11.5130 C   0  0  0  0  0  0  0  0  0  0  0  0
   -4.0090   15.0294  -12.0677 N   0  0  0  0  0  0  0  0  0  0  0  0
   -4.8449   15.3445  -13.0534 C   0  0  0  0  0  0  0  0  0  0  0  0
   -5.7816   14.4464  -13.2081 N   0  0  0  0  0  0  0  0  0  0  0  0
   -2.9003   15.7800  -11.6435 C   0  0  0  0  0  0  0  0  0  0  0  0
   -6.0020   12.2509   -9.9250 H   0  0  0  0  0  0  0  0  0  0  0  0
   -8.2188   10.1047  -13.8986 H   0  0  0  0  0  0  0  0  0  0  0  0
   -6.9360   12.2316  -14.1093 H   0  0  0  0  0  0  0  0  0  0  0  0
   -7.7968    7.8914   -9.7867 H   0  0  0  0  0  0  0  0  0  0  0  0
   -9.4085    8.9134  -11.5056 H   0  0  0  0  0  0  0  0  0  0  0  0
   -8.0279    9.6014   -7.2546 H   0  0  0  0  0  0  0  0  0  0  0  0
   -6.7506   12.3193   -6.9178 H   0  0  0  0  0  0  0  0  0  0  0  0
   -4.5243   13.2985   -6.4825 H   0  0  0  0  0  0  0  0  0  0  0  0
   -2.6708    9.7569   -8.0367 H   0  0  0  0  0  0  0  0  0  0  0  0
   -4.8921    8.7825   -8.4771 H   0  0  0  0  0  0  0  0  0  0  0  0
   -2.4257   14.2220   -6.2113 H   0  0  0  0  0  0  0  0  0  0  0  0
   -0.6634   10.5708   -7.5804 H   0  0  0  0  0  0  0  0  0  0  0  0
    1.4777   14.2881   -6.0708 H   0  0  0  0  0  0  0  0  0  0  0  0
    0.2286   15.4443   -6.6446 H   0  0  0  0  0  0  0  0  0  0  0  0
    0.1751   14.8281   -4.9581 H   0  0  0  0  0  0  0  0  0  0  0  0
   -3.9826   13.3858  -10.6771 H   0  0  0  0  0  0  0  0  0  0  0  0
   -4.7595   16.2374  -13.6550 H   0  0  0  0  0  0  0  0  0  0  0  0
   -2.7876   16.6646  -12.2876 H   0  0  0  0  0  0  0  0  0  0  0  0
   -3.0519   16.1015  -10.6025 H   0  0  0  0  0  0  0  0  0  0  0  0
   -1.9928   15.1617  -11.7078 H   0  0  0  0  0  0  0  0  0  0  0  0
  1  2  2  0  0  0  0
  1  4  1  0  0  0  0
  1 11  1  0  0  0  0
  2  6  1  0  0  0  0
  3  4  2  0  0  0  0
  3  5  1  0  0  0  0
  5  6  2  0  0  0  0
  5  9  1  0  0  0  0
  6  7  1  0  0  0  0
  7  8  1  0  0  0  0
  7 10  2  3  0  0  0
  8  9  1  0  0  0  0
 10 12  1  0  0  0  0
 11 24  2  0  0  0  0
 11 27  1  0  0  0  0
 12 13  2  0  0  0  0
 12 17  1  0  0  0  0
 13 14  1  0  0  0  0
 14 15  2  0  0  0  0
 15 16  1  0  0  0  0
 15 18  1  0  0  0  0
 16 17  2  0  0  0  0
 18 19  2  0  0  0  0
 18 22  1  0  0  0  0
 19 20  1  0  0  0  0
 20 21  1  0  0  0  0
 20 23  1  0  0  0  0
 21 22  2  0  0  0  0
 24 25  1  0  0  0  0
 25 26  1  0  0  0  0
 25 28  1  0  0  0  0
 26 27  2  0  0  0  0
  2 29  1  0  0  0  0
  3 30  1  0  0  0  0
  4 31  1  0  0  0  0
  8 32  1  0  0  0  0
  9 33  1  0  0  0  0
 10 34  1  0  0  0  0
 13 35  1  0  0  0  0
 14 36  1  0  0  0  0
 16 37  1  0  0  0  0
 17 38  1  0  0  0  0
 19 39  1  0  0  0  0
 22 40  1  0  0  0  0
 23 41  1  0  0  0  0
 23 42  1  0  0  0  0
 23 43  1  0  0  0  0
 24 44  1  0  0  0  0
 26 45  1  0  0  0  0
 28 46  1  0  0  0  0
 28 47  1  0  0  0  0
 28 48  1  0  0  0  0
M  END
> <Name>
21

> <IC50[uM]>
0.078

$$$$
21
  -OEChem-05192314333D
 Structure written by MMmdl.
 48 52  0     1  0  0  0  0  0999 V2000
   -6.3865   12.3338  -12.0432 C   0  0  3  0  0  0  0  0  0  0  0  0
   -6.4856   11.7841  -10.7704 C   0  0  0  0  0  0  0  0  0  0  0  0
   -7.7472   10.5643  -13.0426 C   0  0  0  0  0  0  0  0  0  0  0  0
   -7.0167   11.7500  -13.1460 C   0  0  0  0  0  0  0  0  0  0  0  0
   -7.8303   10.0081  -11.7598 C   0  0  0  0  0  0  0  0  0  0  0  0
   -7.2256   10.6149  -10.6156 C   0  0  0  0  0  0  0  0  0  0  0  0
   -7.6010    9.7518   -9.5145 C   0  0  0  0  0  0  0  0  0  0  0  0
   -8.2842    8.7423   -9.9828 N   0  0  0  0  0  0  0  0  0  0  0  0
   -8.4323    8.8733  -11.2925 N   0  0  0  0  0  0  0  0  0  0  0  0
   -7.3270    9.8938   -8.0225 C   0  0  0  0  0  0  0  0  0  0  0  0
   -5.5587   13.5285  -12.2266 C   0  0  0  0  0  0  0  0  0  0  0  0
   -5.9618   10.4909   -7.7327 C   0  0  0  0  0  0  0  0  0  0  0  0
   -5.8582   11.7635   -7.1652 C   0  0  0  0  0  0  0  0  0  0  0  0
   -4.6045   12.3140   -6.9191 C   0  0  0  0  0  0  0  0  0  0  0  0
   -3.4477   11.5945   -7.2362 C   0  0  0  0  0  0  0  0  0  0  0  0
   -3.5614   10.3184   -7.7958 C   0  0  0  0  0  0  0  0  0  0  0  0
   -4.8112    9.7685   -8.0438 C   0  0  0  0  0  0  0  0  0  0  0  0
   -2.1002   12.1716   -6.9783 C   0  0  0  0  0  0  0  0  0  0  0  0
   -1.7494   13.4275   -6.4902 C   0  0  0  0  0  0  0  0  0  0  0  0
   -0.4141   13.4605   -6.4332 N   0  0  0  0  0  0  0  0  0  0  0  0
    0.1744   12.3664   -6.8143 N   0  0  0  0  0  0  0  0  0  0  0  0
   -0.8092   11.5630   -7.1796 C   0  0  0  0  0  0  0  0  0  0  0  0
    0.4176   14.5730   -6.0003 C   0  0  0  0  0  0  0  0  0  0  0  0
   -4.4279   13.9049  -11.5130 C   0  0  0  0  0  0  0  0  0  0  0  0
   -4.0090   15.0294  -12.0677 N   0  0  0  0  0  0  0  0  0  0  0  0
   -4.8449   15.3445  -13.0534 C   0  0  0  0  0  0  0  0  0  0  0  0
   -5.7816   14.4464  -13.2081 N   0  0  0  0  0  0  0  0  0  0  0  0
   -2.9003   15.7800  -11.6435 C   0  0  0  0  0  0  0  0  0  0  0  0
   -7.2704   12.9609  -11.8546 H   0  0  0  0  0  0  0  0  0  0  0  0
   -6.0020   12.2509   -9.9250 H   0  0  0  0  0  0  0  0  0  0  0  0
   -8.2188   10.1047  -13.8986 H   0  0  0  0  0  0  0  0  0  0  0  0
   -6.9360   12.2316  -14.1093 H   0  0  0  0  0  0  0  0  0  0  0  0
   -8.6414    7.9853   -9.4357 H   0  0  0  0  0  0  0  0  0  0  0  0
   -8.0279    9.6014   -7.2546 H   0  0  0  0  0  0  0  0  0  0  0  0
   -6.7506   12.3193   -6.9178 H   0  0  0  0  0  0  0  0  0  0  0  0
   -4.5243   13.2985   -6.4825 H   0  0  0  0  0  0  0  0  0  0  0  0
   -2.6708    9.7569   -8.0367 H   0  0  0  0  0  0  0  0  0  0  0  0
   -4.8921    8.7825   -8.4771 H   0  0  0  0  0  0  0  0  0  0  0  0
   -2.4257   14.2220   -6.2113 H   0  0  0  0  0  0  0  0  0  0  0  0
   -0.6634   10.5708   -7.5804 H   0  0  0  0  0  0  0  0  0  0  0  0
    1.4777   14.2881   -6.0708 H   0  0  0  0  0  0  0  0  0  0  0  0
    0.2286   15.4443   -6.6446 H   0  0  0  0  0  0  0  0  0  0  0  0
    0.1751   14.8281   -4.9581 H   0  0  0  0  0  0  0  0  0  0  0  0
   -3.9826   13.3858  -10.6771 H   0  0  0  0  0  0  0  0  0  0  0  0
   -4.7595   16.2374  -13.6550 H   0  0  0  0  0  0  0  0  0  0  0  0
   -2.7876   16.6646  -12.2876 H   0  0  0  0  0  0  0  0  0  0  0  0
   -3.0519   16.1015  -10.6025 H   0  0  0  0  0  0  0  0  0  0  0  0
   -1.9928   15.1617  -11.7078 H   0  0  0  0  0  0  0  0  0  0  0  0
  1  2  1  0  0  0  0
  1  4  1  0  0  0  0
  1 11  1  0  0  0  0
  2  6  2  0  0  0  0
  3  4  2  0  0  0  0
  3  5  1  0  0  0  0
  5  6  1  0  0  0  0
  5  9  2  0  0  0  0
  6  7  1  0  0  0  0
  7  8  1  0  0  0  0
  7 10  2  3  0  0  0
  8  9  1  0  0  0  0
 10 12  1  0  0  0  0
 11 24  2  0  0  0  0
 11 27  1  0  0  0  0
 12 13  2  0  0  0  0
 12 17  1  0  0  0  0
 13 14  1  0  0  0  0
 14 15  2  0  0  0  0
 15 16  1  0  0  0  0
 15 18  1  0  0  0  0
 16 17  2  0  0  0  0
 18 19  2  0  0  0  0
 18 22  1  0  0  0  0
 19 20  1  0  0  0  0
 20 21  1  0  0  0  0
 20 23  1  0  0  0  0
 21 22  2  0  0  0  0
 24 25  1  0  0  0  0
 25 26  1  0  0  0  0
 25 28  1  0  0  0  0
 26 27  2  0  0  0  0
  1 29  1  0  0  0  0
  2 30  1  0  0  0  0
  3 31  1  0  0  0  0
  4 32  1  0  0  0  0
  8 33  1  0  0  0  0
 10 34  1  0  0  0  0
 13 35  1  0  0  0  0
 14 36  1  0  0  0  0
 16 37  1  0  0  0  0
 17 38  1  0  0  0  0
 19 39  1  0  0  0  0
 22 40  1  0  0  0  0
 23 41  1  0  0  0  0
 23 42  1  0  0  0  0
 23 43  1  0  0  0  0
 24 44  1  0  0  0  0
 26 45  1  0  0  0  0
 28 46  1  0  0  0  0
 28 47  1  0  0  0  0
 28 48  1  0  0  0  0
M  END
> <Name>
21

> <IC50[uM]>
0.078

$$$$
21
  -OEChem-05192314333D
 Structure written by MMmdl.
 48 52  0     0  0  0  0  0  0999 V2000
   -6.3865   12.3338  -12.0432 C   0  0  0  0  0  0  0  0  0  0  0  0
   -6.4856   11.7841  -10.7704 C   0  0  0  0  0  0  0  0  0  0  0  0
   -7.7472   10.5643  -13.0426 C   0  0  0  0  0  0  0  0  0  0  0  0
   -7.0167   11.7500  -13.1460 C   0  0  0  0  0  0  0  0  0  0  0  0
   -7.8303   10.0081  -11.7598 C   0  0  0  0  0  0  0  0  0  0  0  0
   -7.2256   10.6149  -10.6156 C   0  0  0  0  0  0  0  0  0  0  0  0
   -7.6010    9.7518   -9.5145 C   0  0  0  0  0  0  0  0  0  0  0  0
   -8.2842    8.7423   -9.9828 N   0  0  0  0  0  0  0  0  0  0  0  0
   -8.4323    8.8733  -11.2925 N   0  0  0  0  0  0  0  0  0  0  0  0
   -7.3270    9.8938   -8.0225 C   0  0  0  0  0  0  0  0  0  0  0  0
   -5.5587   13.5285  -12.2266 C   0  0  0  0  0  0  0  0  0  0  0  0
   -5.9618   10.4909   -7.7327 C   0  0  0  0  0  0  0  0  0  0  0  0
   -5.8582   11.7635   -7.1652 C   0  0  0  0  0  0  0  0  0  0  0  0
   -4.6045   12.3140   -6.9191 C   0  0  0  0  0  0  0  0  0  0  0  0
   -3.4477   11.5945   -7.2362 C   0  0  0  0  0  0  0  0  0  0  0  0
   -3.5614   10.3184   -7.7958 C   0  0  0  0  0  0  0  0  0  0  0  0
   -4.8112    9.7685   -8.0438 C   0  0  0  0  0  0  0  0  0  0  0  0
   -2.1002   12.1716   -6.9783 C   0  0  0  0  0  0  0  0  0  0  0  0
   -1.7494   13.4275   -6.4902 C   0  0  0  0  0  0  0  0  0  0  0  0
   -0.4141   13.4605   -6.4332 N   0  0  0  0  0  0  0  0  0  0  0  0
    0.1744   12.3664   -6.8143 N   0  0  0  0  0  0  0  0  0  0  0  0
   -0.8092   11.5630   -7.1796 C   0  0  0  0  0  0  0  0  0  0  0  0
    0.4176   14.5730   -6.0003 C   0  0  0  0  0  0  0  0  0  0  0  0
   -4.4279   13.9049  -11.5130 C   0  0  0  0  0  0  0  0  0  0  0  0
   -4.0090   15.0294  -12.0677 N   0  0  0  0  0  0  0  0  0  0  0  0
   -4.8449   15.3445  -13.0534 C   0  0  0  0  0  0  0  0  0  0  0  0
   -5.7816   14.4464  -13.2081 N   0  0  0  0  0  0  0  0  0  0  0  0
   -2.9003   15.7800  -11.6435 C   0  0  0  0  0  0  0  0  0  0  0  0
   -6.0020   12.2509   -9.9250 H   0  0  0  0  0  0  0  0  0  0  0  0
   -8.7712   10.7678  -13.3889 H   0  0  0  0  0  0  0  0  0  0  0  0
   -7.2778    9.8203  -13.7030 H   0  0  0  0  0  0  0  0  0  0  0  0
   -6.9360   12.2316  -14.1093 H   0  0  0  0  0  0  0  0  0  0  0  0
   -8.6414    7.9853   -9.4357 H   0  0  0  0  0  0  0  0  0  0  0  0
   -8.0279    9.6014   -7.2546 H   0  0  0  0  0  0  0  0  0  0  0  0
   -6.7506   12.3193   -6.9178 H   0  0  0  0  0  0  0  0  0  0  0  0
   -4.5243   13.2985   -6.4825 H   0  0  0  0  0  0  0  0  0  0  0  0
   -2.6708    9.7569   -8.0367 H   0  0  0  0  0  0  0  0  0  0  0  0
   -4.8921    8.7825   -8.4771 H   0  0  0  0  0  0  0  0  0  0  0  0
   -2.4257   14.2220   -6.2113 H   0  0  0  0  0  0  0  0  0  0  0  0
   -0.6634   10.5708   -7.5804 H   0  0  0  0  0  0  0  0  0  0  0  0
    1.4777   14.2881   -6.0708 H   0  0  0  0  0  0  0  0  0  0  0  0
    0.2286   15.4443   -6.6446 H   0  0  0  0  0  0  0  0  0  0  0  0
    0.1751   14.8281   -4.9581 H   0  0  0  0  0  0  0  0  0  0  0  0
   -3.9826   13.3858  -10.6771 H   0  0  0  0  0  0  0  0  0  0  0  0
   -4.7595   16.2374  -13.6550 H   0  0  0  0  0  0  0  0  0  0  0  0
   -2.7876   16.6646  -12.2876 H   0  0  0  0  0  0  0  0  0  0  0  0
   -3.0519   16.1015  -10.6025 H   0  0  0  0  0  0  0  0  0  0  0  0
   -1.9928   15.1617  -11.7078 H   0  0  0  0  0  0  0  0  0  0  0  0
  1  2  1  0  0  0  0
  1  4  2  0  0  0  0
  1 11  1  0  0  0  0
  2  6  2  0  0  0  0
  3  4  1  0  0  0  0
  3  5  1  0  0  0  0
  5  6  1  0  0  0  0
  5  9  2  0  0  0  0
  6  7  1  0  0  0  0
  7  8  1  0  0  0  0
  7 10  2  3  0  0  0
  8  9  1  0  0  0  0
 10 12  1  0  0  0  0
 11 24  2  0  0  0  0
 11 27  1  0  0  0  0
 12 13  2  0  0  0  0
 12 17  1  0  0  0  0
 13 14  1  0  0  0  0
 14 15  2  0  0  0  0
 15 16  1  0  0  0  0
 15 18  1  0  0  0  0
 16 17  2  0  0  0  0
 18 19  2  0  0  0  0
 18 22  1  0  0  0  0
 19 20  1  0  0  0  0
 20 21  1  0  0  0  0
 20 23  1  0  0  0  0
 21 22  2  0  0  0  0
 24 25  1  0  0  0  0
 25 26  1  0  0  0  0
 25 28  1  0  0  0  0
 26 27  2  0  0  0  0
  2 29  1  0  0  0  0
  3 30  1  0  0  0  0
  3 31  1  0  0  0  0
  4 32  1  0  0  0  0
  8 33  1  0  0  0  0
 10 34  1  0  0  0  0
 13 35  1  0  0  0  0
 14 36  1  0  0  0  0
 16 37  1  0  0  0  0
 17 38  1  0  0  0  0
 19 39  1  0  0  0  0
 22 40  1  0  0  0  0
 23 41  1  0  0  0  0
 23 42  1  0  0  0  0
 23 43  1  0  0  0  0
 24 44  1  0  0  0  0
 26 45  1  0  0  0  0
 28 46  1  0  0  0  0
 28 47  1  0  0  0  0
 28 48  1  0  0  0  0
M  END
> <Name>
21

> <IC50[uM]>
0.078

$$$$
21
  -OEChem-05192314333D
 Structure written by MMmdl.
 48 52  0     1  0  0  0  0  0999 V2000
   -6.3865   12.3338  -12.0432 C   0  0  0  0  0  0  0  0  0  0  0  0
   -6.4856   11.7841  -10.7704 C   0  0  0  0  0  0  0  0  0  0  0  0
   -7.7472   10.5643  -13.0426 C   0  0  0  0  0  0  0  0  0  0  0  0
   -7.0167   11.7500  -13.1460 C   0  0  0  0  0  0  0  0  0  0  0  0
   -7.8303   10.0081  -11.7598 C   0  0  0  0  0  0  0  0  0  0  0  0
   -7.2256   10.6149  -10.6156 C   0  0  0  0  0  0  0  0  0  0  0  0
   -7.6010    9.7518   -9.5145 C   0  0  0  0  0  0  0  0  0  0  0  0
   -8.2842    8.7423   -9.9828 N   0  0  0  0  0  0  0  0  0  0  0  0
   -8.4323    8.8733  -11.2925 N   0  0  0  0  0  0  0  0  0  0  0  0
   -7.3270    9.8938   -8.0225 C   0  0  0  0  0  0  0  0  0  0  0  0
   -5.5587   13.5285  -12.2266 C   0  0  0  0  0  0  0  0  0  0  0  0
   -5.9618   10.4909   -7.7327 C   0  0  0  0  0  0  0  0  0  0  0  0
   -5.8582   11.7635   -7.1652 C   0  0  0  0  0  0  0  0  0  0  0  0
   -4.6045   12.3140   -6.9191 C   0  0  0  0  0  0  0  0  0  0  0  0
   -3.4477   11.5945   -7.2362 C   0  0  0  0  0  0  0  0  0  0  0  0
   -3.5614   10.3184   -7.7958 C   0  0  0  0  0  0  0  0  0  0  0  0
   -4.8112    9.7685   -8.0438 C   0  0  0  0  0  0  0  0  0  0  0  0
   -2.1002   12.1716   -6.9783 C   0  0  0  0  0  0  0  0  0  0  0  0
   -1.7494   13.4275   -6.4902 C   0  0  0  0  0  0  0  0  0  0  0  0
   -0.4141   13.4605   -6.4332 N   0  0  3  0  0  0  0  0  0  0  0  0
    0.1744   12.3664   -6.8143 N   0  0  0  0  0  0  0  0  0  0  0  0
   -0.8092   11.5630   -7.1796 C   0  0  0  0  0  0  0  0  0  0  0  0
    0.4176   14.5730   -6.0003 C   0  0  0  0  0  0  0  0  0  0  0  0
   -4.4279   13.9049  -11.5130 C   0  0  0  0  0  0  0  0  0  0  0  0
   -4.0090   15.0294  -12.0677 N   0  0  0  0  0  0  0  0  0  0  0  0
   -4.8449   15.3445  -13.0534 C   0  0  0  0  0  0  0  0  0  0  0  0
   -5.7816   14.4464  -13.2081 N   0  0  0  0  0  0  0  0  0  0  0  0
   -2.9003   15.7800  -11.6435 C   0  0  0  0  0  0  0  0  0  0  0  0
   -6.0020   12.2509   -9.9250 H   0  0  0  0  0  0  0  0  0  0  0  0
   -8.2188   10.1047  -13.8986 H   0  0  0  0  0  0  0  0  0  0  0  0
   -6.9360   12.2316  -14.1093 H   0  0  0  0  0  0  0  0  0  0  0  0
   -8.6414    7.9853   -9.4357 H   0  0  0  0  0  0  0  0  0  0  0  0
   -8.0279    9.6014   -7.2546 H   0  0  0  0  0  0  0  0  0  0  0  0
   -6.7506   12.3193   -6.9178 H   0  0  0  0  0  0  0  0  0  0  0  0
   -4.5243   13.2985   -6.4825 H   0  0  0  0  0  0  0  0  0  0  0  0
   -2.6708    9.7569   -8.0367 H   0  0  0  0  0  0  0  0  0  0  0  0
   -4.8921    8.7825   -8.4771 H   0  0  0  0  0  0  0  0  0  0  0  0
   -2.1191   14.2131   -7.1656 H   0  0  0  0  0  0  0  0  0  0  0  0
   -2.1751   13.5763   -5.4869 H   0  0  0  0  0  0  0  0  0  0  0  0
   -0.6634   10.5708   -7.5804 H   0  0  0  0  0  0  0  0  0  0  0  0
    1.4777   14.2881   -6.0708 H   0  0  0  0  0  0  0  0  0  0  0  0
    0.2286   15.4443   -6.6446 H   0  0  0  0  0  0  0  0  0  0  0  0
    0.1751   14.8281   -4.9581 H   0  0  0  0  0  0  0  0  0  0  0  0
   -3.9826   13.3858  -10.6771 H   0  0  0  0  0  0  0  0  0  0  0  0
   -4.7595   16.2374  -13.6550 H   0  0  0  0  0  0  0  0  0  0  0  0
   -2.7876   16.6646  -12.2876 H   0  0  0  0  0  0  0  0  0  0  0  0
   -3.0519   16.1015  -10.6025 H   0  0  0  0  0  0  0  0  0  0  0  0
   -1.9928   15.1617  -11.7078 H   0  0  0  0  0  0  0  0  0  0  0  0
  1  2  2  0  0  0  0
  1  4  1  0  0  0  0
  1 11  1  0  0  0  0
  2  6  1  0  0  0  0
  3  4  2  0  0  0  0
  3  5  1  0  0  0  0
  5  6  1  0  0  0  0
  5  9  2  0  0  0  0
  6  7  2  0  0  0  0
  7  8  1  0  0  0  0
  7 10  1  0  0  0  0
  8  9  1  0  0  0  0
 10 12  2  0  0  0  0
 11 24  2  0  0  0  0
 11 27  1  0  0  0  0
 12 13  1  0  0  0  0
 12 17  1  0  0  0  0
 13 14  2  0  0  0  0
 14 15  1  0  0  0  0
 15 16  1  0  0  0  0
 15 18  2  0  0  0  0
 16 17  2  0  0  0  0
 18 19  1  0  0  0  0
 18 22  1  0  0  0  0
 19 20  1  0  0  0  0
 20 21  1  0  0  0  0
 20 23  1  0  0  0  0
 21 22  2  0  0  0  0
 24 25  1  0  0  0  0
 25 26  1  0  0  0  0
 25 28  1  0  0  0  0
 26 27  2  0  0  0  0
  2 29  1  0  0  0  0
  3 30  1  0  0  0  0
  4 31  1  0  0  0  0
  8 32  1  0  0  0  0
 10 33  1  0  0  0  0
 13 34  1  0  0  0  0
 14 35  1  0  0  0  0
 16 36  1  0  0  0  0
 17 37  1  0  0  0  0
 19 38  1  0  0  0  0
 19 39  1  0  0  0  0
 22 40  1  0  0  0  0
 23 41  1  0  0  0  0
 23 42  1  0  0  0  0
 23 43  1  0  0  0  0
 24 44  1  0  0  0  0
 26 45  1  0  0  0  0
 28 46  1  0  0  0  0
 28 47  1  0  0  0  0
 28 48  1  0  0  0  0
M  END
> <Name>
21

> <IC50[uM]>
0.078

$$$$
21
  -OEChem-05192314333D
 Structure written by MMmdl.
 48 52  0     1  0  0  0  0  0999 V2000
   -6.3865   12.3338  -12.0432 C   0  0  0  0  0  0  0  0  0  0  0  0
   -6.4856   11.7841  -10.7704 C   0  0  0  0  0  0  0  0  0  0  0  0
   -7.7472   10.5643  -13.0426 C   0  0  0  0  0  0  0  0  0  0  0  0
   -7.0167   11.7500  -13.1460 C   0  0  0  0  0  0  0  0  0  0  0  0
   -7.8303   10.0081  -11.7598 C   0  0  0  0  0  0  0  0  0  0  0  0
   -7.2256   10.6149  -10.6156 C   0  0  0  0  0  0  0  0  0  0  0  0
   -7.6010    9.7518   -9.5145 C   0  0  0  0  0  0  0  0  0  0  0  0
   -8.2842    8.7423   -9.9828 N   0  0  0  0  0  0  0  0  0  0  0  0
   -8.4323    8.8733  -11.2925 N   0  0  0  0  0  0  0  0  0  0  0  0
   -7.3270    9.8938   -8.0225 C   0  0  0  0  0  0  0  0  0  0  0  0
   -5.5587   13.5285  -12.2266 C   0  0  0  0  0  0  0  0  0  0  0  0
   -5.9618   10.4909   -7.7327 C   0  0  0  0  0  0  0  0  0  0  0  0
   -5.8582   11.7635   -7.1652 C   0  0  0  0  0  0  0  0  0  0  0  0
   -4.6045   12.3140   -6.9191 C   0  0  0  0  0  0  0  0  0  0  0  0
   -3.4477   11.5945   -7.2362 C   0  0  0  0  0  0  0  0  0  0  0  0
   -3.5614   10.3184   -7.7958 C   0  0  0  0  0  0  0  0  0  0  0  0
   -4.8112    9.7685   -8.0438 C   0  0  0  0  0  0  0  0  0  0  0  0
   -2.1002   12.1716   -6.9783 C   0  0  0  0  0  0  0  0  0  0  0  0
   -1.7494   13.4275   -6.4902 C   0  0  0  0  0  0  0  0  0  0  0  0
   -0.4141   13.4605   -6.4332 N   0  0  3  0  0  0  0  0  0  0  0  0
    0.1744   12.3664   -6.8143 N   0  0  0  0  0  0  0  0  0  0  0  0
   -0.8092   11.5630   -7.1796 C   0  0  0  0  0  0  0  0  0  0  0  0
    0.4176   14.5730   -6.0003 C   0  0  0  0  0  0  0  0  0  0  0  0
   -4.4279   13.9049  -11.5130 C   0  0  0  0  0  0  0  0  0  0  0  0
   -4.0090   15.0294  -12.0677 N   0  0  0  0  0  0  0  0  0  0  0  0
   -4.8449   15.3445  -13.0534 C   0  0  0  0  0  0  0  0  0  0  0  0
   -5.7816   14.4464  -13.2081 N   0  0  0  0  0  0  0  0  0  0  0  0
   -2.9003   15.7800  -11.6435 C   0  0  0  0  0  0  0  0  0  0  0  0
   -6.0020   12.2509   -9.9250 H   0  0  0  0  0  0  0  0  0  0  0  0
   -8.2188   10.1047  -13.8986 H   0  0  0  0  0  0  0  0  0  0  0  0
   -6.9360   12.2316  -14.1093 H   0  0  0  0  0  0  0  0  0  0  0  0
   -8.9246    8.2214  -11.8692 H   0  0  0  0  0  0  0  0  0  0  0  0
   -8.0279    9.6014   -7.2546 H   0  0  0  0  0  0  0  0  0  0  0  0
   -6.7506   12.3193   -6.9178 H   0  0  0  0  0  0  0  0  0  0  0  0
   -4.5243   13.2985   -6.4825 H   0  0  0  0  0  0  0  0  0  0  0  0
   -2.6708    9.7569   -8.0367 H   0  0  0  0  0  0  0  0  0  0  0  0
   -4.8921    8.7825   -8.4771 H   0  0  0  0  0  0  0  0  0  0  0  0
   -2.1191   14.2131   -7.1656 H   0  0  0  0  0  0  0  0  0  0  0  0
   -2.1751   13.5763   -5.4869 H   0  0  0  0  0  0  0  0  0  0  0  0
   -0.6634   10.5708   -7.5804 H   0  0  0  0  0  0  0  0  0  0  0  0
    1.4777   14.2881   -6.0708 H   0  0  0  0  0  0  0  0  0  0  0  0
    0.2286   15.4443   -6.6446 H   0  0  0  0  0  0  0  0  0  0  0  0
    0.1751   14.8281   -4.9581 H   0  0  0  0  0  0  0  0  0  0  0  0
   -3.9826   13.3858  -10.6771 H   0  0  0  0  0  0  0  0  0  0  0  0
   -4.7595   16.2374  -13.6550 H   0  0  0  0  0  0  0  0  0  0  0  0
   -2.7876   16.6646  -12.2876 H   0  0  0  0  0  0  0  0  0  0  0  0
   -3.0519   16.1015  -10.6025 H   0  0  0  0  0  0  0  0  0  0  0  0
   -1.9928   15.1617  -11.7078 H   0  0  0  0  0  0  0  0  0  0  0  0
  1  2  2  0  0  0  0
  1  4  1  0  0  0  0
  1 11  1  0  0  0  0
  2  6  1  0  0  0  0
  3  4  2  0  0  0  0
  3  5  1  0  0  0  0
  5  6  2  0  0  0  0
  5  9  1  0  0  0  0
  6  7  1  0  0  0  0
  7  8  2  0  0  0  0
  7 10  1  0  0  0  0
  8  9  1  0  0  0  0
 10 12  2  0  0  0  0
 11 24  2  0  0  0  0
 11 27  1  0  0  0  0
 12 13  1  0  0  0  0
 12 17  1  0  0  0  0
 13 14  2  0  0  0  0
 14 15  1  0  0  0  0
 15 16  1  0  0  0  0
 15 18  2  0  0  0  0
 16 17  2  0  0  0  0
 18 19  1  0  0  0  0
 18 22  1  0  0  0  0
 19 20  1  0  0  0  0
 20 21  1  0  0  0  0
 20 23  1  0  0  0  0
 21 22  2  0  0  0  0
 24 25  1  0  0  0  0
 25 26  1  0  0  0  0
 25 28  1  0  0  0  0
 26 27  2  0  0  0  0
  2 29  1  0  0  0  0
  3 30  1  0  0  0  0
  4 31  1  0  0  0  0
  9 32  1  0  0  0  0
 10 33  1  0  0  0  0
 13 34  1  0  0  0  0
 14 35  1  0  0  0  0
 16 36  1  0  0  0  0
 17 37  1  0  0  0  0
 19 38  1  0  0  0  0
 19 39  1  0  0  0  0
 22 40  1  0  0  0  0
 23 41  1  0  0  0  0
 23 42  1  0  0  0  0
 23 43  1  0  0  0  0
 24 44  1  0  0  0  0
 26 45  1  0  0  0  0
 28 46  1  0  0  0  0
 28 47  1  0  0  0  0
 28 48  1  0  0  0  0
M  END
> <Name>
21

> <IC50[uM]>
0.078

$$$$
21
  -OEChem-05192314333D
 Structure written by MMmdl.
 48 52  0     0  0  0  0  0  0999 V2000
   -6.3865   12.3338  -12.0432 C   0  0  0  0  0  0  0  0  0  0  0  0
   -6.4856   11.7841  -10.7704 C   0  0  0  0  0  0  0  0  0  0  0  0
   -7.7472   10.5643  -13.0426 C   0  0  0  0  0  0  0  0  0  0  0  0
   -7.0167   11.7500  -13.1460 C   0  0  0  0  0  0  0  0  0  0  0  0
   -7.8303   10.0081  -11.7598 C   0  0  0  0  0  0  0  0  0  0  0  0
   -7.2256   10.6149  -10.6156 C   0  0  0  0  0  0  0  0  0  0  0  0
   -7.6010    9.7518   -9.5145 C   0  0  0  0  0  0  0  0  0  0  0  0
   -8.2842    8.7423   -9.9828 N   0  0  0  0  0  0  0  0  0  0  0  0
   -8.4323    8.8733  -11.2925 N   0  0  0  0  0  0  0  0  0  0  0  0
   -7.3270    9.8938   -8.0225 C   0  0  0  0  0  0  0  0  0  0  0  0
   -5.5587   13.5285  -12.2266 C   0  0  0  0  0  0  0  0  0  0  0  0
   -5.9618   10.4909   -7.7327 C   0  0  0  0  0  0  0  0  0  0  0  0
   -5.8582   11.7635   -7.1652 C   0  0  0  0  0  0  0  0  0  0  0  0
   -4.6045   12.3140   -6.9191 C   0  0  0  0  0  0  0  0  0  0  0  0
   -3.4477   11.5945   -7.2362 C   0  0  0  0  0  0  0  0  0  0  0  0
   -3.5614   10.3184   -7.7958 C   0  0  0  0  0  0  0  0  0  0  0  0
   -4.8112    9.7685   -8.0438 C   0  0  0  0  0  0  0  0  0  0  0  0
   -2.1002   12.1716   -6.9783 C   0  0  0  0  0  0  0  0  0  0  0  0
   -1.7494   13.4275   -6.4902 C   0  0  0  0  0  0  0  0  0  0  0  0
   -0.4141   13.4605   -6.4332 N   0  0  0  0  0  0  0  0  0  0  0  0
    0.1744   12.3664   -6.8143 N   0  0  0  0  0  0  0  0  0  0  0  0
   -0.8092   11.5630   -7.1796 C   0  0  0  0  0  0  0  0  0  0  0  0
    0.4176   14.5730   -6.0003 C   0  0  0  0  0  0  0  0  0  0  0  0
   -4.4279   13.9049  -11.5130 C   0  0  0  0  0  0  0  0  0  0  0  0
   -4.0090   15.0294  -12.0677 N   0  0  0  0  0  0  0  0  0  0  0  0
   -4.8449   15.3445  -13.0534 C   0  0  0  0  0  0  0  0  0  0  0  0
   -5.7816   14.4464  -13.2081 N   0  0  0  0  0  0  0  0  0  0  0  0
   -2.9003   15.7800  -11.6435 C   0  0  0  0  0  0  0  0  0  0  0  0
   -6.0020   12.2509   -9.9250 H   0  0  0  0  0  0  0  0  0  0  0  0
   -8.2188   10.1047  -13.8986 H   0  0  0  0  0  0  0  0  0  0  0  0
   -6.9360   12.2316  -14.1093 H   0  0  0  0  0  0  0  0  0  0  0  0
   -8.6414    7.9853   -9.4357 H   0  0  0  0  0  0  0  0  0  0  0  0
   -8.0279    9.6014   -7.2546 H   0  0  0  0  0  0  0  0  0  0  0  0
   -6.7506   12.3193   -6.9178 H   0  0  0  0  0  0  0  0  0  0  0  0
   -4.5243   13.2985   -6.4825 H   0  0  0  0  0  0  0  0  0  0  0  0
   -2.6708    9.7569   -8.0367 H   0  0  0  0  0  0  0  0  0  0  0  0
   -4.8921    8.7825   -8.4771 H   0  0  0  0  0  0  0  0  0  0  0  0
   -2.4257   14.2220   -6.2113 H   0  0  0  0  0  0  0  0  0  0  0  0
   -0.6634   10.5708   -7.5804 H   0  0  0  0  0  0  0  0  0  0  0  0
    1.4777   14.2881   -6.0708 H   0  0  0  0  0  0  0  0  0  0  0  0
    0.2286   15.4443   -6.6446 H   0  0  0  0  0  0  0  0  0  0  0  0
    0.1751   14.8281   -4.9581 H   0  0  0  0  0  0  0  0  0  0  0  0
   -4.6802   14.0705  -10.4552 H   0  0  0  0  0  0  0  0  0  0  0  0
   -3.6520   13.1288  -11.5878 H   0  0  0  0  0  0  0  0  0  0  0  0
   -4.7595   16.2374  -13.6550 H   0  0  0  0  0  0  0  0  0  0  0  0
   -2.7876   16.6646  -12.2876 H   0  0  0  0  0  0  0  0  0  0  0  0
   -3.0519   16.1015  -10.6025 H   0  0  0  0  0  0  0  0  0  0  0  0
   -1.9928   15.1617  -11.7078 H   0  0  0  0  0  0  0  0  0  0  0  0
  1  2  1  0  0  0  0
  1  4  1  0  0  0  0
  1 11  2  0  0  0  0
  2  6  2  0  0  0  0
  3  4  2  0  0  0  0
  3  5  1  0  0  0  0
  5  6  1  0  0  0  0
  5  9  2  0  0  0  0
  6  7  1  0  0  0  0
  7  8  1  0  0  0  0
  7 10  2  3  0  0  0
  8  9  1  0  0  0  0
 10 12  1  0  0  0  0
 11 24  1  0  0  0  0
 11 27  1  0  0  0  0
 12 13  2  0  0  0  0
 12 17  1  0  0  0  0
 13 14  1  0  0  0  0
 14 15  2  0  0  0  0
 15 16  1  0  0  0  0
 15 18  1  0  0  0  0
 16 17  2  0  0  0  0
 18 19  2  0  0  0  0
 18 22  1  0  0  0  0
 19 20  1  0  0  0  0
 20 21  1  0  0  0  0
 20 23  1  0  0  0  0
 21 22  2  0  0  0  0
 24 25  1  0  0  0  0
 25 26  1  0  0  0  0
 25 28  1  0  0  0  0
 26 27  2  0  0  0  0
  2 29  1  0  0  0  0
  3 30  1  0  0  0  0
  4 31  1  0  0  0  0
  8 32  1  0  0  0  0
 10 33  1  0  0  0  0
 13 34  1  0  0  0  0
 14 35  1  0  0  0  0
 16 36  1  0  0  0  0
 17 37  1  0  0  0  0
 19 38  1  0  0  0  0
 22 39  1  0  0  0  0
 23 40  1  0  0  0  0
 23 41  1  0  0  0  0
 23 42  1  0  0  0  0
 24 43  1  0  0  0  0
 24 44  1  0  0  0  0
 26 45  1  0  0  0  0
 28 46  1  0  0  0  0
 28 47  1  0  0  0  0
 28 48  1  0  0  0  0
M  END
> <Name>
21

> <IC50[uM]>
0.078

$$$$
21
  -OEChem-05192314333D
 Structure written by MMmdl.
 48 52  0     0  0  0  0  0  0999 V2000
   -6.3865   12.3338  -12.0432 C   0  0  0  0  0  0  0  0  0  0  0  0
   -6.4856   11.7841  -10.7704 C   0  0  0  0  0  0  0  0  0  0  0  0
   -7.7472   10.5643  -13.0426 C   0  0  0  0  0  0  0  0  0  0  0  0
   -7.0167   11.7500  -13.1460 C   0  0  0  0  0  0  0  0  0  0  0  0
   -7.8303   10.0081  -11.7598 C   0  0  0  0  0  0  0  0  0  0  0  0
   -7.2256   10.6149  -10.6156 C   0  0  0  0  0  0  0  0  0  0  0  0
   -7.6010    9.7518   -9.5145 C   0  0  0  0  0  0  0  0  0  0  0  0
   -8.2842    8.7423   -9.9828 N   0  0  0  0  0  0  0  0  0  0  0  0
   -8.4323    8.8733  -11.2925 N   0  0  0  0  0  0  0  0  0  0  0  0
   -7.3270    9.8938   -8.0225 C   0  0  0  0  0  0  0  0  0  0  0  0
   -5.5587   13.5285  -12.2266 C   0  0  0  0  0  0  0  0  0  0  0  0
   -5.9618   10.4909   -7.7327 C   0  0  0  0  0  0  0  0  0  0  0  0
   -5.8582   11.7635   -7.1652 C   0  0  0  0  0  0  0  0  0  0  0  0
   -4.6045   12.3140   -6.9191 C   0  0  0  0  0  0  0  0  0  0  0  0
   -3.4477   11.5945   -7.2362 C   0  0  0  0  0  0  0  0  0  0  0  0
   -3.5614   10.3184   -7.7958 C   0  0  0  0  0  0  0  0  0  0  0  0
   -4.8112    9.7685   -8.0438 C   0  0  0  0  0  0  0  0  0  0  0  0
   -2.1002   12.1716   -6.9783 C   0  0  0  0  0  0  0  0  0  0  0  0
   -1.7494   13.4275   -6.4902 C   0  0  0  0  0  0  0  0  0  0  0  0
   -0.4141   13.4605   -6.4332 N   0  0  0  0  0  0  0  0  0  0  0  0
    0.1744   12.3664   -6.8143 N   0  0  0  0  0  0  0  0  0  0  0  0
   -0.8092   11.5630   -7.1796 C   0  0  0  0  0  0  0  0  0  0  0  0
    0.4176   14.5730   -6.0003 C   0  0  0  0  0  0  0  0  0  0  0  0
   -4.4279   13.9049  -11.5130 C   0  0  0  0  0  0  0  0  0  0  0  0
   -4.0090   15.0294  -12.0677 N   0  0  0  0  0  0  0  0  0  0  0  0
   -4.8449   15.3445  -13.0534 C   0  0  0  0  0  0  0  0  0  0  0  0
   -5.7816   14.4464  -13.2081 N   0  0  0  0  0  0  0  0  0  0  0  0
   -2.9003   15.7800  -11.6435 C   0  0  0  0  0  0  0  0  0  0  0  0
   -6.0020   12.2509   -9.9250 H   0  0  0  0  0  0  0  0  0  0  0  0
   -8.2188   10.1047  -13.8986 H   0  0  0  0  0  0  0  0  0  0  0  0
   -6.9360   12.2316  -14.1093 H   0  0  0  0  0  0  0  0  0  0  0  0
   -8.6414    7.9853   -9.4357 H   0  0  0  0  0  0  0  0  0  0  0  0
   -8.0279    9.6014   -7.2546 H   0  0  0  0  0  0  0  0  0  0  0  0
   -6.7506   12.3193   -6.9178 H   0  0  0  0  0  0  0  0  0  0  0  0
   -4.5243   13.2985   -6.4825 H   0  0  0  0  0  0  0  0  0  0  0  0
   -3.4463   12.0375   -8.2430 H   0  0  0  0  0  0  0  0  0  0  0  0
   -2.6708    9.7569   -8.0367 H   0  0  0  0  0  0  0  0  0  0  0  0
   -4.8921    8.7825   -8.4771 H   0  0  0  0  0  0  0  0  0  0  0  0
   -2.4257   14.2220   -6.2113 H   0  0  0  0  0  0  0  0  0  0  0  0
   -0.6634   10.5708   -7.5804 H   0  0  0  0  0  0  0  0  0  0  0  0
    1.4777   14.2881   -6.0708 H   0  0  0  0  0  0  0  0  0  0  0  0
    0.2286   15.4443   -6.6446 H   0  0  0  0  0  0  0  0  0  0  0  0
    0.1751   14.8281   -4.9581 H   0  0  0  0  0  0  0  0  0  0  0  0
   -3.9826   13.3858  -10.6771 H   0  0  0  0  0  0  0  0  0  0  0  0
   -4.7595   16.2374  -13.6550 H   0  0  0  0  0  0  0  0  0  0  0  0
   -2.7876   16.6646  -12.2876 H   0  0  0  0  0  0  0  0  0  0  0  0
   -3.0519   16.1015  -10.6025 H   0  0  0  0  0  0  0  0  0  0  0  0
   -1.9928   15.1617  -11.7078 H   0  0  0  0  0  0  0  0  0  0  0  0
  1  2  2  0  0  0  0
  1  4  1  0  0  0  0
  1 11  1  0  0  0  0
  2  6  1  0  0  0  0
  3  4  2  0  0  0  0
  3  5  1  0  0  0  0
  5  6  1  0  0  0  0
  5  9  2  0  0  0  0
  6  7  2  0  0  0  0
  7  8  1  0  0  0  0
  7 10  1  0  0  0  0
  8  9  1  0  0  0  0
 10 12  2  0  0  0  0
 11 24  2  0  0  0  0
 11 27  1  0  0  0  0
 12 13  1  0  0  0  0
 12 17  1  0  0  0  0
 13 14  2  0  0  0  0
 14 15  1  0  0  0  0
 15 16  1  0  0  0  0
 15 18  1  0  0  0  0
 16 17  2  0  0  0  0
 18 19  2  0  0  0  0
 18 22  1  0  0  0  0
 19 20  1  0  0  0  0
 20 21  1  0  0  0  0
 20 23  1  0  0  0  0
 21 22  2  0  0  0  0
 24 25  1  0  0  0  0
 25 26  1  0  0  0  0
 25 28  1  0  0  0  0
 26 27  2  0  0  0  0
  2 29  1  0  0  0  0
  3 30  1  0  0  0  0
  4 31  1  0  0  0  0
  8 32  1  0  0  0  0
 10 33  1  0  0  0  0
 13 34  1  0  0  0  0
 14 35  1  0  0  0  0
 15 36  1  0  0  0  0
 16 37  1  0  0  0  0
 17 38  1  0  0  0  0
 19 39  1  0  0  0  0
 22 40  1  0  0  0  0
 23 41  1  0  0  0  0
 23 42  1  0  0  0  0
 23 43  1  0  0  0  0
 24 44  1  0  0  0  0
 26 45  1  0  0  0  0
 28 46  1  0  0  0  0
 28 47  1  0  0  0  0
 28 48  1  0  0  0  0
M  END
> <Name>
21

> <IC50[uM]>
0.078

$$$$
21
  -OEChem-05192314333D
 Structure written by MMmdl.
 48 52  0     0  0  0  0  0  0999 V2000
   -6.3865   12.3338  -12.0432 C   0  0  0  0  0  0  0  0  0  0  0  0
   -6.4856   11.7841  -10.7704 C   0  0  0  0  0  0  0  0  0  0  0  0
   -7.7472   10.5643  -13.0426 C   0  0  0  0  0  0  0  0  0  0  0  0
   -7.0167   11.7500  -13.1460 C   0  0  0  0  0  0  0  0  0  0  0  0
   -7.8303   10.0081  -11.7598 C   0  0  0  0  0  0  0  0  0  0  0  0
   -7.2256   10.6149  -10.6156 C   0  0  0  0  0  0  0  0  0  0  0  0
   -7.6010    9.7518   -9.5145 C   0  0  0  0  0  0  0  0  0  0  0  0
   -8.2842    8.7423   -9.9828 N   0  0  0  0  0  0  0  0  0  0  0  0
   -8.4323    8.8733  -11.2925 N   0  0  0  0  0  0  0  0  0  0  0  0
   -7.3270    9.8938   -8.0225 C   0  0  0  0  0  0  0  0  0  0  0  0
   -5.5587   13.5285  -12.2266 C   0  0  0  0  0  0  0  0  0  0  0  0
   -5.9618   10.4909   -7.7327 C   0  0  0  0  0  0  0  0  0  0  0  0
   -5.8582   11.7635   -7.1652 C   0  0  0  0  0  0  0  0  0  0  0  0
   -4.6045   12.3140   -6.9191 C   0  0  0  0  0  0  0  0  0  0  0  0
   -3.4477   11.5945   -7.2362 C   0  0  0  0  0  0  0  0  0  0  0  0
   -3.5614   10.3184   -7.7958 C   0  0  0  0  0  0  0  0  0  0  0  0
   -4.8112    9.7685   -8.0438 C   0  0  0  0  0  0  0  0  0  0  0  0
   -2.1002   12.1716   -6.9783 C   0  0  0  0  0  0  0  0  0  0  0  0
   -1.7494   13.4275   -6.4902 C   0  0  0  0  0  0  0  0  0  0  0  0
   -0.4141   13.4605   -6.4332 N   0  0  0  0  0  0  0  0  0  0  0  0
    0.1744   12.3664   -6.8143 N   0  0  0  0  0  0  0  0  0  0  0  0
   -0.8092   11.5630   -7.1796 C   0  0  0  0  0  0  0  0  0  0  0  0
    0.4176   14.5730   -6.0003 C   0  0  0  0  0  0  0  0  0  0  0  0
   -4.4279   13.9049  -11.5130 C   0  0  0  0  0  0  0  0  0  0  0  0
   -4.0090   15.0294  -12.0677 N   0  0  0  0  0  0  0  0  0  0  0  0
   -4.8449   15.3445  -13.0534 C   0  0  0  0  0  0  0  0  0  0  0  0
   -5.7816   14.4464  -13.2081 N   0  0  0  0  0  0  0  0  0  0  0  0
   -2.9003   15.7800  -11.6435 C   0  0  0  0  0  0  0  0  0  0  0  0
   -6.0020   12.2509   -9.9250 H   0  0  0  0  0  0  0  0  0  0  0  0
   -8.2188   10.1047  -13.8986 H   0  0  0  0  0  0  0  0  0  0  0  0
   -6.9360   12.2316  -14.1093 H   0  0  0  0  0  0  0  0  0  0  0  0
   -8.9246    8.2214  -11.8692 H   0  0  0  0  0  0  0  0  0  0  0  0
   -8.0279    9.6014   -7.2546 H   0  0  0  0  0  0  0  0  0  0  0  0
   -6.7506   12.3193   -6.9178 H   0  0  0  0  0  0  0  0  0  0  0  0
   -4.5243   13.2985   -6.4825 H   0  0  0  0  0  0  0  0  0  0  0  0
   -3.4463   12.0375   -8.2430 H   0  0  0  0  0  0  0  0  0  0  0  0
   -2.6708    9.7569   -8.0367 H   0  0  0  0  0  0  0  0  0  0  0  0
   -4.8921    8.7825   -8.4771 H   0  0  0  0  0  0  0  0  0  0  0  0
   -2.4257   14.2220   -6.2113 H   0  0  0  0  0  0  0  0  0  0  0  0
   -0.6634   10.5708   -7.5804 H   0  0  0  0  0  0  0  0  0  0  0  0
    1.4777   14.2881   -6.0708 H   0  0  0  0  0  0  0  0  0  0  0  0
    0.2286   15.4443   -6.6446 H   0  0  0  0  0  0  0  0  0  0  0  0
    0.1751   14.8281   -4.9581 H   0  0  0  0  0  0  0  0  0  0  0  0
   -3.9826   13.3858  -10.6771 H   0  0  0  0  0  0  0  0  0  0  0  0
   -4.7595   16.2374  -13.6550 H   0  0  0  0  0  0  0  0  0  0  0  0
   -2.7876   16.6646  -12.2876 H   0  0  0  0  0  0  0  0  0  0  0  0
   -3.0519   16.1015  -10.6025 H   0  0  0  0  0  0  0  0  0  0  0  0
   -1.9928   15.1617  -11.7078 H   0  0  0  0  0  0  0  0  0  0  0  0
  1  2  2  0  0  0  0
  1  4  1  0  0  0  0
  1 11  1  0  0  0  0
  2  6  1  0  0  0  0
  3  4  2  0  0  0  0
  3  5  1  0  0  0  0
  5  6  2  0  0  0  0
  5  9  1  0  0  0  0
  6  7  1  0  0  0  0
  7  8  2  0  0  0  0
  7 10  1  0  0  0  0
  8  9  1  0  0  0  0
 10 12  2  0  0  0  0
 11 24  2  0  0  0  0
 11 27  1  0  0  0  0
 12 13  1  0  0  0  0
 12 17  1  0  0  0  0
 13 14  2  0  0  0  0
 14 15  1  0  0  0  0
 15 16  1  0  0  0  0
 15 18  1  0  0  0  0
 16 17  2  0  0  0  0
 18 19  2  0  0  0  0
 18 22  1  0  0  0  0
 19 20  1  0  0  0  0
 20 21  1  0  0  0  0
 20 23  1  0  0  0  0
 21 22  2  0  0  0  0
 24 25  1  0  0  0  0
 25 26  1  0  0  0  0
 25 28  1  0  0  0  0
 26 27  2  0  0  0  0
  2 29  1  0  0  0  0
  3 30  1  0  0  0  0
  4 31  1  0  0  0  0
  9 32  1  0  0  0  0
 10 33  1  0  0  0  0
 13 34  1  0  0  0  0
 14 35  1  0  0  0  0
 15 36  1  0  0  0  0
 16 37  1  0  0  0  0
 17 38  1  0  0  0  0
 19 39  1  0  0  0  0
 22 40  1  0  0  0  0
 23 41  1  0  0  0  0
 23 42  1  0  0  0  0
 23 43  1  0  0  0  0
 24 44  1  0  0  0  0
 26 45  1  0  0  0  0
 28 46  1  0  0  0  0
 28 47  1  0  0  0  0
 28 48  1  0  0  0  0
M  END
> <Name>
21

> <IC50[uM]>
0.078

$$$$
21
  -OEChem-05192314333D
 Structure written by MMmdl.
 48 52  0     0  0  0  0  0  0999 V2000
   -6.3865   12.3338  -12.0432 C   0  0  0  0  0  0  0  0  0  0  0  0
   -6.4856   11.7841  -10.7704 C   0  0  0  0  0  0  0  0  0  0  0  0
   -7.7472   10.5643  -13.0426 C   0  0  0  0  0  0  0  0  0  0  0  0
   -7.0167   11.7500  -13.1460 C   0  0  0  0  0  0  0  0  0  0  0  0
   -7.8303   10.0081  -11.7598 C   0  0  0  0  0  0  0  0  0  0  0  0
   -7.2256   10.6149  -10.6156 C   0  0  0  0  0  0  0  0  0  0  0  0
   -7.6010    9.7518   -9.5145 C   0  0  0  0  0  0  0  0  0  0  0  0
   -8.2842    8.7423   -9.9828 N   0  0  0  0  0  0  0  0  0  0  0  0
   -8.4323    8.8733  -11.2925 N   0  0  0  0  0  0  0  0  0  0  0  0
   -7.3270    9.8938   -8.0225 C   0  0  0  0  0  0  0  0  0  0  0  0
   -5.5587   13.5285  -12.2266 C   0  0  0  0  0  0  0  0  0  0  0  0
   -5.9618   10.4909   -7.7327 C   0  0  0  0  0  0  0  0  0  0  0  0
   -5.8582   11.7635   -7.1652 C   0  0  0  0  0  0  0  0  0  0  0  0
   -4.6045   12.3140   -6.9191 C   0  0  0  0  0  0  0  0  0  0  0  0
   -3.4477   11.5945   -7.2362 C   0  0  0  0  0  0  0  0  0  0  0  0
   -3.5614   10.3184   -7.7958 C   0  0  0  0  0  0  0  0  0  0  0  0
   -4.8112    9.7685   -8.0438 C   0  0  0  0  0  0  0  0  0  0  0  0
   -2.1002   12.1716   -6.9783 C   0  0  0  0  0  0  0  0  0  0  0  0
   -1.7494   13.4275   -6.4902 C   0  0  0  0  0  0  0  0  0  0  0  0
   -0.4141   13.4605   -6.4332 N   0  0  0  0  0  0  0  0  0  0  0  0
    0.1744   12.3664   -6.8143 N   0  0  0  0  0  0  0  0  0  0  0  0
   -0.8092   11.5630   -7.1796 C   0  0  0  0  0  0  0  0  0  0  0  0
    0.4176   14.5730   -6.0003 C   0  0  0  0  0  0  0  0  0  0  0  0
   -4.4279   13.9049  -11.5130 C   0  0  0  0  0  0  0  0  0  0  0  0
   -4.0090   15.0294  -12.0677 N   0  0  0  0  0  0  0  0  0  0  0  0
   -4.8449   15.3445  -13.0534 C   0  0  0  0  0  0  0  0  0  0  0  0
   -5.7816   14.4464  -13.2081 N   0  0  0  0  0  0  0  0  0  0  0  0
   -2.9003   15.7800  -11.6435 C   0  0  0  0  0  0  0  0  0  0  0  0
   -6.0020   12.2509   -9.9250 H   0  0  0  0  0  0  0  0  0  0  0  0
   -8.2188   10.1047  -13.8986 H   0  0  0  0  0  0  0  0  0  0  0  0
   -6.9360   12.2316  -14.1093 H   0  0  0  0  0  0  0  0  0  0  0  0
   -8.6414    7.9853   -9.4357 H   0  0  0  0  0  0  0  0  0  0  0  0
   -8.0279    9.6014   -7.2546 H   0  0  0  0  0  0  0  0  0  0  0  0
   -6.7506   12.3193   -6.9178 H   0  0  0  0  0  0  0  0  0  0  0  0
   -4.5243   13.2985   -6.4825 H   0  0  0  0  0  0  0  0  0  0  0  0
   -2.6708    9.7569   -8.0367 H   0  0  0  0  0  0  0  0  0  0  0  0
   -4.8631    8.8277   -7.4762 H   0  0  0  0  0  0  0  0  0  0  0  0
   -4.8544    9.5498   -9.1210 H   0  0  0  0  0  0  0  0  0  0  0  0
   -2.4257   14.2220   -6.2113 H   0  0  0  0  0  0  0  0  0  0  0  0
   -0.6634   10.5708   -7.5804 H   0  0  0  0  0  0  0  0  0  0  0  0
    1.4777   14.2881   -6.0708 H   0  0  0  0  0  0  0  0  0  0  0  0
    0.2286   15.4443   -6.6446 H   0  0  0  0  0  0  0  0  0  0  0  0
    0.1751   14.8281   -4.9581 H   0  0  0  0  0  0  0  0  0  0  0  0
   -3.9826   13.3858  -10.6771 H   0  0  0  0  0  0  0  0  0  0  0  0
   -4.7595   16.2374  -13.6550 H   0  0  0  0  0  0  0  0  0  0  0  0
   -2.7876   16.6646  -12.2876 H   0  0  0  0  0  0  0  0  0  0  0  0
   -3.0519   16.1015  -10.6025 H   0  0  0  0  0  0  0  0  0  0  0  0
   -1.9928   15.1617  -11.7078 H   0  0  0  0  0  0  0  0  0  0  0  0
  1  2  2  0  0  0  0
  1  4  1  0  0  0  0
  1 11  1  0  0  0  0
  2  6  1  0  0  0  0
  3  4  2  0  0  0  0
  3  5  1  0  0  0  0
  5  6  1  0  0  0  0
  5  9  2  0  0  0  0
  6  7  2  0  0  0  0
  7  8  1  0  0  0  0
  7 10  1  0  0  0  0
  8  9  1  0  0  0  0
 10 12  2  3  0  0  0
 11 24  2  0  0  0  0
 11 27  1  0  0  0  0
 12 13  1  0  0  0  0
 12 17  1  0  0  0  0
 13 14  2  0  0  0  0
 14 15  1  0  0  0  0
 15 16  2  0  0  0  0
 15 18  1  0  0  0  0
 16 17  1  0  0  0  0
 18 19  2  0  0  0  0
 18 22  1  0  0  0  0
 19 20  1  0  0  0  0
 20 21  1  0  0  0  0
 20 23  1  0  0  0  0
 21 22  2  0  0  0  0
 24 25  1  0  0  0  0
 25 26  1  0  0  0  0
 25 28  1  0  0  0  0
 26 27  2  0  0  0  0
  2 29  1  0  0  0  0
  3 30  1  0  0  0  0
  4 31  1  0  0  0  0
  8 32  1  0  0  0  0
 10 33  1  0  0  0  0
 13 34  1  0  0  0  0
 14 35  1  0  0  0  0
 16 36  1  0  0  0  0
 17 37  1  0  0  0  0
 17 38  1  0  0  0  0
 19 39  1  0  0  0  0
 22 40  1  0  0  0  0
 23 41  1  0  0  0  0
 23 42  1  0  0  0  0
 23 43  1  0  0  0  0
 24 44  1  0  0  0  0
 26 45  1  0  0  0  0
 28 46  1  0  0  0  0
 28 47  1  0  0  0  0
 28 48  1  0  0  0  0
M  END
> <Name>
21

> <IC50[uM]>
0.078

$$$$
21
  -OEChem-05192314333D
 Structure written by MMmdl.
 48 52  0     0  0  0  0  0  0999 V2000
   -6.3865   12.3338  -12.0432 C   0  0  0  0  0  0  0  0  0  0  0  0
   -6.4856   11.7841  -10.7704 C   0  0  0  0  0  0  0  0  0  0  0  0
   -7.7472   10.5643  -13.0426 C   0  0  0  0  0  0  0  0  0  0  0  0
   -7.0167   11.7500  -13.1460 C   0  0  0  0  0  0  0  0  0  0  0  0
   -7.8303   10.0081  -11.7598 C   0  0  0  0  0  0  0  0  0  0  0  0
   -7.2256   10.6149  -10.6156 C   0  0  0  0  0  0  0  0  0  0  0  0
   -7.6010    9.7518   -9.5145 C   0  0  0  0  0  0  0  0  0  0  0  0
   -8.2842    8.7423   -9.9828 N   0  0  0  0  0  0  0  0  0  0  0  0
   -8.4323    8.8733  -11.2925 N   0  0  0  0  0  0  0  0  0  0  0  0
   -7.3270    9.8938   -8.0225 C   0  0  0  0  0  0  0  0  0  0  0  0
   -5.5587   13.5285  -12.2266 C   0  0  0  0  0  0  0  0  0  0  0  0
   -5.9618   10.4909   -7.7327 C   0  0  0  0  0  0  0  0  0  0  0  0
   -5.8582   11.7635   -7.1652 C   0  0  0  0  0  0  0  0  0  0  0  0
   -4.6045   12.3140   -6.9191 C   0  0  0  0  0  0  0  0  0  0  0  0
   -3.4477   11.5945   -7.2362 C   0  0  0  0  0  0  0  0  0  0  0  0
   -3.5614   10.3184   -7.7958 C   0  0  0  0  0  0  0  0  0  0  0  0
   -4.8112    9.7685   -8.0438 C   0  0  0  0  0  0  0  0  0  0  0  0
   -2.1002   12.1716   -6.9783 C   0  0  0  0  0  0  0  0  0  0  0  0
   -1.7494   13.4275   -6.4902 C   0  0  0  0  0  0  0  0  0  0  0  0
   -0.4141   13.4605   -6.4332 N   0  0  0  0  0  0  0  0  0  0  0  0
    0.1744   12.3664   -6.8143 N   0  0  0  0  0  0  0  0  0  0  0  0
   -0.8092   11.5630   -7.1796 C   0  0  0  0  0  0  0  0  0  0  0  0
    0.4176   14.5730   -6.0003 C   0  0  0  0  0  0  0  0  0  0  0  0
   -4.4279   13.9049  -11.5130 C   0  0  0  0  0  0  0  0  0  0  0  0
   -4.0090   15.0294  -12.0677 N   0  0  0  0  0  0  0  0  0  0  0  0
   -4.8449   15.3445  -13.0534 C   0  0  0  0  0  0  0  0  0  0  0  0
   -5.7816   14.4464  -13.2081 N   0  0  0  0  0  0  0  0  0  0  0  0
   -2.9003   15.7800  -11.6435 C   0  0  0  0  0  0  0  0  0  0  0  0
   -6.0020   12.2509   -9.9250 H   0  0  0  0  0  0  0  0  0  0  0  0
   -8.2188   10.1047  -13.8986 H   0  0  0  0  0  0  0  0  0  0  0  0
   -6.9360   12.2316  -14.1093 H   0  0  0  0  0  0  0  0  0  0  0  0
   -8.9246    8.2214  -11.8692 H   0  0  0  0  0  0  0  0  0  0  0  0
   -8.0279    9.6014   -7.2546 H   0  0  0  0  0  0  0  0  0  0  0  0
   -6.7506   12.3193   -6.9178 H   0  0  0  0  0  0  0  0  0  0  0  0
   -4.5243   13.2985   -6.4825 H   0  0  0  0  0  0  0  0  0  0  0  0
   -2.6708    9.7569   -8.0367 H   0  0  0  0  0  0  0  0  0  0  0  0
   -4.8631    8.8277   -7.4762 H   0  0  0  0  0  0  0  0  0  0  0  0
   -4.8544    9.5498   -9.1210 H   0  0  0  0  0  0  0  0  0  0  0  0
   -2.4257   14.2220   -6.2113 H   0  0  0  0  0  0  0  0  0  0  0  0
   -0.6634   10.5708   -7.5804 H   0  0  0  0  0  0  0  0  0  0  0  0
    1.4777   14.2881   -6.0708 H   0  0  0  0  0  0  0  0  0  0  0  0
    0.2286   15.4443   -6.6446 H   0  0  0  0  0  0  0  0  0  0  0  0
    0.1751   14.8281   -4.9581 H   0  0  0  0  0  0  0  0  0  0  0  0
   -3.9826   13.3858  -10.6771 H   0  0  0  0  0  0  0  0  0  0  0  0
   -4.7595   16.2374  -13.6550 H   0  0  0  0  0  0  0  0  0  0  0  0
   -2.7876   16.6646  -12.2876 H   0  0  0  0  0  0  0  0  0  0  0  0
   -3.0519   16.1015  -10.6025 H   0  0  0  0  0  0  0  0  0  0  0  0
   -1.9928   15.1617  -11.7078 H   0  0  0  0  0  0  0  0  0  0  0  0
  1  2  2  0  0  0  0
  1  4  1  0  0  0  0
  1 11  1  0  0  0  0
  2  6  1  0  0  0  0
  3  4  2  0  0  0  0
  3  5  1  0  0  0  0
  5  6  2  0  0  0  0
  5  9  1  0  0  0  0
  6  7  1  0  0  0  0
  7  8  2  0  0  0  0
  7 10  1  0  0  0  0
  8  9  1  0  0  0  0
 10 12  2  3  0  0  0
 11 24  2  0  0  0  0
 11 27  1  0  0  0  0
 12 13  1  0  0  0  0
 12 17  1  0  0  0  0
 13 14  2  0  0  0  0
 14 15  1  0  0  0  0
 15 16  2  0  0  0  0
 15 18  1  0  0  0  0
 16 17  1  0  0  0  0
 18 19  2  0  0  0  0
 18 22  1  0  0  0  0
 19 20  1  0  0  0  0
 20 21  1  0  0  0  0
 20 23  1  0  0  0  0
 21 22  2  0  0  0  0
 24 25  1  0  0  0  0
 25 26  1  0  0  0  0
 25 28  1  0  0  0  0
 26 27  2  0  0  0  0
  2 29  1  0  0  0  0
  3 30  1  0  0  0  0
  4 31  1  0  0  0  0
  9 32  1  0  0  0  0
 10 33  1  0  0  0  0
 13 34  1  0  0  0  0
 14 35  1  0  0  0  0
 16 36  1  0  0  0  0
 17 37  1  0  0  0  0
 17 38  1  0  0  0  0
 19 39  1  0  0  0  0
 22 40  1  0  0  0  0
 23 41  1  0  0  0  0
 23 42  1  0  0  0  0
 23 43  1  0  0  0  0
 24 44  1  0  0  0  0
 26 45  1  0  0  0  0
 28 46  1  0  0  0  0
 28 47  1  0  0  0  0
 28 48  1  0  0  0  0
M  END
> <Name>
21

> <IC50[uM]>
0.078

$$$$
21
  -OEChem-05192314333D
 Structure written by MMmdl.
 48 52  0     1  0  0  0  0  0999 V2000
   -6.3865   12.3338  -12.0432 C   0  0  0  0  0  0  0  0  0  0  0  0
   -6.4856   11.7841  -10.7704 C   0  0  0  0  0  0  0  0  0  0  0  0
   -7.7472   10.5643  -13.0426 C   0  0  0  0  0  0  0  0  0  0  0  0
   -7.0167   11.7500  -13.1460 C   0  0  0  0  0  0  0  0  0  0  0  0
   -7.8303   10.0081  -11.7598 C   0  0  0  0  0  0  0  0  0  0  0  0
   -7.2256   10.6149  -10.6156 C   0  0  0  0  0  0  0  0  0  0  0  0
   -7.6010    9.7518   -9.5145 C   0  0  0  0  0  0  0  0  0  0  0  0
   -8.2842    8.7423   -9.9828 N   0  0  0  0  0  0  0  0  0  0  0  0
   -8.4323    8.8733  -11.2925 N   0  0  0  0  0  0  0  0  0  0  0  0
   -7.3270    9.8938   -8.0225 C   0  0  0  0  0  0  0  0  0  0  0  0
   -5.5587   13.5285  -12.2266 C   0  0  0  0  0  0  0  0  0  0  0  0
   -5.9618   10.4909   -7.7327 C   0  0  0  0  0  0  0  0  0  0  0  0
   -5.8582   11.7635   -7.1652 C   0  0  0  0  0  0  0  0  0  0  0  0
   -4.6045   12.3140   -6.9191 C   0  0  0  0  0  0  0  0  0  0  0  0
   -3.4477   11.5945   -7.2362 C   0  0  0  0  0  0  0  0  0  0  0  0
   -3.5614   10.3184   -7.7958 C   0  0  0  0  0  0  0  0  0  0  0  0
   -4.8112    9.7685   -8.0438 C   0  0  0  0  0  0  0  0  0  0  0  0
   -2.1002   12.1716   -6.9783 C   0  0  3  0  0  0  0  0  0  0  0  0
   -1.7494   13.4275   -6.4902 C   0  0  0  0  0  0  0  0  0  0  0  0
   -0.4141   13.4605   -6.4332 N   0  0  3  0  0  0  0  0  0  0  0  0
    0.1744   12.3664   -6.8143 N   0  0  0  0  0  0  0  0  0  0  0  0
   -0.8092   11.5630   -7.1796 C   0  0  0  0  0  0  0  0  0  0  0  0
    0.4176   14.5730   -6.0003 C   0  0  0  0  0  0  0  0  0  0  0  0
   -4.4279   13.9049  -11.5130 C   0  0  0  0  0  0  0  0  0  0  0  0
   -4.0090   15.0294  -12.0677 N   0  0  0  0  0  0  0  0  0  0  0  0
   -4.8449   15.3445  -13.0534 C   0  0  0  0  0  0  0  0  0  0  0  0
   -5.7816   14.4464  -13.2081 N   0  0  0  0  0  0  0  0  0  0  0  0
   -2.9003   15.7800  -11.6435 C   0  0  0  0  0  0  0  0  0  0  0  0
   -6.0020   12.2509   -9.9250 H   0  0  0  0  0  0  0  0  0  0  0  0
   -8.2188   10.1047  -13.8986 H   0  0  0  0  0  0  0  0  0  0  0  0
   -6.9360   12.2316  -14.1093 H   0  0  0  0  0  0  0  0  0  0  0  0
   -8.0279    9.6014   -7.2546 H   0  0  0  0  0  0  0  0  0  0  0  0
   -6.7506   12.3193   -6.9178 H   0  0  0  0  0  0  0  0  0  0  0  0
   -4.5243   13.2985   -6.4825 H   0  0  0  0  0  0  0  0  0  0  0  0
   -2.6708    9.7569   -8.0367 H   0  0  0  0  0  0  0  0  0  0  0  0
   -4.8921    8.7825   -8.4771 H   0  0  0  0  0  0  0  0  0  0  0  0
   -2.1269   11.7784   -5.9513 H   0  0  0  0  0  0  0  0  0  0  0  0
   -2.1191   14.2131   -7.1656 H   0  0  0  0  0  0  0  0  0  0  0  0
   -2.1751   13.5763   -5.4869 H   0  0  0  0  0  0  0  0  0  0  0  0
   -0.6634   10.5708   -7.5804 H   0  0  0  0  0  0  0  0  0  0  0  0
    1.4777   14.2881   -6.0708 H   0  0  0  0  0  0  0  0  0  0  0  0
    0.2286   15.4443   -6.6446 H   0  0  0  0  0  0  0  0  0  0  0  0
    0.1751   14.8281   -4.9581 H   0  0  0  0  0  0  0  0  0  0  0  0
   -3.9826   13.3858  -10.6771 H   0  0  0  0  0  0  0  0  0  0  0  0
   -4.7595   16.2374  -13.6550 H   0  0  0  0  0  0  0  0  0  0  0  0
   -2.7876   16.6646  -12.2876 H   0  0  0  0  0  0  0  0  0  0  0  0
   -3.0519   16.1015  -10.6025 H   0  0  0  0  0  0  0  0  0  0  0  0
   -1.9928   15.1617  -11.7078 H   0  0  0  0  0  0  0  0  0  0  0  0
  1  2  2  0  0  0  0
  1  4  1  0  0  0  0
  1 11  1  0  0  0  0
  2  6  1  0  0  0  0
  3  4  2  0  0  0  0
  3  5  1  0  0  0  0
  5  6  2  0  0  0  0
  5  9  1  0  0  0  0
  6  7  1  0  0  0  0
  7  8  1  0  0  0  0
  7 10  2  3  0  0  0
  8  9  2  0  0  0  0
 10 12  1  0  0  0  0
 11 24  2  0  0  0  0
 11 27  1  0  0  0  0
 12 13  2  0  0  0  0
 12 17  1  0  0  0  0
 13 14  1  0  0  0  0
 14 15  2  0  0  0  0
 15 16  1  0  0  0  0
 15 18  1  0  0  0  0
 16 17  2  0  0  0  0
 18 19  1  0  0  0  0
 18 22  1  0  0  0  0
 19 20  1  0  0  0  0
 20 21  1  0  0  0  0
 20 23  1  0  0  0  0
 21 22  2  0  0  0  0
 24 25  1  0  0  0  0
 25 26  1  0  0  0  0
 25 28  1  0  0  0  0
 26 27  2  0  0  0  0
  2 29  1  0  0  0  0
  3 30  1  0  0  0  0
  4 31  1  0  0  0  0
 10 32  1  0  0  0  0
 13 33  1  0  0  0  0
 14 34  1  0  0  0  0
 16 35  1  0  0  0  0
 17 36  1  0  0  0  0
 18 37  1  0  0  0  0
 19 38  1  0  0  0  0
 19 39  1  0  0  0  0
 22 40  1  0  0  0  0
 23 41  1  0  0  0  0
 23 42  1  0  0  0  0
 23 43  1  0  0  0  0
 24 44  1  0  0  0  0
 26 45  1  0  0  0  0
 28 46  1  0  0  0  0
 28 47  1  0  0  0  0
 28 48  1  0  0  0  0
M  END
> <Name>
21

> <IC50[uM]>
0.078

$$$$
21
  -OEChem-05192314333D
 Structure written by MMmdl.
 48 52  0     1  0  0  0  0  0999 V2000
   -6.3865   12.3338  -12.0432 C   0  0  0  0  0  0  0  0  0  0  0  0
   -6.4856   11.7841  -10.7704 C   0  0  0  0  0  0  0  0  0  0  0  0
   -7.7472   10.5643  -13.0426 C   0  0  0  0  0  0  0  0  0  0  0  0
   -7.0167   11.7500  -13.1460 C   0  0  0  0  0  0  0  0  0  0  0  0
   -7.8303   10.0081  -11.7598 C   0  0  0  0  0  0  0  0  0  0  0  0
   -7.2256   10.6149  -10.6156 C   0  0  0  0  0  0  0  0  0  0  0  0
   -7.6010    9.7518   -9.5145 C   0  0  0  0  0  0  0  0  0  0  0  0
   -8.2842    8.7423   -9.9828 N   0  0  0  0  0  0  0  0  0  0  0  0
   -8.4323    8.8733  -11.2925 N   0  0  0  0  0  0  0  0  0  0  0  0
   -7.3270    9.8938   -8.0225 C   0  0  0  0  0  0  0  0  0  0  0  0
   -5.5587   13.5285  -12.2266 C   0  0  3  0  0  0  0  0  0  0  0  0
   -5.9618   10.4909   -7.7327 C   0  0  0  0  0  0  0  0  0  0  0  0
   -5.8582   11.7635   -7.1652 C   0  0  0  0  0  0  0  0  0  0  0  0
   -4.6045   12.3140   -6.9191 C   0  0  0  0  0  0  0  0  0  0  0  0
   -3.4477   11.5945   -7.2362 C   0  0  0  0  0  0  0  0  0  0  0  0
   -3.5614   10.3184   -7.7958 C   0  0  0  0  0  0  0  0  0  0  0  0
   -4.8112    9.7685   -8.0438 C   0  0  0  0  0  0  0  0  0  0  0  0
   -2.1002   12.1716   -6.9783 C   0  0  0  0  0  0  0  0  0  0  0  0
   -1.7494   13.4275   -6.4902 C   0  0  0  0  0  0  0  0  0  0  0  0
   -0.4141   13.4605   -6.4332 N   0  0  0  0  0  0  0  0  0  0  0  0
    0.1744   12.3664   -6.8143 N   0  0  0  0  0  0  0  0  0  0  0  0
   -0.8092   11.5630   -7.1796 C   0  0  0  0  0  0  0  0  0  0  0  0
    0.4176   14.5730   -6.0003 C   0  0  0  0  0  0  0  0  0  0  0  0
   -4.4279   13.9049  -11.5130 C   0  0  0  0  0  0  0  0  0  0  0  0
   -4.0090   15.0294  -12.0677 N   0  0  0  0  0  0  0  0  0  0  0  0
   -4.8449   15.3445  -13.0534 C   0  0  0  0  0  0  0  0  0  0  0  0
   -5.7816   14.4464  -13.2081 N   0  0  0  0  0  0  0  0  0  0  0  0
   -2.9003   15.7800  -11.6435 C   0  0  0  0  0  0  0  0  0  0  0  0
   -6.0020   12.2509   -9.9250 H   0  0  0  0  0  0  0  0  0  0  0  0
   -8.2188   10.1047  -13.8986 H   0  0  0  0  0  0  0  0  0  0  0  0
   -6.9360   12.2316  -14.1093 H   0  0  0  0  0  0  0  0  0  0  0  0
   -8.0279    9.6014   -7.2546 H   0  0  0  0  0  0  0  0  0  0  0  0
   -6.1997   14.0939  -11.5341 H   0  0  0  0  0  0  0  0  0  0  0  0
   -6.7506   12.3193   -6.9178 H   0  0  0  0  0  0  0  0  0  0  0  0
   -4.5243   13.2985   -6.4825 H   0  0  0  0  0  0  0  0  0  0  0  0
   -2.6708    9.7569   -8.0367 H   0  0  0  0  0  0  0  0  0  0  0  0
   -4.8921    8.7825   -8.4771 H   0  0  0  0  0  0  0  0  0  0  0  0
   -2.4257   14.2220   -6.2113 H   0  0  0  0  0  0  0  0  0  0  0  0
   -0.6634   10.5708   -7.5804 H   0  0  0  0  0  0  0  0  0  0  0  0
    1.4777   14.2881   -6.0708 H   0  0  0  0  0  0  0  0  0  0  0  0
    0.2286   15.4443   -6.6446 H   0  0  0  0  0  0  0  0  0  0  0  0
    0.1751   14.8281   -4.9581 H   0  0  0  0  0  0  0  0  0  0  0  0
   -4.6802   14.0705  -10.4552 H   0  0  0  0  0  0  0  0  0  0  0  0
   -3.6520   13.1288  -11.5878 H   0  0  0  0  0  0  0  0  0  0  0  0
   -4.7595   16.2374  -13.6550 H   0  0  0  0  0  0  0  0  0  0  0  0
   -2.7876   16.6646  -12.2876 H   0  0  0  0  0  0  0  0  0  0  0  0
   -3.0519   16.1015  -10.6025 H   0  0  0  0  0  0  0  0  0  0  0  0
   -1.9928   15.1617  -11.7078 H   0  0  0  0  0  0  0  0  0  0  0  0
  1  2  2  0  0  0  0
  1  4  1  0  0  0  0
  1 11  1  0  0  0  0
  2  6  1  0  0  0  0
  3  4  2  0  0  0  0
  3  5  1  0  0  0  0
  5  6  2  0  0  0  0
  5  9  1  0  0  0  0
  6  7  1  0  0  0  0
  7  8  1  0  0  0  0
  7 10  2  3  0  0  0
  8  9  2  0  0  0  0
 10 12  1  0  0  0  0
 11 24  1  0  0  0  0
 11 27  1  0  0  0  0
 12 13  2  0  0  0  0
 12 17  1  0  0  0  0
 13 14  1  0  0  0  0
 14 15  2  0  0  0  0
 15 16  1  0  0  0  0
 15 18  1  0  0  0  0
 16 17  2  0  0  0  0
 18 19  2  0  0  0  0
 18 22  1  0  0  0  0
 19 20  1  0  0  0  0
 20 21  1  0  0  0  0
 20 23  1  0  0  0  0
 21 22  2  0  0  0  0
 24 25  1  0  0  0  0
 25 26  1  0  0  0  0
 25 28  1  0  0  0  0
 26 27  2  0  0  0  0
  2 29  1  0  0  0  0
  3 30  1  0  0  0  0
  4 31  1  0  0  0  0
 10 32  1  0  0  0  0
 11 33  1  0  0  0  0
 13 34  1  0  0  0  0
 14 35  1  0  0  0  0
 16 36  1  0  0  0  0
 17 37  1  0  0  0  0
 19 38  1  0  0  0  0
 22 39  1  0  0  0  0
 23 40  1  0  0  0  0
 23 41  1  0  0  0  0
 23 42  1  0  0  0  0
 24 43  1  0  0  0  0
 24 44  1  0  0  0  0
 26 45  1  0  0  0  0
 28 46  1  0  0  0  0
 28 47  1  0  0  0  0
 28 48  1  0  0  0  0
M  END
> <Name>
21

> <IC50[uM]>
0.078

$$$$
21
  -OEChem-05192314333D
 Structure written by MMmdl.
 48 52  0     1  0  0  0  0  0999 V2000
   -6.3865   12.3338  -12.0432 C   0  0  0  0  0  0  0  0  0  0  0  0
   -6.4856   11.7841  -10.7704 C   0  0  0  0  0  0  0  0  0  0  0  0
   -7.7472   10.5643  -13.0426 C   0  0  0  0  0  0  0  0  0  0  0  0
   -7.0167   11.7500  -13.1460 C   0  0  0  0  0  0  0  0  0  0  0  0
   -7.8303   10.0081  -11.7598 C   0  0  0  0  0  0  0  0  0  0  0  0
   -7.2256   10.6149  -10.6156 C   0  0  0  0  0  0  0  0  0  0  0  0
   -7.6010    9.7518   -9.5145 C   0  0  0  0  0  0  0  0  0  0  0  0
   -8.2842    8.7423   -9.9828 N   0  0  0  0  0  0  0  0  0  0  0  0
   -8.4323    8.8733  -11.2925 N   0  0  0  0  0  0  0  0  0  0  0  0
   -7.3270    9.8938   -8.0225 C   0  0  0  0  0  0  0  0  0  0  0  0
   -5.5587   13.5285  -12.2266 C   0  0  0  0  0  0  0  0  0  0  0  0
   -5.9618   10.4909   -7.7327 C   0  0  0  0  0  0  0  0  0  0  0  0
   -5.8582   11.7635   -7.1652 C   0  0  0  0  0  0  0  0  0  0  0  0
   -4.6045   12.3140   -6.9191 C   0  0  0  0  0  0  0  0  0  0  0  0
   -3.4477   11.5945   -7.2362 C   0  0  0  0  0  0  0  0  0  0  0  0
   -3.5614   10.3184   -7.7958 C   0  0  0  0  0  0  0  0  0  0  0  0
   -4.8112    9.7685   -8.0438 C   0  0  0  0  0  0  0  0  0  0  0  0
   -2.1002   12.1716   -6.9783 C   0  0  0  0  0  0  0  0  0  0  0  0
   -1.7494   13.4275   -6.4902 C   0  0  0  0  0  0  0  0  0  0  0  0
   -0.4141   13.4605   -6.4332 N   0  0  0  0  0  0  0  0  0  0  0  0
    0.1744   12.3664   -6.8143 N   0  0  0  0  0  0  0  0  0  0  0  0
   -0.8092   11.5630   -7.1796 C   0  0  0  0  0  0  0  0  0  0  0  0
    0.4176   14.5730   -6.0003 C   0  0  0  0  0  0  0  0  0  0  0  0
   -4.4279   13.9049  -11.5130 C   0  0  0  0  0  0  0  0  0  0  0  0
   -4.0090   15.0294  -12.0677 N   0  0  3  0  0  0  0  0  0  0  0  0
   -4.8449   15.3445  -13.0534 C   0  0  0  0  0  0  0  0  0  0  0  0
   -5.7816   14.4464  -13.2081 N   0  0  0  0  0  0  0  0  0  0  0  0
   -2.9003   15.7800  -11.6435 C   0  0  0  0  0  0  0  0  0  0  0  0
   -6.0020   12.2509   -9.9250 H   0  0  0  0  0  0  0  0  0  0  0  0
   -8.2188   10.1047  -13.8986 H   0  0  0  0  0  0  0  0  0  0  0  0
   -6.9360   12.2316  -14.1093 H   0  0  0  0  0  0  0  0  0  0  0  0
   -8.0279    9.6014   -7.2546 H   0  0  0  0  0  0  0  0  0  0  0  0
   -6.7506   12.3193   -6.9178 H   0  0  0  0  0  0  0  0  0  0  0  0
   -4.5243   13.2985   -6.4825 H   0  0  0  0  0  0  0  0  0  0  0  0
   -2.6708    9.7569   -8.0367 H   0  0  0  0  0  0  0  0  0  0  0  0
   -4.8921    8.7825   -8.4771 H   0  0  0  0  0  0  0  0  0  0  0  0
   -2.4257   14.2220   -6.2113 H   0  0  0  0  0  0  0  0  0  0  0  0
   -0.6634   10.5708   -7.5804 H   0  0  0  0  0  0  0  0  0  0  0  0
    1.4777   14.2881   -6.0708 H   0  0  0  0  0  0  0  0  0  0  0  0
    0.2286   15.4443   -6.6446 H   0  0  0  0  0  0  0  0  0  0  0  0
    0.1751   14.8281   -4.9581 H   0  0  0  0  0  0  0  0  0  0  0  0
   -4.6802   14.0705  -10.4552 H   0  0  0  0  0  0  0  0  0  0  0  0
   -3.6520   13.1288  -11.5878 H   0  0  0  0  0  0  0  0  0  0  0  0
   -5.3153   16.3121  -12.8242 H   0  0  0  0  0  0  0  0  0  0  0  0
   -4.2741   15.4270  -13.9901 H   0  0  0  0  0  0  0  0  0  0  0  0
   -2.7876   16.6646  -12.2876 H   0  0  0  0  0  0  0  0  0  0  0  0
   -3.0519   16.1015  -10.6025 H   0  0  0  0  0  0  0  0  0  0  0  0
   -1.9928   15.1617  -11.7078 H   0  0  0  0  0  0  0  0  0  0  0  0
  1  2  2  0  0  0  0
  1  4  1  0  0  0  0
  1 11  1  0  0  0  0
  2  6  1  0  0  0  0
  3  4  2  0  0  0  0
  3  5  1  0  0  0  0
  5  6  2  0  0  0  0
  5  9  1  0  0  0  0
  6  7  1  0  0  0  0
  7  8  1  0  0  0  0
  7 10  2  3  0  0  0
  8  9  2  0  0  0  0
 10 12  1  0  0  0  0
 11 24  1  0  0  0  0
 11 27  2  0  0  0  0
 12 13  2  0  0  0  0
 12 17  1  0  0  0  0
 13 14  1  0  0  0  0
 14 15  2  0  0  0  0
 15 16  1  0  0  0  0
 15 18  1  0  0  0  0
 16 17  2  0  0  0  0
 18 19  2  0  0  0  0
 18 22  1  0  0  0  0
 19 20  1  0  0  0  0
 20 21  1  0  0  0  0
 20 23  1  0  0  0  0
 21 22  2  0  0  0  0
 24 25  1  0  0  0  0
 25 26  1  0  0  0  0
 25 28  1  0  0  0  0
 26 27  1  0  0  0  0
  2 29  1  0  0  0  0
  3 30  1  0  0  0  0
  4 31  1  0  0  0  0
 10 32  1  0  0  0  0
 13 33  1  0  0  0  0
 14 34  1  0  0  0  0
 16 35  1  0  0  0  0
 17 36  1  0  0  0  0
 19 37  1  0  0  0  0
 22 38  1  0  0  0  0
 23 39  1  0  0  0  0
 23 40  1  0  0  0  0
 23 41  1  0  0  0  0
 24 42  1  0  0  0  0
 24 43  1  0  0  0  0
 26 44  1  0  0  0  0
 26 45  1  0  0  0  0
 28 46  1  0  0  0  0
 28 47  1  0  0  0  0
 28 48  1  0  0  0  0
M  END
> <Name>
21

> <IC50[uM]>
0.078

$$$$
21
  -OEChem-05192314333D
 Structure written by MMmdl.
 48 52  0     1  0  0  0  0  0999 V2000
   -6.3865   12.3338  -12.0432 C   0  0  0  0  0  0  0  0  0  0  0  0
   -6.4856   11.7841  -10.7704 C   0  0  0  0  0  0  0  0  0  0  0  0
   -7.7472   10.5643  -13.0426 C   0  0  0  0  0  0  0  0  0  0  0  0
   -7.0167   11.7500  -13.1460 C   0  0  0  0  0  0  0  0  0  0  0  0
   -7.8303   10.0081  -11.7598 C   0  0  0  0  0  0  0  0  0  0  0  0
   -7.2256   10.6149  -10.6156 C   0  0  0  0  0  0  0  0  0  0  0  0
   -7.6010    9.7518   -9.5145 C   0  0  0  0  0  0  0  0  0  0  0  0
   -8.2842    8.7423   -9.9828 N   0  0  0  0  0  0  0  0  0  0  0  0
   -8.4323    8.8733  -11.2925 N   0  0  0  0  0  0  0  0  0  0  0  0
   -7.3270    9.8938   -8.0225 C   0  0  0  0  0  0  0  0  0  0  0  0
   -5.5587   13.5285  -12.2266 C   0  0  0  0  0  0  0  0  0  0  0  0
   -5.9618   10.4909   -7.7327 C   0  0  0  0  0  0  0  0  0  0  0  0
   -5.8582   11.7635   -7.1652 C   0  0  0  0  0  0  0  0  0  0  0  0
   -4.6045   12.3140   -6.9191 C   0  0  0  0  0  0  0  0  0  0  0  0
   -3.4477   11.5945   -7.2362 C   0  0  0  0  0  0  0  0  0  0  0  0
   -3.5614   10.3184   -7.7958 C   0  0  0  0  0  0  0  0  0  0  0  0
   -4.8112    9.7685   -8.0438 C   0  0  0  0  0  0  0  0  0  0  0  0
   -2.1002   12.1716   -6.9783 C   0  0  0  0  0  0  0  0  0  0  0  0
   -1.7494   13.4275   -6.4902 C   0  0  0  0  0  0  0  0  0  0  0  0
   -0.4141   13.4605   -6.4332 N   0  0  3  0  0  0  0  0  0  0  0  0
    0.1744   12.3664   -6.8143 N   0  0  0  0  0  0  0  0  0  0  0  0
   -0.8092   11.5630   -7.1796 C   0  0  0  0  0  0  0  0  0  0  0  0
    0.4176   14.5730   -6.0003 C   0  0  0  0  0  0  0  0  0  0  0  0
   -4.4279   13.9049  -11.5130 C   0  0  0  0  0  0  0  0  0  0  0  0
   -4.0090   15.0294  -12.0677 N   0  0  0  0  0  0  0  0  0  0  0  0
   -4.8449   15.3445  -13.0534 C   0  0  0  0  0  0  0  0  0  0  0  0
   -5.7816   14.4464  -13.2081 N   0  0  0  0  0  0  0  0  0  0  0  0
   -2.9003   15.7800  -11.6435 C   0  0  0  0  0  0  0  0  0  0  0  0
   -6.0020   12.2509   -9.9250 H   0  0  0  0  0  0  0  0  0  0  0  0
   -8.2188   10.1047  -13.8986 H   0  0  0  0  0  0  0  0  0  0  0  0
   -6.9360   12.2316  -14.1093 H   0  0  0  0  0  0  0  0  0  0  0  0
   -8.0279    9.6014   -7.2546 H   0  0  0  0  0  0  0  0  0  0  0  0
   -6.7506   12.3193   -6.9178 H   0  0  0  0  0  0  0  0  0  0  0  0
   -4.5243   13.2985   -6.4825 H   0  0  0  0  0  0  0  0  0  0  0  0
   -2.6708    9.7569   -8.0367 H   0  0  0  0  0  0  0  0  0  0  0  0
   -4.8921    8.7825   -8.4771 H   0  0  0  0  0  0  0  0  0  0  0  0
   -2.4257   14.2220   -6.2113 H   0  0  0  0  0  0  0  0  0  0  0  0
    0.7870   12.5458   -7.5841 H   0  0  0  0  0  0  0  0  0  0  0  0
   -0.7542   10.6395   -6.5845 H   0  0  0  0  0  0  0  0  0  0  0  0
   -0.6927   11.3196   -8.2460 H   0  0  0  0  0  0  0  0  0  0  0  0
    1.4776   14.2873   -6.0686 H   0  0  0  0  0  0  0  0  0  0  0  0
    0.2303   15.4436   -6.6460 H   0  0  0  0  0  0  0  0  0  0  0  0
    0.1735   14.8296   -4.9589 H   0  0  0  0  0  0  0  0  0  0  0  0
   -3.9826   13.3858  -10.6771 H   0  0  0  0  0  0  0  0  0  0  0  0
   -4.7595   16.2374  -13.6550 H   0  0  0  0  0  0  0  0  0  0  0  0
   -2.7876   16.6646  -12.2876 H   0  0  0  0  0  0  0  0  0  0  0  0
   -3.0519   16.1015  -10.6025 H   0  0  0  0  0  0  0  0  0  0  0  0
   -1.9928   15.1617  -11.7078 H   0  0  0  0  0  0  0  0  0  0  0  0
  1  2  2  0  0  0  0
  1  4  1  0  0  0  0
  1 11  1  0  0  0  0
  2  6  1  0  0  0  0
  3  4  2  0  0  0  0
  3  5  1  0  0  0  0
  5  6  2  0  0  0  0
  5  9  1  0  0  0  0
  6  7  1  0  0  0  0
  7  8  1  0  0  0  0
  7 10  2  3  0  0  0
  8  9  2  0  0  0  0
 10 12  1  0  0  0  0
 11 24  2  0  0  0  0
 11 27  1  0  0  0  0
 12 13  2  0  0  0  0
 12 17  1  0  0  0  0
 13 14  1  0  0  0  0
 14 15  2  0  0  0  0
 15 16  1  0  0  0  0
 15 18  1  0  0  0  0
 16 17  2  0  0  0  0
 18 19  2  0  0  0  0
 18 22  1  0  0  0  0
 19 20  1  0  0  0  0
 20 21  1  0  0  0  0
 20 23  1  0  0  0  0
 21 22  1  0  0  0  0
 24 25  1  0  0  0  0
 25 26  1  0  0  0  0
 25 28  1  0  0  0  0
 26 27  2  0  0  0  0
  2 29  1  0  0  0  0
  3 30  1  0  0  0  0
  4 31  1  0  0  0  0
 10 32  1  0  0  0  0
 13 33  1  0  0  0  0
 14 34  1  0  0  0  0
 16 35  1  0  0  0  0
 17 36  1  0  0  0  0
 19 37  1  0  0  0  0
 21 38  1  0  0  0  0
 22 39  1  0  0  0  0
 22 40  1  0  0  0  0
 23 41  1  0  0  0  0
 23 42  1  0  0  0  0
 23 43  1  0  0  0  0
 24 44  1  0  0  0  0
 26 45  1  0  0  0  0
 28 46  1  0  0  0  0
 28 47  1  0  0  0  0
 28 48  1  0  0  0  0
M  END
> <Name>
21

> <IC50[uM]>
0.078

$$$$
21
  -OEChem-05192314333D
 Structure written by MMmdl.
 48 52  0     1  0  0  0  0  0999 V2000
   -6.3865   12.3338  -12.0432 C   0  0  0  0  0  0  0  0  0  0  0  0
   -6.4856   11.7841  -10.7704 C   0  0  0  0  0  0  0  0  0  0  0  0
   -7.7472   10.5643  -13.0426 C   0  0  0  0  0  0  0  0  0  0  0  0
   -7.0167   11.7500  -13.1460 C   0  0  0  0  0  0  0  0  0  0  0  0
   -7.8303   10.0081  -11.7598 C   0  0  0  0  0  0  0  0  0  0  0  0
   -7.2256   10.6149  -10.6156 C   0  0  0  0  0  0  0  0  0  0  0  0
   -7.6010    9.7518   -9.5145 C   0  0  0  0  0  0  0  0  0  0  0  0
   -8.2842    8.7423   -9.9828 N   0  0  0  0  0  0  0  0  0  0  0  0
   -8.4323    8.8733  -11.2925 N   0  0  0  0  0  0  0  0  0  0  0  0
   -7.3270    9.8938   -8.0225 C   0  0  0  0  0  0  0  0  0  0  0  0
   -5.5587   13.5285  -12.2266 C   0  0  0  0  0  0  0  0  0  0  0  0
   -5.9618   10.4909   -7.7327 C   0  0  0  0  0  0  0  0  0  0  0  0
   -5.8582   11.7635   -7.1652 C   0  0  0  0  0  0  0  0  0  0  0  0
   -4.6045   12.3140   -6.9191 C   0  0  0  0  0  0  0  0  0  0  0  0
   -3.4477   11.5945   -7.2362 C   0  0  0  0  0  0  0  0  0  0  0  0
   -3.5614   10.3184   -7.7958 C   0  0  0  0  0  0  0  0  0  0  0  0
   -4.8112    9.7685   -8.0438 C   0  0  0  0  0  0  0  0  0  0  0  0
   -2.1002   12.1716   -6.9783 C   0  0  0  0  0  0  0  0  0  0  0  0
   -1.7494   13.4275   -6.4902 C   0  0  0  0  0  0  0  0  0  0  0  0
   -0.4141   13.4605   -6.4332 N   0  0  3  0  0  0  0  0  0  0  0  0
    0.1744   12.3664   -6.8143 N   0  0  0  0  0  0  0  0  0  0  0  0
   -0.8092   11.5630   -7.1796 C   0  0  0  0  0  0  0  0  0  0  0  0
    0.4176   14.5730   -6.0003 C   0  0  0  0  0  0  0  0  0  0  0  0
   -4.4279   13.9049  -11.5130 C   0  0  0  0  0  0  0  0  0  0  0  0
   -4.0090   15.0294  -12.0677 N   0  0  0  0  0  0  0  0  0  0  0  0
   -4.8449   15.3445  -13.0534 C   0  0  0  0  0  0  0  0  0  0  0  0
   -5.7816   14.4464  -13.2081 N   0  0  0  0  0  0  0  0  0  0  0  0
   -2.9003   15.7800  -11.6435 C   0  0  0  0  0  0  0  0  0  0  0  0
   -6.0020   12.2509   -9.9250 H   0  0  0  0  0  0  0  0  0  0  0  0
   -8.2188   10.1047  -13.8986 H   0  0  0  0  0  0  0  0  0  0  0  0
   -6.9360   12.2316  -14.1093 H   0  0  0  0  0  0  0  0  0  0  0  0
   -8.0279    9.6014   -7.2546 H   0  0  0  0  0  0  0  0  0  0  0  0
   -6.7506   12.3193   -6.9178 H   0  0  0  0  0  0  0  0  0  0  0  0
   -4.5243   13.2985   -6.4825 H   0  0  0  0  0  0  0  0  0  0  0  0
   -2.6708    9.7569   -8.0367 H   0  0  0  0  0  0  0  0  0  0  0  0
   -4.8921    8.7825   -8.4771 H   0  0  0  0  0  0  0  0  0  0  0  0
   -2.1191   14.2131   -7.1656 H   0  0  0  0  0  0  0  0  0  0  0  0
   -2.1751   13.5763   -5.4869 H   0  0  0  0  0  0  0  0  0  0  0  0
    0.7870   12.5458   -7.5841 H   0  0  0  0  0  0  0  0  0  0  0  0
   -0.6634   10.5708   -7.5804 H   0  0  0  0  0  0  0  0  0  0  0  0
    1.4776   14.2873   -6.0686 H   0  0  0  0  0  0  0  0  0  0  0  0
    0.2303   15.4436   -6.6460 H   0  0  0  0  0  0  0  0  0  0  0  0
    0.1735   14.8296   -4.9589 H   0  0  0  0  0  0  0  0  0  0  0  0
   -3.9826   13.3858  -10.6771 H   0  0  0  0  0  0  0  0  0  0  0  0
   -4.7595   16.2374  -13.6550 H   0  0  0  0  0  0  0  0  0  0  0  0
   -2.7876   16.6646  -12.2876 H   0  0  0  0  0  0  0  0  0  0  0  0
   -3.0519   16.1015  -10.6025 H   0  0  0  0  0  0  0  0  0  0  0  0
   -1.9928   15.1617  -11.7078 H   0  0  0  0  0  0  0  0  0  0  0  0
  1  2  2  0  0  0  0
  1  4  1  0  0  0  0
  1 11  1  0  0  0  0
  2  6  1  0  0  0  0
  3  4  2  0  0  0  0
  3  5  1  0  0  0  0
  5  6  2  0  0  0  0
  5  9  1  0  0  0  0
  6  7  1  0  0  0  0
  7  8  1  0  0  0  0
  7 10  2  3  0  0  0
  8  9  2  0  0  0  0
 10 12  1  0  0  0  0
 11 24  2  0  0  0  0
 11 27  1  0  0  0  0
 12 13  2  0  0  0  0
 12 17  1  0  0  0  0
 13 14  1  0  0  0  0
 14 15  2  0  0  0  0
 15 16  1  0  0  0  0
 15 18  1  0  0  0  0
 16 17  2  0  0  0  0
 18 19  1  0  0  0  0
 18 22  2  0  0  0  0
 19 20  1  0  0  0  0
 20 21  1  0  0  0  0
 20 23  1  0  0  0  0
 21 22  1  0  0  0  0
 24 25  1  0  0  0  0
 25 26  1  0  0  0  0
 25 28  1  0  0  0  0
 26 27  2  0  0  0  0
  2 29  1  0  0  0  0
  3 30  1  0  0  0  0
  4 31  1  0  0  0  0
 10 32  1  0  0  0  0
 13 33  1  0  0  0  0
 14 34  1  0  0  0  0
 16 35  1  0  0  0  0
 17 36  1  0  0  0  0
 19 37  1  0  0  0  0
 19 38  1  0  0  0  0
 21 39  1  0  0  0  0
 22 40  1  0  0  0  0
 23 41  1  0  0  0  0
 23 42  1  0  0  0  0
 23 43  1  0  0  0  0
 24 44  1  0  0  0  0
 26 45  1  0  0  0  0
 28 46  1  0  0  0  0
 28 47  1  0  0  0  0
 28 48  1  0  0  0  0
M  END
> <Name>
21

> <IC50[uM]>
0.078

$$$$
21
  -OEChem-05192314333D
 Structure written by MMmdl.
 48 52  0     1  0  0  0  0  0999 V2000
   -6.3865   12.3338  -12.0432 C   0  0  0  0  0  0  0  0  0  0  0  0
   -6.4856   11.7841  -10.7704 C   0  0  0  0  0  0  0  0  0  0  0  0
   -7.7472   10.5643  -13.0426 C   0  0  0  0  0  0  0  0  0  0  0  0
   -7.0167   11.7500  -13.1460 C   0  0  0  0  0  0  0  0  0  0  0  0
   -7.8303   10.0081  -11.7598 C   0  0  0  0  0  0  0  0  0  0  0  0
   -7.2256   10.6149  -10.6156 C   0  0  0  0  0  0  0  0  0  0  0  0
   -7.6010    9.7518   -9.5145 C   0  0  0  0  0  0  0  0  0  0  0  0
   -8.2842    8.7423   -9.9828 N   0  0  0  0  0  0  0  0  0  0  0  0
   -8.4323    8.8733  -11.2925 N   0  0  0  0  0  0  0  0  0  0  0  0
   -7.3270    9.8938   -8.0225 C   0  0  0  0  0  0  0  0  0  0  0  0
   -5.5587   13.5285  -12.2266 C   0  0  0  0  0  0  0  0  0  0  0  0
   -5.9618   10.4909   -7.7327 C   0  0  0  0  0  0  0  0  0  0  0  0
   -5.8582   11.7635   -7.1652 C   0  0  0  0  0  0  0  0  0  0  0  0
   -4.6045   12.3140   -6.9191 C   0  0  0  0  0  0  0  0  0  0  0  0
   -3.4477   11.5945   -7.2362 C   0  0  0  0  0  0  0  0  0  0  0  0
   -3.5614   10.3184   -7.7958 C   0  0  0  0  0  0  0  0  0  0  0  0
   -4.8112    9.7685   -8.0438 C   0  0  0  0  0  0  0  0  0  0  0  0
   -2.1002   12.1716   -6.9783 C   0  0  0  0  0  0  0  0  0  0  0  0
   -1.7494   13.4275   -6.4902 C   0  0  0  0  0  0  0  0  0  0  0  0
   -0.4141   13.4605   -6.4332 N   0  0  0  0  0  0  0  0  0  0  0  0
    0.1744   12.3664   -6.8143 N   0  0  0  0  0  0  0  0  0  0  0  0
   -0.8092   11.5630   -7.1796 C   0  0  0  0  0  0  0  0  0  0  0  0
    0.4176   14.5730   -6.0003 C   0  0  0  0  0  0  0  0  0  0  0  0
   -4.4279   13.9049  -11.5130 C   0  0  0  0  0  0  0  0  0  0  0  0
   -4.0090   15.0294  -12.0677 N   0  0  3  0  0  0  0  0  0  0  0  0
   -4.8449   15.3445  -13.0534 C   0  0  0  0  0  0  0  0  0  0  0  0
   -5.7816   14.4464  -13.2081 N   0  0  0  0  0  0  0  0  0  0  0  0
   -2.9003   15.7800  -11.6435 C   0  0  0  0  0  0  0  0  0  0  0  0
   -6.0020   12.2509   -9.9250 H   0  0  0  0  0  0  0  0  0  0  0  0
   -8.2188   10.1047  -13.8986 H   0  0  0  0  0  0  0  0  0  0  0  0
   -6.9360   12.2316  -14.1093 H   0  0  0  0  0  0  0  0  0  0  0  0
   -8.0279    9.6014   -7.2546 H   0  0  0  0  0  0  0  0  0  0  0  0
   -6.7506   12.3193   -6.9178 H   0  0  0  0  0  0  0  0  0  0  0  0
   -4.5243   13.2985   -6.4825 H   0  0  0  0  0  0  0  0  0  0  0  0
   -2.6708    9.7569   -8.0367 H   0  0  0  0  0  0  0  0  0  0  0  0
   -4.8921    8.7825   -8.4771 H   0  0  0  0  0  0  0  0  0  0  0  0
   -2.4257   14.2220   -6.2113 H   0  0  0  0  0  0  0  0  0  0  0  0
   -0.6634   10.5708   -7.5804 H   0  0  0  0  0  0  0  0  0  0  0  0
    1.4777   14.2881   -6.0708 H   0  0  0  0  0  0  0  0  0  0  0  0
    0.2286   15.4443   -6.6446 H   0  0  0  0  0  0  0  0  0  0  0  0
    0.1751   14.8281   -4.9581 H   0  0  0  0  0  0  0  0  0  0  0  0
   -3.9826   13.3858  -10.6771 H   0  0  0  0  0  0  0  0  0  0  0  0
   -5.3153   16.3121  -12.8242 H   0  0  0  0  0  0  0  0  0  0  0  0
   -4.2741   15.4270  -13.9901 H   0  0  0  0  0  0  0  0  0  0  0  0
   -5.7133   14.0197  -14.1099 H   0  0  0  0  0  0  0  0  0  0  0  0
   -2.7876   16.6646  -12.2876 H   0  0  0  0  0  0  0  0  0  0  0  0
   -3.0519   16.1015  -10.6025 H   0  0  0  0  0  0  0  0  0  0  0  0
   -1.9928   15.1617  -11.7078 H   0  0  0  0  0  0  0  0  0  0  0  0
  1  2  2  0  0  0  0
  1  4  1  0  0  0  0
  1 11  1  0  0  0  0
  2  6  1  0  0  0  0
  3  4  2  0  0  0  0
  3  5  1  0  0  0  0
  5  6  2  0  0  0  0
  5  9  1  0  0  0  0
  6  7  1  0  0  0  0
  7  8  1  0  0  0  0
  7 10  2  3  0  0  0
  8  9  2  0  0  0  0
 10 12  1  0  0  0  0
 11 24  2  0  0  0  0
 11 27  1  0  0  0  0
 12 13  2  0  0  0  0
 12 17  1  0  0  0  0
 13 14  1  0  0  0  0
 14 15  2  0  0  0  0
 15 16  1  0  0  0  0
 15 18  1  0  0  0  0
 16 17  2  0  0  0  0
 18 19  2  0  0  0  0
 18 22  1  0  0  0  0
 19 20  1  0  0  0  0
 20 21  1  0  0  0  0
 20 23  1  0  0  0  0
 21 22  2  0  0  0  0
 24 25  1  0  0  0  0
 25 26  1  0  0  0  0
 25 28  1  0  0  0  0
 26 27  1  0  0  0  0
  2 29  1  0  0  0  0
  3 30  1  0  0  0  0
  4 31  1  0  0  0  0
 10 32  1  0  0  0  0
 13 33  1  0  0  0  0
 14 34  1  0  0  0  0
 16 35  1  0  0  0  0
 17 36  1  0  0  0  0
 19 37  1  0  0  0  0
 22 38  1  0  0  0  0
 23 39  1  0  0  0  0
 23 40  1  0  0  0  0
 23 41  1  0  0  0  0
 24 42  1  0  0  0  0
 26 43  1  0  0  0  0
 26 44  1  0  0  0  0
 27 45  1  0  0  0  0
 28 46  1  0  0  0  0
 28 47  1  0  0  0  0
 28 48  1  0  0  0  0
M  END
> <Name>
21

> <IC50[uM]>
0.078

$$$$
21
  -OEChem-05192314333D
 Structure written by MMmdl.
 48 52  0     0  0  0  0  0  0999 V2000
   -6.3865   12.3338  -12.0432 C   0  0  0  0  0  0  0  0  0  0  0  0
   -6.4856   11.7841  -10.7704 C   0  0  0  0  0  0  0  0  0  0  0  0
   -7.7472   10.5643  -13.0426 C   0  0  0  0  0  0  0  0  0  0  0  0
   -7.0167   11.7500  -13.1460 C   0  0  0  0  0  0  0  0  0  0  0  0
   -7.8303   10.0081  -11.7598 C   0  0  0  0  0  0  0  0  0  0  0  0
   -7.2256   10.6149  -10.6156 C   0  0  0  0  0  0  0  0  0  0  0  0
   -7.6010    9.7518   -9.5145 C   0  0  0  0  0  0  0  0  0  0  0  0
   -8.2842    8.7423   -9.9828 N   0  0  0  0  0  0  0  0  0  0  0  0
   -8.4323    8.8733  -11.2925 N   0  0  0  0  0  0  0  0  0  0  0  0
   -7.3270    9.8938   -8.0225 C   0  0  0  0  0  0  0  0  0  0  0  0
   -5.5587   13.5285  -12.2266 C   0  0  0  0  0  0  0  0  0  0  0  0
   -5.9618   10.4909   -7.7327 C   0  0  0  0  0  0  0  0  0  0  0  0
   -5.8582   11.7635   -7.1652 C   0  0  0  0  0  0  0  0  0  0  0  0
   -4.6045   12.3140   -6.9191 C   0  0  0  0  0  0  0  0  0  0  0  0
   -3.4477   11.5945   -7.2362 C   0  0  0  0  0  0  0  0  0  0  0  0
   -3.5614   10.3184   -7.7958 C   0  0  0  0  0  0  0  0  0  0  0  0
   -4.8112    9.7685   -8.0438 C   0  0  0  0  0  0  0  0  0  0  0  0
   -2.1002   12.1716   -6.9783 C   0  0  0  0  0  0  0  0  0  0  0  0
   -1.7494   13.4275   -6.4902 C   0  0  0  0  0  0  0  0  0  0  0  0
   -0.4141   13.4605   -6.4332 N   0  0  0  0  0  0  0  0  0  0  0  0
    0.1744   12.3664   -6.8143 N   0  0  0  0  0  0  0  0  0  0  0  0
   -0.8092   11.5630   -7.1796 C   0  0  0  0  0  0  0  0  0  0  0  0
    0.4176   14.5730   -6.0003 C   0  0  0  0  0  0  0  0  0  0  0  0
   -4.4279   13.9049  -11.5130 C   0  0  0  0  0  0  0  0  0  0  0  0
   -4.0090   15.0294  -12.0677 N   0  0  0  0  0  0  0  0  0  0  0  0
   -4.8449   15.3445  -13.0534 C   0  0  0  0  0  0  0  0  0  0  0  0
   -5.7816   14.4464  -13.2081 N   0  0  0  0  0  0  0  0  0  0  0  0
   -2.9003   15.7800  -11.6435 C   0  0  0  0  0  0  0  0  0  0  0  0
   -6.0020   12.2509   -9.9250 H   0  0  0  0  0  0  0  0  0  0  0  0
   -8.2188   10.1047  -13.8986 H   0  0  0  0  0  0  0  0  0  0  0  0
   -6.9360   12.2316  -14.1093 H   0  0  0  0  0  0  0  0  0  0  0  0
   -8.0967   10.5457   -7.5837 H   0  0  0  0  0  0  0  0  0  0  0  0
   -7.3815    8.8981   -7.5582 H   0  0  0  0  0  0  0  0  0  0  0  0
   -6.7506   12.3193   -6.9178 H   0  0  0  0  0  0  0  0  0  0  0  0
   -4.5243   13.2985   -6.4825 H   0  0  0  0  0  0  0  0  0  0  0  0
   -2.6708    9.7569   -8.0367 H   0  0  0  0  0  0  0  0  0  0  0  0
   -4.8921    8.7825   -8.4771 H   0  0  0  0  0  0  0  0  0  0  0  0
   -2.4257   14.2220   -6.2113 H   0  0  0  0  0  0  0  0  0  0  0  0
   -0.6634   10.5708   -7.5804 H   0  0  0  0  0  0  0  0  0  0  0  0
    1.4777   14.2881   -6.0708 H   0  0  0  0  0  0  0  0  0  0  0  0
    0.2286   15.4443   -6.6446 H   0  0  0  0  0  0  0  0  0  0  0  0
    0.1751   14.8281   -4.9581 H   0  0  0  0  0  0  0  0  0  0  0  0
   -4.6802   14.0705  -10.4552 H   0  0  0  0  0  0  0  0  0  0  0  0
   -3.6520   13.1288  -11.5878 H   0  0  0  0  0  0  0  0  0  0  0  0
   -4.7595   16.2374  -13.6550 H   0  0  0  0  0  0  0  0  0  0  0  0
   -2.7876   16.6646  -12.2876 H   0  0  0  0  0  0  0  0  0  0  0  0
   -3.0519   16.1015  -10.6025 H   0  0  0  0  0  0  0  0  0  0  0  0
   -1.9928   15.1617  -11.7078 H   0  0  0  0  0  0  0  0  0  0  0  0
  1  2  1  0  0  0  0
  1  4  1  0  0  0  0
  1 11  2  0  0  0  0
  2  6  2  0  0  0  0
  3  4  2  0  0  0  0
  3  5  1  0  0  0  0
  5  6  1  0  0  0  0
  5  9  2  0  0  0  0
  6  7  1  0  0  0  0
  7  8  2  0  0  0  0
  7 10  1  0  0  0  0
  8  9  1  0  0  0  0
 10 12  1  0  0  0  0
 11 24  1  0  0  0  0
 11 27  1  0  0  0  0
 12 13  2  0  0  0  0
 12 17  1  0  0  0  0
 13 14  1  0  0  0  0
 14 15  2  0  0  0  0
 15 16  1  0  0  0  0
 15 18  1  0  0  0  0
 16 17  2  0  0  0  0
 18 19  2  0  0  0  0
 18 22  1  0  0  0  0
 19 20  1  0  0  0  0
 20 21  1  0  0  0  0
 20 23  1  0  0  0  0
 21 22  2  0  0  0  0
 24 25  1  0  0  0  0
 25 26  1  0  0  0  0
 25 28  1  0  0  0  0
 26 27  2  0  0  0  0
  2 29  1  0  0  0  0
  3 30  1  0  0  0  0
  4 31  1  0  0  0  0
 10 32  1  0  0  0  0
 10 33  1  0  0  0  0
 13 34  1  0  0  0  0
 14 35  1  0  0  0  0
 16 36  1  0  0  0  0
 17 37  1  0  0  0  0
 19 38  1  0  0  0  0
 22 39  1  0  0  0  0
 23 40  1  0  0  0  0
 23 41  1  0  0  0  0
 23 42  1  0  0  0  0
 24 43  1  0  0  0  0
 24 44  1  0  0  0  0
 26 45  1  0  0  0  0
 28 46  1  0  0  0  0
 28 47  1  0  0  0  0
 28 48  1  0  0  0  0
M  END
> <Name>
21

> <IC50[uM]>
0.078

$$$$
21
  -OEChem-05192314333D
 Structure written by MMmdl.
 48 52  0     1  0  0  0  0  0999 V2000
   -6.3865   12.3338  -12.0432 C   0  0  0  0  0  0  0  0  0  0  0  0
   -6.4856   11.7841  -10.7704 C   0  0  0  0  0  0  0  0  0  0  0  0
   -7.7472   10.5643  -13.0426 C   0  0  0  0  0  0  0  0  0  0  0  0
   -7.0167   11.7500  -13.1460 C   0  0  0  0  0  0  0  0  0  0  0  0
   -7.8303   10.0081  -11.7598 C   0  0  0  0  0  0  0  0  0  0  0  0
   -7.2256   10.6149  -10.6156 C   0  0  0  0  0  0  0  0  0  0  0  0
   -7.6010    9.7518   -9.5145 C   0  0  3  0  0  0  0  0  0  0  0  0
   -8.2842    8.7423   -9.9828 N   0  0  0  0  0  0  0  0  0  0  0  0
   -8.4323    8.8733  -11.2925 N   0  0  0  0  0  0  0  0  0  0  0  0
   -7.3270    9.8938   -8.0225 C   0  0  0  0  0  0  0  0  0  0  0  0
   -5.5587   13.5285  -12.2266 C   0  0  0  0  0  0  0  0  0  0  0  0
   -5.9618   10.4909   -7.7327 C   0  0  0  0  0  0  0  0  0  0  0  0
   -5.8582   11.7635   -7.1652 C   0  0  0  0  0  0  0  0  0  0  0  0
   -4.6045   12.3140   -6.9191 C   0  0  0  0  0  0  0  0  0  0  0  0
   -3.4477   11.5945   -7.2362 C   0  0  0  0  0  0  0  0  0  0  0  0
   -3.5614   10.3184   -7.7958 C   0  0  0  0  0  0  0  0  0  0  0  0
   -4.8112    9.7685   -8.0438 C   0  0  0  0  0  0  0  0  0  0  0  0
   -2.1002   12.1716   -6.9783 C   0  0  0  0  0  0  0  0  0  0  0  0
   -1.7494   13.4275   -6.4902 C   0  0  0  0  0  0  0  0  0  0  0  0
   -0.4141   13.4605   -6.4332 N   0  0  3  0  0  0  0  0  0  0  0  0
    0.1744   12.3664   -6.8143 N   0  0  0  0  0  0  0  0  0  0  0  0
   -0.8092   11.5630   -7.1796 C   0  0  0  0  0  0  0  0  0  0  0  0
    0.4176   14.5730   -6.0003 C   0  0  0  0  0  0  0  0  0  0  0  0
   -4.4279   13.9049  -11.5130 C   0  0  0  0  0  0  0  0  0  0  0  0
   -4.0090   15.0294  -12.0677 N   0  0  0  0  0  0  0  0  0  0  0  0
   -4.8449   15.3445  -13.0534 C   0  0  0  0  0  0  0  0  0  0  0  0
   -5.7816   14.4464  -13.2081 N   0  0  0  0  0  0  0  0  0  0  0  0
   -2.9003   15.7800  -11.6435 C   0  0  0  0  0  0  0  0  0  0  0  0
   -6.0020   12.2509   -9.9250 H   0  0  0  0  0  0  0  0  0  0  0  0
   -8.2188   10.1047  -13.8986 H   0  0  0  0  0  0  0  0  0  0  0  0
   -6.9360   12.2316  -14.1093 H   0  0  0  0  0  0  0  0  0  0  0  0
   -6.6674    9.1829   -9.6362 H   0  0  0  0  0  0  0  0  0  0  0  0
   -8.0279    9.6014   -7.2546 H   0  0  0  0  0  0  0  0  0  0  0  0
   -6.7506   12.3193   -6.9178 H   0  0  0  0  0  0  0  0  0  0  0  0
   -4.5243   13.2985   -6.4825 H   0  0  0  0  0  0  0  0  0  0  0  0
   -2.6708    9.7569   -8.0367 H   0  0  0  0  0  0  0  0  0  0  0  0
   -4.8921    8.7825   -8.4771 H   0  0  0  0  0  0  0  0  0  0  0  0
   -2.1191   14.2131   -7.1656 H   0  0  0  0  0  0  0  0  0  0  0  0
   -2.1751   13.5763   -5.4869 H   0  0  0  0  0  0  0  0  0  0  0  0
   -0.6634   10.5708   -7.5804 H   0  0  0  0  0  0  0  0  0  0  0  0
    1.4777   14.2881   -6.0708 H   0  0  0  0  0  0  0  0  0  0  0  0
    0.2286   15.4443   -6.6446 H   0  0  0  0  0  0  0  0  0  0  0  0
    0.1751   14.8281   -4.9581 H   0  0  0  0  0  0  0  0  0  0  0  0
   -3.9826   13.3858  -10.6771 H   0  0  0  0  0  0  0  0  0  0  0  0
   -4.7595   16.2374  -13.6550 H   0  0  0  0  0  0  0  0  0  0  0  0
   -2.7876   16.6646  -12.2876 H   0  0  0  0  0  0  0  0  0  0  0  0
   -3.0519   16.1015  -10.6025 H   0  0  0  0  0  0  0  0  0  0  0  0
   -1.9928   15.1617  -11.7078 H   0  0  0  0  0  0  0  0  0  0  0  0
  1  2  2  0  0  0  0
  1  4  1  0  0  0  0
  1 11  1  0  0  0  0
  2  6  1  0  0  0  0
  3  4  2  0  0  0  0
  3  5  1  0  0  0  0
  5  6  2  0  0  0  0
  5  9  1  0  0  0  0
  6  7  1  0  0  0  0
  7  8  1  0  0  0  0
  7 10  1  0  0  0  0
  8  9  2  0  0  0  0
 10 12  2  0  0  0  0
 11 24  2  0  0  0  0
 11 27  1  0  0  0  0
 12 13  1  0  0  0  0
 12 17  1  0  0  0  0
 13 14  2  0  0  0  0
 14 15  1  0  0  0  0
 15 16  1  0  0  0  0
 15 18  2  0  0  0  0
 16 17  2  0  0  0  0
 18 19  1  0  0  0  0
 18 22  1  0  0  0  0
 19 20  1  0  0  0  0
 20 21  1  0  0  0  0
 20 23  1  0  0  0  0
 21 22  2  0  0  0  0
 24 25  1  0  0  0  0
 25 26  1  0  0  0  0
 25 28  1  0  0  0  0
 26 27  2  0  0  0  0
  2 29  1  0  0  0  0
  3 30  1  0  0  0  0
  4 31  1  0  0  0  0
  7 32  1  0  0  0  0
 10 33  1  0  0  0  0
 13 34  1  0  0  0  0
 14 35  1  0  0  0  0
 16 36  1  0  0  0  0
 17 37  1  0  0  0  0
 19 38  1  0  0  0  0
 19 39  1  0  0  0  0
 22 40  1  0  0  0  0
 23 41  1  0  0  0  0
 23 42  1  0  0  0  0
 23 43  1  0  0  0  0
 24 44  1  0  0  0  0
 26 45  1  0  0  0  0
 28 46  1  0  0  0  0
 28 47  1  0  0  0  0
 28 48  1  0  0  0  0
M  END
> <Name>
21

> <IC50[uM]>
0.078

$$$$
21
  -OEChem-05192314333D
 Structure written by MMmdl.
 48 52  0     1  0  0  0  0  0999 V2000
   -6.3865   12.3338  -12.0432 C   0  0  3  0  0  0  0  0  0  0  0  0
   -6.4856   11.7841  -10.7704 C   0  0  0  0  0  0  0  0  0  0  0  0
   -7.7472   10.5643  -13.0426 C   0  0  0  0  0  0  0  0  0  0  0  0
   -7.0167   11.7500  -13.1460 C   0  0  0  0  0  0  0  0  0  0  0  0
   -7.8303   10.0081  -11.7598 C   0  0  0  0  0  0  0  0  0  0  0  0
   -7.2256   10.6149  -10.6156 C   0  0  0  0  0  0  0  0  0  0  0  0
   -7.6010    9.7518   -9.5145 C   0  0  0  0  0  0  0  0  0  0  0  0
   -8.2842    8.7423   -9.9828 N   0  0  0  0  0  0  0  0  0  0  0  0
   -8.4323    8.8733  -11.2925 N   0  0  0  0  0  0  0  0  0  0  0  0
   -7.3270    9.8938   -8.0225 C   0  0  0  0  0  0  0  0  0  0  0  0
   -5.5587   13.5285  -12.2266 C   0  0  0  0  0  0  0  0  0  0  0  0
   -5.9618   10.4909   -7.7327 C   0  0  0  0  0  0  0  0  0  0  0  0
   -5.8582   11.7635   -7.1652 C   0  0  0  0  0  0  0  0  0  0  0  0
   -4.6045   12.3140   -6.9191 C   0  0  0  0  0  0  0  0  0  0  0  0
   -3.4477   11.5945   -7.2362 C   0  0  0  0  0  0  0  0  0  0  0  0
   -3.5614   10.3184   -7.7958 C   0  0  0  0  0  0  0  0  0  0  0  0
   -4.8112    9.7685   -8.0438 C   0  0  0  0  0  0  0  0  0  0  0  0
   -2.1002   12.1716   -6.9783 C   0  0  0  0  0  0  0  0  0  0  0  0
   -1.7494   13.4275   -6.4902 C   0  0  0  0  0  0  0  0  0  0  0  0
   -0.4141   13.4605   -6.4332 N   0  0  0  0  0  0  0  0  0  0  0  0
    0.1744   12.3664   -6.8143 N   0  0  0  0  0  0  0  0  0  0  0  0
   -0.8092   11.5630   -7.1796 C   0  0  0  0  0  0  0  0  0  0  0  0
    0.4176   14.5730   -6.0003 C   0  0  0  0  0  0  0  0  0  0  0  0
   -4.4279   13.9049  -11.5130 C   0  0  0  0  0  0  0  0  0  0  0  0
   -4.0090   15.0294  -12.0677 N   0  0  0  0  0  0  0  0  0  0  0  0
   -4.8449   15.3445  -13.0534 C   0  0  0  0  0  0  0  0  0  0  0  0
   -5.7816   14.4464  -13.2081 N   0  0  0  0  0  0  0  0  0  0  0  0
   -2.9003   15.7800  -11.6435 C   0  0  0  0  0  0  0  0  0  0  0  0
   -7.2704   12.9609  -11.8546 H   0  0  0  0  0  0  0  0  0  0  0  0
   -6.0020   12.2509   -9.9250 H   0  0  0  0  0  0  0  0  0  0  0  0
   -8.2188   10.1047  -13.8986 H   0  0  0  0  0  0  0  0  0  0  0  0
   -6.9360   12.2316  -14.1093 H   0  0  0  0  0  0  0  0  0  0  0  0
   -8.0967   10.5457   -7.5837 H   0  0  0  0  0  0  0  0  0  0  0  0
   -7.3815    8.8981   -7.5582 H   0  0  0  0  0  0  0  0  0  0  0  0
   -6.7506   12.3193   -6.9178 H   0  0  0  0  0  0  0  0  0  0  0  0
   -4.5243   13.2985   -6.4825 H   0  0  0  0  0  0  0  0  0  0  0  0
   -2.6708    9.7569   -8.0367 H   0  0  0  0  0  0  0  0  0  0  0  0
   -4.8921    8.7825   -8.4771 H   0  0  0  0  0  0  0  0  0  0  0  0
   -2.4257   14.2220   -6.2113 H   0  0  0  0  0  0  0  0  0  0  0  0
   -0.6634   10.5708   -7.5804 H   0  0  0  0  0  0  0  0  0  0  0  0
    1.4777   14.2881   -6.0708 H   0  0  0  0  0  0  0  0  0  0  0  0
    0.2286   15.4443   -6.6446 H   0  0  0  0  0  0  0  0  0  0  0  0
    0.1751   14.8281   -4.9581 H   0  0  0  0  0  0  0  0  0  0  0  0
   -3.9826   13.3858  -10.6771 H   0  0  0  0  0  0  0  0  0  0  0  0
   -4.7595   16.2374  -13.6550 H   0  0  0  0  0  0  0  0  0  0  0  0
   -2.7876   16.6646  -12.2876 H   0  0  0  0  0  0  0  0  0  0  0  0
   -3.0519   16.1015  -10.6025 H   0  0  0  0  0  0  0  0  0  0  0  0
   -1.9928   15.1617  -11.7078 H   0  0  0  0  0  0  0  0  0  0  0  0
  1  2  1  0  0  0  0
  1  4  1  0  0  0  0
  1 11  1  0  0  0  0
  2  6  2  0  0  0  0
  3  4  2  0  0  0  0
  3  5  1  0  0  0  0
  5  6  1  0  0  0  0
  5  9  2  0  0  0  0
  6  7  1  0  0  0  0
  7  8  2  0  0  0  0
  7 10  1  0  0  0  0
  8  9  1  0  0  0  0
 10 12  1  0  0  0  0
 11 24  2  0  0  0  0
 11 27  1  0  0  0  0
 12 13  2  0  0  0  0
 12 17  1  0  0  0  0
 13 14  1  0  0  0  0
 14 15  2  0  0  0  0
 15 16  1  0  0  0  0
 15 18  1  0  0  0  0
 16 17  2  0  0  0  0
 18 19  2  0  0  0  0
 18 22  1  0  0  0  0
 19 20  1  0  0  0  0
 20 21  1  0  0  0  0
 20 23  1  0  0  0  0
 21 22  2  0  0  0  0
 24 25  1  0  0  0  0
 25 26  1  0  0  0  0
 25 28  1  0  0  0  0
 26 27  2  0  0  0  0
  1 29  1  0  0  0  0
  2 30  1  0  0  0  0
  3 31  1  0  0  0  0
  4 32  1  0  0  0  0
 10 33  1  0  0  0  0
 10 34  1  0  0  0  0
 13 35  1  0  0  0  0
 14 36  1  0  0  0  0
 16 37  1  0  0  0  0
 17 38  1  0  0  0  0
 19 39  1  0  0  0  0
 22 40  1  0  0  0  0
 23 41  1  0  0  0  0
 23 42  1  0  0  0  0
 23 43  1  0  0  0  0
 24 44  1  0  0  0  0
 26 45  1  0  0  0  0
 28 46  1  0  0  0  0
 28 47  1  0  0  0  0
 28 48  1  0  0  0  0
M  END
> <Name>
21

> <IC50[uM]>
0.078

$$$$
21
  -OEChem-05192314333D
 Structure written by MMmdl.
 48 52  0     1  0  0  0  0  0999 V2000
   -6.3865   12.3338  -12.0432 C   0  0  0  0  0  0  0  0  0  0  0  0
   -6.4856   11.7841  -10.7704 C   0  0  0  0  0  0  0  0  0  0  0  0
   -7.7472   10.5643  -13.0426 C   0  0  0  0  0  0  0  0  0  0  0  0
   -7.0167   11.7500  -13.1460 C   0  0  0  0  0  0  0  0  0  0  0  0
   -7.8303   10.0081  -11.7598 C   0  0  0  0  0  0  0  0  0  0  0  0
   -7.2256   10.6149  -10.6156 C   0  0  3  0  0  0  0  0  0  0  0  0
   -7.6010    9.7518   -9.5145 C   0  0  0  0  0  0  0  0  0  0  0  0
   -8.2842    8.7423   -9.9828 N   0  0  0  0  0  0  0  0  0  0  0  0
   -8.4323    8.8733  -11.2925 N   0  0  0  0  0  0  0  0  0  0  0  0
   -7.3270    9.8938   -8.0225 C   0  0  0  0  0  0  0  0  0  0  0  0
   -5.5587   13.5285  -12.2266 C   0  0  0  0  0  0  0  0  0  0  0  0
   -5.9618   10.4909   -7.7327 C   0  0  0  0  0  0  0  0  0  0  0  0
   -5.8582   11.7635   -7.1652 C   0  0  0  0  0  0  0  0  0  0  0  0
   -4.6045   12.3140   -6.9191 C   0  0  0  0  0  0  0  0  0  0  0  0
   -3.4477   11.5945   -7.2362 C   0  0  0  0  0  0  0  0  0  0  0  0
   -3.5614   10.3184   -7.7958 C   0  0  0  0  0  0  0  0  0  0  0  0
   -4.8112    9.7685   -8.0438 C   0  0  0  0  0  0  0  0  0  0  0  0
   -2.1002   12.1716   -6.9783 C   0  0  0  0  0  0  0  0  0  0  0  0
   -1.7494   13.4275   -6.4902 C   0  0  0  0  0  0  0  0  0  0  0  0
   -0.4141   13.4605   -6.4332 N   0  0  0  0  0  0  0  0  0  0  0  0
    0.1744   12.3664   -6.8143 N   0  0  0  0  0  0  0  0  0  0  0  0
   -0.8092   11.5630   -7.1796 C   0  0  0  0  0  0  0  0  0  0  0  0
    0.4176   14.5730   -6.0003 C   0  0  0  0  0  0  0  0  0  0  0  0
   -4.4279   13.9049  -11.5130 C   0  0  0  0  0  0  0  0  0  0  0  0
   -4.0090   15.0294  -12.0677 N   0  0  0  0  0  0  0  0  0  0  0  0
   -4.8449   15.3445  -13.0534 C   0  0  0  0  0  0  0  0  0  0  0  0
   -5.7816   14.4464  -13.2081 N   0  0  0  0  0  0  0  0  0  0  0  0
   -2.9003   15.7800  -11.6435 C   0  0  0  0  0  0  0  0  0  0  0  0
   -6.0020   12.2509   -9.9250 H   0  0  0  0  0  0  0  0  0  0  0  0
   -8.2188   10.1047  -13.8986 H   0  0  0  0  0  0  0  0  0  0  0  0
   -6.9360   12.2316  -14.1093 H   0  0  0  0  0  0  0  0  0  0  0  0
   -6.3168   10.0165  -10.7767 H   0  0  0  0  0  0  0  0  0  0  0  0
   -8.0967   10.5457   -7.5837 H   0  0  0  0  0  0  0  0  0  0  0  0
   -7.3815    8.8981   -7.5582 H   0  0  0  0  0  0  0  0  0  0  0  0
   -6.7506   12.3193   -6.9178 H   0  0  0  0  0  0  0  0  0  0  0  0
   -4.5243   13.2985   -6.4825 H   0  0  0  0  0  0  0  0  0  0  0  0
   -2.6708    9.7569   -8.0367 H   0  0  0  0  0  0  0  0  0  0  0  0
   -4.8921    8.7825   -8.4771 H   0  0  0  0  0  0  0  0  0  0  0  0
   -2.4257   14.2220   -6.2113 H   0  0  0  0  0  0  0  0  0  0  0  0
   -0.6634   10.5708   -7.5804 H   0  0  0  0  0  0  0  0  0  0  0  0
    1.4777   14.2881   -6.0708 H   0  0  0  0  0  0  0  0  0  0  0  0
    0.2286   15.4443   -6.6446 H   0  0  0  0  0  0  0  0  0  0  0  0
    0.1751   14.8281   -4.9581 H   0  0  0  0  0  0  0  0  0  0  0  0
   -3.9826   13.3858  -10.6771 H   0  0  0  0  0  0  0  0  0  0  0  0
   -4.7595   16.2374  -13.6550 H   0  0  0  0  0  0  0  0  0  0  0  0
   -2.7876   16.6646  -12.2876 H   0  0  0  0  0  0  0  0  0  0  0  0
   -3.0519   16.1015  -10.6025 H   0  0  0  0  0  0  0  0  0  0  0  0
   -1.9928   15.1617  -11.7078 H   0  0  0  0  0  0  0  0  0  0  0  0
  1  2  2  0  0  0  0
  1  4  1  0  0  0  0
  1 11  1  0  0  0  0
  2  6  1  0  0  0  0
  3  4  2  0  0  0  0
  3  5  1  0  0  0  0
  5  6  1  0  0  0  0
  5  9  2  0  0  0  0
  6  7  1  0  0  0  0
  7  8  2  0  0  0  0
  7 10  1  0  0  0  0
  8  9  1  0  0  0  0
 10 12  1  0  0  0  0
 11 24  2  0  0  0  0
 11 27  1  0  0  0  0
 12 13  2  0  0  0  0
 12 17  1  0  0  0  0
 13 14  1  0  0  0  0
 14 15  2  0  0  0  0
 15 16  1  0  0  0  0
 15 18  1  0  0  0  0
 16 17  2  0  0  0  0
 18 19  2  0  0  0  0
 18 22  1  0  0  0  0
 19 20  1  0  0  0  0
 20 21  1  0  0  0  0
 20 23  1  0  0  0  0
 21 22  2  0  0  0  0
 24 25  1  0  0  0  0
 25 26  1  0  0  0  0
 25 28  1  0  0  0  0
 26 27  2  0  0  0  0
  2 29  1  0  0  0  0
  3 30  1  0  0  0  0
  4 31  1  0  0  0  0
  6 32  1  0  0  0  0
 10 33  1  0  0  0  0
 10 34  1  0  0  0  0
 13 35  1  0  0  0  0
 14 36  1  0  0  0  0
 16 37  1  0  0  0  0
 17 38  1  0  0  0  0
 19 39  1  0  0  0  0
 22 40  1  0  0  0  0
 23 41  1  0  0  0  0
 23 42  1  0  0  0  0
 23 43  1  0  0  0  0
 24 44  1  0  0  0  0
 26 45  1  0  0  0  0
 28 46  1  0  0  0  0
 28 47  1  0  0  0  0
 28 48  1  0  0  0  0
M  END
> <Name>
21

> <IC50[uM]>
0.078

$$$$
21
  -OEChem-05192314333D
 Structure written by MMmdl.
 48 52  0     0  0  0  0  0  0999 V2000
   -6.3865   12.3338  -12.0432 C   0  0  0  0  0  0  0  0  0  0  0  0
   -6.4856   11.7841  -10.7704 C   0  0  0  0  0  0  0  0  0  0  0  0
   -7.7472   10.5643  -13.0426 C   0  0  0  0  0  0  0  0  0  0  0  0
   -7.0167   11.7500  -13.1460 C   0  0  0  0  0  0  0  0  0  0  0  0
   -7.8303   10.0081  -11.7598 C   0  0  0  0  0  0  0  0  0  0  0  0
   -7.2256   10.6149  -10.6156 C   0  0  0  0  0  0  0  0  0  0  0  0
   -7.6010    9.7518   -9.5145 C   0  0  0  0  0  0  0  0  0  0  0  0
   -8.2842    8.7423   -9.9828 N   0  0  0  0  0  0  0  0  0  0  0  0
   -8.4323    8.8733  -11.2925 N   0  0  0  0  0  0  0  0  0  0  0  0
   -7.3270    9.8938   -8.0225 C   0  0  0  0  0  0  0  0  0  0  0  0
   -5.5587   13.5285  -12.2266 C   0  0  0  0  0  0  0  0  0  0  0  0
   -5.9618   10.4909   -7.7327 C   0  0  0  0  0  0  0  0  0  0  0  0
   -5.8582   11.7635   -7.1652 C   0  0  0  0  0  0  0  0  0  0  0  0
   -4.6045   12.3140   -6.9191 C   0  0  0  0  0  0  0  0  0  0  0  0
   -3.4477   11.5945   -7.2362 C   0  0  0  0  0  0  0  0  0  0  0  0
   -3.5614   10.3184   -7.7958 C   0  0  0  0  0  0  0  0  0  0  0  0
   -4.8112    9.7685   -8.0438 C   0  0  0  0  0  0  0  0  0  0  0  0
   -2.1002   12.1716   -6.9783 C   0  0  0  0  0  0  0  0  0  0  0  0
   -1.7494   13.4275   -6.4902 C   0  0  0  0  0  0  0  0  0  0  0  0
   -0.4141   13.4605   -6.4332 N   0  0  0  0  0  0  0  0  0  0  0  0
    0.1744   12.3664   -6.8143 N   0  0  0  0  0  0  0  0  0  0  0  0
   -0.8092   11.5630   -7.1796 C   0  0  0  0  0  0  0  0  0  0  0  0
    0.4176   14.5730   -6.0003 C   0  0  0  0  0  0  0  0  0  0  0  0
   -4.4279   13.9049  -11.5130 C   0  0  0  0  0  0  0  0  0  0  0  0
   -4.0090   15.0294  -12.0677 N   0  0  0  0  0  0  0  0  0  0  0  0
   -4.8449   15.3445  -13.0534 C   0  0  0  0  0  0  0  0  0  0  0  0
   -5.7816   14.4464  -13.2081 N   0  0  0  0  0  0  0  0  0  0  0  0
   -2.9003   15.7800  -11.6435 C   0  0  0  0  0  0  0  0  0  0  0  0
   -6.0020   12.2509   -9.9250 H   0  0  0  0  0  0  0  0  0  0  0  0
   -8.7712   10.7678  -13.3889 H   0  0  0  0  0  0  0  0  0  0  0  0
   -7.2778    9.8203  -13.7030 H   0  0  0  0  0  0  0  0  0  0  0  0
   -6.9360   12.2316  -14.1093 H   0  0  0  0  0  0  0  0  0  0  0  0
   -8.0967   10.5457   -7.5837 H   0  0  0  0  0  0  0  0  0  0  0  0
   -7.3815    8.8981   -7.5582 H   0  0  0  0  0  0  0  0  0  0  0  0
   -6.7506   12.3193   -6.9178 H   0  0  0  0  0  0  0  0  0  0  0  0
   -4.5243   13.2985   -6.4825 H   0  0  0  0  0  0  0  0  0  0  0  0
   -2.6708    9.7569   -8.0367 H   0  0  0  0  0  0  0  0  0  0  0  0
   -4.8921    8.7825   -8.4771 H   0  0  0  0  0  0  0  0  0  0  0  0
   -2.4257   14.2220   -6.2113 H   0  0  0  0  0  0  0  0  0  0  0  0
   -0.6634   10.5708   -7.5804 H   0  0  0  0  0  0  0  0  0  0  0  0
    1.4777   14.2881   -6.0708 H   0  0  0  0  0  0  0  0  0  0  0  0
    0.2286   15.4443   -6.6446 H   0  0  0  0  0  0  0  0  0  0  0  0
    0.1751   14.8281   -4.9581 H   0  0  0  0  0  0  0  0  0  0  0  0
   -3.9826   13.3858  -10.6771 H   0  0  0  0  0  0  0  0  0  0  0  0
   -4.7595   16.2374  -13.6550 H   0  0  0  0  0  0  0  0  0  0  0  0
   -2.7876   16.6646  -12.2876 H   0  0  0  0  0  0  0  0  0  0  0  0
   -3.0519   16.1015  -10.6025 H   0  0  0  0  0  0  0  0  0  0  0  0
   -1.9928   15.1617  -11.7078 H   0  0  0  0  0  0  0  0  0  0  0  0
  1  2  1  0  0  0  0
  1  4  2  0  0  0  0
  1 11  1  0  0  0  0
  2  6  2  0  0  0  0
  3  4  1  0  0  0  0
  3  5  1  0  0  0  0
  5  6  1  0  0  0  0
  5  9  2  0  0  0  0
  6  7  1  0  0  0  0
  7  8  2  0  0  0  0
  7 10  1  0  0  0  0
  8  9  1  0  0  0  0
 10 12  1  0  0  0  0
 11 24  2  0  0  0  0
 11 27  1  0  0  0  0
 12 13  2  0  0  0  0
 12 17  1  0  0  0  0
 13 14  1  0  0  0  0
 14 15  2  0  0  0  0
 15 16  1  0  0  0  0
 15 18  1  0  0  0  0
 16 17  2  0  0  0  0
 18 19  2  0  0  0  0
 18 22  1  0  0  0  0
 19 20  1  0  0  0  0
 20 21  1  0  0  0  0
 20 23  1  0  0  0  0
 21 22  2  0  0  0  0
 24 25  1  0  0  0  0
 25 26  1  0  0  0  0
 25 28  1  0  0  0  0
 26 27  2  0  0  0  0
  2 29  1  0  0  0  0
  3 30  1  0  0  0  0
  3 31  1  0  0  0  0
  4 32  1  0  0  0  0
 10 33  1  0  0  0  0
 10 34  1  0  0  0  0
 13 35  1  0  0  0  0
 14 36  1  0  0  0  0
 16 37  1  0  0  0  0
 17 38  1  0  0  0  0
 19 39  1  0  0  0  0
 22 40  1  0  0  0  0
 23 41  1  0  0  0  0
 23 42  1  0  0  0  0
 23 43  1  0  0  0  0
 24 44  1  0  0  0  0
 26 45  1  0  0  0  0
 28 46  1  0  0  0  0
 28 47  1  0  0  0  0
 28 48  1  0  0  0  0
M  END
> <Name>
21

> <IC50[uM]>
0.078

$$$$
21
  -OEChem-05192314333D
 Structure written by MMmdl.
 48 52  0     0  0  0  0  0  0999 V2000
   -6.3865   12.3338  -12.0432 C   0  0  0  0  0  0  0  0  0  0  0  0
   -6.4856   11.7841  -10.7704 C   0  0  0  0  0  0  0  0  0  0  0  0
   -7.7472   10.5643  -13.0426 C   0  0  0  0  0  0  0  0  0  0  0  0
   -7.0167   11.7500  -13.1460 C   0  0  0  0  0  0  0  0  0  0  0  0
   -7.8303   10.0081  -11.7598 C   0  0  0  0  0  0  0  0  0  0  0  0
   -7.2256   10.6149  -10.6156 C   0  0  0  0  0  0  0  0  0  0  0  0
   -7.6010    9.7518   -9.5145 C   0  0  0  0  0  0  0  0  0  0  0  0
   -8.2842    8.7423   -9.9828 N   0  0  0  0  0  0  0  0  0  0  0  0
   -8.4323    8.8733  -11.2925 N   0  0  0  0  0  0  0  0  0  0  0  0
   -7.3270    9.8938   -8.0225 C   0  0  0  0  0  0  0  0  0  0  0  0
   -5.5587   13.5285  -12.2266 C   0  0  0  0  0  0  0  0  0  0  0  0
   -5.9618   10.4909   -7.7327 C   0  0  0  0  0  0  0  0  0  0  0  0
   -5.8582   11.7635   -7.1652 C   0  0  0  0  0  0  0  0  0  0  0  0
   -4.6045   12.3140   -6.9191 C   0  0  0  0  0  0  0  0  0  0  0  0
   -3.4477   11.5945   -7.2362 C   0  0  0  0  0  0  0  0  0  0  0  0
   -3.5614   10.3184   -7.7958 C   0  0  0  0  0  0  0  0  0  0  0  0
   -4.8112    9.7685   -8.0438 C   0  0  0  0  0  0  0  0  0  0  0  0
   -2.1002   12.1716   -6.9783 C   0  0  0  0  0  0  0  0  0  0  0  0
   -1.7494   13.4275   -6.4902 C   0  0  0  0  0  0  0  0  0  0  0  0
   -0.4141   13.4605   -6.4332 N   0  0  0  0  0  0  0  0  0  0  0  0
    0.1744   12.3664   -6.8143 N   0  0  0  0  0  0  0  0  0  0  0  0
   -0.8092   11.5630   -7.1796 C   0  0  0  0  0  0  0  0  0  0  0  0
    0.4176   14.5730   -6.0003 C   0  0  0  0  0  0  0  0  0  0  0  0
   -4.4279   13.9049  -11.5130 C   0  0  0  0  0  0  0  0  0  0  0  0
   -4.0090   15.0294  -12.0677 N   0  0  0  0  0  0  0  0  0  0  0  0
   -4.8449   15.3445  -13.0534 C   0  0  0  0  0  0  0  0  0  0  0  0
   -5.7816   14.4464  -13.2081 N   0  0  0  0  0  0  0  0  0  0  0  0
   -2.9003   15.7800  -11.6435 C   0  0  0  0  0  0  0  0  0  0  0  0
   -6.0020   12.2509   -9.9250 H   0  0  0  0  0  0  0  0  0  0  0  0
   -8.2188   10.1047  -13.8986 H   0  0  0  0  0  0  0  0  0  0  0  0
   -6.9360   12.2316  -14.1093 H   0  0  0  0  0  0  0  0  0  0  0  0
   -8.0279    9.6014   -7.2546 H   0  0  0  0  0  0  0  0  0  0  0  0
   -5.9757   10.0415   -6.7288 H   0  0  0  0  0  0  0  0  0  0  0  0
   -6.7506   12.3193   -6.9178 H   0  0  0  0  0  0  0  0  0  0  0  0
   -4.5243   13.2985   -6.4825 H   0  0  0  0  0  0  0  0  0  0  0  0
   -3.4463   12.0375   -8.2430 H   0  0  0  0  0  0  0  0  0  0  0  0
   -2.6708    9.7569   -8.0367 H   0  0  0  0  0  0  0  0  0  0  0  0
   -4.8921    8.7825   -8.4771 H   0  0  0  0  0  0  0  0  0  0  0  0
   -2.4257   14.2220   -6.2113 H   0  0  0  0  0  0  0  0  0  0  0  0
   -0.6634   10.5708   -7.5804 H   0  0  0  0  0  0  0  0  0  0  0  0
    1.4777   14.2881   -6.0708 H   0  0  0  0  0  0  0  0  0  0  0  0
    0.2286   15.4443   -6.6446 H   0  0  0  0  0  0  0  0  0  0  0  0
    0.1751   14.8281   -4.9581 H   0  0  0  0  0  0  0  0  0  0  0  0
   -3.9826   13.3858  -10.6771 H   0  0  0  0  0  0  0  0  0  0  0  0
   -4.7595   16.2374  -13.6550 H   0  0  0  0  0  0  0  0  0  0  0  0
   -2.7876   16.6646  -12.2876 H   0  0  0  0  0  0  0  0  0  0  0  0
   -3.0519   16.1015  -10.6025 H   0  0  0  0  0  0  0  0  0  0  0  0
   -1.9928   15.1617  -11.7078 H   0  0  0  0  0  0  0  0  0  0  0  0
  1  2  2  0  0  0  0
  1  4  1  0  0  0  0
  1 11  1  0  0  0  0
  2  6  1  0  0  0  0
  3  4  2  0  0  0  0
  3  5  1  0  0  0  0
  5  6  2  0  0  0  0
  5  9  1  0  0  0  0
  6  7  1  0  0  0  0
  7  8  1  0  0  0  0
  7 10  2  3  0  0  0
  8  9  2  0  0  0  0
 10 12  1  0  0  0  0
 11 24  2  0  0  0  0
 11 27  1  0  0  0  0
 12 13  1  0  0  0  0
 12 17  1  0  0  0  0
 13 14  2  0  0  0  0
 14 15  1  0  0  0  0
 15 16  1  0  0  0  0
 15 18  1  0  0  0  0
 16 17  2  0  0  0  0
 18 19  2  0  0  0  0
 18 22  1  0  0  0  0
 19 20  1  0  0  0  0
 20 21  1  0  0  0  0
 20 23  1  0  0  0  0
 21 22  2  0  0  0  0
 24 25  1  0  0  0  0
 25 26  1  0  0  0  0
 25 28  1  0  0  0  0
 26 27  2  0  0  0  0
  2 29  1  0  0  0  0
  3 30  1  0  0  0  0
  4 31  1  0  0  0  0
 10 32  1  0  0  0  0
 12 33  1  0  0  0  0
 13 34  1  0  0  0  0
 14 35  1  0  0  0  0
 15 36  1  0  0  0  0
 16 37  1  0  0  0  0
 17 38  1  0  0  0  0
 19 39  1  0  0  0  0
 22 40  1  0  0  0  0
 23 41  1  0  0  0  0
 23 42  1  0  0  0  0
 23 43  1  0  0  0  0
 24 44  1  0  0  0  0
 26 45  1  0  0  0  0
 28 46  1  0  0  0  0
 28 47  1  0  0  0  0
 28 48  1  0  0  0  0
M  END
> <Name>
21

> <IC50[uM]>
0.078

$$$$
21
  -OEChem-05192314333D
 Structure written by MMmdl.
 48 52  0     1  0  0  0  0  0999 V2000
   -6.3865   12.3338  -12.0432 C   0  0  0  0  0  0  0  0  0  0  0  0
   -6.4856   11.7841  -10.7704 C   0  0  0  0  0  0  0  0  0  0  0  0
   -7.7472   10.5643  -13.0426 C   0  0  0  0  0  0  0  0  0  0  0  0
   -7.0167   11.7500  -13.1460 C   0  0  0  0  0  0  0  0  0  0  0  0
   -7.8303   10.0081  -11.7598 C   0  0  0  0  0  0  0  0  0  0  0  0
   -7.2256   10.6149  -10.6156 C   0  0  0  0  0  0  0  0  0  0  0  0
   -7.6010    9.7518   -9.5145 C   0  0  3  0  0  0  0  0  0  0  0  0
   -8.2842    8.7423   -9.9828 N   0  0  0  0  0  0  0  0  0  0  0  0
   -8.4323    8.8733  -11.2925 N   0  0  0  0  0  0  0  0  0  0  0  0
   -7.3270    9.8938   -8.0225 C   0  0  0  0  0  0  0  0  0  0  0  0
   -5.5587   13.5285  -12.2266 C   0  0  0  0  0  0  0  0  0  0  0  0
   -5.9618   10.4909   -7.7327 C   0  0  0  0  0  0  0  0  0  0  0  0
   -5.8582   11.7635   -7.1652 C   0  0  0  0  0  0  0  0  0  0  0  0
   -4.6045   12.3140   -6.9191 C   0  0  0  0  0  0  0  0  0  0  0  0
   -3.4477   11.5945   -7.2362 C   0  0  0  0  0  0  0  0  0  0  0  0
   -3.5614   10.3184   -7.7958 C   0  0  0  0  0  0  0  0  0  0  0  0
   -4.8112    9.7685   -8.0438 C   0  0  0  0  0  0  0  0  0  0  0  0
   -2.1002   12.1716   -6.9783 C   0  0  0  0  0  0  0  0  0  0  0  0
   -1.7494   13.4275   -6.4902 C   0  0  0  0  0  0  0  0  0  0  0  0
   -0.4141   13.4605   -6.4332 N   0  0  0  0  0  0  0  0  0  0  0  0
    0.1744   12.3664   -6.8143 N   0  0  0  0  0  0  0  0  0  0  0  0
   -0.8092   11.5630   -7.1796 C   0  0  0  0  0  0  0  0  0  0  0  0
    0.4176   14.5730   -6.0003 C   0  0  0  0  0  0  0  0  0  0  0  0
   -4.4279   13.9049  -11.5130 C   0  0  0  0  0  0  0  0  0  0  0  0
   -4.0090   15.0294  -12.0677 N   0  0  0  0  0  0  0  0  0  0  0  0
   -4.8449   15.3445  -13.0534 C   0  0  0  0  0  0  0  0  0  0  0  0
   -5.7816   14.4464  -13.2081 N   0  0  0  0  0  0  0  0  0  0  0  0
   -2.9003   15.7800  -11.6435 C   0  0  0  0  0  0  0  0  0  0  0  0
   -6.0020   12.2509   -9.9250 H   0  0  0  0  0  0  0  0  0  0  0  0
   -8.2188   10.1047  -13.8986 H   0  0  0  0  0  0  0  0  0  0  0  0
   -6.9360   12.2316  -14.1093 H   0  0  0  0  0  0  0  0  0  0  0  0
   -6.6674    9.1829   -9.6362 H   0  0  0  0  0  0  0  0  0  0  0  0
   -8.0279    9.6014   -7.2546 H   0  0  0  0  0  0  0  0  0  0  0  0
   -6.7506   12.3193   -6.9178 H   0  0  0  0  0  0  0  0  0  0  0  0
   -4.5243   13.2985   -6.4825 H   0  0  0  0  0  0  0  0  0  0  0  0
   -3.4463   12.0375   -8.2430 H   0  0  0  0  0  0  0  0  0  0  0  0
   -2.6708    9.7569   -8.0367 H   0  0  0  0  0  0  0  0  0  0  0  0
   -4.8921    8.7825   -8.4771 H   0  0  0  0  0  0  0  0  0  0  0  0
   -2.4257   14.2220   -6.2113 H   0  0  0  0  0  0  0  0  0  0  0  0
   -0.6634   10.5708   -7.5804 H   0  0  0  0  0  0  0  0  0  0  0  0
    1.4777   14.2881   -6.0708 H   0  0  0  0  0  0  0  0  0  0  0  0
    0.2286   15.4443   -6.6446 H   0  0  0  0  0  0  0  0  0  0  0  0
    0.1751   14.8281   -4.9581 H   0  0  0  0  0  0  0  0  0  0  0  0
   -3.9826   13.3858  -10.6771 H   0  0  0  0  0  0  0  0  0  0  0  0
   -4.7595   16.2374  -13.6550 H   0  0  0  0  0  0  0  0  0  0  0  0
   -2.7876   16.6646  -12.2876 H   0  0  0  0  0  0  0  0  0  0  0  0
   -3.0519   16.1015  -10.6025 H   0  0  0  0  0  0  0  0  0  0  0  0
   -1.9928   15.1617  -11.7078 H   0  0  0  0  0  0  0  0  0  0  0  0
  1  2  2  0  0  0  0
  1  4  1  0  0  0  0
  1 11  1  0  0  0  0
  2  6  1  0  0  0  0
  3  4  2  0  0  0  0
  3  5  1  0  0  0  0
  5  6  2  0  0  0  0
  5  9  1  0  0  0  0
  6  7  1  0  0  0  0
  7  8  1  0  0  0  0
  7 10  1  0  0  0  0
  8  9  2  0  0  0  0
 10 12  2  0  0  0  0
 11 24  2  0  0  0  0
 11 27  1  0  0  0  0
 12 13  1  0  0  0  0
 12 17  1  0  0  0  0
 13 14  2  0  0  0  0
 14 15  1  0  0  0  0
 15 16  1  0  0  0  0
 15 18  1  0  0  0  0
 16 17  2  0  0  0  0
 18 19  2  0  0  0  0
 18 22  1  0  0  0  0
 19 20  1  0  0  0  0
 20 21  1  0  0  0  0
 20 23  1  0  0  0  0
 21 22  2  0  0  0  0
 24 25  1  0  0  0  0
 25 26  1  0  0  0  0
 25 28  1  0  0  0  0
 26 27  2  0  0  0  0
  2 29  1  0  0  0  0
  3 30  1  0  0  0  0
  4 31  1  0  0  0  0
  7 32  1  0  0  0  0
 10 33  1  0  0  0  0
 13 34  1  0  0  0  0
 14 35  1  0  0  0  0
 15 36  1  0  0  0  0
 16 37  1  0  0  0  0
 17 38  1  0  0  0  0
 19 39  1  0  0  0  0
 22 40  1  0  0  0  0
 23 41  1  0  0  0  0
 23 42  1  0  0  0  0
 23 43  1  0  0  0  0
 24 44  1  0  0  0  0
 26 45  1  0  0  0  0
 28 46  1  0  0  0  0
 28 47  1  0  0  0  0
 28 48  1  0  0  0  0
M  END
> <Name>
21

> <IC50[uM]>
0.078

$$$$
21
  -OEChem-05192314333D
 Structure written by MMmdl.
 48 52  0     1  0  0  0  0  0999 V2000
   -6.3865   12.3338  -12.0432 C   0  0  3  0  0  0  0  0  0  0  0  0
   -6.4856   11.7841  -10.7704 C   0  0  0  0  0  0  0  0  0  0  0  0
   -7.7472   10.5643  -13.0426 C   0  0  0  0  0  0  0  0  0  0  0  0
   -7.0167   11.7500  -13.1460 C   0  0  0  0  0  0  0  0  0  0  0  0
   -7.8303   10.0081  -11.7598 C   0  0  3  0  0  0  0  0  0  0  0  0
   -7.2256   10.6149  -10.6156 C   0  0  0  0  0  0  0  0  0  0  0  0
   -7.6010    9.7518   -9.5145 C   0  0  0  0  0  0  0  0  0  0  0  0
   -8.2842    8.7423   -9.9828 N   0  0  0  0  0  0  0  0  0  0  0  0
   -8.4323    8.8733  -11.2925 N   0  0  0  0  0  0  0  0  0  0  0  0
   -7.3270    9.8938   -8.0225 C   0  0  0  0  0  0  0  0  0  0  0  0
   -5.5587   13.5285  -12.2266 C   0  0  0  0  0  0  0  0  0  0  0  0
   -5.9618   10.4909   -7.7327 C   0  0  0  0  0  0  0  0  0  0  0  0
   -5.8582   11.7635   -7.1652 C   0  0  0  0  0  0  0  0  0  0  0  0
   -4.6045   12.3140   -6.9191 C   0  0  0  0  0  0  0  0  0  0  0  0
   -3.4477   11.5945   -7.2362 C   0  0  0  0  0  0  0  0  0  0  0  0
   -3.5614   10.3184   -7.7958 C   0  0  0  0  0  0  0  0  0  0  0  0
   -4.8112    9.7685   -8.0438 C   0  0  0  0  0  0  0  0  0  0  0  0
   -2.1002   12.1716   -6.9783 C   0  0  0  0  0  0  0  0  0  0  0  0
   -1.7494   13.4275   -6.4902 C   0  0  0  0  0  0  0  0  0  0  0  0
   -0.4141   13.4605   -6.4332 N   0  0  0  0  0  0  0  0  0  0  0  0
    0.1744   12.3664   -6.8143 N   0  0  0  0  0  0  0  0  0  0  0  0
   -0.8092   11.5630   -7.1796 C   0  0  0  0  0  0  0  0  0  0  0  0
    0.4176   14.5730   -6.0003 C   0  0  0  0  0  0  0  0  0  0  0  0
   -4.4279   13.9049  -11.5130 C   0  0  0  0  0  0  0  0  0  0  0  0
   -4.0090   15.0294  -12.0677 N   0  0  0  0  0  0  0  0  0  0  0  0
   -4.8449   15.3445  -13.0534 C   0  0  0  0  0  0  0  0  0  0  0  0
   -5.7816   14.4464  -13.2081 N   0  0  0  0  0  0  0  0  0  0  0  0
   -2.9003   15.7800  -11.6435 C   0  0  0  0  0  0  0  0  0  0  0  0
   -7.2704   12.9609  -11.8546 H   0  0  0  0  0  0  0  0  0  0  0  0
   -6.0020   12.2509   -9.9250 H   0  0  0  0  0  0  0  0  0  0  0  0
   -8.2188   10.1047  -13.8986 H   0  0  0  0  0  0  0  0  0  0  0  0
   -6.9360   12.2316  -14.1093 H   0  0  0  0  0  0  0  0  0  0  0  0
   -8.7540   10.5755  -11.5731 H   0  0  0  0  0  0  0  0  0  0  0  0
   -8.0279    9.6014   -7.2546 H   0  0  0  0  0  0  0  0  0  0  0  0
   -6.7506   12.3193   -6.9178 H   0  0  0  0  0  0  0  0  0  0  0  0
   -4.5243   13.2985   -6.4825 H   0  0  0  0  0  0  0  0  0  0  0  0
   -2.6708    9.7569   -8.0367 H   0  0  0  0  0  0  0  0  0  0  0  0
   -4.8921    8.7825   -8.4771 H   0  0  0  0  0  0  0  0  0  0  0  0
   -2.4257   14.2220   -6.2113 H   0  0  0  0  0  0  0  0  0  0  0  0
   -0.6634   10.5708   -7.5804 H   0  0  0  0  0  0  0  0  0  0  0  0
    1.4777   14.2881   -6.0708 H   0  0  0  0  0  0  0  0  0  0  0  0
    0.2286   15.4443   -6.6446 H   0  0  0  0  0  0  0  0  0  0  0  0
    0.1751   14.8281   -4.9581 H   0  0  0  0  0  0  0  0  0  0  0  0
   -3.9826   13.3858  -10.6771 H   0  0  0  0  0  0  0  0  0  0  0  0
   -4.7595   16.2374  -13.6550 H   0  0  0  0  0  0  0  0  0  0  0  0
   -2.7876   16.6646  -12.2876 H   0  0  0  0  0  0  0  0  0  0  0  0
   -3.0519   16.1015  -10.6025 H   0  0  0  0  0  0  0  0  0  0  0  0
   -1.9928   15.1617  -11.7078 H   0  0  0  0  0  0  0  0  0  0  0  0
  1  2  1  0  0  0  0
  1  4  1  0  0  0  0
  1 11  1  0  0  0  0
  2  6  2  0  0  0  0
  3  4  2  0  0  0  0
  3  5  1  0  0  0  0
  5  6  1  0  0  0  0
  5  9  1  0  0  0  0
  6  7  1  0  0  0  0
  7  8  1  0  0  0  0
  7 10  2  3  0  0  0
  8  9  2  0  0  0  0
 10 12  1  0  0  0  0
 11 24  2  0  0  0  0
 11 27  1  0  0  0  0
 12 13  2  0  0  0  0
 12 17  1  0  0  0  0
 13 14  1  0  0  0  0
 14 15  2  0  0  0  0
 15 16  1  0  0  0  0
 15 18  1  0  0  0  0
 16 17  2  0  0  0  0
 18 19  2  0  0  0  0
 18 22  1  0  0  0  0
 19 20  1  0  0  0  0
 20 21  1  0  0  0  0
 20 23  1  0  0  0  0
 21 22  2  0  0  0  0
 24 25  1  0  0  0  0
 25 26  1  0  0  0  0
 25 28  1  0  0  0  0
 26 27  2  0  0  0  0
  1 29  1  0  0  0  0
  2 30  1  0  0  0  0
  3 31  1  0  0  0  0
  4 32  1  0  0  0  0
  5 33  1  0  0  0  0
 10 34  1  0  0  0  0
 13 35  1  0  0  0  0
 14 36  1  0  0  0  0
 16 37  1  0  0  0  0
 17 38  1  0  0  0  0
 19 39  1  0  0  0  0
 22 40  1  0  0  0  0
 23 41  1  0  0  0  0
 23 42  1  0  0  0  0
 23 43  1  0  0  0  0
 24 44  1  0  0  0  0
 26 45  1  0  0  0  0
 28 46  1  0  0  0  0
 28 47  1  0  0  0  0
 28 48  1  0  0  0  0
M  END
> <Name>
21

> <IC50[uM]>
0.078

$$$$
21
  -OEChem-05192314333D
 Structure written by MMmdl.
 48 52  0     1  0  0  0  0  0999 V2000
   -6.3865   12.3338  -12.0432 C   0  0  0  0  0  0  0  0  0  0  0  0
   -6.4856   11.7841  -10.7704 C   0  0  0  0  0  0  0  0  0  0  0  0
   -7.7472   10.5643  -13.0426 C   0  0  0  0  0  0  0  0  0  0  0  0
   -7.0167   11.7500  -13.1460 C   0  0  0  0  0  0  0  0  0  0  0  0
   -7.8303   10.0081  -11.7598 C   0  0  3  0  0  0  0  0  0  0  0  0
   -7.2256   10.6149  -10.6156 C   0  0  3  0  0  0  0  0  0  0  0  0
   -7.6010    9.7518   -9.5145 C   0  0  0  0  0  0  0  0  0  0  0  0
   -8.2842    8.7423   -9.9828 N   0  0  0  0  0  0  0  0  0  0  0  0
   -8.4323    8.8733  -11.2925 N   0  0  0  0  0  0  0  0  0  0  0  0
   -7.3270    9.8938   -8.0225 C   0  0  0  0  0  0  0  0  0  0  0  0
   -5.5587   13.5285  -12.2266 C   0  0  0  0  0  0  0  0  0  0  0  0
   -5.9618   10.4909   -7.7327 C   0  0  0  0  0  0  0  0  0  0  0  0
   -5.8582   11.7635   -7.1652 C   0  0  0  0  0  0  0  0  0  0  0  0
   -4.6045   12.3140   -6.9191 C   0  0  0  0  0  0  0  0  0  0  0  0
   -3.4477   11.5945   -7.2362 C   0  0  0  0  0  0  0  0  0  0  0  0
   -3.5614   10.3184   -7.7958 C   0  0  0  0  0  0  0  0  0  0  0  0
   -4.8112    9.7685   -8.0438 C   0  0  0  0  0  0  0  0  0  0  0  0
   -2.1002   12.1716   -6.9783 C   0  0  0  0  0  0  0  0  0  0  0  0
   -1.7494   13.4275   -6.4902 C   0  0  0  0  0  0  0  0  0  0  0  0
   -0.4141   13.4605   -6.4332 N   0  0  0  0  0  0  0  0  0  0  0  0
    0.1744   12.3664   -6.8143 N   0  0  0  0  0  0  0  0  0  0  0  0
   -0.8092   11.5630   -7.1796 C   0  0  0  0  0  0  0  0  0  0  0  0
    0.4176   14.5730   -6.0003 C   0  0  0  0  0  0  0  0  0  0  0  0
   -4.4279   13.9049  -11.5130 C   0  0  0  0  0  0  0  0  0  0  0  0
   -4.0090   15.0294  -12.0677 N   0  0  0  0  0  0  0  0  0  0  0  0
   -4.8449   15.3445  -13.0534 C   0  0  0  0  0  0  0  0  0  0  0  0
   -5.7816   14.4464  -13.2081 N   0  0  0  0  0  0  0  0  0  0  0  0
   -2.9003   15.7800  -11.6435 C   0  0  0  0  0  0  0  0  0  0  0  0
   -6.0020   12.2509   -9.9250 H   0  0  0  0  0  0  0  0  0  0  0  0
   -8.2188   10.1047  -13.8986 H   0  0  0  0  0  0  0  0  0  0  0  0
   -6.9360   12.2316  -14.1093 H   0  0  0  0  0  0  0  0  0  0  0  0
   -8.7540   10.5755  -11.5731 H   0  0  0  0  0  0  0  0  0  0  0  0
   -6.3168   10.0165  -10.7767 H   0  0  0  0  0  0  0  0  0  0  0  0
   -8.0279    9.6014   -7.2546 H   0  0  0  0  0  0  0  0  0  0  0  0
   -6.7506   12.3193   -6.9178 H   0  0  0  0  0  0  0  0  0  0  0  0
   -4.5243   13.2985   -6.4825 H   0  0  0  0  0  0  0  0  0  0  0  0
   -2.6708    9.7569   -8.0367 H   0  0  0  0  0  0  0  0  0  0  0  0
   -4.8921    8.7825   -8.4771 H   0  0  0  0  0  0  0  0  0  0  0  0
   -2.4257   14.2220   -6.2113 H   0  0  0  0  0  0  0  0  0  0  0  0
   -0.6634   10.5708   -7.5804 H   0  0  0  0  0  0  0  0  0  0  0  0
    1.4777   14.2881   -6.0708 H   0  0  0  0  0  0  0  0  0  0  0  0
    0.2286   15.4443   -6.6446 H   0  0  0  0  0  0  0  0  0  0  0  0
    0.1751   14.8281   -4.9581 H   0  0  0  0  0  0  0  0  0  0  0  0
   -3.9826   13.3858  -10.6771 H   0  0  0  0  0  0  0  0  0  0  0  0
   -4.7595   16.2374  -13.6550 H   0  0  0  0  0  0  0  0  0  0  0  0
   -2.7876   16.6646  -12.2876 H   0  0  0  0  0  0  0  0  0  0  0  0
   -3.0519   16.1015  -10.6025 H   0  0  0  0  0  0  0  0  0  0  0  0
   -1.9928   15.1617  -11.7078 H   0  0  0  0  0  0  0  0  0  0  0  0
  1  2  2  0  0  0  0
  1  4  1  0  0  0  0
  1 11  1  0  0  0  0
  2  6  1  0  0  0  0
  3  4  2  0  0  0  0
  3  5  1  0  0  0  0
  5  6  1  0  0  0  0
  5  9  1  0  0  0  0
  6  7  1  0  0  0  0
  7  8  1  0  0  0  0
  7 10  2  3  0  0  0
  8  9  2  0  0  0  0
 10 12  1  0  0  0  0
 11 24  2  0  0  0  0
 11 27  1  0  0  0  0
 12 13  2  0  0  0  0
 12 17  1  0  0  0  0
 13 14  1  0  0  0  0
 14 15  2  0  0  0  0
 15 16  1  0  0  0  0
 15 18  1  0  0  0  0
 16 17  2  0  0  0  0
 18 19  2  0  0  0  0
 18 22  1  0  0  0  0
 19 20  1  0  0  0  0
 20 21  1  0  0  0  0
 20 23  1  0  0  0  0
 21 22  2  0  0  0  0
 24 25  1  0  0  0  0
 25 26  1  0  0  0  0
 25 28  1  0  0  0  0
 26 27  2  0  0  0  0
  2 29  1  0  0  0  0
  3 30  1  0  0  0  0
  4 31  1  0  0  0  0
  5 32  1  0  0  0  0
  6 33  1  0  0  0  0
 10 34  1  0  0  0  0
 13 35  1  0  0  0  0
 14 36  1  0  0  0  0
 16 37  1  0  0  0  0
 17 38  1  0  0  0  0
 19 39  1  0  0  0  0
 22 40  1  0  0  0  0
 23 41  1  0  0  0  0
 23 42  1  0  0  0  0
 23 43  1  0  0  0  0
 24 44  1  0  0  0  0
 26 45  1  0  0  0  0
 28 46  1  0  0  0  0
 28 47  1  0  0  0  0
 28 48  1  0  0  0  0
M  END
> <Name>
21

> <IC50[uM]>
0.078

$$$$
21
  -OEChem-05192314333D
 Structure written by MMmdl.
 48 52  0     1  0  0  0  0  0999 V2000
   -6.3865   12.3338  -12.0432 C   0  0  0  0  0  0  0  0  0  0  0  0
   -6.4856   11.7841  -10.7704 C   0  0  0  0  0  0  0  0  0  0  0  0
   -7.7472   10.5643  -13.0426 C   0  0  0  0  0  0  0  0  0  0  0  0
   -7.0167   11.7500  -13.1460 C   0  0  0  0  0  0  0  0  0  0  0  0
   -7.8303   10.0081  -11.7598 C   0  0  3  0  0  0  0  0  0  0  0  0
   -7.2256   10.6149  -10.6156 C   0  0  0  0  0  0  0  0  0  0  0  0
   -7.6010    9.7518   -9.5145 C   0  0  0  0  0  0  0  0  0  0  0  0
   -8.2842    8.7423   -9.9828 N   0  0  0  0  0  0  0  0  0  0  0  0
   -8.4323    8.8733  -11.2925 N   0  0  0  0  0  0  0  0  0  0  0  0
   -7.3270    9.8938   -8.0225 C   0  0  0  0  0  0  0  0  0  0  0  0
   -5.5587   13.5285  -12.2266 C   0  0  0  0  0  0  0  0  0  0  0  0
   -5.9618   10.4909   -7.7327 C   0  0  0  0  0  0  0  0  0  0  0  0
   -5.8582   11.7635   -7.1652 C   0  0  0  0  0  0  0  0  0  0  0  0
   -4.6045   12.3140   -6.9191 C   0  0  0  0  0  0  0  0  0  0  0  0
   -3.4477   11.5945   -7.2362 C   0  0  0  0  0  0  0  0  0  0  0  0
   -3.5614   10.3184   -7.7958 C   0  0  0  0  0  0  0  0  0  0  0  0
   -4.8112    9.7685   -8.0438 C   0  0  0  0  0  0  0  0  0  0  0  0
   -2.1002   12.1716   -6.9783 C   0  0  0  0  0  0  0  0  0  0  0  0
   -1.7494   13.4275   -6.4902 C   0  0  0  0  0  0  0  0  0  0  0  0
   -0.4141   13.4605   -6.4332 N   0  0  0  0  0  0  0  0  0  0  0  0
    0.1744   12.3664   -6.8143 N   0  0  0  0  0  0  0  0  0  0  0  0
   -0.8092   11.5630   -7.1796 C   0  0  0  0  0  0  0  0  0  0  0  0
    0.4176   14.5730   -6.0003 C   0  0  0  0  0  0  0  0  0  0  0  0
   -4.4279   13.9049  -11.5130 C   0  0  0  0  0  0  0  0  0  0  0  0
   -4.0090   15.0294  -12.0677 N   0  0  0  0  0  0  0  0  0  0  0  0
   -4.8449   15.3445  -13.0534 C   0  0  0  0  0  0  0  0  0  0  0  0
   -5.7816   14.4464  -13.2081 N   0  0  0  0  0  0  0  0  0  0  0  0
   -2.9003   15.7800  -11.6435 C   0  0  0  0  0  0  0  0  0  0  0  0
   -6.0020   12.2509   -9.9250 H   0  0  0  0  0  0  0  0  0  0  0  0
   -8.7712   10.7678  -13.3889 H   0  0  0  0  0  0  0  0  0  0  0  0
   -7.2778    9.8203  -13.7030 H   0  0  0  0  0  0  0  0  0  0  0  0
   -6.9360   12.2316  -14.1093 H   0  0  0  0  0  0  0  0  0  0  0  0
   -8.7540   10.5755  -11.5731 H   0  0  0  0  0  0  0  0  0  0  0  0
   -8.0279    9.6014   -7.2546 H   0  0  0  0  0  0  0  0  0  0  0  0
   -6.7506   12.3193   -6.9178 H   0  0  0  0  0  0  0  0  0  0  0  0
   -4.5243   13.2985   -6.4825 H   0  0  0  0  0  0  0  0  0  0  0  0
   -2.6708    9.7569   -8.0367 H   0  0  0  0  0  0  0  0  0  0  0  0
   -4.8921    8.7825   -8.4771 H   0  0  0  0  0  0  0  0  0  0  0  0
   -2.4257   14.2220   -6.2113 H   0  0  0  0  0  0  0  0  0  0  0  0
   -0.6634   10.5708   -7.5804 H   0  0  0  0  0  0  0  0  0  0  0  0
    1.4777   14.2881   -6.0708 H   0  0  0  0  0  0  0  0  0  0  0  0
    0.2286   15.4443   -6.6446 H   0  0  0  0  0  0  0  0  0  0  0  0
    0.1751   14.8281   -4.9581 H   0  0  0  0  0  0  0  0  0  0  0  0
   -3.9826   13.3858  -10.6771 H   0  0  0  0  0  0  0  0  0  0  0  0
   -4.7595   16.2374  -13.6550 H   0  0  0  0  0  0  0  0  0  0  0  0
   -2.7876   16.6646  -12.2876 H   0  0  0  0  0  0  0  0  0  0  0  0
   -3.0519   16.1015  -10.6025 H   0  0  0  0  0  0  0  0  0  0  0  0
   -1.9928   15.1617  -11.7078 H   0  0  0  0  0  0  0  0  0  0  0  0
  1  2  1  0  0  0  0
  1  4  2  0  0  0  0
  1 11  1  0  0  0  0
  2  6  2  0  0  0  0
  3  4  1  0  0  0  0
  3  5  1  0  0  0  0
  5  6  1  0  0  0  0
  5  9  1  0  0  0  0
  6  7  1  0  0  0  0
  7  8  1  0  0  0  0
  7 10  2  3  0  0  0
  8  9  2  0  0  0  0
 10 12  1  0  0  0  0
 11 24  2  0  0  0  0
 11 27  1  0  0  0  0
 12 13  2  0  0  0  0
 12 17  1  0  0  0  0
 13 14  1  0  0  0  0
 14 15  2  0  0  0  0
 15 16  1  0  0  0  0
 15 18  1  0  0  0  0
 16 17  2  0  0  0  0
 18 19  2  0  0  0  0
 18 22  1  0  0  0  0
 19 20  1  0  0  0  0
 20 21  1  0  0  0  0
 20 23  1  0  0  0  0
 21 22  2  0  0  0  0
 24 25  1  0  0  0  0
 25 26  1  0  0  0  0
 25 28  1  0  0  0  0
 26 27  2  0  0  0  0
  2 29  1  0  0  0  0
  3 30  1  0  0  0  0
  3 31  1  0  0  0  0
  4 32  1  0  0  0  0
  5 33  1  0  0  0  0
 10 34  1  0  0  0  0
 13 35  1  0  0  0  0
 14 36  1  0  0  0  0
 16 37  1  0  0  0  0
 17 38  1  0  0  0  0
 19 39  1  0  0  0  0
 22 40  1  0  0  0  0
 23 41  1  0  0  0  0
 23 42  1  0  0  0  0
 23 43  1  0  0  0  0
 24 44  1  0  0  0  0
 26 45  1  0  0  0  0
 28 46  1  0  0  0  0
 28 47  1  0  0  0  0
 28 48  1  0  0  0  0
M  END
> <Name>
21

> <IC50[uM]>
0.078

$$$$
21
  -OEChem-05192314333D
 Structure written by MMmdl.
 48 52  0     1  0  0  0  0  0999 V2000
   -6.3865   12.3338  -12.0432 C   0  0  0  0  0  0  0  0  0  0  0  0
   -6.4856   11.7841  -10.7704 C   0  0  0  0  0  0  0  0  0  0  0  0
   -7.7472   10.5643  -13.0426 C   0  0  0  0  0  0  0  0  0  0  0  0
   -7.0167   11.7500  -13.1460 C   0  0  0  0  0  0  0  0  0  0  0  0
   -7.8303   10.0081  -11.7598 C   0  0  0  0  0  0  0  0  0  0  0  0
   -7.2256   10.6149  -10.6156 C   0  0  0  0  0  0  0  0  0  0  0  0
   -7.6010    9.7518   -9.5145 C   0  0  0  0  0  0  0  0  0  0  0  0
   -8.2842    8.7423   -9.9828 N   0  0  0  0  0  0  0  0  0  0  0  0
   -8.4323    8.8733  -11.2925 N   0  0  0  0  0  0  0  0  0  0  0  0
   -7.3270    9.8938   -8.0225 C   0  0  0  0  0  0  0  0  0  0  0  0
   -5.5587   13.5285  -12.2266 C   0  0  0  0  0  0  0  0  0  0  0  0
   -5.9618   10.4909   -7.7327 C   0  0  0  0  0  0  0  0  0  0  0  0
   -5.8582   11.7635   -7.1652 C   0  0  0  0  0  0  0  0  0  0  0  0
   -4.6045   12.3140   -6.9191 C   0  0  0  0  0  0  0  0  0  0  0  0
   -3.4477   11.5945   -7.2362 C   0  0  3  0  0  0  0  0  0  0  0  0
   -3.5614   10.3184   -7.7958 C   0  0  0  0  0  0  0  0  0  0  0  0
   -4.8112    9.7685   -8.0438 C   0  0  0  0  0  0  0  0  0  0  0  0
   -2.1002   12.1716   -6.9783 C   0  0  0  0  0  0  0  0  0  0  0  0
   -1.7494   13.4275   -6.4902 C   0  0  0  0  0  0  0  0  0  0  0  0
   -0.4141   13.4605   -6.4332 N   0  0  0  0  0  0  0  0  0  0  0  0
    0.1744   12.3664   -6.8143 N   0  0  0  0  0  0  0  0  0  0  0  0
   -0.8092   11.5630   -7.1796 C   0  0  0  0  0  0  0  0  0  0  0  0
    0.4176   14.5730   -6.0003 C   0  0  0  0  0  0  0  0  0  0  0  0
   -4.4279   13.9049  -11.5130 C   0  0  0  0  0  0  0  0  0  0  0  0
   -4.0090   15.0294  -12.0677 N   0  0  0  0  0  0  0  0  0  0  0  0
   -4.8449   15.3445  -13.0534 C   0  0  0  0  0  0  0  0  0  0  0  0
   -5.7816   14.4464  -13.2081 N   0  0  0  0  0  0  0  0  0  0  0  0
   -2.9003   15.7800  -11.6435 C   0  0  0  0  0  0  0  0  0  0  0  0
   -6.0020   12.2509   -9.9250 H   0  0  0  0  0  0  0  0  0  0  0  0
   -8.2188   10.1047  -13.8986 H   0  0  0  0  0  0  0  0  0  0  0  0
   -6.9360   12.2316  -14.1093 H   0  0  0  0  0  0  0  0  0  0  0  0
   -8.0279    9.6014   -7.2546 H   0  0  0  0  0  0  0  0  0  0  0  0
   -6.7506   12.3193   -6.9178 H   0  0  0  0  0  0  0  0  0  0  0  0
   -4.5560   13.2570   -7.4834 H   0  0  0  0  0  0  0  0  0  0  0  0
   -4.5587   12.5289   -5.8413 H   0  0  0  0  0  0  0  0  0  0  0  0
   -3.4463   12.0375   -8.2430 H   0  0  0  0  0  0  0  0  0  0  0  0
   -2.6708    9.7569   -8.0367 H   0  0  0  0  0  0  0  0  0  0  0  0
   -4.8921    8.7825   -8.4771 H   0  0  0  0  0  0  0  0  0  0  0  0
   -2.4257   14.2220   -6.2113 H   0  0  0  0  0  0  0  0  0  0  0  0
   -0.6634   10.5708   -7.5804 H   0  0  0  0  0  0  0  0  0  0  0  0
    1.4777   14.2881   -6.0708 H   0  0  0  0  0  0  0  0  0  0  0  0
    0.2286   15.4443   -6.6446 H   0  0  0  0  0  0  0  0  0  0  0  0
    0.1751   14.8281   -4.9581 H   0  0  0  0  0  0  0  0  0  0  0  0
   -3.9826   13.3858  -10.6771 H   0  0  0  0  0  0  0  0  0  0  0  0
   -4.7595   16.2374  -13.6550 H   0  0  0  0  0  0  0  0  0  0  0  0
   -2.7876   16.6646  -12.2876 H   0  0  0  0  0  0  0  0  0  0  0  0
   -3.0519   16.1015  -10.6025 H   0  0  0  0  0  0  0  0  0  0  0  0
   -1.9928   15.1617  -11.7078 H   0  0  0  0  0  0  0  0  0  0  0  0
  1  2  2  0  0  0  0
  1  4  1  0  0  0  0
  1 11  1  0  0  0  0
  2  6  1  0  0  0  0
  3  4  2  0  0  0  0
  3  5  1  0  0  0  0
  5  6  2  0  0  0  0
  5  9  1  0  0  0  0
  6  7  1  0  0  0  0
  7  8  1  0  0  0  0
  7 10  2  3  0  0  0
  8  9  2  0  0  0  0
 10 12  1  0  0  0  0
 11 24  2  0  0  0  0
 11 27  1  0  0  0  0
 12 13  2  0  0  0  0
 12 17  1  0  0  0  0
 13 14  1  0  0  0  0
 14 15  1  0  0  0  0
 15 16  1  0  0  0  0
 15 18  1  0  0  0  0
 16 17  2  0  0  0  0
 18 19  2  0  0  0  0
 18 22  1  0  0  0  0
 19 20  1  0  0  0  0
 20 21  1  0  0  0  0
 20 23  1  0  0  0  0
 21 22  2  0  0  0  0
 24 25  1  0  0  0  0
 25 26  1  0  0  0  0
 25 28  1  0  0  0  0
 26 27  2  0  0  0  0
  2 29  1  0  0  0  0
  3 30  1  0  0  0  0
  4 31  1  0  0  0  0
 10 32  1  0  0  0  0
 13 33  1  0  0  0  0
 14 34  1  0  0  0  0
 14 35  1  0  0  0  0
 15 36  1  0  0  0  0
 16 37  1  0  0  0  0
 17 38  1  0  0  0  0
 19 39  1  0  0  0  0
 22 40  1  0  0  0  0
 23 41  1  0  0  0  0
 23 42  1  0  0  0  0
 23 43  1  0  0  0  0
 24 44  1  0  0  0  0
 26 45  1  0  0  0  0
 28 46  1  0  0  0  0
 28 47  1  0  0  0  0
 28 48  1  0  0  0  0
M  END
> <Name>
21

> <IC50[uM]>
0.078

$$$$
21
  -OEChem-05192314333D
 Structure written by MMmdl.
 48 52  0     1  0  0  0  0  0999 V2000
   -6.3865   12.3338  -12.0432 C   0  0  3  0  0  0  0  0  0  0  0  0
   -6.4856   11.7841  -10.7704 C   0  0  0  0  0  0  0  0  0  0  0  0
   -7.7472   10.5643  -13.0426 C   0  0  0  0  0  0  0  0  0  0  0  0
   -7.0167   11.7500  -13.1460 C   0  0  0  0  0  0  0  0  0  0  0  0
   -7.8303   10.0081  -11.7598 C   0  0  0  0  0  0  0  0  0  0  0  0
   -7.2256   10.6149  -10.6156 C   0  0  0  0  0  0  0  0  0  0  0  0
   -7.6010    9.7518   -9.5145 C   0  0  0  0  0  0  0  0  0  0  0  0
   -8.2842    8.7423   -9.9828 N   0  0  0  0  0  0  0  0  0  0  0  0
   -8.4323    8.8733  -11.2925 N   0  0  0  0  0  0  0  0  0  0  0  0
   -7.3270    9.8938   -8.0225 C   0  0  0  0  0  0  0  0  0  0  0  0
   -5.5587   13.5285  -12.2266 C   0  0  0  0  0  0  0  0  0  0  0  0
   -5.9618   10.4909   -7.7327 C   0  0  0  0  0  0  0  0  0  0  0  0
   -5.8582   11.7635   -7.1652 C   0  0  0  0  0  0  0  0  0  0  0  0
   -4.6045   12.3140   -6.9191 C   0  0  0  0  0  0  0  0  0  0  0  0
   -3.4477   11.5945   -7.2362 C   0  0  0  0  0  0  0  0  0  0  0  0
   -3.5614   10.3184   -7.7958 C   0  0  0  0  0  0  0  0  0  0  0  0
   -4.8112    9.7685   -8.0438 C   0  0  0  0  0  0  0  0  0  0  0  0
   -2.1002   12.1716   -6.9783 C   0  0  0  0  0  0  0  0  0  0  0  0
   -1.7494   13.4275   -6.4902 C   0  0  0  0  0  0  0  0  0  0  0  0
   -0.4141   13.4605   -6.4332 N   0  0  0  0  0  0  0  0  0  0  0  0
    0.1744   12.3664   -6.8143 N   0  0  0  0  0  0  0  0  0  0  0  0
   -0.8092   11.5630   -7.1796 C   0  0  0  0  0  0  0  0  0  0  0  0
    0.4176   14.5730   -6.0003 C   0  0  0  0  0  0  0  0  0  0  0  0
   -4.4279   13.9049  -11.5130 C   0  0  0  0  0  0  0  0  0  0  0  0
   -4.0090   15.0294  -12.0677 N   0  0  0  0  0  0  0  0  0  0  0  0
   -4.8449   15.3445  -13.0534 C   0  0  0  0  0  0  0  0  0  0  0  0
   -5.7816   14.4464  -13.2081 N   0  0  0  0  0  0  0  0  0  0  0  0
   -2.9003   15.7800  -11.6435 C   0  0  0  0  0  0  0  0  0  0  0  0
   -7.2704   12.9609  -11.8546 H   0  0  0  0  0  0  0  0  0  0  0  0
   -6.0020   12.2509   -9.9250 H   0  0  0  0  0  0  0  0  0  0  0  0
   -8.2188   10.1047  -13.8986 H   0  0  0  0  0  0  0  0  0  0  0  0
   -7.7125   12.5063  -13.5382 H   0  0  0  0  0  0  0  0  0  0  0  0
   -6.2260   11.5601  -13.8867 H   0  0  0  0  0  0  0  0  0  0  0  0
   -8.0279    9.6014   -7.2546 H   0  0  0  0  0  0  0  0  0  0  0  0
   -6.7506   12.3193   -6.9178 H   0  0  0  0  0  0  0  0  0  0  0  0
   -4.5243   13.2985   -6.4825 H   0  0  0  0  0  0  0  0  0  0  0  0
   -2.6708    9.7569   -8.0367 H   0  0  0  0  0  0  0  0  0  0  0  0
   -4.8921    8.7825   -8.4771 H   0  0  0  0  0  0  0  0  0  0  0  0
   -2.4257   14.2220   -6.2113 H   0  0  0  0  0  0  0  0  0  0  0  0
   -0.6634   10.5708   -7.5804 H   0  0  0  0  0  0  0  0  0  0  0  0
    1.4777   14.2881   -6.0708 H   0  0  0  0  0  0  0  0  0  0  0  0
    0.2286   15.4443   -6.6446 H   0  0  0  0  0  0  0  0  0  0  0  0
    0.1751   14.8281   -4.9581 H   0  0  0  0  0  0  0  0  0  0  0  0
   -3.9826   13.3858  -10.6771 H   0  0  0  0  0  0  0  0  0  0  0  0
   -4.7595   16.2374  -13.6550 H   0  0  0  0  0  0  0  0  0  0  0  0
   -2.7876   16.6646  -12.2876 H   0  0  0  0  0  0  0  0  0  0  0  0
   -3.0519   16.1015  -10.6025 H   0  0  0  0  0  0  0  0  0  0  0  0
   -1.9928   15.1617  -11.7078 H   0  0  0  0  0  0  0  0  0  0  0  0
  1  2  1  0  0  0  0
  1  4  1  0  0  0  0
  1 11  1  0  0  0  0
  2  6  2  0  0  0  0
  3  4  1  0  0  0  0
  3  5  2  0  0  0  0
  5  6  1  0  0  0  0
  5  9  1  0  0  0  0
  6  7  1  0  0  0  0
  7  8  1  0  0  0  0
  7 10  2  3  0  0  0
  8  9  2  0  0  0  0
 10 12  1  0  0  0  0
 11 24  2  0  0  0  0
 11 27  1  0  0  0  0
 12 13  2  0  0  0  0
 12 17  1  0  0  0  0
 13 14  1  0  0  0  0
 14 15  2  0  0  0  0
 15 16  1  0  0  0  0
 15 18  1  0  0  0  0
 16 17  2  0  0  0  0
 18 19  2  0  0  0  0
 18 22  1  0  0  0  0
 19 20  1  0  0  0  0
 20 21  1  0  0  0  0
 20 23  1  0  0  0  0
 21 22  2  0  0  0  0
 24 25  1  0  0  0  0
 25 26  1  0  0  0  0
 25 28  1  0  0  0  0
 26 27  2  0  0  0  0
  1 29  1  0  0  0  0
  2 30  1  0  0  0  0
  3 31  1  0  0  0  0
  4 32  1  0  0  0  0
  4 33  1  0  0  0  0
 10 34  1  0  0  0  0
 13 35  1  0  0  0  0
 14 36  1  0  0  0  0
 16 37  1  0  0  0  0
 17 38  1  0  0  0  0
 19 39  1  0  0  0  0
 22 40  1  0  0  0  0
 23 41  1  0  0  0  0
 23 42  1  0  0  0  0
 23 43  1  0  0  0  0
 24 44  1  0  0  0  0
 26 45  1  0  0  0  0
 28 46  1  0  0  0  0
 28 47  1  0  0  0  0
 28 48  1  0  0  0  0
M  END
> <Name>
21

> <IC50[uM]>
0.078

$$$$
21
  -OEChem-05192314333D
 Structure written by MMmdl.
 48 52  0     1  0  0  0  0  0999 V2000
   -6.3865   12.3338  -12.0432 C   0  0  0  0  0  0  0  0  0  0  0  0
   -6.4856   11.7841  -10.7704 C   0  0  0  0  0  0  0  0  0  0  0  0
   -7.7472   10.5643  -13.0426 C   0  0  0  0  0  0  0  0  0  0  0  0
   -7.0167   11.7500  -13.1460 C   0  0  0  0  0  0  0  0  0  0  0  0
   -7.8303   10.0081  -11.7598 C   0  0  0  0  0  0  0  0  0  0  0  0
   -7.2256   10.6149  -10.6156 C   0  0  3  0  0  0  0  0  0  0  0  0
   -7.6010    9.7518   -9.5145 C   0  0  0  0  0  0  0  0  0  0  0  0
   -8.2842    8.7423   -9.9828 N   0  0  0  0  0  0  0  0  0  0  0  0
   -8.4323    8.8733  -11.2925 N   0  0  0  0  0  0  0  0  0  0  0  0
   -7.3270    9.8938   -8.0225 C   0  0  0  0  0  0  0  0  0  0  0  0
   -5.5587   13.5285  -12.2266 C   0  0  0  0  0  0  0  0  0  0  0  0
   -5.9618   10.4909   -7.7327 C   0  0  0  0  0  0  0  0  0  0  0  0
   -5.8582   11.7635   -7.1652 C   0  0  0  0  0  0  0  0  0  0  0  0
   -4.6045   12.3140   -6.9191 C   0  0  0  0  0  0  0  0  0  0  0  0
   -3.4477   11.5945   -7.2362 C   0  0  0  0  0  0  0  0  0  0  0  0
   -3.5614   10.3184   -7.7958 C   0  0  0  0  0  0  0  0  0  0  0  0
   -4.8112    9.7685   -8.0438 C   0  0  0  0  0  0  0  0  0  0  0  0
   -2.1002   12.1716   -6.9783 C   0  0  0  0  0  0  0  0  0  0  0  0
   -1.7494   13.4275   -6.4902 C   0  0  0  0  0  0  0  0  0  0  0  0
   -0.4141   13.4605   -6.4332 N   0  0  0  0  0  0  0  0  0  0  0  0
    0.1744   12.3664   -6.8143 N   0  0  0  0  0  0  0  0  0  0  0  0
   -0.8092   11.5630   -7.1796 C   0  0  0  0  0  0  0  0  0  0  0  0
    0.4176   14.5730   -6.0003 C   0  0  0  0  0  0  0  0  0  0  0  0
   -4.4279   13.9049  -11.5130 C   0  0  0  0  0  0  0  0  0  0  0  0
   -4.0090   15.0294  -12.0677 N   0  0  0  0  0  0  0  0  0  0  0  0
   -4.8449   15.3445  -13.0534 C   0  0  0  0  0  0  0  0  0  0  0  0
   -5.7816   14.4464  -13.2081 N   0  0  0  0  0  0  0  0  0  0  0  0
   -2.9003   15.7800  -11.6435 C   0  0  0  0  0  0  0  0  0  0  0  0
   -6.0020   12.2509   -9.9250 H   0  0  0  0  0  0  0  0  0  0  0  0
   -8.2188   10.1047  -13.8986 H   0  0  0  0  0  0  0  0  0  0  0  0
   -7.7125   12.5063  -13.5382 H   0  0  0  0  0  0  0  0  0  0  0  0
   -6.2260   11.5601  -13.8867 H   0  0  0  0  0  0  0  0  0  0  0  0
   -6.3168   10.0165  -10.7767 H   0  0  0  0  0  0  0  0  0  0  0  0
   -8.0279    9.6014   -7.2546 H   0  0  0  0  0  0  0  0  0  0  0  0
   -6.7506   12.3193   -6.9178 H   0  0  0  0  0  0  0  0  0  0  0  0
   -4.5243   13.2985   -6.4825 H   0  0  0  0  0  0  0  0  0  0  0  0
   -2.6708    9.7569   -8.0367 H   0  0  0  0  0  0  0  0  0  0  0  0
   -4.8921    8.7825   -8.4771 H   0  0  0  0  0  0  0  0  0  0  0  0
   -2.4257   14.2220   -6.2113 H   0  0  0  0  0  0  0  0  0  0  0  0
   -0.6634   10.5708   -7.5804 H   0  0  0  0  0  0  0  0  0  0  0  0
    1.4777   14.2881   -6.0708 H   0  0  0  0  0  0  0  0  0  0  0  0
    0.2286   15.4443   -6.6446 H   0  0  0  0  0  0  0  0  0  0  0  0
    0.1751   14.8281   -4.9581 H   0  0  0  0  0  0  0  0  0  0  0  0
   -3.9826   13.3858  -10.6771 H   0  0  0  0  0  0  0  0  0  0  0  0
   -4.7595   16.2374  -13.6550 H   0  0  0  0  0  0  0  0  0  0  0  0
   -2.7876   16.6646  -12.2876 H   0  0  0  0  0  0  0  0  0  0  0  0
   -3.0519   16.1015  -10.6025 H   0  0  0  0  0  0  0  0  0  0  0  0
   -1.9928   15.1617  -11.7078 H   0  0  0  0  0  0  0  0  0  0  0  0
  1  2  2  0  0  0  0
  1  4  1  0  0  0  0
  1 11  1  0  0  0  0
  2  6  1  0  0  0  0
  3  4  1  0  0  0  0
  3  5  2  0  0  0  0
  5  6  1  0  0  0  0
  5  9  1  0  0  0  0
  6  7  1  0  0  0  0
  7  8  1  0  0  0  0
  7 10  2  3  0  0  0
  8  9  2  0  0  0  0
 10 12  1  0  0  0  0
 11 24  2  0  0  0  0
 11 27  1  0  0  0  0
 12 13  2  0  0  0  0
 12 17  1  0  0  0  0
 13 14  1  0  0  0  0
 14 15  2  0  0  0  0
 15 16  1  0  0  0  0
 15 18  1  0  0  0  0
 16 17  2  0  0  0  0
 18 19  2  0  0  0  0
 18 22  1  0  0  0  0
 19 20  1  0  0  0  0
 20 21  1  0  0  0  0
 20 23  1  0  0  0  0
 21 22  2  0  0  0  0
 24 25  1  0  0  0  0
 25 26  1  0  0  0  0
 25 28  1  0  0  0  0
 26 27  2  0  0  0  0
  2 29  1  0  0  0  0
  3 30  1  0  0  0  0
  4 31  1  0  0  0  0
  4 32  1  0  0  0  0
  6 33  1  0  0  0  0
 10 34  1  0  0  0  0
 13 35  1  0  0  0  0
 14 36  1  0  0  0  0
 16 37  1  0  0  0  0
 17 38  1  0  0  0  0
 19 39  1  0  0  0  0
 22 40  1  0  0  0  0
 23 41  1  0  0  0  0
 23 42  1  0  0  0  0
 23 43  1  0  0  0  0
 24 44  1  0  0  0  0
 26 45  1  0  0  0  0
 28 46  1  0  0  0  0
 28 47  1  0  0  0  0
 28 48  1  0  0  0  0
M  END
> <Name>
21

> <IC50[uM]>
0.078

$$$$
21
  -OEChem-05192314333D
 Structure written by MMmdl.
 48 52  0     0  0  0  0  0  0999 V2000
   -6.3865   12.3338  -12.0432 C   0  0  0  0  0  0  0  0  0  0  0  0
   -6.4856   11.7841  -10.7704 C   0  0  0  0  0  0  0  0  0  0  0  0
   -7.7472   10.5643  -13.0426 C   0  0  0  0  0  0  0  0  0  0  0  0
   -7.0167   11.7500  -13.1460 C   0  0  0  0  0  0  0  0  0  0  0  0
   -7.8303   10.0081  -11.7598 C   0  0  0  0  0  0  0  0  0  0  0  0
   -7.2256   10.6149  -10.6156 C   0  0  0  0  0  0  0  0  0  0  0  0
   -7.6010    9.7518   -9.5145 C   0  0  0  0  0  0  0  0  0  0  0  0
   -8.2842    8.7423   -9.9828 N   0  0  0  0  0  0  0  0  0  0  0  0
   -8.4323    8.8733  -11.2925 N   0  0  0  0  0  0  0  0  0  0  0  0
   -7.3270    9.8938   -8.0225 C   0  0  0  0  0  0  0  0  0  0  0  0
   -5.5587   13.5285  -12.2266 C   0  0  0  0  0  0  0  0  0  0  0  0
   -5.9618   10.4909   -7.7327 C   0  0  0  0  0  0  0  0  0  0  0  0
   -5.8582   11.7635   -7.1652 C   0  0  0  0  0  0  0  0  0  0  0  0
   -4.6045   12.3140   -6.9191 C   0  0  0  0  0  0  0  0  0  0  0  0
   -3.4477   11.5945   -7.2362 C   0  0  0  0  0  0  0  0  0  0  0  0
   -3.5614   10.3184   -7.7958 C   0  0  0  0  0  0  0  0  0  0  0  0
   -4.8112    9.7685   -8.0438 C   0  0  0  0  0  0  0  0  0  0  0  0
   -2.1002   12.1716   -6.9783 C   0  0  0  0  0  0  0  0  0  0  0  0
   -1.7494   13.4275   -6.4902 C   0  0  0  0  0  0  0  0  0  0  0  0
   -0.4141   13.4605   -6.4332 N   0  0  0  0  0  0  0  0  0  0  0  0
    0.1744   12.3664   -6.8143 N   0  0  0  0  0  0  0  0  0  0  0  0
   -0.8092   11.5630   -7.1796 C   0  0  0  0  0  0  0  0  0  0  0  0
    0.4176   14.5730   -6.0003 C   0  0  0  0  0  0  0  0  0  0  0  0
   -4.4279   13.9049  -11.5130 C   0  0  0  0  0  0  0  0  0  0  0  0
   -4.0090   15.0294  -12.0677 N   0  0  0  0  0  0  0  0  0  0  0  0
   -4.8449   15.3445  -13.0534 C   0  0  0  0  0  0  0  0  0  0  0  0
   -5.7816   14.4464  -13.2081 N   0  0  0  0  0  0  0  0  0  0  0  0
   -2.9003   15.7800  -11.6435 C   0  0  0  0  0  0  0  0  0  0  0  0
   -6.0020   12.2509   -9.9250 H   0  0  0  0  0  0  0  0  0  0  0  0
   -8.7712   10.7678  -13.3889 H   0  0  0  0  0  0  0  0  0  0  0  0
   -7.2778    9.8203  -13.7030 H   0  0  0  0  0  0  0  0  0  0  0  0
   -7.7125   12.5063  -13.5382 H   0  0  0  0  0  0  0  0  0  0  0  0
   -6.2260   11.5601  -13.8867 H   0  0  0  0  0  0  0  0  0  0  0  0
   -8.0279    9.6014   -7.2546 H   0  0  0  0  0  0  0  0  0  0  0  0
   -6.7506   12.3193   -6.9178 H   0  0  0  0  0  0  0  0  0  0  0  0
   -4.5243   13.2985   -6.4825 H   0  0  0  0  0  0  0  0  0  0  0  0
   -2.6708    9.7569   -8.0367 H   0  0  0  0  0  0  0  0  0  0  0  0
   -4.8921    8.7825   -8.4771 H   0  0  0  0  0  0  0  0  0  0  0  0
   -2.4257   14.2220   -6.2113 H   0  0  0  0  0  0  0  0  0  0  0  0
   -0.6634   10.5708   -7.5804 H   0  0  0  0  0  0  0  0  0  0  0  0
    1.4777   14.2881   -6.0708 H   0  0  0  0  0  0  0  0  0  0  0  0
    0.2286   15.4443   -6.6446 H   0  0  0  0  0  0  0  0  0  0  0  0
    0.1751   14.8281   -4.9581 H   0  0  0  0  0  0  0  0  0  0  0  0
   -3.9826   13.3858  -10.6771 H   0  0  0  0  0  0  0  0  0  0  0  0
   -4.7595   16.2374  -13.6550 H   0  0  0  0  0  0  0  0  0  0  0  0
   -2.7876   16.6646  -12.2876 H   0  0  0  0  0  0  0  0  0  0  0  0
   -3.0519   16.1015  -10.6025 H   0  0  0  0  0  0  0  0  0  0  0  0
   -1.9928   15.1617  -11.7078 H   0  0  0  0  0  0  0  0  0  0  0  0
  1  2  2  0  0  0  0
  1  4  1  0  0  0  0
  1 11  1  0  0  0  0
  2  6  1  0  0  0  0
  3  4  1  0  0  0  0
  3  5  1  0  0  0  0
  5  6  2  0  0  0  0
  5  9  1  0  0  0  0
  6  7  1  0  0  0  0
  7  8  1  0  0  0  0
  7 10  2  3  0  0  0
  8  9  2  0  0  0  0
 10 12  1  0  0  0  0
 11 24  2  0  0  0  0
 11 27  1  0  0  0  0
 12 13  2  0  0  0  0
 12 17  1  0  0  0  0
 13 14  1  0  0  0  0
 14 15  2  0  0  0  0
 15 16  1  0  0  0  0
 15 18  1  0  0  0  0
 16 17  2  0  0  0  0
 18 19  2  0  0  0  0
 18 22  1  0  0  0  0
 19 20  1  0  0  0  0
 20 21  1  0  0  0  0
 20 23  1  0  0  0  0
 21 22  2  0  0  0  0
 24 25  1  0  0  0  0
 25 26  1  0  0  0  0
 25 28  1  0  0  0  0
 26 27  2  0  0  0  0
  2 29  1  0  0  0  0
  3 30  1  0  0  0  0
  3 31  1  0  0  0  0
  4 32  1  0  0  0  0
  4 33  1  0  0  0  0
 10 34  1  0  0  0  0
 13 35  1  0  0  0  0
 14 36  1  0  0  0  0
 16 37  1  0  0  0  0
 17 38  1  0  0  0  0
 19 39  1  0  0  0  0
 22 40  1  0  0  0  0
 23 41  1  0  0  0  0
 23 42  1  0  0  0  0
 23 43  1  0  0  0  0
 24 44  1  0  0  0  0
 26 45  1  0  0  0  0
 28 46  1  0  0  0  0
 28 47  1  0  0  0  0
 28 48  1  0  0  0  0
M  END
> <Name>
21

> <IC50[uM]>
0.078

$$$$
21
  -OEChem-05192314333D
 Structure written by MMmdl.
 48 52  0     1  0  0  0  0  0999 V2000
   -6.3865   12.3338  -12.0432 C   0  0  0  0  0  0  0  0  0  0  0  0
   -6.4856   11.7841  -10.7704 C   0  0  0  0  0  0  0  0  0  0  0  0
   -7.7472   10.5643  -13.0426 C   0  0  0  0  0  0  0  0  0  0  0  0
   -7.0167   11.7500  -13.1460 C   0  0  0  0  0  0  0  0  0  0  0  0
   -7.8303   10.0081  -11.7598 C   0  0  0  0  0  0  0  0  0  0  0  0
   -7.2256   10.6149  -10.6156 C   0  0  0  0  0  0  0  0  0  0  0  0
   -7.6010    9.7518   -9.5145 C   0  0  0  0  0  0  0  0  0  0  0  0
   -8.2842    8.7423   -9.9828 N   0  0  0  0  0  0  0  0  0  0  0  0
   -8.4323    8.8733  -11.2925 N   0  0  0  0  0  0  0  0  0  0  0  0
   -7.3270    9.8938   -8.0225 C   0  0  0  0  0  0  0  0  0  0  0  0
   -5.5587   13.5285  -12.2266 C   0  0  0  0  0  0  0  0  0  0  0  0
   -5.9618   10.4909   -7.7327 C   0  0  3  0  0  0  0  0  0  0  0  0
   -5.8582   11.7635   -7.1652 C   0  0  0  0  0  0  0  0  0  0  0  0
   -4.6045   12.3140   -6.9191 C   0  0  0  0  0  0  0  0  0  0  0  0
   -3.4477   11.5945   -7.2362 C   0  0  0  0  0  0  0  0  0  0  0  0
   -3.5614   10.3184   -7.7958 C   0  0  0  0  0  0  0  0  0  0  0  0
   -4.8112    9.7685   -8.0438 C   0  0  0  0  0  0  0  0  0  0  0  0
   -2.1002   12.1716   -6.9783 C   0  0  0  0  0  0  0  0  0  0  0  0
   -1.7494   13.4275   -6.4902 C   0  0  0  0  0  0  0  0  0  0  0  0
   -0.4141   13.4605   -6.4332 N   0  0  0  0  0  0  0  0  0  0  0  0
    0.1744   12.3664   -6.8143 N   0  0  0  0  0  0  0  0  0  0  0  0
   -0.8092   11.5630   -7.1796 C   0  0  0  0  0  0  0  0  0  0  0  0
    0.4176   14.5730   -6.0003 C   0  0  0  0  0  0  0  0  0  0  0  0
   -4.4279   13.9049  -11.5130 C   0  0  0  0  0  0  0  0  0  0  0  0
   -4.0090   15.0294  -12.0677 N   0  0  0  0  0  0  0  0  0  0  0  0
   -4.8449   15.3445  -13.0534 C   0  0  0  0  0  0  0  0  0  0  0  0
   -5.7816   14.4464  -13.2081 N   0  0  0  0  0  0  0  0  0  0  0  0
   -2.9003   15.7800  -11.6435 C   0  0  0  0  0  0  0  0  0  0  0  0
   -6.0020   12.2509   -9.9250 H   0  0  0  0  0  0  0  0  0  0  0  0
   -8.2188   10.1047  -13.8986 H   0  0  0  0  0  0  0  0  0  0  0  0
   -6.9360   12.2316  -14.1093 H   0  0  0  0  0  0  0  0  0  0  0  0
   -8.0279    9.6014   -7.2546 H   0  0  0  0  0  0  0  0  0  0  0  0
   -5.9757   10.0415   -6.7288 H   0  0  0  0  0  0  0  0  0  0  0  0
   -6.7506   12.3193   -6.9178 H   0  0  0  0  0  0  0  0  0  0  0  0
   -4.5243   13.2985   -6.4825 H   0  0  0  0  0  0  0  0  0  0  0  0
   -2.6708    9.7569   -8.0367 H   0  0  0  0  0  0  0  0  0  0  0  0
   -4.8631    8.8277   -7.4762 H   0  0  0  0  0  0  0  0  0  0  0  0
   -4.8544    9.5498   -9.1210 H   0  0  0  0  0  0  0  0  0  0  0  0
   -2.4257   14.2220   -6.2113 H   0  0  0  0  0  0  0  0  0  0  0  0
   -0.6634   10.5708   -7.5804 H   0  0  0  0  0  0  0  0  0  0  0  0
    1.4777   14.2881   -6.0708 H   0  0  0  0  0  0  0  0  0  0  0  0
    0.2286   15.4443   -6.6446 H   0  0  0  0  0  0  0  0  0  0  0  0
    0.1751   14.8281   -4.9581 H   0  0  0  0  0  0  0  0  0  0  0  0
   -3.9826   13.3858  -10.6771 H   0  0  0  0  0  0  0  0  0  0  0  0
   -4.7595   16.2374  -13.6550 H   0  0  0  0  0  0  0  0  0  0  0  0
   -2.7876   16.6646  -12.2876 H   0  0  0  0  0  0  0  0  0  0  0  0
   -3.0519   16.1015  -10.6025 H   0  0  0  0  0  0  0  0  0  0  0  0
   -1.9928   15.1617  -11.7078 H   0  0  0  0  0  0  0  0  0  0  0  0
  1  2  2  0  0  0  0
  1  4  1  0  0  0  0
  1 11  1  0  0  0  0
  2  6  1  0  0  0  0
  3  4  2  0  0  0  0
  3  5  1  0  0  0  0
  5  6  2  0  0  0  0
  5  9  1  0  0  0  0
  6  7  1  0  0  0  0
  7  8  1  0  0  0  0
  7 10  2  3  0  0  0
  8  9  2  0  0  0  0
 10 12  1  0  0  0  0
 11 24  2  0  0  0  0
 11 27  1  0  0  0  0
 12 13  1  0  0  0  0
 12 17  1  0  0  0  0
 13 14  2  0  0  0  0
 14 15  1  0  0  0  0
 15 16  2  0  0  0  0
 15 18  1  0  0  0  0
 16 17  1  0  0  0  0
 18 19  2  0  0  0  0
 18 22  1  0  0  0  0
 19 20  1  0  0  0  0
 20 21  1  0  0  0  0
 20 23  1  0  0  0  0
 21 22  2  0  0  0  0
 24 25  1  0  0  0  0
 25 26  1  0  0  0  0
 25 28  1  0  0  0  0
 26 27  2  0  0  0  0
  2 29  1  0  0  0  0
  3 30  1  0  0  0  0
  4 31  1  0  0  0  0
 10 32  1  0  0  0  0
 12 33  1  0  0  0  0
 13 34  1  0  0  0  0
 14 35  1  0  0  0  0
 16 36  1  0  0  0  0
 17 37  1  0  0  0  0
 17 38  1  0  0  0  0
 19 39  1  0  0  0  0
 22 40  1  0  0  0  0
 23 41  1  0  0  0  0
 23 42  1  0  0  0  0
 23 43  1  0  0  0  0
 24 44  1  0  0  0  0
 26 45  1  0  0  0  0
 28 46  1  0  0  0  0
 28 47  1  0  0  0  0
 28 48  1  0  0  0  0
M  END
> <Name>
21

> <IC50[uM]>
0.078

$$$$
21
  -OEChem-05192314333D
 Structure written by MMmdl.
 48 52  0     1  0  0  0  0  0999 V2000
   -6.3865   12.3338  -12.0432 C   0  0  0  0  0  0  0  0  0  0  0  0
   -6.4856   11.7841  -10.7704 C   0  0  0  0  0  0  0  0  0  0  0  0
   -7.7472   10.5643  -13.0426 C   0  0  0  0  0  0  0  0  0  0  0  0
   -7.0167   11.7500  -13.1460 C   0  0  0  0  0  0  0  0  0  0  0  0
   -7.8303   10.0081  -11.7598 C   0  0  0  0  0  0  0  0  0  0  0  0
   -7.2256   10.6149  -10.6156 C   0  0  0  0  0  0  0  0  0  0  0  0
   -7.6010    9.7518   -9.5145 C   0  0  3  0  0  0  0  0  0  0  0  0
   -8.2842    8.7423   -9.9828 N   0  0  0  0  0  0  0  0  0  0  0  0
   -8.4323    8.8733  -11.2925 N   0  0  0  0  0  0  0  0  0  0  0  0
   -7.3270    9.8938   -8.0225 C   0  0  0  0  0  0  0  0  0  0  0  0
   -5.5587   13.5285  -12.2266 C   0  0  0  0  0  0  0  0  0  0  0  0
   -5.9618   10.4909   -7.7327 C   0  0  0  0  0  0  0  0  0  0  0  0
   -5.8582   11.7635   -7.1652 C   0  0  0  0  0  0  0  0  0  0  0  0
   -4.6045   12.3140   -6.9191 C   0  0  0  0  0  0  0  0  0  0  0  0
   -3.4477   11.5945   -7.2362 C   0  0  0  0  0  0  0  0  0  0  0  0
   -3.5614   10.3184   -7.7958 C   0  0  0  0  0  0  0  0  0  0  0  0
   -4.8112    9.7685   -8.0438 C   0  0  0  0  0  0  0  0  0  0  0  0
   -2.1002   12.1716   -6.9783 C   0  0  0  0  0  0  0  0  0  0  0  0
   -1.7494   13.4275   -6.4902 C   0  0  0  0  0  0  0  0  0  0  0  0
   -0.4141   13.4605   -6.4332 N   0  0  0  0  0  0  0  0  0  0  0  0
    0.1744   12.3664   -6.8143 N   0  0  0  0  0  0  0  0  0  0  0  0
   -0.8092   11.5630   -7.1796 C   0  0  0  0  0  0  0  0  0  0  0  0
    0.4176   14.5730   -6.0003 C   0  0  0  0  0  0  0  0  0  0  0  0
   -4.4279   13.9049  -11.5130 C   0  0  0  0  0  0  0  0  0  0  0  0
   -4.0090   15.0294  -12.0677 N   0  0  0  0  0  0  0  0  0  0  0  0
   -4.8449   15.3445  -13.0534 C   0  0  0  0  0  0  0  0  0  0  0  0
   -5.7816   14.4464  -13.2081 N   0  0  0  0  0  0  0  0  0  0  0  0
   -2.9003   15.7800  -11.6435 C   0  0  0  0  0  0  0  0  0  0  0  0
   -6.0020   12.2509   -9.9250 H   0  0  0  0  0  0  0  0  0  0  0  0
   -8.2188   10.1047  -13.8986 H   0  0  0  0  0  0  0  0  0  0  0  0
   -6.9360   12.2316  -14.1093 H   0  0  0  0  0  0  0  0  0  0  0  0
   -6.6674    9.1829   -9.6362 H   0  0  0  0  0  0  0  0  0  0  0  0
   -8.0279    9.6014   -7.2546 H   0  0  0  0  0  0  0  0  0  0  0  0
   -6.7506   12.3193   -6.9178 H   0  0  0  0  0  0  0  0  0  0  0  0
   -4.5243   13.2985   -6.4825 H   0  0  0  0  0  0  0  0  0  0  0  0
   -2.6708    9.7569   -8.0367 H   0  0  0  0  0  0  0  0  0  0  0  0
   -4.8631    8.8277   -7.4762 H   0  0  0  0  0  0  0  0  0  0  0  0
   -4.8544    9.5498   -9.1210 H   0  0  0  0  0  0  0  0  0  0  0  0
   -2.4257   14.2220   -6.2113 H   0  0  0  0  0  0  0  0  0  0  0  0
   -0.6634   10.5708   -7.5804 H   0  0  0  0  0  0  0  0  0  0  0  0
    1.4777   14.2881   -6.0708 H   0  0  0  0  0  0  0  0  0  0  0  0
    0.2286   15.4443   -6.6446 H   0  0  0  0  0  0  0  0  0  0  0  0
    0.1751   14.8281   -4.9581 H   0  0  0  0  0  0  0  0  0  0  0  0
   -3.9826   13.3858  -10.6771 H   0  0  0  0  0  0  0  0  0  0  0  0
   -4.7595   16.2374  -13.6550 H   0  0  0  0  0  0  0  0  0  0  0  0
   -2.7876   16.6646  -12.2876 H   0  0  0  0  0  0  0  0  0  0  0  0
   -3.0519   16.1015  -10.6025 H   0  0  0  0  0  0  0  0  0  0  0  0
   -1.9928   15.1617  -11.7078 H   0  0  0  0  0  0  0  0  0  0  0  0
  1  2  2  0  0  0  0
  1  4  1  0  0  0  0
  1 11  1  0  0  0  0
  2  6  1  0  0  0  0
  3  4  2  0  0  0  0
  3  5  1  0  0  0  0
  5  6  2  0  0  0  0
  5  9  1  0  0  0  0
  6  7  1  0  0  0  0
  7  8  1  0  0  0  0
  7 10  1  0  0  0  0
  8  9  2  0  0  0  0
 10 12  2  3  0  0  0
 11 24  2  0  0  0  0
 11 27  1  0  0  0  0
 12 13  1  0  0  0  0
 12 17  1  0  0  0  0
 13 14  2  0  0  0  0
 14 15  1  0  0  0  0
 15 16  2  0  0  0  0
 15 18  1  0  0  0  0
 16 17  1  0  0  0  0
 18 19  2  0  0  0  0
 18 22  1  0  0  0  0
 19 20  1  0  0  0  0
 20 21  1  0  0  0  0
 20 23  1  0  0  0  0
 21 22  2  0  0  0  0
 24 25  1  0  0  0  0
 25 26  1  0  0  0  0
 25 28  1  0  0  0  0
 26 27  2  0  0  0  0
  2 29  1  0  0  0  0
  3 30  1  0  0  0  0
  4 31  1  0  0  0  0
  7 32  1  0  0  0  0
 10 33  1  0  0  0  0
 13 34  1  0  0  0  0
 14 35  1  0  0  0  0
 16 36  1  0  0  0  0
 17 37  1  0  0  0  0
 17 38  1  0  0  0  0
 19 39  1  0  0  0  0
 22 40  1  0  0  0  0
 23 41  1  0  0  0  0
 23 42  1  0  0  0  0
 23 43  1  0  0  0  0
 24 44  1  0  0  0  0
 26 45  1  0  0  0  0
 28 46  1  0  0  0  0
 28 47  1  0  0  0  0
 28 48  1  0  0  0  0
M  END
> <Name>
21

> <IC50[uM]>
0.078

$$$$
21
  -OEChem-05192314333D
 Structure written by MMmdl.
 48 52  0     0  0  0  0  0  0999 V2000
   -6.3865   12.3338  -12.0432 C   0  0  0  0  0  0  0  0  0  0  0  0
   -6.4856   11.7841  -10.7704 C   0  0  0  0  0  0  0  0  0  0  0  0
   -7.7472   10.5643  -13.0426 C   0  0  0  0  0  0  0  0  0  0  0  0
   -7.0167   11.7500  -13.1460 C   0  0  0  0  0  0  0  0  0  0  0  0
   -7.8303   10.0081  -11.7598 C   0  0  0  0  0  0  0  0  0  0  0  0
   -7.2256   10.6149  -10.6156 C   0  0  0  0  0  0  0  0  0  0  0  0
   -7.6010    9.7518   -9.5145 C   0  0  0  0  0  0  0  0  0  0  0  0
   -8.2842    8.7423   -9.9828 N   0  0  0  0  0  0  0  0  0  0  0  0
   -8.4323    8.8733  -11.2925 N   0  0  0  0  0  0  0  0  0  0  0  0
   -7.3270    9.8938   -8.0225 C   0  0  0  0  0  0  0  0  0  0  0  0
   -5.5587   13.5285  -12.2266 C   0  0  0  0  0  0  0  0  0  0  0  0
   -5.9618   10.4909   -7.7327 C   0  0  0  0  0  0  0  0  0  0  0  0
   -5.8582   11.7635   -7.1652 C   0  0  0  0  0  0  0  0  0  0  0  0
   -4.6045   12.3140   -6.9191 C   0  0  0  0  0  0  0  0  0  0  0  0
   -3.4477   11.5945   -7.2362 C   0  0  0  0  0  0  0  0  0  0  0  0
   -3.5614   10.3184   -7.7958 C   0  0  0  0  0  0  0  0  0  0  0  0
   -4.8112    9.7685   -8.0438 C   0  0  0  0  0  0  0  0  0  0  0  0
   -2.1002   12.1716   -6.9783 C   0  0  0  0  0  0  0  0  0  0  0  0
   -1.7494   13.4275   -6.4902 C   0  0  0  0  0  0  0  0  0  0  0  0
   -0.4141   13.4605   -6.4332 N   0  0  0  0  0  0  0  0  0  0  0  0
    0.1744   12.3664   -6.8143 N   0  0  0  0  0  0  0  0  0  0  0  0
   -0.8092   11.5630   -7.1796 C   0  0  0  0  0  0  0  0  0  0  0  0
    0.4176   14.5730   -6.0003 C   0  0  0  0  0  0  0  0  0  0  0  0
   -4.4279   13.9049  -11.5130 C   0  0  0  0  0  0  0  0  0  0  0  0
   -4.0090   15.0294  -12.0677 N   0  0  0  0  0  0  0  0  0  0  0  0
   -4.8449   15.3445  -13.0534 C   0  0  0  0  0  0  0  0  0  0  0  0
   -5.7816   14.4464  -13.2081 N   0  0  0  0  0  0  0  0  0  0  0  0
   -2.9003   15.7800  -11.6435 C   0  0  0  0  0  0  0  0  0  0  0  0
   -6.0020   12.2509   -9.9250 H   0  0  0  0  0  0  0  0  0  0  0  0
   -8.2188   10.1047  -13.8986 H   0  0  0  0  0  0  0  0  0  0  0  0
   -6.9360   12.2316  -14.1093 H   0  0  0  0  0  0  0  0  0  0  0  0
   -8.0279    9.6014   -7.2546 H   0  0  0  0  0  0  0  0  0  0  0  0
   -6.7506   12.3193   -6.9178 H   0  0  0  0  0  0  0  0  0  0  0  0
   -4.5560   13.2570   -7.4834 H   0  0  0  0  0  0  0  0  0  0  0  0
   -4.5587   12.5289   -5.8413 H   0  0  0  0  0  0  0  0  0  0  0  0
   -2.6708    9.7569   -8.0367 H   0  0  0  0  0  0  0  0  0  0  0  0
   -4.8631    8.8277   -7.4762 H   0  0  0  0  0  0  0  0  0  0  0  0
   -4.8544    9.5498   -9.1210 H   0  0  0  0  0  0  0  0  0  0  0  0
   -2.4257   14.2220   -6.2113 H   0  0  0  0  0  0  0  0  0  0  0  0
   -0.6634   10.5708   -7.5804 H   0  0  0  0  0  0  0  0  0  0  0  0
    1.4777   14.2881   -6.0708 H   0  0  0  0  0  0  0  0  0  0  0  0
    0.2286   15.4443   -6.6446 H   0  0  0  0  0  0  0  0  0  0  0  0
    0.1751   14.8281   -4.9581 H   0  0  0  0  0  0  0  0  0  0  0  0
   -3.9826   13.3858  -10.6771 H   0  0  0  0  0  0  0  0  0  0  0  0
   -4.7595   16.2374  -13.6550 H   0  0  0  0  0  0  0  0  0  0  0  0
   -2.7876   16.6646  -12.2876 H   0  0  0  0  0  0  0  0  0  0  0  0
   -3.0519   16.1015  -10.6025 H   0  0  0  0  0  0  0  0  0  0  0  0
   -1.9928   15.1617  -11.7078 H   0  0  0  0  0  0  0  0  0  0  0  0
  1  2  2  0  0  0  0
  1  4  1  0  0  0  0
  1 11  1  0  0  0  0
  2  6  1  0  0  0  0
  3  4  2  0  0  0  0
  3  5  1  0  0  0  0
  5  6  2  0  0  0  0
  5  9  1  0  0  0  0
  6  7  1  0  0  0  0
  7  8  1  0  0  0  0
  7 10  2  3  0  0  0
  8  9  2  0  0  0  0
 10 12  1  0  0  0  0
 11 24  2  0  0  0  0
 11 27  1  0  0  0  0
 12 13  2  0  0  0  0
 12 17  1  0  0  0  0
 13 14  1  0  0  0  0
 14 15  1  0  0  0  0
 15 16  2  0  0  0  0
 15 18  1  0  0  0  0
 16 17  1  0  0  0  0
 18 19  2  0  0  0  0
 18 22  1  0  0  0  0
 19 20  1  0  0  0  0
 20 21  1  0  0  0  0
 20 23  1  0  0  0  0
 21 22  2  0  0  0  0
 24 25  1  0  0  0  0
 25 26  1  0  0  0  0
 25 28  1  0  0  0  0
 26 27  2  0  0  0  0
  2 29  1  0  0  0  0
  3 30  1  0  0  0  0
  4 31  1  0  0  0  0
 10 32  1  0  0  0  0
 13 33  1  0  0  0  0
 14 34  1  0  0  0  0
 14 35  1  0  0  0  0
 16 36  1  0  0  0  0
 17 37  1  0  0  0  0
 17 38  1  0  0  0  0
 19 39  1  0  0  0  0
 22 40  1  0  0  0  0
 23 41  1  0  0  0  0
 23 42  1  0  0  0  0
 23 43  1  0  0  0  0
 24 44  1  0  0  0  0
 26 45  1  0  0  0  0
 28 46  1  0  0  0  0
 28 47  1  0  0  0  0
 28 48  1  0  0  0  0
M  END
> <Name>
21

> <IC50[uM]>
0.078

$$$$
21
  -OEChem-05192314333D
 Structure written by MMmdl.
 48 52  0     0  0  0  0  0  0999 V2000
   -6.3865   12.3338  -12.0432 C   0  0  0  0  0  0  0  0  0  0  0  0
   -6.4856   11.7841  -10.7704 C   0  0  0  0  0  0  0  0  0  0  0  0
   -7.7472   10.5643  -13.0426 C   0  0  0  0  0  0  0  0  0  0  0  0
   -7.0167   11.7500  -13.1460 C   0  0  0  0  0  0  0  0  0  0  0  0
   -7.8303   10.0081  -11.7598 C   0  0  0  0  0  0  0  0  0  0  0  0
   -7.2256   10.6149  -10.6156 C   0  0  0  0  0  0  0  0  0  0  0  0
   -7.6010    9.7518   -9.5145 C   0  0  0  0  0  0  0  0  0  0  0  0
   -8.2842    8.7423   -9.9828 N   0  0  0  0  0  0  0  0  0  0  0  0
   -8.4323    8.8733  -11.2925 N   0  0  0  0  0  0  0  0  0  0  0  0
   -7.3270    9.8938   -8.0225 C   0  0  0  0  0  0  0  0  0  0  0  0
   -5.5587   13.5285  -12.2266 C   0  0  0  0  0  0  0  0  0  0  0  0
   -5.9618   10.4909   -7.7327 C   0  0  0  0  0  0  0  0  0  0  0  0
   -5.8582   11.7635   -7.1652 C   0  0  0  0  0  0  0  0  0  0  0  0
   -4.6045   12.3140   -6.9191 C   0  0  0  0  0  0  0  0  0  0  0  0
   -3.4477   11.5945   -7.2362 C   0  0  0  0  0  0  0  0  0  0  0  0
   -3.5614   10.3184   -7.7958 C   0  0  0  0  0  0  0  0  0  0  0  0
   -4.8112    9.7685   -8.0438 C   0  0  0  0  0  0  0  0  0  0  0  0
   -2.1002   12.1716   -6.9783 C   0  0  0  0  0  0  0  0  0  0  0  0
   -1.7494   13.4275   -6.4902 C   0  0  0  0  0  0  0  0  0  0  0  0
   -0.4141   13.4605   -6.4332 N   0  0  0  0  0  0  0  0  0  0  0  0
    0.1744   12.3664   -6.8143 N   0  0  0  0  0  0  0  0  0  0  0  0
   -0.8092   11.5630   -7.1796 C   0  0  0  0  0  0  0  0  0  0  0  0
    0.4176   14.5730   -6.0003 C   0  0  0  0  0  0  0  0  0  0  0  0
   -4.4279   13.9049  -11.5130 C   0  0  0  0  0  0  0  0  0  0  0  0
   -4.0090   15.0294  -12.0677 N   0  0  0  0  0  0  0  0  0  0  0  0
   -4.8449   15.3445  -13.0534 C   0  0  0  0  0  0  0  0  0  0  0  0
   -5.7816   14.4464  -13.2081 N   0  0  0  0  0  0  0  0  0  0  0  0
   -2.9003   15.7800  -11.6435 C   0  0  0  0  0  0  0  0  0  0  0  0
   -6.0020   12.2509   -9.9250 H   0  0  0  0  0  0  0  0  0  0  0  0
   -8.2188   10.1047  -13.8986 H   0  0  0  0  0  0  0  0  0  0  0  0
   -6.9360   12.2316  -14.1093 H   0  0  0  0  0  0  0  0  0  0  0  0
   -8.0279    9.6014   -7.2546 H   0  0  0  0  0  0  0  0  0  0  0  0
   -6.7506   12.3193   -6.9178 H   0  0  0  0  0  0  0  0  0  0  0  0
   -4.5243   13.2985   -6.4825 H   0  0  0  0  0  0  0  0  0  0  0  0
   -3.0330   10.3486   -8.7601 H   0  0  0  0  0  0  0  0  0  0  0  0
   -3.0424    9.6279   -7.1148 H   0  0  0  0  0  0  0  0  0  0  0  0
   -4.8631    8.8277   -7.4762 H   0  0  0  0  0  0  0  0  0  0  0  0
   -4.8544    9.5498   -9.1210 H   0  0  0  0  0  0  0  0  0  0  0  0
   -2.4257   14.2220   -6.2113 H   0  0  0  0  0  0  0  0  0  0  0  0
   -0.6634   10.5708   -7.5804 H   0  0  0  0  0  0  0  0  0  0  0  0
    1.4777   14.2881   -6.0708 H   0  0  0  0  0  0  0  0  0  0  0  0
    0.2286   15.4443   -6.6446 H   0  0  0  0  0  0  0  0  0  0  0  0
    0.1751   14.8281   -4.9581 H   0  0  0  0  0  0  0  0  0  0  0  0
   -3.9826   13.3858  -10.6771 H   0  0  0  0  0  0  0  0  0  0  0  0
   -4.7595   16.2374  -13.6550 H   0  0  0  0  0  0  0  0  0  0  0  0
   -2.7876   16.6646  -12.2876 H   0  0  0  0  0  0  0  0  0  0  0  0
   -3.0519   16.1015  -10.6025 H   0  0  0  0  0  0  0  0  0  0  0  0
   -1.9928   15.1617  -11.7078 H   0  0  0  0  0  0  0  0  0  0  0  0
  1  2  2  0  0  0  0
  1  4  1  0  0  0  0
  1 11  1  0  0  0  0
  2  6  1  0  0  0  0
  3  4  2  0  0  0  0
  3  5  1  0  0  0  0
  5  6  2  0  0  0  0
  5  9  1  0  0  0  0
  6  7  1  0  0  0  0
  7  8  1  0  0  0  0
  7 10  2  3  0  0  0
  8  9  2  0  0  0  0
 10 12  1  0  0  0  0
 11 24  2  0  0  0  0
 11 27  1  0  0  0  0
 12 13  2  0  0  0  0
 12 17  1  0  0  0  0
 13 14  1  0  0  0  0
 14 15  2  0  0  0  0
 15 16  1  0  0  0  0
 15 18  1  0  0  0  0
 16 17  1  0  0  0  0
 18 19  2  0  0  0  0
 18 22  1  0  0  0  0
 19 20  1  0  0  0  0
 20 21  1  0  0  0  0
 20 23  1  0  0  0  0
 21 22  2  0  0  0  0
 24 25  1  0  0  0  0
 25 26  1  0  0  0  0
 25 28  1  0  0  0  0
 26 27  2  0  0  0  0
  2 29  1  0  0  0  0
  3 30  1  0  0  0  0
  4 31  1  0  0  0  0
 10 32  1  0  0  0  0
 13 33  1  0  0  0  0
 14 34  1  0  0  0  0
 16 35  1  0  0  0  0
 16 36  1  0  0  0  0
 17 37  1  0  0  0  0
 17 38  1  0  0  0  0
 19 39  1  0  0  0  0
 22 40  1  0  0  0  0
 23 41  1  0  0  0  0
 23 42  1  0  0  0  0
 23 43  1  0  0  0  0
 24 44  1  0  0  0  0
 26 45  1  0  0  0  0
 28 46  1  0  0  0  0
 28 47  1  0  0  0  0
 28 48  1  0  0  0  0
M  END
> <Name>
21

> <IC50[uM]>
0.078

$$$$
21
  -OEChem-05192314333D
 Structure written by MMmdl.
 48 52  0     1  0  0  0  0  0999 V2000
   -6.3865   12.3338  -12.0432 C   0  0  3  0  0  0  0  0  0  0  0  0
   -6.4856   11.7841  -10.7704 C   0  0  0  0  0  0  0  0  0  0  0  0
   -7.7472   10.5643  -13.0426 C   0  0  0  0  0  0  0  0  0  0  0  0
   -7.0167   11.7500  -13.1460 C   0  0  0  0  0  0  0  0  0  0  0  0
   -7.8303   10.0081  -11.7598 C   0  0  0  0  0  0  0  0  0  0  0  0
   -7.2256   10.6149  -10.6156 C   0  0  0  0  0  0  0  0  0  0  0  0
   -7.6010    9.7518   -9.5145 C   0  0  0  0  0  0  0  0  0  0  0  0
   -8.2842    8.7423   -9.9828 N   0  0  0  0  0  0  0  0  0  0  0  0
   -8.4323    8.8733  -11.2925 N   0  0  0  0  0  0  0  0  0  0  0  0
   -7.3270    9.8938   -8.0225 C   0  0  0  0  0  0  0  0  0  0  0  0
   -5.5587   13.5285  -12.2266 C   0  0  0  0  0  0  0  0  0  0  0  0
   -5.9618   10.4909   -7.7327 C   0  0  0  0  0  0  0  0  0  0  0  0
   -5.8582   11.7635   -7.1652 C   0  0  0  0  0  0  0  0  0  0  0  0
   -4.6045   12.3140   -6.9191 C   0  0  0  0  0  0  0  0  0  0  0  0
   -3.4477   11.5945   -7.2362 C   0  0  0  0  0  0  0  0  0  0  0  0
   -3.5614   10.3184   -7.7958 C   0  0  0  0  0  0  0  0  0  0  0  0
   -4.8112    9.7685   -8.0438 C   0  0  0  0  0  0  0  0  0  0  0  0
   -2.1002   12.1716   -6.9783 C   0  0  0  0  0  0  0  0  0  0  0  0
   -1.7494   13.4275   -6.4902 C   0  0  0  0  0  0  0  0  0  0  0  0
   -0.4141   13.4605   -6.4332 N   0  0  0  0  0  0  0  0  0  0  0  0
    0.1744   12.3664   -6.8143 N   0  0  0  0  0  0  0  0  0  0  0  0
   -0.8092   11.5630   -7.1796 C   0  0  0  0  0  0  0  0  0  0  0  0
    0.4176   14.5730   -6.0003 C   0  0  0  0  0  0  0  0  0  0  0  0
   -4.4279   13.9049  -11.5130 C   0  0  0  0  0  0  0  0  0  0  0  0
   -4.0090   15.0294  -12.0677 N   0  0  0  0  0  0  0  0  0  0  0  0
   -4.8449   15.3445  -13.0534 C   0  0  0  0  0  0  0  0  0  0  0  0
   -5.7816   14.4464  -13.2081 N   0  0  0  0  0  0  0  0  0  0  0  0
   -2.9003   15.7800  -11.6435 C   0  0  0  0  0  0  0  0  0  0  0  0
   -7.2704   12.9609  -11.8546 H   0  0  0  0  0  0  0  0  0  0  0  0
   -5.4627   11.5709  -10.4264 H   0  0  0  0  0  0  0  0  0  0  0  0
   -6.9398   12.5463  -10.1202 H   0  0  0  0  0  0  0  0  0  0  0  0
   -8.2188   10.1047  -13.8986 H   0  0  0  0  0  0  0  0  0  0  0  0
   -6.9360   12.2316  -14.1093 H   0  0  0  0  0  0  0  0  0  0  0  0
   -8.0279    9.6014   -7.2546 H   0  0  0  0  0  0  0  0  0  0  0  0
   -6.7506   12.3193   -6.9178 H   0  0  0  0  0  0  0  0  0  0  0  0
   -4.5243   13.2985   -6.4825 H   0  0  0  0  0  0  0  0  0  0  0  0
   -2.6708    9.7569   -8.0367 H   0  0  0  0  0  0  0  0  0  0  0  0
   -4.8921    8.7825   -8.4771 H   0  0  0  0  0  0  0  0  0  0  0  0
   -2.4257   14.2220   -6.2113 H   0  0  0  0  0  0  0  0  0  0  0  0
   -0.6634   10.5708   -7.5804 H   0  0  0  0  0  0  0  0  0  0  0  0
    1.4777   14.2881   -6.0708 H   0  0  0  0  0  0  0  0  0  0  0  0
    0.2286   15.4443   -6.6446 H   0  0  0  0  0  0  0  0  0  0  0  0
    0.1751   14.8281   -4.9581 H   0  0  0  0  0  0  0  0  0  0  0  0
   -3.9826   13.3858  -10.6771 H   0  0  0  0  0  0  0  0  0  0  0  0
   -4.7595   16.2374  -13.6550 H   0  0  0  0  0  0  0  0  0  0  0  0
   -2.7876   16.6646  -12.2876 H   0  0  0  0  0  0  0  0  0  0  0  0
   -3.0519   16.1015  -10.6025 H   0  0  0  0  0  0  0  0  0  0  0  0
   -1.9928   15.1617  -11.7078 H   0  0  0  0  0  0  0  0  0  0  0  0
  1  2  1  0  0  0  0
  1  4  1  0  0  0  0
  1 11  1  0  0  0  0
  2  6  1  0  0  0  0
  3  4  2  0  0  0  0
  3  5  1  0  0  0  0
  5  6  2  0  0  0  0
  5  9  1  0  0  0  0
  6  7  1  0  0  0  0
  7  8  1  0  0  0  0
  7 10  2  3  0  0  0
  8  9  2  0  0  0  0
 10 12  1  0  0  0  0
 11 24  2  0  0  0  0
 11 27  1  0  0  0  0
 12 13  2  0  0  0  0
 12 17  1  0  0  0  0
 13 14  1  0  0  0  0
 14 15  2  0  0  0  0
 15 16  1  0  0  0  0
 15 18  1  0  0  0  0
 16 17  2  0  0  0  0
 18 19  2  0  0  0  0
 18 22  1  0  0  0  0
 19 20  1  0  0  0  0
 20 21  1  0  0  0  0
 20 23  1  0  0  0  0
 21 22  2  0  0  0  0
 24 25  1  0  0  0  0
 25 26  1  0  0  0  0
 25 28  1  0  0  0  0
 26 27  2  0  0  0  0
  1 29  1  0  0  0  0
  2 30  1  0  0  0  0
  2 31  1  0  0  0  0
  3 32  1  0  0  0  0
  4 33  1  0  0  0  0
 10 34  1  0  0  0  0
 13 35  1  0  0  0  0
 14 36  1  0  0  0  0
 16 37  1  0  0  0  0
 17 38  1  0  0  0  0
 19 39  1  0  0  0  0
 22 40  1  0  0  0  0
 23 41  1  0  0  0  0
 23 42  1  0  0  0  0
 23 43  1  0  0  0  0
 24 44  1  0  0  0  0
 26 45  1  0  0  0  0
 28 46  1  0  0  0  0
 28 47  1  0  0  0  0
 28 48  1  0  0  0  0
M  END
> <Name>
21

> <IC50[uM]>
0.078

$$$$
21
  -OEChem-05192314333D
 Structure written by MMmdl.
 48 52  0     1  0  0  0  0  0999 V2000
   -6.3865   12.3338  -12.0432 C   0  0  0  0  0  0  0  0  0  0  0  0
   -6.4856   11.7841  -10.7704 C   0  0  0  0  0  0  0  0  0  0  0  0
   -7.7472   10.5643  -13.0426 C   0  0  0  0  0  0  0  0  0  0  0  0
   -7.0167   11.7500  -13.1460 C   0  0  0  0  0  0  0  0  0  0  0  0
   -7.8303   10.0081  -11.7598 C   0  0  0  0  0  0  0  0  0  0  0  0
   -7.2256   10.6149  -10.6156 C   0  0  3  0  0  0  0  0  0  0  0  0
   -7.6010    9.7518   -9.5145 C   0  0  0  0  0  0  0  0  0  0  0  0
   -8.2842    8.7423   -9.9828 N   0  0  0  0  0  0  0  0  0  0  0  0
   -8.4323    8.8733  -11.2925 N   0  0  0  0  0  0  0  0  0  0  0  0
   -7.3270    9.8938   -8.0225 C   0  0  0  0  0  0  0  0  0  0  0  0
   -5.5587   13.5285  -12.2266 C   0  0  0  0  0  0  0  0  0  0  0  0
   -5.9618   10.4909   -7.7327 C   0  0  0  0  0  0  0  0  0  0  0  0
   -5.8582   11.7635   -7.1652 C   0  0  0  0  0  0  0  0  0  0  0  0
   -4.6045   12.3140   -6.9191 C   0  0  0  0  0  0  0  0  0  0  0  0
   -3.4477   11.5945   -7.2362 C   0  0  0  0  0  0  0  0  0  0  0  0
   -3.5614   10.3184   -7.7958 C   0  0  0  0  0  0  0  0  0  0  0  0
   -4.8112    9.7685   -8.0438 C   0  0  0  0  0  0  0  0  0  0  0  0
   -2.1002   12.1716   -6.9783 C   0  0  0  0  0  0  0  0  0  0  0  0
   -1.7494   13.4275   -6.4902 C   0  0  0  0  0  0  0  0  0  0  0  0
   -0.4141   13.4605   -6.4332 N   0  0  0  0  0  0  0  0  0  0  0  0
    0.1744   12.3664   -6.8143 N   0  0  0  0  0  0  0  0  0  0  0  0
   -0.8092   11.5630   -7.1796 C   0  0  0  0  0  0  0  0  0  0  0  0
    0.4176   14.5730   -6.0003 C   0  0  0  0  0  0  0  0  0  0  0  0
   -4.4279   13.9049  -11.5130 C   0  0  0  0  0  0  0  0  0  0  0  0
   -4.0090   15.0294  -12.0677 N   0  0  0  0  0  0  0  0  0  0  0  0
   -4.8449   15.3445  -13.0534 C   0  0  0  0  0  0  0  0  0  0  0  0
   -5.7816   14.4464  -13.2081 N   0  0  0  0  0  0  0  0  0  0  0  0
   -2.9003   15.7800  -11.6435 C   0  0  0  0  0  0  0  0  0  0  0  0
   -5.4627   11.5709  -10.4264 H   0  0  0  0  0  0  0  0  0  0  0  0
   -6.9398   12.5463  -10.1202 H   0  0  0  0  0  0  0  0  0  0  0  0
   -8.2188   10.1047  -13.8986 H   0  0  0  0  0  0  0  0  0  0  0  0
   -6.9360   12.2316  -14.1093 H   0  0  0  0  0  0  0  0  0  0  0  0
   -6.3168   10.0165  -10.7767 H   0  0  0  0  0  0  0  0  0  0  0  0
   -8.0279    9.6014   -7.2546 H   0  0  0  0  0  0  0  0  0  0  0  0
   -6.7506   12.3193   -6.9178 H   0  0  0  0  0  0  0  0  0  0  0  0
   -4.5243   13.2985   -6.4825 H   0  0  0  0  0  0  0  0  0  0  0  0
   -2.6708    9.7569   -8.0367 H   0  0  0  0  0  0  0  0  0  0  0  0
   -4.8921    8.7825   -8.4771 H   0  0  0  0  0  0  0  0  0  0  0  0
   -2.4257   14.2220   -6.2113 H   0  0  0  0  0  0  0  0  0  0  0  0
   -0.6634   10.5708   -7.5804 H   0  0  0  0  0  0  0  0  0  0  0  0
    1.4777   14.2881   -6.0708 H   0  0  0  0  0  0  0  0  0  0  0  0
    0.2286   15.4443   -6.6446 H   0  0  0  0  0  0  0  0  0  0  0  0
    0.1751   14.8281   -4.9581 H   0  0  0  0  0  0  0  0  0  0  0  0
   -3.9826   13.3858  -10.6771 H   0  0  0  0  0  0  0  0  0  0  0  0
   -4.7595   16.2374  -13.6550 H   0  0  0  0  0  0  0  0  0  0  0  0
   -2.7876   16.6646  -12.2876 H   0  0  0  0  0  0  0  0  0  0  0  0
   -3.0519   16.1015  -10.6025 H   0  0  0  0  0  0  0  0  0  0  0  0
   -1.9928   15.1617  -11.7078 H   0  0  0  0  0  0  0  0  0  0  0  0
  1  2  1  0  0  0  0
  1  4  2  0  0  0  0
  1 11  1  0  0  0  0
  2  6  1  0  0  0  0
  3  4  1  0  0  0  0
  3  5  2  0  0  0  0
  5  6  1  0  0  0  0
  5  9  1  0  0  0  0
  6  7  1  0  0  0  0
  7  8  1  0  0  0  0
  7 10  2  3  0  0  0
  8  9  2  0  0  0  0
 10 12  1  0  0  0  0
 11 24  2  0  0  0  0
 11 27  1  0  0  0  0
 12 13  2  0  0  0  0
 12 17  1  0  0  0  0
 13 14  1  0  0  0  0
 14 15  2  0  0  0  0
 15 16  1  0  0  0  0
 15 18  1  0  0  0  0
 16 17  2  0  0  0  0
 18 19  2  0  0  0  0
 18 22  1  0  0  0  0
 19 20  1  0  0  0  0
 20 21  1  0  0  0  0
 20 23  1  0  0  0  0
 21 22  2  0  0  0  0
 24 25  1  0  0  0  0
 25 26  1  0  0  0  0
 25 28  1  0  0  0  0
 26 27  2  0  0  0  0
  2 29  1  0  0  0  0
  2 30  1  0  0  0  0
  3 31  1  0  0  0  0
  4 32  1  0  0  0  0
  6 33  1  0  0  0  0
 10 34  1  0  0  0  0
 13 35  1  0  0  0  0
 14 36  1  0  0  0  0
 16 37  1  0  0  0  0
 17 38  1  0  0  0  0
 19 39  1  0  0  0  0
 22 40  1  0  0  0  0
 23 41  1  0  0  0  0
 23 42  1  0  0  0  0
 23 43  1  0  0  0  0
 24 44  1  0  0  0  0
 26 45  1  0  0  0  0
 28 46  1  0  0  0  0
 28 47  1  0  0  0  0
 28 48  1  0  0  0  0
M  END
> <Name>
21

> <IC50[uM]>
0.078

$$$$
21
  -OEChem-05192314333D
 Structure written by MMmdl.
 48 52  0     0  0  0  0  0  0999 V2000
   -6.3865   12.3338  -12.0432 C   0  0  0  0  0  0  0  0  0  0  0  0
   -6.4856   11.7841  -10.7704 C   0  0  0  0  0  0  0  0  0  0  0  0
   -7.7472   10.5643  -13.0426 C   0  0  0  0  0  0  0  0  0  0  0  0
   -7.0167   11.7500  -13.1460 C   0  0  0  0  0  0  0  0  0  0  0  0
   -7.8303   10.0081  -11.7598 C   0  0  0  0  0  0  0  0  0  0  0  0
   -7.2256   10.6149  -10.6156 C   0  0  0  0  0  0  0  0  0  0  0  0
   -7.6010    9.7518   -9.5145 C   0  0  0  0  0  0  0  0  0  0  0  0
   -8.2842    8.7423   -9.9828 N   0  0  0  0  0  0  0  0  0  0  0  0
   -8.4323    8.8733  -11.2925 N   0  0  0  0  0  0  0  0  0  0  0  0
   -7.3270    9.8938   -8.0225 C   0  0  0  0  0  0  0  0  0  0  0  0
   -5.5587   13.5285  -12.2266 C   0  0  0  0  0  0  0  0  0  0  0  0
   -5.9618   10.4909   -7.7327 C   0  0  0  0  0  0  0  0  0  0  0  0
   -5.8582   11.7635   -7.1652 C   0  0  0  0  0  0  0  0  0  0  0  0
   -4.6045   12.3140   -6.9191 C   0  0  0  0  0  0  0  0  0  0  0  0
   -3.4477   11.5945   -7.2362 C   0  0  0  0  0  0  0  0  0  0  0  0
   -3.5614   10.3184   -7.7958 C   0  0  0  0  0  0  0  0  0  0  0  0
   -4.8112    9.7685   -8.0438 C   0  0  0  0  0  0  0  0  0  0  0  0
   -2.1002   12.1716   -6.9783 C   0  0  0  0  0  0  0  0  0  0  0  0
   -1.7494   13.4275   -6.4902 C   0  0  0  0  0  0  0  0  0  0  0  0
   -0.4141   13.4605   -6.4332 N   0  0  0  0  0  0  0  0  0  0  0  0
    0.1744   12.3664   -6.8143 N   0  0  0  0  0  0  0  0  0  0  0  0
   -0.8092   11.5630   -7.1796 C   0  0  0  0  0  0  0  0  0  0  0  0
    0.4176   14.5730   -6.0003 C   0  0  0  0  0  0  0  0  0  0  0  0
   -4.4279   13.9049  -11.5130 C   0  0  0  0  0  0  0  0  0  0  0  0
   -4.0090   15.0294  -12.0677 N   0  0  0  0  0  0  0  0  0  0  0  0
   -4.8449   15.3445  -13.0534 C   0  0  0  0  0  0  0  0  0  0  0  0
   -5.7816   14.4464  -13.2081 N   0  0  0  0  0  0  0  0  0  0  0  0
   -2.9003   15.7800  -11.6435 C   0  0  0  0  0  0  0  0  0  0  0  0
   -5.4627   11.5709  -10.4264 H   0  0  0  0  0  0  0  0  0  0  0  0
   -6.9398   12.5463  -10.1202 H   0  0  0  0  0  0  0  0  0  0  0  0
   -8.7712   10.7678  -13.3889 H   0  0  0  0  0  0  0  0  0  0  0  0
   -7.2778    9.8203  -13.7030 H   0  0  0  0  0  0  0  0  0  0  0  0
   -6.9360   12.2316  -14.1093 H   0  0  0  0  0  0  0  0  0  0  0  0
   -8.0279    9.6014   -7.2546 H   0  0  0  0  0  0  0  0  0  0  0  0
   -6.7506   12.3193   -6.9178 H   0  0  0  0  0  0  0  0  0  0  0  0
   -4.5243   13.2985   -6.4825 H   0  0  0  0  0  0  0  0  0  0  0  0
   -2.6708    9.7569   -8.0367 H   0  0  0  0  0  0  0  0  0  0  0  0
   -4.8921    8.7825   -8.4771 H   0  0  0  0  0  0  0  0  0  0  0  0
   -2.4257   14.2220   -6.2113 H   0  0  0  0  0  0  0  0  0  0  0  0
   -0.6634   10.5708   -7.5804 H   0  0  0  0  0  0  0  0  0  0  0  0
    1.4777   14.2881   -6.0708 H   0  0  0  0  0  0  0  0  0  0  0  0
    0.2286   15.4443   -6.6446 H   0  0  0  0  0  0  0  0  0  0  0  0
    0.1751   14.8281   -4.9581 H   0  0  0  0  0  0  0  0  0  0  0  0
   -3.9826   13.3858  -10.6771 H   0  0  0  0  0  0  0  0  0  0  0  0
   -4.7595   16.2374  -13.6550 H   0  0  0  0  0  0  0  0  0  0  0  0
   -2.7876   16.6646  -12.2876 H   0  0  0  0  0  0  0  0  0  0  0  0
   -3.0519   16.1015  -10.6025 H   0  0  0  0  0  0  0  0  0  0  0  0
   -1.9928   15.1617  -11.7078 H   0  0  0  0  0  0  0  0  0  0  0  0
  1  2  1  0  0  0  0
  1  4  2  0  0  0  0
  1 11  1  0  0  0  0
  2  6  1  0  0  0  0
  3  4  1  0  0  0  0
  3  5  1  0  0  0  0
  5  6  2  0  0  0  0
  5  9  1  0  0  0  0
  6  7  1  0  0  0  0
  7  8  1  0  0  0  0
  7 10  2  3  0  0  0
  8  9  2  0  0  0  0
 10 12  1  0  0  0  0
 11 24  2  0  0  0  0
 11 27  1  0  0  0  0
 12 13  2  0  0  0  0
 12 17  1  0  0  0  0
 13 14  1  0  0  0  0
 14 15  2  0  0  0  0
 15 16  1  0  0  0  0
 15 18  1  0  0  0  0
 16 17  2  0  0  0  0
 18 19  2  0  0  0  0
 18 22  1  0  0  0  0
 19 20  1  0  0  0  0
 20 21  1  0  0  0  0
 20 23  1  0  0  0  0
 21 22  2  0  0  0  0
 24 25  1  0  0  0  0
 25 26  1  0  0  0  0
 25 28  1  0  0  0  0
 26 27  2  0  0  0  0
  2 29  1  0  0  0  0
  2 30  1  0  0  0  0
  3 31  1  0  0  0  0
  3 32  1  0  0  0  0
  4 33  1  0  0  0  0
 10 34  1  0  0  0  0
 13 35  1  0  0  0  0
 14 36  1  0  0  0  0
 16 37  1  0  0  0  0
 17 38  1  0  0  0  0
 19 39  1  0  0  0  0
 22 40  1  0  0  0  0
 23 41  1  0  0  0  0
 23 42  1  0  0  0  0
 23 43  1  0  0  0  0
 24 44  1  0  0  0  0
 26 45  1  0  0  0  0
 28 46  1  0  0  0  0
 28 47  1  0  0  0  0
 28 48  1  0  0  0  0
M  END
> <Name>
21

> <IC50[uM]>
0.078

$$$$
21
  -OEChem-05192314333D
 Structure written by MMmdl.
 48 52  0     1  0  0  0  0  0999 V2000
   -6.3865   12.3338  -12.0432 C   0  0  0  0  0  0  0  0  0  0  0  0
   -6.4856   11.7841  -10.7704 C   0  0  0  0  0  0  0  0  0  0  0  0
   -7.7472   10.5643  -13.0426 C   0  0  0  0  0  0  0  0  0  0  0  0
   -7.0167   11.7500  -13.1460 C   0  0  0  0  0  0  0  0  0  0  0  0
   -7.8303   10.0081  -11.7598 C   0  0  3  0  0  0  0  0  0  0  0  0
   -7.2256   10.6149  -10.6156 C   0  0  0  0  0  0  0  0  0  0  0  0
   -7.6010    9.7518   -9.5145 C   0  0  0  0  0  0  0  0  0  0  0  0
   -8.2842    8.7423   -9.9828 N   0  0  0  0  0  0  0  0  0  0  0  0
   -8.4323    8.8733  -11.2925 N   0  0  0  0  0  0  0  0  0  0  0  0
   -7.3270    9.8938   -8.0225 C   0  0  0  0  0  0  0  0  0  0  0  0
   -5.5587   13.5285  -12.2266 C   0  0  0  0  0  0  0  0  0  0  0  0
   -5.9618   10.4909   -7.7327 C   0  0  0  0  0  0  0  0  0  0  0  0
   -5.8582   11.7635   -7.1652 C   0  0  0  0  0  0  0  0  0  0  0  0
   -4.6045   12.3140   -6.9191 C   0  0  0  0  0  0  0  0  0  0  0  0
   -3.4477   11.5945   -7.2362 C   0  0  0  0  0  0  0  0  0  0  0  0
   -3.5614   10.3184   -7.7958 C   0  0  0  0  0  0  0  0  0  0  0  0
   -4.8112    9.7685   -8.0438 C   0  0  0  0  0  0  0  0  0  0  0  0
   -2.1002   12.1716   -6.9783 C   0  0  0  0  0  0  0  0  0  0  0  0
   -1.7494   13.4275   -6.4902 C   0  0  0  0  0  0  0  0  0  0  0  0
   -0.4141   13.4605   -6.4332 N   0  0  0  0  0  0  0  0  0  0  0  0
    0.1744   12.3664   -6.8143 N   0  0  0  0  0  0  0  0  0  0  0  0
   -0.8092   11.5630   -7.1796 C   0  0  0  0  0  0  0  0  0  0  0  0
    0.4176   14.5730   -6.0003 C   0  0  0  0  0  0  0  0  0  0  0  0
   -4.4279   13.9049  -11.5130 C   0  0  0  0  0  0  0  0  0  0  0  0
   -4.0090   15.0294  -12.0677 N   0  0  0  0  0  0  0  0  0  0  0  0
   -4.8449   15.3445  -13.0534 C   0  0  0  0  0  0  0  0  0  0  0  0
   -5.7816   14.4464  -13.2081 N   0  0  0  0  0  0  0  0  0  0  0  0
   -2.9003   15.7800  -11.6435 C   0  0  0  0  0  0  0  0  0  0  0  0
   -6.0020   12.2509   -9.9250 H   0  0  0  0  0  0  0  0  0  0  0  0
   -8.2188   10.1047  -13.8986 H   0  0  0  0  0  0  0  0  0  0  0  0
   -6.9360   12.2316  -14.1093 H   0  0  0  0  0  0  0  0  0  0  0  0
   -8.7540   10.5755  -11.5731 H   0  0  0  0  0  0  0  0  0  0  0  0
   -8.0967   10.5457   -7.5837 H   0  0  0  0  0  0  0  0  0  0  0  0
   -7.3815    8.8981   -7.5582 H   0  0  0  0  0  0  0  0  0  0  0  0
   -6.7506   12.3193   -6.9178 H   0  0  0  0  0  0  0  0  0  0  0  0
   -4.5243   13.2985   -6.4825 H   0  0  0  0  0  0  0  0  0  0  0  0
   -2.6708    9.7569   -8.0367 H   0  0  0  0  0  0  0  0  0  0  0  0
   -4.8921    8.7825   -8.4771 H   0  0  0  0  0  0  0  0  0  0  0  0
   -2.4257   14.2220   -6.2113 H   0  0  0  0  0  0  0  0  0  0  0  0
   -0.6634   10.5708   -7.5804 H   0  0  0  0  0  0  0  0  0  0  0  0
    1.4777   14.2881   -6.0708 H   0  0  0  0  0  0  0  0  0  0  0  0
    0.2286   15.4443   -6.6446 H   0  0  0  0  0  0  0  0  0  0  0  0
    0.1751   14.8281   -4.9581 H   0  0  0  0  0  0  0  0  0  0  0  0
   -3.9826   13.3858  -10.6771 H   0  0  0  0  0  0  0  0  0  0  0  0
   -4.7595   16.2374  -13.6550 H   0  0  0  0  0  0  0  0  0  0  0  0
   -2.7876   16.6646  -12.2876 H   0  0  0  0  0  0  0  0  0  0  0  0
   -3.0519   16.1015  -10.6025 H   0  0  0  0  0  0  0  0  0  0  0  0
   -1.9928   15.1617  -11.7078 H   0  0  0  0  0  0  0  0  0  0  0  0
  1  2  2  0  0  0  0
  1  4  1  0  0  0  0
  1 11  1  0  0  0  0
  2  6  1  0  0  0  0
  3  4  2  0  0  0  0
  3  5  1  0  0  0  0
  5  6  1  0  0  0  0
  5  9  1  0  0  0  0
  6  7  2  0  0  0  0
  7  8  1  0  0  0  0
  7 10  1  0  0  0  0
  8  9  2  0  0  0  0
 10 12  1  0  0  0  0
 11 24  2  0  0  0  0
 11 27  1  0  0  0  0
 12 13  2  0  0  0  0
 12 17  1  0  0  0  0
 13 14  1  0  0  0  0
 14 15  2  0  0  0  0
 15 16  1  0  0  0  0
 15 18  1  0  0  0  0
 16 17  2  0  0  0  0
 18 19  2  0  0  0  0
 18 22  1  0  0  0  0
 19 20  1  0  0  0  0
 20 21  1  0  0  0  0
 20 23  1  0  0  0  0
 21 22  2  0  0  0  0
 24 25  1  0  0  0  0
 25 26  1  0  0  0  0
 25 28  1  0  0  0  0
 26 27  2  0  0  0  0
  2 29  1  0  0  0  0
  3 30  1  0  0  0  0
  4 31  1  0  0  0  0
  5 32  1  0  0  0  0
 10 33  1  0  0  0  0
 10 34  1  0  0  0  0
 13 35  1  0  0  0  0
 14 36  1  0  0  0  0
 16 37  1  0  0  0  0
 17 38  1  0  0  0  0
 19 39  1  0  0  0  0
 22 40  1  0  0  0  0
 23 41  1  0  0  0  0
 23 42  1  0  0  0  0
 23 43  1  0  0  0  0
 24 44  1  0  0  0  0
 26 45  1  0  0  0  0
 28 46  1  0  0  0  0
 28 47  1  0  0  0  0
 28 48  1  0  0  0  0
M  END
> <Name>
21

> <IC50[uM]>
0.078

$$$$
21
  -OEChem-05192314333D
 Structure written by MMmdl.
 48 52  0     0  0  0  0  0  0999 V2000
   -6.3865   12.3338  -12.0432 C   0  0  0  0  0  0  0  0  0  0  0  0
   -6.4856   11.7841  -10.7704 C   0  0  0  0  0  0  0  0  0  0  0  0
   -7.7472   10.5643  -13.0426 C   0  0  0  0  0  0  0  0  0  0  0  0
   -7.0167   11.7500  -13.1460 C   0  0  0  0  0  0  0  0  0  0  0  0
   -7.8303   10.0081  -11.7598 C   0  0  0  0  0  0  0  0  0  0  0  0
   -7.2256   10.6149  -10.6156 C   0  0  0  0  0  0  0  0  0  0  0  0
   -7.6010    9.7518   -9.5145 C   0  0  0  0  0  0  0  0  0  0  0  0
   -8.2842    8.7423   -9.9828 N   0  0  0  0  0  0  0  0  0  0  0  0
   -8.4323    8.8733  -11.2925 N   0  0  0  0  0  0  0  0  0  0  0  0
   -7.3270    9.8938   -8.0225 C   0  0  0  0  0  0  0  0  0  0  0  0
   -5.5587   13.5285  -12.2266 C   0  0  0  0  0  0  0  0  0  0  0  0
   -5.9618   10.4909   -7.7327 C   0  0  0  0  0  0  0  0  0  0  0  0
   -5.8582   11.7635   -7.1652 C   0  0  0  0  0  0  0  0  0  0  0  0
   -4.6045   12.3140   -6.9191 C   0  0  0  0  0  0  0  0  0  0  0  0
   -3.4477   11.5945   -7.2362 C   0  0  0  0  0  0  0  0  0  0  0  0
   -3.5614   10.3184   -7.7958 C   0  0  0  0  0  0  0  0  0  0  0  0
   -4.8112    9.7685   -8.0438 C   0  0  0  0  0  0  0  0  0  0  0  0
   -2.1002   12.1716   -6.9783 C   0  0  0  0  0  0  0  0  0  0  0  0
   -1.7494   13.4275   -6.4902 C   0  0  0  0  0  0  0  0  0  0  0  0
   -0.4141   13.4605   -6.4332 N   0  0  0  0  0  0  0  0  0  0  0  0
    0.1744   12.3664   -6.8143 N   0  0  0  0  0  0  0  0  0  0  0  0
   -0.8092   11.5630   -7.1796 C   0  0  0  0  0  0  0  0  0  0  0  0
    0.4176   14.5730   -6.0003 C   0  0  0  0  0  0  0  0  0  0  0  0
   -4.4279   13.9049  -11.5130 C   0  0  0  0  0  0  0  0  0  0  0  0
   -4.0090   15.0294  -12.0677 N   0  0  0  0  0  0  0  0  0  0  0  0
   -4.8449   15.3445  -13.0534 C   0  0  0  0  0  0  0  0  0  0  0  0
   -5.7816   14.4464  -13.2081 N   0  0  0  0  0  0  0  0  0  0  0  0
   -2.9003   15.7800  -11.6435 C   0  0  0  0  0  0  0  0  0  0  0  0
   -6.0020   12.2509   -9.9250 H   0  0  0  0  0  0  0  0  0  0  0  0
   -8.2188   10.1047  -13.8986 H   0  0  0  0  0  0  0  0  0  0  0  0
   -7.7125   12.5063  -13.5382 H   0  0  0  0  0  0  0  0  0  0  0  0
   -6.2260   11.5601  -13.8867 H   0  0  0  0  0  0  0  0  0  0  0  0
   -8.0967   10.5457   -7.5837 H   0  0  0  0  0  0  0  0  0  0  0  0
   -7.3815    8.8981   -7.5582 H   0  0  0  0  0  0  0  0  0  0  0  0
   -6.7506   12.3193   -6.9178 H   0  0  0  0  0  0  0  0  0  0  0  0
   -4.5243   13.2985   -6.4825 H   0  0  0  0  0  0  0  0  0  0  0  0
   -2.6708    9.7569   -8.0367 H   0  0  0  0  0  0  0  0  0  0  0  0
   -4.8921    8.7825   -8.4771 H   0  0  0  0  0  0  0  0  0  0  0  0
   -2.4257   14.2220   -6.2113 H   0  0  0  0  0  0  0  0  0  0  0  0
   -0.6634   10.5708   -7.5804 H   0  0  0  0  0  0  0  0  0  0  0  0
    1.4777   14.2881   -6.0708 H   0  0  0  0  0  0  0  0  0  0  0  0
    0.2286   15.4443   -6.6446 H   0  0  0  0  0  0  0  0  0  0  0  0
    0.1751   14.8281   -4.9581 H   0  0  0  0  0  0  0  0  0  0  0  0
   -3.9826   13.3858  -10.6771 H   0  0  0  0  0  0  0  0  0  0  0  0
   -4.7595   16.2374  -13.6550 H   0  0  0  0  0  0  0  0  0  0  0  0
   -2.7876   16.6646  -12.2876 H   0  0  0  0  0  0  0  0  0  0  0  0
   -3.0519   16.1015  -10.6025 H   0  0  0  0  0  0  0  0  0  0  0  0
   -1.9928   15.1617  -11.7078 H   0  0  0  0  0  0  0  0  0  0  0  0
  1  2  2  0  0  0  0
  1  4  1  0  0  0  0
  1 11  1  0  0  0  0
  2  6  1  0  0  0  0
  3  4  1  0  0  0  0
  3  5  2  0  0  0  0
  5  6  1  0  0  0  0
  5  9  1  0  0  0  0
  6  7  2  0  0  0  0
  7  8  1  0  0  0  0
  7 10  1  0  0  0  0
  8  9  2  0  0  0  0
 10 12  1  0  0  0  0
 11 24  2  0  0  0  0
 11 27  1  0  0  0  0
 12 13  2  0  0  0  0
 12 17  1  0  0  0  0
 13 14  1  0  0  0  0
 14 15  2  0  0  0  0
 15 16  1  0  0  0  0
 15 18  1  0  0  0  0
 16 17  2  0  0  0  0
 18 19  2  0  0  0  0
 18 22  1  0  0  0  0
 19 20  1  0  0  0  0
 20 21  1  0  0  0  0
 20 23  1  0  0  0  0
 21 22  2  0  0  0  0
 24 25  1  0  0  0  0
 25 26  1  0  0  0  0
 25 28  1  0  0  0  0
 26 27  2  0  0  0  0
  2 29  1  0  0  0  0
  3 30  1  0  0  0  0
  4 31  1  0  0  0  0
  4 32  1  0  0  0  0
 10 33  1  0  0  0  0
 10 34  1  0  0  0  0
 13 35  1  0  0  0  0
 14 36  1  0  0  0  0
 16 37  1  0  0  0  0
 17 38  1  0  0  0  0
 19 39  1  0  0  0  0
 22 40  1  0  0  0  0
 23 41  1  0  0  0  0
 23 42  1  0  0  0  0
 23 43  1  0  0  0  0
 24 44  1  0  0  0  0
 26 45  1  0  0  0  0
 28 46  1  0  0  0  0
 28 47  1  0  0  0  0
 28 48  1  0  0  0  0
M  END
> <Name>
21

> <IC50[uM]>
0.078

$$$$
21
  -OEChem-05192314333D
 Structure written by MMmdl.
 48 52  0     0  0  0  0  0  0999 V2000
   -6.3865   12.3338  -12.0432 C   0  0  0  0  0  0  0  0  0  0  0  0
   -6.4856   11.7841  -10.7704 C   0  0  0  0  0  0  0  0  0  0  0  0
   -7.7472   10.5643  -13.0426 C   0  0  0  0  0  0  0  0  0  0  0  0
   -7.0167   11.7500  -13.1460 C   0  0  0  0  0  0  0  0  0  0  0  0
   -7.8303   10.0081  -11.7598 C   0  0  0  0  0  0  0  0  0  0  0  0
   -7.2256   10.6149  -10.6156 C   0  0  0  0  0  0  0  0  0  0  0  0
   -7.6010    9.7518   -9.5145 C   0  0  0  0  0  0  0  0  0  0  0  0
   -8.2842    8.7423   -9.9828 N   0  0  0  0  0  0  0  0  0  0  0  0
   -8.4323    8.8733  -11.2925 N   0  0  0  0  0  0  0  0  0  0  0  0
   -7.3270    9.8938   -8.0225 C   0  0  0  0  0  0  0  0  0  0  0  0
   -5.5587   13.5285  -12.2266 C   0  0  0  0  0  0  0  0  0  0  0  0
   -5.9618   10.4909   -7.7327 C   0  0  0  0  0  0  0  0  0  0  0  0
   -5.8582   11.7635   -7.1652 C   0  0  0  0  0  0  0  0  0  0  0  0
   -4.6045   12.3140   -6.9191 C   0  0  0  0  0  0  0  0  0  0  0  0
   -3.4477   11.5945   -7.2362 C   0  0  0  0  0  0  0  0  0  0  0  0
   -3.5614   10.3184   -7.7958 C   0  0  0  0  0  0  0  0  0  0  0  0
   -4.8112    9.7685   -8.0438 C   0  0  0  0  0  0  0  0  0  0  0  0
   -2.1002   12.1716   -6.9783 C   0  0  0  0  0  0  0  0  0  0  0  0
   -1.7494   13.4275   -6.4902 C   0  0  0  0  0  0  0  0  0  0  0  0
   -0.4141   13.4605   -6.4332 N   0  0  0  0  0  0  0  0  0  0  0  0
    0.1744   12.3664   -6.8143 N   0  0  0  0  0  0  0  0  0  0  0  0
   -0.8092   11.5630   -7.1796 C   0  0  0  0  0  0  0  0  0  0  0  0
    0.4176   14.5730   -6.0003 C   0  0  0  0  0  0  0  0  0  0  0  0
   -4.4279   13.9049  -11.5130 C   0  0  0  0  0  0  0  0  0  0  0  0
   -4.0090   15.0294  -12.0677 N   0  0  0  0  0  0  0  0  0  0  0  0
   -4.8449   15.3445  -13.0534 C   0  0  0  0  0  0  0  0  0  0  0  0
   -5.7816   14.4464  -13.2081 N   0  0  0  0  0  0  0  0  0  0  0  0
   -2.9003   15.7800  -11.6435 C   0  0  0  0  0  0  0  0  0  0  0  0
   -5.4627   11.5709  -10.4264 H   0  0  0  0  0  0  0  0  0  0  0  0
   -6.9398   12.5463  -10.1202 H   0  0  0  0  0  0  0  0  0  0  0  0
   -8.2188   10.1047  -13.8986 H   0  0  0  0  0  0  0  0  0  0  0  0
   -6.9360   12.2316  -14.1093 H   0  0  0  0  0  0  0  0  0  0  0  0
   -8.0967   10.5457   -7.5837 H   0  0  0  0  0  0  0  0  0  0  0  0
   -7.3815    8.8981   -7.5582 H   0  0  0  0  0  0  0  0  0  0  0  0
   -6.7506   12.3193   -6.9178 H   0  0  0  0  0  0  0  0  0  0  0  0
   -4.5243   13.2985   -6.4825 H   0  0  0  0  0  0  0  0  0  0  0  0
   -2.6708    9.7569   -8.0367 H   0  0  0  0  0  0  0  0  0  0  0  0
   -4.8921    8.7825   -8.4771 H   0  0  0  0  0  0  0  0  0  0  0  0
   -2.4257   14.2220   -6.2113 H   0  0  0  0  0  0  0  0  0  0  0  0
   -0.6634   10.5708   -7.5804 H   0  0  0  0  0  0  0  0  0  0  0  0
    1.4777   14.2881   -6.0708 H   0  0  0  0  0  0  0  0  0  0  0  0
    0.2286   15.4443   -6.6446 H   0  0  0  0  0  0  0  0  0  0  0  0
    0.1751   14.8281   -4.9581 H   0  0  0  0  0  0  0  0  0  0  0  0
   -3.9826   13.3858  -10.6771 H   0  0  0  0  0  0  0  0  0  0  0  0
   -4.7595   16.2374  -13.6550 H   0  0  0  0  0  0  0  0  0  0  0  0
   -2.7876   16.6646  -12.2876 H   0  0  0  0  0  0  0  0  0  0  0  0
   -3.0519   16.1015  -10.6025 H   0  0  0  0  0  0  0  0  0  0  0  0
   -1.9928   15.1617  -11.7078 H   0  0  0  0  0  0  0  0  0  0  0  0
  1  2  1  0  0  0  0
  1  4  2  0  0  0  0
  1 11  1  0  0  0  0
  2  6  1  0  0  0  0
  3  4  1  0  0  0  0
  3  5  2  0  0  0  0
  5  6  1  0  0  0  0
  5  9  1  0  0  0  0
  6  7  2  0  0  0  0
  7  8  1  0  0  0  0
  7 10  1  0  0  0  0
  8  9  2  0  0  0  0
 10 12  1  0  0  0  0
 11 24  2  0  0  0  0
 11 27  1  0  0  0  0
 12 13  2  0  0  0  0
 12 17  1  0  0  0  0
 13 14  1  0  0  0  0
 14 15  2  0  0  0  0
 15 16  1  0  0  0  0
 15 18  1  0  0  0  0
 16 17  2  0  0  0  0
 18 19  2  0  0  0  0
 18 22  1  0  0  0  0
 19 20  1  0  0  0  0
 20 21  1  0  0  0  0
 20 23  1  0  0  0  0
 21 22  2  0  0  0  0
 24 25  1  0  0  0  0
 25 26  1  0  0  0  0
 25 28  1  0  0  0  0
 26 27  2  0  0  0  0
  2 29  1  0  0  0  0
  2 30  1  0  0  0  0
  3 31  1  0  0  0  0
  4 32  1  0  0  0  0
 10 33  1  0  0  0  0
 10 34  1  0  0  0  0
 13 35  1  0  0  0  0
 14 36  1  0  0  0  0
 16 37  1  0  0  0  0
 17 38  1  0  0  0  0
 19 39  1  0  0  0  0
 22 40  1  0  0  0  0
 23 41  1  0  0  0  0
 23 42  1  0  0  0  0
 23 43  1  0  0  0  0
 24 44  1  0  0  0  0
 26 45  1  0  0  0  0
 28 46  1  0  0  0  0
 28 47  1  0  0  0  0
 28 48  1  0  0  0  0
M  END
> <Name>
21

> <IC50[uM]>
0.078

$$$$
21
  -OEChem-05192314333D
 Structure written by MMmdl.
 48 52  0     1  0  0  0  0  0999 V2000
   -6.3865   12.3338  -12.0432 C   0  0  0  0  0  0  0  0  0  0  0  0
   -6.4856   11.7841  -10.7704 C   0  0  0  0  0  0  0  0  0  0  0  0
   -7.7472   10.5643  -13.0426 C   0  0  0  0  0  0  0  0  0  0  0  0
   -7.0167   11.7500  -13.1460 C   0  0  0  0  0  0  0  0  0  0  0  0
   -7.8303   10.0081  -11.7598 C   0  0  0  0  0  0  0  0  0  0  0  0
   -7.2256   10.6149  -10.6156 C   0  0  3  0  0  0  0  0  0  0  0  0
   -7.6010    9.7518   -9.5145 C   0  0  0  0  0  0  0  0  0  0  0  0
   -8.2842    8.7423   -9.9828 N   0  0  0  0  0  0  0  0  0  0  0  0
   -8.4323    8.8733  -11.2925 N   0  0  0  0  0  0  0  0  0  0  0  0
   -7.3270    9.8938   -8.0225 C   0  0  0  0  0  0  0  0  0  0  0  0
   -5.5587   13.5285  -12.2266 C   0  0  0  0  0  0  0  0  0  0  0  0
   -5.9618   10.4909   -7.7327 C   0  0  0  0  0  0  0  0  0  0  0  0
   -5.8582   11.7635   -7.1652 C   0  0  0  0  0  0  0  0  0  0  0  0
   -4.6045   12.3140   -6.9191 C   0  0  0  0  0  0  0  0  0  0  0  0
   -3.4477   11.5945   -7.2362 C   0  0  0  0  0  0  0  0  0  0  0  0
   -3.5614   10.3184   -7.7958 C   0  0  0  0  0  0  0  0  0  0  0  0
   -4.8112    9.7685   -8.0438 C   0  0  0  0  0  0  0  0  0  0  0  0
   -2.1002   12.1716   -6.9783 C   0  0  0  0  0  0  0  0  0  0  0  0
   -1.7494   13.4275   -6.4902 C   0  0  0  0  0  0  0  0  0  0  0  0
   -0.4141   13.4605   -6.4332 N   0  0  0  0  0  0  0  0  0  0  0  0
    0.1744   12.3664   -6.8143 N   0  0  0  0  0  0  0  0  0  0  0  0
   -0.8092   11.5630   -7.1796 C   0  0  0  0  0  0  0  0  0  0  0  0
    0.4176   14.5730   -6.0003 C   0  0  0  0  0  0  0  0  0  0  0  0
   -4.4279   13.9049  -11.5130 C   0  0  0  0  0  0  0  0  0  0  0  0
   -4.0090   15.0294  -12.0677 N   0  0  0  0  0  0  0  0  0  0  0  0
   -4.8449   15.3445  -13.0534 C   0  0  0  0  0  0  0  0  0  0  0  0
   -5.7816   14.4464  -13.2081 N   0  0  0  0  0  0  0  0  0  0  0  0
   -2.9003   15.7800  -11.6435 C   0  0  0  0  0  0  0  0  0  0  0  0
   -6.0020   12.2509   -9.9250 H   0  0  0  0  0  0  0  0  0  0  0  0
   -8.2188   10.1047  -13.8986 H   0  0  0  0  0  0  0  0  0  0  0  0
   -6.9360   12.2316  -14.1093 H   0  0  0  0  0  0  0  0  0  0  0  0
   -6.3168   10.0165  -10.7767 H   0  0  0  0  0  0  0  0  0  0  0  0
   -8.6414    7.9853   -9.4357 H   0  0  0  0  0  0  0  0  0  0  0  0
   -8.0279    9.6014   -7.2546 H   0  0  0  0  0  0  0  0  0  0  0  0
   -6.7506   12.3193   -6.9178 H   0  0  0  0  0  0  0  0  0  0  0  0
   -4.5243   13.2985   -6.4825 H   0  0  0  0  0  0  0  0  0  0  0  0
   -2.6708    9.7569   -8.0367 H   0  0  0  0  0  0  0  0  0  0  0  0
   -4.8921    8.7825   -8.4771 H   0  0  0  0  0  0  0  0  0  0  0  0
   -2.4257   14.2220   -6.2113 H   0  0  0  0  0  0  0  0  0  0  0  0
   -0.6634   10.5708   -7.5804 H   0  0  0  0  0  0  0  0  0  0  0  0
    1.4777   14.2881   -6.0708 H   0  0  0  0  0  0  0  0  0  0  0  0
    0.2286   15.4443   -6.6446 H   0  0  0  0  0  0  0  0  0  0  0  0
    0.1751   14.8281   -4.9581 H   0  0  0  0  0  0  0  0  0  0  0  0
   -3.9826   13.3858  -10.6771 H   0  0  0  0  0  0  0  0  0  0  0  0
   -4.7595   16.2374  -13.6550 H   0  0  0  0  0  0  0  0  0  0  0  0
   -2.7876   16.6646  -12.2876 H   0  0  0  0  0  0  0  0  0  0  0  0
   -3.0519   16.1015  -10.6025 H   0  0  0  0  0  0  0  0  0  0  0  0
   -1.9928   15.1617  -11.7078 H   0  0  0  0  0  0  0  0  0  0  0  0
  1  2  2  0  0  0  0
  1  4  1  0  0  0  0
  1 11  1  0  0  0  0
  2  6  1  0  0  0  0
  3  4  2  0  0  0  0
  3  5  1  0  0  0  0
  5  6  1  0  0  0  0
  5  9  2  0  0  0  0
  6  7  1  0  0  0  0
  7  8  1  0  0  0  0
  7 10  2  3  0  0  0
  8  9  1  0  0  0  0
 10 12  1  0  0  0  0
 11 24  2  0  0  0  0
 11 27  1  0  0  0  0
 12 13  2  0  0  0  0
 12 17  1  0  0  0  0
 13 14  1  0  0  0  0
 14 15  2  0  0  0  0
 15 16  1  0  0  0  0
 15 18  1  0  0  0  0
 16 17  2  0  0  0  0
 18 19  2  0  0  0  0
 18 22  1  0  0  0  0
 19 20  1  0  0  0  0
 20 21  1  0  0  0  0
 20 23  1  0  0  0  0
 21 22  2  0  0  0  0
 24 25  1  0  0  0  0
 25 26  1  0  0  0  0
 25 28  1  0  0  0  0
 26 27  2  0  0  0  0
  2 29  1  0  0  0  0
  3 30  1  0  0  0  0
  4 31  1  0  0  0  0
  6 32  1  0  0  0  0
  8 33  1  0  0  0  0
 10 34  1  0  0  0  0
 13 35  1  0  0  0  0
 14 36  1  0  0  0  0
 16 37  1  0  0  0  0
 17 38  1  0  0  0  0
 19 39  1  0  0  0  0
 22 40  1  0  0  0  0
 23 41  1  0  0  0  0
 23 42  1  0  0  0  0
 23 43  1  0  0  0  0
 24 44  1  0  0  0  0
 26 45  1  0  0  0  0
 28 46  1  0  0  0  0
 28 47  1  0  0  0  0
 28 48  1  0  0  0  0
M  END
> <Name>
21

> <IC50[uM]>
0.078

$$$$
21
  -OEChem-05192314333D
 Structure written by MMmdl.
 48 52  0     1  0  0  0  0  0999 V2000
   -6.3865   12.3338  -12.0432 C   0  0  0  0  0  0  0  0  0  0  0  0
   -6.4856   11.7841  -10.7704 C   0  0  0  0  0  0  0  0  0  0  0  0
   -7.7472   10.5643  -13.0426 C   0  0  0  0  0  0  0  0  0  0  0  0
   -7.0167   11.7500  -13.1460 C   0  0  0  0  0  0  0  0  0  0  0  0
   -7.8303   10.0081  -11.7598 C   0  0  0  0  0  0  0  0  0  0  0  0
   -7.2256   10.6149  -10.6156 C   0  0  0  0  0  0  0  0  0  0  0  0
   -7.6010    9.7518   -9.5145 C   0  0  0  0  0  0  0  0  0  0  0  0
   -8.2842    8.7423   -9.9828 N   0  0  0  0  0  0  0  0  0  0  0  0
   -8.4323    8.8733  -11.2925 N   0  0  0  0  0  0  0  0  0  0  0  0
   -7.3270    9.8938   -8.0225 C   0  0  0  0  0  0  0  0  0  0  0  0
   -5.5587   13.5285  -12.2266 C   0  0  0  0  0  0  0  0  0  0  0  0
   -5.9618   10.4909   -7.7327 C   0  0  0  0  0  0  0  0  0  0  0  0
   -5.8582   11.7635   -7.1652 C   0  0  0  0  0  0  0  0  0  0  0  0
   -4.6045   12.3140   -6.9191 C   0  0  0  0  0  0  0  0  0  0  0  0
   -3.4477   11.5945   -7.2362 C   0  0  0  0  0  0  0  0  0  0  0  0
   -3.5614   10.3184   -7.7958 C   0  0  0  0  0  0  0  0  0  0  0  0
   -4.8112    9.7685   -8.0438 C   0  0  0  0  0  0  0  0  0  0  0  0
   -2.1002   12.1716   -6.9783 C   0  0  0  0  0  0  0  0  0  0  0  0
   -1.7494   13.4275   -6.4902 C   0  0  0  0  0  0  0  0  0  0  0  0
   -0.4141   13.4605   -6.4332 N   0  0  3  0  0  0  0  0  0  0  0  0
    0.1744   12.3664   -6.8143 N   0  0  0  0  0  0  0  0  0  0  0  0
   -0.8092   11.5630   -7.1796 C   0  0  0  0  0  0  0  0  0  0  0  0
    0.4176   14.5730   -6.0003 C   0  0  0  0  0  0  0  0  0  0  0  0
   -4.4279   13.9049  -11.5130 C   0  0  0  0  0  0  0  0  0  0  0  0
   -4.0090   15.0294  -12.0677 N   0  0  0  0  0  0  0  0  0  0  0  0
   -4.8449   15.3445  -13.0534 C   0  0  0  0  0  0  0  0  0  0  0  0
   -5.7816   14.4464  -13.2081 N   0  0  0  0  0  0  0  0  0  0  0  0
   -2.9003   15.7800  -11.6435 C   0  0  0  0  0  0  0  0  0  0  0  0
   -6.0020   12.2509   -9.9250 H   0  0  0  0  0  0  0  0  0  0  0  0
   -8.2188   10.1047  -13.8986 H   0  0  0  0  0  0  0  0  0  0  0  0
   -6.9360   12.2316  -14.1093 H   0  0  0  0  0  0  0  0  0  0  0  0
   -8.0279    9.6014   -7.2546 H   0  0  0  0  0  0  0  0  0  0  0  0
   -6.7506   12.3193   -6.9178 H   0  0  0  0  0  0  0  0  0  0  0  0
   -4.5243   13.2985   -6.4825 H   0  0  0  0  0  0  0  0  0  0  0  0
   -2.6708    9.7569   -8.0367 H   0  0  0  0  0  0  0  0  0  0  0  0
   -4.8921    8.7825   -8.4771 H   0  0  0  0  0  0  0  0  0  0  0  0
   -2.1191   14.2131   -7.1656 H   0  0  0  0  0  0  0  0  0  0  0  0
   -2.1751   13.5763   -5.4869 H   0  0  0  0  0  0  0  0  0  0  0  0
   -0.6634   10.5708   -7.5804 H   0  0  0  0  0  0  0  0  0  0  0  0
    1.4777   14.2881   -6.0708 H   0  0  0  0  0  0  0  0  0  0  0  0
    0.2286   15.4443   -6.6446 H   0  0  0  0  0  0  0  0  0  0  0  0
    0.1751   14.8281   -4.9581 H   0  0  0  0  0  0  0  0  0  0  0  0
   -4.6802   14.0705  -10.4552 H   0  0  0  0  0  0  0  0  0  0  0  0
   -3.6520   13.1288  -11.5878 H   0  0  0  0  0  0  0  0  0  0  0  0
   -4.7595   16.2374  -13.6550 H   0  0  0  0  0  0  0  0  0  0  0  0
   -2.7876   16.6646  -12.2876 H   0  0  0  0  0  0  0  0  0  0  0  0
   -3.0519   16.1015  -10.6025 H   0  0  0  0  0  0  0  0  0  0  0  0
   -1.9928   15.1617  -11.7078 H   0  0  0  0  0  0  0  0  0  0  0  0
  1  2  1  0  0  0  0
  1  4  1  0  0  0  0
  1 11  2  0  0  0  0
  2  6  2  0  0  0  0
  3  4  2  0  0  0  0
  3  5  1  0  0  0  0
  5  6  1  0  0  0  0
  5  9  2  0  0  0  0
  6  7  1  0  0  0  0
  7  8  2  0  0  0  0
  7 10  1  0  0  0  0
  8  9  1  0  0  0  0
 10 12  2  0  0  0  0
 11 24  1  0  0  0  0
 11 27  1  0  0  0  0
 12 13  1  0  0  0  0
 12 17  1  0  0  0  0
 13 14  2  0  0  0  0
 14 15  1  0  0  0  0
 15 16  1  0  0  0  0
 15 18  2  0  0  0  0
 16 17  2  0  0  0  0
 18 19  1  0  0  0  0
 18 22  1  0  0  0  0
 19 20  1  0  0  0  0
 20 21  1  0  0  0  0
 20 23  1  0  0  0  0
 21 22  2  0  0  0  0
 24 25  1  0  0  0  0
 25 26  1  0  0  0  0
 25 28  1  0  0  0  0
 26 27  2  0  0  0  0
  2 29  1  0  0  0  0
  3 30  1  0  0  0  0
  4 31  1  0  0  0  0
 10 32  1  0  0  0  0
 13 33  1  0  0  0  0
 14 34  1  0  0  0  0
 16 35  1  0  0  0  0
 17 36  1  0  0  0  0
 19 37  1  0  0  0  0
 19 38  1  0  0  0  0
 22 39  1  0  0  0  0
 23 40  1  0  0  0  0
 23 41  1  0  0  0  0
 23 42  1  0  0  0  0
 24 43  1  0  0  0  0
 24 44  1  0  0  0  0
 26 45  1  0  0  0  0
 28 46  1  0  0  0  0
 28 47  1  0  0  0  0
 28 48  1  0  0  0  0
M  END
> <Name>
21

> <IC50[uM]>
0.078

$$$$
21
  -OEChem-05192314333D
 Structure written by MMmdl.
 48 52  0     1  0  0  0  0  0999 V2000
   -6.3865   12.3338  -12.0432 C   0  0  0  0  0  0  0  0  0  0  0  0
   -6.4856   11.7841  -10.7704 C   0  0  0  0  0  0  0  0  0  0  0  0
   -7.7472   10.5643  -13.0426 C   0  0  0  0  0  0  0  0  0  0  0  0
   -7.0167   11.7500  -13.1460 C   0  0  0  0  0  0  0  0  0  0  0  0
   -7.8303   10.0081  -11.7598 C   0  0  0  0  0  0  0  0  0  0  0  0
   -7.2256   10.6149  -10.6156 C   0  0  0  0  0  0  0  0  0  0  0  0
   -7.6010    9.7518   -9.5145 C   0  0  0  0  0  0  0  0  0  0  0  0
   -8.2842    8.7423   -9.9828 N   0  0  0  0  0  0  0  0  0  0  0  0
   -8.4323    8.8733  -11.2925 N   0  0  0  0  0  0  0  0  0  0  0  0
   -7.3270    9.8938   -8.0225 C   0  0  0  0  0  0  0  0  0  0  0  0
   -5.5587   13.5285  -12.2266 C   0  0  0  0  0  0  0  0  0  0  0  0
   -5.9618   10.4909   -7.7327 C   0  0  0  0  0  0  0  0  0  0  0  0
   -5.8582   11.7635   -7.1652 C   0  0  0  0  0  0  0  0  0  0  0  0
   -4.6045   12.3140   -6.9191 C   0  0  0  0  0  0  0  0  0  0  0  0
   -3.4477   11.5945   -7.2362 C   0  0  0  0  0  0  0  0  0  0  0  0
   -3.5614   10.3184   -7.7958 C   0  0  0  0  0  0  0  0  0  0  0  0
   -4.8112    9.7685   -8.0438 C   0  0  0  0  0  0  0  0  0  0  0  0
   -2.1002   12.1716   -6.9783 C   0  0  0  0  0  0  0  0  0  0  0  0
   -1.7494   13.4275   -6.4902 C   0  0  0  0  0  0  0  0  0  0  0  0
   -0.4141   13.4605   -6.4332 N   0  0  3  0  0  0  0  0  0  0  0  0
    0.1744   12.3664   -6.8143 N   0  0  0  0  0  0  0  0  0  0  0  0
   -0.8092   11.5630   -7.1796 C   0  0  0  0  0  0  0  0  0  0  0  0
    0.4176   14.5730   -6.0003 C   0  0  0  0  0  0  0  0  0  0  0  0
   -4.4279   13.9049  -11.5130 C   0  0  0  0  0  0  0  0  0  0  0  0
   -4.0090   15.0294  -12.0677 N   0  0  0  0  0  0  0  0  0  0  0  0
   -4.8449   15.3445  -13.0534 C   0  0  0  0  0  0  0  0  0  0  0  0
   -5.7816   14.4464  -13.2081 N   0  0  0  0  0  0  0  0  0  0  0  0
   -2.9003   15.7800  -11.6435 C   0  0  0  0  0  0  0  0  0  0  0  0
   -6.0020   12.2509   -9.9250 H   0  0  0  0  0  0  0  0  0  0  0  0
   -8.2188   10.1047  -13.8986 H   0  0  0  0  0  0  0  0  0  0  0  0
   -6.9360   12.2316  -14.1093 H   0  0  0  0  0  0  0  0  0  0  0  0
   -8.0279    9.6014   -7.2546 H   0  0  0  0  0  0  0  0  0  0  0  0
   -5.9757   10.0415   -6.7288 H   0  0  0  0  0  0  0  0  0  0  0  0
   -6.7506   12.3193   -6.9178 H   0  0  0  0  0  0  0  0  0  0  0  0
   -4.5243   13.2985   -6.4825 H   0  0  0  0  0  0  0  0  0  0  0  0
   -2.6708    9.7569   -8.0367 H   0  0  0  0  0  0  0  0  0  0  0  0
   -4.8921    8.7825   -8.4771 H   0  0  0  0  0  0  0  0  0  0  0  0
   -2.1191   14.2131   -7.1656 H   0  0  0  0  0  0  0  0  0  0  0  0
   -2.1751   13.5763   -5.4869 H   0  0  0  0  0  0  0  0  0  0  0  0
   -0.6634   10.5708   -7.5804 H   0  0  0  0  0  0  0  0  0  0  0  0
    1.4777   14.2881   -6.0708 H   0  0  0  0  0  0  0  0  0  0  0  0
    0.2286   15.4443   -6.6446 H   0  0  0  0  0  0  0  0  0  0  0  0
    0.1751   14.8281   -4.9581 H   0  0  0  0  0  0  0  0  0  0  0  0
   -3.9826   13.3858  -10.6771 H   0  0  0  0  0  0  0  0  0  0  0  0
   -4.7595   16.2374  -13.6550 H   0  0  0  0  0  0  0  0  0  0  0  0
   -2.7876   16.6646  -12.2876 H   0  0  0  0  0  0  0  0  0  0  0  0
   -3.0519   16.1015  -10.6025 H   0  0  0  0  0  0  0  0  0  0  0  0
   -1.9928   15.1617  -11.7078 H   0  0  0  0  0  0  0  0  0  0  0  0
  1  2  2  0  0  0  0
  1  4  1  0  0  0  0
  1 11  1  0  0  0  0
  2  6  1  0  0  0  0
  3  4  2  0  0  0  0
  3  5  1  0  0  0  0
  5  6  2  0  0  0  0
  5  9  1  0  0  0  0
  6  7  1  0  0  0  0
  7  8  1  0  0  0  0
  7 10  2  3  0  0  0
  8  9  2  0  0  0  0
 10 12  1  0  0  0  0
 11 24  2  0  0  0  0
 11 27  1  0  0  0  0
 12 13  1  0  0  0  0
 12 17  1  0  0  0  0
 13 14  2  0  0  0  0
 14 15  1  0  0  0  0
 15 16  1  0  0  0  0
 15 18  2  0  0  0  0
 16 17  2  0  0  0  0
 18 19  1  0  0  0  0
 18 22  1  0  0  0  0
 19 20  1  0  0  0  0
 20 21  1  0  0  0  0
 20 23  1  0  0  0  0
 21 22  2  0  0  0  0
 24 25  1  0  0  0  0
 25 26  1  0  0  0  0
 25 28  1  0  0  0  0
 26 27  2  0  0  0  0
  2 29  1  0  0  0  0
  3 30  1  0  0  0  0
  4 31  1  0  0  0  0
 10 32  1  0  0  0  0
 12 33  1  0  0  0  0
 13 34  1  0  0  0  0
 14 35  1  0  0  0  0
 16 36  1  0  0  0  0
 17 37  1  0  0  0  0
 19 38  1  0  0  0  0
 19 39  1  0  0  0  0
 22 40  1  0  0  0  0
 23 41  1  0  0  0  0
 23 42  1  0  0  0  0
 23 43  1  0  0  0  0
 24 44  1  0  0  0  0
 26 45  1  0  0  0  0
 28 46  1  0  0  0  0
 28 47  1  0  0  0  0
 28 48  1  0  0  0  0
M  END
> <Name>
21

> <IC50[uM]>
0.078

$$$$
21
  -OEChem-05192314333D
 Structure written by MMmdl.
 48 52  0     1  0  0  0  0  0999 V2000
   -6.3865   12.3338  -12.0432 C   0  0  0  0  0  0  0  0  0  0  0  0
   -6.4856   11.7841  -10.7704 C   0  0  0  0  0  0  0  0  0  0  0  0
   -7.7472   10.5643  -13.0426 C   0  0  0  0  0  0  0  0  0  0  0  0
   -7.0167   11.7500  -13.1460 C   0  0  0  0  0  0  0  0  0  0  0  0
   -7.8303   10.0081  -11.7598 C   0  0  0  0  0  0  0  0  0  0  0  0
   -7.2256   10.6149  -10.6156 C   0  0  0  0  0  0  0  0  0  0  0  0
   -7.6010    9.7518   -9.5145 C   0  0  0  0  0  0  0  0  0  0  0  0
   -8.2842    8.7423   -9.9828 N   0  0  0  0  0  0  0  0  0  0  0  0
   -8.4323    8.8733  -11.2925 N   0  0  0  0  0  0  0  0  0  0  0  0
   -7.3270    9.8938   -8.0225 C   0  0  0  0  0  0  0  0  0  0  0  0
   -5.5587   13.5285  -12.2266 C   0  0  0  0  0  0  0  0  0  0  0  0
   -5.9618   10.4909   -7.7327 C   0  0  0  0  0  0  0  0  0  0  0  0
   -5.8582   11.7635   -7.1652 C   0  0  0  0  0  0  0  0  0  0  0  0
   -4.6045   12.3140   -6.9191 C   0  0  0  0  0  0  0  0  0  0  0  0
   -3.4477   11.5945   -7.2362 C   0  0  0  0  0  0  0  0  0  0  0  0
   -3.5614   10.3184   -7.7958 C   0  0  0  0  0  0  0  0  0  0  0  0
   -4.8112    9.7685   -8.0438 C   0  0  0  0  0  0  0  0  0  0  0  0
   -2.1002   12.1716   -6.9783 C   0  0  0  0  0  0  0  0  0  0  0  0
   -1.7494   13.4275   -6.4902 C   0  0  0  0  0  0  0  0  0  0  0  0
   -0.4141   13.4605   -6.4332 N   0  0  3  0  0  0  0  0  0  0  0  0
    0.1744   12.3664   -6.8143 N   0  0  0  0  0  0  0  0  0  0  0  0
   -0.8092   11.5630   -7.1796 C   0  0  0  0  0  0  0  0  0  0  0  0
    0.4176   14.5730   -6.0003 C   0  0  0  0  0  0  0  0  0  0  0  0
   -4.4279   13.9049  -11.5130 C   0  0  0  0  0  0  0  0  0  0  0  0
   -4.0090   15.0294  -12.0677 N   0  0  0  0  0  0  0  0  0  0  0  0
   -4.8449   15.3445  -13.0534 C   0  0  0  0  0  0  0  0  0  0  0  0
   -5.7816   14.4464  -13.2081 N   0  0  0  0  0  0  0  0  0  0  0  0
   -2.9003   15.7800  -11.6435 C   0  0  0  0  0  0  0  0  0  0  0  0
   -6.0020   12.2509   -9.9250 H   0  0  0  0  0  0  0  0  0  0  0  0
   -8.2188   10.1047  -13.8986 H   0  0  0  0  0  0  0  0  0  0  0  0
   -6.9360   12.2316  -14.1093 H   0  0  0  0  0  0  0  0  0  0  0  0
   -8.0279    9.6014   -7.2546 H   0  0  0  0  0  0  0  0  0  0  0  0
   -6.7506   12.3193   -6.9178 H   0  0  0  0  0  0  0  0  0  0  0  0
   -4.5560   13.2570   -7.4834 H   0  0  0  0  0  0  0  0  0  0  0  0
   -4.5587   12.5289   -5.8413 H   0  0  0  0  0  0  0  0  0  0  0  0
   -2.6708    9.7569   -8.0367 H   0  0  0  0  0  0  0  0  0  0  0  0
   -4.8921    8.7825   -8.4771 H   0  0  0  0  0  0  0  0  0  0  0  0
   -2.1191   14.2131   -7.1656 H   0  0  0  0  0  0  0  0  0  0  0  0
   -2.1751   13.5763   -5.4869 H   0  0  0  0  0  0  0  0  0  0  0  0
   -0.6634   10.5708   -7.5804 H   0  0  0  0  0  0  0  0  0  0  0  0
    1.4777   14.2881   -6.0708 H   0  0  0  0  0  0  0  0  0  0  0  0
    0.2286   15.4443   -6.6446 H   0  0  0  0  0  0  0  0  0  0  0  0
    0.1751   14.8281   -4.9581 H   0  0  0  0  0  0  0  0  0  0  0  0
   -3.9826   13.3858  -10.6771 H   0  0  0  0  0  0  0  0  0  0  0  0
   -4.7595   16.2374  -13.6550 H   0  0  0  0  0  0  0  0  0  0  0  0
   -2.7876   16.6646  -12.2876 H   0  0  0  0  0  0  0  0  0  0  0  0
   -3.0519   16.1015  -10.6025 H   0  0  0  0  0  0  0  0  0  0  0  0
   -1.9928   15.1617  -11.7078 H   0  0  0  0  0  0  0  0  0  0  0  0
  1  2  2  0  0  0  0
  1  4  1  0  0  0  0
  1 11  1  0  0  0  0
  2  6  1  0  0  0  0
  3  4  2  0  0  0  0
  3  5  1  0  0  0  0
  5  6  2  0  0  0  0
  5  9  1  0  0  0  0
  6  7  1  0  0  0  0
  7  8  1  0  0  0  0
  7 10  2  3  0  0  0
  8  9  2  0  0  0  0
 10 12  1  0  0  0  0
 11 24  2  0  0  0  0
 11 27  1  0  0  0  0
 12 13  2  0  0  0  0
 12 17  1  0  0  0  0
 13 14  1  0  0  0  0
 14 15  1  0  0  0  0
 15 16  1  0  0  0  0
 15 18  2  0  0  0  0
 16 17  2  0  0  0  0
 18 19  1  0  0  0  0
 18 22  1  0  0  0  0
 19 20  1  0  0  0  0
 20 21  1  0  0  0  0
 20 23  1  0  0  0  0
 21 22  2  0  0  0  0
 24 25  1  0  0  0  0
 25 26  1  0  0  0  0
 25 28  1  0  0  0  0
 26 27  2  0  0  0  0
  2 29  1  0  0  0  0
  3 30  1  0  0  0  0
  4 31  1  0  0  0  0
 10 32  1  0  0  0  0
 13 33  1  0  0  0  0
 14 34  1  0  0  0  0
 14 35  1  0  0  0  0
 16 36  1  0  0  0  0
 17 37  1  0  0  0  0
 19 38  1  0  0  0  0
 19 39  1  0  0  0  0
 22 40  1  0  0  0  0
 23 41  1  0  0  0  0
 23 42  1  0  0  0  0
 23 43  1  0  0  0  0
 24 44  1  0  0  0  0
 26 45  1  0  0  0  0
 28 46  1  0  0  0  0
 28 47  1  0  0  0  0
 28 48  1  0  0  0  0
M  END
> <Name>
21

> <IC50[uM]>
0.078

$$$$
21
  -OEChem-05192314333D
 Structure written by MMmdl.
 48 52  0     1  0  0  0  0  0999 V2000
   -6.3865   12.3338  -12.0432 C   0  0  0  0  0  0  0  0  0  0  0  0
   -6.4856   11.7841  -10.7704 C   0  0  0  0  0  0  0  0  0  0  0  0
   -7.7472   10.5643  -13.0426 C   0  0  0  0  0  0  0  0  0  0  0  0
   -7.0167   11.7500  -13.1460 C   0  0  0  0  0  0  0  0  0  0  0  0
   -7.8303   10.0081  -11.7598 C   0  0  3  0  0  0  0  0  0  0  0  0
   -7.2256   10.6149  -10.6156 C   0  0  0  0  0  0  0  0  0  0  0  0
   -7.6010    9.7518   -9.5145 C   0  0  0  0  0  0  0  0  0  0  0  0
   -8.2842    8.7423   -9.9828 N   0  0  0  0  0  0  0  0  0  0  0  0
   -8.4323    8.8733  -11.2925 N   0  0  0  0  0  0  0  0  0  0  0  0
   -7.3270    9.8938   -8.0225 C   0  0  0  0  0  0  0  0  0  0  0  0
   -5.5587   13.5285  -12.2266 C   0  0  0  0  0  0  0  0  0  0  0  0
   -5.9618   10.4909   -7.7327 C   0  0  0  0  0  0  0  0  0  0  0  0
   -5.8582   11.7635   -7.1652 C   0  0  0  0  0  0  0  0  0  0  0  0
   -4.6045   12.3140   -6.9191 C   0  0  0  0  0  0  0  0  0  0  0  0
   -3.4477   11.5945   -7.2362 C   0  0  0  0  0  0  0  0  0  0  0  0
   -3.5614   10.3184   -7.7958 C   0  0  0  0  0  0  0  0  0  0  0  0
   -4.8112    9.7685   -8.0438 C   0  0  0  0  0  0  0  0  0  0  0  0
   -2.1002   12.1716   -6.9783 C   0  0  0  0  0  0  0  0  0  0  0  0
   -1.7494   13.4275   -6.4902 C   0  0  0  0  0  0  0  0  0  0  0  0
   -0.4141   13.4605   -6.4332 N   0  0  0  0  0  0  0  0  0  0  0  0
    0.1744   12.3664   -6.8143 N   0  0  0  0  0  0  0  0  0  0  0  0
   -0.8092   11.5630   -7.1796 C   0  0  0  0  0  0  0  0  0  0  0  0
    0.4176   14.5730   -6.0003 C   0  0  0  0  0  0  0  0  0  0  0  0
   -4.4279   13.9049  -11.5130 C   0  0  0  0  0  0  0  0  0  0  0  0
   -4.0090   15.0294  -12.0677 N   0  0  0  0  0  0  0  0  0  0  0  0
   -4.8449   15.3445  -13.0534 C   0  0  0  0  0  0  0  0  0  0  0  0
   -5.7816   14.4464  -13.2081 N   0  0  0  0  0  0  0  0  0  0  0  0
   -2.9003   15.7800  -11.6435 C   0  0  0  0  0  0  0  0  0  0  0  0
   -6.0020   12.2509   -9.9250 H   0  0  0  0  0  0  0  0  0  0  0  0
   -8.2188   10.1047  -13.8986 H   0  0  0  0  0  0  0  0  0  0  0  0
   -6.9360   12.2316  -14.1093 H   0  0  0  0  0  0  0  0  0  0  0  0
   -8.7540   10.5755  -11.5731 H   0  0  0  0  0  0  0  0  0  0  0  0
   -8.0279    9.6014   -7.2546 H   0  0  0  0  0  0  0  0  0  0  0  0
   -6.7506   12.3193   -6.9178 H   0  0  0  0  0  0  0  0  0  0  0  0
   -4.5243   13.2985   -6.4825 H   0  0  0  0  0  0  0  0  0  0  0  0
   -2.6708    9.7569   -8.0367 H   0  0  0  0  0  0  0  0  0  0  0  0
   -4.8921    8.7825   -8.4771 H   0  0  0  0  0  0  0  0  0  0  0  0
   -2.4257   14.2220   -6.2113 H   0  0  0  0  0  0  0  0  0  0  0  0
   -0.6634   10.5708   -7.5804 H   0  0  0  0  0  0  0  0  0  0  0  0
    1.4777   14.2881   -6.0708 H   0  0  0  0  0  0  0  0  0  0  0  0
    0.2286   15.4443   -6.6446 H   0  0  0  0  0  0  0  0  0  0  0  0
    0.1751   14.8281   -4.9581 H   0  0  0  0  0  0  0  0  0  0  0  0
   -4.6802   14.0705  -10.4552 H   0  0  0  0  0  0  0  0  0  0  0  0
   -3.6520   13.1288  -11.5878 H   0  0  0  0  0  0  0  0  0  0  0  0
   -4.7595   16.2374  -13.6550 H   0  0  0  0  0  0  0  0  0  0  0  0
   -2.7876   16.6646  -12.2876 H   0  0  0  0  0  0  0  0  0  0  0  0
   -3.0519   16.1015  -10.6025 H   0  0  0  0  0  0  0  0  0  0  0  0
   -1.9928   15.1617  -11.7078 H   0  0  0  0  0  0  0  0  0  0  0  0
  1  2  1  0  0  0  0
  1  4  1  0  0  0  0
  1 11  2  0  0  0  0
  2  6  2  0  0  0  0
  3  4  2  0  0  0  0
  3  5  1  0  0  0  0
  5  6  1  0  0  0  0
  5  9  1  0  0  0  0
  6  7  1  0  0  0  0
  7  8  1  0  0  0  0
  7 10  2  3  0  0  0
  8  9  2  0  0  0  0
 10 12  1  0  0  0  0
 11 24  1  0  0  0  0
 11 27  1  0  0  0  0
 12 13  2  0  0  0  0
 12 17  1  0  0  0  0
 13 14  1  0  0  0  0
 14 15  2  0  0  0  0
 15 16  1  0  0  0  0
 15 18  1  0  0  0  0
 16 17  2  0  0  0  0
 18 19  2  0  0  0  0
 18 22  1  0  0  0  0
 19 20  1  0  0  0  0
 20 21  1  0  0  0  0
 20 23  1  0  0  0  0
 21 22  2  0  0  0  0
 24 25  1  0  0  0  0
 25 26  1  0  0  0  0
 25 28  1  0  0  0  0
 26 27  2  0  0  0  0
  2 29  1  0  0  0  0
  3 30  1  0  0  0  0
  4 31  1  0  0  0  0
  5 32  1  0  0  0  0
 10 33  1  0  0  0  0
 13 34  1  0  0  0  0
 14 35  1  0  0  0  0
 16 36  1  0  0  0  0
 17 37  1  0  0  0  0
 19 38  1  0  0  0  0
 22 39  1  0  0  0  0
 23 40  1  0  0  0  0
 23 41  1  0  0  0  0
 23 42  1  0  0  0  0
 24 43  1  0  0  0  0
 24 44  1  0  0  0  0
 26 45  1  0  0  0  0
 28 46  1  0  0  0  0
 28 47  1  0  0  0  0
 28 48  1  0  0  0  0
M  END
> <Name>
21

> <IC50[uM]>
0.078

$$$$
21
  -OEChem-05192314333D
 Structure written by MMmdl.
 48 52  0     0  0  0  0  0  0999 V2000
   -6.3865   12.3338  -12.0432 C   0  0  0  0  0  0  0  0  0  0  0  0
   -6.4856   11.7841  -10.7704 C   0  0  0  0  0  0  0  0  0  0  0  0
   -7.7472   10.5643  -13.0426 C   0  0  0  0  0  0  0  0  0  0  0  0
   -7.0167   11.7500  -13.1460 C   0  0  0  0  0  0  0  0  0  0  0  0
   -7.8303   10.0081  -11.7598 C   0  0  0  0  0  0  0  0  0  0  0  0
   -7.2256   10.6149  -10.6156 C   0  0  0  0  0  0  0  0  0  0  0  0
   -7.6010    9.7518   -9.5145 C   0  0  0  0  0  0  0  0  0  0  0  0
   -8.2842    8.7423   -9.9828 N   0  0  0  0  0  0  0  0  0  0  0  0
   -8.4323    8.8733  -11.2925 N   0  0  0  0  0  0  0  0  0  0  0  0
   -7.3270    9.8938   -8.0225 C   0  0  0  0  0  0  0  0  0  0  0  0
   -5.5587   13.5285  -12.2266 C   0  0  0  0  0  0  0  0  0  0  0  0
   -5.9618   10.4909   -7.7327 C   0  0  0  0  0  0  0  0  0  0  0  0
   -5.8582   11.7635   -7.1652 C   0  0  0  0  0  0  0  0  0  0  0  0
   -4.6045   12.3140   -6.9191 C   0  0  0  0  0  0  0  0  0  0  0  0
   -3.4477   11.5945   -7.2362 C   0  0  0  0  0  0  0  0  0  0  0  0
   -3.5614   10.3184   -7.7958 C   0  0  0  0  0  0  0  0  0  0  0  0
   -4.8112    9.7685   -8.0438 C   0  0  0  0  0  0  0  0  0  0  0  0
   -2.1002   12.1716   -6.9783 C   0  0  0  0  0  0  0  0  0  0  0  0
   -1.7494   13.4275   -6.4902 C   0  0  0  0  0  0  0  0  0  0  0  0
   -0.4141   13.4605   -6.4332 N   0  0  0  0  0  0  0  0  0  0  0  0
    0.1744   12.3664   -6.8143 N   0  0  0  0  0  0  0  0  0  0  0  0
   -0.8092   11.5630   -7.1796 C   0  0  0  0  0  0  0  0  0  0  0  0
    0.4176   14.5730   -6.0003 C   0  0  0  0  0  0  0  0  0  0  0  0
   -4.4279   13.9049  -11.5130 C   0  0  0  0  0  0  0  0  0  0  0  0
   -4.0090   15.0294  -12.0677 N   0  0  0  0  0  0  0  0  0  0  0  0
   -4.8449   15.3445  -13.0534 C   0  0  0  0  0  0  0  0  0  0  0  0
   -5.7816   14.4464  -13.2081 N   0  0  0  0  0  0  0  0  0  0  0  0
   -2.9003   15.7800  -11.6435 C   0  0  0  0  0  0  0  0  0  0  0  0
   -6.0020   12.2509   -9.9250 H   0  0  0  0  0  0  0  0  0  0  0  0
   -8.2188   10.1047  -13.8986 H   0  0  0  0  0  0  0  0  0  0  0  0
   -7.7125   12.5063  -13.5382 H   0  0  0  0  0  0  0  0  0  0  0  0
   -6.2260   11.5601  -13.8867 H   0  0  0  0  0  0  0  0  0  0  0  0
   -8.0279    9.6014   -7.2546 H   0  0  0  0  0  0  0  0  0  0  0  0
   -6.7506   12.3193   -6.9178 H   0  0  0  0  0  0  0  0  0  0  0  0
   -4.5243   13.2985   -6.4825 H   0  0  0  0  0  0  0  0  0  0  0  0
   -2.6708    9.7569   -8.0367 H   0  0  0  0  0  0  0  0  0  0  0  0
   -4.8921    8.7825   -8.4771 H   0  0  0  0  0  0  0  0  0  0  0  0
   -2.4257   14.2220   -6.2113 H   0  0  0  0  0  0  0  0  0  0  0  0
   -0.6634   10.5708   -7.5804 H   0  0  0  0  0  0  0  0  0  0  0  0
    1.4777   14.2881   -6.0708 H   0  0  0  0  0  0  0  0  0  0  0  0
    0.2286   15.4443   -6.6446 H   0  0  0  0  0  0  0  0  0  0  0  0
    0.1751   14.8281   -4.9581 H   0  0  0  0  0  0  0  0  0  0  0  0
   -4.6802   14.0705  -10.4552 H   0  0  0  0  0  0  0  0  0  0  0  0
   -3.6520   13.1288  -11.5878 H   0  0  0  0  0  0  0  0  0  0  0  0
   -4.7595   16.2374  -13.6550 H   0  0  0  0  0  0  0  0  0  0  0  0
   -2.7876   16.6646  -12.2876 H   0  0  0  0  0  0  0  0  0  0  0  0
   -3.0519   16.1015  -10.6025 H   0  0  0  0  0  0  0  0  0  0  0  0
   -1.9928   15.1617  -11.7078 H   0  0  0  0  0  0  0  0  0  0  0  0
  1  2  1  0  0  0  0
  1  4  1  0  0  0  0
  1 11  2  0  0  0  0
  2  6  2  0  0  0  0
  3  4  1  0  0  0  0
  3  5  2  0  0  0  0
  5  6  1  0  0  0  0
  5  9  1  0  0  0  0
  6  7  1  0  0  0  0
  7  8  1  0  0  0  0
  7 10  2  3  0  0  0
  8  9  2  0  0  0  0
 10 12  1  0  0  0  0
 11 24  1  0  0  0  0
 11 27  1  0  0  0  0
 12 13  2  0  0  0  0
 12 17  1  0  0  0  0
 13 14  1  0  0  0  0
 14 15  2  0  0  0  0
 15 16  1  0  0  0  0
 15 18  1  0  0  0  0
 16 17  2  0  0  0  0
 18 19  2  0  0  0  0
 18 22  1  0  0  0  0
 19 20  1  0  0  0  0
 20 21  1  0  0  0  0
 20 23  1  0  0  0  0
 21 22  2  0  0  0  0
 24 25  1  0  0  0  0
 25 26  1  0  0  0  0
 25 28  1  0  0  0  0
 26 27  2  0  0  0  0
  2 29  1  0  0  0  0
  3 30  1  0  0  0  0
  4 31  1  0  0  0  0
  4 32  1  0  0  0  0
 10 33  1  0  0  0  0
 13 34  1  0  0  0  0
 14 35  1  0  0  0  0
 16 36  1  0  0  0  0
 17 37  1  0  0  0  0
 19 38  1  0  0  0  0
 22 39  1  0  0  0  0
 23 40  1  0  0  0  0
 23 41  1  0  0  0  0
 23 42  1  0  0  0  0
 24 43  1  0  0  0  0
 24 44  1  0  0  0  0
 26 45  1  0  0  0  0
 28 46  1  0  0  0  0
 28 47  1  0  0  0  0
 28 48  1  0  0  0  0
M  END
> <Name>
21

> <IC50[uM]>
0.078

$$$$
21
  -OEChem-05192314333D
 Structure written by MMmdl.
 48 52  0     0  0  0  0  0  0999 V2000
   -6.3865   12.3338  -12.0432 C   0  0  0  0  0  0  0  0  0  0  0  0
   -6.4856   11.7841  -10.7704 C   0  0  0  0  0  0  0  0  0  0  0  0
   -7.7472   10.5643  -13.0426 C   0  0  0  0  0  0  0  0  0  0  0  0
   -7.0167   11.7500  -13.1460 C   0  0  0  0  0  0  0  0  0  0  0  0
   -7.8303   10.0081  -11.7598 C   0  0  0  0  0  0  0  0  0  0  0  0
   -7.2256   10.6149  -10.6156 C   0  0  0  0  0  0  0  0  0  0  0  0
   -7.6010    9.7518   -9.5145 C   0  0  0  0  0  0  0  0  0  0  0  0
   -8.2842    8.7423   -9.9828 N   0  0  0  0  0  0  0  0  0  0  0  0
   -8.4323    8.8733  -11.2925 N   0  0  0  0  0  0  0  0  0  0  0  0
   -7.3270    9.8938   -8.0225 C   0  0  0  0  0  0  0  0  0  0  0  0
   -5.5587   13.5285  -12.2266 C   0  0  0  0  0  0  0  0  0  0  0  0
   -5.9618   10.4909   -7.7327 C   0  0  0  0  0  0  0  0  0  0  0  0
   -5.8582   11.7635   -7.1652 C   0  0  0  0  0  0  0  0  0  0  0  0
   -4.6045   12.3140   -6.9191 C   0  0  0  0  0  0  0  0  0  0  0  0
   -3.4477   11.5945   -7.2362 C   0  0  0  0  0  0  0  0  0  0  0  0
   -3.5614   10.3184   -7.7958 C   0  0  0  0  0  0  0  0  0  0  0  0
   -4.8112    9.7685   -8.0438 C   0  0  0  0  0  0  0  0  0  0  0  0
   -2.1002   12.1716   -6.9783 C   0  0  0  0  0  0  0  0  0  0  0  0
   -1.7494   13.4275   -6.4902 C   0  0  0  0  0  0  0  0  0  0  0  0
   -0.4141   13.4605   -6.4332 N   0  0  0  0  0  0  0  0  0  0  0  0
    0.1744   12.3664   -6.8143 N   0  0  0  0  0  0  0  0  0  0  0  0
   -0.8092   11.5630   -7.1796 C   0  0  0  0  0  0  0  0  0  0  0  0
    0.4176   14.5730   -6.0003 C   0  0  0  0  0  0  0  0  0  0  0  0
   -4.4279   13.9049  -11.5130 C   0  0  0  0  0  0  0  0  0  0  0  0
   -4.0090   15.0294  -12.0677 N   0  0  0  0  0  0  0  0  0  0  0  0
   -4.8449   15.3445  -13.0534 C   0  0  0  0  0  0  0  0  0  0  0  0
   -5.7816   14.4464  -13.2081 N   0  0  0  0  0  0  0  0  0  0  0  0
   -2.9003   15.7800  -11.6435 C   0  0  0  0  0  0  0  0  0  0  0  0
   -5.4627   11.5709  -10.4264 H   0  0  0  0  0  0  0  0  0  0  0  0
   -6.9398   12.5463  -10.1202 H   0  0  0  0  0  0  0  0  0  0  0  0
   -8.2188   10.1047  -13.8986 H   0  0  0  0  0  0  0  0  0  0  0  0
   -6.9360   12.2316  -14.1093 H   0  0  0  0  0  0  0  0  0  0  0  0
   -8.0279    9.6014   -7.2546 H   0  0  0  0  0  0  0  0  0  0  0  0
   -6.7506   12.3193   -6.9178 H   0  0  0  0  0  0  0  0  0  0  0  0
   -4.5243   13.2985   -6.4825 H   0  0  0  0  0  0  0  0  0  0  0  0
   -2.6708    9.7569   -8.0367 H   0  0  0  0  0  0  0  0  0  0  0  0
   -4.8921    8.7825   -8.4771 H   0  0  0  0  0  0  0  0  0  0  0  0
   -2.4257   14.2220   -6.2113 H   0  0  0  0  0  0  0  0  0  0  0  0
   -0.6634   10.5708   -7.5804 H   0  0  0  0  0  0  0  0  0  0  0  0
    1.4777   14.2881   -6.0708 H   0  0  0  0  0  0  0  0  0  0  0  0
    0.2286   15.4443   -6.6446 H   0  0  0  0  0  0  0  0  0  0  0  0
    0.1751   14.8281   -4.9581 H   0  0  0  0  0  0  0  0  0  0  0  0
   -4.6802   14.0705  -10.4552 H   0  0  0  0  0  0  0  0  0  0  0  0
   -3.6520   13.1288  -11.5878 H   0  0  0  0  0  0  0  0  0  0  0  0
   -4.7595   16.2374  -13.6550 H   0  0  0  0  0  0  0  0  0  0  0  0
   -2.7876   16.6646  -12.2876 H   0  0  0  0  0  0  0  0  0  0  0  0
   -3.0519   16.1015  -10.6025 H   0  0  0  0  0  0  0  0  0  0  0  0
   -1.9928   15.1617  -11.7078 H   0  0  0  0  0  0  0  0  0  0  0  0
  1  2  1  0  0  0  0
  1  4  1  0  0  0  0
  1 11  2  0  0  0  0
  2  6  1  0  0  0  0
  3  4  2  0  0  0  0
  3  5  1  0  0  0  0
  5  6  2  0  0  0  0
  5  9  1  0  0  0  0
  6  7  1  0  0  0  0
  7  8  1  0  0  0  0
  7 10  2  3  0  0  0
  8  9  2  0  0  0  0
 10 12  1  0  0  0  0
 11 24  1  0  0  0  0
 11 27  1  0  0  0  0
 12 13  2  0  0  0  0
 12 17  1  0  0  0  0
 13 14  1  0  0  0  0
 14 15  2  0  0  0  0
 15 16  1  0  0  0  0
 15 18  1  0  0  0  0
 16 17  2  0  0  0  0
 18 19  2  0  0  0  0
 18 22  1  0  0  0  0
 19 20  1  0  0  0  0
 20 21  1  0  0  0  0
 20 23  1  0  0  0  0
 21 22  2  0  0  0  0
 24 25  1  0  0  0  0
 25 26  1  0  0  0  0
 25 28  1  0  0  0  0
 26 27  2  0  0  0  0
  2 29  1  0  0  0  0
  2 30  1  0  0  0  0
  3 31  1  0  0  0  0
  4 32  1  0  0  0  0
 10 33  1  0  0  0  0
 13 34  1  0  0  0  0
 14 35  1  0  0  0  0
 16 36  1  0  0  0  0
 17 37  1  0  0  0  0
 19 38  1  0  0  0  0
 22 39  1  0  0  0  0
 23 40  1  0  0  0  0
 23 41  1  0  0  0  0
 23 42  1  0  0  0  0
 24 43  1  0  0  0  0
 24 44  1  0  0  0  0
 26 45  1  0  0  0  0
 28 46  1  0  0  0  0
 28 47  1  0  0  0  0
 28 48  1  0  0  0  0
M  END
> <Name>
21

> <IC50[uM]>
0.078

$$$$
21
  -OEChem-05192314333D
 Structure written by MMmdl.
 48 52  0     1  0  0  0  0  0999 V2000
   -6.3865   12.3338  -12.0432 C   0  0  3  0  0  0  0  0  0  0  0  0
   -6.4856   11.7841  -10.7704 C   0  0  0  0  0  0  0  0  0  0  0  0
   -7.7472   10.5643  -13.0426 C   0  0  0  0  0  0  0  0  0  0  0  0
   -7.0167   11.7500  -13.1460 C   0  0  0  0  0  0  0  0  0  0  0  0
   -7.8303   10.0081  -11.7598 C   0  0  0  0  0  0  0  0  0  0  0  0
   -7.2256   10.6149  -10.6156 C   0  0  0  0  0  0  0  0  0  0  0  0
   -7.6010    9.7518   -9.5145 C   0  0  0  0  0  0  0  0  0  0  0  0
   -8.2842    8.7423   -9.9828 N   0  0  0  0  0  0  0  0  0  0  0  0
   -8.4323    8.8733  -11.2925 N   0  0  0  0  0  0  0  0  0  0  0  0
   -7.3270    9.8938   -8.0225 C   0  0  0  0  0  0  0  0  0  0  0  0
   -5.5587   13.5285  -12.2266 C   0  0  0  0  0  0  0  0  0  0  0  0
   -5.9618   10.4909   -7.7327 C   0  0  0  0  0  0  0  0  0  0  0  0
   -5.8582   11.7635   -7.1652 C   0  0  0  0  0  0  0  0  0  0  0  0
   -4.6045   12.3140   -6.9191 C   0  0  0  0  0  0  0  0  0  0  0  0
   -3.4477   11.5945   -7.2362 C   0  0  0  0  0  0  0  0  0  0  0  0
   -3.5614   10.3184   -7.7958 C   0  0  0  0  0  0  0  0  0  0  0  0
   -4.8112    9.7685   -8.0438 C   0  0  0  0  0  0  0  0  0  0  0  0
   -2.1002   12.1716   -6.9783 C   0  0  0  0  0  0  0  0  0  0  0  0
   -1.7494   13.4275   -6.4902 C   0  0  0  0  0  0  0  0  0  0  0  0
   -0.4141   13.4605   -6.4332 N   0  0  3  0  0  0  0  0  0  0  0  0
    0.1744   12.3664   -6.8143 N   0  0  0  0  0  0  0  0  0  0  0  0
   -0.8092   11.5630   -7.1796 C   0  0  0  0  0  0  0  0  0  0  0  0
    0.4176   14.5730   -6.0003 C   0  0  0  0  0  0  0  0  0  0  0  0
   -4.4279   13.9049  -11.5130 C   0  0  0  0  0  0  0  0  0  0  0  0
   -4.0090   15.0294  -12.0677 N   0  0  0  0  0  0  0  0  0  0  0  0
   -4.8449   15.3445  -13.0534 C   0  0  0  0  0  0  0  0  0  0  0  0
   -5.7816   14.4464  -13.2081 N   0  0  0  0  0  0  0  0  0  0  0  0
   -2.9003   15.7800  -11.6435 C   0  0  0  0  0  0  0  0  0  0  0  0
   -7.2704   12.9609  -11.8546 H   0  0  0  0  0  0  0  0  0  0  0  0
   -6.0020   12.2509   -9.9250 H   0  0  0  0  0  0  0  0  0  0  0  0
   -8.2188   10.1047  -13.8986 H   0  0  0  0  0  0  0  0  0  0  0  0
   -6.9360   12.2316  -14.1093 H   0  0  0  0  0  0  0  0  0  0  0  0
   -8.0279    9.6014   -7.2546 H   0  0  0  0  0  0  0  0  0  0  0  0
   -6.7506   12.3193   -6.9178 H   0  0  0  0  0  0  0  0  0  0  0  0
   -4.5243   13.2985   -6.4825 H   0  0  0  0  0  0  0  0  0  0  0  0
   -2.6708    9.7569   -8.0367 H   0  0  0  0  0  0  0  0  0  0  0  0
   -4.8921    8.7825   -8.4771 H   0  0  0  0  0  0  0  0  0  0  0  0
   -2.1191   14.2131   -7.1656 H   0  0  0  0  0  0  0  0  0  0  0  0
   -2.1751   13.5763   -5.4869 H   0  0  0  0  0  0  0  0  0  0  0  0
   -0.6634   10.5708   -7.5804 H   0  0  0  0  0  0  0  0  0  0  0  0
    1.4777   14.2881   -6.0708 H   0  0  0  0  0  0  0  0  0  0  0  0
    0.2286   15.4443   -6.6446 H   0  0  0  0  0  0  0  0  0  0  0  0
    0.1751   14.8281   -4.9581 H   0  0  0  0  0  0  0  0  0  0  0  0
   -3.9826   13.3858  -10.6771 H   0  0  0  0  0  0  0  0  0  0  0  0
   -4.7595   16.2374  -13.6550 H   0  0  0  0  0  0  0  0  0  0  0  0
   -2.7876   16.6646  -12.2876 H   0  0  0  0  0  0  0  0  0  0  0  0
   -3.0519   16.1015  -10.6025 H   0  0  0  0  0  0  0  0  0  0  0  0
   -1.9928   15.1617  -11.7078 H   0  0  0  0  0  0  0  0  0  0  0  0
  1  2  1  0  0  0  0
  1  4  1  0  0  0  0
  1 11  1  0  0  0  0
  2  6  2  0  0  0  0
  3  4  2  0  0  0  0
  3  5  1  0  0  0  0
  5  6  1  0  0  0  0
  5  9  2  0  0  0  0
  6  7  1  0  0  0  0
  7  8  2  0  0  0  0
  7 10  1  0  0  0  0
  8  9  1  0  0  0  0
 10 12  2  0  0  0  0
 11 24  2  0  0  0  0
 11 27  1  0  0  0  0
 12 13  1  0  0  0  0
 12 17  1  0  0  0  0
 13 14  2  0  0  0  0
 14 15  1  0  0  0  0
 15 16  1  0  0  0  0
 15 18  2  0  0  0  0
 16 17  2  0  0  0  0
 18 19  1  0  0  0  0
 18 22  1  0  0  0  0
 19 20  1  0  0  0  0
 20 21  1  0  0  0  0
 20 23  1  0  0  0  0
 21 22  2  0  0  0  0
 24 25  1  0  0  0  0
 25 26  1  0  0  0  0
 25 28  1  0  0  0  0
 26 27  2  0  0  0  0
  1 29  1  0  0  0  0
  2 30  1  0  0  0  0
  3 31  1  0  0  0  0
  4 32  1  0  0  0  0
 10 33  1  0  0  0  0
 13 34  1  0  0  0  0
 14 35  1  0  0  0  0
 16 36  1  0  0  0  0
 17 37  1  0  0  0  0
 19 38  1  0  0  0  0
 19 39  1  0  0  0  0
 22 40  1  0  0  0  0
 23 41  1  0  0  0  0
 23 42  1  0  0  0  0
 23 43  1  0  0  0  0
 24 44  1  0  0  0  0
 26 45  1  0  0  0  0
 28 46  1  0  0  0  0
 28 47  1  0  0  0  0
 28 48  1  0  0  0  0
M  END
> <Name>
21

> <IC50[uM]>
0.078

$$$$
21
  -OEChem-05192314333D
 Structure written by MMmdl.
 48 52  0     1  0  0  0  0  0999 V2000
   -6.3865   12.3338  -12.0432 C   0  0  0  0  0  0  0  0  0  0  0  0
   -6.4856   11.7841  -10.7704 C   0  0  0  0  0  0  0  0  0  0  0  0
   -7.7472   10.5643  -13.0426 C   0  0  0  0  0  0  0  0  0  0  0  0
   -7.0167   11.7500  -13.1460 C   0  0  0  0  0  0  0  0  0  0  0  0
   -7.8303   10.0081  -11.7598 C   0  0  0  0  0  0  0  0  0  0  0  0
   -7.2256   10.6149  -10.6156 C   0  0  3  0  0  0  0  0  0  0  0  0
   -7.6010    9.7518   -9.5145 C   0  0  0  0  0  0  0  0  0  0  0  0
   -8.2842    8.7423   -9.9828 N   0  0  0  0  0  0  0  0  0  0  0  0
   -8.4323    8.8733  -11.2925 N   0  0  0  0  0  0  0  0  0  0  0  0
   -7.3270    9.8938   -8.0225 C   0  0  0  0  0  0  0  0  0  0  0  0
   -5.5587   13.5285  -12.2266 C   0  0  0  0  0  0  0  0  0  0  0  0
   -5.9618   10.4909   -7.7327 C   0  0  0  0  0  0  0  0  0  0  0  0
   -5.8582   11.7635   -7.1652 C   0  0  0  0  0  0  0  0  0  0  0  0
   -4.6045   12.3140   -6.9191 C   0  0  0  0  0  0  0  0  0  0  0  0
   -3.4477   11.5945   -7.2362 C   0  0  0  0  0  0  0  0  0  0  0  0
   -3.5614   10.3184   -7.7958 C   0  0  0  0  0  0  0  0  0  0  0  0
   -4.8112    9.7685   -8.0438 C   0  0  0  0  0  0  0  0  0  0  0  0
   -2.1002   12.1716   -6.9783 C   0  0  0  0  0  0  0  0  0  0  0  0
   -1.7494   13.4275   -6.4902 C   0  0  0  0  0  0  0  0  0  0  0  0
   -0.4141   13.4605   -6.4332 N   0  0  3  0  0  0  0  0  0  0  0  0
    0.1744   12.3664   -6.8143 N   0  0  0  0  0  0  0  0  0  0  0  0
   -0.8092   11.5630   -7.1796 C   0  0  0  0  0  0  0  0  0  0  0  0
    0.4176   14.5730   -6.0003 C   0  0  0  0  0  0  0  0  0  0  0  0
   -4.4279   13.9049  -11.5130 C   0  0  0  0  0  0  0  0  0  0  0  0
   -4.0090   15.0294  -12.0677 N   0  0  0  0  0  0  0  0  0  0  0  0
   -4.8449   15.3445  -13.0534 C   0  0  0  0  0  0  0  0  0  0  0  0
   -5.7816   14.4464  -13.2081 N   0  0  0  0  0  0  0  0  0  0  0  0
   -2.9003   15.7800  -11.6435 C   0  0  0  0  0  0  0  0  0  0  0  0
   -6.0020   12.2509   -9.9250 H   0  0  0  0  0  0  0  0  0  0  0  0
   -8.2188   10.1047  -13.8986 H   0  0  0  0  0  0  0  0  0  0  0  0
   -6.9360   12.2316  -14.1093 H   0  0  0  0  0  0  0  0  0  0  0  0
   -6.3168   10.0165  -10.7767 H   0  0  0  0  0  0  0  0  0  0  0  0
   -8.0279    9.6014   -7.2546 H   0  0  0  0  0  0  0  0  0  0  0  0
   -6.7506   12.3193   -6.9178 H   0  0  0  0  0  0  0  0  0  0  0  0
   -4.5243   13.2985   -6.4825 H   0  0  0  0  0  0  0  0  0  0  0  0
   -2.6708    9.7569   -8.0367 H   0  0  0  0  0  0  0  0  0  0  0  0
   -4.8921    8.7825   -8.4771 H   0  0  0  0  0  0  0  0  0  0  0  0
   -2.1191   14.2131   -7.1656 H   0  0  0  0  0  0  0  0  0  0  0  0
   -2.1751   13.5763   -5.4869 H   0  0  0  0  0  0  0  0  0  0  0  0
   -0.6634   10.5708   -7.5804 H   0  0  0  0  0  0  0  0  0  0  0  0
    1.4777   14.2881   -6.0708 H   0  0  0  0  0  0  0  0  0  0  0  0
    0.2286   15.4443   -6.6446 H   0  0  0  0  0  0  0  0  0  0  0  0
    0.1751   14.8281   -4.9581 H   0  0  0  0  0  0  0  0  0  0  0  0
   -3.9826   13.3858  -10.6771 H   0  0  0  0  0  0  0  0  0  0  0  0
   -4.7595   16.2374  -13.6550 H   0  0  0  0  0  0  0  0  0  0  0  0
   -2.7876   16.6646  -12.2876 H   0  0  0  0  0  0  0  0  0  0  0  0
   -3.0519   16.1015  -10.6025 H   0  0  0  0  0  0  0  0  0  0  0  0
   -1.9928   15.1617  -11.7078 H   0  0  0  0  0  0  0  0  0  0  0  0
  1  2  2  0  0  0  0
  1  4  1  0  0  0  0
  1 11  1  0  0  0  0
  2  6  1  0  0  0  0
  3  4  2  0  0  0  0
  3  5  1  0  0  0  0
  5  6  1  0  0  0  0
  5  9  2  0  0  0  0
  6  7  1  0  0  0  0
  7  8  2  0  0  0  0
  7 10  1  0  0  0  0
  8  9  1  0  0  0  0
 10 12  2  0  0  0  0
 11 24  2  0  0  0  0
 11 27  1  0  0  0  0
 12 13  1  0  0  0  0
 12 17  1  0  0  0  0
 13 14  2  0  0  0  0
 14 15  1  0  0  0  0
 15 16  1  0  0  0  0
 15 18  2  0  0  0  0
 16 17  2  0  0  0  0
 18 19  1  0  0  0  0
 18 22  1  0  0  0  0
 19 20  1  0  0  0  0
 20 21  1  0  0  0  0
 20 23  1  0  0  0  0
 21 22  2  0  0  0  0
 24 25  1  0  0  0  0
 25 26  1  0  0  0  0
 25 28  1  0  0  0  0
 26 27  2  0  0  0  0
  2 29  1  0  0  0  0
  3 30  1  0  0  0  0
  4 31  1  0  0  0  0
  6 32  1  0  0  0  0
 10 33  1  0  0  0  0
 13 34  1  0  0  0  0
 14 35  1  0  0  0  0
 16 36  1  0  0  0  0
 17 37  1  0  0  0  0
 19 38  1  0  0  0  0
 19 39  1  0  0  0  0
 22 40  1  0  0  0  0
 23 41  1  0  0  0  0
 23 42  1  0  0  0  0
 23 43  1  0  0  0  0
 24 44  1  0  0  0  0
 26 45  1  0  0  0  0
 28 46  1  0  0  0  0
 28 47  1  0  0  0  0
 28 48  1  0  0  0  0
M  END
> <Name>
21

> <IC50[uM]>
0.078

$$$$
21
  -OEChem-05192314333D
 Structure written by MMmdl.
 48 52  0     1  0  0  0  0  0999 V2000
   -6.3865   12.3338  -12.0432 C   0  0  0  0  0  0  0  0  0  0  0  0
   -6.4856   11.7841  -10.7704 C   0  0  0  0  0  0  0  0  0  0  0  0
   -7.7472   10.5643  -13.0426 C   0  0  0  0  0  0  0  0  0  0  0  0
   -7.0167   11.7500  -13.1460 C   0  0  0  0  0  0  0  0  0  0  0  0
   -7.8303   10.0081  -11.7598 C   0  0  0  0  0  0  0  0  0  0  0  0
   -7.2256   10.6149  -10.6156 C   0  0  0  0  0  0  0  0  0  0  0  0
   -7.6010    9.7518   -9.5145 C   0  0  0  0  0  0  0  0  0  0  0  0
   -8.2842    8.7423   -9.9828 N   0  0  0  0  0  0  0  0  0  0  0  0
   -8.4323    8.8733  -11.2925 N   0  0  0  0  0  0  0  0  0  0  0  0
   -7.3270    9.8938   -8.0225 C   0  0  0  0  0  0  0  0  0  0  0  0
   -5.5587   13.5285  -12.2266 C   0  0  0  0  0  0  0  0  0  0  0  0
   -5.9618   10.4909   -7.7327 C   0  0  0  0  0  0  0  0  0  0  0  0
   -5.8582   11.7635   -7.1652 C   0  0  0  0  0  0  0  0  0  0  0  0
   -4.6045   12.3140   -6.9191 C   0  0  0  0  0  0  0  0  0  0  0  0
   -3.4477   11.5945   -7.2362 C   0  0  0  0  0  0  0  0  0  0  0  0
   -3.5614   10.3184   -7.7958 C   0  0  0  0  0  0  0  0  0  0  0  0
   -4.8112    9.7685   -8.0438 C   0  0  0  0  0  0  0  0  0  0  0  0
   -2.1002   12.1716   -6.9783 C   0  0  0  0  0  0  0  0  0  0  0  0
   -1.7494   13.4275   -6.4902 C   0  0  0  0  0  0  0  0  0  0  0  0
   -0.4141   13.4605   -6.4332 N   0  0  3  0  0  0  0  0  0  0  0  0
    0.1744   12.3664   -6.8143 N   0  0  0  0  0  0  0  0  0  0  0  0
   -0.8092   11.5630   -7.1796 C   0  0  0  0  0  0  0  0  0  0  0  0
    0.4176   14.5730   -6.0003 C   0  0  0  0  0  0  0  0  0  0  0  0
   -4.4279   13.9049  -11.5130 C   0  0  0  0  0  0  0  0  0  0  0  0
   -4.0090   15.0294  -12.0677 N   0  0  0  0  0  0  0  0  0  0  0  0
   -4.8449   15.3445  -13.0534 C   0  0  0  0  0  0  0  0  0  0  0  0
   -5.7816   14.4464  -13.2081 N   0  0  0  0  0  0  0  0  0  0  0  0
   -2.9003   15.7800  -11.6435 C   0  0  0  0  0  0  0  0  0  0  0  0
   -6.0020   12.2509   -9.9250 H   0  0  0  0  0  0  0  0  0  0  0  0
   -8.7712   10.7678  -13.3889 H   0  0  0  0  0  0  0  0  0  0  0  0
   -7.2778    9.8203  -13.7030 H   0  0  0  0  0  0  0  0  0  0  0  0
   -6.9360   12.2316  -14.1093 H   0  0  0  0  0  0  0  0  0  0  0  0
   -8.0279    9.6014   -7.2546 H   0  0  0  0  0  0  0  0  0  0  0  0
   -6.7506   12.3193   -6.9178 H   0  0  0  0  0  0  0  0  0  0  0  0
   -4.5243   13.2985   -6.4825 H   0  0  0  0  0  0  0  0  0  0  0  0
   -2.6708    9.7569   -8.0367 H   0  0  0  0  0  0  0  0  0  0  0  0
   -4.8921    8.7825   -8.4771 H   0  0  0  0  0  0  0  0  0  0  0  0
   -2.1191   14.2131   -7.1656 H   0  0  0  0  0  0  0  0  0  0  0  0
   -2.1751   13.5763   -5.4869 H   0  0  0  0  0  0  0  0  0  0  0  0
   -0.6634   10.5708   -7.5804 H   0  0  0  0  0  0  0  0  0  0  0  0
    1.4777   14.2881   -6.0708 H   0  0  0  0  0  0  0  0  0  0  0  0
    0.2286   15.4443   -6.6446 H   0  0  0  0  0  0  0  0  0  0  0  0
    0.1751   14.8281   -4.9581 H   0  0  0  0  0  0  0  0  0  0  0  0
   -3.9826   13.3858  -10.6771 H   0  0  0  0  0  0  0  0  0  0  0  0
   -4.7595   16.2374  -13.6550 H   0  0  0  0  0  0  0  0  0  0  0  0
   -2.7876   16.6646  -12.2876 H   0  0  0  0  0  0  0  0  0  0  0  0
   -3.0519   16.1015  -10.6025 H   0  0  0  0  0  0  0  0  0  0  0  0
   -1.9928   15.1617  -11.7078 H   0  0  0  0  0  0  0  0  0  0  0  0
  1  2  1  0  0  0  0
  1  4  2  0  0  0  0
  1 11  1  0  0  0  0
  2  6  2  0  0  0  0
  3  4  1  0  0  0  0
  3  5  1  0  0  0  0
  5  6  1  0  0  0  0
  5  9  2  0  0  0  0
  6  7  1  0  0  0  0
  7  8  2  0  0  0  0
  7 10  1  0  0  0  0
  8  9  1  0  0  0  0
 10 12  2  0  0  0  0
 11 24  2  0  0  0  0
 11 27  1  0  0  0  0
 12 13  1  0  0  0  0
 12 17  1  0  0  0  0
 13 14  2  0  0  0  0
 14 15  1  0  0  0  0
 15 16  1  0  0  0  0
 15 18  2  0  0  0  0
 16 17  2  0  0  0  0
 18 19  1  0  0  0  0
 18 22  1  0  0  0  0
 19 20  1  0  0  0  0
 20 21  1  0  0  0  0
 20 23  1  0  0  0  0
 21 22  2  0  0  0  0
 24 25  1  0  0  0  0
 25 26  1  0  0  0  0
 25 28  1  0  0  0  0
 26 27  2  0  0  0  0
  2 29  1  0  0  0  0
  3 30  1  0  0  0  0
  3 31  1  0  0  0  0
  4 32  1  0  0  0  0
 10 33  1  0  0  0  0
 13 34  1  0  0  0  0
 14 35  1  0  0  0  0
 16 36  1  0  0  0  0
 17 37  1  0  0  0  0
 19 38  1  0  0  0  0
 19 39  1  0  0  0  0
 22 40  1  0  0  0  0
 23 41  1  0  0  0  0
 23 42  1  0  0  0  0
 23 43  1  0  0  0  0
 24 44  1  0  0  0  0
 26 45  1  0  0  0  0
 28 46  1  0  0  0  0
 28 47  1  0  0  0  0
 28 48  1  0  0  0  0
M  END
> <Name>
21

> <IC50[uM]>
0.078

$$$$
21
  -OEChem-05192314333D
 Structure written by MMmdl.
 48 52  0     0  0  0  0  0  0999 V2000
   -6.3865   12.3338  -12.0432 C   0  0  0  0  0  0  0  0  0  0  0  0
   -6.4856   11.7841  -10.7704 C   0  0  0  0  0  0  0  0  0  0  0  0
   -7.7472   10.5643  -13.0426 C   0  0  0  0  0  0  0  0  0  0  0  0
   -7.0167   11.7500  -13.1460 C   0  0  0  0  0  0  0  0  0  0  0  0
   -7.8303   10.0081  -11.7598 C   0  0  0  0  0  0  0  0  0  0  0  0
   -7.2256   10.6149  -10.6156 C   0  0  0  0  0  0  0  0  0  0  0  0
   -7.6010    9.7518   -9.5145 C   0  0  0  0  0  0  0  0  0  0  0  0
   -8.2842    8.7423   -9.9828 N   0  0  0  0  0  0  0  0  0  0  0  0
   -8.4323    8.8733  -11.2925 N   0  0  0  0  0  0  0  0  0  0  0  0
   -7.3270    9.8938   -8.0225 C   0  0  0  0  0  0  0  0  0  0  0  0
   -5.5587   13.5285  -12.2266 C   0  0  0  0  0  0  0  0  0  0  0  0
   -5.9618   10.4909   -7.7327 C   0  0  0  0  0  0  0  0  0  0  0  0
   -5.8582   11.7635   -7.1652 C   0  0  0  0  0  0  0  0  0  0  0  0
   -4.6045   12.3140   -6.9191 C   0  0  0  0  0  0  0  0  0  0  0  0
   -3.4477   11.5945   -7.2362 C   0  0  0  0  0  0  0  0  0  0  0  0
   -3.5614   10.3184   -7.7958 C   0  0  0  0  0  0  0  0  0  0  0  0
   -4.8112    9.7685   -8.0438 C   0  0  0  0  0  0  0  0  0  0  0  0
   -2.1002   12.1716   -6.9783 C   0  0  0  0  0  0  0  0  0  0  0  0
   -1.7494   13.4275   -6.4902 C   0  0  0  0  0  0  0  0  0  0  0  0
   -0.4141   13.4605   -6.4332 N   0  0  0  0  0  0  0  0  0  0  0  0
    0.1744   12.3664   -6.8143 N   0  0  0  0  0  0  0  0  0  0  0  0
   -0.8092   11.5630   -7.1796 C   0  0  0  0  0  0  0  0  0  0  0  0
    0.4176   14.5730   -6.0003 C   0  0  0  0  0  0  0  0  0  0  0  0
   -4.4279   13.9049  -11.5130 C   0  0  0  0  0  0  0  0  0  0  0  0
   -4.0090   15.0294  -12.0677 N   0  0  0  0  0  0  0  0  0  0  0  0
   -4.8449   15.3445  -13.0534 C   0  0  0  0  0  0  0  0  0  0  0  0
   -5.7816   14.4464  -13.2081 N   0  0  0  0  0  0  0  0  0  0  0  0
   -2.9003   15.7800  -11.6435 C   0  0  0  0  0  0  0  0  0  0  0  0
   -6.0020   12.2509   -9.9250 H   0  0  0  0  0  0  0  0  0  0  0  0
   -8.2188   10.1047  -13.8986 H   0  0  0  0  0  0  0  0  0  0  0  0
   -6.9360   12.2316  -14.1093 H   0  0  0  0  0  0  0  0  0  0  0  0
   -8.0279    9.6014   -7.2546 H   0  0  0  0  0  0  0  0  0  0  0  0
   -6.7506   12.3193   -6.9178 H   0  0  0  0  0  0  0  0  0  0  0  0
   -4.5243   13.2985   -6.4825 H   0  0  0  0  0  0  0  0  0  0  0  0
   -3.4463   12.0375   -8.2430 H   0  0  0  0  0  0  0  0  0  0  0  0
   -2.6708    9.7569   -8.0367 H   0  0  0  0  0  0  0  0  0  0  0  0
   -4.8921    8.7825   -8.4771 H   0  0  0  0  0  0  0  0  0  0  0  0
   -2.4257   14.2220   -6.2113 H   0  0  0  0  0  0  0  0  0  0  0  0
   -0.6634   10.5708   -7.5804 H   0  0  0  0  0  0  0  0  0  0  0  0
    1.4777   14.2881   -6.0708 H   0  0  0  0  0  0  0  0  0  0  0  0
    0.2286   15.4443   -6.6446 H   0  0  0  0  0  0  0  0  0  0  0  0
    0.1751   14.8281   -4.9581 H   0  0  0  0  0  0  0  0  0  0  0  0
   -4.6802   14.0705  -10.4552 H   0  0  0  0  0  0  0  0  0  0  0  0
   -3.6520   13.1288  -11.5878 H   0  0  0  0  0  0  0  0  0  0  0  0
   -4.7595   16.2374  -13.6550 H   0  0  0  0  0  0  0  0  0  0  0  0
   -2.7876   16.6646  -12.2876 H   0  0  0  0  0  0  0  0  0  0  0  0
   -3.0519   16.1015  -10.6025 H   0  0  0  0  0  0  0  0  0  0  0  0
   -1.9928   15.1617  -11.7078 H   0  0  0  0  0  0  0  0  0  0  0  0
  1  2  1  0  0  0  0
  1  4  1  0  0  0  0
  1 11  2  0  0  0  0
  2  6  2  0  0  0  0
  3  4  2  0  0  0  0
  3  5  1  0  0  0  0
  5  6  1  0  0  0  0
  5  9  2  0  0  0  0
  6  7  1  0  0  0  0
  7  8  2  0  0  0  0
  7 10  1  0  0  0  0
  8  9  1  0  0  0  0
 10 12  2  0  0  0  0
 11 24  1  0  0  0  0
 11 27  1  0  0  0  0
 12 13  1  0  0  0  0
 12 17  1  0  0  0  0
 13 14  2  0  0  0  0
 14 15  1  0  0  0  0
 15 16  1  0  0  0  0
 15 18  1  0  0  0  0
 16 17  2  0  0  0  0
 18 19  2  0  0  0  0
 18 22  1  0  0  0  0
 19 20  1  0  0  0  0
 20 21  1  0  0  0  0
 20 23  1  0  0  0  0
 21 22  2  0  0  0  0
 24 25  1  0  0  0  0
 25 26  1  0  0  0  0
 25 28  1  0  0  0  0
 26 27  2  0  0  0  0
  2 29  1  0  0  0  0
  3 30  1  0  0  0  0
  4 31  1  0  0  0  0
 10 32  1  0  0  0  0
 13 33  1  0  0  0  0
 14 34  1  0  0  0  0
 15 35  1  0  0  0  0
 16 36  1  0  0  0  0
 17 37  1  0  0  0  0
 19 38  1  0  0  0  0
 22 39  1  0  0  0  0
 23 40  1  0  0  0  0
 23 41  1  0  0  0  0
 23 42  1  0  0  0  0
 24 43  1  0  0  0  0
 24 44  1  0  0  0  0
 26 45  1  0  0  0  0
 28 46  1  0  0  0  0
 28 47  1  0  0  0  0
 28 48  1  0  0  0  0
M  END
> <Name>
21

> <IC50[uM]>
0.078

$$$$
21
  -OEChem-05192314333D
 Structure written by MMmdl.
 48 52  0     0  0  0  0  0  0999 V2000
   -6.3865   12.3338  -12.0432 C   0  0  0  0  0  0  0  0  0  0  0  0
   -6.4856   11.7841  -10.7704 C   0  0  0  0  0  0  0  0  0  0  0  0
   -7.7472   10.5643  -13.0426 C   0  0  0  0  0  0  0  0  0  0  0  0
   -7.0167   11.7500  -13.1460 C   0  0  0  0  0  0  0  0  0  0  0  0
   -7.8303   10.0081  -11.7598 C   0  0  0  0  0  0  0  0  0  0  0  0
   -7.2256   10.6149  -10.6156 C   0  0  0  0  0  0  0  0  0  0  0  0
   -7.6010    9.7518   -9.5145 C   0  0  0  0  0  0  0  0  0  0  0  0
   -8.2842    8.7423   -9.9828 N   0  0  0  0  0  0  0  0  0  0  0  0
   -8.4323    8.8733  -11.2925 N   0  0  0  0  0  0  0  0  0  0  0  0
   -7.3270    9.8938   -8.0225 C   0  0  0  0  0  0  0  0  0  0  0  0
   -5.5587   13.5285  -12.2266 C   0  0  0  0  0  0  0  0  0  0  0  0
   -5.9618   10.4909   -7.7327 C   0  0  0  0  0  0  0  0  0  0  0  0
   -5.8582   11.7635   -7.1652 C   0  0  0  0  0  0  0  0  0  0  0  0
   -4.6045   12.3140   -6.9191 C   0  0  0  0  0  0  0  0  0  0  0  0
   -3.4477   11.5945   -7.2362 C   0  0  0  0  0  0  0  0  0  0  0  0
   -3.5614   10.3184   -7.7958 C   0  0  0  0  0  0  0  0  0  0  0  0
   -4.8112    9.7685   -8.0438 C   0  0  0  0  0  0  0  0  0  0  0  0
   -2.1002   12.1716   -6.9783 C   0  0  0  0  0  0  0  0  0  0  0  0
   -1.7494   13.4275   -6.4902 C   0  0  0  0  0  0  0  0  0  0  0  0
   -0.4141   13.4605   -6.4332 N   0  0  0  0  0  0  0  0  0  0  0  0
    0.1744   12.3664   -6.8143 N   0  0  0  0  0  0  0  0  0  0  0  0
   -0.8092   11.5630   -7.1796 C   0  0  0  0  0  0  0  0  0  0  0  0
    0.4176   14.5730   -6.0003 C   0  0  0  0  0  0  0  0  0  0  0  0
   -4.4279   13.9049  -11.5130 C   0  0  0  0  0  0  0  0  0  0  0  0
   -4.0090   15.0294  -12.0677 N   0  0  0  0  0  0  0  0  0  0  0  0
   -4.8449   15.3445  -13.0534 C   0  0  0  0  0  0  0  0  0  0  0  0
   -5.7816   14.4464  -13.2081 N   0  0  0  0  0  0  0  0  0  0  0  0
   -2.9003   15.7800  -11.6435 C   0  0  0  0  0  0  0  0  0  0  0  0
   -6.0020   12.2509   -9.9250 H   0  0  0  0  0  0  0  0  0  0  0  0
   -8.2188   10.1047  -13.8986 H   0  0  0  0  0  0  0  0  0  0  0  0
   -6.9360   12.2316  -14.1093 H   0  0  0  0  0  0  0  0  0  0  0  0
   -8.0279    9.6014   -7.2546 H   0  0  0  0  0  0  0  0  0  0  0  0
   -6.7506   12.3193   -6.9178 H   0  0  0  0  0  0  0  0  0  0  0  0
   -4.5243   13.2985   -6.4825 H   0  0  0  0  0  0  0  0  0  0  0  0
   -2.6708    9.7569   -8.0367 H   0  0  0  0  0  0  0  0  0  0  0  0
   -4.8631    8.8277   -7.4762 H   0  0  0  0  0  0  0  0  0  0  0  0
   -4.8544    9.5498   -9.1210 H   0  0  0  0  0  0  0  0  0  0  0  0
   -2.4257   14.2220   -6.2113 H   0  0  0  0  0  0  0  0  0  0  0  0
   -0.6634   10.5708   -7.5804 H   0  0  0  0  0  0  0  0  0  0  0  0
    1.4777   14.2881   -6.0708 H   0  0  0  0  0  0  0  0  0  0  0  0
    0.2286   15.4443   -6.6446 H   0  0  0  0  0  0  0  0  0  0  0  0
    0.1751   14.8281   -4.9581 H   0  0  0  0  0  0  0  0  0  0  0  0
   -4.6802   14.0705  -10.4552 H   0  0  0  0  0  0  0  0  0  0  0  0
   -3.6520   13.1288  -11.5878 H   0  0  0  0  0  0  0  0  0  0  0  0
   -4.7595   16.2374  -13.6550 H   0  0  0  0  0  0  0  0  0  0  0  0
   -2.7876   16.6646  -12.2876 H   0  0  0  0  0  0  0  0  0  0  0  0
   -3.0519   16.1015  -10.6025 H   0  0  0  0  0  0  0  0  0  0  0  0
   -1.9928   15.1617  -11.7078 H   0  0  0  0  0  0  0  0  0  0  0  0
  1  2  1  0  0  0  0
  1  4  1  0  0  0  0
  1 11  2  0  0  0  0
  2  6  2  0  0  0  0
  3  4  2  0  0  0  0
  3  5  1  0  0  0  0
  5  6  1  0  0  0  0
  5  9  2  0  0  0  0
  6  7  1  0  0  0  0
  7  8  2  0  0  0  0
  7 10  1  0  0  0  0
  8  9  1  0  0  0  0
 10 12  2  3  0  0  0
 11 24  1  0  0  0  0
 11 27  1  0  0  0  0
 12 13  1  0  0  0  0
 12 17  1  0  0  0  0
 13 14  2  0  0  0  0
 14 15  1  0  0  0  0
 15 16  2  0  0  0  0
 15 18  1  0  0  0  0
 16 17  1  0  0  0  0
 18 19  2  0  0  0  0
 18 22  1  0  0  0  0
 19 20  1  0  0  0  0
 20 21  1  0  0  0  0
 20 23  1  0  0  0  0
 21 22  2  0  0  0  0
 24 25  1  0  0  0  0
 25 26  1  0  0  0  0
 25 28  1  0  0  0  0
 26 27  2  0  0  0  0
  2 29  1  0  0  0  0
  3 30  1  0  0  0  0
  4 31  1  0  0  0  0
 10 32  1  0  0  0  0
 13 33  1  0  0  0  0
 14 34  1  0  0  0  0
 16 35  1  0  0  0  0
 17 36  1  0  0  0  0
 17 37  1  0  0  0  0
 19 38  1  0  0  0  0
 22 39  1  0  0  0  0
 23 40  1  0  0  0  0
 23 41  1  0  0  0  0
 23 42  1  0  0  0  0
 24 43  1  0  0  0  0
 24 44  1  0  0  0  0
 26 45  1  0  0  0  0
 28 46  1  0  0  0  0
 28 47  1  0  0  0  0
 28 48  1  0  0  0  0
M  END
> <Name>
21

> <IC50[uM]>
0.078

$$$$
21
  -OEChem-05192314333D
 Structure written by MMmdl.
 48 52  0     1  0  0  0  0  0999 V2000
   -6.3865   12.3338  -12.0432 C   0  0  0  0  0  0  0  0  0  0  0  0
   -6.4856   11.7841  -10.7704 C   0  0  0  0  0  0  0  0  0  0  0  0
   -7.7472   10.5643  -13.0426 C   0  0  0  0  0  0  0  0  0  0  0  0
   -7.0167   11.7500  -13.1460 C   0  0  0  0  0  0  0  0  0  0  0  0
   -7.8303   10.0081  -11.7598 C   0  0  3  0  0  0  0  0  0  0  0  0
   -7.2256   10.6149  -10.6156 C   0  0  0  0  0  0  0  0  0  0  0  0
   -7.6010    9.7518   -9.5145 C   0  0  0  0  0  0  0  0  0  0  0  0
   -8.2842    8.7423   -9.9828 N   0  0  0  0  0  0  0  0  0  0  0  0
   -8.4323    8.8733  -11.2925 N   0  0  0  0  0  0  0  0  0  0  0  0
   -7.3270    9.8938   -8.0225 C   0  0  0  0  0  0  0  0  0  0  0  0
   -5.5587   13.5285  -12.2266 C   0  0  0  0  0  0  0  0  0  0  0  0
   -5.9618   10.4909   -7.7327 C   0  0  0  0  0  0  0  0  0  0  0  0
   -5.8582   11.7635   -7.1652 C   0  0  0  0  0  0  0  0  0  0  0  0
   -4.6045   12.3140   -6.9191 C   0  0  0  0  0  0  0  0  0  0  0  0
   -3.4477   11.5945   -7.2362 C   0  0  0  0  0  0  0  0  0  0  0  0
   -3.5614   10.3184   -7.7958 C   0  0  0  0  0  0  0  0  0  0  0  0
   -4.8112    9.7685   -8.0438 C   0  0  0  0  0  0  0  0  0  0  0  0
   -2.1002   12.1716   -6.9783 C   0  0  0  0  0  0  0  0  0  0  0  0
   -1.7494   13.4275   -6.4902 C   0  0  0  0  0  0  0  0  0  0  0  0
   -0.4141   13.4605   -6.4332 N   0  0  3  0  0  0  0  0  0  0  0  0
    0.1744   12.3664   -6.8143 N   0  0  0  0  0  0  0  0  0  0  0  0
   -0.8092   11.5630   -7.1796 C   0  0  0  0  0  0  0  0  0  0  0  0
    0.4176   14.5730   -6.0003 C   0  0  0  0  0  0  0  0  0  0  0  0
   -4.4279   13.9049  -11.5130 C   0  0  0  0  0  0  0  0  0  0  0  0
   -4.0090   15.0294  -12.0677 N   0  0  0  0  0  0  0  0  0  0  0  0
   -4.8449   15.3445  -13.0534 C   0  0  0  0  0  0  0  0  0  0  0  0
   -5.7816   14.4464  -13.2081 N   0  0  0  0  0  0  0  0  0  0  0  0
   -2.9003   15.7800  -11.6435 C   0  0  0  0  0  0  0  0  0  0  0  0
   -6.0020   12.2509   -9.9250 H   0  0  0  0  0  0  0  0  0  0  0  0
   -8.2188   10.1047  -13.8986 H   0  0  0  0  0  0  0  0  0  0  0  0
   -6.9360   12.2316  -14.1093 H   0  0  0  0  0  0  0  0  0  0  0  0
   -8.7540   10.5755  -11.5731 H   0  0  0  0  0  0  0  0  0  0  0  0
   -8.0279    9.6014   -7.2546 H   0  0  0  0  0  0  0  0  0  0  0  0
   -6.7506   12.3193   -6.9178 H   0  0  0  0  0  0  0  0  0  0  0  0
   -4.5243   13.2985   -6.4825 H   0  0  0  0  0  0  0  0  0  0  0  0
   -2.6708    9.7569   -8.0367 H   0  0  0  0  0  0  0  0  0  0  0  0
   -4.8921    8.7825   -8.4771 H   0  0  0  0  0  0  0  0  0  0  0  0
   -2.1191   14.2131   -7.1656 H   0  0  0  0  0  0  0  0  0  0  0  0
   -2.1751   13.5763   -5.4869 H   0  0  0  0  0  0  0  0  0  0  0  0
   -0.6634   10.5708   -7.5804 H   0  0  0  0  0  0  0  0  0  0  0  0
    1.4777   14.2881   -6.0708 H   0  0  0  0  0  0  0  0  0  0  0  0
    0.2286   15.4443   -6.6446 H   0  0  0  0  0  0  0  0  0  0  0  0
    0.1751   14.8281   -4.9581 H   0  0  0  0  0  0  0  0  0  0  0  0
   -3.9826   13.3858  -10.6771 H   0  0  0  0  0  0  0  0  0  0  0  0
   -4.7595   16.2374  -13.6550 H   0  0  0  0  0  0  0  0  0  0  0  0
   -2.7876   16.6646  -12.2876 H   0  0  0  0  0  0  0  0  0  0  0  0
   -3.0519   16.1015  -10.6025 H   0  0  0  0  0  0  0  0  0  0  0  0
   -1.9928   15.1617  -11.7078 H   0  0  0  0  0  0  0  0  0  0  0  0
  1  2  2  0  0  0  0
  1  4  1  0  0  0  0
  1 11  1  0  0  0  0
  2  6  1  0  0  0  0
  3  4  2  0  0  0  0
  3  5  1  0  0  0  0
  5  6  1  0  0  0  0
  5  9  1  0  0  0  0
  6  7  2  0  0  0  0
  7  8  1  0  0  0  0
  7 10  1  0  0  0  0
  8  9  2  0  0  0  0
 10 12  2  0  0  0  0
 11 24  2  0  0  0  0
 11 27  1  0  0  0  0
 12 13  1  0  0  0  0
 12 17  1  0  0  0  0
 13 14  2  0  0  0  0
 14 15  1  0  0  0  0
 15 16  1  0  0  0  0
 15 18  2  0  0  0  0
 16 17  2  0  0  0  0
 18 19  1  0  0  0  0
 18 22  1  0  0  0  0
 19 20  1  0  0  0  0
 20 21  1  0  0  0  0
 20 23  1  0  0  0  0
 21 22  2  0  0  0  0
 24 25  1  0  0  0  0
 25 26  1  0  0  0  0
 25 28  1  0  0  0  0
 26 27  2  0  0  0  0
  2 29  1  0  0  0  0
  3 30  1  0  0  0  0
  4 31  1  0  0  0  0
  5 32  1  0  0  0  0
 10 33  1  0  0  0  0
 13 34  1  0  0  0  0
 14 35  1  0  0  0  0
 16 36  1  0  0  0  0
 17 37  1  0  0  0  0
 19 38  1  0  0  0  0
 19 39  1  0  0  0  0
 22 40  1  0  0  0  0
 23 41  1  0  0  0  0
 23 42  1  0  0  0  0
 23 43  1  0  0  0  0
 24 44  1  0  0  0  0
 26 45  1  0  0  0  0
 28 46  1  0  0  0  0
 28 47  1  0  0  0  0
 28 48  1  0  0  0  0
M  END
> <Name>
21

> <IC50[uM]>
0.078

$$$$
21
  -OEChem-05192314333D
 Structure written by MMmdl.
 48 52  0     1  0  0  0  0  0999 V2000
   -6.3865   12.3338  -12.0432 C   0  0  0  0  0  0  0  0  0  0  0  0
   -6.4856   11.7841  -10.7704 C   0  0  0  0  0  0  0  0  0  0  0  0
   -7.7472   10.5643  -13.0426 C   0  0  0  0  0  0  0  0  0  0  0  0
   -7.0167   11.7500  -13.1460 C   0  0  0  0  0  0  0  0  0  0  0  0
   -7.8303   10.0081  -11.7598 C   0  0  0  0  0  0  0  0  0  0  0  0
   -7.2256   10.6149  -10.6156 C   0  0  0  0  0  0  0  0  0  0  0  0
   -7.6010    9.7518   -9.5145 C   0  0  0  0  0  0  0  0  0  0  0  0
   -8.2842    8.7423   -9.9828 N   0  0  0  0  0  0  0  0  0  0  0  0
   -8.4323    8.8733  -11.2925 N   0  0  0  0  0  0  0  0  0  0  0  0
   -7.3270    9.8938   -8.0225 C   0  0  0  0  0  0  0  0  0  0  0  0
   -5.5587   13.5285  -12.2266 C   0  0  0  0  0  0  0  0  0  0  0  0
   -5.9618   10.4909   -7.7327 C   0  0  0  0  0  0  0  0  0  0  0  0
   -5.8582   11.7635   -7.1652 C   0  0  0  0  0  0  0  0  0  0  0  0
   -4.6045   12.3140   -6.9191 C   0  0  0  0  0  0  0  0  0  0  0  0
   -3.4477   11.5945   -7.2362 C   0  0  0  0  0  0  0  0  0  0  0  0
   -3.5614   10.3184   -7.7958 C   0  0  0  0  0  0  0  0  0  0  0  0
   -4.8112    9.7685   -8.0438 C   0  0  0  0  0  0  0  0  0  0  0  0
   -2.1002   12.1716   -6.9783 C   0  0  0  0  0  0  0  0  0  0  0  0
   -1.7494   13.4275   -6.4902 C   0  0  0  0  0  0  0  0  0  0  0  0
   -0.4141   13.4605   -6.4332 N   0  0  3  0  0  0  0  0  0  0  0  0
    0.1744   12.3664   -6.8143 N   0  0  0  0  0  0  0  0  0  0  0  0
   -0.8092   11.5630   -7.1796 C   0  0  0  0  0  0  0  0  0  0  0  0
    0.4176   14.5730   -6.0003 C   0  0  0  0  0  0  0  0  0  0  0  0
   -4.4279   13.9049  -11.5130 C   0  0  0  0  0  0  0  0  0  0  0  0
   -4.0090   15.0294  -12.0677 N   0  0  0  0  0  0  0  0  0  0  0  0
   -4.8449   15.3445  -13.0534 C   0  0  0  0  0  0  0  0  0  0  0  0
   -5.7816   14.4464  -13.2081 N   0  0  0  0  0  0  0  0  0  0  0  0
   -2.9003   15.7800  -11.6435 C   0  0  0  0  0  0  0  0  0  0  0  0
   -6.0020   12.2509   -9.9250 H   0  0  0  0  0  0  0  0  0  0  0  0
   -8.2188   10.1047  -13.8986 H   0  0  0  0  0  0  0  0  0  0  0  0
   -7.7125   12.5063  -13.5382 H   0  0  0  0  0  0  0  0  0  0  0  0
   -6.2260   11.5601  -13.8867 H   0  0  0  0  0  0  0  0  0  0  0  0
   -8.0279    9.6014   -7.2546 H   0  0  0  0  0  0  0  0  0  0  0  0
   -6.7506   12.3193   -6.9178 H   0  0  0  0  0  0  0  0  0  0  0  0
   -4.5243   13.2985   -6.4825 H   0  0  0  0  0  0  0  0  0  0  0  0
   -2.6708    9.7569   -8.0367 H   0  0  0  0  0  0  0  0  0  0  0  0
   -4.8921    8.7825   -8.4771 H   0  0  0  0  0  0  0  0  0  0  0  0
   -2.1191   14.2131   -7.1656 H   0  0  0  0  0  0  0  0  0  0  0  0
   -2.1751   13.5763   -5.4869 H   0  0  0  0  0  0  0  0  0  0  0  0
   -0.6634   10.5708   -7.5804 H   0  0  0  0  0  0  0  0  0  0  0  0
    1.4777   14.2881   -6.0708 H   0  0  0  0  0  0  0  0  0  0  0  0
    0.2286   15.4443   -6.6446 H   0  0  0  0  0  0  0  0  0  0  0  0
    0.1751   14.8281   -4.9581 H   0  0  0  0  0  0  0  0  0  0  0  0
   -3.9826   13.3858  -10.6771 H   0  0  0  0  0  0  0  0  0  0  0  0
   -4.7595   16.2374  -13.6550 H   0  0  0  0  0  0  0  0  0  0  0  0
   -2.7876   16.6646  -12.2876 H   0  0  0  0  0  0  0  0  0  0  0  0
   -3.0519   16.1015  -10.6025 H   0  0  0  0  0  0  0  0  0  0  0  0
   -1.9928   15.1617  -11.7078 H   0  0  0  0  0  0  0  0  0  0  0  0
  1  2  2  0  0  0  0
  1  4  1  0  0  0  0
  1 11  1  0  0  0  0
  2  6  1  0  0  0  0
  3  4  1  0  0  0  0
  3  5  2  0  0  0  0
  5  6  1  0  0  0  0
  5  9  1  0  0  0  0
  6  7  2  0  0  0  0
  7  8  1  0  0  0  0
  7 10  1  0  0  0  0
  8  9  2  0  0  0  0
 10 12  2  0  0  0  0
 11 24  2  0  0  0  0
 11 27  1  0  0  0  0
 12 13  1  0  0  0  0
 12 17  1  0  0  0  0
 13 14  2  0  0  0  0
 14 15  1  0  0  0  0
 15 16  1  0  0  0  0
 15 18  2  0  0  0  0
 16 17  2  0  0  0  0
 18 19  1  0  0  0  0
 18 22  1  0  0  0  0
 19 20  1  0  0  0  0
 20 21  1  0  0  0  0
 20 23  1  0  0  0  0
 21 22  2  0  0  0  0
 24 25  1  0  0  0  0
 25 26  1  0  0  0  0
 25 28  1  0  0  0  0
 26 27  2  0  0  0  0
  2 29  1  0  0  0  0
  3 30  1  0  0  0  0
  4 31  1  0  0  0  0
  4 32  1  0  0  0  0
 10 33  1  0  0  0  0
 13 34  1  0  0  0  0
 14 35  1  0  0  0  0
 16 36  1  0  0  0  0
 17 37  1  0  0  0  0
 19 38  1  0  0  0  0
 19 39  1  0  0  0  0
 22 40  1  0  0  0  0
 23 41  1  0  0  0  0
 23 42  1  0  0  0  0
 23 43  1  0  0  0  0
 24 44  1  0  0  0  0
 26 45  1  0  0  0  0
 28 46  1  0  0  0  0
 28 47  1  0  0  0  0
 28 48  1  0  0  0  0
M  END
> <Name>
21

> <IC50[uM]>
0.078

$$$$
21
  -OEChem-05192314333D
 Structure written by MMmdl.
 48 52  0     1  0  0  0  0  0999 V2000
   -6.3865   12.3338  -12.0432 C   0  0  0  0  0  0  0  0  0  0  0  0
   -6.4856   11.7841  -10.7704 C   0  0  0  0  0  0  0  0  0  0  0  0
   -7.7472   10.5643  -13.0426 C   0  0  0  0  0  0  0  0  0  0  0  0
   -7.0167   11.7500  -13.1460 C   0  0  0  0  0  0  0  0  0  0  0  0
   -7.8303   10.0081  -11.7598 C   0  0  0  0  0  0  0  0  0  0  0  0
   -7.2256   10.6149  -10.6156 C   0  0  0  0  0  0  0  0  0  0  0  0
   -7.6010    9.7518   -9.5145 C   0  0  0  0  0  0  0  0  0  0  0  0
   -8.2842    8.7423   -9.9828 N   0  0  0  0  0  0  0  0  0  0  0  0
   -8.4323    8.8733  -11.2925 N   0  0  0  0  0  0  0  0  0  0  0  0
   -7.3270    9.8938   -8.0225 C   0  0  0  0  0  0  0  0  0  0  0  0
   -5.5587   13.5285  -12.2266 C   0  0  0  0  0  0  0  0  0  0  0  0
   -5.9618   10.4909   -7.7327 C   0  0  0  0  0  0  0  0  0  0  0  0
   -5.8582   11.7635   -7.1652 C   0  0  0  0  0  0  0  0  0  0  0  0
   -4.6045   12.3140   -6.9191 C   0  0  0  0  0  0  0  0  0  0  0  0
   -3.4477   11.5945   -7.2362 C   0  0  0  0  0  0  0  0  0  0  0  0
   -3.5614   10.3184   -7.7958 C   0  0  0  0  0  0  0  0  0  0  0  0
   -4.8112    9.7685   -8.0438 C   0  0  0  0  0  0  0  0  0  0  0  0
   -2.1002   12.1716   -6.9783 C   0  0  0  0  0  0  0  0  0  0  0  0
   -1.7494   13.4275   -6.4902 C   0  0  0  0  0  0  0  0  0  0  0  0
   -0.4141   13.4605   -6.4332 N   0  0  3  0  0  0  0  0  0  0  0  0
    0.1744   12.3664   -6.8143 N   0  0  0  0  0  0  0  0  0  0  0  0
   -0.8092   11.5630   -7.1796 C   0  0  0  0  0  0  0  0  0  0  0  0
    0.4176   14.5730   -6.0003 C   0  0  0  0  0  0  0  0  0  0  0  0
   -4.4279   13.9049  -11.5130 C   0  0  0  0  0  0  0  0  0  0  0  0
   -4.0090   15.0294  -12.0677 N   0  0  0  0  0  0  0  0  0  0  0  0
   -4.8449   15.3445  -13.0534 C   0  0  0  0  0  0  0  0  0  0  0  0
   -5.7816   14.4464  -13.2081 N   0  0  0  0  0  0  0  0  0  0  0  0
   -2.9003   15.7800  -11.6435 C   0  0  0  0  0  0  0  0  0  0  0  0
   -5.4627   11.5709  -10.4264 H   0  0  0  0  0  0  0  0  0  0  0  0
   -6.9398   12.5463  -10.1202 H   0  0  0  0  0  0  0  0  0  0  0  0
   -8.2188   10.1047  -13.8986 H   0  0  0  0  0  0  0  0  0  0  0  0
   -6.9360   12.2316  -14.1093 H   0  0  0  0  0  0  0  0  0  0  0  0
   -8.0279    9.6014   -7.2546 H   0  0  0  0  0  0  0  0  0  0  0  0
   -6.7506   12.3193   -6.9178 H   0  0  0  0  0  0  0  0  0  0  0  0
   -4.5243   13.2985   -6.4825 H   0  0  0  0  0  0  0  0  0  0  0  0
   -2.6708    9.7569   -8.0367 H   0  0  0  0  0  0  0  0  0  0  0  0
   -4.8921    8.7825   -8.4771 H   0  0  0  0  0  0  0  0  0  0  0  0
   -2.1191   14.2131   -7.1656 H   0  0  0  0  0  0  0  0  0  0  0  0
   -2.1751   13.5763   -5.4869 H   0  0  0  0  0  0  0  0  0  0  0  0
   -0.6634   10.5708   -7.5804 H   0  0  0  0  0  0  0  0  0  0  0  0
    1.4777   14.2881   -6.0708 H   0  0  0  0  0  0  0  0  0  0  0  0
    0.2286   15.4443   -6.6446 H   0  0  0  0  0  0  0  0  0  0  0  0
    0.1751   14.8281   -4.9581 H   0  0  0  0  0  0  0  0  0  0  0  0
   -3.9826   13.3858  -10.6771 H   0  0  0  0  0  0  0  0  0  0  0  0
   -4.7595   16.2374  -13.6550 H   0  0  0  0  0  0  0  0  0  0  0  0
   -2.7876   16.6646  -12.2876 H   0  0  0  0  0  0  0  0  0  0  0  0
   -3.0519   16.1015  -10.6025 H   0  0  0  0  0  0  0  0  0  0  0  0
   -1.9928   15.1617  -11.7078 H   0  0  0  0  0  0  0  0  0  0  0  0
  1  2  1  0  0  0  0
  1  4  2  0  0  0  0
  1 11  1  0  0  0  0
  2  6  1  0  0  0  0
  3  4  1  0  0  0  0
  3  5  2  0  0  0  0
  5  6  1  0  0  0  0
  5  9  1  0  0  0  0
  6  7  2  0  0  0  0
  7  8  1  0  0  0  0
  7 10  1  0  0  0  0
  8  9  2  0  0  0  0
 10 12  2  0  0  0  0
 11 24  2  0  0  0  0
 11 27  1  0  0  0  0
 12 13  1  0  0  0  0
 12 17  1  0  0  0  0
 13 14  2  0  0  0  0
 14 15  1  0  0  0  0
 15 16  1  0  0  0  0
 15 18  2  0  0  0  0
 16 17  2  0  0  0  0
 18 19  1  0  0  0  0
 18 22  1  0  0  0  0
 19 20  1  0  0  0  0
 20 21  1  0  0  0  0
 20 23  1  0  0  0  0
 21 22  2  0  0  0  0
 24 25  1  0  0  0  0
 25 26  1  0  0  0  0
 25 28  1  0  0  0  0
 26 27  2  0  0  0  0
  2 29  1  0  0  0  0
  2 30  1  0  0  0  0
  3 31  1  0  0  0  0
  4 32  1  0  0  0  0
 10 33  1  0  0  0  0
 13 34  1  0  0  0  0
 14 35  1  0  0  0  0
 16 36  1  0  0  0  0
 17 37  1  0  0  0  0
 19 38  1  0  0  0  0
 19 39  1  0  0  0  0
 22 40  1  0  0  0  0
 23 41  1  0  0  0  0
 23 42  1  0  0  0  0
 23 43  1  0  0  0  0
 24 44  1  0  0  0  0
 26 45  1  0  0  0  0
 28 46  1  0  0  0  0
 28 47  1  0  0  0  0
 28 48  1  0  0  0  0
M  END
> <Name>
21

> <IC50[uM]>
0.078

$$$$
21
  -OEChem-05192314333D
 Structure written by MMmdl.
 48 52  0     1  0  0  0  0  0999 V2000
   -6.3865   12.3338  -12.0432 C   0  0  3  0  0  0  0  0  0  0  0  0
   -6.4856   11.7841  -10.7704 C   0  0  0  0  0  0  0  0  0  0  0  0
   -7.7472   10.5643  -13.0426 C   0  0  0  0  0  0  0  0  0  0  0  0
   -7.0167   11.7500  -13.1460 C   0  0  0  0  0  0  0  0  0  0  0  0
   -7.8303   10.0081  -11.7598 C   0  0  0  0  0  0  0  0  0  0  0  0
   -7.2256   10.6149  -10.6156 C   0  0  0  0  0  0  0  0  0  0  0  0
   -7.6010    9.7518   -9.5145 C   0  0  0  0  0  0  0  0  0  0  0  0
   -8.2842    8.7423   -9.9828 N   0  0  0  0  0  0  0  0  0  0  0  0
   -8.4323    8.8733  -11.2925 N   0  0  0  0  0  0  0  0  0  0  0  0
   -7.3270    9.8938   -8.0225 C   0  0  0  0  0  0  0  0  0  0  0  0
   -5.5587   13.5285  -12.2266 C   0  0  0  0  0  0  0  0  0  0  0  0
   -5.9618   10.4909   -7.7327 C   0  0  0  0  0  0  0  0  0  0  0  0
   -5.8582   11.7635   -7.1652 C   0  0  0  0  0  0  0  0  0  0  0  0
   -4.6045   12.3140   -6.9191 C   0  0  0  0  0  0  0  0  0  0  0  0
   -3.4477   11.5945   -7.2362 C   0  0  0  0  0  0  0  0  0  0  0  0
   -3.5614   10.3184   -7.7958 C   0  0  0  0  0  0  0  0  0  0  0  0
   -4.8112    9.7685   -8.0438 C   0  0  0  0  0  0  0  0  0  0  0  0
   -2.1002   12.1716   -6.9783 C   0  0  0  0  0  0  0  0  0  0  0  0
   -1.7494   13.4275   -6.4902 C   0  0  0  0  0  0  0  0  0  0  0  0
   -0.4141   13.4605   -6.4332 N   0  0  0  0  0  0  0  0  0  0  0  0
    0.1744   12.3664   -6.8143 N   0  0  0  0  0  0  0  0  0  0  0  0
   -0.8092   11.5630   -7.1796 C   0  0  0  0  0  0  0  0  0  0  0  0
    0.4176   14.5730   -6.0003 C   0  0  0  0  0  0  0  0  0  0  0  0
   -4.4279   13.9049  -11.5130 C   0  0  0  0  0  0  0  0  0  0  0  0
   -4.0090   15.0294  -12.0677 N   0  0  0  0  0  0  0  0  0  0  0  0
   -4.8449   15.3445  -13.0534 C   0  0  0  0  0  0  0  0  0  0  0  0
   -5.7816   14.4464  -13.2081 N   0  0  0  0  0  0  0  0  0  0  0  0
   -2.9003   15.7800  -11.6435 C   0  0  0  0  0  0  0  0  0  0  0  0
   -7.2704   12.9609  -11.8546 H   0  0  0  0  0  0  0  0  0  0  0  0
   -6.0020   12.2509   -9.9250 H   0  0  0  0  0  0  0  0  0  0  0  0
   -8.2188   10.1047  -13.8986 H   0  0  0  0  0  0  0  0  0  0  0  0
   -6.9360   12.2316  -14.1093 H   0  0  0  0  0  0  0  0  0  0  0  0
   -8.0279    9.6014   -7.2546 H   0  0  0  0  0  0  0  0  0  0  0  0
   -6.7506   12.3193   -6.9178 H   0  0  0  0  0  0  0  0  0  0  0  0
   -4.5243   13.2985   -6.4825 H   0  0  0  0  0  0  0  0  0  0  0  0
   -3.4463   12.0375   -8.2430 H   0  0  0  0  0  0  0  0  0  0  0  0
   -2.6708    9.7569   -8.0367 H   0  0  0  0  0  0  0  0  0  0  0  0
   -4.8921    8.7825   -8.4771 H   0  0  0  0  0  0  0  0  0  0  0  0
   -2.4257   14.2220   -6.2113 H   0  0  0  0  0  0  0  0  0  0  0  0
   -0.6634   10.5708   -7.5804 H   0  0  0  0  0  0  0  0  0  0  0  0
    1.4777   14.2881   -6.0708 H   0  0  0  0  0  0  0  0  0  0  0  0
    0.2286   15.4443   -6.6446 H   0  0  0  0  0  0  0  0  0  0  0  0
    0.1751   14.8281   -4.9581 H   0  0  0  0  0  0  0  0  0  0  0  0
   -3.9826   13.3858  -10.6771 H   0  0  0  0  0  0  0  0  0  0  0  0
   -4.7595   16.2374  -13.6550 H   0  0  0  0  0  0  0  0  0  0  0  0
   -2.7876   16.6646  -12.2876 H   0  0  0  0  0  0  0  0  0  0  0  0
   -3.0519   16.1015  -10.6025 H   0  0  0  0  0  0  0  0  0  0  0  0
   -1.9928   15.1617  -11.7078 H   0  0  0  0  0  0  0  0  0  0  0  0
  1  2  1  0  0  0  0
  1  4  1  0  0  0  0
  1 11  1  0  0  0  0
  2  6  2  0  0  0  0
  3  4  2  0  0  0  0
  3  5  1  0  0  0  0
  5  6  1  0  0  0  0
  5  9  2  0  0  0  0
  6  7  1  0  0  0  0
  7  8  2  0  0  0  0
  7 10  1  0  0  0  0
  8  9  1  0  0  0  0
 10 12  2  0  0  0  0
 11 24  2  0  0  0  0
 11 27  1  0  0  0  0
 12 13  1  0  0  0  0
 12 17  1  0  0  0  0
 13 14  2  0  0  0  0
 14 15  1  0  0  0  0
 15 16  1  0  0  0  0
 15 18  1  0  0  0  0
 16 17  2  0  0  0  0
 18 19  2  0  0  0  0
 18 22  1  0  0  0  0
 19 20  1  0  0  0  0
 20 21  1  0  0  0  0
 20 23  1  0  0  0  0
 21 22  2  0  0  0  0
 24 25  1  0  0  0  0
 25 26  1  0  0  0  0
 25 28  1  0  0  0  0
 26 27  2  0  0  0  0
  1 29  1  0  0  0  0
  2 30  1  0  0  0  0
  3 31  1  0  0  0  0
  4 32  1  0  0  0  0
 10 33  1  0  0  0  0
 13 34  1  0  0  0  0
 14 35  1  0  0  0  0
 15 36  1  0  0  0  0
 16 37  1  0  0  0  0
 17 38  1  0  0  0  0
 19 39  1  0  0  0  0
 22 40  1  0  0  0  0
 23 41  1  0  0  0  0
 23 42  1  0  0  0  0
 23 43  1  0  0  0  0
 24 44  1  0  0  0  0
 26 45  1  0  0  0  0
 28 46  1  0  0  0  0
 28 47  1  0  0  0  0
 28 48  1  0  0  0  0
M  END
> <Name>
21

> <IC50[uM]>
0.078

$$$$
21
  -OEChem-05192314333D
 Structure written by MMmdl.
 48 52  0     1  0  0  0  0  0999 V2000
   -6.3865   12.3338  -12.0432 C   0  0  0  0  0  0  0  0  0  0  0  0
   -6.4856   11.7841  -10.7704 C   0  0  0  0  0  0  0  0  0  0  0  0
   -7.7472   10.5643  -13.0426 C   0  0  0  0  0  0  0  0  0  0  0  0
   -7.0167   11.7500  -13.1460 C   0  0  0  0  0  0  0  0  0  0  0  0
   -7.8303   10.0081  -11.7598 C   0  0  0  0  0  0  0  0  0  0  0  0
   -7.2256   10.6149  -10.6156 C   0  0  3  0  0  0  0  0  0  0  0  0
   -7.6010    9.7518   -9.5145 C   0  0  0  0  0  0  0  0  0  0  0  0
   -8.2842    8.7423   -9.9828 N   0  0  0  0  0  0  0  0  0  0  0  0
   -8.4323    8.8733  -11.2925 N   0  0  0  0  0  0  0  0  0  0  0  0
   -7.3270    9.8938   -8.0225 C   0  0  0  0  0  0  0  0  0  0  0  0
   -5.5587   13.5285  -12.2266 C   0  0  0  0  0  0  0  0  0  0  0  0
   -5.9618   10.4909   -7.7327 C   0  0  0  0  0  0  0  0  0  0  0  0
   -5.8582   11.7635   -7.1652 C   0  0  0  0  0  0  0  0  0  0  0  0
   -4.6045   12.3140   -6.9191 C   0  0  0  0  0  0  0  0  0  0  0  0
   -3.4477   11.5945   -7.2362 C   0  0  0  0  0  0  0  0  0  0  0  0
   -3.5614   10.3184   -7.7958 C   0  0  0  0  0  0  0  0  0  0  0  0
   -4.8112    9.7685   -8.0438 C   0  0  0  0  0  0  0  0  0  0  0  0
   -2.1002   12.1716   -6.9783 C   0  0  0  0  0  0  0  0  0  0  0  0
   -1.7494   13.4275   -6.4902 C   0  0  0  0  0  0  0  0  0  0  0  0
   -0.4141   13.4605   -6.4332 N   0  0  0  0  0  0  0  0  0  0  0  0
    0.1744   12.3664   -6.8143 N   0  0  0  0  0  0  0  0  0  0  0  0
   -0.8092   11.5630   -7.1796 C   0  0  0  0  0  0  0  0  0  0  0  0
    0.4176   14.5730   -6.0003 C   0  0  0  0  0  0  0  0  0  0  0  0
   -4.4279   13.9049  -11.5130 C   0  0  0  0  0  0  0  0  0  0  0  0
   -4.0090   15.0294  -12.0677 N   0  0  0  0  0  0  0  0  0  0  0  0
   -4.8449   15.3445  -13.0534 C   0  0  0  0  0  0  0  0  0  0  0  0
   -5.7816   14.4464  -13.2081 N   0  0  0  0  0  0  0  0  0  0  0  0
   -2.9003   15.7800  -11.6435 C   0  0  0  0  0  0  0  0  0  0  0  0
   -6.0020   12.2509   -9.9250 H   0  0  0  0  0  0  0  0  0  0  0  0
   -8.2188   10.1047  -13.8986 H   0  0  0  0  0  0  0  0  0  0  0  0
   -6.9360   12.2316  -14.1093 H   0  0  0  0  0  0  0  0  0  0  0  0
   -6.3168   10.0165  -10.7767 H   0  0  0  0  0  0  0  0  0  0  0  0
   -8.0279    9.6014   -7.2546 H   0  0  0  0  0  0  0  0  0  0  0  0
   -6.7506   12.3193   -6.9178 H   0  0  0  0  0  0  0  0  0  0  0  0
   -4.5243   13.2985   -6.4825 H   0  0  0  0  0  0  0  0  0  0  0  0
   -3.4463   12.0375   -8.2430 H   0  0  0  0  0  0  0  0  0  0  0  0
   -2.6708    9.7569   -8.0367 H   0  0  0  0  0  0  0  0  0  0  0  0
   -4.8921    8.7825   -8.4771 H   0  0  0  0  0  0  0  0  0  0  0  0
   -2.4257   14.2220   -6.2113 H   0  0  0  0  0  0  0  0  0  0  0  0
   -0.6634   10.5708   -7.5804 H   0  0  0  0  0  0  0  0  0  0  0  0
    1.4777   14.2881   -6.0708 H   0  0  0  0  0  0  0  0  0  0  0  0
    0.2286   15.4443   -6.6446 H   0  0  0  0  0  0  0  0  0  0  0  0
    0.1751   14.8281   -4.9581 H   0  0  0  0  0  0  0  0  0  0  0  0
   -3.9826   13.3858  -10.6771 H   0  0  0  0  0  0  0  0  0  0  0  0
   -4.7595   16.2374  -13.6550 H   0  0  0  0  0  0  0  0  0  0  0  0
   -2.7876   16.6646  -12.2876 H   0  0  0  0  0  0  0  0  0  0  0  0
   -3.0519   16.1015  -10.6025 H   0  0  0  0  0  0  0  0  0  0  0  0
   -1.9928   15.1617  -11.7078 H   0  0  0  0  0  0  0  0  0  0  0  0
  1  2  2  0  0  0  0
  1  4  1  0  0  0  0
  1 11  1  0  0  0  0
  2  6  1  0  0  0  0
  3  4  2  0  0  0  0
  3  5  1  0  0  0  0
  5  6  1  0  0  0  0
  5  9  2  0  0  0  0
  6  7  1  0  0  0  0
  7  8  2  0  0  0  0
  7 10  1  0  0  0  0
  8  9  1  0  0  0  0
 10 12  2  0  0  0  0
 11 24  2  0  0  0  0
 11 27  1  0  0  0  0
 12 13  1  0  0  0  0
 12 17  1  0  0  0  0
 13 14  2  0  0  0  0
 14 15  1  0  0  0  0
 15 16  1  0  0  0  0
 15 18  1  0  0  0  0
 16 17  2  0  0  0  0
 18 19  2  0  0  0  0
 18 22  1  0  0  0  0
 19 20  1  0  0  0  0
 20 21  1  0  0  0  0
 20 23  1  0  0  0  0
 21 22  2  0  0  0  0
 24 25  1  0  0  0  0
 25 26  1  0  0  0  0
 25 28  1  0  0  0  0
 26 27  2  0  0  0  0
  2 29  1  0  0  0  0
  3 30  1  0  0  0  0
  4 31  1  0  0  0  0
  6 32  1  0  0  0  0
 10 33  1  0  0  0  0
 13 34  1  0  0  0  0
 14 35  1  0  0  0  0
 15 36  1  0  0  0  0
 16 37  1  0  0  0  0
 17 38  1  0  0  0  0
 19 39  1  0  0  0  0
 22 40  1  0  0  0  0
 23 41  1  0  0  0  0
 23 42  1  0  0  0  0
 23 43  1  0  0  0  0
 24 44  1  0  0  0  0
 26 45  1  0  0  0  0
 28 46  1  0  0  0  0
 28 47  1  0  0  0  0
 28 48  1  0  0  0  0
M  END
> <Name>
21

> <IC50[uM]>
0.078

$$$$
21
  -OEChem-05192314333D
 Structure written by MMmdl.
 48 52  0     0  0  0  0  0  0999 V2000
   -6.3865   12.3338  -12.0432 C   0  0  0  0  0  0  0  0  0  0  0  0
   -6.4856   11.7841  -10.7704 C   0  0  0  0  0  0  0  0  0  0  0  0
   -7.7472   10.5643  -13.0426 C   0  0  0  0  0  0  0  0  0  0  0  0
   -7.0167   11.7500  -13.1460 C   0  0  0  0  0  0  0  0  0  0  0  0
   -7.8303   10.0081  -11.7598 C   0  0  0  0  0  0  0  0  0  0  0  0
   -7.2256   10.6149  -10.6156 C   0  0  0  0  0  0  0  0  0  0  0  0
   -7.6010    9.7518   -9.5145 C   0  0  0  0  0  0  0  0  0  0  0  0
   -8.2842    8.7423   -9.9828 N   0  0  0  0  0  0  0  0  0  0  0  0
   -8.4323    8.8733  -11.2925 N   0  0  0  0  0  0  0  0  0  0  0  0
   -7.3270    9.8938   -8.0225 C   0  0  0  0  0  0  0  0  0  0  0  0
   -5.5587   13.5285  -12.2266 C   0  0  0  0  0  0  0  0  0  0  0  0
   -5.9618   10.4909   -7.7327 C   0  0  0  0  0  0  0  0  0  0  0  0
   -5.8582   11.7635   -7.1652 C   0  0  0  0  0  0  0  0  0  0  0  0
   -4.6045   12.3140   -6.9191 C   0  0  0  0  0  0  0  0  0  0  0  0
   -3.4477   11.5945   -7.2362 C   0  0  0  0  0  0  0  0  0  0  0  0
   -3.5614   10.3184   -7.7958 C   0  0  0  0  0  0  0  0  0  0  0  0
   -4.8112    9.7685   -8.0438 C   0  0  0  0  0  0  0  0  0  0  0  0
   -2.1002   12.1716   -6.9783 C   0  0  0  0  0  0  0  0  0  0  0  0
   -1.7494   13.4275   -6.4902 C   0  0  0  0  0  0  0  0  0  0  0  0
   -0.4141   13.4605   -6.4332 N   0  0  0  0  0  0  0  0  0  0  0  0
    0.1744   12.3664   -6.8143 N   0  0  0  0  0  0  0  0  0  0  0  0
   -0.8092   11.5630   -7.1796 C   0  0  0  0  0  0  0  0  0  0  0  0
    0.4176   14.5730   -6.0003 C   0  0  0  0  0  0  0  0  0  0  0  0
   -4.4279   13.9049  -11.5130 C   0  0  0  0  0  0  0  0  0  0  0  0
   -4.0090   15.0294  -12.0677 N   0  0  0  0  0  0  0  0  0  0  0  0
   -4.8449   15.3445  -13.0534 C   0  0  0  0  0  0  0  0  0  0  0  0
   -5.7816   14.4464  -13.2081 N   0  0  0  0  0  0  0  0  0  0  0  0
   -2.9003   15.7800  -11.6435 C   0  0  0  0  0  0  0  0  0  0  0  0
   -6.0020   12.2509   -9.9250 H   0  0  0  0  0  0  0  0  0  0  0  0
   -8.7712   10.7678  -13.3889 H   0  0  0  0  0  0  0  0  0  0  0  0
   -7.2778    9.8203  -13.7030 H   0  0  0  0  0  0  0  0  0  0  0  0
   -6.9360   12.2316  -14.1093 H   0  0  0  0  0  0  0  0  0  0  0  0
   -8.0279    9.6014   -7.2546 H   0  0  0  0  0  0  0  0  0  0  0  0
   -6.7506   12.3193   -6.9178 H   0  0  0  0  0  0  0  0  0  0  0  0
   -4.5243   13.2985   -6.4825 H   0  0  0  0  0  0  0  0  0  0  0  0
   -3.4463   12.0375   -8.2430 H   0  0  0  0  0  0  0  0  0  0  0  0
   -2.6708    9.7569   -8.0367 H   0  0  0  0  0  0  0  0  0  0  0  0
   -4.8921    8.7825   -8.4771 H   0  0  0  0  0  0  0  0  0  0  0  0
   -2.4257   14.2220   -6.2113 H   0  0  0  0  0  0  0  0  0  0  0  0
   -0.6634   10.5708   -7.5804 H   0  0  0  0  0  0  0  0  0  0  0  0
    1.4777   14.2881   -6.0708 H   0  0  0  0  0  0  0  0  0  0  0  0
    0.2286   15.4443   -6.6446 H   0  0  0  0  0  0  0  0  0  0  0  0
    0.1751   14.8281   -4.9581 H   0  0  0  0  0  0  0  0  0  0  0  0
   -3.9826   13.3858  -10.6771 H   0  0  0  0  0  0  0  0  0  0  0  0
   -4.7595   16.2374  -13.6550 H   0  0  0  0  0  0  0  0  0  0  0  0
   -2.7876   16.6646  -12.2876 H   0  0  0  0  0  0  0  0  0  0  0  0
   -3.0519   16.1015  -10.6025 H   0  0  0  0  0  0  0  0  0  0  0  0
   -1.9928   15.1617  -11.7078 H   0  0  0  0  0  0  0  0  0  0  0  0
  1  2  1  0  0  0  0
  1  4  2  0  0  0  0
  1 11  1  0  0  0  0
  2  6  2  0  0  0  0
  3  4  1  0  0  0  0
  3  5  1  0  0  0  0
  5  6  1  0  0  0  0
  5  9  2  0  0  0  0
  6  7  1  0  0  0  0
  7  8  2  0  0  0  0
  7 10  1  0  0  0  0
  8  9  1  0  0  0  0
 10 12  2  0  0  0  0
 11 24  2  0  0  0  0
 11 27  1  0  0  0  0
 12 13  1  0  0  0  0
 12 17  1  0  0  0  0
 13 14  2  0  0  0  0
 14 15  1  0  0  0  0
 15 16  1  0  0  0  0
 15 18  1  0  0  0  0
 16 17  2  0  0  0  0
 18 19  2  0  0  0  0
 18 22  1  0  0  0  0
 19 20  1  0  0  0  0
 20 21  1  0  0  0  0
 20 23  1  0  0  0  0
 21 22  2  0  0  0  0
 24 25  1  0  0  0  0
 25 26  1  0  0  0  0
 25 28  1  0  0  0  0
 26 27  2  0  0  0  0
  2 29  1  0  0  0  0
  3 30  1  0  0  0  0
  3 31  1  0  0  0  0
  4 32  1  0  0  0  0
 10 33  1  0  0  0  0
 13 34  1  0  0  0  0
 14 35  1  0  0  0  0
 15 36  1  0  0  0  0
 16 37  1  0  0  0  0
 17 38  1  0  0  0  0
 19 39  1  0  0  0  0
 22 40  1  0  0  0  0
 23 41  1  0  0  0  0
 23 42  1  0  0  0  0
 23 43  1  0  0  0  0
 24 44  1  0  0  0  0
 26 45  1  0  0  0  0
 28 46  1  0  0  0  0
 28 47  1  0  0  0  0
 28 48  1  0  0  0  0
M  END
> <Name>
21

> <IC50[uM]>
0.078

$$$$
21
  -OEChem-05192314333D
 Structure written by MMmdl.
 48 52  0     1  0  0  0  0  0999 V2000
   -6.3865   12.3338  -12.0432 C   0  0  3  0  0  0  0  0  0  0  0  0
   -6.4856   11.7841  -10.7704 C   0  0  0  0  0  0  0  0  0  0  0  0
   -7.7472   10.5643  -13.0426 C   0  0  0  0  0  0  0  0  0  0  0  0
   -7.0167   11.7500  -13.1460 C   0  0  0  0  0  0  0  0  0  0  0  0
   -7.8303   10.0081  -11.7598 C   0  0  0  0  0  0  0  0  0  0  0  0
   -7.2256   10.6149  -10.6156 C   0  0  0  0  0  0  0  0  0  0  0  0
   -7.6010    9.7518   -9.5145 C   0  0  0  0  0  0  0  0  0  0  0  0
   -8.2842    8.7423   -9.9828 N   0  0  0  0  0  0  0  0  0  0  0  0
   -8.4323    8.8733  -11.2925 N   0  0  0  0  0  0  0  0  0  0  0  0
   -7.3270    9.8938   -8.0225 C   0  0  0  0  0  0  0  0  0  0  0  0
   -5.5587   13.5285  -12.2266 C   0  0  0  0  0  0  0  0  0  0  0  0
   -5.9618   10.4909   -7.7327 C   0  0  0  0  0  0  0  0  0  0  0  0
   -5.8582   11.7635   -7.1652 C   0  0  0  0  0  0  0  0  0  0  0  0
   -4.6045   12.3140   -6.9191 C   0  0  0  0  0  0  0  0  0  0  0  0
   -3.4477   11.5945   -7.2362 C   0  0  0  0  0  0  0  0  0  0  0  0
   -3.5614   10.3184   -7.7958 C   0  0  0  0  0  0  0  0  0  0  0  0
   -4.8112    9.7685   -8.0438 C   0  0  0  0  0  0  0  0  0  0  0  0
   -2.1002   12.1716   -6.9783 C   0  0  0  0  0  0  0  0  0  0  0  0
   -1.7494   13.4275   -6.4902 C   0  0  0  0  0  0  0  0  0  0  0  0
   -0.4141   13.4605   -6.4332 N   0  0  0  0  0  0  0  0  0  0  0  0
    0.1744   12.3664   -6.8143 N   0  0  0  0  0  0  0  0  0  0  0  0
   -0.8092   11.5630   -7.1796 C   0  0  0  0  0  0  0  0  0  0  0  0
    0.4176   14.5730   -6.0003 C   0  0  0  0  0  0  0  0  0  0  0  0
   -4.4279   13.9049  -11.5130 C   0  0  0  0  0  0  0  0  0  0  0  0
   -4.0090   15.0294  -12.0677 N   0  0  0  0  0  0  0  0  0  0  0  0
   -4.8449   15.3445  -13.0534 C   0  0  0  0  0  0  0  0  0  0  0  0
   -5.7816   14.4464  -13.2081 N   0  0  0  0  0  0  0  0  0  0  0  0
   -2.9003   15.7800  -11.6435 C   0  0  0  0  0  0  0  0  0  0  0  0
   -7.2704   12.9609  -11.8546 H   0  0  0  0  0  0  0  0  0  0  0  0
   -6.0020   12.2509   -9.9250 H   0  0  0  0  0  0  0  0  0  0  0  0
   -8.2188   10.1047  -13.8986 H   0  0  0  0  0  0  0  0  0  0  0  0
   -6.9360   12.2316  -14.1093 H   0  0  0  0  0  0  0  0  0  0  0  0
   -8.0279    9.6014   -7.2546 H   0  0  0  0  0  0  0  0  0  0  0  0
   -6.7506   12.3193   -6.9178 H   0  0  0  0  0  0  0  0  0  0  0  0
   -4.5243   13.2985   -6.4825 H   0  0  0  0  0  0  0  0  0  0  0  0
   -2.6708    9.7569   -8.0367 H   0  0  0  0  0  0  0  0  0  0  0  0
   -4.8631    8.8277   -7.4762 H   0  0  0  0  0  0  0  0  0  0  0  0
   -4.8544    9.5498   -9.1210 H   0  0  0  0  0  0  0  0  0  0  0  0
   -2.4257   14.2220   -6.2113 H   0  0  0  0  0  0  0  0  0  0  0  0
   -0.6634   10.5708   -7.5804 H   0  0  0  0  0  0  0  0  0  0  0  0
    1.4777   14.2881   -6.0708 H   0  0  0  0  0  0  0  0  0  0  0  0
    0.2286   15.4443   -6.6446 H   0  0  0  0  0  0  0  0  0  0  0  0
    0.1751   14.8281   -4.9581 H   0  0  0  0  0  0  0  0  0  0  0  0
   -3.9826   13.3858  -10.6771 H   0  0  0  0  0  0  0  0  0  0  0  0
   -4.7595   16.2374  -13.6550 H   0  0  0  0  0  0  0  0  0  0  0  0
   -2.7876   16.6646  -12.2876 H   0  0  0  0  0  0  0  0  0  0  0  0
   -3.0519   16.1015  -10.6025 H   0  0  0  0  0  0  0  0  0  0  0  0
   -1.9928   15.1617  -11.7078 H   0  0  0  0  0  0  0  0  0  0  0  0
  1  2  1  0  0  0  0
  1  4  1  0  0  0  0
  1 11  1  0  0  0  0
  2  6  2  0  0  0  0
  3  4  2  0  0  0  0
  3  5  1  0  0  0  0
  5  6  1  0  0  0  0
  5  9  2  0  0  0  0
  6  7  1  0  0  0  0
  7  8  2  0  0  0  0
  7 10  1  0  0  0  0
  8  9  1  0  0  0  0
 10 12  2  3  0  0  0
 11 24  2  0  0  0  0
 11 27  1  0  0  0  0
 12 13  1  0  0  0  0
 12 17  1  0  0  0  0
 13 14  2  0  0  0  0
 14 15  1  0  0  0  0
 15 16  2  0  0  0  0
 15 18  1  0  0  0  0
 16 17  1  0  0  0  0
 18 19  2  0  0  0  0
 18 22  1  0  0  0  0
 19 20  1  0  0  0  0
 20 21  1  0  0  0  0
 20 23  1  0  0  0  0
 21 22  2  0  0  0  0
 24 25  1  0  0  0  0
 25 26  1  0  0  0  0
 25 28  1  0  0  0  0
 26 27  2  0  0  0  0
  1 29  1  0  0  0  0
  2 30  1  0  0  0  0
  3 31  1  0  0  0  0
  4 32  1  0  0  0  0
 10 33  1  0  0  0  0
 13 34  1  0  0  0  0
 14 35  1  0  0  0  0
 16 36  1  0  0  0  0
 17 37  1  0  0  0  0
 17 38  1  0  0  0  0
 19 39  1  0  0  0  0
 22 40  1  0  0  0  0
 23 41  1  0  0  0  0
 23 42  1  0  0  0  0
 23 43  1  0  0  0  0
 24 44  1  0  0  0  0
 26 45  1  0  0  0  0
 28 46  1  0  0  0  0
 28 47  1  0  0  0  0
 28 48  1  0  0  0  0
M  END
> <Name>
21

> <IC50[uM]>
0.078

$$$$
21
  -OEChem-05192314333D
 Structure written by MMmdl.
 48 52  0     1  0  0  0  0  0999 V2000
   -6.3865   12.3338  -12.0432 C   0  0  0  0  0  0  0  0  0  0  0  0
   -6.4856   11.7841  -10.7704 C   0  0  0  0  0  0  0  0  0  0  0  0
   -7.7472   10.5643  -13.0426 C   0  0  0  0  0  0  0  0  0  0  0  0
   -7.0167   11.7500  -13.1460 C   0  0  0  0  0  0  0  0  0  0  0  0
   -7.8303   10.0081  -11.7598 C   0  0  0  0  0  0  0  0  0  0  0  0
   -7.2256   10.6149  -10.6156 C   0  0  3  0  0  0  0  0  0  0  0  0
   -7.6010    9.7518   -9.5145 C   0  0  0  0  0  0  0  0  0  0  0  0
   -8.2842    8.7423   -9.9828 N   0  0  0  0  0  0  0  0  0  0  0  0
   -8.4323    8.8733  -11.2925 N   0  0  0  0  0  0  0  0  0  0  0  0
   -7.3270    9.8938   -8.0225 C   0  0  0  0  0  0  0  0  0  0  0  0
   -5.5587   13.5285  -12.2266 C   0  0  0  0  0  0  0  0  0  0  0  0
   -5.9618   10.4909   -7.7327 C   0  0  0  0  0  0  0  0  0  0  0  0
   -5.8582   11.7635   -7.1652 C   0  0  0  0  0  0  0  0  0  0  0  0
   -4.6045   12.3140   -6.9191 C   0  0  0  0  0  0  0  0  0  0  0  0
   -3.4477   11.5945   -7.2362 C   0  0  0  0  0  0  0  0  0  0  0  0
   -3.5614   10.3184   -7.7958 C   0  0  0  0  0  0  0  0  0  0  0  0
   -4.8112    9.7685   -8.0438 C   0  0  0  0  0  0  0  0  0  0  0  0
   -2.1002   12.1716   -6.9783 C   0  0  0  0  0  0  0  0  0  0  0  0
   -1.7494   13.4275   -6.4902 C   0  0  0  0  0  0  0  0  0  0  0  0
   -0.4141   13.4605   -6.4332 N   0  0  0  0  0  0  0  0  0  0  0  0
    0.1744   12.3664   -6.8143 N   0  0  0  0  0  0  0  0  0  0  0  0
   -0.8092   11.5630   -7.1796 C   0  0  0  0  0  0  0  0  0  0  0  0
    0.4176   14.5730   -6.0003 C   0  0  0  0  0  0  0  0  0  0  0  0
   -4.4279   13.9049  -11.5130 C   0  0  0  0  0  0  0  0  0  0  0  0
   -4.0090   15.0294  -12.0677 N   0  0  0  0  0  0  0  0  0  0  0  0
   -4.8449   15.3445  -13.0534 C   0  0  0  0  0  0  0  0  0  0  0  0
   -5.7816   14.4464  -13.2081 N   0  0  0  0  0  0  0  0  0  0  0  0
   -2.9003   15.7800  -11.6435 C   0  0  0  0  0  0  0  0  0  0  0  0
   -6.0020   12.2509   -9.9250 H   0  0  0  0  0  0  0  0  0  0  0  0
   -8.2188   10.1047  -13.8986 H   0  0  0  0  0  0  0  0  0  0  0  0
   -6.9360   12.2316  -14.1093 H   0  0  0  0  0  0  0  0  0  0  0  0
   -6.3168   10.0165  -10.7767 H   0  0  0  0  0  0  0  0  0  0  0  0
   -8.0279    9.6014   -7.2546 H   0  0  0  0  0  0  0  0  0  0  0  0
   -6.7506   12.3193   -6.9178 H   0  0  0  0  0  0  0  0  0  0  0  0
   -4.5243   13.2985   -6.4825 H   0  0  0  0  0  0  0  0  0  0  0  0
   -2.6708    9.7569   -8.0367 H   0  0  0  0  0  0  0  0  0  0  0  0
   -4.8631    8.8277   -7.4762 H   0  0  0  0  0  0  0  0  0  0  0  0
   -4.8544    9.5498   -9.1210 H   0  0  0  0  0  0  0  0  0  0  0  0
   -2.4257   14.2220   -6.2113 H   0  0  0  0  0  0  0  0  0  0  0  0
   -0.6634   10.5708   -7.5804 H   0  0  0  0  0  0  0  0  0  0  0  0
    1.4777   14.2881   -6.0708 H   0  0  0  0  0  0  0  0  0  0  0  0
    0.2286   15.4443   -6.6446 H   0  0  0  0  0  0  0  0  0  0  0  0
    0.1751   14.8281   -4.9581 H   0  0  0  0  0  0  0  0  0  0  0  0
   -3.9826   13.3858  -10.6771 H   0  0  0  0  0  0  0  0  0  0  0  0
   -4.7595   16.2374  -13.6550 H   0  0  0  0  0  0  0  0  0  0  0  0
   -2.7876   16.6646  -12.2876 H   0  0  0  0  0  0  0  0  0  0  0  0
   -3.0519   16.1015  -10.6025 H   0  0  0  0  0  0  0  0  0  0  0  0
   -1.9928   15.1617  -11.7078 H   0  0  0  0  0  0  0  0  0  0  0  0
  1  2  2  0  0  0  0
  1  4  1  0  0  0  0
  1 11  1  0  0  0  0
  2  6  1  0  0  0  0
  3  4  2  0  0  0  0
  3  5  1  0  0  0  0
  5  6  1  0  0  0  0
  5  9  2  0  0  0  0
  6  7  1  0  0  0  0
  7  8  2  0  0  0  0
  7 10  1  0  0  0  0
  8  9  1  0  0  0  0
 10 12  2  3  0  0  0
 11 24  2  0  0  0  0
 11 27  1  0  0  0  0
 12 13  1  0  0  0  0
 12 17  1  0  0  0  0
 13 14  2  0  0  0  0
 14 15  1  0  0  0  0
 15 16  2  0  0  0  0
 15 18  1  0  0  0  0
 16 17  1  0  0  0  0
 18 19  2  0  0  0  0
 18 22  1  0  0  0  0
 19 20  1  0  0  0  0
 20 21  1  0  0  0  0
 20 23  1  0  0  0  0
 21 22  2  0  0  0  0
 24 25  1  0  0  0  0
 25 26  1  0  0  0  0
 25 28  1  0  0  0  0
 26 27  2  0  0  0  0
  2 29  1  0  0  0  0
  3 30  1  0  0  0  0
  4 31  1  0  0  0  0
  6 32  1  0  0  0  0
 10 33  1  0  0  0  0
 13 34  1  0  0  0  0
 14 35  1  0  0  0  0
 16 36  1  0  0  0  0
 17 37  1  0  0  0  0
 17 38  1  0  0  0  0
 19 39  1  0  0  0  0
 22 40  1  0  0  0  0
 23 41  1  0  0  0  0
 23 42  1  0  0  0  0
 23 43  1  0  0  0  0
 24 44  1  0  0  0  0
 26 45  1  0  0  0  0
 28 46  1  0  0  0  0
 28 47  1  0  0  0  0
 28 48  1  0  0  0  0
M  END
> <Name>
21

> <IC50[uM]>
0.078

$$$$
21
  -OEChem-05192314333D
 Structure written by MMmdl.
 48 52  0     0  0  0  0  0  0999 V2000
   -6.3865   12.3338  -12.0432 C   0  0  0  0  0  0  0  0  0  0  0  0
   -6.4856   11.7841  -10.7704 C   0  0  0  0  0  0  0  0  0  0  0  0
   -7.7472   10.5643  -13.0426 C   0  0  0  0  0  0  0  0  0  0  0  0
   -7.0167   11.7500  -13.1460 C   0  0  0  0  0  0  0  0  0  0  0  0
   -7.8303   10.0081  -11.7598 C   0  0  0  0  0  0  0  0  0  0  0  0
   -7.2256   10.6149  -10.6156 C   0  0  0  0  0  0  0  0  0  0  0  0
   -7.6010    9.7518   -9.5145 C   0  0  0  0  0  0  0  0  0  0  0  0
   -8.2842    8.7423   -9.9828 N   0  0  0  0  0  0  0  0  0  0  0  0
   -8.4323    8.8733  -11.2925 N   0  0  0  0  0  0  0  0  0  0  0  0
   -7.3270    9.8938   -8.0225 C   0  0  0  0  0  0  0  0  0  0  0  0
   -5.5587   13.5285  -12.2266 C   0  0  0  0  0  0  0  0  0  0  0  0
   -5.9618   10.4909   -7.7327 C   0  0  0  0  0  0  0  0  0  0  0  0
   -5.8582   11.7635   -7.1652 C   0  0  0  0  0  0  0  0  0  0  0  0
   -4.6045   12.3140   -6.9191 C   0  0  0  0  0  0  0  0  0  0  0  0
   -3.4477   11.5945   -7.2362 C   0  0  0  0  0  0  0  0  0  0  0  0
   -3.5614   10.3184   -7.7958 C   0  0  0  0  0  0  0  0  0  0  0  0
   -4.8112    9.7685   -8.0438 C   0  0  0  0  0  0  0  0  0  0  0  0
   -2.1002   12.1716   -6.9783 C   0  0  0  0  0  0  0  0  0  0  0  0
   -1.7494   13.4275   -6.4902 C   0  0  0  0  0  0  0  0  0  0  0  0
   -0.4141   13.4605   -6.4332 N   0  0  0  0  0  0  0  0  0  0  0  0
    0.1744   12.3664   -6.8143 N   0  0  0  0  0  0  0  0  0  0  0  0
   -0.8092   11.5630   -7.1796 C   0  0  0  0  0  0  0  0  0  0  0  0
    0.4176   14.5730   -6.0003 C   0  0  0  0  0  0  0  0  0  0  0  0
   -4.4279   13.9049  -11.5130 C   0  0  0  0  0  0  0  0  0  0  0  0
   -4.0090   15.0294  -12.0677 N   0  0  0  0  0  0  0  0  0  0  0  0
   -4.8449   15.3445  -13.0534 C   0  0  0  0  0  0  0  0  0  0  0  0
   -5.7816   14.4464  -13.2081 N   0  0  0  0  0  0  0  0  0  0  0  0
   -2.9003   15.7800  -11.6435 C   0  0  0  0  0  0  0  0  0  0  0  0
   -6.0020   12.2509   -9.9250 H   0  0  0  0  0  0  0  0  0  0  0  0
   -8.7712   10.7678  -13.3889 H   0  0  0  0  0  0  0  0  0  0  0  0
   -7.2778    9.8203  -13.7030 H   0  0  0  0  0  0  0  0  0  0  0  0
   -6.9360   12.2316  -14.1093 H   0  0  0  0  0  0  0  0  0  0  0  0
   -8.0279    9.6014   -7.2546 H   0  0  0  0  0  0  0  0  0  0  0  0
   -6.7506   12.3193   -6.9178 H   0  0  0  0  0  0  0  0  0  0  0  0
   -4.5243   13.2985   -6.4825 H   0  0  0  0  0  0  0  0  0  0  0  0
   -2.6708    9.7569   -8.0367 H   0  0  0  0  0  0  0  0  0  0  0  0
   -4.8631    8.8277   -7.4762 H   0  0  0  0  0  0  0  0  0  0  0  0
   -4.8544    9.5498   -9.1210 H   0  0  0  0  0  0  0  0  0  0  0  0
   -2.4257   14.2220   -6.2113 H   0  0  0  0  0  0  0  0  0  0  0  0
   -0.6634   10.5708   -7.5804 H   0  0  0  0  0  0  0  0  0  0  0  0
    1.4777   14.2881   -6.0708 H   0  0  0  0  0  0  0  0  0  0  0  0
    0.2286   15.4443   -6.6446 H   0  0  0  0  0  0  0  0  0  0  0  0
    0.1751   14.8281   -4.9581 H   0  0  0  0  0  0  0  0  0  0  0  0
   -3.9826   13.3858  -10.6771 H   0  0  0  0  0  0  0  0  0  0  0  0
   -4.7595   16.2374  -13.6550 H   0  0  0  0  0  0  0  0  0  0  0  0
   -2.7876   16.6646  -12.2876 H   0  0  0  0  0  0  0  0  0  0  0  0
   -3.0519   16.1015  -10.6025 H   0  0  0  0  0  0  0  0  0  0  0  0
   -1.9928   15.1617  -11.7078 H   0  0  0  0  0  0  0  0  0  0  0  0
  1  2  1  0  0  0  0
  1  4  2  0  0  0  0
  1 11  1  0  0  0  0
  2  6  2  0  0  0  0
  3  4  1  0  0  0  0
  3  5  1  0  0  0  0
  5  6  1  0  0  0  0
  5  9  2  0  0  0  0
  6  7  1  0  0  0  0
  7  8  2  0  0  0  0
  7 10  1  0  0  0  0
  8  9  1  0  0  0  0
 10 12  2  3  0  0  0
 11 24  2  0  0  0  0
 11 27  1  0  0  0  0
 12 13  1  0  0  0  0
 12 17  1  0  0  0  0
 13 14  2  0  0  0  0
 14 15  1  0  0  0  0
 15 16  2  0  0  0  0
 15 18  1  0  0  0  0
 16 17  1  0  0  0  0
 18 19  2  0  0  0  0
 18 22  1  0  0  0  0
 19 20  1  0  0  0  0
 20 21  1  0  0  0  0
 20 23  1  0  0  0  0
 21 22  2  0  0  0  0
 24 25  1  0  0  0  0
 25 26  1  0  0  0  0
 25 28  1  0  0  0  0
 26 27  2  0  0  0  0
  2 29  1  0  0  0  0
  3 30  1  0  0  0  0
  3 31  1  0  0  0  0
  4 32  1  0  0  0  0
 10 33  1  0  0  0  0
 13 34  1  0  0  0  0
 14 35  1  0  0  0  0
 16 36  1  0  0  0  0
 17 37  1  0  0  0  0
 17 38  1  0  0  0  0
 19 39  1  0  0  0  0
 22 40  1  0  0  0  0
 23 41  1  0  0  0  0
 23 42  1  0  0  0  0
 23 43  1  0  0  0  0
 24 44  1  0  0  0  0
 26 45  1  0  0  0  0
 28 46  1  0  0  0  0
 28 47  1  0  0  0  0
 28 48  1  0  0  0  0
M  END
> <Name>
21

> <IC50[uM]>
0.078

$$$$
21
  -OEChem-05192314333D
 Structure written by MMmdl.
 48 52  0     1  0  0  0  0  0999 V2000
   -6.3865   12.3338  -12.0432 C   0  0  0  0  0  0  0  0  0  0  0  0
   -6.4856   11.7841  -10.7704 C   0  0  0  0  0  0  0  0  0  0  0  0
   -7.7472   10.5643  -13.0426 C   0  0  0  0  0  0  0  0  0  0  0  0
   -7.0167   11.7500  -13.1460 C   0  0  0  0  0  0  0  0  0  0  0  0
   -7.8303   10.0081  -11.7598 C   0  0  3  0  0  0  0  0  0  0  0  0
   -7.2256   10.6149  -10.6156 C   0  0  0  0  0  0  0  0  0  0  0  0
   -7.6010    9.7518   -9.5145 C   0  0  0  0  0  0  0  0  0  0  0  0
   -8.2842    8.7423   -9.9828 N   0  0  0  0  0  0  0  0  0  0  0  0
   -8.4323    8.8733  -11.2925 N   0  0  0  0  0  0  0  0  0  0  0  0
   -7.3270    9.8938   -8.0225 C   0  0  0  0  0  0  0  0  0  0  0  0
   -5.5587   13.5285  -12.2266 C   0  0  0  0  0  0  0  0  0  0  0  0
   -5.9618   10.4909   -7.7327 C   0  0  0  0  0  0  0  0  0  0  0  0
   -5.8582   11.7635   -7.1652 C   0  0  0  0  0  0  0  0  0  0  0  0
   -4.6045   12.3140   -6.9191 C   0  0  0  0  0  0  0  0  0  0  0  0
   -3.4477   11.5945   -7.2362 C   0  0  0  0  0  0  0  0  0  0  0  0
   -3.5614   10.3184   -7.7958 C   0  0  0  0  0  0  0  0  0  0  0  0
   -4.8112    9.7685   -8.0438 C   0  0  0  0  0  0  0  0  0  0  0  0
   -2.1002   12.1716   -6.9783 C   0  0  0  0  0  0  0  0  0  0  0  0
   -1.7494   13.4275   -6.4902 C   0  0  0  0  0  0  0  0  0  0  0  0
   -0.4141   13.4605   -6.4332 N   0  0  0  0  0  0  0  0  0  0  0  0
    0.1744   12.3664   -6.8143 N   0  0  0  0  0  0  0  0  0  0  0  0
   -0.8092   11.5630   -7.1796 C   0  0  0  0  0  0  0  0  0  0  0  0
    0.4176   14.5730   -6.0003 C   0  0  0  0  0  0  0  0  0  0  0  0
   -4.4279   13.9049  -11.5130 C   0  0  0  0  0  0  0  0  0  0  0  0
   -4.0090   15.0294  -12.0677 N   0  0  0  0  0  0  0  0  0  0  0  0
   -4.8449   15.3445  -13.0534 C   0  0  0  0  0  0  0  0  0  0  0  0
   -5.7816   14.4464  -13.2081 N   0  0  0  0  0  0  0  0  0  0  0  0
   -2.9003   15.7800  -11.6435 C   0  0  0  0  0  0  0  0  0  0  0  0
   -6.0020   12.2509   -9.9250 H   0  0  0  0  0  0  0  0  0  0  0  0
   -8.2188   10.1047  -13.8986 H   0  0  0  0  0  0  0  0  0  0  0  0
   -6.9360   12.2316  -14.1093 H   0  0  0  0  0  0  0  0  0  0  0  0
   -8.7540   10.5755  -11.5731 H   0  0  0  0  0  0  0  0  0  0  0  0
   -8.0279    9.6014   -7.2546 H   0  0  0  0  0  0  0  0  0  0  0  0
   -6.7506   12.3193   -6.9178 H   0  0  0  0  0  0  0  0  0  0  0  0
   -4.5243   13.2985   -6.4825 H   0  0  0  0  0  0  0  0  0  0  0  0
   -3.4463   12.0375   -8.2430 H   0  0  0  0  0  0  0  0  0  0  0  0
   -2.6708    9.7569   -8.0367 H   0  0  0  0  0  0  0  0  0  0  0  0
   -4.8921    8.7825   -8.4771 H   0  0  0  0  0  0  0  0  0  0  0  0
   -2.4257   14.2220   -6.2113 H   0  0  0  0  0  0  0  0  0  0  0  0
   -0.6634   10.5708   -7.5804 H   0  0  0  0  0  0  0  0  0  0  0  0
    1.4777   14.2881   -6.0708 H   0  0  0  0  0  0  0  0  0  0  0  0
    0.2286   15.4443   -6.6446 H   0  0  0  0  0  0  0  0  0  0  0  0
    0.1751   14.8281   -4.9581 H   0  0  0  0  0  0  0  0  0  0  0  0
   -3.9826   13.3858  -10.6771 H   0  0  0  0  0  0  0  0  0  0  0  0
   -4.7595   16.2374  -13.6550 H   0  0  0  0  0  0  0  0  0  0  0  0
   -2.7876   16.6646  -12.2876 H   0  0  0  0  0  0  0  0  0  0  0  0
   -3.0519   16.1015  -10.6025 H   0  0  0  0  0  0  0  0  0  0  0  0
   -1.9928   15.1617  -11.7078 H   0  0  0  0  0  0  0  0  0  0  0  0
  1  2  2  0  0  0  0
  1  4  1  0  0  0  0
  1 11  1  0  0  0  0
  2  6  1  0  0  0  0
  3  4  2  0  0  0  0
  3  5  1  0  0  0  0
  5  6  1  0  0  0  0
  5  9  1  0  0  0  0
  6  7  2  0  0  0  0
  7  8  1  0  0  0  0
  7 10  1  0  0  0  0
  8  9  2  0  0  0  0
 10 12  2  0  0  0  0
 11 24  2  0  0  0  0
 11 27  1  0  0  0  0
 12 13  1  0  0  0  0
 12 17  1  0  0  0  0
 13 14  2  0  0  0  0
 14 15  1  0  0  0  0
 15 16  1  0  0  0  0
 15 18  1  0  0  0  0
 16 17  2  0  0  0  0
 18 19  2  0  0  0  0
 18 22  1  0  0  0  0
 19 20  1  0  0  0  0
 20 21  1  0  0  0  0
 20 23  1  0  0  0  0
 21 22  2  0  0  0  0
 24 25  1  0  0  0  0
 25 26  1  0  0  0  0
 25 28  1  0  0  0  0
 26 27  2  0  0  0  0
  2 29  1  0  0  0  0
  3 30  1  0  0  0  0
  4 31  1  0  0  0  0
  5 32  1  0  0  0  0
 10 33  1  0  0  0  0
 13 34  1  0  0  0  0
 14 35  1  0  0  0  0
 15 36  1  0  0  0  0
 16 37  1  0  0  0  0
 17 38  1  0  0  0  0
 19 39  1  0  0  0  0
 22 40  1  0  0  0  0
 23 41  1  0  0  0  0
 23 42  1  0  0  0  0
 23 43  1  0  0  0  0
 24 44  1  0  0  0  0
 26 45  1  0  0  0  0
 28 46  1  0  0  0  0
 28 47  1  0  0  0  0
 28 48  1  0  0  0  0
M  END
> <Name>
21

> <IC50[uM]>
0.078

$$$$
21
  -OEChem-05192314333D
 Structure written by MMmdl.
 48 52  0     0  0  0  0  0  0999 V2000
   -6.3865   12.3338  -12.0432 C   0  0  0  0  0  0  0  0  0  0  0  0
   -6.4856   11.7841  -10.7704 C   0  0  0  0  0  0  0  0  0  0  0  0
   -7.7472   10.5643  -13.0426 C   0  0  0  0  0  0  0  0  0  0  0  0
   -7.0167   11.7500  -13.1460 C   0  0  0  0  0  0  0  0  0  0  0  0
   -7.8303   10.0081  -11.7598 C   0  0  0  0  0  0  0  0  0  0  0  0
   -7.2256   10.6149  -10.6156 C   0  0  0  0  0  0  0  0  0  0  0  0
   -7.6010    9.7518   -9.5145 C   0  0  0  0  0  0  0  0  0  0  0  0
   -8.2842    8.7423   -9.9828 N   0  0  0  0  0  0  0  0  0  0  0  0
   -8.4323    8.8733  -11.2925 N   0  0  0  0  0  0  0  0  0  0  0  0
   -7.3270    9.8938   -8.0225 C   0  0  0  0  0  0  0  0  0  0  0  0
   -5.5587   13.5285  -12.2266 C   0  0  0  0  0  0  0  0  0  0  0  0
   -5.9618   10.4909   -7.7327 C   0  0  0  0  0  0  0  0  0  0  0  0
   -5.8582   11.7635   -7.1652 C   0  0  0  0  0  0  0  0  0  0  0  0
   -4.6045   12.3140   -6.9191 C   0  0  0  0  0  0  0  0  0  0  0  0
   -3.4477   11.5945   -7.2362 C   0  0  0  0  0  0  0  0  0  0  0  0
   -3.5614   10.3184   -7.7958 C   0  0  0  0  0  0  0  0  0  0  0  0
   -4.8112    9.7685   -8.0438 C   0  0  0  0  0  0  0  0  0  0  0  0
   -2.1002   12.1716   -6.9783 C   0  0  0  0  0  0  0  0  0  0  0  0
   -1.7494   13.4275   -6.4902 C   0  0  0  0  0  0  0  0  0  0  0  0
   -0.4141   13.4605   -6.4332 N   0  0  0  0  0  0  0  0  0  0  0  0
    0.1744   12.3664   -6.8143 N   0  0  0  0  0  0  0  0  0  0  0  0
   -0.8092   11.5630   -7.1796 C   0  0  0  0  0  0  0  0  0  0  0  0
    0.4176   14.5730   -6.0003 C   0  0  0  0  0  0  0  0  0  0  0  0
   -4.4279   13.9049  -11.5130 C   0  0  0  0  0  0  0  0  0  0  0  0
   -4.0090   15.0294  -12.0677 N   0  0  0  0  0  0  0  0  0  0  0  0
   -4.8449   15.3445  -13.0534 C   0  0  0  0  0  0  0  0  0  0  0  0
   -5.7816   14.4464  -13.2081 N   0  0  0  0  0  0  0  0  0  0  0  0
   -2.9003   15.7800  -11.6435 C   0  0  0  0  0  0  0  0  0  0  0  0
   -6.0020   12.2509   -9.9250 H   0  0  0  0  0  0  0  0  0  0  0  0
   -8.2188   10.1047  -13.8986 H   0  0  0  0  0  0  0  0  0  0  0  0
   -7.7125   12.5063  -13.5382 H   0  0  0  0  0  0  0  0  0  0  0  0
   -6.2260   11.5601  -13.8867 H   0  0  0  0  0  0  0  0  0  0  0  0
   -8.0279    9.6014   -7.2546 H   0  0  0  0  0  0  0  0  0  0  0  0
   -6.7506   12.3193   -6.9178 H   0  0  0  0  0  0  0  0  0  0  0  0
   -4.5243   13.2985   -6.4825 H   0  0  0  0  0  0  0  0  0  0  0  0
   -3.4463   12.0375   -8.2430 H   0  0  0  0  0  0  0  0  0  0  0  0
   -2.6708    9.7569   -8.0367 H   0  0  0  0  0  0  0  0  0  0  0  0
   -4.8921    8.7825   -8.4771 H   0  0  0  0  0  0  0  0  0  0  0  0
   -2.4257   14.2220   -6.2113 H   0  0  0  0  0  0  0  0  0  0  0  0
   -0.6634   10.5708   -7.5804 H   0  0  0  0  0  0  0  0  0  0  0  0
    1.4777   14.2881   -6.0708 H   0  0  0  0  0  0  0  0  0  0  0  0
    0.2286   15.4443   -6.6446 H   0  0  0  0  0  0  0  0  0  0  0  0
    0.1751   14.8281   -4.9581 H   0  0  0  0  0  0  0  0  0  0  0  0
   -3.9826   13.3858  -10.6771 H   0  0  0  0  0  0  0  0  0  0  0  0
   -4.7595   16.2374  -13.6550 H   0  0  0  0  0  0  0  0  0  0  0  0
   -2.7876   16.6646  -12.2876 H   0  0  0  0  0  0  0  0  0  0  0  0
   -3.0519   16.1015  -10.6025 H   0  0  0  0  0  0  0  0  0  0  0  0
   -1.9928   15.1617  -11.7078 H   0  0  0  0  0  0  0  0  0  0  0  0
  1  2  2  0  0  0  0
  1  4  1  0  0  0  0
  1 11  1  0  0  0  0
  2  6  1  0  0  0  0
  3  4  1  0  0  0  0
  3  5  2  0  0  0  0
  5  6  1  0  0  0  0
  5  9  1  0  0  0  0
  6  7  2  0  0  0  0
  7  8  1  0  0  0  0
  7 10  1  0  0  0  0
  8  9  2  0  0  0  0
 10 12  2  0  0  0  0
 11 24  2  0  0  0  0
 11 27  1  0  0  0  0
 12 13  1  0  0  0  0
 12 17  1  0  0  0  0
 13 14  2  0  0  0  0
 14 15  1  0  0  0  0
 15 16  1  0  0  0  0
 15 18  1  0  0  0  0
 16 17  2  0  0  0  0
 18 19  2  0  0  0  0
 18 22  1  0  0  0  0
 19 20  1  0  0  0  0
 20 21  1  0  0  0  0
 20 23  1  0  0  0  0
 21 22  2  0  0  0  0
 24 25  1  0  0  0  0
 25 26  1  0  0  0  0
 25 28  1  0  0  0  0
 26 27  2  0  0  0  0
  2 29  1  0  0  0  0
  3 30  1  0  0  0  0
  4 31  1  0  0  0  0
  4 32  1  0  0  0  0
 10 33  1  0  0  0  0
 13 34  1  0  0  0  0
 14 35  1  0  0  0  0
 15 36  1  0  0  0  0
 16 37  1  0  0  0  0
 17 38  1  0  0  0  0
 19 39  1  0  0  0  0
 22 40  1  0  0  0  0
 23 41  1  0  0  0  0
 23 42  1  0  0  0  0
 23 43  1  0  0  0  0
 24 44  1  0  0  0  0
 26 45  1  0  0  0  0
 28 46  1  0  0  0  0
 28 47  1  0  0  0  0
 28 48  1  0  0  0  0
M  END
> <Name>
21

> <IC50[uM]>
0.078

$$$$
21
  -OEChem-05192314333D
 Structure written by MMmdl.
 48 52  0     1  0  0  0  0  0999 V2000
   -6.3865   12.3338  -12.0432 C   0  0  0  0  0  0  0  0  0  0  0  0
   -6.4856   11.7841  -10.7704 C   0  0  0  0  0  0  0  0  0  0  0  0
   -7.7472   10.5643  -13.0426 C   0  0  0  0  0  0  0  0  0  0  0  0
   -7.0167   11.7500  -13.1460 C   0  0  0  0  0  0  0  0  0  0  0  0
   -7.8303   10.0081  -11.7598 C   0  0  3  0  0  0  0  0  0  0  0  0
   -7.2256   10.6149  -10.6156 C   0  0  0  0  0  0  0  0  0  0  0  0
   -7.6010    9.7518   -9.5145 C   0  0  0  0  0  0  0  0  0  0  0  0
   -8.2842    8.7423   -9.9828 N   0  0  0  0  0  0  0  0  0  0  0  0
   -8.4323    8.8733  -11.2925 N   0  0  0  0  0  0  0  0  0  0  0  0
   -7.3270    9.8938   -8.0225 C   0  0  0  0  0  0  0  0  0  0  0  0
   -5.5587   13.5285  -12.2266 C   0  0  0  0  0  0  0  0  0  0  0  0
   -5.9618   10.4909   -7.7327 C   0  0  0  0  0  0  0  0  0  0  0  0
   -5.8582   11.7635   -7.1652 C   0  0  0  0  0  0  0  0  0  0  0  0
   -4.6045   12.3140   -6.9191 C   0  0  0  0  0  0  0  0  0  0  0  0
   -3.4477   11.5945   -7.2362 C   0  0  0  0  0  0  0  0  0  0  0  0
   -3.5614   10.3184   -7.7958 C   0  0  0  0  0  0  0  0  0  0  0  0
   -4.8112    9.7685   -8.0438 C   0  0  0  0  0  0  0  0  0  0  0  0
   -2.1002   12.1716   -6.9783 C   0  0  0  0  0  0  0  0  0  0  0  0
   -1.7494   13.4275   -6.4902 C   0  0  0  0  0  0  0  0  0  0  0  0
   -0.4141   13.4605   -6.4332 N   0  0  0  0  0  0  0  0  0  0  0  0
    0.1744   12.3664   -6.8143 N   0  0  0  0  0  0  0  0  0  0  0  0
   -0.8092   11.5630   -7.1796 C   0  0  0  0  0  0  0  0  0  0  0  0
    0.4176   14.5730   -6.0003 C   0  0  0  0  0  0  0  0  0  0  0  0
   -4.4279   13.9049  -11.5130 C   0  0  0  0  0  0  0  0  0  0  0  0
   -4.0090   15.0294  -12.0677 N   0  0  0  0  0  0  0  0  0  0  0  0
   -4.8449   15.3445  -13.0534 C   0  0  0  0  0  0  0  0  0  0  0  0
   -5.7816   14.4464  -13.2081 N   0  0  0  0  0  0  0  0  0  0  0  0
   -2.9003   15.7800  -11.6435 C   0  0  0  0  0  0  0  0  0  0  0  0
   -6.0020   12.2509   -9.9250 H   0  0  0  0  0  0  0  0  0  0  0  0
   -8.2188   10.1047  -13.8986 H   0  0  0  0  0  0  0  0  0  0  0  0
   -6.9360   12.2316  -14.1093 H   0  0  0  0  0  0  0  0  0  0  0  0
   -8.7540   10.5755  -11.5731 H   0  0  0  0  0  0  0  0  0  0  0  0
   -8.0279    9.6014   -7.2546 H   0  0  0  0  0  0  0  0  0  0  0  0
   -6.7506   12.3193   -6.9178 H   0  0  0  0  0  0  0  0  0  0  0  0
   -4.5243   13.2985   -6.4825 H   0  0  0  0  0  0  0  0  0  0  0  0
   -2.6708    9.7569   -8.0367 H   0  0  0  0  0  0  0  0  0  0  0  0
   -4.8631    8.8277   -7.4762 H   0  0  0  0  0  0  0  0  0  0  0  0
   -4.8544    9.5498   -9.1210 H   0  0  0  0  0  0  0  0  0  0  0  0
   -2.4257   14.2220   -6.2113 H   0  0  0  0  0  0  0  0  0  0  0  0
   -0.6634   10.5708   -7.5804 H   0  0  0  0  0  0  0  0  0  0  0  0
    1.4777   14.2881   -6.0708 H   0  0  0  0  0  0  0  0  0  0  0  0
    0.2286   15.4443   -6.6446 H   0  0  0  0  0  0  0  0  0  0  0  0
    0.1751   14.8281   -4.9581 H   0  0  0  0  0  0  0  0  0  0  0  0
   -3.9826   13.3858  -10.6771 H   0  0  0  0  0  0  0  0  0  0  0  0
   -4.7595   16.2374  -13.6550 H   0  0  0  0  0  0  0  0  0  0  0  0
   -2.7876   16.6646  -12.2876 H   0  0  0  0  0  0  0  0  0  0  0  0
   -3.0519   16.1015  -10.6025 H   0  0  0  0  0  0  0  0  0  0  0  0
   -1.9928   15.1617  -11.7078 H   0  0  0  0  0  0  0  0  0  0  0  0
  1  2  2  0  0  0  0
  1  4  1  0  0  0  0
  1 11  1  0  0  0  0
  2  6  1  0  0  0  0
  3  4  2  0  0  0  0
  3  5  1  0  0  0  0
  5  6  1  0  0  0  0
  5  9  1  0  0  0  0
  6  7  2  0  0  0  0
  7  8  1  0  0  0  0
  7 10  1  0  0  0  0
  8  9  2  0  0  0  0
 10 12  2  3  0  0  0
 11 24  2  0  0  0  0
 11 27  1  0  0  0  0
 12 13  1  0  0  0  0
 12 17  1  0  0  0  0
 13 14  2  0  0  0  0
 14 15  1  0  0  0  0
 15 16  2  0  0  0  0
 15 18  1  0  0  0  0
 16 17  1  0  0  0  0
 18 19  2  0  0  0  0
 18 22  1  0  0  0  0
 19 20  1  0  0  0  0
 20 21  1  0  0  0  0
 20 23  1  0  0  0  0
 21 22  2  0  0  0  0
 24 25  1  0  0  0  0
 25 26  1  0  0  0  0
 25 28  1  0  0  0  0
 26 27  2  0  0  0  0
  2 29  1  0  0  0  0
  3 30  1  0  0  0  0
  4 31  1  0  0  0  0
  5 32  1  0  0  0  0
 10 33  1  0  0  0  0
 13 34  1  0  0  0  0
 14 35  1  0  0  0  0
 16 36  1  0  0  0  0
 17 37  1  0  0  0  0
 17 38  1  0  0  0  0
 19 39  1  0  0  0  0
 22 40  1  0  0  0  0
 23 41  1  0  0  0  0
 23 42  1  0  0  0  0
 23 43  1  0  0  0  0
 24 44  1  0  0  0  0
 26 45  1  0  0  0  0
 28 46  1  0  0  0  0
 28 47  1  0  0  0  0
 28 48  1  0  0  0  0
M  END
> <Name>
21

> <IC50[uM]>
0.078

$$$$
21
  -OEChem-05192314333D
 Structure written by MMmdl.
 48 52  0     0  0  0  0  0  0999 V2000
   -6.3865   12.3338  -12.0432 C   0  0  0  0  0  0  0  0  0  0  0  0
   -6.4856   11.7841  -10.7704 C   0  0  0  0  0  0  0  0  0  0  0  0
   -7.7472   10.5643  -13.0426 C   0  0  0  0  0  0  0  0  0  0  0  0
   -7.0167   11.7500  -13.1460 C   0  0  0  0  0  0  0  0  0  0  0  0
   -7.8303   10.0081  -11.7598 C   0  0  0  0  0  0  0  0  0  0  0  0
   -7.2256   10.6149  -10.6156 C   0  0  0  0  0  0  0  0  0  0  0  0
   -7.6010    9.7518   -9.5145 C   0  0  0  0  0  0  0  0  0  0  0  0
   -8.2842    8.7423   -9.9828 N   0  0  0  0  0  0  0  0  0  0  0  0
   -8.4323    8.8733  -11.2925 N   0  0  0  0  0  0  0  0  0  0  0  0
   -7.3270    9.8938   -8.0225 C   0  0  0  0  0  0  0  0  0  0  0  0
   -5.5587   13.5285  -12.2266 C   0  0  0  0  0  0  0  0  0  0  0  0
   -5.9618   10.4909   -7.7327 C   0  0  0  0  0  0  0  0  0  0  0  0
   -5.8582   11.7635   -7.1652 C   0  0  0  0  0  0  0  0  0  0  0  0
   -4.6045   12.3140   -6.9191 C   0  0  0  0  0  0  0  0  0  0  0  0
   -3.4477   11.5945   -7.2362 C   0  0  0  0  0  0  0  0  0  0  0  0
   -3.5614   10.3184   -7.7958 C   0  0  0  0  0  0  0  0  0  0  0  0
   -4.8112    9.7685   -8.0438 C   0  0  0  0  0  0  0  0  0  0  0  0
   -2.1002   12.1716   -6.9783 C   0  0  0  0  0  0  0  0  0  0  0  0
   -1.7494   13.4275   -6.4902 C   0  0  0  0  0  0  0  0  0  0  0  0
   -0.4141   13.4605   -6.4332 N   0  0  0  0  0  0  0  0  0  0  0  0
    0.1744   12.3664   -6.8143 N   0  0  0  0  0  0  0  0  0  0  0  0
   -0.8092   11.5630   -7.1796 C   0  0  0  0  0  0  0  0  0  0  0  0
    0.4176   14.5730   -6.0003 C   0  0  0  0  0  0  0  0  0  0  0  0
   -4.4279   13.9049  -11.5130 C   0  0  0  0  0  0  0  0  0  0  0  0
   -4.0090   15.0294  -12.0677 N   0  0  0  0  0  0  0  0  0  0  0  0
   -4.8449   15.3445  -13.0534 C   0  0  0  0  0  0  0  0  0  0  0  0
   -5.7816   14.4464  -13.2081 N   0  0  0  0  0  0  0  0  0  0  0  0
   -2.9003   15.7800  -11.6435 C   0  0  0  0  0  0  0  0  0  0  0  0
   -6.0020   12.2509   -9.9250 H   0  0  0  0  0  0  0  0  0  0  0  0
   -8.2188   10.1047  -13.8986 H   0  0  0  0  0  0  0  0  0  0  0  0
   -7.7125   12.5063  -13.5382 H   0  0  0  0  0  0  0  0  0  0  0  0
   -6.2260   11.5601  -13.8867 H   0  0  0  0  0  0  0  0  0  0  0  0
   -8.0279    9.6014   -7.2546 H   0  0  0  0  0  0  0  0  0  0  0  0
   -6.7506   12.3193   -6.9178 H   0  0  0  0  0  0  0  0  0  0  0  0
   -4.5243   13.2985   -6.4825 H   0  0  0  0  0  0  0  0  0  0  0  0
   -2.6708    9.7569   -8.0367 H   0  0  0  0  0  0  0  0  0  0  0  0
   -4.8631    8.8277   -7.4762 H   0  0  0  0  0  0  0  0  0  0  0  0
   -4.8544    9.5498   -9.1210 H   0  0  0  0  0  0  0  0  0  0  0  0
   -2.4257   14.2220   -6.2113 H   0  0  0  0  0  0  0  0  0  0  0  0
   -0.6634   10.5708   -7.5804 H   0  0  0  0  0  0  0  0  0  0  0  0
    1.4777   14.2881   -6.0708 H   0  0  0  0  0  0  0  0  0  0  0  0
    0.2286   15.4443   -6.6446 H   0  0  0  0  0  0  0  0  0  0  0  0
    0.1751   14.8281   -4.9581 H   0  0  0  0  0  0  0  0  0  0  0  0
   -3.9826   13.3858  -10.6771 H   0  0  0  0  0  0  0  0  0  0  0  0
   -4.7595   16.2374  -13.6550 H   0  0  0  0  0  0  0  0  0  0  0  0
   -2.7876   16.6646  -12.2876 H   0  0  0  0  0  0  0  0  0  0  0  0
   -3.0519   16.1015  -10.6025 H   0  0  0  0  0  0  0  0  0  0  0  0
   -1.9928   15.1617  -11.7078 H   0  0  0  0  0  0  0  0  0  0  0  0
  1  2  2  0  0  0  0
  1  4  1  0  0  0  0
  1 11  1  0  0  0  0
  2  6  1  0  0  0  0
  3  4  1  0  0  0  0
  3  5  2  0  0  0  0
  5  6  1  0  0  0  0
  5  9  1  0  0  0  0
  6  7  2  0  0  0  0
  7  8  1  0  0  0  0
  7 10  1  0  0  0  0
  8  9  2  0  0  0  0
 10 12  2  3  0  0  0
 11 24  2  0  0  0  0
 11 27  1  0  0  0  0
 12 13  1  0  0  0  0
 12 17  1  0  0  0  0
 13 14  2  0  0  0  0
 14 15  1  0  0  0  0
 15 16  2  0  0  0  0
 15 18  1  0  0  0  0
 16 17  1  0  0  0  0
 18 19  2  0  0  0  0
 18 22  1  0  0  0  0
 19 20  1  0  0  0  0
 20 21  1  0  0  0  0
 20 23  1  0  0  0  0
 21 22  2  0  0  0  0
 24 25  1  0  0  0  0
 25 26  1  0  0  0  0
 25 28  1  0  0  0  0
 26 27  2  0  0  0  0
  2 29  1  0  0  0  0
  3 30  1  0  0  0  0
  4 31  1  0  0  0  0
  4 32  1  0  0  0  0
 10 33  1  0  0  0  0
 13 34  1  0  0  0  0
 14 35  1  0  0  0  0
 16 36  1  0  0  0  0
 17 37  1  0  0  0  0
 17 38  1  0  0  0  0
 19 39  1  0  0  0  0
 22 40  1  0  0  0  0
 23 41  1  0  0  0  0
 23 42  1  0  0  0  0
 23 43  1  0  0  0  0
 24 44  1  0  0  0  0
 26 45  1  0  0  0  0
 28 46  1  0  0  0  0
 28 47  1  0  0  0  0
 28 48  1  0  0  0  0
M  END
> <Name>
21

> <IC50[uM]>
0.078

$$$$
21
  -OEChem-05192314333D
 Structure written by MMmdl.
 48 52  0     0  0  0  0  0  0999 V2000
   -6.3865   12.3338  -12.0432 C   0  0  0  0  0  0  0  0  0  0  0  0
   -6.4856   11.7841  -10.7704 C   0  0  0  0  0  0  0  0  0  0  0  0
   -7.7472   10.5643  -13.0426 C   0  0  0  0  0  0  0  0  0  0  0  0
   -7.0167   11.7500  -13.1460 C   0  0  0  0  0  0  0  0  0  0  0  0
   -7.8303   10.0081  -11.7598 C   0  0  0  0  0  0  0  0  0  0  0  0
   -7.2256   10.6149  -10.6156 C   0  0  0  0  0  0  0  0  0  0  0  0
   -7.6010    9.7518   -9.5145 C   0  0  0  0  0  0  0  0  0  0  0  0
   -8.2842    8.7423   -9.9828 N   0  0  0  0  0  0  0  0  0  0  0  0
   -8.4323    8.8733  -11.2925 N   0  0  0  0  0  0  0  0  0  0  0  0
   -7.3270    9.8938   -8.0225 C   0  0  0  0  0  0  0  0  0  0  0  0
   -5.5587   13.5285  -12.2266 C   0  0  0  0  0  0  0  0  0  0  0  0
   -5.9618   10.4909   -7.7327 C   0  0  0  0  0  0  0  0  0  0  0  0
   -5.8582   11.7635   -7.1652 C   0  0  0  0  0  0  0  0  0  0  0  0
   -4.6045   12.3140   -6.9191 C   0  0  0  0  0  0  0  0  0  0  0  0
   -3.4477   11.5945   -7.2362 C   0  0  0  0  0  0  0  0  0  0  0  0
   -3.5614   10.3184   -7.7958 C   0  0  0  0  0  0  0  0  0  0  0  0
   -4.8112    9.7685   -8.0438 C   0  0  0  0  0  0  0  0  0  0  0  0
   -2.1002   12.1716   -6.9783 C   0  0  0  0  0  0  0  0  0  0  0  0
   -1.7494   13.4275   -6.4902 C   0  0  0  0  0  0  0  0  0  0  0  0
   -0.4141   13.4605   -6.4332 N   0  0  0  0  0  0  0  0  0  0  0  0
    0.1744   12.3664   -6.8143 N   0  0  0  0  0  0  0  0  0  0  0  0
   -0.8092   11.5630   -7.1796 C   0  0  0  0  0  0  0  0  0  0  0  0
    0.4176   14.5730   -6.0003 C   0  0  0  0  0  0  0  0  0  0  0  0
   -4.4279   13.9049  -11.5130 C   0  0  0  0  0  0  0  0  0  0  0  0
   -4.0090   15.0294  -12.0677 N   0  0  0  0  0  0  0  0  0  0  0  0
   -4.8449   15.3445  -13.0534 C   0  0  0  0  0  0  0  0  0  0  0  0
   -5.7816   14.4464  -13.2081 N   0  0  0  0  0  0  0  0  0  0  0  0
   -2.9003   15.7800  -11.6435 C   0  0  0  0  0  0  0  0  0  0  0  0
   -5.4627   11.5709  -10.4264 H   0  0  0  0  0  0  0  0  0  0  0  0
   -6.9398   12.5463  -10.1202 H   0  0  0  0  0  0  0  0  0  0  0  0
   -8.2188   10.1047  -13.8986 H   0  0  0  0  0  0  0  0  0  0  0  0
   -6.9360   12.2316  -14.1093 H   0  0  0  0  0  0  0  0  0  0  0  0
   -8.0279    9.6014   -7.2546 H   0  0  0  0  0  0  0  0  0  0  0  0
   -6.7506   12.3193   -6.9178 H   0  0  0  0  0  0  0  0  0  0  0  0
   -4.5243   13.2985   -6.4825 H   0  0  0  0  0  0  0  0  0  0  0  0
   -3.4463   12.0375   -8.2430 H   0  0  0  0  0  0  0  0  0  0  0  0
   -2.6708    9.7569   -8.0367 H   0  0  0  0  0  0  0  0  0  0  0  0
   -4.8921    8.7825   -8.4771 H   0  0  0  0  0  0  0  0  0  0  0  0
   -2.4257   14.2220   -6.2113 H   0  0  0  0  0  0  0  0  0  0  0  0
   -0.6634   10.5708   -7.5804 H   0  0  0  0  0  0  0  0  0  0  0  0
    1.4777   14.2881   -6.0708 H   0  0  0  0  0  0  0  0  0  0  0  0
    0.2286   15.4443   -6.6446 H   0  0  0  0  0  0  0  0  0  0  0  0
    0.1751   14.8281   -4.9581 H   0  0  0  0  0  0  0  0  0  0  0  0
   -3.9826   13.3858  -10.6771 H   0  0  0  0  0  0  0  0  0  0  0  0
   -4.7595   16.2374  -13.6550 H   0  0  0  0  0  0  0  0  0  0  0  0
   -2.7876   16.6646  -12.2876 H   0  0  0  0  0  0  0  0  0  0  0  0
   -3.0519   16.1015  -10.6025 H   0  0  0  0  0  0  0  0  0  0  0  0
   -1.9928   15.1617  -11.7078 H   0  0  0  0  0  0  0  0  0  0  0  0
  1  2  1  0  0  0  0
  1  4  2  0  0  0  0
  1 11  1  0  0  0  0
  2  6  1  0  0  0  0
  3  4  1  0  0  0  0
  3  5  2  0  0  0  0
  5  6  1  0  0  0  0
  5  9  1  0  0  0  0
  6  7  2  0  0  0  0
  7  8  1  0  0  0  0
  7 10  1  0  0  0  0
  8  9  2  0  0  0  0
 10 12  2  0  0  0  0
 11 24  2  0  0  0  0
 11 27  1  0  0  0  0
 12 13  1  0  0  0  0
 12 17  1  0  0  0  0
 13 14  2  0  0  0  0
 14 15  1  0  0  0  0
 15 16  1  0  0  0  0
 15 18  1  0  0  0  0
 16 17  2  0  0  0  0
 18 19  2  0  0  0  0
 18 22  1  0  0  0  0
 19 20  1  0  0  0  0
 20 21  1  0  0  0  0
 20 23  1  0  0  0  0
 21 22  2  0  0  0  0
 24 25  1  0  0  0  0
 25 26  1  0  0  0  0
 25 28  1  0  0  0  0
 26 27  2  0  0  0  0
  2 29  1  0  0  0  0
  2 30  1  0  0  0  0
  3 31  1  0  0  0  0
  4 32  1  0  0  0  0
 10 33  1  0  0  0  0
 13 34  1  0  0  0  0
 14 35  1  0  0  0  0
 15 36  1  0  0  0  0
 16 37  1  0  0  0  0
 17 38  1  0  0  0  0
 19 39  1  0  0  0  0
 22 40  1  0  0  0  0
 23 41  1  0  0  0  0
 23 42  1  0  0  0  0
 23 43  1  0  0  0  0
 24 44  1  0  0  0  0
 26 45  1  0  0  0  0
 28 46  1  0  0  0  0
 28 47  1  0  0  0  0
 28 48  1  0  0  0  0
M  END
> <Name>
21

> <IC50[uM]>
0.078

$$$$
21
  -OEChem-05192314333D
 Structure written by MMmdl.
 48 52  0     0  0  0  0  0  0999 V2000
   -6.3865   12.3338  -12.0432 C   0  0  0  0  0  0  0  0  0  0  0  0
   -6.4856   11.7841  -10.7704 C   0  0  0  0  0  0  0  0  0  0  0  0
   -7.7472   10.5643  -13.0426 C   0  0  0  0  0  0  0  0  0  0  0  0
   -7.0167   11.7500  -13.1460 C   0  0  0  0  0  0  0  0  0  0  0  0
   -7.8303   10.0081  -11.7598 C   0  0  0  0  0  0  0  0  0  0  0  0
   -7.2256   10.6149  -10.6156 C   0  0  0  0  0  0  0  0  0  0  0  0
   -7.6010    9.7518   -9.5145 C   0  0  0  0  0  0  0  0  0  0  0  0
   -8.2842    8.7423   -9.9828 N   0  0  0  0  0  0  0  0  0  0  0  0
   -8.4323    8.8733  -11.2925 N   0  0  0  0  0  0  0  0  0  0  0  0
   -7.3270    9.8938   -8.0225 C   0  0  0  0  0  0  0  0  0  0  0  0
   -5.5587   13.5285  -12.2266 C   0  0  0  0  0  0  0  0  0  0  0  0
   -5.9618   10.4909   -7.7327 C   0  0  0  0  0  0  0  0  0  0  0  0
   -5.8582   11.7635   -7.1652 C   0  0  0  0  0  0  0  0  0  0  0  0
   -4.6045   12.3140   -6.9191 C   0  0  0  0  0  0  0  0  0  0  0  0
   -3.4477   11.5945   -7.2362 C   0  0  0  0  0  0  0  0  0  0  0  0
   -3.5614   10.3184   -7.7958 C   0  0  0  0  0  0  0  0  0  0  0  0
   -4.8112    9.7685   -8.0438 C   0  0  0  0  0  0  0  0  0  0  0  0
   -2.1002   12.1716   -6.9783 C   0  0  0  0  0  0  0  0  0  0  0  0
   -1.7494   13.4275   -6.4902 C   0  0  0  0  0  0  0  0  0  0  0  0
   -0.4141   13.4605   -6.4332 N   0  0  0  0  0  0  0  0  0  0  0  0
    0.1744   12.3664   -6.8143 N   0  0  0  0  0  0  0  0  0  0  0  0
   -0.8092   11.5630   -7.1796 C   0  0  0  0  0  0  0  0  0  0  0  0
    0.4176   14.5730   -6.0003 C   0  0  0  0  0  0  0  0  0  0  0  0
   -4.4279   13.9049  -11.5130 C   0  0  0  0  0  0  0  0  0  0  0  0
   -4.0090   15.0294  -12.0677 N   0  0  0  0  0  0  0  0  0  0  0  0
   -4.8449   15.3445  -13.0534 C   0  0  0  0  0  0  0  0  0  0  0  0
   -5.7816   14.4464  -13.2081 N   0  0  0  0  0  0  0  0  0  0  0  0
   -2.9003   15.7800  -11.6435 C   0  0  0  0  0  0  0  0  0  0  0  0
   -5.4627   11.5709  -10.4264 H   0  0  0  0  0  0  0  0  0  0  0  0
   -6.9398   12.5463  -10.1202 H   0  0  0  0  0  0  0  0  0  0  0  0
   -8.2188   10.1047  -13.8986 H   0  0  0  0  0  0  0  0  0  0  0  0
   -6.9360   12.2316  -14.1093 H   0  0  0  0  0  0  0  0  0  0  0  0
   -8.0279    9.6014   -7.2546 H   0  0  0  0  0  0  0  0  0  0  0  0
   -6.7506   12.3193   -6.9178 H   0  0  0  0  0  0  0  0  0  0  0  0
   -4.5243   13.2985   -6.4825 H   0  0  0  0  0  0  0  0  0  0  0  0
   -2.6708    9.7569   -8.0367 H   0  0  0  0  0  0  0  0  0  0  0  0
   -4.8631    8.8277   -7.4762 H   0  0  0  0  0  0  0  0  0  0  0  0
   -4.8544    9.5498   -9.1210 H   0  0  0  0  0  0  0  0  0  0  0  0
   -2.4257   14.2220   -6.2113 H   0  0  0  0  0  0  0  0  0  0  0  0
   -0.6634   10.5708   -7.5804 H   0  0  0  0  0  0  0  0  0  0  0  0
    1.4777   14.2881   -6.0708 H   0  0  0  0  0  0  0  0  0  0  0  0
    0.2286   15.4443   -6.6446 H   0  0  0  0  0  0  0  0  0  0  0  0
    0.1751   14.8281   -4.9581 H   0  0  0  0  0  0  0  0  0  0  0  0
   -3.9826   13.3858  -10.6771 H   0  0  0  0  0  0  0  0  0  0  0  0
   -4.7595   16.2374  -13.6550 H   0  0  0  0  0  0  0  0  0  0  0  0
   -2.7876   16.6646  -12.2876 H   0  0  0  0  0  0  0  0  0  0  0  0
   -3.0519   16.1015  -10.6025 H   0  0  0  0  0  0  0  0  0  0  0  0
   -1.9928   15.1617  -11.7078 H   0  0  0  0  0  0  0  0  0  0  0  0
  1  2  1  0  0  0  0
  1  4  2  0  0  0  0
  1 11  1  0  0  0  0
  2  6  1  0  0  0  0
  3  4  1  0  0  0  0
  3  5  2  0  0  0  0
  5  6  1  0  0  0  0
  5  9  1  0  0  0  0
  6  7  2  0  0  0  0
  7  8  1  0  0  0  0
  7 10  1  0  0  0  0
  8  9  2  0  0  0  0
 10 12  2  3  0  0  0
 11 24  2  0  0  0  0
 11 27  1  0  0  0  0
 12 13  1  0  0  0  0
 12 17  1  0  0  0  0
 13 14  2  0  0  0  0
 14 15  1  0  0  0  0
 15 16  2  0  0  0  0
 15 18  1  0  0  0  0
 16 17  1  0  0  0  0
 18 19  2  0  0  0  0
 18 22  1  0  0  0  0
 19 20  1  0  0  0  0
 20 21  1  0  0  0  0
 20 23  1  0  0  0  0
 21 22  2  0  0  0  0
 24 25  1  0  0  0  0
 25 26  1  0  0  0  0
 25 28  1  0  0  0  0
 26 27  2  0  0  0  0
  2 29  1  0  0  0  0
  2 30  1  0  0  0  0
  3 31  1  0  0  0  0
  4 32  1  0  0  0  0
 10 33  1  0  0  0  0
 13 34  1  0  0  0  0
 14 35  1  0  0  0  0
 16 36  1  0  0  0  0
 17 37  1  0  0  0  0
 17 38  1  0  0  0  0
 19 39  1  0  0  0  0
 22 40  1  0  0  0  0
 23 41  1  0  0  0  0
 23 42  1  0  0  0  0
 23 43  1  0  0  0  0
 24 44  1  0  0  0  0
 26 45  1  0  0  0  0
 28 46  1  0  0  0  0
 28 47  1  0  0  0  0
 28 48  1  0  0  0  0
M  END
> <Name>
21

> <IC50[uM]>
0.078

$$$$
