37
  -OEChem-05192314333D
 Structure written by MMmdl.
 52 56  0     0  0  0  0  0  0999 V2000
   -6.3714   12.3591  -12.0053 C   0  0  0  0  0  0  0  0  0  0  0  0
   -6.5147   11.8055  -10.7304 C   0  0  0  0  0  0  0  0  0  0  0  0
   -7.7273   10.5756  -13.0301 C   0  0  0  0  0  0  0  0  0  0  0  0
   -6.9920   11.7699  -13.1223 C   0  0  0  0  0  0  0  0  0  0  0  0
   -7.8210   10.0087  -11.7569 C   0  0  0  0  0  0  0  0  0  0  0  0
   -7.2407   10.6185  -10.5997 C   0  0  0  0  0  0  0  0  0  0  0  0
   -7.6132    9.7471   -9.5123 C   0  0  0  0  0  0  0  0  0  0  0  0
   -8.2794    8.7320   -9.9893 N   0  0  0  0  0  0  0  0  0  0  0  0
   -8.4144    8.8594  -11.3005 N   0  0  0  0  0  0  0  0  0  0  0  0
   -7.3370    9.8875   -8.0251 C   0  0  0  0  0  0  0  0  0  0  0  0
   -4.3570   13.7205  -11.5014 N   0  0  0  0  0  0  0  0  0  0  0  0
   -5.5485   13.6383  -12.1900 C   0  0  0  0  0  0  0  0  0  0  0  0
   -5.9462   14.5274  -12.9449 O   0  0  0  0  0  0  0  0  0  0  0  0
   -5.9602   10.4847   -7.7357 C   0  0  0  0  0  0  0  0  0  0  0  0
   -4.8090    9.7649   -8.0550 C   0  0  0  0  0  0  0  0  0  0  0  0
   -3.5517   10.3138   -7.8050 C   0  0  0  0  0  0  0  0  0  0  0  0
   -3.4444   11.5886   -7.2367 C   0  0  0  0  0  0  0  0  0  0  0  0
   -4.5954   12.3038   -6.9144 C   0  0  0  0  0  0  0  0  0  0  0  0
   -5.8508   11.7543   -7.1602 C   0  0  0  0  0  0  0  0  0  0  0  0
   -2.1010   12.1799   -6.9735 C   0  0  0  0  0  0  0  0  0  0  0  0
   -1.7694   13.4361   -6.4722 C   0  0  0  0  0  0  0  0  0  0  0  0
   -0.4342   13.4933   -6.4118 N   0  0  0  0  0  0  0  0  0  0  0  0
    0.1686   12.4094   -6.8087 N   0  0  0  0  0  0  0  0  0  0  0  0
   -0.8030   11.5907   -7.1765 C   0  0  0  0  0  0  0  0  0  0  0  0
    0.3824   14.6122   -5.9578 C   0  0  0  0  0  0  0  0  0  0  0  0
   -3.5015   14.9079  -11.6138 C   0  0  0  0  0  0  0  0  0  0  0  0
   -2.1980   14.4648  -10.9240 C   0  0  0  0  0  0  0  0  0  0  0  0
   -2.2178   12.9422  -10.9897 C   0  0  0  0  0  0  0  0  0  0  0  0
   -3.7152   12.5763  -10.8194 C   0  0  0  0  0  0  0  0  0  0  0  0
   -6.0752   12.2832   -9.8672 H   0  0  0  0  0  0  0  0  0  0  0  0
   -8.1926   10.1227  -13.8931 H   0  0  0  0  0  0  0  0  0  0  0  0
   -6.9001   12.2523  -14.0842 H   0  0  0  0  0  0  0  0  0  0  0  0
   -8.6350    7.9714   -9.4461 H   0  0  0  0  0  0  0  0  0  0  0  0
   -8.1041   10.5414   -7.5847 H   0  0  0  0  0  0  0  0  0  0  0  0
   -7.3935    8.8918   -7.5609 H   0  0  0  0  0  0  0  0  0  0  0  0
   -4.8913    8.7824   -8.4959 H   0  0  0  0  0  0  0  0  0  0  0  0
   -2.6604    9.7552   -8.0499 H   0  0  0  0  0  0  0  0  0  0  0  0
   -4.5139   13.2862   -6.4731 H   0  0  0  0  0  0  0  0  0  0  0  0
   -6.7415   12.3096   -6.9059 H   0  0  0  0  0  0  0  0  0  0  0  0
   -2.4594   14.2163   -6.1864 H   0  0  0  0  0  0  0  0  0  0  0  0
   -0.6424   10.6017   -7.5796 H   0  0  0  0  0  0  0  0  0  0  0  0
    1.4465   14.3426   -6.0284 H   0  0  0  0  0  0  0  0  0  0  0  0
    0.1842   15.4907   -6.5894 H   0  0  0  0  0  0  0  0  0  0  0  0
    0.1326   14.8481   -4.9128 H   0  0  0  0  0  0  0  0  0  0  0  0
   -3.3223   15.1673  -12.6676 H   0  0  0  0  0  0  0  0  0  0  0  0
   -3.9499   15.7683  -11.0955 H   0  0  0  0  0  0  0  0  0  0  0  0
   -1.3227   14.8639  -11.4575 H   0  0  0  0  0  0  0  0  0  0  0  0
   -2.1776   14.8069   -9.8787 H   0  0  0  0  0  0  0  0  0  0  0  0
   -1.8370   12.5881  -11.9590 H   0  0  0  0  0  0  0  0  0  0  0  0
   -1.6150   12.5084  -10.1783 H   0  0  0  0  0  0  0  0  0  0  0  0
   -4.0015   12.5244   -9.7586 H   0  0  0  0  0  0  0  0  0  0  0  0
   -3.9579   11.6231  -11.3118 H   0  0  0  0  0  0  0  0  0  0  0  0
  1  2  2  0  0  0  0
  1  4  1  0  0  0  0
  1 12  1  0  0  0  0
  2  6  1  0  0  0  0
  3  4  2  0  0  0  0
  3  5  1  0  0  0  0
  5  6  1  0  0  0  0
  5  9  2  0  0  0  0
  6  7  2  0  0  0  0
  7  8  1  0  0  0  0
  7 10  1  0  0  0  0
  8  9  1  0  0  0  0
 10 14  1  0  0  0  0
 11 12  1  0  0  0  0
 11 26  1  0  0  0  0
 11 29  1  0  0  0  0
 12 13  2  0  0  0  0
 14 15  2  0  0  0  0
 14 19  1  0  0  0  0
 15 16  1  0  0  0  0
 16 17  2  0  0  0  0
 17 18  1  0  0  0  0
 17 20  1  0  0  0  0
 18 19  2  0  0  0  0
 20 21  2  0  0  0  0
 20 24  1  0  0  0  0
 21 22  1  0  0  0  0
 22 23  1  0  0  0  0
 22 25  1  0  0  0  0
 23 24  2  0  0  0  0
 26 27  1  0  0  0  0
 27 28  1  0  0  0  0
 28 29  1  0  0  0  0
  2 30  1  0  0  0  0
  3 31  1  0  0  0  0
  4 32  1  0  0  0  0
  8 33  1  0  0  0  0
 10 34  1  0  0  0  0
 10 35  1  0  0  0  0
 15 36  1  0  0  0  0
 16 37  1  0  0  0  0
 18 38  1  0  0  0  0
 19 39  1  0  0  0  0
 21 40  1  0  0  0  0
 24 41  1  0  0  0  0
 25 42  1  0  0  0  0
 25 43  1  0  0  0  0
 25 44  1  0  0  0  0
 26 45  1  0  0  0  0
 26 46  1  0  0  0  0
 27 47  1  0  0  0  0
 27 48  1  0  0  0  0
 28 49  1  0  0  0  0
 28 50  1  0  0  0  0
 29 51  1  0  0  0  0
 29 52  1  0  0  0  0
M  END
> <Name>
37

> <IC50[uM]>
0.004

$$$$
37
  -OEChem-05192314333D
 Structure written by MMmdl.
 52 56  0     0  0  0  0  0  0999 V2000
   -6.3714   12.3591  -12.0053 C   0  0  0  0  0  0  0  0  0  0  0  0
   -6.5147   11.8055  -10.7304 C   0  0  0  0  0  0  0  0  0  0  0  0
   -7.7273   10.5756  -13.0301 C   0  0  0  0  0  0  0  0  0  0  0  0
   -6.9920   11.7699  -13.1223 C   0  0  0  0  0  0  0  0  0  0  0  0
   -7.8210   10.0087  -11.7569 C   0  0  0  0  0  0  0  0  0  0  0  0
   -7.2407   10.6185  -10.5997 C   0  0  0  0  0  0  0  0  0  0  0  0
   -7.6132    9.7471   -9.5123 C   0  0  0  0  0  0  0  0  0  0  0  0
   -8.2794    8.7320   -9.9893 N   0  0  0  0  0  0  0  0  0  0  0  0
   -8.4144    8.8594  -11.3005 N   0  0  0  0  0  0  0  0  0  0  0  0
   -7.3370    9.8875   -8.0251 C   0  0  0  0  0  0  0  0  0  0  0  0
   -4.3570   13.7205  -11.5014 N   0  0  0  0  0  0  0  0  0  0  0  0
   -5.5485   13.6383  -12.1900 C   0  0  0  0  0  0  0  0  0  0  0  0
   -5.9462   14.5274  -12.9449 O   0  0  0  0  0  0  0  0  0  0  0  0
   -5.9602   10.4847   -7.7357 C   0  0  0  0  0  0  0  0  0  0  0  0
   -4.8090    9.7649   -8.0550 C   0  0  0  0  0  0  0  0  0  0  0  0
   -3.5517   10.3138   -7.8050 C   0  0  0  0  0  0  0  0  0  0  0  0
   -3.4444   11.5886   -7.2367 C   0  0  0  0  0  0  0  0  0  0  0  0
   -4.5954   12.3038   -6.9144 C   0  0  0  0  0  0  0  0  0  0  0  0
   -5.8508   11.7543   -7.1602 C   0  0  0  0  0  0  0  0  0  0  0  0
   -2.1010   12.1799   -6.9735 C   0  0  0  0  0  0  0  0  0  0  0  0
   -1.7694   13.4361   -6.4722 C   0  0  0  0  0  0  0  0  0  0  0  0
   -0.4342   13.4933   -6.4118 N   0  0  0  0  0  0  0  0  0  0  0  0
    0.1686   12.4094   -6.8087 N   0  0  0  0  0  0  0  0  0  0  0  0
   -0.8030   11.5907   -7.1765 C   0  0  0  0  0  0  0  0  0  0  0  0
    0.3824   14.6122   -5.9578 C   0  0  0  0  0  0  0  0  0  0  0  0
   -3.5015   14.9079  -11.6138 C   0  0  0  0  0  0  0  0  0  0  0  0
   -2.1980   14.4648  -10.9240 C   0  0  0  0  0  0  0  0  0  0  0  0
   -2.2178   12.9422  -10.9897 C   0  0  0  0  0  0  0  0  0  0  0  0
   -3.7152   12.5763  -10.8194 C   0  0  0  0  0  0  0  0  0  0  0  0
   -6.0752   12.2832   -9.8672 H   0  0  0  0  0  0  0  0  0  0  0  0
   -8.1926   10.1227  -13.8931 H   0  0  0  0  0  0  0  0  0  0  0  0
   -6.9001   12.2523  -14.0842 H   0  0  0  0  0  0  0  0  0  0  0  0
   -8.8891    8.2007  -11.8843 H   0  0  0  0  0  0  0  0  0  0  0  0
   -8.1041   10.5414   -7.5847 H   0  0  0  0  0  0  0  0  0  0  0  0
   -7.3935    8.8918   -7.5609 H   0  0  0  0  0  0  0  0  0  0  0  0
   -4.8913    8.7824   -8.4959 H   0  0  0  0  0  0  0  0  0  0  0  0
   -2.6604    9.7552   -8.0499 H   0  0  0  0  0  0  0  0  0  0  0  0
   -4.5139   13.2862   -6.4731 H   0  0  0  0  0  0  0  0  0  0  0  0
   -6.7415   12.3096   -6.9059 H   0  0  0  0  0  0  0  0  0  0  0  0
   -2.4594   14.2163   -6.1864 H   0  0  0  0  0  0  0  0  0  0  0  0
   -0.6424   10.6017   -7.5796 H   0  0  0  0  0  0  0  0  0  0  0  0
    1.4465   14.3426   -6.0284 H   0  0  0  0  0  0  0  0  0  0  0  0
    0.1842   15.4907   -6.5894 H   0  0  0  0  0  0  0  0  0  0  0  0
    0.1326   14.8481   -4.9128 H   0  0  0  0  0  0  0  0  0  0  0  0
   -3.3223   15.1673  -12.6676 H   0  0  0  0  0  0  0  0  0  0  0  0
   -3.9499   15.7683  -11.0955 H   0  0  0  0  0  0  0  0  0  0  0  0
   -1.3227   14.8639  -11.4575 H   0  0  0  0  0  0  0  0  0  0  0  0
   -2.1776   14.8069   -9.8787 H   0  0  0  0  0  0  0  0  0  0  0  0
   -1.8370   12.5881  -11.9590 H   0  0  0  0  0  0  0  0  0  0  0  0
   -1.6150   12.5084  -10.1783 H   0  0  0  0  0  0  0  0  0  0  0  0
   -4.0015   12.5244   -9.7586 H   0  0  0  0  0  0  0  0  0  0  0  0
   -3.9579   11.6231  -11.3118 H   0  0  0  0  0  0  0  0  0  0  0  0
  1  2  2  0  0  0  0
  1  4  1  0  0  0  0
  1 12  1  0  0  0  0
  2  6  1  0  0  0  0
  3  4  2  0  0  0  0
  3  5  1  0  0  0  0
  5  6  2  0  0  0  0
  5  9  1  0  0  0  0
  6  7  1  0  0  0  0
  7  8  2  0  0  0  0
  7 10  1  0  0  0  0
  8  9  1  0  0  0  0
 10 14  1  0  0  0  0
 11 12  1  0  0  0  0
 11 26  1  0  0  0  0
 11 29  1  0  0  0  0
 12 13  2  0  0  0  0
 14 15  2  0  0  0  0
 14 19  1  0  0  0  0
 15 16  1  0  0  0  0
 16 17  2  0  0  0  0
 17 18  1  0  0  0  0
 17 20  1  0  0  0  0
 18 19  2  0  0  0  0
 20 21  2  0  0  0  0
 20 24  1  0  0  0  0
 21 22  1  0  0  0  0
 22 23  1  0  0  0  0
 22 25  1  0  0  0  0
 23 24  2  0  0  0  0
 26 27  1  0  0  0  0
 27 28  1  0  0  0  0
 28 29  1  0  0  0  0
  2 30  1  0  0  0  0
  3 31  1  0  0  0  0
  4 32  1  0  0  0  0
  9 33  1  0  0  0  0
 10 34  1  0  0  0  0
 10 35  1  0  0  0  0
 15 36  1  0  0  0  0
 16 37  1  0  0  0  0
 18 38  1  0  0  0  0
 19 39  1  0  0  0  0
 21 40  1  0  0  0  0
 24 41  1  0  0  0  0
 25 42  1  0  0  0  0
 25 43  1  0  0  0  0
 25 44  1  0  0  0  0
 26 45  1  0  0  0  0
 26 46  1  0  0  0  0
 27 47  1  0  0  0  0
 27 48  1  0  0  0  0
 28 49  1  0  0  0  0
 28 50  1  0  0  0  0
 29 51  1  0  0  0  0
 29 52  1  0  0  0  0
M  END
> <Name>
37

> <IC50[uM]>
0.004

$$$$
37
  -OEChem-05192314333D
 Structure written by MMmdl.
 52 56  0     1  0  0  0  0  0999 V2000
   -6.3714   12.3591  -12.0053 C   0  0  0  0  0  0  0  0  0  0  0  0
   -6.5147   11.8055  -10.7304 C   0  0  0  0  0  0  0  0  0  0  0  0
   -7.7273   10.5756  -13.0301 C   0  0  0  0  0  0  0  0  0  0  0  0
   -6.9920   11.7699  -13.1223 C   0  0  0  0  0  0  0  0  0  0  0  0
   -7.8210   10.0087  -11.7569 C   0  0  0  0  0  0  0  0  0  0  0  0
   -7.2407   10.6185  -10.5997 C   0  0  0  0  0  0  0  0  0  0  0  0
   -7.6132    9.7471   -9.5123 C   0  0  3  0  0  0  0  0  0  0  0  0
   -8.2794    8.7320   -9.9893 N   0  0  0  0  0  0  0  0  0  0  0  0
   -8.4144    8.8594  -11.3005 N   0  0  0  0  0  0  0  0  0  0  0  0
   -7.3370    9.8875   -8.0251 C   0  0  0  0  0  0  0  0  0  0  0  0
   -4.3570   13.7205  -11.5014 N   0  0  0  0  0  0  0  0  0  0  0  0
   -5.5485   13.6383  -12.1900 C   0  0  0  0  0  0  0  0  0  0  0  0
   -5.9462   14.5274  -12.9449 O   0  0  0  0  0  0  0  0  0  0  0  0
   -5.9602   10.4847   -7.7357 C   0  0  0  0  0  0  0  0  0  0  0  0
   -4.8090    9.7649   -8.0550 C   0  0  0  0  0  0  0  0  0  0  0  0
   -3.5517   10.3138   -7.8050 C   0  0  0  0  0  0  0  0  0  0  0  0
   -3.4444   11.5886   -7.2367 C   0  0  0  0  0  0  0  0  0  0  0  0
   -4.5954   12.3038   -6.9144 C   0  0  0  0  0  0  0  0  0  0  0  0
   -5.8508   11.7543   -7.1602 C   0  0  0  0  0  0  0  0  0  0  0  0
   -2.1010   12.1799   -6.9735 C   0  0  0  0  0  0  0  0  0  0  0  0
   -1.7694   13.4361   -6.4722 C   0  0  0  0  0  0  0  0  0  0  0  0
   -0.4342   13.4933   -6.4118 N   0  0  0  0  0  0  0  0  0  0  0  0
    0.1686   12.4094   -6.8087 N   0  0  0  0  0  0  0  0  0  0  0  0
   -0.8030   11.5907   -7.1765 C   0  0  0  0  0  0  0  0  0  0  0  0
    0.3824   14.6122   -5.9578 C   0  0  0  0  0  0  0  0  0  0  0  0
   -3.5015   14.9079  -11.6138 C   0  0  0  0  0  0  0  0  0  0  0  0
   -2.1980   14.4648  -10.9240 C   0  0  0  0  0  0  0  0  0  0  0  0
   -2.2178   12.9422  -10.9897 C   0  0  0  0  0  0  0  0  0  0  0  0
   -3.7152   12.5763  -10.8194 C   0  0  0  0  0  0  0  0  0  0  0  0
   -6.0752   12.2832   -9.8672 H   0  0  0  0  0  0  0  0  0  0  0  0
   -8.1926   10.1227  -13.8931 H   0  0  0  0  0  0  0  0  0  0  0  0
   -6.9001   12.2523  -14.0842 H   0  0  0  0  0  0  0  0  0  0  0  0
   -6.6730    9.1896   -9.6354 H   0  0  0  0  0  0  0  0  0  0  0  0
   -8.1041   10.5414   -7.5847 H   0  0  0  0  0  0  0  0  0  0  0  0
   -7.3935    8.8918   -7.5609 H   0  0  0  0  0  0  0  0  0  0  0  0
   -4.8913    8.7824   -8.4959 H   0  0  0  0  0  0  0  0  0  0  0  0
   -2.6604    9.7552   -8.0499 H   0  0  0  0  0  0  0  0  0  0  0  0
   -4.5139   13.2862   -6.4731 H   0  0  0  0  0  0  0  0  0  0  0  0
   -6.7415   12.3096   -6.9059 H   0  0  0  0  0  0  0  0  0  0  0  0
   -2.4594   14.2163   -6.1864 H   0  0  0  0  0  0  0  0  0  0  0  0
   -0.6424   10.6017   -7.5796 H   0  0  0  0  0  0  0  0  0  0  0  0
    1.4465   14.3426   -6.0284 H   0  0  0  0  0  0  0  0  0  0  0  0
    0.1842   15.4907   -6.5894 H   0  0  0  0  0  0  0  0  0  0  0  0
    0.1326   14.8481   -4.9128 H   0  0  0  0  0  0  0  0  0  0  0  0
   -3.3223   15.1673  -12.6676 H   0  0  0  0  0  0  0  0  0  0  0  0
   -3.9499   15.7683  -11.0955 H   0  0  0  0  0  0  0  0  0  0  0  0
   -1.3227   14.8639  -11.4575 H   0  0  0  0  0  0  0  0  0  0  0  0
   -2.1776   14.8069   -9.8787 H   0  0  0  0  0  0  0  0  0  0  0  0
   -1.8370   12.5881  -11.9590 H   0  0  0  0  0  0  0  0  0  0  0  0
   -1.6150   12.5084  -10.1783 H   0  0  0  0  0  0  0  0  0  0  0  0
   -4.0015   12.5244   -9.7586 H   0  0  0  0  0  0  0  0  0  0  0  0
   -3.9579   11.6231  -11.3118 H   0  0  0  0  0  0  0  0  0  0  0  0
  1  2  2  0  0  0  0
  1  4  1  0  0  0  0
  1 12  1  0  0  0  0
  2  6  1  0  0  0  0
  3  4  2  0  0  0  0
  3  5  1  0  0  0  0
  5  6  2  0  0  0  0
  5  9  1  0  0  0  0
  6  7  1  0  0  0  0
  7  8  1  0  0  0  0
  7 10  1  0  0  0  0
  8  9  2  0  0  0  0
 10 14  1  0  0  0  0
 11 12  1  0  0  0  0
 11 26  1  0  0  0  0
 11 29  1  0  0  0  0
 12 13  2  0  0  0  0
 14 15  2  0  0  0  0
 14 19  1  0  0  0  0
 15 16  1  0  0  0  0
 16 17  2  0  0  0  0
 17 18  1  0  0  0  0
 17 20  1  0  0  0  0
 18 19  2  0  0  0  0
 20 21  2  0  0  0  0
 20 24  1  0  0  0  0
 21 22  1  0  0  0  0
 22 23  1  0  0  0  0
 22 25  1  0  0  0  0
 23 24  2  0  0  0  0
 26 27  1  0  0  0  0
 27 28  1  0  0  0  0
 28 29  1  0  0  0  0
  2 30  1  0  0  0  0
  3 31  1  0  0  0  0
  4 32  1  0  0  0  0
  7 33  1  0  0  0  0
 10 34  1  0  0  0  0
 10 35  1  0  0  0  0
 15 36  1  0  0  0  0
 16 37  1  0  0  0  0
 18 38  1  0  0  0  0
 19 39  1  0  0  0  0
 21 40  1  0  0  0  0
 24 41  1  0  0  0  0
 25 42  1  0  0  0  0
 25 43  1  0  0  0  0
 25 44  1  0  0  0  0
 26 45  1  0  0  0  0
 26 46  1  0  0  0  0
 27 47  1  0  0  0  0
 27 48  1  0  0  0  0
 28 49  1  0  0  0  0
 28 50  1  0  0  0  0
 29 51  1  0  0  0  0
 29 52  1  0  0  0  0
M  END
> <Name>
37

> <IC50[uM]>
0.004

$$$$
37
  -OEChem-05192314333D
 Structure written by MMmdl.
 52 56  0     0  0  0  0  0  0999 V2000
   -6.3714   12.3591  -12.0053 C   0  0  0  0  0  0  0  0  0  0  0  0
   -6.5147   11.8055  -10.7304 C   0  0  0  0  0  0  0  0  0  0  0  0
   -7.7273   10.5756  -13.0301 C   0  0  0  0  0  0  0  0  0  0  0  0
   -6.9920   11.7699  -13.1223 C   0  0  0  0  0  0  0  0  0  0  0  0
   -7.8210   10.0087  -11.7569 C   0  0  0  0  0  0  0  0  0  0  0  0
   -7.2407   10.6185  -10.5997 C   0  0  0  0  0  0  0  0  0  0  0  0
   -7.6132    9.7471   -9.5123 C   0  0  0  0  0  0  0  0  0  0  0  0
   -8.2794    8.7320   -9.9893 N   0  0  0  0  0  0  0  0  0  0  0  0
   -8.4144    8.8594  -11.3005 N   0  0  0  0  0  0  0  0  0  0  0  0
   -7.3370    9.8875   -8.0251 C   0  0  0  0  0  0  0  0  0  0  0  0
   -4.3570   13.7205  -11.5014 N   0  0  0  0  0  0  0  0  0  0  0  0
   -5.5485   13.6383  -12.1900 C   0  0  0  0  0  0  0  0  0  0  0  0
   -5.9462   14.5274  -12.9449 O   0  0  0  0  0  0  0  0  0  0  0  0
   -5.9602   10.4847   -7.7357 C   0  0  0  0  0  0  0  0  0  0  0  0
   -4.8090    9.7649   -8.0550 C   0  0  0  0  0  0  0  0  0  0  0  0
   -3.5517   10.3138   -7.8050 C   0  0  0  0  0  0  0  0  0  0  0  0
   -3.4444   11.5886   -7.2367 C   0  0  0  0  0  0  0  0  0  0  0  0
   -4.5954   12.3038   -6.9144 C   0  0  0  0  0  0  0  0  0  0  0  0
   -5.8508   11.7543   -7.1602 C   0  0  0  0  0  0  0  0  0  0  0  0
   -2.1010   12.1799   -6.9735 C   0  0  0  0  0  0  0  0  0  0  0  0
   -1.7694   13.4361   -6.4722 C   0  0  0  0  0  0  0  0  0  0  0  0
   -0.4342   13.4933   -6.4118 N   0  0  0  0  0  0  0  0  0  0  0  0
    0.1686   12.4094   -6.8087 N   0  0  0  0  0  0  0  0  0  0  0  0
   -0.8030   11.5907   -7.1765 C   0  0  0  0  0  0  0  0  0  0  0  0
    0.3824   14.6122   -5.9578 C   0  0  0  0  0  0  0  0  0  0  0  0
   -3.5015   14.9079  -11.6138 C   0  0  0  0  0  0  0  0  0  0  0  0
   -2.1980   14.4648  -10.9240 C   0  0  0  0  0  0  0  0  0  0  0  0
   -2.2178   12.9422  -10.9897 C   0  0  0  0  0  0  0  0  0  0  0  0
   -3.7152   12.5763  -10.8194 C   0  0  0  0  0  0  0  0  0  0  0  0
   -6.0752   12.2832   -9.8672 H   0  0  0  0  0  0  0  0  0  0  0  0
   -8.1926   10.1227  -13.8931 H   0  0  0  0  0  0  0  0  0  0  0  0
   -6.9001   12.2523  -14.0842 H   0  0  0  0  0  0  0  0  0  0  0  0
   -7.7854    7.8864   -9.7872 H   0  0  0  0  0  0  0  0  0  0  0  0
   -9.3883    8.8847  -11.5261 H   0  0  0  0  0  0  0  0  0  0  0  0
   -8.0373    9.5969   -7.2560 H   0  0  0  0  0  0  0  0  0  0  0  0
   -4.8913    8.7824   -8.4959 H   0  0  0  0  0  0  0  0  0  0  0  0
   -2.6604    9.7552   -8.0499 H   0  0  0  0  0  0  0  0  0  0  0  0
   -4.5139   13.2862   -6.4731 H   0  0  0  0  0  0  0  0  0  0  0  0
   -6.7415   12.3096   -6.9059 H   0  0  0  0  0  0  0  0  0  0  0  0
   -2.4594   14.2163   -6.1864 H   0  0  0  0  0  0  0  0  0  0  0  0
   -0.6424   10.6017   -7.5796 H   0  0  0  0  0  0  0  0  0  0  0  0
    1.4465   14.3426   -6.0284 H   0  0  0  0  0  0  0  0  0  0  0  0
    0.1842   15.4907   -6.5894 H   0  0  0  0  0  0  0  0  0  0  0  0
    0.1326   14.8481   -4.9128 H   0  0  0  0  0  0  0  0  0  0  0  0
   -3.3223   15.1673  -12.6676 H   0  0  0  0  0  0  0  0  0  0  0  0
   -3.9499   15.7683  -11.0955 H   0  0  0  0  0  0  0  0  0  0  0  0
   -1.3227   14.8639  -11.4575 H   0  0  0  0  0  0  0  0  0  0  0  0
   -2.1776   14.8069   -9.8787 H   0  0  0  0  0  0  0  0  0  0  0  0
   -1.8370   12.5881  -11.9590 H   0  0  0  0  0  0  0  0  0  0  0  0
   -1.6150   12.5084  -10.1783 H   0  0  0  0  0  0  0  0  0  0  0  0
   -4.0015   12.5244   -9.7586 H   0  0  0  0  0  0  0  0  0  0  0  0
   -3.9579   11.6231  -11.3118 H   0  0  0  0  0  0  0  0  0  0  0  0
  1  2  2  0  0  0  0
  1  4  1  0  0  0  0
  1 12  1  0  0  0  0
  2  6  1  0  0  0  0
  3  4  2  0  0  0  0
  3  5  1  0  0  0  0
  5  6  2  0  0  0  0
  5  9  1  0  0  0  0
  6  7  1  0  0  0  0
  7  8  1  0  0  0  0
  7 10  2  3  0  0  0
  8  9  1  0  0  0  0
 10 14  1  0  0  0  0
 11 12  1  0  0  0  0
 11 26  1  0  0  0  0
 11 29  1  0  0  0  0
 12 13  2  0  0  0  0
 14 15  2  0  0  0  0
 14 19  1  0  0  0  0
 15 16  1  0  0  0  0
 16 17  2  0  0  0  0
 17 18  1  0  0  0  0
 17 20  1  0  0  0  0
 18 19  2  0  0  0  0
 20 21  2  0  0  0  0
 20 24  1  0  0  0  0
 21 22  1  0  0  0  0
 22 23  1  0  0  0  0
 22 25  1  0  0  0  0
 23 24  2  0  0  0  0
 26 27  1  0  0  0  0
 27 28  1  0  0  0  0
 28 29  1  0  0  0  0
  2 30  1  0  0  0  0
  3 31  1  0  0  0  0
  4 32  1  0  0  0  0
  8 33  1  0  0  0  0
  9 34  1  0  0  0  0
 10 35  1  0  0  0  0
 15 36  1  0  0  0  0
 16 37  1  0  0  0  0
 18 38  1  0  0  0  0
 19 39  1  0  0  0  0
 21 40  1  0  0  0  0
 24 41  1  0  0  0  0
 25 42  1  0  0  0  0
 25 43  1  0  0  0  0
 25 44  1  0  0  0  0
 26 45  1  0  0  0  0
 26 46  1  0  0  0  0
 27 47  1  0  0  0  0
 27 48  1  0  0  0  0
 28 49  1  0  0  0  0
 28 50  1  0  0  0  0
 29 51  1  0  0  0  0
 29 52  1  0  0  0  0
M  END
> <Name>
37

> <IC50[uM]>
0.004

$$$$
37
  -OEChem-05192314333D
 Structure written by MMmdl.
 52 56  0     1  0  0  0  0  0999 V2000
   -6.3714   12.3591  -12.0053 C   0  0  3  0  0  0  0  0  0  0  0  0
   -6.5147   11.8055  -10.7304 C   0  0  0  0  0  0  0  0  0  0  0  0
   -7.7273   10.5756  -13.0301 C   0  0  0  0  0  0  0  0  0  0  0  0
   -6.9920   11.7699  -13.1223 C   0  0  0  0  0  0  0  0  0  0  0  0
   -7.8210   10.0087  -11.7569 C   0  0  0  0  0  0  0  0  0  0  0  0
   -7.2407   10.6185  -10.5997 C   0  0  0  0  0  0  0  0  0  0  0  0
   -7.6132    9.7471   -9.5123 C   0  0  0  0  0  0  0  0  0  0  0  0
   -8.2794    8.7320   -9.9893 N   0  0  0  0  0  0  0  0  0  0  0  0
   -8.4144    8.8594  -11.3005 N   0  0  0  0  0  0  0  0  0  0  0  0
   -7.3370    9.8875   -8.0251 C   0  0  0  0  0  0  0  0  0  0  0  0
   -4.3570   13.7205  -11.5014 N   0  0  0  0  0  0  0  0  0  0  0  0
   -5.5485   13.6383  -12.1900 C   0  0  0  0  0  0  0  0  0  0  0  0
   -5.9462   14.5274  -12.9449 O   0  0  0  0  0  0  0  0  0  0  0  0
   -5.9602   10.4847   -7.7357 C   0  0  0  0  0  0  0  0  0  0  0  0
   -4.8090    9.7649   -8.0550 C   0  0  0  0  0  0  0  0  0  0  0  0
   -3.5517   10.3138   -7.8050 C   0  0  0  0  0  0  0  0  0  0  0  0
   -3.4444   11.5886   -7.2367 C   0  0  0  0  0  0  0  0  0  0  0  0
   -4.5954   12.3038   -6.9144 C   0  0  0  0  0  0  0  0  0  0  0  0
   -5.8508   11.7543   -7.1602 C   0  0  0  0  0  0  0  0  0  0  0  0
   -2.1010   12.1799   -6.9735 C   0  0  0  0  0  0  0  0  0  0  0  0
   -1.7694   13.4361   -6.4722 C   0  0  0  0  0  0  0  0  0  0  0  0
   -0.4342   13.4933   -6.4118 N   0  0  0  0  0  0  0  0  0  0  0  0
    0.1686   12.4094   -6.8087 N   0  0  0  0  0  0  0  0  0  0  0  0
   -0.8030   11.5907   -7.1765 C   0  0  0  0  0  0  0  0  0  0  0  0
    0.3824   14.6122   -5.9578 C   0  0  0  0  0  0  0  0  0  0  0  0
   -3.5015   14.9079  -11.6138 C   0  0  0  0  0  0  0  0  0  0  0  0
   -2.1980   14.4648  -10.9240 C   0  0  0  0  0  0  0  0  0  0  0  0
   -2.2178   12.9422  -10.9897 C   0  0  0  0  0  0  0  0  0  0  0  0
   -3.7152   12.5763  -10.8194 C   0  0  0  0  0  0  0  0  0  0  0  0
   -5.4719   11.7492  -12.1757 H   0  0  0  0  0  0  0  0  0  0  0  0
   -6.0752   12.2832   -9.8672 H   0  0  0  0  0  0  0  0  0  0  0  0
   -8.1926   10.1227  -13.8931 H   0  0  0  0  0  0  0  0  0  0  0  0
   -6.9001   12.2523  -14.0842 H   0  0  0  0  0  0  0  0  0  0  0  0
   -8.6350    7.9714   -9.4461 H   0  0  0  0  0  0  0  0  0  0  0  0
   -8.0373    9.5969   -7.2560 H   0  0  0  0  0  0  0  0  0  0  0  0
   -4.8913    8.7824   -8.4959 H   0  0  0  0  0  0  0  0  0  0  0  0
   -2.6604    9.7552   -8.0499 H   0  0  0  0  0  0  0  0  0  0  0  0
   -4.5139   13.2862   -6.4731 H   0  0  0  0  0  0  0  0  0  0  0  0
   -6.7415   12.3096   -6.9059 H   0  0  0  0  0  0  0  0  0  0  0  0
   -2.4594   14.2163   -6.1864 H   0  0  0  0  0  0  0  0  0  0  0  0
   -0.6424   10.6017   -7.5796 H   0  0  0  0  0  0  0  0  0  0  0  0
    1.4465   14.3426   -6.0284 H   0  0  0  0  0  0  0  0  0  0  0  0
    0.1842   15.4907   -6.5894 H   0  0  0  0  0  0  0  0  0  0  0  0
    0.1326   14.8481   -4.9128 H   0  0  0  0  0  0  0  0  0  0  0  0
   -3.3223   15.1673  -12.6676 H   0  0  0  0  0  0  0  0  0  0  0  0
   -3.9499   15.7683  -11.0955 H   0  0  0  0  0  0  0  0  0  0  0  0
   -1.3227   14.8639  -11.4575 H   0  0  0  0  0  0  0  0  0  0  0  0
   -2.1776   14.8069   -9.8787 H   0  0  0  0  0  0  0  0  0  0  0  0
   -1.8370   12.5881  -11.9590 H   0  0  0  0  0  0  0  0  0  0  0  0
   -1.6150   12.5084  -10.1783 H   0  0  0  0  0  0  0  0  0  0  0  0
   -4.0015   12.5244   -9.7586 H   0  0  0  0  0  0  0  0  0  0  0  0
   -3.9579   11.6231  -11.3118 H   0  0  0  0  0  0  0  0  0  0  0  0
  1  2  1  0  0  0  0
  1  4  1  0  0  0  0
  1 12  1  0  0  0  0
  2  6  2  0  0  0  0
  3  4  2  0  0  0  0
  3  5  1  0  0  0  0
  5  6  1  0  0  0  0
  5  9  2  0  0  0  0
  6  7  1  0  0  0  0
  7  8  1  0  0  0  0
  7 10  2  3  0  0  0
  8  9  1  0  0  0  0
 10 14  1  0  0  0  0
 11 12  1  0  0  0  0
 11 26  1  0  0  0  0
 11 29  1  0  0  0  0
 12 13  2  0  0  0  0
 14 15  2  0  0  0  0
 14 19  1  0  0  0  0
 15 16  1  0  0  0  0
 16 17  2  0  0  0  0
 17 18  1  0  0  0  0
 17 20  1  0  0  0  0
 18 19  2  0  0  0  0
 20 21  2  0  0  0  0
 20 24  1  0  0  0  0
 21 22  1  0  0  0  0
 22 23  1  0  0  0  0
 22 25  1  0  0  0  0
 23 24  2  0  0  0  0
 26 27  1  0  0  0  0
 27 28  1  0  0  0  0
 28 29  1  0  0  0  0
  1 30  1  0  0  0  0
  2 31  1  0  0  0  0
  3 32  1  0  0  0  0
  4 33  1  0  0  0  0
  8 34  1  0  0  0  0
 10 35  1  0  0  0  0
 15 36  1  0  0  0  0
 16 37  1  0  0  0  0
 18 38  1  0  0  0  0
 19 39  1  0  0  0  0
 21 40  1  0  0  0  0
 24 41  1  0  0  0  0
 25 42  1  0  0  0  0
 25 43  1  0  0  0  0
 25 44  1  0  0  0  0
 26 45  1  0  0  0  0
 26 46  1  0  0  0  0
 27 47  1  0  0  0  0
 27 48  1  0  0  0  0
 28 49  1  0  0  0  0
 28 50  1  0  0  0  0
 29 51  1  0  0  0  0
 29 52  1  0  0  0  0
M  END
> <Name>
37

> <IC50[uM]>
0.004

$$$$
37
  -OEChem-05192314333D
 Structure written by MMmdl.
 52 56  0     0  0  0  0  0  0999 V2000
   -6.3714   12.3591  -12.0053 C   0  0  0  0  0  0  0  0  0  0  0  0
   -6.5147   11.8055  -10.7304 C   0  0  0  0  0  0  0  0  0  0  0  0
   -7.7273   10.5756  -13.0301 C   0  0  0  0  0  0  0  0  0  0  0  0
   -6.9920   11.7699  -13.1223 C   0  0  0  0  0  0  0  0  0  0  0  0
   -7.8210   10.0087  -11.7569 C   0  0  0  0  0  0  0  0  0  0  0  0
   -7.2407   10.6185  -10.5997 C   0  0  0  0  0  0  0  0  0  0  0  0
   -7.6132    9.7471   -9.5123 C   0  0  0  0  0  0  0  0  0  0  0  0
   -8.2794    8.7320   -9.9893 N   0  0  0  0  0  0  0  0  0  0  0  0
   -8.4144    8.8594  -11.3005 N   0  0  0  0  0  0  0  0  0  0  0  0
   -7.3370    9.8875   -8.0251 C   0  0  0  0  0  0  0  0  0  0  0  0
   -4.3570   13.7205  -11.5014 N   0  0  0  0  0  0  0  0  0  0  0  0
   -5.5485   13.6383  -12.1900 C   0  0  0  0  0  0  0  0  0  0  0  0
   -5.9462   14.5274  -12.9449 O   0  0  0  0  0  0  0  0  0  0  0  0
   -5.9602   10.4847   -7.7357 C   0  0  0  0  0  0  0  0  0  0  0  0
   -4.8090    9.7649   -8.0550 C   0  0  0  0  0  0  0  0  0  0  0  0
   -3.5517   10.3138   -7.8050 C   0  0  0  0  0  0  0  0  0  0  0  0
   -3.4444   11.5886   -7.2367 C   0  0  0  0  0  0  0  0  0  0  0  0
   -4.5954   12.3038   -6.9144 C   0  0  0  0  0  0  0  0  0  0  0  0
   -5.8508   11.7543   -7.1602 C   0  0  0  0  0  0  0  0  0  0  0  0
   -2.1010   12.1799   -6.9735 C   0  0  0  0  0  0  0  0  0  0  0  0
   -1.7694   13.4361   -6.4722 C   0  0  0  0  0  0  0  0  0  0  0  0
   -0.4342   13.4933   -6.4118 N   0  0  0  0  0  0  0  0  0  0  0  0
    0.1686   12.4094   -6.8087 N   0  0  0  0  0  0  0  0  0  0  0  0
   -0.8030   11.5907   -7.1765 C   0  0  0  0  0  0  0  0  0  0  0  0
    0.3824   14.6122   -5.9578 C   0  0  0  0  0  0  0  0  0  0  0  0
   -3.5015   14.9079  -11.6138 C   0  0  0  0  0  0  0  0  0  0  0  0
   -2.1980   14.4648  -10.9240 C   0  0  0  0  0  0  0  0  0  0  0  0
   -2.2178   12.9422  -10.9897 C   0  0  0  0  0  0  0  0  0  0  0  0
   -3.7152   12.5763  -10.8194 C   0  0  0  0  0  0  0  0  0  0  0  0
   -6.0752   12.2832   -9.8672 H   0  0  0  0  0  0  0  0  0  0  0  0
   -8.7488   10.7817  -13.3823 H   0  0  0  0  0  0  0  0  0  0  0  0
   -7.2530    9.8368  -13.6929 H   0  0  0  0  0  0  0  0  0  0  0  0
   -6.9001   12.2523  -14.0842 H   0  0  0  0  0  0  0  0  0  0  0  0
   -8.6350    7.9714   -9.4461 H   0  0  0  0  0  0  0  0  0  0  0  0
   -8.0373    9.5969   -7.2560 H   0  0  0  0  0  0  0  0  0  0  0  0
   -4.8913    8.7824   -8.4959 H   0  0  0  0  0  0  0  0  0  0  0  0
   -2.6604    9.7552   -8.0499 H   0  0  0  0  0  0  0  0  0  0  0  0
   -4.5139   13.2862   -6.4731 H   0  0  0  0  0  0  0  0  0  0  0  0
   -6.7415   12.3096   -6.9059 H   0  0  0  0  0  0  0  0  0  0  0  0
   -2.4594   14.2163   -6.1864 H   0  0  0  0  0  0  0  0  0  0  0  0
   -0.6424   10.6017   -7.5796 H   0  0  0  0  0  0  0  0  0  0  0  0
    1.4465   14.3426   -6.0284 H   0  0  0  0  0  0  0  0  0  0  0  0
    0.1842   15.4907   -6.5894 H   0  0  0  0  0  0  0  0  0  0  0  0
    0.1326   14.8481   -4.9128 H   0  0  0  0  0  0  0  0  0  0  0  0
   -3.3223   15.1673  -12.6676 H   0  0  0  0  0  0  0  0  0  0  0  0
   -3.9499   15.7683  -11.0955 H   0  0  0  0  0  0  0  0  0  0  0  0
   -1.3227   14.8639  -11.4575 H   0  0  0  0  0  0  0  0  0  0  0  0
   -2.1776   14.8069   -9.8787 H   0  0  0  0  0  0  0  0  0  0  0  0
   -1.8370   12.5881  -11.9590 H   0  0  0  0  0  0  0  0  0  0  0  0
   -1.6150   12.5084  -10.1783 H   0  0  0  0  0  0  0  0  0  0  0  0
   -4.0015   12.5244   -9.7586 H   0  0  0  0  0  0  0  0  0  0  0  0
   -3.9579   11.6231  -11.3118 H   0  0  0  0  0  0  0  0  0  0  0  0
  1  2  1  0  0  0  0
  1  4  2  0  0  0  0
  1 12  1  0  0  0  0
  2  6  2  0  0  0  0
  3  4  1  0  0  0  0
  3  5  1  0  0  0  0
  5  6  1  0  0  0  0
  5  9  2  0  0  0  0
  6  7  1  0  0  0  0
  7  8  1  0  0  0  0
  7 10  2  3  0  0  0
  8  9  1  0  0  0  0
 10 14  1  0  0  0  0
 11 12  1  0  0  0  0
 11 26  1  0  0  0  0
 11 29  1  0  0  0  0
 12 13  2  0  0  0  0
 14 15  2  0  0  0  0
 14 19  1  0  0  0  0
 15 16  1  0  0  0  0
 16 17  2  0  0  0  0
 17 18  1  0  0  0  0
 17 20  1  0  0  0  0
 18 19  2  0  0  0  0
 20 21  2  0  0  0  0
 20 24  1  0  0  0  0
 21 22  1  0  0  0  0
 22 23  1  0  0  0  0
 22 25  1  0  0  0  0
 23 24  2  0  0  0  0
 26 27  1  0  0  0  0
 27 28  1  0  0  0  0
 28 29  1  0  0  0  0
  2 30  1  0  0  0  0
  3 31  1  0  0  0  0
  3 32  1  0  0  0  0
  4 33  1  0  0  0  0
  8 34  1  0  0  0  0
 10 35  1  0  0  0  0
 15 36  1  0  0  0  0
 16 37  1  0  0  0  0
 18 38  1  0  0  0  0
 19 39  1  0  0  0  0
 21 40  1  0  0  0  0
 24 41  1  0  0  0  0
 25 42  1  0  0  0  0
 25 43  1  0  0  0  0
 25 44  1  0  0  0  0
 26 45  1  0  0  0  0
 26 46  1  0  0  0  0
 27 47  1  0  0  0  0
 27 48  1  0  0  0  0
 28 49  1  0  0  0  0
 28 50  1  0  0  0  0
 29 51  1  0  0  0  0
 29 52  1  0  0  0  0
M  END
> <Name>
37

> <IC50[uM]>
0.004

$$$$
37
  -OEChem-05192314333D
 Structure written by MMmdl.
 52 56  0     1  0  0  0  0  0999 V2000
   -6.3714   12.3591  -12.0053 C   0  0  0  0  0  0  0  0  0  0  0  0
   -6.5147   11.8055  -10.7304 C   0  0  0  0  0  0  0  0  0  0  0  0
   -7.7273   10.5756  -13.0301 C   0  0  0  0  0  0  0  0  0  0  0  0
   -6.9920   11.7699  -13.1223 C   0  0  0  0  0  0  0  0  0  0  0  0
   -7.8210   10.0087  -11.7569 C   0  0  0  0  0  0  0  0  0  0  0  0
   -7.2407   10.6185  -10.5997 C   0  0  0  0  0  0  0  0  0  0  0  0
   -7.6132    9.7471   -9.5123 C   0  0  0  0  0  0  0  0  0  0  0  0
   -8.2794    8.7320   -9.9893 N   0  0  0  0  0  0  0  0  0  0  0  0
   -8.4144    8.8594  -11.3005 N   0  0  0  0  0  0  0  0  0  0  0  0
   -7.3370    9.8875   -8.0251 C   0  0  0  0  0  0  0  0  0  0  0  0
   -4.3570   13.7205  -11.5014 N   0  0  0  0  0  0  0  0  0  0  0  0
   -5.5485   13.6383  -12.1900 C   0  0  0  0  0  0  0  0  0  0  0  0
   -5.9462   14.5274  -12.9449 O   0  0  0  0  0  0  0  0  0  0  0  0
   -5.9602   10.4847   -7.7357 C   0  0  0  0  0  0  0  0  0  0  0  0
   -4.8090    9.7649   -8.0550 C   0  0  0  0  0  0  0  0  0  0  0  0
   -3.5517   10.3138   -7.8050 C   0  0  0  0  0  0  0  0  0  0  0  0
   -3.4444   11.5886   -7.2367 C   0  0  0  0  0  0  0  0  0  0  0  0
   -4.5954   12.3038   -6.9144 C   0  0  0  0  0  0  0  0  0  0  0  0
   -5.8508   11.7543   -7.1602 C   0  0  0  0  0  0  0  0  0  0  0  0
   -2.1010   12.1799   -6.9735 C   0  0  0  0  0  0  0  0  0  0  0  0
   -1.7694   13.4361   -6.4722 C   0  0  0  0  0  0  0  0  0  0  0  0
   -0.4342   13.4933   -6.4118 N   0  0  3  0  0  0  0  0  0  0  0  0
    0.1686   12.4094   -6.8087 N   0  0  0  0  0  0  0  0  0  0  0  0
   -0.8030   11.5907   -7.1765 C   0  0  0  0  0  0  0  0  0  0  0  0
    0.3824   14.6122   -5.9578 C   0  0  0  0  0  0  0  0  0  0  0  0
   -3.5015   14.9079  -11.6138 C   0  0  0  0  0  0  0  0  0  0  0  0
   -2.1980   14.4648  -10.9240 C   0  0  0  0  0  0  0  0  0  0  0  0
   -2.2178   12.9422  -10.9897 C   0  0  0  0  0  0  0  0  0  0  0  0
   -3.7152   12.5763  -10.8194 C   0  0  0  0  0  0  0  0  0  0  0  0
   -6.0752   12.2832   -9.8672 H   0  0  0  0  0  0  0  0  0  0  0  0
   -8.1926   10.1227  -13.8931 H   0  0  0  0  0  0  0  0  0  0  0  0
   -6.9001   12.2523  -14.0842 H   0  0  0  0  0  0  0  0  0  0  0  0
   -8.6350    7.9714   -9.4461 H   0  0  0  0  0  0  0  0  0  0  0  0
   -8.0373    9.5969   -7.2560 H   0  0  0  0  0  0  0  0  0  0  0  0
   -4.8913    8.7824   -8.4959 H   0  0  0  0  0  0  0  0  0  0  0  0
   -2.6604    9.7552   -8.0499 H   0  0  0  0  0  0  0  0  0  0  0  0
   -4.5139   13.2862   -6.4731 H   0  0  0  0  0  0  0  0  0  0  0  0
   -6.7415   12.3096   -6.9059 H   0  0  0  0  0  0  0  0  0  0  0  0
   -2.1513   14.2222   -7.1401 H   0  0  0  0  0  0  0  0  0  0  0  0
   -2.1989   13.5675   -5.4681 H   0  0  0  0  0  0  0  0  0  0  0  0
   -0.6424   10.6017   -7.5796 H   0  0  0  0  0  0  0  0  0  0  0  0
    1.4465   14.3426   -6.0284 H   0  0  0  0  0  0  0  0  0  0  0  0
    0.1842   15.4907   -6.5894 H   0  0  0  0  0  0  0  0  0  0  0  0
    0.1326   14.8481   -4.9128 H   0  0  0  0  0  0  0  0  0  0  0  0
   -3.3223   15.1673  -12.6676 H   0  0  0  0  0  0  0  0  0  0  0  0
   -3.9499   15.7683  -11.0955 H   0  0  0  0  0  0  0  0  0  0  0  0
   -1.3227   14.8639  -11.4575 H   0  0  0  0  0  0  0  0  0  0  0  0
   -2.1776   14.8069   -9.8787 H   0  0  0  0  0  0  0  0  0  0  0  0
   -1.8370   12.5881  -11.9590 H   0  0  0  0  0  0  0  0  0  0  0  0
   -1.6150   12.5084  -10.1783 H   0  0  0  0  0  0  0  0  0  0  0  0
   -4.0015   12.5244   -9.7586 H   0  0  0  0  0  0  0  0  0  0  0  0
   -3.9579   11.6231  -11.3118 H   0  0  0  0  0  0  0  0  0  0  0  0
  1  2  2  0  0  0  0
  1  4  1  0  0  0  0
  1 12  1  0  0  0  0
  2  6  1  0  0  0  0
  3  4  2  0  0  0  0
  3  5  1  0  0  0  0
  5  6  1  0  0  0  0
  5  9  2  0  0  0  0
  6  7  2  0  0  0  0
  7  8  1  0  0  0  0
  7 10  1  0  0  0  0
  8  9  1  0  0  0  0
 10 14  2  0  0  0  0
 11 12  1  0  0  0  0
 11 26  1  0  0  0  0
 11 29  1  0  0  0  0
 12 13  2  0  0  0  0
 14 15  1  0  0  0  0
 14 19  1  0  0  0  0
 15 16  2  0  0  0  0
 16 17  1  0  0  0  0
 17 18  1  0  0  0  0
 17 20  2  0  0  0  0
 18 19  2  0  0  0  0
 20 21  1  0  0  0  0
 20 24  1  0  0  0  0
 21 22  1  0  0  0  0
 22 23  1  0  0  0  0
 22 25  1  0  0  0  0
 23 24  2  0  0  0  0
 26 27  1  0  0  0  0
 27 28  1  0  0  0  0
 28 29  1  0  0  0  0
  2 30  1  0  0  0  0
  3 31  1  0  0  0  0
  4 32  1  0  0  0  0
  8 33  1  0  0  0  0
 10 34  1  0  0  0  0
 15 35  1  0  0  0  0
 16 36  1  0  0  0  0
 18 37  1  0  0  0  0
 19 38  1  0  0  0  0
 21 39  1  0  0  0  0
 21 40  1  0  0  0  0
 24 41  1  0  0  0  0
 25 42  1  0  0  0  0
 25 43  1  0  0  0  0
 25 44  1  0  0  0  0
 26 45  1  0  0  0  0
 26 46  1  0  0  0  0
 27 47  1  0  0  0  0
 27 48  1  0  0  0  0
 28 49  1  0  0  0  0
 28 50  1  0  0  0  0
 29 51  1  0  0  0  0
 29 52  1  0  0  0  0
M  END
> <Name>
37

> <IC50[uM]>
0.004

$$$$
37
  -OEChem-05192314333D
 Structure written by MMmdl.
 52 56  0     1  0  0  0  0  0999 V2000
   -6.3714   12.3591  -12.0053 C   0  0  0  0  0  0  0  0  0  0  0  0
   -6.5147   11.8055  -10.7304 C   0  0  0  0  0  0  0  0  0  0  0  0
   -7.7273   10.5756  -13.0301 C   0  0  0  0  0  0  0  0  0  0  0  0
   -6.9920   11.7699  -13.1223 C   0  0  0  0  0  0  0  0  0  0  0  0
   -7.8210   10.0087  -11.7569 C   0  0  0  0  0  0  0  0  0  0  0  0
   -7.2407   10.6185  -10.5997 C   0  0  0  0  0  0  0  0  0  0  0  0
   -7.6132    9.7471   -9.5123 C   0  0  0  0  0  0  0  0  0  0  0  0
   -8.2794    8.7320   -9.9893 N   0  0  0  0  0  0  0  0  0  0  0  0
   -8.4144    8.8594  -11.3005 N   0  0  0  0  0  0  0  0  0  0  0  0
   -7.3370    9.8875   -8.0251 C   0  0  0  0  0  0  0  0  0  0  0  0
   -4.3570   13.7205  -11.5014 N   0  0  0  0  0  0  0  0  0  0  0  0
   -5.5485   13.6383  -12.1900 C   0  0  0  0  0  0  0  0  0  0  0  0
   -5.9462   14.5274  -12.9449 O   0  0  0  0  0  0  0  0  0  0  0  0
   -5.9602   10.4847   -7.7357 C   0  0  0  0  0  0  0  0  0  0  0  0
   -4.8090    9.7649   -8.0550 C   0  0  0  0  0  0  0  0  0  0  0  0
   -3.5517   10.3138   -7.8050 C   0  0  0  0  0  0  0  0  0  0  0  0
   -3.4444   11.5886   -7.2367 C   0  0  0  0  0  0  0  0  0  0  0  0
   -4.5954   12.3038   -6.9144 C   0  0  0  0  0  0  0  0  0  0  0  0
   -5.8508   11.7543   -7.1602 C   0  0  0  0  0  0  0  0  0  0  0  0
   -2.1010   12.1799   -6.9735 C   0  0  0  0  0  0  0  0  0  0  0  0
   -1.7694   13.4361   -6.4722 C   0  0  0  0  0  0  0  0  0  0  0  0
   -0.4342   13.4933   -6.4118 N   0  0  3  0  0  0  0  0  0  0  0  0
    0.1686   12.4094   -6.8087 N   0  0  0  0  0  0  0  0  0  0  0  0
   -0.8030   11.5907   -7.1765 C   0  0  0  0  0  0  0  0  0  0  0  0
    0.3824   14.6122   -5.9578 C   0  0  0  0  0  0  0  0  0  0  0  0
   -3.5015   14.9079  -11.6138 C   0  0  0  0  0  0  0  0  0  0  0  0
   -2.1980   14.4648  -10.9240 C   0  0  0  0  0  0  0  0  0  0  0  0
   -2.2178   12.9422  -10.9897 C   0  0  0  0  0  0  0  0  0  0  0  0
   -3.7152   12.5763  -10.8194 C   0  0  0  0  0  0  0  0  0  0  0  0
   -6.0752   12.2832   -9.8672 H   0  0  0  0  0  0  0  0  0  0  0  0
   -8.1926   10.1227  -13.8931 H   0  0  0  0  0  0  0  0  0  0  0  0
   -6.9001   12.2523  -14.0842 H   0  0  0  0  0  0  0  0  0  0  0  0
   -8.8891    8.2007  -11.8843 H   0  0  0  0  0  0  0  0  0  0  0  0
   -8.0373    9.5969   -7.2560 H   0  0  0  0  0  0  0  0  0  0  0  0
   -4.8913    8.7824   -8.4959 H   0  0  0  0  0  0  0  0  0  0  0  0
   -2.6604    9.7552   -8.0499 H   0  0  0  0  0  0  0  0  0  0  0  0
   -4.5139   13.2862   -6.4731 H   0  0  0  0  0  0  0  0  0  0  0  0
   -6.7415   12.3096   -6.9059 H   0  0  0  0  0  0  0  0  0  0  0  0
   -2.1513   14.2222   -7.1401 H   0  0  0  0  0  0  0  0  0  0  0  0
   -2.1989   13.5675   -5.4681 H   0  0  0  0  0  0  0  0  0  0  0  0
   -0.6424   10.6017   -7.5796 H   0  0  0  0  0  0  0  0  0  0  0  0
    1.4465   14.3426   -6.0284 H   0  0  0  0  0  0  0  0  0  0  0  0
    0.1842   15.4907   -6.5894 H   0  0  0  0  0  0  0  0  0  0  0  0
    0.1326   14.8481   -4.9128 H   0  0  0  0  0  0  0  0  0  0  0  0
   -3.3223   15.1673  -12.6676 H   0  0  0  0  0  0  0  0  0  0  0  0
   -3.9499   15.7683  -11.0955 H   0  0  0  0  0  0  0  0  0  0  0  0
   -1.3227   14.8639  -11.4575 H   0  0  0  0  0  0  0  0  0  0  0  0
   -2.1776   14.8069   -9.8787 H   0  0  0  0  0  0  0  0  0  0  0  0
   -1.8370   12.5881  -11.9590 H   0  0  0  0  0  0  0  0  0  0  0  0
   -1.6150   12.5084  -10.1783 H   0  0  0  0  0  0  0  0  0  0  0  0
   -4.0015   12.5244   -9.7586 H   0  0  0  0  0  0  0  0  0  0  0  0
   -3.9579   11.6231  -11.3118 H   0  0  0  0  0  0  0  0  0  0  0  0
  1  2  2  0  0  0  0
  1  4  1  0  0  0  0
  1 12  1  0  0  0  0
  2  6  1  0  0  0  0
  3  4  2  0  0  0  0
  3  5  1  0  0  0  0
  5  6  2  0  0  0  0
  5  9  1  0  0  0  0
  6  7  1  0  0  0  0
  7  8  2  0  0  0  0
  7 10  1  0  0  0  0
  8  9  1  0  0  0  0
 10 14  2  0  0  0  0
 11 12  1  0  0  0  0
 11 26  1  0  0  0  0
 11 29  1  0  0  0  0
 12 13  2  0  0  0  0
 14 15  1  0  0  0  0
 14 19  1  0  0  0  0
 15 16  2  0  0  0  0
 16 17  1  0  0  0  0
 17 18  1  0  0  0  0
 17 20  2  0  0  0  0
 18 19  2  0  0  0  0
 20 21  1  0  0  0  0
 20 24  1  0  0  0  0
 21 22  1  0  0  0  0
 22 23  1  0  0  0  0
 22 25  1  0  0  0  0
 23 24  2  0  0  0  0
 26 27  1  0  0  0  0
 27 28  1  0  0  0  0
 28 29  1  0  0  0  0
  2 30  1  0  0  0  0
  3 31  1  0  0  0  0
  4 32  1  0  0  0  0
  9 33  1  0  0  0  0
 10 34  1  0  0  0  0
 15 35  1  0  0  0  0
 16 36  1  0  0  0  0
 18 37  1  0  0  0  0
 19 38  1  0  0  0  0
 21 39  1  0  0  0  0
 21 40  1  0  0  0  0
 24 41  1  0  0  0  0
 25 42  1  0  0  0  0
 25 43  1  0  0  0  0
 25 44  1  0  0  0  0
 26 45  1  0  0  0  0
 26 46  1  0  0  0  0
 27 47  1  0  0  0  0
 27 48  1  0  0  0  0
 28 49  1  0  0  0  0
 28 50  1  0  0  0  0
 29 51  1  0  0  0  0
 29 52  1  0  0  0  0
M  END
> <Name>
37

> <IC50[uM]>
0.004

$$$$
37
  -OEChem-05192314333D
 Structure written by MMmdl.
 52 56  0     0  0  0  0  0  0999 V2000
   -6.3714   12.3591  -12.0053 C   0  0  0  0  0  0  0  0  0  0  0  0
   -6.5147   11.8055  -10.7304 C   0  0  0  0  0  0  0  0  0  0  0  0
   -7.7273   10.5756  -13.0301 C   0  0  0  0  0  0  0  0  0  0  0  0
   -6.9920   11.7699  -13.1223 C   0  0  0  0  0  0  0  0  0  0  0  0
   -7.8210   10.0087  -11.7569 C   0  0  0  0  0  0  0  0  0  0  0  0
   -7.2407   10.6185  -10.5997 C   0  0  0  0  0  0  0  0  0  0  0  0
   -7.6132    9.7471   -9.5123 C   0  0  0  0  0  0  0  0  0  0  0  0
   -8.2794    8.7320   -9.9893 N   0  0  0  0  0  0  0  0  0  0  0  0
   -8.4144    8.8594  -11.3005 N   0  0  0  0  0  0  0  0  0  0  0  0
   -7.3370    9.8875   -8.0251 C   0  0  0  0  0  0  0  0  0  0  0  0
   -4.3570   13.7205  -11.5014 N   0  0  0  0  0  0  0  0  0  0  0  0
   -5.5485   13.6383  -12.1900 C   0  0  0  0  0  0  0  0  0  0  0  0
   -5.9462   14.5274  -12.9449 O   0  0  0  0  0  0  0  0  0  0  0  0
   -5.9602   10.4847   -7.7357 C   0  0  0  0  0  0  0  0  0  0  0  0
   -4.8090    9.7649   -8.0550 C   0  0  0  0  0  0  0  0  0  0  0  0
   -3.5517   10.3138   -7.8050 C   0  0  0  0  0  0  0  0  0  0  0  0
   -3.4444   11.5886   -7.2367 C   0  0  0  0  0  0  0  0  0  0  0  0
   -4.5954   12.3038   -6.9144 C   0  0  0  0  0  0  0  0  0  0  0  0
   -5.8508   11.7543   -7.1602 C   0  0  0  0  0  0  0  0  0  0  0  0
   -2.1010   12.1799   -6.9735 C   0  0  0  0  0  0  0  0  0  0  0  0
   -1.7694   13.4361   -6.4722 C   0  0  0  0  0  0  0  0  0  0  0  0
   -0.4342   13.4933   -6.4118 N   0  0  0  0  0  0  0  0  0  0  0  0
    0.1686   12.4094   -6.8087 N   0  0  0  0  0  0  0  0  0  0  0  0
   -0.8030   11.5907   -7.1765 C   0  0  0  0  0  0  0  0  0  0  0  0
    0.3824   14.6122   -5.9578 C   0  0  0  0  0  0  0  0  0  0  0  0
   -3.5015   14.9079  -11.6138 C   0  0  0  0  0  0  0  0  0  0  0  0
   -2.1980   14.4648  -10.9240 C   0  0  0  0  0  0  0  0  0  0  0  0
   -2.2178   12.9422  -10.9897 C   0  0  0  0  0  0  0  0  0  0  0  0
   -3.7152   12.5763  -10.8194 C   0  0  0  0  0  0  0  0  0  0  0  0
   -6.0752   12.2832   -9.8672 H   0  0  0  0  0  0  0  0  0  0  0  0
   -8.1926   10.1227  -13.8931 H   0  0  0  0  0  0  0  0  0  0  0  0
   -6.9001   12.2523  -14.0842 H   0  0  0  0  0  0  0  0  0  0  0  0
   -8.6350    7.9714   -9.4461 H   0  0  0  0  0  0  0  0  0  0  0  0
   -8.0373    9.5969   -7.2560 H   0  0  0  0  0  0  0  0  0  0  0  0
   -4.8913    8.7824   -8.4959 H   0  0  0  0  0  0  0  0  0  0  0  0
   -2.6604    9.7552   -8.0499 H   0  0  0  0  0  0  0  0  0  0  0  0
   -3.4459   12.0373   -8.2410 H   0  0  0  0  0  0  0  0  0  0  0  0
   -4.5139   13.2862   -6.4731 H   0  0  0  0  0  0  0  0  0  0  0  0
   -6.7415   12.3096   -6.9059 H   0  0  0  0  0  0  0  0  0  0  0  0
   -2.4594   14.2163   -6.1864 H   0  0  0  0  0  0  0  0  0  0  0  0
   -0.6424   10.6017   -7.5796 H   0  0  0  0  0  0  0  0  0  0  0  0
    1.4465   14.3426   -6.0284 H   0  0  0  0  0  0  0  0  0  0  0  0
    0.1842   15.4907   -6.5894 H   0  0  0  0  0  0  0  0  0  0  0  0
    0.1326   14.8481   -4.9128 H   0  0  0  0  0  0  0  0  0  0  0  0
   -3.3223   15.1673  -12.6676 H   0  0  0  0  0  0  0  0  0  0  0  0
   -3.9499   15.7683  -11.0955 H   0  0  0  0  0  0  0  0  0  0  0  0
   -1.3227   14.8639  -11.4575 H   0  0  0  0  0  0  0  0  0  0  0  0
   -2.1776   14.8069   -9.8787 H   0  0  0  0  0  0  0  0  0  0  0  0
   -1.8370   12.5881  -11.9590 H   0  0  0  0  0  0  0  0  0  0  0  0
   -1.6150   12.5084  -10.1783 H   0  0  0  0  0  0  0  0  0  0  0  0
   -4.0015   12.5244   -9.7586 H   0  0  0  0  0  0  0  0  0  0  0  0
   -3.9579   11.6231  -11.3118 H   0  0  0  0  0  0  0  0  0  0  0  0
  1  2  2  0  0  0  0
  1  4  1  0  0  0  0
  1 12  1  0  0  0  0
  2  6  1  0  0  0  0
  3  4  2  0  0  0  0
  3  5  1  0  0  0  0
  5  6  1  0  0  0  0
  5  9  2  0  0  0  0
  6  7  2  0  0  0  0
  7  8  1  0  0  0  0
  7 10  1  0  0  0  0
  8  9  1  0  0  0  0
 10 14  2  0  0  0  0
 11 12  1  0  0  0  0
 11 26  1  0  0  0  0
 11 29  1  0  0  0  0
 12 13  2  0  0  0  0
 14 15  1  0  0  0  0
 14 19  1  0  0  0  0
 15 16  2  0  0  0  0
 16 17  1  0  0  0  0
 17 18  1  0  0  0  0
 17 20  1  0  0  0  0
 18 19  2  0  0  0  0
 20 21  2  0  0  0  0
 20 24  1  0  0  0  0
 21 22  1  0  0  0  0
 22 23  1  0  0  0  0
 22 25  1  0  0  0  0
 23 24  2  0  0  0  0
 26 27  1  0  0  0  0
 27 28  1  0  0  0  0
 28 29  1  0  0  0  0
  2 30  1  0  0  0  0
  3 31  1  0  0  0  0
  4 32  1  0  0  0  0
  8 33  1  0  0  0  0
 10 34  1  0  0  0  0
 15 35  1  0  0  0  0
 16 36  1  0  0  0  0
 17 37  1  0  0  0  0
 18 38  1  0  0  0  0
 19 39  1  0  0  0  0
 21 40  1  0  0  0  0
 24 41  1  0  0  0  0
 25 42  1  0  0  0  0
 25 43  1  0  0  0  0
 25 44  1  0  0  0  0
 26 45  1  0  0  0  0
 26 46  1  0  0  0  0
 27 47  1  0  0  0  0
 27 48  1  0  0  0  0
 28 49  1  0  0  0  0
 28 50  1  0  0  0  0
 29 51  1  0  0  0  0
 29 52  1  0  0  0  0
M  END
> <Name>
37

> <IC50[uM]>
0.004

$$$$
37
  -OEChem-05192314333D
 Structure written by MMmdl.
 52 56  0     0  0  0  0  0  0999 V2000
   -6.3714   12.3591  -12.0053 C   0  0  0  0  0  0  0  0  0  0  0  0
   -6.5147   11.8055  -10.7304 C   0  0  0  0  0  0  0  0  0  0  0  0
   -7.7273   10.5756  -13.0301 C   0  0  0  0  0  0  0  0  0  0  0  0
   -6.9920   11.7699  -13.1223 C   0  0  0  0  0  0  0  0  0  0  0  0
   -7.8210   10.0087  -11.7569 C   0  0  0  0  0  0  0  0  0  0  0  0
   -7.2407   10.6185  -10.5997 C   0  0  0  0  0  0  0  0  0  0  0  0
   -7.6132    9.7471   -9.5123 C   0  0  0  0  0  0  0  0  0  0  0  0
   -8.2794    8.7320   -9.9893 N   0  0  0  0  0  0  0  0  0  0  0  0
   -8.4144    8.8594  -11.3005 N   0  0  0  0  0  0  0  0  0  0  0  0
   -7.3370    9.8875   -8.0251 C   0  0  0  0  0  0  0  0  0  0  0  0
   -4.3570   13.7205  -11.5014 N   0  0  0  0  0  0  0  0  0  0  0  0
   -5.5485   13.6383  -12.1900 C   0  0  0  0  0  0  0  0  0  0  0  0
   -5.9462   14.5274  -12.9449 O   0  0  0  0  0  0  0  0  0  0  0  0
   -5.9602   10.4847   -7.7357 C   0  0  0  0  0  0  0  0  0  0  0  0
   -4.8090    9.7649   -8.0550 C   0  0  0  0  0  0  0  0  0  0  0  0
   -3.5517   10.3138   -7.8050 C   0  0  0  0  0  0  0  0  0  0  0  0
   -3.4444   11.5886   -7.2367 C   0  0  0  0  0  0  0  0  0  0  0  0
   -4.5954   12.3038   -6.9144 C   0  0  0  0  0  0  0  0  0  0  0  0
   -5.8508   11.7543   -7.1602 C   0  0  0  0  0  0  0  0  0  0  0  0
   -2.1010   12.1799   -6.9735 C   0  0  0  0  0  0  0  0  0  0  0  0
   -1.7694   13.4361   -6.4722 C   0  0  0  0  0  0  0  0  0  0  0  0
   -0.4342   13.4933   -6.4118 N   0  0  0  0  0  0  0  0  0  0  0  0
    0.1686   12.4094   -6.8087 N   0  0  0  0  0  0  0  0  0  0  0  0
   -0.8030   11.5907   -7.1765 C   0  0  0  0  0  0  0  0  0  0  0  0
    0.3824   14.6122   -5.9578 C   0  0  0  0  0  0  0  0  0  0  0  0
   -3.5015   14.9079  -11.6138 C   0  0  0  0  0  0  0  0  0  0  0  0
   -2.1980   14.4648  -10.9240 C   0  0  0  0  0  0  0  0  0  0  0  0
   -2.2178   12.9422  -10.9897 C   0  0  0  0  0  0  0  0  0  0  0  0
   -3.7152   12.5763  -10.8194 C   0  0  0  0  0  0  0  0  0  0  0  0
   -6.0752   12.2832   -9.8672 H   0  0  0  0  0  0  0  0  0  0  0  0
   -8.1926   10.1227  -13.8931 H   0  0  0  0  0  0  0  0  0  0  0  0
   -6.9001   12.2523  -14.0842 H   0  0  0  0  0  0  0  0  0  0  0  0
   -8.8891    8.2007  -11.8843 H   0  0  0  0  0  0  0  0  0  0  0  0
   -8.0373    9.5969   -7.2560 H   0  0  0  0  0  0  0  0  0  0  0  0
   -4.8913    8.7824   -8.4959 H   0  0  0  0  0  0  0  0  0  0  0  0
   -2.6604    9.7552   -8.0499 H   0  0  0  0  0  0  0  0  0  0  0  0
   -3.4459   12.0373   -8.2410 H   0  0  0  0  0  0  0  0  0  0  0  0
   -4.5139   13.2862   -6.4731 H   0  0  0  0  0  0  0  0  0  0  0  0
   -6.7415   12.3096   -6.9059 H   0  0  0  0  0  0  0  0  0  0  0  0
   -2.4594   14.2163   -6.1864 H   0  0  0  0  0  0  0  0  0  0  0  0
   -0.6424   10.6017   -7.5796 H   0  0  0  0  0  0  0  0  0  0  0  0
    1.4465   14.3426   -6.0284 H   0  0  0  0  0  0  0  0  0  0  0  0
    0.1842   15.4907   -6.5894 H   0  0  0  0  0  0  0  0  0  0  0  0
    0.1326   14.8481   -4.9128 H   0  0  0  0  0  0  0  0  0  0  0  0
   -3.3223   15.1673  -12.6676 H   0  0  0  0  0  0  0  0  0  0  0  0
   -3.9499   15.7683  -11.0955 H   0  0  0  0  0  0  0  0  0  0  0  0
   -1.3227   14.8639  -11.4575 H   0  0  0  0  0  0  0  0  0  0  0  0
   -2.1776   14.8069   -9.8787 H   0  0  0  0  0  0  0  0  0  0  0  0
   -1.8370   12.5881  -11.9590 H   0  0  0  0  0  0  0  0  0  0  0  0
   -1.6150   12.5084  -10.1783 H   0  0  0  0  0  0  0  0  0  0  0  0
   -4.0015   12.5244   -9.7586 H   0  0  0  0  0  0  0  0  0  0  0  0
   -3.9579   11.6231  -11.3118 H   0  0  0  0  0  0  0  0  0  0  0  0
  1  2  2  0  0  0  0
  1  4  1  0  0  0  0
  1 12  1  0  0  0  0
  2  6  1  0  0  0  0
  3  4  2  0  0  0  0
  3  5  1  0  0  0  0
  5  6  2  0  0  0  0
  5  9  1  0  0  0  0
  6  7  1  0  0  0  0
  7  8  2  0  0  0  0
  7 10  1  0  0  0  0
  8  9  1  0  0  0  0
 10 14  2  0  0  0  0
 11 12  1  0  0  0  0
 11 26  1  0  0  0  0
 11 29  1  0  0  0  0
 12 13  2  0  0  0  0
 14 15  1  0  0  0  0
 14 19  1  0  0  0  0
 15 16  2  0  0  0  0
 16 17  1  0  0  0  0
 17 18  1  0  0  0  0
 17 20  1  0  0  0  0
 18 19  2  0  0  0  0
 20 21  2  0  0  0  0
 20 24  1  0  0  0  0
 21 22  1  0  0  0  0
 22 23  1  0  0  0  0
 22 25  1  0  0  0  0
 23 24  2  0  0  0  0
 26 27  1  0  0  0  0
 27 28  1  0  0  0  0
 28 29  1  0  0  0  0
  2 30  1  0  0  0  0
  3 31  1  0  0  0  0
  4 32  1  0  0  0  0
  9 33  1  0  0  0  0
 10 34  1  0  0  0  0
 15 35  1  0  0  0  0
 16 36  1  0  0  0  0
 17 37  1  0  0  0  0
 18 38  1  0  0  0  0
 19 39  1  0  0  0  0
 21 40  1  0  0  0  0
 24 41  1  0  0  0  0
 25 42  1  0  0  0  0
 25 43  1  0  0  0  0
 25 44  1  0  0  0  0
 26 45  1  0  0  0  0
 26 46  1  0  0  0  0
 27 47  1  0  0  0  0
 27 48  1  0  0  0  0
 28 49  1  0  0  0  0
 28 50  1  0  0  0  0
 29 51  1  0  0  0  0
 29 52  1  0  0  0  0
M  END
> <Name>
37

> <IC50[uM]>
0.004

$$$$
37
  -OEChem-05192314333D
 Structure written by MMmdl.
 52 56  0     0  0  0  0  0  0999 V2000
   -6.3714   12.3591  -12.0053 C   0  0  0  0  0  0  0  0  0  0  0  0
   -6.5147   11.8055  -10.7304 C   0  0  0  0  0  0  0  0  0  0  0  0
   -7.7273   10.5756  -13.0301 C   0  0  0  0  0  0  0  0  0  0  0  0
   -6.9920   11.7699  -13.1223 C   0  0  0  0  0  0  0  0  0  0  0  0
   -7.8210   10.0087  -11.7569 C   0  0  0  0  0  0  0  0  0  0  0  0
   -7.2407   10.6185  -10.5997 C   0  0  0  0  0  0  0  0  0  0  0  0
   -7.6132    9.7471   -9.5123 C   0  0  0  0  0  0  0  0  0  0  0  0
   -8.2794    8.7320   -9.9893 N   0  0  0  0  0  0  0  0  0  0  0  0
   -8.4144    8.8594  -11.3005 N   0  0  0  0  0  0  0  0  0  0  0  0
   -7.3370    9.8875   -8.0251 C   0  0  0  0  0  0  0  0  0  0  0  0
   -4.3570   13.7205  -11.5014 N   0  0  0  0  0  0  0  0  0  0  0  0
   -5.5485   13.6383  -12.1900 C   0  0  0  0  0  0  0  0  0  0  0  0
   -5.9462   14.5274  -12.9449 O   0  0  0  0  0  0  0  0  0  0  0  0
   -5.9602   10.4847   -7.7357 C   0  0  0  0  0  0  0  0  0  0  0  0
   -4.8090    9.7649   -8.0550 C   0  0  0  0  0  0  0  0  0  0  0  0
   -3.5517   10.3138   -7.8050 C   0  0  0  0  0  0  0  0  0  0  0  0
   -3.4444   11.5886   -7.2367 C   0  0  0  0  0  0  0  0  0  0  0  0
   -4.5954   12.3038   -6.9144 C   0  0  0  0  0  0  0  0  0  0  0  0
   -5.8508   11.7543   -7.1602 C   0  0  0  0  0  0  0  0  0  0  0  0
   -2.1010   12.1799   -6.9735 C   0  0  0  0  0  0  0  0  0  0  0  0
   -1.7694   13.4361   -6.4722 C   0  0  0  0  0  0  0  0  0  0  0  0
   -0.4342   13.4933   -6.4118 N   0  0  0  0  0  0  0  0  0  0  0  0
    0.1686   12.4094   -6.8087 N   0  0  0  0  0  0  0  0  0  0  0  0
   -0.8030   11.5907   -7.1765 C   0  0  0  0  0  0  0  0  0  0  0  0
    0.3824   14.6122   -5.9578 C   0  0  0  0  0  0  0  0  0  0  0  0
   -3.5015   14.9079  -11.6138 C   0  0  0  0  0  0  0  0  0  0  0  0
   -2.1980   14.4648  -10.9240 C   0  0  0  0  0  0  0  0  0  0  0  0
   -2.2178   12.9422  -10.9897 C   0  0  0  0  0  0  0  0  0  0  0  0
   -3.7152   12.5763  -10.8194 C   0  0  0  0  0  0  0  0  0  0  0  0
   -6.0752   12.2832   -9.8672 H   0  0  0  0  0  0  0  0  0  0  0  0
   -8.1926   10.1227  -13.8931 H   0  0  0  0  0  0  0  0  0  0  0  0
   -6.9001   12.2523  -14.0842 H   0  0  0  0  0  0  0  0  0  0  0  0
   -8.6350    7.9714   -9.4461 H   0  0  0  0  0  0  0  0  0  0  0  0
   -8.0373    9.5969   -7.2560 H   0  0  0  0  0  0  0  0  0  0  0  0
   -4.8913    8.7824   -8.4959 H   0  0  0  0  0  0  0  0  0  0  0  0
   -2.6604    9.7552   -8.0499 H   0  0  0  0  0  0  0  0  0  0  0  0
   -4.5139   13.2862   -6.4731 H   0  0  0  0  0  0  0  0  0  0  0  0
   -6.3768   12.4518   -7.8286 H   0  0  0  0  0  0  0  0  0  0  0  0
   -6.3724   11.7099   -6.1927 H   0  0  0  0  0  0  0  0  0  0  0  0
   -2.4594   14.2163   -6.1864 H   0  0  0  0  0  0  0  0  0  0  0  0
   -0.6424   10.6017   -7.5796 H   0  0  0  0  0  0  0  0  0  0  0  0
    1.4465   14.3426   -6.0284 H   0  0  0  0  0  0  0  0  0  0  0  0
    0.1842   15.4907   -6.5894 H   0  0  0  0  0  0  0  0  0  0  0  0
    0.1326   14.8481   -4.9128 H   0  0  0  0  0  0  0  0  0  0  0  0
   -3.3223   15.1673  -12.6676 H   0  0  0  0  0  0  0  0  0  0  0  0
   -3.9499   15.7683  -11.0955 H   0  0  0  0  0  0  0  0  0  0  0  0
   -1.3227   14.8639  -11.4575 H   0  0  0  0  0  0  0  0  0  0  0  0
   -2.1776   14.8069   -9.8787 H   0  0  0  0  0  0  0  0  0  0  0  0
   -1.8370   12.5881  -11.9590 H   0  0  0  0  0  0  0  0  0  0  0  0
   -1.6150   12.5084  -10.1783 H   0  0  0  0  0  0  0  0  0  0  0  0
   -4.0015   12.5244   -9.7586 H   0  0  0  0  0  0  0  0  0  0  0  0
   -3.9579   11.6231  -11.3118 H   0  0  0  0  0  0  0  0  0  0  0  0
  1  2  2  0  0  0  0
  1  4  1  0  0  0  0
  1 12  1  0  0  0  0
  2  6  1  0  0  0  0
  3  4  2  0  0  0  0
  3  5  1  0  0  0  0
  5  6  1  0  0  0  0
  5  9  2  0  0  0  0
  6  7  2  0  0  0  0
  7  8  1  0  0  0  0
  7 10  1  0  0  0  0
  8  9  1  0  0  0  0
 10 14  2  3  0  0  0
 11 12  1  0  0  0  0
 11 26  1  0  0  0  0
 11 29  1  0  0  0  0
 12 13  2  0  0  0  0
 14 15  1  0  0  0  0
 14 19  1  0  0  0  0
 15 16  2  0  0  0  0
 16 17  1  0  0  0  0
 17 18  2  0  0  0  0
 17 20  1  0  0  0  0
 18 19  1  0  0  0  0
 20 21  2  0  0  0  0
 20 24  1  0  0  0  0
 21 22  1  0  0  0  0
 22 23  1  0  0  0  0
 22 25  1  0  0  0  0
 23 24  2  0  0  0  0
 26 27  1  0  0  0  0
 27 28  1  0  0  0  0
 28 29  1  0  0  0  0
  2 30  1  0  0  0  0
  3 31  1  0  0  0  0
  4 32  1  0  0  0  0
  8 33  1  0  0  0  0
 10 34  1  0  0  0  0
 15 35  1  0  0  0  0
 16 36  1  0  0  0  0
 18 37  1  0  0  0  0
 19 38  1  0  0  0  0
 19 39  1  0  0  0  0
 21 40  1  0  0  0  0
 24 41  1  0  0  0  0
 25 42  1  0  0  0  0
 25 43  1  0  0  0  0
 25 44  1  0  0  0  0
 26 45  1  0  0  0  0
 26 46  1  0  0  0  0
 27 47  1  0  0  0  0
 27 48  1  0  0  0  0
 28 49  1  0  0  0  0
 28 50  1  0  0  0  0
 29 51  1  0  0  0  0
 29 52  1  0  0  0  0
M  END
> <Name>
37

> <IC50[uM]>
0.004

$$$$
37
  -OEChem-05192314333D
 Structure written by MMmdl.
 52 56  0     0  0  0  0  0  0999 V2000
   -6.3714   12.3591  -12.0053 C   0  0  0  0  0  0  0  0  0  0  0  0
   -6.5147   11.8055  -10.7304 C   0  0  0  0  0  0  0  0  0  0  0  0
   -7.7273   10.5756  -13.0301 C   0  0  0  0  0  0  0  0  0  0  0  0
   -6.9920   11.7699  -13.1223 C   0  0  0  0  0  0  0  0  0  0  0  0
   -7.8210   10.0087  -11.7569 C   0  0  0  0  0  0  0  0  0  0  0  0
   -7.2407   10.6185  -10.5997 C   0  0  0  0  0  0  0  0  0  0  0  0
   -7.6132    9.7471   -9.5123 C   0  0  0  0  0  0  0  0  0  0  0  0
   -8.2794    8.7320   -9.9893 N   0  0  0  0  0  0  0  0  0  0  0  0
   -8.4144    8.8594  -11.3005 N   0  0  0  0  0  0  0  0  0  0  0  0
   -7.3370    9.8875   -8.0251 C   0  0  0  0  0  0  0  0  0  0  0  0
   -4.3570   13.7205  -11.5014 N   0  0  0  0  0  0  0  0  0  0  0  0
   -5.5485   13.6383  -12.1900 C   0  0  0  0  0  0  0  0  0  0  0  0
   -5.9462   14.5274  -12.9449 O   0  0  0  0  0  0  0  0  0  0  0  0
   -5.9602   10.4847   -7.7357 C   0  0  0  0  0  0  0  0  0  0  0  0
   -4.8090    9.7649   -8.0550 C   0  0  0  0  0  0  0  0  0  0  0  0
   -3.5517   10.3138   -7.8050 C   0  0  0  0  0  0  0  0  0  0  0  0
   -3.4444   11.5886   -7.2367 C   0  0  0  0  0  0  0  0  0  0  0  0
   -4.5954   12.3038   -6.9144 C   0  0  0  0  0  0  0  0  0  0  0  0
   -5.8508   11.7543   -7.1602 C   0  0  0  0  0  0  0  0  0  0  0  0
   -2.1010   12.1799   -6.9735 C   0  0  0  0  0  0  0  0  0  0  0  0
   -1.7694   13.4361   -6.4722 C   0  0  0  0  0  0  0  0  0  0  0  0
   -0.4342   13.4933   -6.4118 N   0  0  0  0  0  0  0  0  0  0  0  0
    0.1686   12.4094   -6.8087 N   0  0  0  0  0  0  0  0  0  0  0  0
   -0.8030   11.5907   -7.1765 C   0  0  0  0  0  0  0  0  0  0  0  0
    0.3824   14.6122   -5.9578 C   0  0  0  0  0  0  0  0  0  0  0  0
   -3.5015   14.9079  -11.6138 C   0  0  0  0  0  0  0  0  0  0  0  0
   -2.1980   14.4648  -10.9240 C   0  0  0  0  0  0  0  0  0  0  0  0
   -2.2178   12.9422  -10.9897 C   0  0  0  0  0  0  0  0  0  0  0  0
   -3.7152   12.5763  -10.8194 C   0  0  0  0  0  0  0  0  0  0  0  0
   -6.0752   12.2832   -9.8672 H   0  0  0  0  0  0  0  0  0  0  0  0
   -8.1926   10.1227  -13.8931 H   0  0  0  0  0  0  0  0  0  0  0  0
   -6.9001   12.2523  -14.0842 H   0  0  0  0  0  0  0  0  0  0  0  0
   -8.8891    8.2007  -11.8843 H   0  0  0  0  0  0  0  0  0  0  0  0
   -8.0373    9.5969   -7.2560 H   0  0  0  0  0  0  0  0  0  0  0  0
   -4.8913    8.7824   -8.4959 H   0  0  0  0  0  0  0  0  0  0  0  0
   -2.6604    9.7552   -8.0499 H   0  0  0  0  0  0  0  0  0  0  0  0
   -4.5139   13.2862   -6.4731 H   0  0  0  0  0  0  0  0  0  0  0  0
   -6.3768   12.4518   -7.8286 H   0  0  0  0  0  0  0  0  0  0  0  0
   -6.3724   11.7099   -6.1927 H   0  0  0  0  0  0  0  0  0  0  0  0
   -2.4594   14.2163   -6.1864 H   0  0  0  0  0  0  0  0  0  0  0  0
   -0.6424   10.6017   -7.5796 H   0  0  0  0  0  0  0  0  0  0  0  0
    1.4465   14.3426   -6.0284 H   0  0  0  0  0  0  0  0  0  0  0  0
    0.1842   15.4907   -6.5894 H   0  0  0  0  0  0  0  0  0  0  0  0
    0.1326   14.8481   -4.9128 H   0  0  0  0  0  0  0  0  0  0  0  0
   -3.3223   15.1673  -12.6676 H   0  0  0  0  0  0  0  0  0  0  0  0
   -3.9499   15.7683  -11.0955 H   0  0  0  0  0  0  0  0  0  0  0  0
   -1.3227   14.8639  -11.4575 H   0  0  0  0  0  0  0  0  0  0  0  0
   -2.1776   14.8069   -9.8787 H   0  0  0  0  0  0  0  0  0  0  0  0
   -1.8370   12.5881  -11.9590 H   0  0  0  0  0  0  0  0  0  0  0  0
   -1.6150   12.5084  -10.1783 H   0  0  0  0  0  0  0  0  0  0  0  0
   -4.0015   12.5244   -9.7586 H   0  0  0  0  0  0  0  0  0  0  0  0
   -3.9579   11.6231  -11.3118 H   0  0  0  0  0  0  0  0  0  0  0  0
  1  2  2  0  0  0  0
  1  4  1  0  0  0  0
  1 12  1  0  0  0  0
  2  6  1  0  0  0  0
  3  4  2  0  0  0  0
  3  5  1  0  0  0  0
  5  6  2  0  0  0  0
  5  9  1  0  0  0  0
  6  7  1  0  0  0  0
  7  8  2  0  0  0  0
  7 10  1  0  0  0  0
  8  9  1  0  0  0  0
 10 14  2  3  0  0  0
 11 12  1  0  0  0  0
 11 26  1  0  0  0  0
 11 29  1  0  0  0  0
 12 13  2  0  0  0  0
 14 15  1  0  0  0  0
 14 19  1  0  0  0  0
 15 16  2  0  0  0  0
 16 17  1  0  0  0  0
 17 18  2  0  0  0  0
 17 20  1  0  0  0  0
 18 19  1  0  0  0  0
 20 21  2  0  0  0  0
 20 24  1  0  0  0  0
 21 22  1  0  0  0  0
 22 23  1  0  0  0  0
 22 25  1  0  0  0  0
 23 24  2  0  0  0  0
 26 27  1  0  0  0  0
 27 28  1  0  0  0  0
 28 29  1  0  0  0  0
  2 30  1  0  0  0  0
  3 31  1  0  0  0  0
  4 32  1  0  0  0  0
  9 33  1  0  0  0  0
 10 34  1  0  0  0  0
 15 35  1  0  0  0  0
 16 36  1  0  0  0  0
 18 37  1  0  0  0  0
 19 38  1  0  0  0  0
 19 39  1  0  0  0  0
 21 40  1  0  0  0  0
 24 41  1  0  0  0  0
 25 42  1  0  0  0  0
 25 43  1  0  0  0  0
 25 44  1  0  0  0  0
 26 45  1  0  0  0  0
 26 46  1  0  0  0  0
 27 47  1  0  0  0  0
 27 48  1  0  0  0  0
 28 49  1  0  0  0  0
 28 50  1  0  0  0  0
 29 51  1  0  0  0  0
 29 52  1  0  0  0  0
M  END
> <Name>
37

> <IC50[uM]>
0.004

$$$$
37
  -OEChem-05192314333D
 Structure written by MMmdl.
 52 56  0     1  0  0  0  0  0999 V2000
   -6.3714   12.3591  -12.0053 C   0  0  0  0  0  0  0  0  0  0  0  0
   -6.5147   11.8055  -10.7304 C   0  0  0  0  0  0  0  0  0  0  0  0
   -7.7273   10.5756  -13.0301 C   0  0  0  0  0  0  0  0  0  0  0  0
   -6.9920   11.7699  -13.1223 C   0  0  0  0  0  0  0  0  0  0  0  0
   -7.8210   10.0087  -11.7569 C   0  0  0  0  0  0  0  0  0  0  0  0
   -7.2407   10.6185  -10.5997 C   0  0  0  0  0  0  0  0  0  0  0  0
   -7.6132    9.7471   -9.5123 C   0  0  0  0  0  0  0  0  0  0  0  0
   -8.2794    8.7320   -9.9893 N   0  0  0  0  0  0  0  0  0  0  0  0
   -8.4144    8.8594  -11.3005 N   0  0  0  0  0  0  0  0  0  0  0  0
   -7.3370    9.8875   -8.0251 C   0  0  0  0  0  0  0  0  0  0  0  0
   -4.3570   13.7205  -11.5014 N   0  0  0  0  0  0  0  0  0  0  0  0
   -5.5485   13.6383  -12.1900 C   0  0  0  0  0  0  0  0  0  0  0  0
   -5.9462   14.5274  -12.9449 O   0  0  0  0  0  0  0  0  0  0  0  0
   -5.9602   10.4847   -7.7357 C   0  0  0  0  0  0  0  0  0  0  0  0
   -4.8090    9.7649   -8.0550 C   0  0  0  0  0  0  0  0  0  0  0  0
   -3.5517   10.3138   -7.8050 C   0  0  0  0  0  0  0  0  0  0  0  0
   -3.4444   11.5886   -7.2367 C   0  0  0  0  0  0  0  0  0  0  0  0
   -4.5954   12.3038   -6.9144 C   0  0  0  0  0  0  0  0  0  0  0  0
   -5.8508   11.7543   -7.1602 C   0  0  0  0  0  0  0  0  0  0  0  0
   -2.1010   12.1799   -6.9735 C   0  0  3  0  0  0  0  0  0  0  0  0
   -1.7694   13.4361   -6.4722 C   0  0  0  0  0  0  0  0  0  0  0  0
   -0.4342   13.4933   -6.4118 N   0  0  3  0  0  0  0  0  0  0  0  0
    0.1686   12.4094   -6.8087 N   0  0  0  0  0  0  0  0  0  0  0  0
   -0.8030   11.5907   -7.1765 C   0  0  0  0  0  0  0  0  0  0  0  0
    0.3824   14.6122   -5.9578 C   0  0  0  0  0  0  0  0  0  0  0  0
   -3.5015   14.9079  -11.6138 C   0  0  0  0  0  0  0  0  0  0  0  0
   -2.1980   14.4648  -10.9240 C   0  0  0  0  0  0  0  0  0  0  0  0
   -2.2178   12.9422  -10.9897 C   0  0  0  0  0  0  0  0  0  0  0  0
   -3.7152   12.5763  -10.8194 C   0  0  0  0  0  0  0  0  0  0  0  0
   -6.0752   12.2832   -9.8672 H   0  0  0  0  0  0  0  0  0  0  0  0
   -8.1926   10.1227  -13.8931 H   0  0  0  0  0  0  0  0  0  0  0  0
   -6.9001   12.2523  -14.0842 H   0  0  0  0  0  0  0  0  0  0  0  0
   -8.0373    9.5969   -7.2560 H   0  0  0  0  0  0  0  0  0  0  0  0
   -4.8913    8.7824   -8.4959 H   0  0  0  0  0  0  0  0  0  0  0  0
   -2.6604    9.7552   -8.0499 H   0  0  0  0  0  0  0  0  0  0  0  0
   -4.5139   13.2862   -6.4731 H   0  0  0  0  0  0  0  0  0  0  0  0
   -6.7415   12.3096   -6.9059 H   0  0  0  0  0  0  0  0  0  0  0  0
   -2.1240   11.7773   -5.9501 H   0  0  0  0  0  0  0  0  0  0  0  0
   -2.1513   14.2222   -7.1401 H   0  0  0  0  0  0  0  0  0  0  0  0
   -2.1989   13.5675   -5.4681 H   0  0  0  0  0  0  0  0  0  0  0  0
   -0.6424   10.6017   -7.5796 H   0  0  0  0  0  0  0  0  0  0  0  0
    1.4465   14.3426   -6.0284 H   0  0  0  0  0  0  0  0  0  0  0  0
    0.1842   15.4907   -6.5894 H   0  0  0  0  0  0  0  0  0  0  0  0
    0.1326   14.8481   -4.9128 H   0  0  0  0  0  0  0  0  0  0  0  0
   -3.3223   15.1673  -12.6676 H   0  0  0  0  0  0  0  0  0  0  0  0
   -3.9499   15.7683  -11.0955 H   0  0  0  0  0  0  0  0  0  0  0  0
   -1.3227   14.8639  -11.4575 H   0  0  0  0  0  0  0  0  0  0  0  0
   -2.1776   14.8069   -9.8787 H   0  0  0  0  0  0  0  0  0  0  0  0
   -1.8370   12.5881  -11.9590 H   0  0  0  0  0  0  0  0  0  0  0  0
   -1.6150   12.5084  -10.1783 H   0  0  0  0  0  0  0  0  0  0  0  0
   -4.0015   12.5244   -9.7586 H   0  0  0  0  0  0  0  0  0  0  0  0
   -3.9579   11.6231  -11.3118 H   0  0  0  0  0  0  0  0  0  0  0  0
  1  2  2  0  0  0  0
  1  4  1  0  0  0  0
  1 12  1  0  0  0  0
  2  6  1  0  0  0  0
  3  4  2  0  0  0  0
  3  5  1  0  0  0  0
  5  6  2  0  0  0  0
  5  9  1  0  0  0  0
  6  7  1  0  0  0  0
  7  8  1  0  0  0  0
  7 10  2  3  0  0  0
  8  9  2  0  0  0  0
 10 14  1  0  0  0  0
 11 12  1  0  0  0  0
 11 26  1  0  0  0  0
 11 29  1  0  0  0  0
 12 13  2  0  0  0  0
 14 15  2  0  0  0  0
 14 19  1  0  0  0  0
 15 16  1  0  0  0  0
 16 17  2  0  0  0  0
 17 18  1  0  0  0  0
 17 20  1  0  0  0  0
 18 19  2  0  0  0  0
 20 21  1  0  0  0  0
 20 24  1  0  0  0  0
 21 22  1  0  0  0  0
 22 23  1  0  0  0  0
 22 25  1  0  0  0  0
 23 24  2  0  0  0  0
 26 27  1  0  0  0  0
 27 28  1  0  0  0  0
 28 29  1  0  0  0  0
  2 30  1  0  0  0  0
  3 31  1  0  0  0  0
  4 32  1  0  0  0  0
 10 33  1  0  0  0  0
 15 34  1  0  0  0  0
 16 35  1  0  0  0  0
 18 36  1  0  0  0  0
 19 37  1  0  0  0  0
 20 38  1  0  0  0  0
 21 39  1  0  0  0  0
 21 40  1  0  0  0  0
 24 41  1  0  0  0  0
 25 42  1  0  0  0  0
 25 43  1  0  0  0  0
 25 44  1  0  0  0  0
 26 45  1  0  0  0  0
 26 46  1  0  0  0  0
 27 47  1  0  0  0  0
 27 48  1  0  0  0  0
 28 49  1  0  0  0  0
 28 50  1  0  0  0  0
 29 51  1  0  0  0  0
 29 52  1  0  0  0  0
M  END
> <Name>
37

> <IC50[uM]>
0.004

$$$$
37
  -OEChem-05192314333D
 Structure written by MMmdl.
 52 56  0     1  0  0  0  0  0999 V2000
   -6.3714   12.3591  -12.0053 C   0  0  0  0  0  0  0  0  0  0  0  0
   -6.5147   11.8055  -10.7304 C   0  0  0  0  0  0  0  0  0  0  0  0
   -7.7273   10.5756  -13.0301 C   0  0  0  0  0  0  0  0  0  0  0  0
   -6.9920   11.7699  -13.1223 C   0  0  0  0  0  0  0  0  0  0  0  0
   -7.8210   10.0087  -11.7569 C   0  0  0  0  0  0  0  0  0  0  0  0
   -7.2407   10.6185  -10.5997 C   0  0  0  0  0  0  0  0  0  0  0  0
   -7.6132    9.7471   -9.5123 C   0  0  0  0  0  0  0  0  0  0  0  0
   -8.2794    8.7320   -9.9893 N   0  0  0  0  0  0  0  0  0  0  0  0
   -8.4144    8.8594  -11.3005 N   0  0  0  0  0  0  0  0  0  0  0  0
   -7.3370    9.8875   -8.0251 C   0  0  0  0  0  0  0  0  0  0  0  0
   -4.3570   13.7205  -11.5014 N   0  0  0  0  0  0  0  0  0  0  0  0
   -5.5485   13.6383  -12.1900 C   0  0  0  0  0  0  0  0  0  0  0  0
   -5.9462   14.5274  -12.9449 O   0  0  0  0  0  0  0  0  0  0  0  0
   -5.9602   10.4847   -7.7357 C   0  0  0  0  0  0  0  0  0  0  0  0
   -4.8090    9.7649   -8.0550 C   0  0  0  0  0  0  0  0  0  0  0  0
   -3.5517   10.3138   -7.8050 C   0  0  0  0  0  0  0  0  0  0  0  0
   -3.4444   11.5886   -7.2367 C   0  0  0  0  0  0  0  0  0  0  0  0
   -4.5954   12.3038   -6.9144 C   0  0  0  0  0  0  0  0  0  0  0  0
   -5.8508   11.7543   -7.1602 C   0  0  0  0  0  0  0  0  0  0  0  0
   -2.1010   12.1799   -6.9735 C   0  0  0  0  0  0  0  0  0  0  0  0
   -1.7694   13.4361   -6.4722 C   0  0  0  0  0  0  0  0  0  0  0  0
   -0.4342   13.4933   -6.4118 N   0  0  3  0  0  0  0  0  0  0  0  0
    0.1686   12.4094   -6.8087 N   0  0  0  0  0  0  0  0  0  0  0  0
   -0.8030   11.5907   -7.1765 C   0  0  0  0  0  0  0  0  0  0  0  0
    0.3824   14.6122   -5.9578 C   0  0  0  0  0  0  0  0  0  0  0  0
   -3.5015   14.9079  -11.6138 C   0  0  0  0  0  0  0  0  0  0  0  0
   -2.1980   14.4648  -10.9240 C   0  0  0  0  0  0  0  0  0  0  0  0
   -2.2178   12.9422  -10.9897 C   0  0  0  0  0  0  0  0  0  0  0  0
   -3.7152   12.5763  -10.8194 C   0  0  0  0  0  0  0  0  0  0  0  0
   -6.0752   12.2832   -9.8672 H   0  0  0  0  0  0  0  0  0  0  0  0
   -8.1926   10.1227  -13.8931 H   0  0  0  0  0  0  0  0  0  0  0  0
   -6.9001   12.2523  -14.0842 H   0  0  0  0  0  0  0  0  0  0  0  0
   -8.0373    9.5969   -7.2560 H   0  0  0  0  0  0  0  0  0  0  0  0
   -4.8913    8.7824   -8.4959 H   0  0  0  0  0  0  0  0  0  0  0  0
   -2.6604    9.7552   -8.0499 H   0  0  0  0  0  0  0  0  0  0  0  0
   -4.5139   13.2862   -6.4731 H   0  0  0  0  0  0  0  0  0  0  0  0
   -6.7415   12.3096   -6.9059 H   0  0  0  0  0  0  0  0  0  0  0  0
   -2.4594   14.2163   -6.1864 H   0  0  0  0  0  0  0  0  0  0  0  0
    0.7730   12.6063   -7.5806 H   0  0  0  0  0  0  0  0  0  0  0  0
   -0.7342   10.6667   -6.5836 H   0  0  0  0  0  0  0  0  0  0  0  0
   -0.6829   11.3515   -8.2435 H   0  0  0  0  0  0  0  0  0  0  0  0
    1.4466   14.3435   -6.0306 H   0  0  0  0  0  0  0  0  0  0  0  0
    0.1824   15.4914   -6.5880 H   0  0  0  0  0  0  0  0  0  0  0  0
    0.1342   14.8465   -4.9121 H   0  0  0  0  0  0  0  0  0  0  0  0
   -3.3223   15.1673  -12.6676 H   0  0  0  0  0  0  0  0  0  0  0  0
   -3.9499   15.7683  -11.0955 H   0  0  0  0  0  0  0  0  0  0  0  0
   -1.3227   14.8639  -11.4575 H   0  0  0  0  0  0  0  0  0  0  0  0
   -2.1776   14.8069   -9.8787 H   0  0  0  0  0  0  0  0  0  0  0  0
   -1.8370   12.5881  -11.9590 H   0  0  0  0  0  0  0  0  0  0  0  0
   -1.6150   12.5084  -10.1783 H   0  0  0  0  0  0  0  0  0  0  0  0
   -4.0015   12.5244   -9.7586 H   0  0  0  0  0  0  0  0  0  0  0  0
   -3.9579   11.6231  -11.3118 H   0  0  0  0  0  0  0  0  0  0  0  0
  1  2  2  0  0  0  0
  1  4  1  0  0  0  0
  1 12  1  0  0  0  0
  2  6  1  0  0  0  0
  3  4  2  0  0  0  0
  3  5  1  0  0  0  0
  5  6  2  0  0  0  0
  5  9  1  0  0  0  0
  6  7  1  0  0  0  0
  7  8  1  0  0  0  0
  7 10  2  3  0  0  0
  8  9  2  0  0  0  0
 10 14  1  0  0  0  0
 11 12  1  0  0  0  0
 11 26  1  0  0  0  0
 11 29  1  0  0  0  0
 12 13  2  0  0  0  0
 14 15  2  0  0  0  0
 14 19  1  0  0  0  0
 15 16  1  0  0  0  0
 16 17  2  0  0  0  0
 17 18  1  0  0  0  0
 17 20  1  0  0  0  0
 18 19  2  0  0  0  0
 20 21  2  0  0  0  0
 20 24  1  0  0  0  0
 21 22  1  0  0  0  0
 22 23  1  0  0  0  0
 22 25  1  0  0  0  0
 23 24  1  0  0  0  0
 26 27  1  0  0  0  0
 27 28  1  0  0  0  0
 28 29  1  0  0  0  0
  2 30  1  0  0  0  0
  3 31  1  0  0  0  0
  4 32  1  0  0  0  0
 10 33  1  0  0  0  0
 15 34  1  0  0  0  0
 16 35  1  0  0  0  0
 18 36  1  0  0  0  0
 19 37  1  0  0  0  0
 21 38  1  0  0  0  0
 23 39  1  0  0  0  0
 24 40  1  0  0  0  0
 24 41  1  0  0  0  0
 25 42  1  0  0  0  0
 25 43  1  0  0  0  0
 25 44  1  0  0  0  0
 26 45  1  0  0  0  0
 26 46  1  0  0  0  0
 27 47  1  0  0  0  0
 27 48  1  0  0  0  0
 28 49  1  0  0  0  0
 28 50  1  0  0  0  0
 29 51  1  0  0  0  0
 29 52  1  0  0  0  0
M  END
> <Name>
37

> <IC50[uM]>
0.004

$$$$
37
  -OEChem-05192314333D
 Structure written by MMmdl.
 52 56  0     1  0  0  0  0  0999 V2000
   -6.3714   12.3591  -12.0053 C   0  0  0  0  0  0  0  0  0  0  0  0
   -6.5147   11.8055  -10.7304 C   0  0  0  0  0  0  0  0  0  0  0  0
   -7.7273   10.5756  -13.0301 C   0  0  0  0  0  0  0  0  0  0  0  0
   -6.9920   11.7699  -13.1223 C   0  0  0  0  0  0  0  0  0  0  0  0
   -7.8210   10.0087  -11.7569 C   0  0  0  0  0  0  0  0  0  0  0  0
   -7.2407   10.6185  -10.5997 C   0  0  0  0  0  0  0  0  0  0  0  0
   -7.6132    9.7471   -9.5123 C   0  0  0  0  0  0  0  0  0  0  0  0
   -8.2794    8.7320   -9.9893 N   0  0  0  0  0  0  0  0  0  0  0  0
   -8.4144    8.8594  -11.3005 N   0  0  0  0  0  0  0  0  0  0  0  0
   -7.3370    9.8875   -8.0251 C   0  0  0  0  0  0  0  0  0  0  0  0
   -4.3570   13.7205  -11.5014 N   0  0  0  0  0  0  0  0  0  0  0  0
   -5.5485   13.6383  -12.1900 C   0  0  0  0  0  0  0  0  0  0  0  0
   -5.9462   14.5274  -12.9449 O   0  0  0  0  0  0  0  0  0  0  0  0
   -5.9602   10.4847   -7.7357 C   0  0  0  0  0  0  0  0  0  0  0  0
   -4.8090    9.7649   -8.0550 C   0  0  0  0  0  0  0  0  0  0  0  0
   -3.5517   10.3138   -7.8050 C   0  0  0  0  0  0  0  0  0  0  0  0
   -3.4444   11.5886   -7.2367 C   0  0  0  0  0  0  0  0  0  0  0  0
   -4.5954   12.3038   -6.9144 C   0  0  0  0  0  0  0  0  0  0  0  0
   -5.8508   11.7543   -7.1602 C   0  0  0  0  0  0  0  0  0  0  0  0
   -2.1010   12.1799   -6.9735 C   0  0  0  0  0  0  0  0  0  0  0  0
   -1.7694   13.4361   -6.4722 C   0  0  0  0  0  0  0  0  0  0  0  0
   -0.4342   13.4933   -6.4118 N   0  0  3  0  0  0  0  0  0  0  0  0
    0.1686   12.4094   -6.8087 N   0  0  0  0  0  0  0  0  0  0  0  0
   -0.8030   11.5907   -7.1765 C   0  0  0  0  0  0  0  0  0  0  0  0
    0.3824   14.6122   -5.9578 C   0  0  0  0  0  0  0  0  0  0  0  0
   -3.5015   14.9079  -11.6138 C   0  0  0  0  0  0  0  0  0  0  0  0
   -2.1980   14.4648  -10.9240 C   0  0  0  0  0  0  0  0  0  0  0  0
   -2.2178   12.9422  -10.9897 C   0  0  0  0  0  0  0  0  0  0  0  0
   -3.7152   12.5763  -10.8194 C   0  0  0  0  0  0  0  0  0  0  0  0
   -6.0752   12.2832   -9.8672 H   0  0  0  0  0  0  0  0  0  0  0  0
   -8.1926   10.1227  -13.8931 H   0  0  0  0  0  0  0  0  0  0  0  0
   -6.9001   12.2523  -14.0842 H   0  0  0  0  0  0  0  0  0  0  0  0
   -8.0373    9.5969   -7.2560 H   0  0  0  0  0  0  0  0  0  0  0  0
   -4.8913    8.7824   -8.4959 H   0  0  0  0  0  0  0  0  0  0  0  0
   -2.6604    9.7552   -8.0499 H   0  0  0  0  0  0  0  0  0  0  0  0
   -4.5139   13.2862   -6.4731 H   0  0  0  0  0  0  0  0  0  0  0  0
   -6.7415   12.3096   -6.9059 H   0  0  0  0  0  0  0  0  0  0  0  0
   -2.1513   14.2222   -7.1401 H   0  0  0  0  0  0  0  0  0  0  0  0
   -2.1989   13.5675   -5.4681 H   0  0  0  0  0  0  0  0  0  0  0  0
    0.7730   12.6063   -7.5806 H   0  0  0  0  0  0  0  0  0  0  0  0
   -0.6424   10.6017   -7.5796 H   0  0  0  0  0  0  0  0  0  0  0  0
    1.4466   14.3435   -6.0306 H   0  0  0  0  0  0  0  0  0  0  0  0
    0.1824   15.4914   -6.5880 H   0  0  0  0  0  0  0  0  0  0  0  0
    0.1342   14.8465   -4.9121 H   0  0  0  0  0  0  0  0  0  0  0  0
   -3.3223   15.1673  -12.6676 H   0  0  0  0  0  0  0  0  0  0  0  0
   -3.9499   15.7683  -11.0955 H   0  0  0  0  0  0  0  0  0  0  0  0
   -1.3227   14.8639  -11.4575 H   0  0  0  0  0  0  0  0  0  0  0  0
   -2.1776   14.8069   -9.8787 H   0  0  0  0  0  0  0  0  0  0  0  0
   -1.8370   12.5881  -11.9590 H   0  0  0  0  0  0  0  0  0  0  0  0
   -1.6150   12.5084  -10.1783 H   0  0  0  0  0  0  0  0  0  0  0  0
   -4.0015   12.5244   -9.7586 H   0  0  0  0  0  0  0  0  0  0  0  0
   -3.9579   11.6231  -11.3118 H   0  0  0  0  0  0  0  0  0  0  0  0
  1  2  2  0  0  0  0
  1  4  1  0  0  0  0
  1 12  1  0  0  0  0
  2  6  1  0  0  0  0
  3  4  2  0  0  0  0
  3  5  1  0  0  0  0
  5  6  2  0  0  0  0
  5  9  1  0  0  0  0
  6  7  1  0  0  0  0
  7  8  1  0  0  0  0
  7 10  2  3  0  0  0
  8  9  2  0  0  0  0
 10 14  1  0  0  0  0
 11 12  1  0  0  0  0
 11 26  1  0  0  0  0
 11 29  1  0  0  0  0
 12 13  2  0  0  0  0
 14 15  2  0  0  0  0
 14 19  1  0  0  0  0
 15 16  1  0  0  0  0
 16 17  2  0  0  0  0
 17 18  1  0  0  0  0
 17 20  1  0  0  0  0
 18 19  2  0  0  0  0
 20 21  1  0  0  0  0
 20 24  2  0  0  0  0
 21 22  1  0  0  0  0
 22 23  1  0  0  0  0
 22 25  1  0  0  0  0
 23 24  1  0  0  0  0
 26 27  1  0  0  0  0
 27 28  1  0  0  0  0
 28 29  1  0  0  0  0
  2 30  1  0  0  0  0
  3 31  1  0  0  0  0
  4 32  1  0  0  0  0
 10 33  1  0  0  0  0
 15 34  1  0  0  0  0
 16 35  1  0  0  0  0
 18 36  1  0  0  0  0
 19 37  1  0  0  0  0
 21 38  1  0  0  0  0
 21 39  1  0  0  0  0
 23 40  1  0  0  0  0
 24 41  1  0  0  0  0
 25 42  1  0  0  0  0
 25 43  1  0  0  0  0
 25 44  1  0  0  0  0
 26 45  1  0  0  0  0
 26 46  1  0  0  0  0
 27 47  1  0  0  0  0
 27 48  1  0  0  0  0
 28 49  1  0  0  0  0
 28 50  1  0  0  0  0
 29 51  1  0  0  0  0
 29 52  1  0  0  0  0
M  END
> <Name>
37

> <IC50[uM]>
0.004

$$$$
37
  -OEChem-05192314333D
 Structure written by MMmdl.
 52 56  0     1  0  0  0  0  0999 V2000
   -6.3714   12.3591  -12.0053 C   0  0  0  0  0  0  0  0  0  0  0  0
   -6.5147   11.8055  -10.7304 C   0  0  0  0  0  0  0  0  0  0  0  0
   -7.7273   10.5756  -13.0301 C   0  0  0  0  0  0  0  0  0  0  0  0
   -6.9920   11.7699  -13.1223 C   0  0  0  0  0  0  0  0  0  0  0  0
   -7.8210   10.0087  -11.7569 C   0  0  0  0  0  0  0  0  0  0  0  0
   -7.2407   10.6185  -10.5997 C   0  0  0  0  0  0  0  0  0  0  0  0
   -7.6132    9.7471   -9.5123 C   0  0  3  0  0  0  0  0  0  0  0  0
   -8.2794    8.7320   -9.9893 N   0  0  0  0  0  0  0  0  0  0  0  0
   -8.4144    8.8594  -11.3005 N   0  0  0  0  0  0  0  0  0  0  0  0
   -7.3370    9.8875   -8.0251 C   0  0  0  0  0  0  0  0  0  0  0  0
   -4.3570   13.7205  -11.5014 N   0  0  0  0  0  0  0  0  0  0  0  0
   -5.5485   13.6383  -12.1900 C   0  0  0  0  0  0  0  0  0  0  0  0
   -5.9462   14.5274  -12.9449 O   0  0  0  0  0  0  0  0  0  0  0  0
   -5.9602   10.4847   -7.7357 C   0  0  0  0  0  0  0  0  0  0  0  0
   -4.8090    9.7649   -8.0550 C   0  0  0  0  0  0  0  0  0  0  0  0
   -3.5517   10.3138   -7.8050 C   0  0  0  0  0  0  0  0  0  0  0  0
   -3.4444   11.5886   -7.2367 C   0  0  0  0  0  0  0  0  0  0  0  0
   -4.5954   12.3038   -6.9144 C   0  0  0  0  0  0  0  0  0  0  0  0
   -5.8508   11.7543   -7.1602 C   0  0  0  0  0  0  0  0  0  0  0  0
   -2.1010   12.1799   -6.9735 C   0  0  0  0  0  0  0  0  0  0  0  0
   -1.7694   13.4361   -6.4722 C   0  0  0  0  0  0  0  0  0  0  0  0
   -0.4342   13.4933   -6.4118 N   0  0  3  0  0  0  0  0  0  0  0  0
    0.1686   12.4094   -6.8087 N   0  0  0  0  0  0  0  0  0  0  0  0
   -0.8030   11.5907   -7.1765 C   0  0  0  0  0  0  0  0  0  0  0  0
    0.3824   14.6122   -5.9578 C   0  0  0  0  0  0  0  0  0  0  0  0
   -3.5015   14.9079  -11.6138 C   0  0  0  0  0  0  0  0  0  0  0  0
   -2.1980   14.4648  -10.9240 C   0  0  0  0  0  0  0  0  0  0  0  0
   -2.2178   12.9422  -10.9897 C   0  0  0  0  0  0  0  0  0  0  0  0
   -3.7152   12.5763  -10.8194 C   0  0  0  0  0  0  0  0  0  0  0  0
   -6.0752   12.2832   -9.8672 H   0  0  0  0  0  0  0  0  0  0  0  0
   -8.1926   10.1227  -13.8931 H   0  0  0  0  0  0  0  0  0  0  0  0
   -6.9001   12.2523  -14.0842 H   0  0  0  0  0  0  0  0  0  0  0  0
   -6.6730    9.1896   -9.6354 H   0  0  0  0  0  0  0  0  0  0  0  0
   -8.0373    9.5969   -7.2560 H   0  0  0  0  0  0  0  0  0  0  0  0
   -4.8913    8.7824   -8.4959 H   0  0  0  0  0  0  0  0  0  0  0  0
   -2.6604    9.7552   -8.0499 H   0  0  0  0  0  0  0  0  0  0  0  0
   -4.5139   13.2862   -6.4731 H   0  0  0  0  0  0  0  0  0  0  0  0
   -6.7415   12.3096   -6.9059 H   0  0  0  0  0  0  0  0  0  0  0  0
   -2.1513   14.2222   -7.1401 H   0  0  0  0  0  0  0  0  0  0  0  0
   -2.1989   13.5675   -5.4681 H   0  0  0  0  0  0  0  0  0  0  0  0
   -0.6424   10.6017   -7.5796 H   0  0  0  0  0  0  0  0  0  0  0  0
    1.4465   14.3426   -6.0284 H   0  0  0  0  0  0  0  0  0  0  0  0
    0.1842   15.4907   -6.5894 H   0  0  0  0  0  0  0  0  0  0  0  0
    0.1326   14.8481   -4.9128 H   0  0  0  0  0  0  0  0  0  0  0  0
   -3.3223   15.1673  -12.6676 H   0  0  0  0  0  0  0  0  0  0  0  0
   -3.9499   15.7683  -11.0955 H   0  0  0  0  0  0  0  0  0  0  0  0
   -1.3227   14.8639  -11.4575 H   0  0  0  0  0  0  0  0  0  0  0  0
   -2.1776   14.8069   -9.8787 H   0  0  0  0  0  0  0  0  0  0  0  0
   -1.8370   12.5881  -11.9590 H   0  0  0  0  0  0  0  0  0  0  0  0
   -1.6150   12.5084  -10.1783 H   0  0  0  0  0  0  0  0  0  0  0  0
   -4.0015   12.5244   -9.7586 H   0  0  0  0  0  0  0  0  0  0  0  0
   -3.9579   11.6231  -11.3118 H   0  0  0  0  0  0  0  0  0  0  0  0
  1  2  2  0  0  0  0
  1  4  1  0  0  0  0
  1 12  1  0  0  0  0
  2  6  1  0  0  0  0
  3  4  2  0  0  0  0
  3  5  1  0  0  0  0
  5  6  2  0  0  0  0
  5  9  1  0  0  0  0
  6  7  1  0  0  0  0
  7  8  1  0  0  0  0
  7 10  1  0  0  0  0
  8  9  2  0  0  0  0
 10 14  2  0  0  0  0
 11 12  1  0  0  0  0
 11 26  1  0  0  0  0
 11 29  1  0  0  0  0
 12 13  2  0  0  0  0
 14 15  1  0  0  0  0
 14 19  1  0  0  0  0
 15 16  2  0  0  0  0
 16 17  1  0  0  0  0
 17 18  1  0  0  0  0
 17 20  2  0  0  0  0
 18 19  2  0  0  0  0
 20 21  1  0  0  0  0
 20 24  1  0  0  0  0
 21 22  1  0  0  0  0
 22 23  1  0  0  0  0
 22 25  1  0  0  0  0
 23 24  2  0  0  0  0
 26 27  1  0  0  0  0
 27 28  1  0  0  0  0
 28 29  1  0  0  0  0
  2 30  1  0  0  0  0
  3 31  1  0  0  0  0
  4 32  1  0  0  0  0
  7 33  1  0  0  0  0
 10 34  1  0  0  0  0
 15 35  1  0  0  0  0
 16 36  1  0  0  0  0
 18 37  1  0  0  0  0
 19 38  1  0  0  0  0
 21 39  1  0  0  0  0
 21 40  1  0  0  0  0
 24 41  1  0  0  0  0
 25 42  1  0  0  0  0
 25 43  1  0  0  0  0
 25 44  1  0  0  0  0
 26 45  1  0  0  0  0
 26 46  1  0  0  0  0
 27 47  1  0  0  0  0
 27 48  1  0  0  0  0
 28 49  1  0  0  0  0
 28 50  1  0  0  0  0
 29 51  1  0  0  0  0
 29 52  1  0  0  0  0
M  END
> <Name>
37

> <IC50[uM]>
0.004

$$$$
37
  -OEChem-05192314333D
 Structure written by MMmdl.
 52 56  0     1  0  0  0  0  0999 V2000
   -6.3714   12.3591  -12.0053 C   0  0  3  0  0  0  0  0  0  0  0  0
   -6.5147   11.8055  -10.7304 C   0  0  0  0  0  0  0  0  0  0  0  0
   -7.7273   10.5756  -13.0301 C   0  0  0  0  0  0  0  0  0  0  0  0
   -6.9920   11.7699  -13.1223 C   0  0  0  0  0  0  0  0  0  0  0  0
   -7.8210   10.0087  -11.7569 C   0  0  0  0  0  0  0  0  0  0  0  0
   -7.2407   10.6185  -10.5997 C   0  0  0  0  0  0  0  0  0  0  0  0
   -7.6132    9.7471   -9.5123 C   0  0  0  0  0  0  0  0  0  0  0  0
   -8.2794    8.7320   -9.9893 N   0  0  0  0  0  0  0  0  0  0  0  0
   -8.4144    8.8594  -11.3005 N   0  0  0  0  0  0  0  0  0  0  0  0
   -7.3370    9.8875   -8.0251 C   0  0  0  0  0  0  0  0  0  0  0  0
   -4.3570   13.7205  -11.5014 N   0  0  0  0  0  0  0  0  0  0  0  0
   -5.5485   13.6383  -12.1900 C   0  0  0  0  0  0  0  0  0  0  0  0
   -5.9462   14.5274  -12.9449 O   0  0  0  0  0  0  0  0  0  0  0  0
   -5.9602   10.4847   -7.7357 C   0  0  0  0  0  0  0  0  0  0  0  0
   -4.8090    9.7649   -8.0550 C   0  0  0  0  0  0  0  0  0  0  0  0
   -3.5517   10.3138   -7.8050 C   0  0  0  0  0  0  0  0  0  0  0  0
   -3.4444   11.5886   -7.2367 C   0  0  0  0  0  0  0  0  0  0  0  0
   -4.5954   12.3038   -6.9144 C   0  0  0  0  0  0  0  0  0  0  0  0
   -5.8508   11.7543   -7.1602 C   0  0  0  0  0  0  0  0  0  0  0  0
   -2.1010   12.1799   -6.9735 C   0  0  0  0  0  0  0  0  0  0  0  0
   -1.7694   13.4361   -6.4722 C   0  0  0  0  0  0  0  0  0  0  0  0
   -0.4342   13.4933   -6.4118 N   0  0  0  0  0  0  0  0  0  0  0  0
    0.1686   12.4094   -6.8087 N   0  0  0  0  0  0  0  0  0  0  0  0
   -0.8030   11.5907   -7.1765 C   0  0  0  0  0  0  0  0  0  0  0  0
    0.3824   14.6122   -5.9578 C   0  0  0  0  0  0  0  0  0  0  0  0
   -3.5015   14.9079  -11.6138 C   0  0  0  0  0  0  0  0  0  0  0  0
   -2.1980   14.4648  -10.9240 C   0  0  0  0  0  0  0  0  0  0  0  0
   -2.2178   12.9422  -10.9897 C   0  0  0  0  0  0  0  0  0  0  0  0
   -3.7152   12.5763  -10.8194 C   0  0  0  0  0  0  0  0  0  0  0  0
   -5.4719   11.7492  -12.1757 H   0  0  0  0  0  0  0  0  0  0  0  0
   -6.0752   12.2832   -9.8672 H   0  0  0  0  0  0  0  0  0  0  0  0
   -8.1926   10.1227  -13.8931 H   0  0  0  0  0  0  0  0  0  0  0  0
   -6.9001   12.2523  -14.0842 H   0  0  0  0  0  0  0  0  0  0  0  0
   -8.1041   10.5414   -7.5847 H   0  0  0  0  0  0  0  0  0  0  0  0
   -7.3935    8.8918   -7.5609 H   0  0  0  0  0  0  0  0  0  0  0  0
   -4.8913    8.7824   -8.4959 H   0  0  0  0  0  0  0  0  0  0  0  0
   -2.6604    9.7552   -8.0499 H   0  0  0  0  0  0  0  0  0  0  0  0
   -4.5139   13.2862   -6.4731 H   0  0  0  0  0  0  0  0  0  0  0  0
   -6.7415   12.3096   -6.9059 H   0  0  0  0  0  0  0  0  0  0  0  0
   -2.4594   14.2163   -6.1864 H   0  0  0  0  0  0  0  0  0  0  0  0
   -0.6424   10.6017   -7.5796 H   0  0  0  0  0  0  0  0  0  0  0  0
    1.4465   14.3426   -6.0284 H   0  0  0  0  0  0  0  0  0  0  0  0
    0.1842   15.4907   -6.5894 H   0  0  0  0  0  0  0  0  0  0  0  0
    0.1326   14.8481   -4.9128 H   0  0  0  0  0  0  0  0  0  0  0  0
   -3.3223   15.1673  -12.6676 H   0  0  0  0  0  0  0  0  0  0  0  0
   -3.9499   15.7683  -11.0955 H   0  0  0  0  0  0  0  0  0  0  0  0
   -1.3227   14.8639  -11.4575 H   0  0  0  0  0  0  0  0  0  0  0  0
   -2.1776   14.8069   -9.8787 H   0  0  0  0  0  0  0  0  0  0  0  0
   -1.8370   12.5881  -11.9590 H   0  0  0  0  0  0  0  0  0  0  0  0
   -1.6150   12.5084  -10.1783 H   0  0  0  0  0  0  0  0  0  0  0  0
   -4.0015   12.5244   -9.7586 H   0  0  0  0  0  0  0  0  0  0  0  0
   -3.9579   11.6231  -11.3118 H   0  0  0  0  0  0  0  0  0  0  0  0
  1  2  1  0  0  0  0
  1  4  1  0  0  0  0
  1 12  1  0  0  0  0
  2  6  2  0  0  0  0
  3  4  2  0  0  0  0
  3  5  1  0  0  0  0
  5  6  1  0  0  0  0
  5  9  2  0  0  0  0
  6  7  1  0  0  0  0
  7  8  2  0  0  0  0
  7 10  1  0  0  0  0
  8  9  1  0  0  0  0
 10 14  1  0  0  0  0
 11 12  1  0  0  0  0
 11 26  1  0  0  0  0
 11 29  1  0  0  0  0
 12 13  2  0  0  0  0
 14 15  2  0  0  0  0
 14 19  1  0  0  0  0
 15 16  1  0  0  0  0
 16 17  2  0  0  0  0
 17 18  1  0  0  0  0
 17 20  1  0  0  0  0
 18 19  2  0  0  0  0
 20 21  2  0  0  0  0
 20 24  1  0  0  0  0
 21 22  1  0  0  0  0
 22 23  1  0  0  0  0
 22 25  1  0  0  0  0
 23 24  2  0  0  0  0
 26 27  1  0  0  0  0
 27 28  1  0  0  0  0
 28 29  1  0  0  0  0
  1 30  1  0  0  0  0
  2 31  1  0  0  0  0
  3 32  1  0  0  0  0
  4 33  1  0  0  0  0
 10 34  1  0  0  0  0
 10 35  1  0  0  0  0
 15 36  1  0  0  0  0
 16 37  1  0  0  0  0
 18 38  1  0  0  0  0
 19 39  1  0  0  0  0
 21 40  1  0  0  0  0
 24 41  1  0  0  0  0
 25 42  1  0  0  0  0
 25 43  1  0  0  0  0
 25 44  1  0  0  0  0
 26 45  1  0  0  0  0
 26 46  1  0  0  0  0
 27 47  1  0  0  0  0
 27 48  1  0  0  0  0
 28 49  1  0  0  0  0
 28 50  1  0  0  0  0
 29 51  1  0  0  0  0
 29 52  1  0  0  0  0
M  END
> <Name>
37

> <IC50[uM]>
0.004

$$$$
37
  -OEChem-05192314333D
 Structure written by MMmdl.
 52 56  0     1  0  0  0  0  0999 V2000
   -6.3714   12.3591  -12.0053 C   0  0  0  0  0  0  0  0  0  0  0  0
   -6.5147   11.8055  -10.7304 C   0  0  0  0  0  0  0  0  0  0  0  0
   -7.7273   10.5756  -13.0301 C   0  0  0  0  0  0  0  0  0  0  0  0
   -6.9920   11.7699  -13.1223 C   0  0  0  0  0  0  0  0  0  0  0  0
   -7.8210   10.0087  -11.7569 C   0  0  0  0  0  0  0  0  0  0  0  0
   -7.2407   10.6185  -10.5997 C   0  0  3  0  0  0  0  0  0  0  0  0
   -7.6132    9.7471   -9.5123 C   0  0  0  0  0  0  0  0  0  0  0  0
   -8.2794    8.7320   -9.9893 N   0  0  0  0  0  0  0  0  0  0  0  0
   -8.4144    8.8594  -11.3005 N   0  0  0  0  0  0  0  0  0  0  0  0
   -7.3370    9.8875   -8.0251 C   0  0  0  0  0  0  0  0  0  0  0  0
   -4.3570   13.7205  -11.5014 N   0  0  0  0  0  0  0  0  0  0  0  0
   -5.5485   13.6383  -12.1900 C   0  0  0  0  0  0  0  0  0  0  0  0
   -5.9462   14.5274  -12.9449 O   0  0  0  0  0  0  0  0  0  0  0  0
   -5.9602   10.4847   -7.7357 C   0  0  0  0  0  0  0  0  0  0  0  0
   -4.8090    9.7649   -8.0550 C   0  0  0  0  0  0  0  0  0  0  0  0
   -3.5517   10.3138   -7.8050 C   0  0  0  0  0  0  0  0  0  0  0  0
   -3.4444   11.5886   -7.2367 C   0  0  0  0  0  0  0  0  0  0  0  0
   -4.5954   12.3038   -6.9144 C   0  0  0  0  0  0  0  0  0  0  0  0
   -5.8508   11.7543   -7.1602 C   0  0  0  0  0  0  0  0  0  0  0  0
   -2.1010   12.1799   -6.9735 C   0  0  0  0  0  0  0  0  0  0  0  0
   -1.7694   13.4361   -6.4722 C   0  0  0  0  0  0  0  0  0  0  0  0
   -0.4342   13.4933   -6.4118 N   0  0  0  0  0  0  0  0  0  0  0  0
    0.1686   12.4094   -6.8087 N   0  0  0  0  0  0  0  0  0  0  0  0
   -0.8030   11.5907   -7.1765 C   0  0  0  0  0  0  0  0  0  0  0  0
    0.3824   14.6122   -5.9578 C   0  0  0  0  0  0  0  0  0  0  0  0
   -3.5015   14.9079  -11.6138 C   0  0  0  0  0  0  0  0  0  0  0  0
   -2.1980   14.4648  -10.9240 C   0  0  0  0  0  0  0  0  0  0  0  0
   -2.2178   12.9422  -10.9897 C   0  0  0  0  0  0  0  0  0  0  0  0
   -3.7152   12.5763  -10.8194 C   0  0  0  0  0  0  0  0  0  0  0  0
   -6.0752   12.2832   -9.8672 H   0  0  0  0  0  0  0  0  0  0  0  0
   -8.1926   10.1227  -13.8931 H   0  0  0  0  0  0  0  0  0  0  0  0
   -6.9001   12.2523  -14.0842 H   0  0  0  0  0  0  0  0  0  0  0  0
   -6.3199   10.0365  -10.7528 H   0  0  0  0  0  0  0  0  0  0  0  0
   -8.1041   10.5414   -7.5847 H   0  0  0  0  0  0  0  0  0  0  0  0
   -7.3935    8.8918   -7.5609 H   0  0  0  0  0  0  0  0  0  0  0  0
   -4.8913    8.7824   -8.4959 H   0  0  0  0  0  0  0  0  0  0  0  0
   -2.6604    9.7552   -8.0499 H   0  0  0  0  0  0  0  0  0  0  0  0
   -4.5139   13.2862   -6.4731 H   0  0  0  0  0  0  0  0  0  0  0  0
   -6.7415   12.3096   -6.9059 H   0  0  0  0  0  0  0  0  0  0  0  0
   -2.4594   14.2163   -6.1864 H   0  0  0  0  0  0  0  0  0  0  0  0
   -0.6424   10.6017   -7.5796 H   0  0  0  0  0  0  0  0  0  0  0  0
    1.4465   14.3426   -6.0284 H   0  0  0  0  0  0  0  0  0  0  0  0
    0.1842   15.4907   -6.5894 H   0  0  0  0  0  0  0  0  0  0  0  0
    0.1326   14.8481   -4.9128 H   0  0  0  0  0  0  0  0  0  0  0  0
   -3.3223   15.1673  -12.6676 H   0  0  0  0  0  0  0  0  0  0  0  0
   -3.9499   15.7683  -11.0955 H   0  0  0  0  0  0  0  0  0  0  0  0
   -1.3227   14.8639  -11.4575 H   0  0  0  0  0  0  0  0  0  0  0  0
   -2.1776   14.8069   -9.8787 H   0  0  0  0  0  0  0  0  0  0  0  0
   -1.8370   12.5881  -11.9590 H   0  0  0  0  0  0  0  0  0  0  0  0
   -1.6150   12.5084  -10.1783 H   0  0  0  0  0  0  0  0  0  0  0  0
   -4.0015   12.5244   -9.7586 H   0  0  0  0  0  0  0  0  0  0  0  0
   -3.9579   11.6231  -11.3118 H   0  0  0  0  0  0  0  0  0  0  0  0
  1  2  2  0  0  0  0
  1  4  1  0  0  0  0
  1 12  1  0  0  0  0
  2  6  1  0  0  0  0
  3  4  2  0  0  0  0
  3  5  1  0  0  0  0
  5  6  1  0  0  0  0
  5  9  2  0  0  0  0
  6  7  1  0  0  0  0
  7  8  2  0  0  0  0
  7 10  1  0  0  0  0
  8  9  1  0  0  0  0
 10 14  1  0  0  0  0
 11 12  1  0  0  0  0
 11 26  1  0  0  0  0
 11 29  1  0  0  0  0
 12 13  2  0  0  0  0
 14 15  2  0  0  0  0
 14 19  1  0  0  0  0
 15 16  1  0  0  0  0
 16 17  2  0  0  0  0
 17 18  1  0  0  0  0
 17 20  1  0  0  0  0
 18 19  2  0  0  0  0
 20 21  2  0  0  0  0
 20 24  1  0  0  0  0
 21 22  1  0  0  0  0
 22 23  1  0  0  0  0
 22 25  1  0  0  0  0
 23 24  2  0  0  0  0
 26 27  1  0  0  0  0
 27 28  1  0  0  0  0
 28 29  1  0  0  0  0
  2 30  1  0  0  0  0
  3 31  1  0  0  0  0
  4 32  1  0  0  0  0
  6 33  1  0  0  0  0
 10 34  1  0  0  0  0
 10 35  1  0  0  0  0
 15 36  1  0  0  0  0
 16 37  1  0  0  0  0
 18 38  1  0  0  0  0
 19 39  1  0  0  0  0
 21 40  1  0  0  0  0
 24 41  1  0  0  0  0
 25 42  1  0  0  0  0
 25 43  1  0  0  0  0
 25 44  1  0  0  0  0
 26 45  1  0  0  0  0
 26 46  1  0  0  0  0
 27 47  1  0  0  0  0
 27 48  1  0  0  0  0
 28 49  1  0  0  0  0
 28 50  1  0  0  0  0
 29 51  1  0  0  0  0
 29 52  1  0  0  0  0
M  END
> <Name>
37

> <IC50[uM]>
0.004

$$$$
37
  -OEChem-05192314333D
 Structure written by MMmdl.
 52 56  0     0  0  0  0  0  0999 V2000
   -6.3714   12.3591  -12.0053 C   0  0  0  0  0  0  0  0  0  0  0  0
   -6.5147   11.8055  -10.7304 C   0  0  0  0  0  0  0  0  0  0  0  0
   -7.7273   10.5756  -13.0301 C   0  0  0  0  0  0  0  0  0  0  0  0
   -6.9920   11.7699  -13.1223 C   0  0  0  0  0  0  0  0  0  0  0  0
   -7.8210   10.0087  -11.7569 C   0  0  0  0  0  0  0  0  0  0  0  0
   -7.2407   10.6185  -10.5997 C   0  0  0  0  0  0  0  0  0  0  0  0
   -7.6132    9.7471   -9.5123 C   0  0  0  0  0  0  0  0  0  0  0  0
   -8.2794    8.7320   -9.9893 N   0  0  0  0  0  0  0  0  0  0  0  0
   -8.4144    8.8594  -11.3005 N   0  0  0  0  0  0  0  0  0  0  0  0
   -7.3370    9.8875   -8.0251 C   0  0  0  0  0  0  0  0  0  0  0  0
   -4.3570   13.7205  -11.5014 N   0  0  0  0  0  0  0  0  0  0  0  0
   -5.5485   13.6383  -12.1900 C   0  0  0  0  0  0  0  0  0  0  0  0
   -5.9462   14.5274  -12.9449 O   0  0  0  0  0  0  0  0  0  0  0  0
   -5.9602   10.4847   -7.7357 C   0  0  0  0  0  0  0  0  0  0  0  0
   -4.8090    9.7649   -8.0550 C   0  0  0  0  0  0  0  0  0  0  0  0
   -3.5517   10.3138   -7.8050 C   0  0  0  0  0  0  0  0  0  0  0  0
   -3.4444   11.5886   -7.2367 C   0  0  0  0  0  0  0  0  0  0  0  0
   -4.5954   12.3038   -6.9144 C   0  0  0  0  0  0  0  0  0  0  0  0
   -5.8508   11.7543   -7.1602 C   0  0  0  0  0  0  0  0  0  0  0  0
   -2.1010   12.1799   -6.9735 C   0  0  0  0  0  0  0  0  0  0  0  0
   -1.7694   13.4361   -6.4722 C   0  0  0  0  0  0  0  0  0  0  0  0
   -0.4342   13.4933   -6.4118 N   0  0  0  0  0  0  0  0  0  0  0  0
    0.1686   12.4094   -6.8087 N   0  0  0  0  0  0  0  0  0  0  0  0
   -0.8030   11.5907   -7.1765 C   0  0  0  0  0  0  0  0  0  0  0  0
    0.3824   14.6122   -5.9578 C   0  0  0  0  0  0  0  0  0  0  0  0
   -3.5015   14.9079  -11.6138 C   0  0  0  0  0  0  0  0  0  0  0  0
   -2.1980   14.4648  -10.9240 C   0  0  0  0  0  0  0  0  0  0  0  0
   -2.2178   12.9422  -10.9897 C   0  0  0  0  0  0  0  0  0  0  0  0
   -3.7152   12.5763  -10.8194 C   0  0  0  0  0  0  0  0  0  0  0  0
   -6.0752   12.2832   -9.8672 H   0  0  0  0  0  0  0  0  0  0  0  0
   -8.7488   10.7817  -13.3823 H   0  0  0  0  0  0  0  0  0  0  0  0
   -7.2530    9.8368  -13.6929 H   0  0  0  0  0  0  0  0  0  0  0  0
   -6.9001   12.2523  -14.0842 H   0  0  0  0  0  0  0  0  0  0  0  0
   -8.1041   10.5414   -7.5847 H   0  0  0  0  0  0  0  0  0  0  0  0
   -7.3935    8.8918   -7.5609 H   0  0  0  0  0  0  0  0  0  0  0  0
   -4.8913    8.7824   -8.4959 H   0  0  0  0  0  0  0  0  0  0  0  0
   -2.6604    9.7552   -8.0499 H   0  0  0  0  0  0  0  0  0  0  0  0
   -4.5139   13.2862   -6.4731 H   0  0  0  0  0  0  0  0  0  0  0  0
   -6.7415   12.3096   -6.9059 H   0  0  0  0  0  0  0  0  0  0  0  0
   -2.4594   14.2163   -6.1864 H   0  0  0  0  0  0  0  0  0  0  0  0
   -0.6424   10.6017   -7.5796 H   0  0  0  0  0  0  0  0  0  0  0  0
    1.4465   14.3426   -6.0284 H   0  0  0  0  0  0  0  0  0  0  0  0
    0.1842   15.4907   -6.5894 H   0  0  0  0  0  0  0  0  0  0  0  0
    0.1326   14.8481   -4.9128 H   0  0  0  0  0  0  0  0  0  0  0  0
   -3.3223   15.1673  -12.6676 H   0  0  0  0  0  0  0  0  0  0  0  0
   -3.9499   15.7683  -11.0955 H   0  0  0  0  0  0  0  0  0  0  0  0
   -1.3227   14.8639  -11.4575 H   0  0  0  0  0  0  0  0  0  0  0  0
   -2.1776   14.8069   -9.8787 H   0  0  0  0  0  0  0  0  0  0  0  0
   -1.8370   12.5881  -11.9590 H   0  0  0  0  0  0  0  0  0  0  0  0
   -1.6150   12.5084  -10.1783 H   0  0  0  0  0  0  0  0  0  0  0  0
   -4.0015   12.5244   -9.7586 H   0  0  0  0  0  0  0  0  0  0  0  0
   -3.9579   11.6231  -11.3118 H   0  0  0  0  0  0  0  0  0  0  0  0
  1  2  1  0  0  0  0
  1  4  2  0  0  0  0
  1 12  1  0  0  0  0
  2  6  2  0  0  0  0
  3  4  1  0  0  0  0
  3  5  1  0  0  0  0
  5  6  1  0  0  0  0
  5  9  2  0  0  0  0
  6  7  1  0  0  0  0
  7  8  2  0  0  0  0
  7 10  1  0  0  0  0
  8  9  1  0  0  0  0
 10 14  1  0  0  0  0
 11 12  1  0  0  0  0
 11 26  1  0  0  0  0
 11 29  1  0  0  0  0
 12 13  2  0  0  0  0
 14 15  2  0  0  0  0
 14 19  1  0  0  0  0
 15 16  1  0  0  0  0
 16 17  2  0  0  0  0
 17 18  1  0  0  0  0
 17 20  1  0  0  0  0
 18 19  2  0  0  0  0
 20 21  2  0  0  0  0
 20 24  1  0  0  0  0
 21 22  1  0  0  0  0
 22 23  1  0  0  0  0
 22 25  1  0  0  0  0
 23 24  2  0  0  0  0
 26 27  1  0  0  0  0
 27 28  1  0  0  0  0
 28 29  1  0  0  0  0
  2 30  1  0  0  0  0
  3 31  1  0  0  0  0
  3 32  1  0  0  0  0
  4 33  1  0  0  0  0
 10 34  1  0  0  0  0
 10 35  1  0  0  0  0
 15 36  1  0  0  0  0
 16 37  1  0  0  0  0
 18 38  1  0  0  0  0
 19 39  1  0  0  0  0
 21 40  1  0  0  0  0
 24 41  1  0  0  0  0
 25 42  1  0  0  0  0
 25 43  1  0  0  0  0
 25 44  1  0  0  0  0
 26 45  1  0  0  0  0
 26 46  1  0  0  0  0
 27 47  1  0  0  0  0
 27 48  1  0  0  0  0
 28 49  1  0  0  0  0
 28 50  1  0  0  0  0
 29 51  1  0  0  0  0
 29 52  1  0  0  0  0
M  END
> <Name>
37

> <IC50[uM]>
0.004

$$$$
37
  -OEChem-05192314333D
 Structure written by MMmdl.
 52 56  0     0  0  0  0  0  0999 V2000
   -6.3714   12.3591  -12.0053 C   0  0  0  0  0  0  0  0  0  0  0  0
   -6.5147   11.8055  -10.7304 C   0  0  0  0  0  0  0  0  0  0  0  0
   -7.7273   10.5756  -13.0301 C   0  0  0  0  0  0  0  0  0  0  0  0
   -6.9920   11.7699  -13.1223 C   0  0  0  0  0  0  0  0  0  0  0  0
   -7.8210   10.0087  -11.7569 C   0  0  0  0  0  0  0  0  0  0  0  0
   -7.2407   10.6185  -10.5997 C   0  0  0  0  0  0  0  0  0  0  0  0
   -7.6132    9.7471   -9.5123 C   0  0  0  0  0  0  0  0  0  0  0  0
   -8.2794    8.7320   -9.9893 N   0  0  0  0  0  0  0  0  0  0  0  0
   -8.4144    8.8594  -11.3005 N   0  0  0  0  0  0  0  0  0  0  0  0
   -7.3370    9.8875   -8.0251 C   0  0  0  0  0  0  0  0  0  0  0  0
   -4.3570   13.7205  -11.5014 N   0  0  0  0  0  0  0  0  0  0  0  0
   -5.5485   13.6383  -12.1900 C   0  0  0  0  0  0  0  0  0  0  0  0
   -5.9462   14.5274  -12.9449 O   0  0  0  0  0  0  0  0  0  0  0  0
   -5.9602   10.4847   -7.7357 C   0  0  0  0  0  0  0  0  0  0  0  0
   -4.8090    9.7649   -8.0550 C   0  0  0  0  0  0  0  0  0  0  0  0
   -3.5517   10.3138   -7.8050 C   0  0  0  0  0  0  0  0  0  0  0  0
   -3.4444   11.5886   -7.2367 C   0  0  0  0  0  0  0  0  0  0  0  0
   -4.5954   12.3038   -6.9144 C   0  0  0  0  0  0  0  0  0  0  0  0
   -5.8508   11.7543   -7.1602 C   0  0  0  0  0  0  0  0  0  0  0  0
   -2.1010   12.1799   -6.9735 C   0  0  0  0  0  0  0  0  0  0  0  0
   -1.7694   13.4361   -6.4722 C   0  0  0  0  0  0  0  0  0  0  0  0
   -0.4342   13.4933   -6.4118 N   0  0  0  0  0  0  0  0  0  0  0  0
    0.1686   12.4094   -6.8087 N   0  0  0  0  0  0  0  0  0  0  0  0
   -0.8030   11.5907   -7.1765 C   0  0  0  0  0  0  0  0  0  0  0  0
    0.3824   14.6122   -5.9578 C   0  0  0  0  0  0  0  0  0  0  0  0
   -3.5015   14.9079  -11.6138 C   0  0  0  0  0  0  0  0  0  0  0  0
   -2.1980   14.4648  -10.9240 C   0  0  0  0  0  0  0  0  0  0  0  0
   -2.2178   12.9422  -10.9897 C   0  0  0  0  0  0  0  0  0  0  0  0
   -3.7152   12.5763  -10.8194 C   0  0  0  0  0  0  0  0  0  0  0  0
   -6.0752   12.2832   -9.8672 H   0  0  0  0  0  0  0  0  0  0  0  0
   -8.1926   10.1227  -13.8931 H   0  0  0  0  0  0  0  0  0  0  0  0
   -6.9001   12.2523  -14.0842 H   0  0  0  0  0  0  0  0  0  0  0  0
   -8.0373    9.5969   -7.2560 H   0  0  0  0  0  0  0  0  0  0  0  0
   -5.9705   10.0290   -6.7346 H   0  0  0  0  0  0  0  0  0  0  0  0
   -4.8913    8.7824   -8.4959 H   0  0  0  0  0  0  0  0  0  0  0  0
   -2.6604    9.7552   -8.0499 H   0  0  0  0  0  0  0  0  0  0  0  0
   -3.4459   12.0373   -8.2410 H   0  0  0  0  0  0  0  0  0  0  0  0
   -4.5139   13.2862   -6.4731 H   0  0  0  0  0  0  0  0  0  0  0  0
   -6.7415   12.3096   -6.9059 H   0  0  0  0  0  0  0  0  0  0  0  0
   -2.4594   14.2163   -6.1864 H   0  0  0  0  0  0  0  0  0  0  0  0
   -0.6424   10.6017   -7.5796 H   0  0  0  0  0  0  0  0  0  0  0  0
    1.4465   14.3426   -6.0284 H   0  0  0  0  0  0  0  0  0  0  0  0
    0.1842   15.4907   -6.5894 H   0  0  0  0  0  0  0  0  0  0  0  0
    0.1326   14.8481   -4.9128 H   0  0  0  0  0  0  0  0  0  0  0  0
   -3.3223   15.1673  -12.6676 H   0  0  0  0  0  0  0  0  0  0  0  0
   -3.9499   15.7683  -11.0955 H   0  0  0  0  0  0  0  0  0  0  0  0
   -1.3227   14.8639  -11.4575 H   0  0  0  0  0  0  0  0  0  0  0  0
   -2.1776   14.8069   -9.8787 H   0  0  0  0  0  0  0  0  0  0  0  0
   -1.8370   12.5881  -11.9590 H   0  0  0  0  0  0  0  0  0  0  0  0
   -1.6150   12.5084  -10.1783 H   0  0  0  0  0  0  0  0  0  0  0  0
   -4.0015   12.5244   -9.7586 H   0  0  0  0  0  0  0  0  0  0  0  0
   -3.9579   11.6231  -11.3118 H   0  0  0  0  0  0  0  0  0  0  0  0
  1  2  2  0  0  0  0
  1  4  1  0  0  0  0
  1 12  1  0  0  0  0
  2  6  1  0  0  0  0
  3  4  2  0  0  0  0
  3  5  1  0  0  0  0
  5  6  2  0  0  0  0
  5  9  1  0  0  0  0
  6  7  1  0  0  0  0
  7  8  1  0  0  0  0
  7 10  2  3  0  0  0
  8  9  2  0  0  0  0
 10 14  1  0  0  0  0
 11 12  1  0  0  0  0
 11 26  1  0  0  0  0
 11 29  1  0  0  0  0
 12 13  2  0  0  0  0
 14 15  1  0  0  0  0
 14 19  1  0  0  0  0
 15 16  2  0  0  0  0
 16 17  1  0  0  0  0
 17 18  1  0  0  0  0
 17 20  1  0  0  0  0
 18 19  2  0  0  0  0
 20 21  2  0  0  0  0
 20 24  1  0  0  0  0
 21 22  1  0  0  0  0
 22 23  1  0  0  0  0
 22 25  1  0  0  0  0
 23 24  2  0  0  0  0
 26 27  1  0  0  0  0
 27 28  1  0  0  0  0
 28 29  1  0  0  0  0
  2 30  1  0  0  0  0
  3 31  1  0  0  0  0
  4 32  1  0  0  0  0
 10 33  1  0  0  0  0
 14 34  1  0  0  0  0
 15 35  1  0  0  0  0
 16 36  1  0  0  0  0
 17 37  1  0  0  0  0
 18 38  1  0  0  0  0
 19 39  1  0  0  0  0
 21 40  1  0  0  0  0
 24 41  1  0  0  0  0
 25 42  1  0  0  0  0
 25 43  1  0  0  0  0
 25 44  1  0  0  0  0
 26 45  1  0  0  0  0
 26 46  1  0  0  0  0
 27 47  1  0  0  0  0
 27 48  1  0  0  0  0
 28 49  1  0  0  0  0
 28 50  1  0  0  0  0
 29 51  1  0  0  0  0
 29 52  1  0  0  0  0
M  END
> <Name>
37

> <IC50[uM]>
0.004

$$$$
37
  -OEChem-05192314333D
 Structure written by MMmdl.
 52 56  0     1  0  0  0  0  0999 V2000
   -6.3714   12.3591  -12.0053 C   0  0  0  0  0  0  0  0  0  0  0  0
   -6.5147   11.8055  -10.7304 C   0  0  0  0  0  0  0  0  0  0  0  0
   -7.7273   10.5756  -13.0301 C   0  0  0  0  0  0  0  0  0  0  0  0
   -6.9920   11.7699  -13.1223 C   0  0  0  0  0  0  0  0  0  0  0  0
   -7.8210   10.0087  -11.7569 C   0  0  0  0  0  0  0  0  0  0  0  0
   -7.2407   10.6185  -10.5997 C   0  0  0  0  0  0  0  0  0  0  0  0
   -7.6132    9.7471   -9.5123 C   0  0  3  0  0  0  0  0  0  0  0  0
   -8.2794    8.7320   -9.9893 N   0  0  0  0  0  0  0  0  0  0  0  0
   -8.4144    8.8594  -11.3005 N   0  0  0  0  0  0  0  0  0  0  0  0
   -7.3370    9.8875   -8.0251 C   0  0  0  0  0  0  0  0  0  0  0  0
   -4.3570   13.7205  -11.5014 N   0  0  0  0  0  0  0  0  0  0  0  0
   -5.5485   13.6383  -12.1900 C   0  0  0  0  0  0  0  0  0  0  0  0
   -5.9462   14.5274  -12.9449 O   0  0  0  0  0  0  0  0  0  0  0  0
   -5.9602   10.4847   -7.7357 C   0  0  0  0  0  0  0  0  0  0  0  0
   -4.8090    9.7649   -8.0550 C   0  0  0  0  0  0  0  0  0  0  0  0
   -3.5517   10.3138   -7.8050 C   0  0  0  0  0  0  0  0  0  0  0  0
   -3.4444   11.5886   -7.2367 C   0  0  0  0  0  0  0  0  0  0  0  0
   -4.5954   12.3038   -6.9144 C   0  0  0  0  0  0  0  0  0  0  0  0
   -5.8508   11.7543   -7.1602 C   0  0  0  0  0  0  0  0  0  0  0  0
   -2.1010   12.1799   -6.9735 C   0  0  0  0  0  0  0  0  0  0  0  0
   -1.7694   13.4361   -6.4722 C   0  0  0  0  0  0  0  0  0  0  0  0
   -0.4342   13.4933   -6.4118 N   0  0  0  0  0  0  0  0  0  0  0  0
    0.1686   12.4094   -6.8087 N   0  0  0  0  0  0  0  0  0  0  0  0
   -0.8030   11.5907   -7.1765 C   0  0  0  0  0  0  0  0  0  0  0  0
    0.3824   14.6122   -5.9578 C   0  0  0  0  0  0  0  0  0  0  0  0
   -3.5015   14.9079  -11.6138 C   0  0  0  0  0  0  0  0  0  0  0  0
   -2.1980   14.4648  -10.9240 C   0  0  0  0  0  0  0  0  0  0  0  0
   -2.2178   12.9422  -10.9897 C   0  0  0  0  0  0  0  0  0  0  0  0
   -3.7152   12.5763  -10.8194 C   0  0  0  0  0  0  0  0  0  0  0  0
   -6.0752   12.2832   -9.8672 H   0  0  0  0  0  0  0  0  0  0  0  0
   -8.1926   10.1227  -13.8931 H   0  0  0  0  0  0  0  0  0  0  0  0
   -6.9001   12.2523  -14.0842 H   0  0  0  0  0  0  0  0  0  0  0  0
   -6.6730    9.1896   -9.6354 H   0  0  0  0  0  0  0  0  0  0  0  0
   -8.0373    9.5969   -7.2560 H   0  0  0  0  0  0  0  0  0  0  0  0
   -4.8913    8.7824   -8.4959 H   0  0  0  0  0  0  0  0  0  0  0  0
   -2.6604    9.7552   -8.0499 H   0  0  0  0  0  0  0  0  0  0  0  0
   -3.4459   12.0373   -8.2410 H   0  0  0  0  0  0  0  0  0  0  0  0
   -4.5139   13.2862   -6.4731 H   0  0  0  0  0  0  0  0  0  0  0  0
   -6.7415   12.3096   -6.9059 H   0  0  0  0  0  0  0  0  0  0  0  0
   -2.4594   14.2163   -6.1864 H   0  0  0  0  0  0  0  0  0  0  0  0
   -0.6424   10.6017   -7.5796 H   0  0  0  0  0  0  0  0  0  0  0  0
    1.4465   14.3426   -6.0284 H   0  0  0  0  0  0  0  0  0  0  0  0
    0.1842   15.4907   -6.5894 H   0  0  0  0  0  0  0  0  0  0  0  0
    0.1326   14.8481   -4.9128 H   0  0  0  0  0  0  0  0  0  0  0  0
   -3.3223   15.1673  -12.6676 H   0  0  0  0  0  0  0  0  0  0  0  0
   -3.9499   15.7683  -11.0955 H   0  0  0  0  0  0  0  0  0  0  0  0
   -1.3227   14.8639  -11.4575 H   0  0  0  0  0  0  0  0  0  0  0  0
   -2.1776   14.8069   -9.8787 H   0  0  0  0  0  0  0  0  0  0  0  0
   -1.8370   12.5881  -11.9590 H   0  0  0  0  0  0  0  0  0  0  0  0
   -1.6150   12.5084  -10.1783 H   0  0  0  0  0  0  0  0  0  0  0  0
   -4.0015   12.5244   -9.7586 H   0  0  0  0  0  0  0  0  0  0  0  0
   -3.9579   11.6231  -11.3118 H   0  0  0  0  0  0  0  0  0  0  0  0
  1  2  2  0  0  0  0
  1  4  1  0  0  0  0
  1 12  1  0  0  0  0
  2  6  1  0  0  0  0
  3  4  2  0  0  0  0
  3  5  1  0  0  0  0
  5  6  2  0  0  0  0
  5  9  1  0  0  0  0
  6  7  1  0  0  0  0
  7  8  1  0  0  0  0
  7 10  1  0  0  0  0
  8  9  2  0  0  0  0
 10 14  2  0  0  0  0
 11 12  1  0  0  0  0
 11 26  1  0  0  0  0
 11 29  1  0  0  0  0
 12 13  2  0  0  0  0
 14 15  1  0  0  0  0
 14 19  1  0  0  0  0
 15 16  2  0  0  0  0
 16 17  1  0  0  0  0
 17 18  1  0  0  0  0
 17 20  1  0  0  0  0
 18 19  2  0  0  0  0
 20 21  2  0  0  0  0
 20 24  1  0  0  0  0
 21 22  1  0  0  0  0
 22 23  1  0  0  0  0
 22 25  1  0  0  0  0
 23 24  2  0  0  0  0
 26 27  1  0  0  0  0
 27 28  1  0  0  0  0
 28 29  1  0  0  0  0
  2 30  1  0  0  0  0
  3 31  1  0  0  0  0
  4 32  1  0  0  0  0
  7 33  1  0  0  0  0
 10 34  1  0  0  0  0
 15 35  1  0  0  0  0
 16 36  1  0  0  0  0
 17 37  1  0  0  0  0
 18 38  1  0  0  0  0
 19 39  1  0  0  0  0
 21 40  1  0  0  0  0
 24 41  1  0  0  0  0
 25 42  1  0  0  0  0
 25 43  1  0  0  0  0
 25 44  1  0  0  0  0
 26 45  1  0  0  0  0
 26 46  1  0  0  0  0
 27 47  1  0  0  0  0
 27 48  1  0  0  0  0
 28 49  1  0  0  0  0
 28 50  1  0  0  0  0
 29 51  1  0  0  0  0
 29 52  1  0  0  0  0
M  END
> <Name>
37

> <IC50[uM]>
0.004

$$$$
37
  -OEChem-05192314333D
 Structure written by MMmdl.
 52 56  0     1  0  0  0  0  0999 V2000
   -6.3714   12.3591  -12.0053 C   0  0  3  0  0  0  0  0  0  0  0  0
   -6.5147   11.8055  -10.7304 C   0  0  0  0  0  0  0  0  0  0  0  0
   -7.7273   10.5756  -13.0301 C   0  0  0  0  0  0  0  0  0  0  0  0
   -6.9920   11.7699  -13.1223 C   0  0  0  0  0  0  0  0  0  0  0  0
   -7.8210   10.0087  -11.7569 C   0  0  3  0  0  0  0  0  0  0  0  0
   -7.2407   10.6185  -10.5997 C   0  0  0  0  0  0  0  0  0  0  0  0
   -7.6132    9.7471   -9.5123 C   0  0  0  0  0  0  0  0  0  0  0  0
   -8.2794    8.7320   -9.9893 N   0  0  0  0  0  0  0  0  0  0  0  0
   -8.4144    8.8594  -11.3005 N   0  0  0  0  0  0  0  0  0  0  0  0
   -7.3370    9.8875   -8.0251 C   0  0  0  0  0  0  0  0  0  0  0  0
   -4.3570   13.7205  -11.5014 N   0  0  0  0  0  0  0  0  0  0  0  0
   -5.5485   13.6383  -12.1900 C   0  0  0  0  0  0  0  0  0  0  0  0
   -5.9462   14.5274  -12.9449 O   0  0  0  0  0  0  0  0  0  0  0  0
   -5.9602   10.4847   -7.7357 C   0  0  0  0  0  0  0  0  0  0  0  0
   -4.8090    9.7649   -8.0550 C   0  0  0  0  0  0  0  0  0  0  0  0
   -3.5517   10.3138   -7.8050 C   0  0  0  0  0  0  0  0  0  0  0  0
   -3.4444   11.5886   -7.2367 C   0  0  0  0  0  0  0  0  0  0  0  0
   -4.5954   12.3038   -6.9144 C   0  0  0  0  0  0  0  0  0  0  0  0
   -5.8508   11.7543   -7.1602 C   0  0  0  0  0  0  0  0  0  0  0  0
   -2.1010   12.1799   -6.9735 C   0  0  0  0  0  0  0  0  0  0  0  0
   -1.7694   13.4361   -6.4722 C   0  0  0  0  0  0  0  0  0  0  0  0
   -0.4342   13.4933   -6.4118 N   0  0  0  0  0  0  0  0  0  0  0  0
    0.1686   12.4094   -6.8087 N   0  0  0  0  0  0  0  0  0  0  0  0
   -0.8030   11.5907   -7.1765 C   0  0  0  0  0  0  0  0  0  0  0  0
    0.3824   14.6122   -5.9578 C   0  0  0  0  0  0  0  0  0  0  0  0
   -3.5015   14.9079  -11.6138 C   0  0  0  0  0  0  0  0  0  0  0  0
   -2.1980   14.4648  -10.9240 C   0  0  0  0  0  0  0  0  0  0  0  0
   -2.2178   12.9422  -10.9897 C   0  0  0  0  0  0  0  0  0  0  0  0
   -3.7152   12.5763  -10.8194 C   0  0  0  0  0  0  0  0  0  0  0  0
   -5.4719   11.7492  -12.1757 H   0  0  0  0  0  0  0  0  0  0  0  0
   -6.0752   12.2832   -9.8672 H   0  0  0  0  0  0  0  0  0  0  0  0
   -8.1926   10.1227  -13.8931 H   0  0  0  0  0  0  0  0  0  0  0  0
   -6.9001   12.2523  -14.0842 H   0  0  0  0  0  0  0  0  0  0  0  0
   -6.8867    9.4559  -11.9342 H   0  0  0  0  0  0  0  0  0  0  0  0
   -8.0373    9.5969   -7.2560 H   0  0  0  0  0  0  0  0  0  0  0  0
   -4.8913    8.7824   -8.4959 H   0  0  0  0  0  0  0  0  0  0  0  0
   -2.6604    9.7552   -8.0499 H   0  0  0  0  0  0  0  0  0  0  0  0
   -4.5139   13.2862   -6.4731 H   0  0  0  0  0  0  0  0  0  0  0  0
   -6.7415   12.3096   -6.9059 H   0  0  0  0  0  0  0  0  0  0  0  0
   -2.4594   14.2163   -6.1864 H   0  0  0  0  0  0  0  0  0  0  0  0
   -0.6424   10.6017   -7.5796 H   0  0  0  0  0  0  0  0  0  0  0  0
    1.4465   14.3426   -6.0284 H   0  0  0  0  0  0  0  0  0  0  0  0
    0.1842   15.4907   -6.5894 H   0  0  0  0  0  0  0  0  0  0  0  0
    0.1326   14.8481   -4.9128 H   0  0  0  0  0  0  0  0  0  0  0  0
   -3.3223   15.1673  -12.6676 H   0  0  0  0  0  0  0  0  0  0  0  0
   -3.9499   15.7683  -11.0955 H   0  0  0  0  0  0  0  0  0  0  0  0
   -1.3227   14.8639  -11.4575 H   0  0  0  0  0  0  0  0  0  0  0  0
   -2.1776   14.8069   -9.8787 H   0  0  0  0  0  0  0  0  0  0  0  0
   -1.8370   12.5881  -11.9590 H   0  0  0  0  0  0  0  0  0  0  0  0
   -1.6150   12.5084  -10.1783 H   0  0  0  0  0  0  0  0  0  0  0  0
   -4.0015   12.5244   -9.7586 H   0  0  0  0  0  0  0  0  0  0  0  0
   -3.9579   11.6231  -11.3118 H   0  0  0  0  0  0  0  0  0  0  0  0
  1  2  1  0  0  0  0
  1  4  1  0  0  0  0
  1 12  1  0  0  0  0
  2  6  2  0  0  0  0
  3  4  2  0  0  0  0
  3  5  1  0  0  0  0
  5  6  1  0  0  0  0
  5  9  1  0  0  0  0
  6  7  1  0  0  0  0
  7  8  1  0  0  0  0
  7 10  2  3  0  0  0
  8  9  2  0  0  0  0
 10 14  1  0  0  0  0
 11 12  1  0  0  0  0
 11 26  1  0  0  0  0
 11 29  1  0  0  0  0
 12 13  2  0  0  0  0
 14 15  2  0  0  0  0
 14 19  1  0  0  0  0
 15 16  1  0  0  0  0
 16 17  2  0  0  0  0
 17 18  1  0  0  0  0
 17 20  1  0  0  0  0
 18 19  2  0  0  0  0
 20 21  2  0  0  0  0
 20 24  1  0  0  0  0
 21 22  1  0  0  0  0
 22 23  1  0  0  0  0
 22 25  1  0  0  0  0
 23 24  2  0  0  0  0
 26 27  1  0  0  0  0
 27 28  1  0  0  0  0
 28 29  1  0  0  0  0
  1 30  1  0  0  0  0
  2 31  1  0  0  0  0
  3 32  1  0  0  0  0
  4 33  1  0  0  0  0
  5 34  1  0  0  0  0
 10 35  1  0  0  0  0
 15 36  1  0  0  0  0
 16 37  1  0  0  0  0
 18 38  1  0  0  0  0
 19 39  1  0  0  0  0
 21 40  1  0  0  0  0
 24 41  1  0  0  0  0
 25 42  1  0  0  0  0
 25 43  1  0  0  0  0
 25 44  1  0  0  0  0
 26 45  1  0  0  0  0
 26 46  1  0  0  0  0
 27 47  1  0  0  0  0
 27 48  1  0  0  0  0
 28 49  1  0  0  0  0
 28 50  1  0  0  0  0
 29 51  1  0  0  0  0
 29 52  1  0  0  0  0
M  END
> <Name>
37

> <IC50[uM]>
0.004

$$$$
37
  -OEChem-05192314333D
 Structure written by MMmdl.
 52 56  0     1  0  0  0  0  0999 V2000
   -6.3714   12.3591  -12.0053 C   0  0  0  0  0  0  0  0  0  0  0  0
   -6.5147   11.8055  -10.7304 C   0  0  0  0  0  0  0  0  0  0  0  0
   -7.7273   10.5756  -13.0301 C   0  0  0  0  0  0  0  0  0  0  0  0
   -6.9920   11.7699  -13.1223 C   0  0  0  0  0  0  0  0  0  0  0  0
   -7.8210   10.0087  -11.7569 C   0  0  3  0  0  0  0  0  0  0  0  0
   -7.2407   10.6185  -10.5997 C   0  0  3  0  0  0  0  0  0  0  0  0
   -7.6132    9.7471   -9.5123 C   0  0  0  0  0  0  0  0  0  0  0  0
   -8.2794    8.7320   -9.9893 N   0  0  0  0  0  0  0  0  0  0  0  0
   -8.4144    8.8594  -11.3005 N   0  0  0  0  0  0  0  0  0  0  0  0
   -7.3370    9.8875   -8.0251 C   0  0  0  0  0  0  0  0  0  0  0  0
   -4.3570   13.7205  -11.5014 N   0  0  0  0  0  0  0  0  0  0  0  0
   -5.5485   13.6383  -12.1900 C   0  0  0  0  0  0  0  0  0  0  0  0
   -5.9462   14.5274  -12.9449 O   0  0  0  0  0  0  0  0  0  0  0  0
   -5.9602   10.4847   -7.7357 C   0  0  0  0  0  0  0  0  0  0  0  0
   -4.8090    9.7649   -8.0550 C   0  0  0  0  0  0  0  0  0  0  0  0
   -3.5517   10.3138   -7.8050 C   0  0  0  0  0  0  0  0  0  0  0  0
   -3.4444   11.5886   -7.2367 C   0  0  0  0  0  0  0  0  0  0  0  0
   -4.5954   12.3038   -6.9144 C   0  0  0  0  0  0  0  0  0  0  0  0
   -5.8508   11.7543   -7.1602 C   0  0  0  0  0  0  0  0  0  0  0  0
   -2.1010   12.1799   -6.9735 C   0  0  0  0  0  0  0  0  0  0  0  0
   -1.7694   13.4361   -6.4722 C   0  0  0  0  0  0  0  0  0  0  0  0
   -0.4342   13.4933   -6.4118 N   0  0  0  0  0  0  0  0  0  0  0  0
    0.1686   12.4094   -6.8087 N   0  0  0  0  0  0  0  0  0  0  0  0
   -0.8030   11.5907   -7.1765 C   0  0  0  0  0  0  0  0  0  0  0  0
    0.3824   14.6122   -5.9578 C   0  0  0  0  0  0  0  0  0  0  0  0
   -3.5015   14.9079  -11.6138 C   0  0  0  0  0  0  0  0  0  0  0  0
   -2.1980   14.4648  -10.9240 C   0  0  0  0  0  0  0  0  0  0  0  0
   -2.2178   12.9422  -10.9897 C   0  0  0  0  0  0  0  0  0  0  0  0
   -3.7152   12.5763  -10.8194 C   0  0  0  0  0  0  0  0  0  0  0  0
   -6.0752   12.2832   -9.8672 H   0  0  0  0  0  0  0  0  0  0  0  0
   -8.1926   10.1227  -13.8931 H   0  0  0  0  0  0  0  0  0  0  0  0
   -6.9001   12.2523  -14.0842 H   0  0  0  0  0  0  0  0  0  0  0  0
   -6.8867    9.4559  -11.9342 H   0  0  0  0  0  0  0  0  0  0  0  0
   -6.3199   10.0365  -10.7528 H   0  0  0  0  0  0  0  0  0  0  0  0
   -8.0373    9.5969   -7.2560 H   0  0  0  0  0  0  0  0  0  0  0  0
   -4.8913    8.7824   -8.4959 H   0  0  0  0  0  0  0  0  0  0  0  0
   -2.6604    9.7552   -8.0499 H   0  0  0  0  0  0  0  0  0  0  0  0
   -4.5139   13.2862   -6.4731 H   0  0  0  0  0  0  0  0  0  0  0  0
   -6.7415   12.3096   -6.9059 H   0  0  0  0  0  0  0  0  0  0  0  0
   -2.4594   14.2163   -6.1864 H   0  0  0  0  0  0  0  0  0  0  0  0
   -0.6424   10.6017   -7.5796 H   0  0  0  0  0  0  0  0  0  0  0  0
    1.4465   14.3426   -6.0284 H   0  0  0  0  0  0  0  0  0  0  0  0
    0.1842   15.4907   -6.5894 H   0  0  0  0  0  0  0  0  0  0  0  0
    0.1326   14.8481   -4.9128 H   0  0  0  0  0  0  0  0  0  0  0  0
   -3.3223   15.1673  -12.6676 H   0  0  0  0  0  0  0  0  0  0  0  0
   -3.9499   15.7683  -11.0955 H   0  0  0  0  0  0  0  0  0  0  0  0
   -1.3227   14.8639  -11.4575 H   0  0  0  0  0  0  0  0  0  0  0  0
   -2.1776   14.8069   -9.8787 H   0  0  0  0  0  0  0  0  0  0  0  0
   -1.8370   12.5881  -11.9590 H   0  0  0  0  0  0  0  0  0  0  0  0
   -1.6150   12.5084  -10.1783 H   0  0  0  0  0  0  0  0  0  0  0  0
   -4.0015   12.5244   -9.7586 H   0  0  0  0  0  0  0  0  0  0  0  0
   -3.9579   11.6231  -11.3118 H   0  0  0  0  0  0  0  0  0  0  0  0
  1  2  2  0  0  0  0
  1  4  1  0  0  0  0
  1 12  1  0  0  0  0
  2  6  1  0  0  0  0
  3  4  2  0  0  0  0
  3  5  1  0  0  0  0
  5  6  1  0  0  0  0
  5  9  1  0  0  0  0
  6  7  1  0  0  0  0
  7  8  1  0  0  0  0
  7 10  2  3  0  0  0
  8  9  2  0  0  0  0
 10 14  1  0  0  0  0
 11 12  1  0  0  0  0
 11 26  1  0  0  0  0
 11 29  1  0  0  0  0
 12 13  2  0  0  0  0
 14 15  2  0  0  0  0
 14 19  1  0  0  0  0
 15 16  1  0  0  0  0
 16 17  2  0  0  0  0
 17 18  1  0  0  0  0
 17 20  1  0  0  0  0
 18 19  2  0  0  0  0
 20 21  2  0  0  0  0
 20 24  1  0  0  0  0
 21 22  1  0  0  0  0
 22 23  1  0  0  0  0
 22 25  1  0  0  0  0
 23 24  2  0  0  0  0
 26 27  1  0  0  0  0
 27 28  1  0  0  0  0
 28 29  1  0  0  0  0
  2 30  1  0  0  0  0
  3 31  1  0  0  0  0
  4 32  1  0  0  0  0
  5 33  1  0  0  0  0
  6 34  1  0  0  0  0
 10 35  1  0  0  0  0
 15 36  1  0  0  0  0
 16 37  1  0  0  0  0
 18 38  1  0  0  0  0
 19 39  1  0  0  0  0
 21 40  1  0  0  0  0
 24 41  1  0  0  0  0
 25 42  1  0  0  0  0
 25 43  1  0  0  0  0
 25 44  1  0  0  0  0
 26 45  1  0  0  0  0
 26 46  1  0  0  0  0
 27 47  1  0  0  0  0
 27 48  1  0  0  0  0
 28 49  1  0  0  0  0
 28 50  1  0  0  0  0
 29 51  1  0  0  0  0
 29 52  1  0  0  0  0
M  END
> <Name>
37

> <IC50[uM]>
0.004

$$$$
37
  -OEChem-05192314333D
 Structure written by MMmdl.
 52 56  0     1  0  0  0  0  0999 V2000
   -6.3714   12.3591  -12.0053 C   0  0  0  0  0  0  0  0  0  0  0  0
   -6.5147   11.8055  -10.7304 C   0  0  0  0  0  0  0  0  0  0  0  0
   -7.7273   10.5756  -13.0301 C   0  0  0  0  0  0  0  0  0  0  0  0
   -6.9920   11.7699  -13.1223 C   0  0  0  0  0  0  0  0  0  0  0  0
   -7.8210   10.0087  -11.7569 C   0  0  3  0  0  0  0  0  0  0  0  0
   -7.2407   10.6185  -10.5997 C   0  0  0  0  0  0  0  0  0  0  0  0
   -7.6132    9.7471   -9.5123 C   0  0  0  0  0  0  0  0  0  0  0  0
   -8.2794    8.7320   -9.9893 N   0  0  0  0  0  0  0  0  0  0  0  0
   -8.4144    8.8594  -11.3005 N   0  0  0  0  0  0  0  0  0  0  0  0
   -7.3370    9.8875   -8.0251 C   0  0  0  0  0  0  0  0  0  0  0  0
   -4.3570   13.7205  -11.5014 N   0  0  0  0  0  0  0  0  0  0  0  0
   -5.5485   13.6383  -12.1900 C   0  0  0  0  0  0  0  0  0  0  0  0
   -5.9462   14.5274  -12.9449 O   0  0  0  0  0  0  0  0  0  0  0  0
   -5.9602   10.4847   -7.7357 C   0  0  0  0  0  0  0  0  0  0  0  0
   -4.8090    9.7649   -8.0550 C   0  0  0  0  0  0  0  0  0  0  0  0
   -3.5517   10.3138   -7.8050 C   0  0  0  0  0  0  0  0  0  0  0  0
   -3.4444   11.5886   -7.2367 C   0  0  0  0  0  0  0  0  0  0  0  0
   -4.5954   12.3038   -6.9144 C   0  0  0  0  0  0  0  0  0  0  0  0
   -5.8508   11.7543   -7.1602 C   0  0  0  0  0  0  0  0  0  0  0  0
   -2.1010   12.1799   -6.9735 C   0  0  0  0  0  0  0  0  0  0  0  0
   -1.7694   13.4361   -6.4722 C   0  0  0  0  0  0  0  0  0  0  0  0
   -0.4342   13.4933   -6.4118 N   0  0  0  0  0  0  0  0  0  0  0  0
    0.1686   12.4094   -6.8087 N   0  0  0  0  0  0  0  0  0  0  0  0
   -0.8030   11.5907   -7.1765 C   0  0  0  0  0  0  0  0  0  0  0  0
    0.3824   14.6122   -5.9578 C   0  0  0  0  0  0  0  0  0  0  0  0
   -3.5015   14.9079  -11.6138 C   0  0  0  0  0  0  0  0  0  0  0  0
   -2.1980   14.4648  -10.9240 C   0  0  0  0  0  0  0  0  0  0  0  0
   -2.2178   12.9422  -10.9897 C   0  0  0  0  0  0  0  0  0  0  0  0
   -3.7152   12.5763  -10.8194 C   0  0  0  0  0  0  0  0  0  0  0  0
   -6.0752   12.2832   -9.8672 H   0  0  0  0  0  0  0  0  0  0  0  0
   -8.7488   10.7817  -13.3823 H   0  0  0  0  0  0  0  0  0  0  0  0
   -7.2530    9.8368  -13.6929 H   0  0  0  0  0  0  0  0  0  0  0  0
   -6.9001   12.2523  -14.0842 H   0  0  0  0  0  0  0  0  0  0  0  0
   -6.8867    9.4559  -11.9342 H   0  0  0  0  0  0  0  0  0  0  0  0
   -8.0373    9.5969   -7.2560 H   0  0  0  0  0  0  0  0  0  0  0  0
   -4.8913    8.7824   -8.4959 H   0  0  0  0  0  0  0  0  0  0  0  0
   -2.6604    9.7552   -8.0499 H   0  0  0  0  0  0  0  0  0  0  0  0
   -4.5139   13.2862   -6.4731 H   0  0  0  0  0  0  0  0  0  0  0  0
   -6.7415   12.3096   -6.9059 H   0  0  0  0  0  0  0  0  0  0  0  0
   -2.4594   14.2163   -6.1864 H   0  0  0  0  0  0  0  0  0  0  0  0
   -0.6424   10.6017   -7.5796 H   0  0  0  0  0  0  0  0  0  0  0  0
    1.4465   14.3426   -6.0284 H   0  0  0  0  0  0  0  0  0  0  0  0
    0.1842   15.4907   -6.5894 H   0  0  0  0  0  0  0  0  0  0  0  0
    0.1326   14.8481   -4.9128 H   0  0  0  0  0  0  0  0  0  0  0  0
   -3.3223   15.1673  -12.6676 H   0  0  0  0  0  0  0  0  0  0  0  0
   -3.9499   15.7683  -11.0955 H   0  0  0  0  0  0  0  0  0  0  0  0
   -1.3227   14.8639  -11.4575 H   0  0  0  0  0  0  0  0  0  0  0  0
   -2.1776   14.8069   -9.8787 H   0  0  0  0  0  0  0  0  0  0  0  0
   -1.8370   12.5881  -11.9590 H   0  0  0  0  0  0  0  0  0  0  0  0
   -1.6150   12.5084  -10.1783 H   0  0  0  0  0  0  0  0  0  0  0  0
   -4.0015   12.5244   -9.7586 H   0  0  0  0  0  0  0  0  0  0  0  0
   -3.9579   11.6231  -11.3118 H   0  0  0  0  0  0  0  0  0  0  0  0
  1  2  1  0  0  0  0
  1  4  2  0  0  0  0
  1 12  1  0  0  0  0
  2  6  2  0  0  0  0
  3  4  1  0  0  0  0
  3  5  1  0  0  0  0
  5  6  1  0  0  0  0
  5  9  1  0  0  0  0
  6  7  1  0  0  0  0
  7  8  1  0  0  0  0
  7 10  2  3  0  0  0
  8  9  2  0  0  0  0
 10 14  1  0  0  0  0
 11 12  1  0  0  0  0
 11 26  1  0  0  0  0
 11 29  1  0  0  0  0
 12 13  2  0  0  0  0
 14 15  2  0  0  0  0
 14 19  1  0  0  0  0
 15 16  1  0  0  0  0
 16 17  2  0  0  0  0
 17 18  1  0  0  0  0
 17 20  1  0  0  0  0
 18 19  2  0  0  0  0
 20 21  2  0  0  0  0
 20 24  1  0  0  0  0
 21 22  1  0  0  0  0
 22 23  1  0  0  0  0
 22 25  1  0  0  0  0
 23 24  2  0  0  0  0
 26 27  1  0  0  0  0
 27 28  1  0  0  0  0
 28 29  1  0  0  0  0
  2 30  1  0  0  0  0
  3 31  1  0  0  0  0
  3 32  1  0  0  0  0
  4 33  1  0  0  0  0
  5 34  1  0  0  0  0
 10 35  1  0  0  0  0
 15 36  1  0  0  0  0
 16 37  1  0  0  0  0
 18 38  1  0  0  0  0
 19 39  1  0  0  0  0
 21 40  1  0  0  0  0
 24 41  1  0  0  0  0
 25 42  1  0  0  0  0
 25 43  1  0  0  0  0
 25 44  1  0  0  0  0
 26 45  1  0  0  0  0
 26 46  1  0  0  0  0
 27 47  1  0  0  0  0
 27 48  1  0  0  0  0
 28 49  1  0  0  0  0
 28 50  1  0  0  0  0
 29 51  1  0  0  0  0
 29 52  1  0  0  0  0
M  END
> <Name>
37

> <IC50[uM]>
0.004

$$$$
37
  -OEChem-05192314333D
 Structure written by MMmdl.
 52 56  0     1  0  0  0  0  0999 V2000
   -6.3714   12.3591  -12.0053 C   0  0  0  0  0  0  0  0  0  0  0  0
   -6.5147   11.8055  -10.7304 C   0  0  0  0  0  0  0  0  0  0  0  0
   -7.7273   10.5756  -13.0301 C   0  0  0  0  0  0  0  0  0  0  0  0
   -6.9920   11.7699  -13.1223 C   0  0  0  0  0  0  0  0  0  0  0  0
   -7.8210   10.0087  -11.7569 C   0  0  0  0  0  0  0  0  0  0  0  0
   -7.2407   10.6185  -10.5997 C   0  0  0  0  0  0  0  0  0  0  0  0
   -7.6132    9.7471   -9.5123 C   0  0  0  0  0  0  0  0  0  0  0  0
   -8.2794    8.7320   -9.9893 N   0  0  0  0  0  0  0  0  0  0  0  0
   -8.4144    8.8594  -11.3005 N   0  0  0  0  0  0  0  0  0  0  0  0
   -7.3370    9.8875   -8.0251 C   0  0  0  0  0  0  0  0  0  0  0  0
   -4.3570   13.7205  -11.5014 N   0  0  0  0  0  0  0  0  0  0  0  0
   -5.5485   13.6383  -12.1900 C   0  0  0  0  0  0  0  0  0  0  0  0
   -5.9462   14.5274  -12.9449 O   0  0  0  0  0  0  0  0  0  0  0  0
   -5.9602   10.4847   -7.7357 C   0  0  0  0  0  0  0  0  0  0  0  0
   -4.8090    9.7649   -8.0550 C   0  0  0  0  0  0  0  0  0  0  0  0
   -3.5517   10.3138   -7.8050 C   0  0  0  0  0  0  0  0  0  0  0  0
   -3.4444   11.5886   -7.2367 C   0  0  3  0  0  0  0  0  0  0  0  0
   -4.5954   12.3038   -6.9144 C   0  0  0  0  0  0  0  0  0  0  0  0
   -5.8508   11.7543   -7.1602 C   0  0  0  0  0  0  0  0  0  0  0  0
   -2.1010   12.1799   -6.9735 C   0  0  0  0  0  0  0  0  0  0  0  0
   -1.7694   13.4361   -6.4722 C   0  0  0  0  0  0  0  0  0  0  0  0
   -0.4342   13.4933   -6.4118 N   0  0  0  0  0  0  0  0  0  0  0  0
    0.1686   12.4094   -6.8087 N   0  0  0  0  0  0  0  0  0  0  0  0
   -0.8030   11.5907   -7.1765 C   0  0  0  0  0  0  0  0  0  0  0  0
    0.3824   14.6122   -5.9578 C   0  0  0  0  0  0  0  0  0  0  0  0
   -3.5015   14.9079  -11.6138 C   0  0  0  0  0  0  0  0  0  0  0  0
   -2.1980   14.4648  -10.9240 C   0  0  0  0  0  0  0  0  0  0  0  0
   -2.2178   12.9422  -10.9897 C   0  0  0  0  0  0  0  0  0  0  0  0
   -3.7152   12.5763  -10.8194 C   0  0  0  0  0  0  0  0  0  0  0  0
   -6.0752   12.2832   -9.8672 H   0  0  0  0  0  0  0  0  0  0  0  0
   -8.1926   10.1227  -13.8931 H   0  0  0  0  0  0  0  0  0  0  0  0
   -6.9001   12.2523  -14.0842 H   0  0  0  0  0  0  0  0  0  0  0  0
   -8.0373    9.5969   -7.2560 H   0  0  0  0  0  0  0  0  0  0  0  0
   -4.8913    8.7824   -8.4959 H   0  0  0  0  0  0  0  0  0  0  0  0
   -3.0312    9.6199   -7.1286 H   0  0  0  0  0  0  0  0  0  0  0  0
   -3.0240   10.3508   -8.7695 H   0  0  0  0  0  0  0  0  0  0  0  0
   -3.4459   12.0373   -8.2410 H   0  0  0  0  0  0  0  0  0  0  0  0
   -4.5139   13.2862   -6.4731 H   0  0  0  0  0  0  0  0  0  0  0  0
   -6.7415   12.3096   -6.9059 H   0  0  0  0  0  0  0  0  0  0  0  0
   -2.4594   14.2163   -6.1864 H   0  0  0  0  0  0  0  0  0  0  0  0
   -0.6424   10.6017   -7.5796 H   0  0  0  0  0  0  0  0  0  0  0  0
    1.4465   14.3426   -6.0284 H   0  0  0  0  0  0  0  0  0  0  0  0
    0.1842   15.4907   -6.5894 H   0  0  0  0  0  0  0  0  0  0  0  0
    0.1326   14.8481   -4.9128 H   0  0  0  0  0  0  0  0  0  0  0  0
   -3.3223   15.1673  -12.6676 H   0  0  0  0  0  0  0  0  0  0  0  0
   -3.9499   15.7683  -11.0955 H   0  0  0  0  0  0  0  0  0  0  0  0
   -1.3227   14.8639  -11.4575 H   0  0  0  0  0  0  0  0  0  0  0  0
   -2.1776   14.8069   -9.8787 H   0  0  0  0  0  0  0  0  0  0  0  0
   -1.8370   12.5881  -11.9590 H   0  0  0  0  0  0  0  0  0  0  0  0
   -1.6150   12.5084  -10.1783 H   0  0  0  0  0  0  0  0  0  0  0  0
   -4.0015   12.5244   -9.7586 H   0  0  0  0  0  0  0  0  0  0  0  0
   -3.9579   11.6231  -11.3118 H   0  0  0  0  0  0  0  0  0  0  0  0
  1  2  2  0  0  0  0
  1  4  1  0  0  0  0
  1 12  1  0  0  0  0
  2  6  1  0  0  0  0
  3  4  2  0  0  0  0
  3  5  1  0  0  0  0
  5  6  2  0  0  0  0
  5  9  1  0  0  0  0
  6  7  1  0  0  0  0
  7  8  1  0  0  0  0
  7 10  2  3  0  0  0
  8  9  2  0  0  0  0
 10 14  1  0  0  0  0
 11 12  1  0  0  0  0
 11 26  1  0  0  0  0
 11 29  1  0  0  0  0
 12 13  2  0  0  0  0
 14 15  2  0  0  0  0
 14 19  1  0  0  0  0
 15 16  1  0  0  0  0
 16 17  1  0  0  0  0
 17 18  1  0  0  0  0
 17 20  1  0  0  0  0
 18 19  2  0  0  0  0
 20 21  2  0  0  0  0
 20 24  1  0  0  0  0
 21 22  1  0  0  0  0
 22 23  1  0  0  0  0
 22 25  1  0  0  0  0
 23 24  2  0  0  0  0
 26 27  1  0  0  0  0
 27 28  1  0  0  0  0
 28 29  1  0  0  0  0
  2 30  1  0  0  0  0
  3 31  1  0  0  0  0
  4 32  1  0  0  0  0
 10 33  1  0  0  0  0
 15 34  1  0  0  0  0
 16 35  1  0  0  0  0
 16 36  1  0  0  0  0
 17 37  1  0  0  0  0
 18 38  1  0  0  0  0
 19 39  1  0  0  0  0
 21 40  1  0  0  0  0
 24 41  1  0  0  0  0
 25 42  1  0  0  0  0
 25 43  1  0  0  0  0
 25 44  1  0  0  0  0
 26 45  1  0  0  0  0
 26 46  1  0  0  0  0
 27 47  1  0  0  0  0
 27 48  1  0  0  0  0
 28 49  1  0  0  0  0
 28 50  1  0  0  0  0
 29 51  1  0  0  0  0
 29 52  1  0  0  0  0
M  END
> <Name>
37

> <IC50[uM]>
0.004

$$$$
37
  -OEChem-05192314333D
 Structure written by MMmdl.
 52 56  0     1  0  0  0  0  0999 V2000
   -6.3714   12.3591  -12.0053 C   0  0  3  0  0  0  0  0  0  0  0  0
   -6.5147   11.8055  -10.7304 C   0  0  0  0  0  0  0  0  0  0  0  0
   -7.7273   10.5756  -13.0301 C   0  0  0  0  0  0  0  0  0  0  0  0
   -6.9920   11.7699  -13.1223 C   0  0  0  0  0  0  0  0  0  0  0  0
   -7.8210   10.0087  -11.7569 C   0  0  0  0  0  0  0  0  0  0  0  0
   -7.2407   10.6185  -10.5997 C   0  0  0  0  0  0  0  0  0  0  0  0
   -7.6132    9.7471   -9.5123 C   0  0  0  0  0  0  0  0  0  0  0  0
   -8.2794    8.7320   -9.9893 N   0  0  0  0  0  0  0  0  0  0  0  0
   -8.4144    8.8594  -11.3005 N   0  0  0  0  0  0  0  0  0  0  0  0
   -7.3370    9.8875   -8.0251 C   0  0  0  0  0  0  0  0  0  0  0  0
   -4.3570   13.7205  -11.5014 N   0  0  0  0  0  0  0  0  0  0  0  0
   -5.5485   13.6383  -12.1900 C   0  0  0  0  0  0  0  0  0  0  0  0
   -5.9462   14.5274  -12.9449 O   0  0  0  0  0  0  0  0  0  0  0  0
   -5.9602   10.4847   -7.7357 C   0  0  0  0  0  0  0  0  0  0  0  0
   -4.8090    9.7649   -8.0550 C   0  0  0  0  0  0  0  0  0  0  0  0
   -3.5517   10.3138   -7.8050 C   0  0  0  0  0  0  0  0  0  0  0  0
   -3.4444   11.5886   -7.2367 C   0  0  0  0  0  0  0  0  0  0  0  0
   -4.5954   12.3038   -6.9144 C   0  0  0  0  0  0  0  0  0  0  0  0
   -5.8508   11.7543   -7.1602 C   0  0  0  0  0  0  0  0  0  0  0  0
   -2.1010   12.1799   -6.9735 C   0  0  0  0  0  0  0  0  0  0  0  0
   -1.7694   13.4361   -6.4722 C   0  0  0  0  0  0  0  0  0  0  0  0
   -0.4342   13.4933   -6.4118 N   0  0  0  0  0  0  0  0  0  0  0  0
    0.1686   12.4094   -6.8087 N   0  0  0  0  0  0  0  0  0  0  0  0
   -0.8030   11.5907   -7.1765 C   0  0  0  0  0  0  0  0  0  0  0  0
    0.3824   14.6122   -5.9578 C   0  0  0  0  0  0  0  0  0  0  0  0
   -3.5015   14.9079  -11.6138 C   0  0  0  0  0  0  0  0  0  0  0  0
   -2.1980   14.4648  -10.9240 C   0  0  0  0  0  0  0  0  0  0  0  0
   -2.2178   12.9422  -10.9897 C   0  0  0  0  0  0  0  0  0  0  0  0
   -3.7152   12.5763  -10.8194 C   0  0  0  0  0  0  0  0  0  0  0  0
   -5.4719   11.7492  -12.1757 H   0  0  0  0  0  0  0  0  0  0  0  0
   -6.0752   12.2832   -9.8672 H   0  0  0  0  0  0  0  0  0  0  0  0
   -8.1926   10.1227  -13.8931 H   0  0  0  0  0  0  0  0  0  0  0  0
   -7.6839   12.5256  -13.5225 H   0  0  0  0  0  0  0  0  0  0  0  0
   -6.1920   11.5815  -13.8534 H   0  0  0  0  0  0  0  0  0  0  0  0
   -8.0373    9.5969   -7.2560 H   0  0  0  0  0  0  0  0  0  0  0  0
   -4.8913    8.7824   -8.4959 H   0  0  0  0  0  0  0  0  0  0  0  0
   -2.6604    9.7552   -8.0499 H   0  0  0  0  0  0  0  0  0  0  0  0
   -4.5139   13.2862   -6.4731 H   0  0  0  0  0  0  0  0  0  0  0  0
   -6.7415   12.3096   -6.9059 H   0  0  0  0  0  0  0  0  0  0  0  0
   -2.4594   14.2163   -6.1864 H   0  0  0  0  0  0  0  0  0  0  0  0
   -0.6424   10.6017   -7.5796 H   0  0  0  0  0  0  0  0  0  0  0  0
    1.4465   14.3426   -6.0284 H   0  0  0  0  0  0  0  0  0  0  0  0
    0.1842   15.4907   -6.5894 H   0  0  0  0  0  0  0  0  0  0  0  0
    0.1326   14.8481   -4.9128 H   0  0  0  0  0  0  0  0  0  0  0  0
   -3.3223   15.1673  -12.6676 H   0  0  0  0  0  0  0  0  0  0  0  0
   -3.9499   15.7683  -11.0955 H   0  0  0  0  0  0  0  0  0  0  0  0
   -1.3227   14.8639  -11.4575 H   0  0  0  0  0  0  0  0  0  0  0  0
   -2.1776   14.8069   -9.8787 H   0  0  0  0  0  0  0  0  0  0  0  0
   -1.8370   12.5881  -11.9590 H   0  0  0  0  0  0  0  0  0  0  0  0
   -1.6150   12.5084  -10.1783 H   0  0  0  0  0  0  0  0  0  0  0  0
   -4.0015   12.5244   -9.7586 H   0  0  0  0  0  0  0  0  0  0  0  0
   -3.9579   11.6231  -11.3118 H   0  0  0  0  0  0  0  0  0  0  0  0
  1  2  1  0  0  0  0
  1  4  1  0  0  0  0
  1 12  1  0  0  0  0
  2  6  2  0  0  0  0
  3  4  1  0  0  0  0
  3  5  2  0  0  0  0
  5  6  1  0  0  0  0
  5  9  1  0  0  0  0
  6  7  1  0  0  0  0
  7  8  1  0  0  0  0
  7 10  2  3  0  0  0
  8  9  2  0  0  0  0
 10 14  1  0  0  0  0
 11 12  1  0  0  0  0
 11 26  1  0  0  0  0
 11 29  1  0  0  0  0
 12 13  2  0  0  0  0
 14 15  2  0  0  0  0
 14 19  1  0  0  0  0
 15 16  1  0  0  0  0
 16 17  2  0  0  0  0
 17 18  1  0  0  0  0
 17 20  1  0  0  0  0
 18 19  2  0  0  0  0
 20 21  2  0  0  0  0
 20 24  1  0  0  0  0
 21 22  1  0  0  0  0
 22 23  1  0  0  0  0
 22 25  1  0  0  0  0
 23 24  2  0  0  0  0
 26 27  1  0  0  0  0
 27 28  1  0  0  0  0
 28 29  1  0  0  0  0
  1 30  1  0  0  0  0
  2 31  1  0  0  0  0
  3 32  1  0  0  0  0
  4 33  1  0  0  0  0
  4 34  1  0  0  0  0
 10 35  1  0  0  0  0
 15 36  1  0  0  0  0
 16 37  1  0  0  0  0
 18 38  1  0  0  0  0
 19 39  1  0  0  0  0
 21 40  1  0  0  0  0
 24 41  1  0  0  0  0
 25 42  1  0  0  0  0
 25 43  1  0  0  0  0
 25 44  1  0  0  0  0
 26 45  1  0  0  0  0
 26 46  1  0  0  0  0
 27 47  1  0  0  0  0
 27 48  1  0  0  0  0
 28 49  1  0  0  0  0
 28 50  1  0  0  0  0
 29 51  1  0  0  0  0
 29 52  1  0  0  0  0
M  END
> <Name>
37

> <IC50[uM]>
0.004

$$$$
37
  -OEChem-05192314333D
 Structure written by MMmdl.
 52 56  0     1  0  0  0  0  0999 V2000
   -6.3714   12.3591  -12.0053 C   0  0  0  0  0  0  0  0  0  0  0  0
   -6.5147   11.8055  -10.7304 C   0  0  0  0  0  0  0  0  0  0  0  0
   -7.7273   10.5756  -13.0301 C   0  0  0  0  0  0  0  0  0  0  0  0
   -6.9920   11.7699  -13.1223 C   0  0  0  0  0  0  0  0  0  0  0  0
   -7.8210   10.0087  -11.7569 C   0  0  0  0  0  0  0  0  0  0  0  0
   -7.2407   10.6185  -10.5997 C   0  0  3  0  0  0  0  0  0  0  0  0
   -7.6132    9.7471   -9.5123 C   0  0  0  0  0  0  0  0  0  0  0  0
   -8.2794    8.7320   -9.9893 N   0  0  0  0  0  0  0  0  0  0  0  0
   -8.4144    8.8594  -11.3005 N   0  0  0  0  0  0  0  0  0  0  0  0
   -7.3370    9.8875   -8.0251 C   0  0  0  0  0  0  0  0  0  0  0  0
   -4.3570   13.7205  -11.5014 N   0  0  0  0  0  0  0  0  0  0  0  0
   -5.5485   13.6383  -12.1900 C   0  0  0  0  0  0  0  0  0  0  0  0
   -5.9462   14.5274  -12.9449 O   0  0  0  0  0  0  0  0  0  0  0  0
   -5.9602   10.4847   -7.7357 C   0  0  0  0  0  0  0  0  0  0  0  0
   -4.8090    9.7649   -8.0550 C   0  0  0  0  0  0  0  0  0  0  0  0
   -3.5517   10.3138   -7.8050 C   0  0  0  0  0  0  0  0  0  0  0  0
   -3.4444   11.5886   -7.2367 C   0  0  0  0  0  0  0  0  0  0  0  0
   -4.5954   12.3038   -6.9144 C   0  0  0  0  0  0  0  0  0  0  0  0
   -5.8508   11.7543   -7.1602 C   0  0  0  0  0  0  0  0  0  0  0  0
   -2.1010   12.1799   -6.9735 C   0  0  0  0  0  0  0  0  0  0  0  0
   -1.7694   13.4361   -6.4722 C   0  0  0  0  0  0  0  0  0  0  0  0
   -0.4342   13.4933   -6.4118 N   0  0  0  0  0  0  0  0  0  0  0  0
    0.1686   12.4094   -6.8087 N   0  0  0  0  0  0  0  0  0  0  0  0
   -0.8030   11.5907   -7.1765 C   0  0  0  0  0  0  0  0  0  0  0  0
    0.3824   14.6122   -5.9578 C   0  0  0  0  0  0  0  0  0  0  0  0
   -3.5015   14.9079  -11.6138 C   0  0  0  0  0  0  0  0  0  0  0  0
   -2.1980   14.4648  -10.9240 C   0  0  0  0  0  0  0  0  0  0  0  0
   -2.2178   12.9422  -10.9897 C   0  0  0  0  0  0  0  0  0  0  0  0
   -3.7152   12.5763  -10.8194 C   0  0  0  0  0  0  0  0  0  0  0  0
   -6.0752   12.2832   -9.8672 H   0  0  0  0  0  0  0  0  0  0  0  0
   -8.1926   10.1227  -13.8931 H   0  0  0  0  0  0  0  0  0  0  0  0
   -7.6839   12.5256  -13.5225 H   0  0  0  0  0  0  0  0  0  0  0  0
   -6.1920   11.5815  -13.8534 H   0  0  0  0  0  0  0  0  0  0  0  0
   -6.3199   10.0365  -10.7528 H   0  0  0  0  0  0  0  0  0  0  0  0
   -8.0373    9.5969   -7.2560 H   0  0  0  0  0  0  0  0  0  0  0  0
   -4.8913    8.7824   -8.4959 H   0  0  0  0  0  0  0  0  0  0  0  0
   -2.6604    9.7552   -8.0499 H   0  0  0  0  0  0  0  0  0  0  0  0
   -4.5139   13.2862   -6.4731 H   0  0  0  0  0  0  0  0  0  0  0  0
   -6.7415   12.3096   -6.9059 H   0  0  0  0  0  0  0  0  0  0  0  0
   -2.4594   14.2163   -6.1864 H   0  0  0  0  0  0  0  0  0  0  0  0
   -0.6424   10.6017   -7.5796 H   0  0  0  0  0  0  0  0  0  0  0  0
    1.4465   14.3426   -6.0284 H   0  0  0  0  0  0  0  0  0  0  0  0
    0.1842   15.4907   -6.5894 H   0  0  0  0  0  0  0  0  0  0  0  0
    0.1326   14.8481   -4.9128 H   0  0  0  0  0  0  0  0  0  0  0  0
   -3.3223   15.1673  -12.6676 H   0  0  0  0  0  0  0  0  0  0  0  0
   -3.9499   15.7683  -11.0955 H   0  0  0  0  0  0  0  0  0  0  0  0
   -1.3227   14.8639  -11.4575 H   0  0  0  0  0  0  0  0  0  0  0  0
   -2.1776   14.8069   -9.8787 H   0  0  0  0  0  0  0  0  0  0  0  0
   -1.8370   12.5881  -11.9590 H   0  0  0  0  0  0  0  0  0  0  0  0
   -1.6150   12.5084  -10.1783 H   0  0  0  0  0  0  0  0  0  0  0  0
   -4.0015   12.5244   -9.7586 H   0  0  0  0  0  0  0  0  0  0  0  0
   -3.9579   11.6231  -11.3118 H   0  0  0  0  0  0  0  0  0  0  0  0
  1  2  2  0  0  0  0
  1  4  1  0  0  0  0
  1 12  1  0  0  0  0
  2  6  1  0  0  0  0
  3  4  1  0  0  0  0
  3  5  2  0  0  0  0
  5  6  1  0  0  0  0
  5  9  1  0  0  0  0
  6  7  1  0  0  0  0
  7  8  1  0  0  0  0
  7 10  2  3  0  0  0
  8  9  2  0  0  0  0
 10 14  1  0  0  0  0
 11 12  1  0  0  0  0
 11 26  1  0  0  0  0
 11 29  1  0  0  0  0
 12 13  2  0  0  0  0
 14 15  2  0  0  0  0
 14 19  1  0  0  0  0
 15 16  1  0  0  0  0
 16 17  2  0  0  0  0
 17 18  1  0  0  0  0
 17 20  1  0  0  0  0
 18 19  2  0  0  0  0
 20 21  2  0  0  0  0
 20 24  1  0  0  0  0
 21 22  1  0  0  0  0
 22 23  1  0  0  0  0
 22 25  1  0  0  0  0
 23 24  2  0  0  0  0
 26 27  1  0  0  0  0
 27 28  1  0  0  0  0
 28 29  1  0  0  0  0
  2 30  1  0  0  0  0
  3 31  1  0  0  0  0
  4 32  1  0  0  0  0
  4 33  1  0  0  0  0
  6 34  1  0  0  0  0
 10 35  1  0  0  0  0
 15 36  1  0  0  0  0
 16 37  1  0  0  0  0
 18 38  1  0  0  0  0
 19 39  1  0  0  0  0
 21 40  1  0  0  0  0
 24 41  1  0  0  0  0
 25 42  1  0  0  0  0
 25 43  1  0  0  0  0
 25 44  1  0  0  0  0
 26 45  1  0  0  0  0
 26 46  1  0  0  0  0
 27 47  1  0  0  0  0
 27 48  1  0  0  0  0
 28 49  1  0  0  0  0
 28 50  1  0  0  0  0
 29 51  1  0  0  0  0
 29 52  1  0  0  0  0
M  END
> <Name>
37

> <IC50[uM]>
0.004

$$$$
37
  -OEChem-05192314333D
 Structure written by MMmdl.
 52 56  0     0  0  0  0  0  0999 V2000
   -6.3714   12.3591  -12.0053 C   0  0  0  0  0  0  0  0  0  0  0  0
   -6.5147   11.8055  -10.7304 C   0  0  0  0  0  0  0  0  0  0  0  0
   -7.7273   10.5756  -13.0301 C   0  0  0  0  0  0  0  0  0  0  0  0
   -6.9920   11.7699  -13.1223 C   0  0  0  0  0  0  0  0  0  0  0  0
   -7.8210   10.0087  -11.7569 C   0  0  0  0  0  0  0  0  0  0  0  0
   -7.2407   10.6185  -10.5997 C   0  0  0  0  0  0  0  0  0  0  0  0
   -7.6132    9.7471   -9.5123 C   0  0  0  0  0  0  0  0  0  0  0  0
   -8.2794    8.7320   -9.9893 N   0  0  0  0  0  0  0  0  0  0  0  0
   -8.4144    8.8594  -11.3005 N   0  0  0  0  0  0  0  0  0  0  0  0
   -7.3370    9.8875   -8.0251 C   0  0  0  0  0  0  0  0  0  0  0  0
   -4.3570   13.7205  -11.5014 N   0  0  0  0  0  0  0  0  0  0  0  0
   -5.5485   13.6383  -12.1900 C   0  0  0  0  0  0  0  0  0  0  0  0
   -5.9462   14.5274  -12.9449 O   0  0  0  0  0  0  0  0  0  0  0  0
   -5.9602   10.4847   -7.7357 C   0  0  0  0  0  0  0  0  0  0  0  0
   -4.8090    9.7649   -8.0550 C   0  0  0  0  0  0  0  0  0  0  0  0
   -3.5517   10.3138   -7.8050 C   0  0  0  0  0  0  0  0  0  0  0  0
   -3.4444   11.5886   -7.2367 C   0  0  0  0  0  0  0  0  0  0  0  0
   -4.5954   12.3038   -6.9144 C   0  0  0  0  0  0  0  0  0  0  0  0
   -5.8508   11.7543   -7.1602 C   0  0  0  0  0  0  0  0  0  0  0  0
   -2.1010   12.1799   -6.9735 C   0  0  0  0  0  0  0  0  0  0  0  0
   -1.7694   13.4361   -6.4722 C   0  0  0  0  0  0  0  0  0  0  0  0
   -0.4342   13.4933   -6.4118 N   0  0  0  0  0  0  0  0  0  0  0  0
    0.1686   12.4094   -6.8087 N   0  0  0  0  0  0  0  0  0  0  0  0
   -0.8030   11.5907   -7.1765 C   0  0  0  0  0  0  0  0  0  0  0  0
    0.3824   14.6122   -5.9578 C   0  0  0  0  0  0  0  0  0  0  0  0
   -3.5015   14.9079  -11.6138 C   0  0  0  0  0  0  0  0  0  0  0  0
   -2.1980   14.4648  -10.9240 C   0  0  0  0  0  0  0  0  0  0  0  0
   -2.2178   12.9422  -10.9897 C   0  0  0  0  0  0  0  0  0  0  0  0
   -3.7152   12.5763  -10.8194 C   0  0  0  0  0  0  0  0  0  0  0  0
   -6.0752   12.2832   -9.8672 H   0  0  0  0  0  0  0  0  0  0  0  0
   -8.7488   10.7817  -13.3823 H   0  0  0  0  0  0  0  0  0  0  0  0
   -7.2530    9.8368  -13.6929 H   0  0  0  0  0  0  0  0  0  0  0  0
   -7.6839   12.5256  -13.5225 H   0  0  0  0  0  0  0  0  0  0  0  0
   -6.1920   11.5815  -13.8534 H   0  0  0  0  0  0  0  0  0  0  0  0
   -8.0373    9.5969   -7.2560 H   0  0  0  0  0  0  0  0  0  0  0  0
   -4.8913    8.7824   -8.4959 H   0  0  0  0  0  0  0  0  0  0  0  0
   -2.6604    9.7552   -8.0499 H   0  0  0  0  0  0  0  0  0  0  0  0
   -4.5139   13.2862   -6.4731 H   0  0  0  0  0  0  0  0  0  0  0  0
   -6.7415   12.3096   -6.9059 H   0  0  0  0  0  0  0  0  0  0  0  0
   -2.4594   14.2163   -6.1864 H   0  0  0  0  0  0  0  0  0  0  0  0
   -0.6424   10.6017   -7.5796 H   0  0  0  0  0  0  0  0  0  0  0  0
    1.4465   14.3426   -6.0284 H   0  0  0  0  0  0  0  0  0  0  0  0
    0.1842   15.4907   -6.5894 H   0  0  0  0  0  0  0  0  0  0  0  0
    0.1326   14.8481   -4.9128 H   0  0  0  0  0  0  0  0  0  0  0  0
   -3.3223   15.1673  -12.6676 H   0  0  0  0  0  0  0  0  0  0  0  0
   -3.9499   15.7683  -11.0955 H   0  0  0  0  0  0  0  0  0  0  0  0
   -1.3227   14.8639  -11.4575 H   0  0  0  0  0  0  0  0  0  0  0  0
   -2.1776   14.8069   -9.8787 H   0  0  0  0  0  0  0  0  0  0  0  0
   -1.8370   12.5881  -11.9590 H   0  0  0  0  0  0  0  0  0  0  0  0
   -1.6150   12.5084  -10.1783 H   0  0  0  0  0  0  0  0  0  0  0  0
   -4.0015   12.5244   -9.7586 H   0  0  0  0  0  0  0  0  0  0  0  0
   -3.9579   11.6231  -11.3118 H   0  0  0  0  0  0  0  0  0  0  0  0
  1  2  2  0  0  0  0
  1  4  1  0  0  0  0
  1 12  1  0  0  0  0
  2  6  1  0  0  0  0
  3  4  1  0  0  0  0
  3  5  1  0  0  0  0
  5  6  2  0  0  0  0
  5  9  1  0  0  0  0
  6  7  1  0  0  0  0
  7  8  1  0  0  0  0
  7 10  2  3  0  0  0
  8  9  2  0  0  0  0
 10 14  1  0  0  0  0
 11 12  1  0  0  0  0
 11 26  1  0  0  0  0
 11 29  1  0  0  0  0
 12 13  2  0  0  0  0
 14 15  2  0  0  0  0
 14 19  1  0  0  0  0
 15 16  1  0  0  0  0
 16 17  2  0  0  0  0
 17 18  1  0  0  0  0
 17 20  1  0  0  0  0
 18 19  2  0  0  0  0
 20 21  2  0  0  0  0
 20 24  1  0  0  0  0
 21 22  1  0  0  0  0
 22 23  1  0  0  0  0
 22 25  1  0  0  0  0
 23 24  2  0  0  0  0
 26 27  1  0  0  0  0
 27 28  1  0  0  0  0
 28 29  1  0  0  0  0
  2 30  1  0  0  0  0
  3 31  1  0  0  0  0
  3 32  1  0  0  0  0
  4 33  1  0  0  0  0
  4 34  1  0  0  0  0
 10 35  1  0  0  0  0
 15 36  1  0  0  0  0
 16 37  1  0  0  0  0
 18 38  1  0  0  0  0
 19 39  1  0  0  0  0
 21 40  1  0  0  0  0
 24 41  1  0  0  0  0
 25 42  1  0  0  0  0
 25 43  1  0  0  0  0
 25 44  1  0  0  0  0
 26 45  1  0  0  0  0
 26 46  1  0  0  0  0
 27 47  1  0  0  0  0
 27 48  1  0  0  0  0
 28 49  1  0  0  0  0
 28 50  1  0  0  0  0
 29 51  1  0  0  0  0
 29 52  1  0  0  0  0
M  END
> <Name>
37

> <IC50[uM]>
0.004

$$$$
37
  -OEChem-05192314333D
 Structure written by MMmdl.
 52 56  0     1  0  0  0  0  0999 V2000
   -6.3714   12.3591  -12.0053 C   0  0  0  0  0  0  0  0  0  0  0  0
   -6.5147   11.8055  -10.7304 C   0  0  0  0  0  0  0  0  0  0  0  0
   -7.7273   10.5756  -13.0301 C   0  0  0  0  0  0  0  0  0  0  0  0
   -6.9920   11.7699  -13.1223 C   0  0  0  0  0  0  0  0  0  0  0  0
   -7.8210   10.0087  -11.7569 C   0  0  0  0  0  0  0  0  0  0  0  0
   -7.2407   10.6185  -10.5997 C   0  0  0  0  0  0  0  0  0  0  0  0
   -7.6132    9.7471   -9.5123 C   0  0  0  0  0  0  0  0  0  0  0  0
   -8.2794    8.7320   -9.9893 N   0  0  0  0  0  0  0  0  0  0  0  0
   -8.4144    8.8594  -11.3005 N   0  0  0  0  0  0  0  0  0  0  0  0
   -7.3370    9.8875   -8.0251 C   0  0  0  0  0  0  0  0  0  0  0  0
   -4.3570   13.7205  -11.5014 N   0  0  0  0  0  0  0  0  0  0  0  0
   -5.5485   13.6383  -12.1900 C   0  0  0  0  0  0  0  0  0  0  0  0
   -5.9462   14.5274  -12.9449 O   0  0  0  0  0  0  0  0  0  0  0  0
   -5.9602   10.4847   -7.7357 C   0  0  3  0  0  0  0  0  0  0  0  0
   -4.8090    9.7649   -8.0550 C   0  0  0  0  0  0  0  0  0  0  0  0
   -3.5517   10.3138   -7.8050 C   0  0  0  0  0  0  0  0  0  0  0  0
   -3.4444   11.5886   -7.2367 C   0  0  0  0  0  0  0  0  0  0  0  0
   -4.5954   12.3038   -6.9144 C   0  0  0  0  0  0  0  0  0  0  0  0
   -5.8508   11.7543   -7.1602 C   0  0  0  0  0  0  0  0  0  0  0  0
   -2.1010   12.1799   -6.9735 C   0  0  0  0  0  0  0  0  0  0  0  0
   -1.7694   13.4361   -6.4722 C   0  0  0  0  0  0  0  0  0  0  0  0
   -0.4342   13.4933   -6.4118 N   0  0  0  0  0  0  0  0  0  0  0  0
    0.1686   12.4094   -6.8087 N   0  0  0  0  0  0  0  0  0  0  0  0
   -0.8030   11.5907   -7.1765 C   0  0  0  0  0  0  0  0  0  0  0  0
    0.3824   14.6122   -5.9578 C   0  0  0  0  0  0  0  0  0  0  0  0
   -3.5015   14.9079  -11.6138 C   0  0  0  0  0  0  0  0  0  0  0  0
   -2.1980   14.4648  -10.9240 C   0  0  0  0  0  0  0  0  0  0  0  0
   -2.2178   12.9422  -10.9897 C   0  0  0  0  0  0  0  0  0  0  0  0
   -3.7152   12.5763  -10.8194 C   0  0  0  0  0  0  0  0  0  0  0  0
   -6.0752   12.2832   -9.8672 H   0  0  0  0  0  0  0  0  0  0  0  0
   -8.1926   10.1227  -13.8931 H   0  0  0  0  0  0  0  0  0  0  0  0
   -6.9001   12.2523  -14.0842 H   0  0  0  0  0  0  0  0  0  0  0  0
   -8.0373    9.5969   -7.2560 H   0  0  0  0  0  0  0  0  0  0  0  0
   -5.9705   10.0290   -6.7346 H   0  0  0  0  0  0  0  0  0  0  0  0
   -4.8913    8.7824   -8.4959 H   0  0  0  0  0  0  0  0  0  0  0  0
   -2.6604    9.7552   -8.0499 H   0  0  0  0  0  0  0  0  0  0  0  0
   -4.5139   13.2862   -6.4731 H   0  0  0  0  0  0  0  0  0  0  0  0
   -6.3768   12.4518   -7.8286 H   0  0  0  0  0  0  0  0  0  0  0  0
   -6.3724   11.7099   -6.1927 H   0  0  0  0  0  0  0  0  0  0  0  0
   -2.4594   14.2163   -6.1864 H   0  0  0  0  0  0  0  0  0  0  0  0
   -0.6424   10.6017   -7.5796 H   0  0  0  0  0  0  0  0  0  0  0  0
    1.4465   14.3426   -6.0284 H   0  0  0  0  0  0  0  0  0  0  0  0
    0.1842   15.4907   -6.5894 H   0  0  0  0  0  0  0  0  0  0  0  0
    0.1326   14.8481   -4.9128 H   0  0  0  0  0  0  0  0  0  0  0  0
   -3.3223   15.1673  -12.6676 H   0  0  0  0  0  0  0  0  0  0  0  0
   -3.9499   15.7683  -11.0955 H   0  0  0  0  0  0  0  0  0  0  0  0
   -1.3227   14.8639  -11.4575 H   0  0  0  0  0  0  0  0  0  0  0  0
   -2.1776   14.8069   -9.8787 H   0  0  0  0  0  0  0  0  0  0  0  0
   -1.8370   12.5881  -11.9590 H   0  0  0  0  0  0  0  0  0  0  0  0
   -1.6150   12.5084  -10.1783 H   0  0  0  0  0  0  0  0  0  0  0  0
   -4.0015   12.5244   -9.7586 H   0  0  0  0  0  0  0  0  0  0  0  0
   -3.9579   11.6231  -11.3118 H   0  0  0  0  0  0  0  0  0  0  0  0
  1  2  2  0  0  0  0
  1  4  1  0  0  0  0
  1 12  1  0  0  0  0
  2  6  1  0  0  0  0
  3  4  2  0  0  0  0
  3  5  1  0  0  0  0
  5  6  2  0  0  0  0
  5  9  1  0  0  0  0
  6  7  1  0  0  0  0
  7  8  1  0  0  0  0
  7 10  2  3  0  0  0
  8  9  2  0  0  0  0
 10 14  1  0  0  0  0
 11 12  1  0  0  0  0
 11 26  1  0  0  0  0
 11 29  1  0  0  0  0
 12 13  2  0  0  0  0
 14 15  1  0  0  0  0
 14 19  1  0  0  0  0
 15 16  2  0  0  0  0
 16 17  1  0  0  0  0
 17 18  2  0  0  0  0
 17 20  1  0  0  0  0
 18 19  1  0  0  0  0
 20 21  2  0  0  0  0
 20 24  1  0  0  0  0
 21 22  1  0  0  0  0
 22 23  1  0  0  0  0
 22 25  1  0  0  0  0
 23 24  2  0  0  0  0
 26 27  1  0  0  0  0
 27 28  1  0  0  0  0
 28 29  1  0  0  0  0
  2 30  1  0  0  0  0
  3 31  1  0  0  0  0
  4 32  1  0  0  0  0
 10 33  1  0  0  0  0
 14 34  1  0  0  0  0
 15 35  1  0  0  0  0
 16 36  1  0  0  0  0
 18 37  1  0  0  0  0
 19 38  1  0  0  0  0
 19 39  1  0  0  0  0
 21 40  1  0  0  0  0
 24 41  1  0  0  0  0
 25 42  1  0  0  0  0
 25 43  1  0  0  0  0
 25 44  1  0  0  0  0
 26 45  1  0  0  0  0
 26 46  1  0  0  0  0
 27 47  1  0  0  0  0
 27 48  1  0  0  0  0
 28 49  1  0  0  0  0
 28 50  1  0  0  0  0
 29 51  1  0  0  0  0
 29 52  1  0  0  0  0
M  END
> <Name>
37

> <IC50[uM]>
0.004

$$$$
37
  -OEChem-05192314333D
 Structure written by MMmdl.
 52 56  0     1  0  0  0  0  0999 V2000
   -6.3714   12.3591  -12.0053 C   0  0  0  0  0  0  0  0  0  0  0  0
   -6.5147   11.8055  -10.7304 C   0  0  0  0  0  0  0  0  0  0  0  0
   -7.7273   10.5756  -13.0301 C   0  0  0  0  0  0  0  0  0  0  0  0
   -6.9920   11.7699  -13.1223 C   0  0  0  0  0  0  0  0  0  0  0  0
   -7.8210   10.0087  -11.7569 C   0  0  0  0  0  0  0  0  0  0  0  0
   -7.2407   10.6185  -10.5997 C   0  0  0  0  0  0  0  0  0  0  0  0
   -7.6132    9.7471   -9.5123 C   0  0  3  0  0  0  0  0  0  0  0  0
   -8.2794    8.7320   -9.9893 N   0  0  0  0  0  0  0  0  0  0  0  0
   -8.4144    8.8594  -11.3005 N   0  0  0  0  0  0  0  0  0  0  0  0
   -7.3370    9.8875   -8.0251 C   0  0  0  0  0  0  0  0  0  0  0  0
   -4.3570   13.7205  -11.5014 N   0  0  0  0  0  0  0  0  0  0  0  0
   -5.5485   13.6383  -12.1900 C   0  0  0  0  0  0  0  0  0  0  0  0
   -5.9462   14.5274  -12.9449 O   0  0  0  0  0  0  0  0  0  0  0  0
   -5.9602   10.4847   -7.7357 C   0  0  0  0  0  0  0  0  0  0  0  0
   -4.8090    9.7649   -8.0550 C   0  0  0  0  0  0  0  0  0  0  0  0
   -3.5517   10.3138   -7.8050 C   0  0  0  0  0  0  0  0  0  0  0  0
   -3.4444   11.5886   -7.2367 C   0  0  0  0  0  0  0  0  0  0  0  0
   -4.5954   12.3038   -6.9144 C   0  0  0  0  0  0  0  0  0  0  0  0
   -5.8508   11.7543   -7.1602 C   0  0  0  0  0  0  0  0  0  0  0  0
   -2.1010   12.1799   -6.9735 C   0  0  0  0  0  0  0  0  0  0  0  0
   -1.7694   13.4361   -6.4722 C   0  0  0  0  0  0  0  0  0  0  0  0
   -0.4342   13.4933   -6.4118 N   0  0  0  0  0  0  0  0  0  0  0  0
    0.1686   12.4094   -6.8087 N   0  0  0  0  0  0  0  0  0  0  0  0
   -0.8030   11.5907   -7.1765 C   0  0  0  0  0  0  0  0  0  0  0  0
    0.3824   14.6122   -5.9578 C   0  0  0  0  0  0  0  0  0  0  0  0
   -3.5015   14.9079  -11.6138 C   0  0  0  0  0  0  0  0  0  0  0  0
   -2.1980   14.4648  -10.9240 C   0  0  0  0  0  0  0  0  0  0  0  0
   -2.2178   12.9422  -10.9897 C   0  0  0  0  0  0  0  0  0  0  0  0
   -3.7152   12.5763  -10.8194 C   0  0  0  0  0  0  0  0  0  0  0  0
   -6.0752   12.2832   -9.8672 H   0  0  0  0  0  0  0  0  0  0  0  0
   -8.1926   10.1227  -13.8931 H   0  0  0  0  0  0  0  0  0  0  0  0
   -6.9001   12.2523  -14.0842 H   0  0  0  0  0  0  0  0  0  0  0  0
   -6.6730    9.1896   -9.6354 H   0  0  0  0  0  0  0  0  0  0  0  0
   -8.0373    9.5969   -7.2560 H   0  0  0  0  0  0  0  0  0  0  0  0
   -4.8913    8.7824   -8.4959 H   0  0  0  0  0  0  0  0  0  0  0  0
   -2.6604    9.7552   -8.0499 H   0  0  0  0  0  0  0  0  0  0  0  0
   -4.5139   13.2862   -6.4731 H   0  0  0  0  0  0  0  0  0  0  0  0
   -6.3768   12.4518   -7.8286 H   0  0  0  0  0  0  0  0  0  0  0  0
   -6.3724   11.7099   -6.1927 H   0  0  0  0  0  0  0  0  0  0  0  0
   -2.4594   14.2163   -6.1864 H   0  0  0  0  0  0  0  0  0  0  0  0
   -0.6424   10.6017   -7.5796 H   0  0  0  0  0  0  0  0  0  0  0  0
    1.4465   14.3426   -6.0284 H   0  0  0  0  0  0  0  0  0  0  0  0
    0.1842   15.4907   -6.5894 H   0  0  0  0  0  0  0  0  0  0  0  0
    0.1326   14.8481   -4.9128 H   0  0  0  0  0  0  0  0  0  0  0  0
   -3.3223   15.1673  -12.6676 H   0  0  0  0  0  0  0  0  0  0  0  0
   -3.9499   15.7683  -11.0955 H   0  0  0  0  0  0  0  0  0  0  0  0
   -1.3227   14.8639  -11.4575 H   0  0  0  0  0  0  0  0  0  0  0  0
   -2.1776   14.8069   -9.8787 H   0  0  0  0  0  0  0  0  0  0  0  0
   -1.8370   12.5881  -11.9590 H   0  0  0  0  0  0  0  0  0  0  0  0
   -1.6150   12.5084  -10.1783 H   0  0  0  0  0  0  0  0  0  0  0  0
   -4.0015   12.5244   -9.7586 H   0  0  0  0  0  0  0  0  0  0  0  0
   -3.9579   11.6231  -11.3118 H   0  0  0  0  0  0  0  0  0  0  0  0
  1  2  2  0  0  0  0
  1  4  1  0  0  0  0
  1 12  1  0  0  0  0
  2  6  1  0  0  0  0
  3  4  2  0  0  0  0
  3  5  1  0  0  0  0
  5  6  2  0  0  0  0
  5  9  1  0  0  0  0
  6  7  1  0  0  0  0
  7  8  1  0  0  0  0
  7 10  1  0  0  0  0
  8  9  2  0  0  0  0
 10 14  2  3  0  0  0
 11 12  1  0  0  0  0
 11 26  1  0  0  0  0
 11 29  1  0  0  0  0
 12 13  2  0  0  0  0
 14 15  1  0  0  0  0
 14 19  1  0  0  0  0
 15 16  2  0  0  0  0
 16 17  1  0  0  0  0
 17 18  2  0  0  0  0
 17 20  1  0  0  0  0
 18 19  1  0  0  0  0
 20 21  2  0  0  0  0
 20 24  1  0  0  0  0
 21 22  1  0  0  0  0
 22 23  1  0  0  0  0
 22 25  1  0  0  0  0
 23 24  2  0  0  0  0
 26 27  1  0  0  0  0
 27 28  1  0  0  0  0
 28 29  1  0  0  0  0
  2 30  1  0  0  0  0
  3 31  1  0  0  0  0
  4 32  1  0  0  0  0
  7 33  1  0  0  0  0
 10 34  1  0  0  0  0
 15 35  1  0  0  0  0
 16 36  1  0  0  0  0
 18 37  1  0  0  0  0
 19 38  1  0  0  0  0
 19 39  1  0  0  0  0
 21 40  1  0  0  0  0
 24 41  1  0  0  0  0
 25 42  1  0  0  0  0
 25 43  1  0  0  0  0
 25 44  1  0  0  0  0
 26 45  1  0  0  0  0
 26 46  1  0  0  0  0
 27 47  1  0  0  0  0
 27 48  1  0  0  0  0
 28 49  1  0  0  0  0
 28 50  1  0  0  0  0
 29 51  1  0  0  0  0
 29 52  1  0  0  0  0
M  END
> <Name>
37

> <IC50[uM]>
0.004

$$$$
37
  -OEChem-05192314333D
 Structure written by MMmdl.
 52 56  0     0  0  0  0  0  0999 V2000
   -6.3714   12.3591  -12.0053 C   0  0  0  0  0  0  0  0  0  0  0  0
   -6.5147   11.8055  -10.7304 C   0  0  0  0  0  0  0  0  0  0  0  0
   -7.7273   10.5756  -13.0301 C   0  0  0  0  0  0  0  0  0  0  0  0
   -6.9920   11.7699  -13.1223 C   0  0  0  0  0  0  0  0  0  0  0  0
   -7.8210   10.0087  -11.7569 C   0  0  0  0  0  0  0  0  0  0  0  0
   -7.2407   10.6185  -10.5997 C   0  0  0  0  0  0  0  0  0  0  0  0
   -7.6132    9.7471   -9.5123 C   0  0  0  0  0  0  0  0  0  0  0  0
   -8.2794    8.7320   -9.9893 N   0  0  0  0  0  0  0  0  0  0  0  0
   -8.4144    8.8594  -11.3005 N   0  0  0  0  0  0  0  0  0  0  0  0
   -7.3370    9.8875   -8.0251 C   0  0  0  0  0  0  0  0  0  0  0  0
   -4.3570   13.7205  -11.5014 N   0  0  0  0  0  0  0  0  0  0  0  0
   -5.5485   13.6383  -12.1900 C   0  0  0  0  0  0  0  0  0  0  0  0
   -5.9462   14.5274  -12.9449 O   0  0  0  0  0  0  0  0  0  0  0  0
   -5.9602   10.4847   -7.7357 C   0  0  0  0  0  0  0  0  0  0  0  0
   -4.8090    9.7649   -8.0550 C   0  0  0  0  0  0  0  0  0  0  0  0
   -3.5517   10.3138   -7.8050 C   0  0  0  0  0  0  0  0  0  0  0  0
   -3.4444   11.5886   -7.2367 C   0  0  0  0  0  0  0  0  0  0  0  0
   -4.5954   12.3038   -6.9144 C   0  0  0  0  0  0  0  0  0  0  0  0
   -5.8508   11.7543   -7.1602 C   0  0  0  0  0  0  0  0  0  0  0  0
   -2.1010   12.1799   -6.9735 C   0  0  0  0  0  0  0  0  0  0  0  0
   -1.7694   13.4361   -6.4722 C   0  0  0  0  0  0  0  0  0  0  0  0
   -0.4342   13.4933   -6.4118 N   0  0  0  0  0  0  0  0  0  0  0  0
    0.1686   12.4094   -6.8087 N   0  0  0  0  0  0  0  0  0  0  0  0
   -0.8030   11.5907   -7.1765 C   0  0  0  0  0  0  0  0  0  0  0  0
    0.3824   14.6122   -5.9578 C   0  0  0  0  0  0  0  0  0  0  0  0
   -3.5015   14.9079  -11.6138 C   0  0  0  0  0  0  0  0  0  0  0  0
   -2.1980   14.4648  -10.9240 C   0  0  0  0  0  0  0  0  0  0  0  0
   -2.2178   12.9422  -10.9897 C   0  0  0  0  0  0  0  0  0  0  0  0
   -3.7152   12.5763  -10.8194 C   0  0  0  0  0  0  0  0  0  0  0  0
   -6.0752   12.2832   -9.8672 H   0  0  0  0  0  0  0  0  0  0  0  0
   -8.1926   10.1227  -13.8931 H   0  0  0  0  0  0  0  0  0  0  0  0
   -6.9001   12.2523  -14.0842 H   0  0  0  0  0  0  0  0  0  0  0  0
   -8.0373    9.5969   -7.2560 H   0  0  0  0  0  0  0  0  0  0  0  0
   -4.8913    8.7824   -8.4959 H   0  0  0  0  0  0  0  0  0  0  0  0
   -3.0312    9.6199   -7.1286 H   0  0  0  0  0  0  0  0  0  0  0  0
   -3.0240   10.3508   -8.7695 H   0  0  0  0  0  0  0  0  0  0  0  0
   -4.5139   13.2862   -6.4731 H   0  0  0  0  0  0  0  0  0  0  0  0
   -6.3768   12.4518   -7.8286 H   0  0  0  0  0  0  0  0  0  0  0  0
   -6.3724   11.7099   -6.1927 H   0  0  0  0  0  0  0  0  0  0  0  0
   -2.4594   14.2163   -6.1864 H   0  0  0  0  0  0  0  0  0  0  0  0
   -0.6424   10.6017   -7.5796 H   0  0  0  0  0  0  0  0  0  0  0  0
    1.4465   14.3426   -6.0284 H   0  0  0  0  0  0  0  0  0  0  0  0
    0.1842   15.4907   -6.5894 H   0  0  0  0  0  0  0  0  0  0  0  0
    0.1326   14.8481   -4.9128 H   0  0  0  0  0  0  0  0  0  0  0  0
   -3.3223   15.1673  -12.6676 H   0  0  0  0  0  0  0  0  0  0  0  0
   -3.9499   15.7683  -11.0955 H   0  0  0  0  0  0  0  0  0  0  0  0
   -1.3227   14.8639  -11.4575 H   0  0  0  0  0  0  0  0  0  0  0  0
   -2.1776   14.8069   -9.8787 H   0  0  0  0  0  0  0  0  0  0  0  0
   -1.8370   12.5881  -11.9590 H   0  0  0  0  0  0  0  0  0  0  0  0
   -1.6150   12.5084  -10.1783 H   0  0  0  0  0  0  0  0  0  0  0  0
   -4.0015   12.5244   -9.7586 H   0  0  0  0  0  0  0  0  0  0  0  0
   -3.9579   11.6231  -11.3118 H   0  0  0  0  0  0  0  0  0  0  0  0
  1  2  2  0  0  0  0
  1  4  1  0  0  0  0
  1 12  1  0  0  0  0
  2  6  1  0  0  0  0
  3  4  2  0  0  0  0
  3  5  1  0  0  0  0
  5  6  2  0  0  0  0
  5  9  1  0  0  0  0
  6  7  1  0  0  0  0
  7  8  1  0  0  0  0
  7 10  2  3  0  0  0
  8  9  2  0  0  0  0
 10 14  1  0  0  0  0
 11 12  1  0  0  0  0
 11 26  1  0  0  0  0
 11 29  1  0  0  0  0
 12 13  2  0  0  0  0
 14 15  2  0  0  0  0
 14 19  1  0  0  0  0
 15 16  1  0  0  0  0
 16 17  1  0  0  0  0
 17 18  2  0  0  0  0
 17 20  1  0  0  0  0
 18 19  1  0  0  0  0
 20 21  2  0  0  0  0
 20 24  1  0  0  0  0
 21 22  1  0  0  0  0
 22 23  1  0  0  0  0
 22 25  1  0  0  0  0
 23 24  2  0  0  0  0
 26 27  1  0  0  0  0
 27 28  1  0  0  0  0
 28 29  1  0  0  0  0
  2 30  1  0  0  0  0
  3 31  1  0  0  0  0
  4 32  1  0  0  0  0
 10 33  1  0  0  0  0
 15 34  1  0  0  0  0
 16 35  1  0  0  0  0
 16 36  1  0  0  0  0
 18 37  1  0  0  0  0
 19 38  1  0  0  0  0
 19 39  1  0  0  0  0
 21 40  1  0  0  0  0
 24 41  1  0  0  0  0
 25 42  1  0  0  0  0
 25 43  1  0  0  0  0
 25 44  1  0  0  0  0
 26 45  1  0  0  0  0
 26 46  1  0  0  0  0
 27 47  1  0  0  0  0
 27 48  1  0  0  0  0
 28 49  1  0  0  0  0
 28 50  1  0  0  0  0
 29 51  1  0  0  0  0
 29 52  1  0  0  0  0
M  END
> <Name>
37

> <IC50[uM]>
0.004

$$$$
37
  -OEChem-05192314333D
 Structure written by MMmdl.
 52 56  0     0  0  0  0  0  0999 V2000
   -6.3714   12.3591  -12.0053 C   0  0  0  0  0  0  0  0  0  0  0  0
   -6.5147   11.8055  -10.7304 C   0  0  0  0  0  0  0  0  0  0  0  0
   -7.7273   10.5756  -13.0301 C   0  0  0  0  0  0  0  0  0  0  0  0
   -6.9920   11.7699  -13.1223 C   0  0  0  0  0  0  0  0  0  0  0  0
   -7.8210   10.0087  -11.7569 C   0  0  0  0  0  0  0  0  0  0  0  0
   -7.2407   10.6185  -10.5997 C   0  0  0  0  0  0  0  0  0  0  0  0
   -7.6132    9.7471   -9.5123 C   0  0  0  0  0  0  0  0  0  0  0  0
   -8.2794    8.7320   -9.9893 N   0  0  0  0  0  0  0  0  0  0  0  0
   -8.4144    8.8594  -11.3005 N   0  0  0  0  0  0  0  0  0  0  0  0
   -7.3370    9.8875   -8.0251 C   0  0  0  0  0  0  0  0  0  0  0  0
   -4.3570   13.7205  -11.5014 N   0  0  0  0  0  0  0  0  0  0  0  0
   -5.5485   13.6383  -12.1900 C   0  0  0  0  0  0  0  0  0  0  0  0
   -5.9462   14.5274  -12.9449 O   0  0  0  0  0  0  0  0  0  0  0  0
   -5.9602   10.4847   -7.7357 C   0  0  0  0  0  0  0  0  0  0  0  0
   -4.8090    9.7649   -8.0550 C   0  0  0  0  0  0  0  0  0  0  0  0
   -3.5517   10.3138   -7.8050 C   0  0  0  0  0  0  0  0  0  0  0  0
   -3.4444   11.5886   -7.2367 C   0  0  0  0  0  0  0  0  0  0  0  0
   -4.5954   12.3038   -6.9144 C   0  0  0  0  0  0  0  0  0  0  0  0
   -5.8508   11.7543   -7.1602 C   0  0  0  0  0  0  0  0  0  0  0  0
   -2.1010   12.1799   -6.9735 C   0  0  0  0  0  0  0  0  0  0  0  0
   -1.7694   13.4361   -6.4722 C   0  0  0  0  0  0  0  0  0  0  0  0
   -0.4342   13.4933   -6.4118 N   0  0  0  0  0  0  0  0  0  0  0  0
    0.1686   12.4094   -6.8087 N   0  0  0  0  0  0  0  0  0  0  0  0
   -0.8030   11.5907   -7.1765 C   0  0  0  0  0  0  0  0  0  0  0  0
    0.3824   14.6122   -5.9578 C   0  0  0  0  0  0  0  0  0  0  0  0
   -3.5015   14.9079  -11.6138 C   0  0  0  0  0  0  0  0  0  0  0  0
   -2.1980   14.4648  -10.9240 C   0  0  0  0  0  0  0  0  0  0  0  0
   -2.2178   12.9422  -10.9897 C   0  0  0  0  0  0  0  0  0  0  0  0
   -3.7152   12.5763  -10.8194 C   0  0  0  0  0  0  0  0  0  0  0  0
   -6.0752   12.2832   -9.8672 H   0  0  0  0  0  0  0  0  0  0  0  0
   -8.1926   10.1227  -13.8931 H   0  0  0  0  0  0  0  0  0  0  0  0
   -6.9001   12.2523  -14.0842 H   0  0  0  0  0  0  0  0  0  0  0  0
   -8.0373    9.5969   -7.2560 H   0  0  0  0  0  0  0  0  0  0  0  0
   -4.8913    8.7824   -8.4959 H   0  0  0  0  0  0  0  0  0  0  0  0
   -2.6604    9.7552   -8.0499 H   0  0  0  0  0  0  0  0  0  0  0  0
   -4.5468   12.5134   -5.8356 H   0  0  0  0  0  0  0  0  0  0  0  0
   -4.5482   13.2495   -7.4742 H   0  0  0  0  0  0  0  0  0  0  0  0
   -6.3768   12.4518   -7.8286 H   0  0  0  0  0  0  0  0  0  0  0  0
   -6.3724   11.7099   -6.1927 H   0  0  0  0  0  0  0  0  0  0  0  0
   -2.4594   14.2163   -6.1864 H   0  0  0  0  0  0  0  0  0  0  0  0
   -0.6424   10.6017   -7.5796 H   0  0  0  0  0  0  0  0  0  0  0  0
    1.4465   14.3426   -6.0284 H   0  0  0  0  0  0  0  0  0  0  0  0
    0.1842   15.4907   -6.5894 H   0  0  0  0  0  0  0  0  0  0  0  0
    0.1326   14.8481   -4.9128 H   0  0  0  0  0  0  0  0  0  0  0  0
   -3.3223   15.1673  -12.6676 H   0  0  0  0  0  0  0  0  0  0  0  0
   -3.9499   15.7683  -11.0955 H   0  0  0  0  0  0  0  0  0  0  0  0
   -1.3227   14.8639  -11.4575 H   0  0  0  0  0  0  0  0  0  0  0  0
   -2.1776   14.8069   -9.8787 H   0  0  0  0  0  0  0  0  0  0  0  0
   -1.8370   12.5881  -11.9590 H   0  0  0  0  0  0  0  0  0  0  0  0
   -1.6150   12.5084  -10.1783 H   0  0  0  0  0  0  0  0  0  0  0  0
   -4.0015   12.5244   -9.7586 H   0  0  0  0  0  0  0  0  0  0  0  0
   -3.9579   11.6231  -11.3118 H   0  0  0  0  0  0  0  0  0  0  0  0
  1  2  2  0  0  0  0
  1  4  1  0  0  0  0
  1 12  1  0  0  0  0
  2  6  1  0  0  0  0
  3  4  2  0  0  0  0
  3  5  1  0  0  0  0
  5  6  2  0  0  0  0
  5  9  1  0  0  0  0
  6  7  1  0  0  0  0
  7  8  1  0  0  0  0
  7 10  2  3  0  0  0
  8  9  2  0  0  0  0
 10 14  1  0  0  0  0
 11 12  1  0  0  0  0
 11 26  1  0  0  0  0
 11 29  1  0  0  0  0
 12 13  2  0  0  0  0
 14 15  2  0  0  0  0
 14 19  1  0  0  0  0
 15 16  1  0  0  0  0
 16 17  2  0  0  0  0
 17 18  1  0  0  0  0
 17 20  1  0  0  0  0
 18 19  1  0  0  0  0
 20 21  2  0  0  0  0
 20 24  1  0  0  0  0
 21 22  1  0  0  0  0
 22 23  1  0  0  0  0
 22 25  1  0  0  0  0
 23 24  2  0  0  0  0
 26 27  1  0  0  0  0
 27 28  1  0  0  0  0
 28 29  1  0  0  0  0
  2 30  1  0  0  0  0
  3 31  1  0  0  0  0
  4 32  1  0  0  0  0
 10 33  1  0  0  0  0
 15 34  1  0  0  0  0
 16 35  1  0  0  0  0
 18 36  1  0  0  0  0
 18 37  1  0  0  0  0
 19 38  1  0  0  0  0
 19 39  1  0  0  0  0
 21 40  1  0  0  0  0
 24 41  1  0  0  0  0
 25 42  1  0  0  0  0
 25 43  1  0  0  0  0
 25 44  1  0  0  0  0
 26 45  1  0  0  0  0
 26 46  1  0  0  0  0
 27 47  1  0  0  0  0
 27 48  1  0  0  0  0
 28 49  1  0  0  0  0
 28 50  1  0  0  0  0
 29 51  1  0  0  0  0
 29 52  1  0  0  0  0
M  END
> <Name>
37

> <IC50[uM]>
0.004

$$$$
37
  -OEChem-05192314333D
 Structure written by MMmdl.
 52 56  0     1  0  0  0  0  0999 V2000
   -6.3714   12.3591  -12.0053 C   0  0  3  0  0  0  0  0  0  0  0  0
   -6.5147   11.8055  -10.7304 C   0  0  0  0  0  0  0  0  0  0  0  0
   -7.7273   10.5756  -13.0301 C   0  0  0  0  0  0  0  0  0  0  0  0
   -6.9920   11.7699  -13.1223 C   0  0  0  0  0  0  0  0  0  0  0  0
   -7.8210   10.0087  -11.7569 C   0  0  0  0  0  0  0  0  0  0  0  0
   -7.2407   10.6185  -10.5997 C   0  0  0  0  0  0  0  0  0  0  0  0
   -7.6132    9.7471   -9.5123 C   0  0  0  0  0  0  0  0  0  0  0  0
   -8.2794    8.7320   -9.9893 N   0  0  0  0  0  0  0  0  0  0  0  0
   -8.4144    8.8594  -11.3005 N   0  0  0  0  0  0  0  0  0  0  0  0
   -7.3370    9.8875   -8.0251 C   0  0  0  0  0  0  0  0  0  0  0  0
   -4.3570   13.7205  -11.5014 N   0  0  0  0  0  0  0  0  0  0  0  0
   -5.5485   13.6383  -12.1900 C   0  0  0  0  0  0  0  0  0  0  0  0
   -5.9462   14.5274  -12.9449 O   0  0  0  0  0  0  0  0  0  0  0  0
   -5.9602   10.4847   -7.7357 C   0  0  0  0  0  0  0  0  0  0  0  0
   -4.8090    9.7649   -8.0550 C   0  0  0  0  0  0  0  0  0  0  0  0
   -3.5517   10.3138   -7.8050 C   0  0  0  0  0  0  0  0  0  0  0  0
   -3.4444   11.5886   -7.2367 C   0  0  0  0  0  0  0  0  0  0  0  0
   -4.5954   12.3038   -6.9144 C   0  0  0  0  0  0  0  0  0  0  0  0
   -5.8508   11.7543   -7.1602 C   0  0  0  0  0  0  0  0  0  0  0  0
   -2.1010   12.1799   -6.9735 C   0  0  0  0  0  0  0  0  0  0  0  0
   -1.7694   13.4361   -6.4722 C   0  0  0  0  0  0  0  0  0  0  0  0
   -0.4342   13.4933   -6.4118 N   0  0  0  0  0  0  0  0  0  0  0  0
    0.1686   12.4094   -6.8087 N   0  0  0  0  0  0  0  0  0  0  0  0
   -0.8030   11.5907   -7.1765 C   0  0  0  0  0  0  0  0  0  0  0  0
    0.3824   14.6122   -5.9578 C   0  0  0  0  0  0  0  0  0  0  0  0
   -3.5015   14.9079  -11.6138 C   0  0  0  0  0  0  0  0  0  0  0  0
   -2.1980   14.4648  -10.9240 C   0  0  0  0  0  0  0  0  0  0  0  0
   -2.2178   12.9422  -10.9897 C   0  0  0  0  0  0  0  0  0  0  0  0
   -3.7152   12.5763  -10.8194 C   0  0  0  0  0  0  0  0  0  0  0  0
   -5.4719   11.7492  -12.1757 H   0  0  0  0  0  0  0  0  0  0  0  0
   -5.5031   11.6124  -10.3440 H   0  0  0  0  0  0  0  0  0  0  0  0
   -7.0095   12.5604  -10.1016 H   0  0  0  0  0  0  0  0  0  0  0  0
   -8.1926   10.1227  -13.8931 H   0  0  0  0  0  0  0  0  0  0  0  0
   -6.9001   12.2523  -14.0842 H   0  0  0  0  0  0  0  0  0  0  0  0
   -8.0373    9.5969   -7.2560 H   0  0  0  0  0  0  0  0  0  0  0  0
   -4.8913    8.7824   -8.4959 H   0  0  0  0  0  0  0  0  0  0  0  0
   -2.6604    9.7552   -8.0499 H   0  0  0  0  0  0  0  0  0  0  0  0
   -4.5139   13.2862   -6.4731 H   0  0  0  0  0  0  0  0  0  0  0  0
   -6.7415   12.3096   -6.9059 H   0  0  0  0  0  0  0  0  0  0  0  0
   -2.4594   14.2163   -6.1864 H   0  0  0  0  0  0  0  0  0  0  0  0
   -0.6424   10.6017   -7.5796 H   0  0  0  0  0  0  0  0  0  0  0  0
    1.4465   14.3426   -6.0284 H   0  0  0  0  0  0  0  0  0  0  0  0
    0.1842   15.4907   -6.5894 H   0  0  0  0  0  0  0  0  0  0  0  0
    0.1326   14.8481   -4.9128 H   0  0  0  0  0  0  0  0  0  0  0  0
   -3.3223   15.1673  -12.6676 H   0  0  0  0  0  0  0  0  0  0  0  0
   -3.9499   15.7683  -11.0955 H   0  0  0  0  0  0  0  0  0  0  0  0
   -1.3227   14.8639  -11.4575 H   0  0  0  0  0  0  0  0  0  0  0  0
   -2.1776   14.8069   -9.8787 H   0  0  0  0  0  0  0  0  0  0  0  0
   -1.8370   12.5881  -11.9590 H   0  0  0  0  0  0  0  0  0  0  0  0
   -1.6150   12.5084  -10.1783 H   0  0  0  0  0  0  0  0  0  0  0  0
   -4.0015   12.5244   -9.7586 H   0  0  0  0  0  0  0  0  0  0  0  0
   -3.9579   11.6231  -11.3118 H   0  0  0  0  0  0  0  0  0  0  0  0
  1  2  1  0  0  0  0
  1  4  1  0  0  0  0
  1 12  1  0  0  0  0
  2  6  1  0  0  0  0
  3  4  2  0  0  0  0
  3  5  1  0  0  0  0
  5  6  2  0  0  0  0
  5  9  1  0  0  0  0
  6  7  1  0  0  0  0
  7  8  1  0  0  0  0
  7 10  2  3  0  0  0
  8  9  2  0  0  0  0
 10 14  1  0  0  0  0
 11 12  1  0  0  0  0
 11 26  1  0  0  0  0
 11 29  1  0  0  0  0
 12 13  2  0  0  0  0
 14 15  2  0  0  0  0
 14 19  1  0  0  0  0
 15 16  1  0  0  0  0
 16 17  2  0  0  0  0
 17 18  1  0  0  0  0
 17 20  1  0  0  0  0
 18 19  2  0  0  0  0
 20 21  2  0  0  0  0
 20 24  1  0  0  0  0
 21 22  1  0  0  0  0
 22 23  1  0  0  0  0
 22 25  1  0  0  0  0
 23 24  2  0  0  0  0
 26 27  1  0  0  0  0
 27 28  1  0  0  0  0
 28 29  1  0  0  0  0
  1 30  1  0  0  0  0
  2 31  1  0  0  0  0
  2 32  1  0  0  0  0
  3 33  1  0  0  0  0
  4 34  1  0  0  0  0
 10 35  1  0  0  0  0
 15 36  1  0  0  0  0
 16 37  1  0  0  0  0
 18 38  1  0  0  0  0
 19 39  1  0  0  0  0
 21 40  1  0  0  0  0
 24 41  1  0  0  0  0
 25 42  1  0  0  0  0
 25 43  1  0  0  0  0
 25 44  1  0  0  0  0
 26 45  1  0  0  0  0
 26 46  1  0  0  0  0
 27 47  1  0  0  0  0
 27 48  1  0  0  0  0
 28 49  1  0  0  0  0
 28 50  1  0  0  0  0
 29 51  1  0  0  0  0
 29 52  1  0  0  0  0
M  END
> <Name>
37

> <IC50[uM]>
0.004

$$$$
37
  -OEChem-05192314333D
 Structure written by MMmdl.
 52 56  0     1  0  0  0  0  0999 V2000
   -6.3714   12.3591  -12.0053 C   0  0  0  0  0  0  0  0  0  0  0  0
   -6.5147   11.8055  -10.7304 C   0  0  0  0  0  0  0  0  0  0  0  0
   -7.7273   10.5756  -13.0301 C   0  0  0  0  0  0  0  0  0  0  0  0
   -6.9920   11.7699  -13.1223 C   0  0  0  0  0  0  0  0  0  0  0  0
   -7.8210   10.0087  -11.7569 C   0  0  0  0  0  0  0  0  0  0  0  0
   -7.2407   10.6185  -10.5997 C   0  0  3  0  0  0  0  0  0  0  0  0
   -7.6132    9.7471   -9.5123 C   0  0  0  0  0  0  0  0  0  0  0  0
   -8.2794    8.7320   -9.9893 N   0  0  0  0  0  0  0  0  0  0  0  0
   -8.4144    8.8594  -11.3005 N   0  0  0  0  0  0  0  0  0  0  0  0
   -7.3370    9.8875   -8.0251 C   0  0  0  0  0  0  0  0  0  0  0  0
   -4.3570   13.7205  -11.5014 N   0  0  0  0  0  0  0  0  0  0  0  0
   -5.5485   13.6383  -12.1900 C   0  0  0  0  0  0  0  0  0  0  0  0
   -5.9462   14.5274  -12.9449 O   0  0  0  0  0  0  0  0  0  0  0  0
   -5.9602   10.4847   -7.7357 C   0  0  0  0  0  0  0  0  0  0  0  0
   -4.8090    9.7649   -8.0550 C   0  0  0  0  0  0  0  0  0  0  0  0
   -3.5517   10.3138   -7.8050 C   0  0  0  0  0  0  0  0  0  0  0  0
   -3.4444   11.5886   -7.2367 C   0  0  0  0  0  0  0  0  0  0  0  0
   -4.5954   12.3038   -6.9144 C   0  0  0  0  0  0  0  0  0  0  0  0
   -5.8508   11.7543   -7.1602 C   0  0  0  0  0  0  0  0  0  0  0  0
   -2.1010   12.1799   -6.9735 C   0  0  0  0  0  0  0  0  0  0  0  0
   -1.7694   13.4361   -6.4722 C   0  0  0  0  0  0  0  0  0  0  0  0
   -0.4342   13.4933   -6.4118 N   0  0  0  0  0  0  0  0  0  0  0  0
    0.1686   12.4094   -6.8087 N   0  0  0  0  0  0  0  0  0  0  0  0
   -0.8030   11.5907   -7.1765 C   0  0  0  0  0  0  0  0  0  0  0  0
    0.3824   14.6122   -5.9578 C   0  0  0  0  0  0  0  0  0  0  0  0
   -3.5015   14.9079  -11.6138 C   0  0  0  0  0  0  0  0  0  0  0  0
   -2.1980   14.4648  -10.9240 C   0  0  0  0  0  0  0  0  0  0  0  0
   -2.2178   12.9422  -10.9897 C   0  0  0  0  0  0  0  0  0  0  0  0
   -3.7152   12.5763  -10.8194 C   0  0  0  0  0  0  0  0  0  0  0  0
   -5.5031   11.6124  -10.3440 H   0  0  0  0  0  0  0  0  0  0  0  0
   -7.0095   12.5604  -10.1016 H   0  0  0  0  0  0  0  0  0  0  0  0
   -8.1926   10.1227  -13.8931 H   0  0  0  0  0  0  0  0  0  0  0  0
   -6.9001   12.2523  -14.0842 H   0  0  0  0  0  0  0  0  0  0  0  0
   -6.3199   10.0365  -10.7528 H   0  0  0  0  0  0  0  0  0  0  0  0
   -8.0373    9.5969   -7.2560 H   0  0  0  0  0  0  0  0  0  0  0  0
   -4.8913    8.7824   -8.4959 H   0  0  0  0  0  0  0  0  0  0  0  0
   -2.6604    9.7552   -8.0499 H   0  0  0  0  0  0  0  0  0  0  0  0
   -4.5139   13.2862   -6.4731 H   0  0  0  0  0  0  0  0  0  0  0  0
   -6.7415   12.3096   -6.9059 H   0  0  0  0  0  0  0  0  0  0  0  0
   -2.4594   14.2163   -6.1864 H   0  0  0  0  0  0  0  0  0  0  0  0
   -0.6424   10.6017   -7.5796 H   0  0  0  0  0  0  0  0  0  0  0  0
    1.4465   14.3426   -6.0284 H   0  0  0  0  0  0  0  0  0  0  0  0
    0.1842   15.4907   -6.5894 H   0  0  0  0  0  0  0  0  0  0  0  0
    0.1326   14.8481   -4.9128 H   0  0  0  0  0  0  0  0  0  0  0  0
   -3.3223   15.1673  -12.6676 H   0  0  0  0  0  0  0  0  0  0  0  0
   -3.9499   15.7683  -11.0955 H   0  0  0  0  0  0  0  0  0  0  0  0
   -1.3227   14.8639  -11.4575 H   0  0  0  0  0  0  0  0  0  0  0  0
   -2.1776   14.8069   -9.8787 H   0  0  0  0  0  0  0  0  0  0  0  0
   -1.8370   12.5881  -11.9590 H   0  0  0  0  0  0  0  0  0  0  0  0
   -1.6150   12.5084  -10.1783 H   0  0  0  0  0  0  0  0  0  0  0  0
   -4.0015   12.5244   -9.7586 H   0  0  0  0  0  0  0  0  0  0  0  0
   -3.9579   11.6231  -11.3118 H   0  0  0  0  0  0  0  0  0  0  0  0
  1  2  1  0  0  0  0
  1  4  2  0  0  0  0
  1 12  1  0  0  0  0
  2  6  1  0  0  0  0
  3  4  1  0  0  0  0
  3  5  2  0  0  0  0
  5  6  1  0  0  0  0
  5  9  1  0  0  0  0
  6  7  1  0  0  0  0
  7  8  1  0  0  0  0
  7 10  2  3  0  0  0
  8  9  2  0  0  0  0
 10 14  1  0  0  0  0
 11 12  1  0  0  0  0
 11 26  1  0  0  0  0
 11 29  1  0  0  0  0
 12 13  2  0  0  0  0
 14 15  2  0  0  0  0
 14 19  1  0  0  0  0
 15 16  1  0  0  0  0
 16 17  2  0  0  0  0
 17 18  1  0  0  0  0
 17 20  1  0  0  0  0
 18 19  2  0  0  0  0
 20 21  2  0  0  0  0
 20 24  1  0  0  0  0
 21 22  1  0  0  0  0
 22 23  1  0  0  0  0
 22 25  1  0  0  0  0
 23 24  2  0  0  0  0
 26 27  1  0  0  0  0
 27 28  1  0  0  0  0
 28 29  1  0  0  0  0
  2 30  1  0  0  0  0
  2 31  1  0  0  0  0
  3 32  1  0  0  0  0
  4 33  1  0  0  0  0
  6 34  1  0  0  0  0
 10 35  1  0  0  0  0
 15 36  1  0  0  0  0
 16 37  1  0  0  0  0
 18 38  1  0  0  0  0
 19 39  1  0  0  0  0
 21 40  1  0  0  0  0
 24 41  1  0  0  0  0
 25 42  1  0  0  0  0
 25 43  1  0  0  0  0
 25 44  1  0  0  0  0
 26 45  1  0  0  0  0
 26 46  1  0  0  0  0
 27 47  1  0  0  0  0
 27 48  1  0  0  0  0
 28 49  1  0  0  0  0
 28 50  1  0  0  0  0
 29 51  1  0  0  0  0
 29 52  1  0  0  0  0
M  END
> <Name>
37

> <IC50[uM]>
0.004

$$$$
37
  -OEChem-05192314333D
 Structure written by MMmdl.
 52 56  0     0  0  0  0  0  0999 V2000
   -6.3714   12.3591  -12.0053 C   0  0  0  0  0  0  0  0  0  0  0  0
   -6.5147   11.8055  -10.7304 C   0  0  0  0  0  0  0  0  0  0  0  0
   -7.7273   10.5756  -13.0301 C   0  0  0  0  0  0  0  0  0  0  0  0
   -6.9920   11.7699  -13.1223 C   0  0  0  0  0  0  0  0  0  0  0  0
   -7.8210   10.0087  -11.7569 C   0  0  0  0  0  0  0  0  0  0  0  0
   -7.2407   10.6185  -10.5997 C   0  0  0  0  0  0  0  0  0  0  0  0
   -7.6132    9.7471   -9.5123 C   0  0  0  0  0  0  0  0  0  0  0  0
   -8.2794    8.7320   -9.9893 N   0  0  0  0  0  0  0  0  0  0  0  0
   -8.4144    8.8594  -11.3005 N   0  0  0  0  0  0  0  0  0  0  0  0
   -7.3370    9.8875   -8.0251 C   0  0  0  0  0  0  0  0  0  0  0  0
   -4.3570   13.7205  -11.5014 N   0  0  0  0  0  0  0  0  0  0  0  0
   -5.5485   13.6383  -12.1900 C   0  0  0  0  0  0  0  0  0  0  0  0
   -5.9462   14.5274  -12.9449 O   0  0  0  0  0  0  0  0  0  0  0  0
   -5.9602   10.4847   -7.7357 C   0  0  0  0  0  0  0  0  0  0  0  0
   -4.8090    9.7649   -8.0550 C   0  0  0  0  0  0  0  0  0  0  0  0
   -3.5517   10.3138   -7.8050 C   0  0  0  0  0  0  0  0  0  0  0  0
   -3.4444   11.5886   -7.2367 C   0  0  0  0  0  0  0  0  0  0  0  0
   -4.5954   12.3038   -6.9144 C   0  0  0  0  0  0  0  0  0  0  0  0
   -5.8508   11.7543   -7.1602 C   0  0  0  0  0  0  0  0  0  0  0  0
   -2.1010   12.1799   -6.9735 C   0  0  0  0  0  0  0  0  0  0  0  0
   -1.7694   13.4361   -6.4722 C   0  0  0  0  0  0  0  0  0  0  0  0
   -0.4342   13.4933   -6.4118 N   0  0  0  0  0  0  0  0  0  0  0  0
    0.1686   12.4094   -6.8087 N   0  0  0  0  0  0  0  0  0  0  0  0
   -0.8030   11.5907   -7.1765 C   0  0  0  0  0  0  0  0  0  0  0  0
    0.3824   14.6122   -5.9578 C   0  0  0  0  0  0  0  0  0  0  0  0
   -3.5015   14.9079  -11.6138 C   0  0  0  0  0  0  0  0  0  0  0  0
   -2.1980   14.4648  -10.9240 C   0  0  0  0  0  0  0  0  0  0  0  0
   -2.2178   12.9422  -10.9897 C   0  0  0  0  0  0  0  0  0  0  0  0
   -3.7152   12.5763  -10.8194 C   0  0  0  0  0  0  0  0  0  0  0  0
   -5.5031   11.6124  -10.3440 H   0  0  0  0  0  0  0  0  0  0  0  0
   -7.0095   12.5604  -10.1016 H   0  0  0  0  0  0  0  0  0  0  0  0
   -8.7488   10.7817  -13.3823 H   0  0  0  0  0  0  0  0  0  0  0  0
   -7.2530    9.8368  -13.6929 H   0  0  0  0  0  0  0  0  0  0  0  0
   -6.9001   12.2523  -14.0842 H   0  0  0  0  0  0  0  0  0  0  0  0
   -8.0373    9.5969   -7.2560 H   0  0  0  0  0  0  0  0  0  0  0  0
   -4.8913    8.7824   -8.4959 H   0  0  0  0  0  0  0  0  0  0  0  0
   -2.6604    9.7552   -8.0499 H   0  0  0  0  0  0  0  0  0  0  0  0
   -4.5139   13.2862   -6.4731 H   0  0  0  0  0  0  0  0  0  0  0  0
   -6.7415   12.3096   -6.9059 H   0  0  0  0  0  0  0  0  0  0  0  0
   -2.4594   14.2163   -6.1864 H   0  0  0  0  0  0  0  0  0  0  0  0
   -0.6424   10.6017   -7.5796 H   0  0  0  0  0  0  0  0  0  0  0  0
    1.4465   14.3426   -6.0284 H   0  0  0  0  0  0  0  0  0  0  0  0
    0.1842   15.4907   -6.5894 H   0  0  0  0  0  0  0  0  0  0  0  0
    0.1326   14.8481   -4.9128 H   0  0  0  0  0  0  0  0  0  0  0  0
   -3.3223   15.1673  -12.6676 H   0  0  0  0  0  0  0  0  0  0  0  0
   -3.9499   15.7683  -11.0955 H   0  0  0  0  0  0  0  0  0  0  0  0
   -1.3227   14.8639  -11.4575 H   0  0  0  0  0  0  0  0  0  0  0  0
   -2.1776   14.8069   -9.8787 H   0  0  0  0  0  0  0  0  0  0  0  0
   -1.8370   12.5881  -11.9590 H   0  0  0  0  0  0  0  0  0  0  0  0
   -1.6150   12.5084  -10.1783 H   0  0  0  0  0  0  0  0  0  0  0  0
   -4.0015   12.5244   -9.7586 H   0  0  0  0  0  0  0  0  0  0  0  0
   -3.9579   11.6231  -11.3118 H   0  0  0  0  0  0  0  0  0  0  0  0
  1  2  1  0  0  0  0
  1  4  2  0  0  0  0
  1 12  1  0  0  0  0
  2  6  1  0  0  0  0
  3  4  1  0  0  0  0
  3  5  1  0  0  0  0
  5  6  2  0  0  0  0
  5  9  1  0  0  0  0
  6  7  1  0  0  0  0
  7  8  1  0  0  0  0
  7 10  2  3  0  0  0
  8  9  2  0  0  0  0
 10 14  1  0  0  0  0
 11 12  1  0  0  0  0
 11 26  1  0  0  0  0
 11 29  1  0  0  0  0
 12 13  2  0  0  0  0
 14 15  2  0  0  0  0
 14 19  1  0  0  0  0
 15 16  1  0  0  0  0
 16 17  2  0  0  0  0
 17 18  1  0  0  0  0
 17 20  1  0  0  0  0
 18 19  2  0  0  0  0
 20 21  2  0  0  0  0
 20 24  1  0  0  0  0
 21 22  1  0  0  0  0
 22 23  1  0  0  0  0
 22 25  1  0  0  0  0
 23 24  2  0  0  0  0
 26 27  1  0  0  0  0
 27 28  1  0  0  0  0
 28 29  1  0  0  0  0
  2 30  1  0  0  0  0
  2 31  1  0  0  0  0
  3 32  1  0  0  0  0
  3 33  1  0  0  0  0
  4 34  1  0  0  0  0
 10 35  1  0  0  0  0
 15 36  1  0  0  0  0
 16 37  1  0  0  0  0
 18 38  1  0  0  0  0
 19 39  1  0  0  0  0
 21 40  1  0  0  0  0
 24 41  1  0  0  0  0
 25 42  1  0  0  0  0
 25 43  1  0  0  0  0
 25 44  1  0  0  0  0
 26 45  1  0  0  0  0
 26 46  1  0  0  0  0
 27 47  1  0  0  0  0
 27 48  1  0  0  0  0
 28 49  1  0  0  0  0
 28 50  1  0  0  0  0
 29 51  1  0  0  0  0
 29 52  1  0  0  0  0
M  END
> <Name>
37

> <IC50[uM]>
0.004

$$$$
37
  -OEChem-05192314333D
 Structure written by MMmdl.
 52 56  0     1  0  0  0  0  0999 V2000
   -6.3714   12.3591  -12.0053 C   0  0  0  0  0  0  0  0  0  0  0  0
   -6.5147   11.8055  -10.7304 C   0  0  0  0  0  0  0  0  0  0  0  0
   -7.7273   10.5756  -13.0301 C   0  0  0  0  0  0  0  0  0  0  0  0
   -6.9920   11.7699  -13.1223 C   0  0  0  0  0  0  0  0  0  0  0  0
   -7.8210   10.0087  -11.7569 C   0  0  3  0  0  0  0  0  0  0  0  0
   -7.2407   10.6185  -10.5997 C   0  0  0  0  0  0  0  0  0  0  0  0
   -7.6132    9.7471   -9.5123 C   0  0  0  0  0  0  0  0  0  0  0  0
   -8.2794    8.7320   -9.9893 N   0  0  0  0  0  0  0  0  0  0  0  0
   -8.4144    8.8594  -11.3005 N   0  0  0  0  0  0  0  0  0  0  0  0
   -7.3370    9.8875   -8.0251 C   0  0  0  0  0  0  0  0  0  0  0  0
   -4.3570   13.7205  -11.5014 N   0  0  0  0  0  0  0  0  0  0  0  0
   -5.5485   13.6383  -12.1900 C   0  0  0  0  0  0  0  0  0  0  0  0
   -5.9462   14.5274  -12.9449 O   0  0  0  0  0  0  0  0  0  0  0  0
   -5.9602   10.4847   -7.7357 C   0  0  0  0  0  0  0  0  0  0  0  0
   -4.8090    9.7649   -8.0550 C   0  0  0  0  0  0  0  0  0  0  0  0
   -3.5517   10.3138   -7.8050 C   0  0  0  0  0  0  0  0  0  0  0  0
   -3.4444   11.5886   -7.2367 C   0  0  0  0  0  0  0  0  0  0  0  0
   -4.5954   12.3038   -6.9144 C   0  0  0  0  0  0  0  0  0  0  0  0
   -5.8508   11.7543   -7.1602 C   0  0  0  0  0  0  0  0  0  0  0  0
   -2.1010   12.1799   -6.9735 C   0  0  0  0  0  0  0  0  0  0  0  0
   -1.7694   13.4361   -6.4722 C   0  0  0  0  0  0  0  0  0  0  0  0
   -0.4342   13.4933   -6.4118 N   0  0  0  0  0  0  0  0  0  0  0  0
    0.1686   12.4094   -6.8087 N   0  0  0  0  0  0  0  0  0  0  0  0
   -0.8030   11.5907   -7.1765 C   0  0  0  0  0  0  0  0  0  0  0  0
    0.3824   14.6122   -5.9578 C   0  0  0  0  0  0  0  0  0  0  0  0
   -3.5015   14.9079  -11.6138 C   0  0  0  0  0  0  0  0  0  0  0  0
   -2.1980   14.4648  -10.9240 C   0  0  0  0  0  0  0  0  0  0  0  0
   -2.2178   12.9422  -10.9897 C   0  0  0  0  0  0  0  0  0  0  0  0
   -3.7152   12.5763  -10.8194 C   0  0  0  0  0  0  0  0  0  0  0  0
   -6.0752   12.2832   -9.8672 H   0  0  0  0  0  0  0  0  0  0  0  0
   -8.1926   10.1227  -13.8931 H   0  0  0  0  0  0  0  0  0  0  0  0
   -6.9001   12.2523  -14.0842 H   0  0  0  0  0  0  0  0  0  0  0  0
   -6.8867    9.4559  -11.9342 H   0  0  0  0  0  0  0  0  0  0  0  0
   -8.1041   10.5414   -7.5847 H   0  0  0  0  0  0  0  0  0  0  0  0
   -7.3935    8.8918   -7.5609 H   0  0  0  0  0  0  0  0  0  0  0  0
   -4.8913    8.7824   -8.4959 H   0  0  0  0  0  0  0  0  0  0  0  0
   -2.6604    9.7552   -8.0499 H   0  0  0  0  0  0  0  0  0  0  0  0
   -4.5139   13.2862   -6.4731 H   0  0  0  0  0  0  0  0  0  0  0  0
   -6.7415   12.3096   -6.9059 H   0  0  0  0  0  0  0  0  0  0  0  0
   -2.4594   14.2163   -6.1864 H   0  0  0  0  0  0  0  0  0  0  0  0
   -0.6424   10.6017   -7.5796 H   0  0  0  0  0  0  0  0  0  0  0  0
    1.4465   14.3426   -6.0284 H   0  0  0  0  0  0  0  0  0  0  0  0
    0.1842   15.4907   -6.5894 H   0  0  0  0  0  0  0  0  0  0  0  0
    0.1326   14.8481   -4.9128 H   0  0  0  0  0  0  0  0  0  0  0  0
   -3.3223   15.1673  -12.6676 H   0  0  0  0  0  0  0  0  0  0  0  0
   -3.9499   15.7683  -11.0955 H   0  0  0  0  0  0  0  0  0  0  0  0
   -1.3227   14.8639  -11.4575 H   0  0  0  0  0  0  0  0  0  0  0  0
   -2.1776   14.8069   -9.8787 H   0  0  0  0  0  0  0  0  0  0  0  0
   -1.8370   12.5881  -11.9590 H   0  0  0  0  0  0  0  0  0  0  0  0
   -1.6150   12.5084  -10.1783 H   0  0  0  0  0  0  0  0  0  0  0  0
   -4.0015   12.5244   -9.7586 H   0  0  0  0  0  0  0  0  0  0  0  0
   -3.9579   11.6231  -11.3118 H   0  0  0  0  0  0  0  0  0  0  0  0
  1  2  2  0  0  0  0
  1  4  1  0  0  0  0
  1 12  1  0  0  0  0
  2  6  1  0  0  0  0
  3  4  2  0  0  0  0
  3  5  1  0  0  0  0
  5  6  1  0  0  0  0
  5  9  1  0  0  0  0
  6  7  2  0  0  0  0
  7  8  1  0  0  0  0
  7 10  1  0  0  0  0
  8  9  2  0  0  0  0
 10 14  1  0  0  0  0
 11 12  1  0  0  0  0
 11 26  1  0  0  0  0
 11 29  1  0  0  0  0
 12 13  2  0  0  0  0
 14 15  2  0  0  0  0
 14 19  1  0  0  0  0
 15 16  1  0  0  0  0
 16 17  2  0  0  0  0
 17 18  1  0  0  0  0
 17 20  1  0  0  0  0
 18 19  2  0  0  0  0
 20 21  2  0  0  0  0
 20 24  1  0  0  0  0
 21 22  1  0  0  0  0
 22 23  1  0  0  0  0
 22 25  1  0  0  0  0
 23 24  2  0  0  0  0
 26 27  1  0  0  0  0
 27 28  1  0  0  0  0
 28 29  1  0  0  0  0
  2 30  1  0  0  0  0
  3 31  1  0  0  0  0
  4 32  1  0  0  0  0
  5 33  1  0  0  0  0
 10 34  1  0  0  0  0
 10 35  1  0  0  0  0
 15 36  1  0  0  0  0
 16 37  1  0  0  0  0
 18 38  1  0  0  0  0
 19 39  1  0  0  0  0
 21 40  1  0  0  0  0
 24 41  1  0  0  0  0
 25 42  1  0  0  0  0
 25 43  1  0  0  0  0
 25 44  1  0  0  0  0
 26 45  1  0  0  0  0
 26 46  1  0  0  0  0
 27 47  1  0  0  0  0
 27 48  1  0  0  0  0
 28 49  1  0  0  0  0
 28 50  1  0  0  0  0
 29 51  1  0  0  0  0
 29 52  1  0  0  0  0
M  END
> <Name>
37

> <IC50[uM]>
0.004

$$$$
37
  -OEChem-05192314333D
 Structure written by MMmdl.
 52 56  0     0  0  0  0  0  0999 V2000
   -6.3714   12.3591  -12.0053 C   0  0  0  0  0  0  0  0  0  0  0  0
   -6.5147   11.8055  -10.7304 C   0  0  0  0  0  0  0  0  0  0  0  0
   -7.7273   10.5756  -13.0301 C   0  0  0  0  0  0  0  0  0  0  0  0
   -6.9920   11.7699  -13.1223 C   0  0  0  0  0  0  0  0  0  0  0  0
   -7.8210   10.0087  -11.7569 C   0  0  0  0  0  0  0  0  0  0  0  0
   -7.2407   10.6185  -10.5997 C   0  0  0  0  0  0  0  0  0  0  0  0
   -7.6132    9.7471   -9.5123 C   0  0  0  0  0  0  0  0  0  0  0  0
   -8.2794    8.7320   -9.9893 N   0  0  0  0  0  0  0  0  0  0  0  0
   -8.4144    8.8594  -11.3005 N   0  0  0  0  0  0  0  0  0  0  0  0
   -7.3370    9.8875   -8.0251 C   0  0  0  0  0  0  0  0  0  0  0  0
   -4.3570   13.7205  -11.5014 N   0  0  0  0  0  0  0  0  0  0  0  0
   -5.5485   13.6383  -12.1900 C   0  0  0  0  0  0  0  0  0  0  0  0
   -5.9462   14.5274  -12.9449 O   0  0  0  0  0  0  0  0  0  0  0  0
   -5.9602   10.4847   -7.7357 C   0  0  0  0  0  0  0  0  0  0  0  0
   -4.8090    9.7649   -8.0550 C   0  0  0  0  0  0  0  0  0  0  0  0
   -3.5517   10.3138   -7.8050 C   0  0  0  0  0  0  0  0  0  0  0  0
   -3.4444   11.5886   -7.2367 C   0  0  0  0  0  0  0  0  0  0  0  0
   -4.5954   12.3038   -6.9144 C   0  0  0  0  0  0  0  0  0  0  0  0
   -5.8508   11.7543   -7.1602 C   0  0  0  0  0  0  0  0  0  0  0  0
   -2.1010   12.1799   -6.9735 C   0  0  0  0  0  0  0  0  0  0  0  0
   -1.7694   13.4361   -6.4722 C   0  0  0  0  0  0  0  0  0  0  0  0
   -0.4342   13.4933   -6.4118 N   0  0  0  0  0  0  0  0  0  0  0  0
    0.1686   12.4094   -6.8087 N   0  0  0  0  0  0  0  0  0  0  0  0
   -0.8030   11.5907   -7.1765 C   0  0  0  0  0  0  0  0  0  0  0  0
    0.3824   14.6122   -5.9578 C   0  0  0  0  0  0  0  0  0  0  0  0
   -3.5015   14.9079  -11.6138 C   0  0  0  0  0  0  0  0  0  0  0  0
   -2.1980   14.4648  -10.9240 C   0  0  0  0  0  0  0  0  0  0  0  0
   -2.2178   12.9422  -10.9897 C   0  0  0  0  0  0  0  0  0  0  0  0
   -3.7152   12.5763  -10.8194 C   0  0  0  0  0  0  0  0  0  0  0  0
   -6.0752   12.2832   -9.8672 H   0  0  0  0  0  0  0  0  0  0  0  0
   -8.1926   10.1227  -13.8931 H   0  0  0  0  0  0  0  0  0  0  0  0
   -7.6839   12.5256  -13.5225 H   0  0  0  0  0  0  0  0  0  0  0  0
   -6.1920   11.5815  -13.8534 H   0  0  0  0  0  0  0  0  0  0  0  0
   -8.1041   10.5414   -7.5847 H   0  0  0  0  0  0  0  0  0  0  0  0
   -7.3935    8.8918   -7.5609 H   0  0  0  0  0  0  0  0  0  0  0  0
   -4.8913    8.7824   -8.4959 H   0  0  0  0  0  0  0  0  0  0  0  0
   -2.6604    9.7552   -8.0499 H   0  0  0  0  0  0  0  0  0  0  0  0
   -4.5139   13.2862   -6.4731 H   0  0  0  0  0  0  0  0  0  0  0  0
   -6.7415   12.3096   -6.9059 H   0  0  0  0  0  0  0  0  0  0  0  0
   -2.4594   14.2163   -6.1864 H   0  0  0  0  0  0  0  0  0  0  0  0
   -0.6424   10.6017   -7.5796 H   0  0  0  0  0  0  0  0  0  0  0  0
    1.4465   14.3426   -6.0284 H   0  0  0  0  0  0  0  0  0  0  0  0
    0.1842   15.4907   -6.5894 H   0  0  0  0  0  0  0  0  0  0  0  0
    0.1326   14.8481   -4.9128 H   0  0  0  0  0  0  0  0  0  0  0  0
   -3.3223   15.1673  -12.6676 H   0  0  0  0  0  0  0  0  0  0  0  0
   -3.9499   15.7683  -11.0955 H   0  0  0  0  0  0  0  0  0  0  0  0
   -1.3227   14.8639  -11.4575 H   0  0  0  0  0  0  0  0  0  0  0  0
   -2.1776   14.8069   -9.8787 H   0  0  0  0  0  0  0  0  0  0  0  0
   -1.8370   12.5881  -11.9590 H   0  0  0  0  0  0  0  0  0  0  0  0
   -1.6150   12.5084  -10.1783 H   0  0  0  0  0  0  0  0  0  0  0  0
   -4.0015   12.5244   -9.7586 H   0  0  0  0  0  0  0  0  0  0  0  0
   -3.9579   11.6231  -11.3118 H   0  0  0  0  0  0  0  0  0  0  0  0
  1  2  2  0  0  0  0
  1  4  1  0  0  0  0
  1 12  1  0  0  0  0
  2  6  1  0  0  0  0
  3  4  1  0  0  0  0
  3  5  2  0  0  0  0
  5  6  1  0  0  0  0
  5  9  1  0  0  0  0
  6  7  2  0  0  0  0
  7  8  1  0  0  0  0
  7 10  1  0  0  0  0
  8  9  2  0  0  0  0
 10 14  1  0  0  0  0
 11 12  1  0  0  0  0
 11 26  1  0  0  0  0
 11 29  1  0  0  0  0
 12 13  2  0  0  0  0
 14 15  2  0  0  0  0
 14 19  1  0  0  0  0
 15 16  1  0  0  0  0
 16 17  2  0  0  0  0
 17 18  1  0  0  0  0
 17 20  1  0  0  0  0
 18 19  2  0  0  0  0
 20 21  2  0  0  0  0
 20 24  1  0  0  0  0
 21 22  1  0  0  0  0
 22 23  1  0  0  0  0
 22 25  1  0  0  0  0
 23 24  2  0  0  0  0
 26 27  1  0  0  0  0
 27 28  1  0  0  0  0
 28 29  1  0  0  0  0
  2 30  1  0  0  0  0
  3 31  1  0  0  0  0
  4 32  1  0  0  0  0
  4 33  1  0  0  0  0
 10 34  1  0  0  0  0
 10 35  1  0  0  0  0
 15 36  1  0  0  0  0
 16 37  1  0  0  0  0
 18 38  1  0  0  0  0
 19 39  1  0  0  0  0
 21 40  1  0  0  0  0
 24 41  1  0  0  0  0
 25 42  1  0  0  0  0
 25 43  1  0  0  0  0
 25 44  1  0  0  0  0
 26 45  1  0  0  0  0
 26 46  1  0  0  0  0
 27 47  1  0  0  0  0
 27 48  1  0  0  0  0
 28 49  1  0  0  0  0
 28 50  1  0  0  0  0
 29 51  1  0  0  0  0
 29 52  1  0  0  0  0
M  END
> <Name>
37

> <IC50[uM]>
0.004

$$$$
37
  -OEChem-05192314333D
 Structure written by MMmdl.
 52 56  0     0  0  0  0  0  0999 V2000
   -6.3714   12.3591  -12.0053 C   0  0  0  0  0  0  0  0  0  0  0  0
   -6.5147   11.8055  -10.7304 C   0  0  0  0  0  0  0  0  0  0  0  0
   -7.7273   10.5756  -13.0301 C   0  0  0  0  0  0  0  0  0  0  0  0
   -6.9920   11.7699  -13.1223 C   0  0  0  0  0  0  0  0  0  0  0  0
   -7.8210   10.0087  -11.7569 C   0  0  0  0  0  0  0  0  0  0  0  0
   -7.2407   10.6185  -10.5997 C   0  0  0  0  0  0  0  0  0  0  0  0
   -7.6132    9.7471   -9.5123 C   0  0  0  0  0  0  0  0  0  0  0  0
   -8.2794    8.7320   -9.9893 N   0  0  0  0  0  0  0  0  0  0  0  0
   -8.4144    8.8594  -11.3005 N   0  0  0  0  0  0  0  0  0  0  0  0
   -7.3370    9.8875   -8.0251 C   0  0  0  0  0  0  0  0  0  0  0  0
   -4.3570   13.7205  -11.5014 N   0  0  0  0  0  0  0  0  0  0  0  0
   -5.5485   13.6383  -12.1900 C   0  0  0  0  0  0  0  0  0  0  0  0
   -5.9462   14.5274  -12.9449 O   0  0  0  0  0  0  0  0  0  0  0  0
   -5.9602   10.4847   -7.7357 C   0  0  0  0  0  0  0  0  0  0  0  0
   -4.8090    9.7649   -8.0550 C   0  0  0  0  0  0  0  0  0  0  0  0
   -3.5517   10.3138   -7.8050 C   0  0  0  0  0  0  0  0  0  0  0  0
   -3.4444   11.5886   -7.2367 C   0  0  0  0  0  0  0  0  0  0  0  0
   -4.5954   12.3038   -6.9144 C   0  0  0  0  0  0  0  0  0  0  0  0
   -5.8508   11.7543   -7.1602 C   0  0  0  0  0  0  0  0  0  0  0  0
   -2.1010   12.1799   -6.9735 C   0  0  0  0  0  0  0  0  0  0  0  0
   -1.7694   13.4361   -6.4722 C   0  0  0  0  0  0  0  0  0  0  0  0
   -0.4342   13.4933   -6.4118 N   0  0  0  0  0  0  0  0  0  0  0  0
    0.1686   12.4094   -6.8087 N   0  0  0  0  0  0  0  0  0  0  0  0
   -0.8030   11.5907   -7.1765 C   0  0  0  0  0  0  0  0  0  0  0  0
    0.3824   14.6122   -5.9578 C   0  0  0  0  0  0  0  0  0  0  0  0
   -3.5015   14.9079  -11.6138 C   0  0  0  0  0  0  0  0  0  0  0  0
   -2.1980   14.4648  -10.9240 C   0  0  0  0  0  0  0  0  0  0  0  0
   -2.2178   12.9422  -10.9897 C   0  0  0  0  0  0  0  0  0  0  0  0
   -3.7152   12.5763  -10.8194 C   0  0  0  0  0  0  0  0  0  0  0  0
   -5.5031   11.6124  -10.3440 H   0  0  0  0  0  0  0  0  0  0  0  0
   -7.0095   12.5604  -10.1016 H   0  0  0  0  0  0  0  0  0  0  0  0
   -8.1926   10.1227  -13.8931 H   0  0  0  0  0  0  0  0  0  0  0  0
   -6.9001   12.2523  -14.0842 H   0  0  0  0  0  0  0  0  0  0  0  0
   -8.1041   10.5414   -7.5847 H   0  0  0  0  0  0  0  0  0  0  0  0
   -7.3935    8.8918   -7.5609 H   0  0  0  0  0  0  0  0  0  0  0  0
   -4.8913    8.7824   -8.4959 H   0  0  0  0  0  0  0  0  0  0  0  0
   -2.6604    9.7552   -8.0499 H   0  0  0  0  0  0  0  0  0  0  0  0
   -4.5139   13.2862   -6.4731 H   0  0  0  0  0  0  0  0  0  0  0  0
   -6.7415   12.3096   -6.9059 H   0  0  0  0  0  0  0  0  0  0  0  0
   -2.4594   14.2163   -6.1864 H   0  0  0  0  0  0  0  0  0  0  0  0
   -0.6424   10.6017   -7.5796 H   0  0  0  0  0  0  0  0  0  0  0  0
    1.4465   14.3426   -6.0284 H   0  0  0  0  0  0  0  0  0  0  0  0
    0.1842   15.4907   -6.5894 H   0  0  0  0  0  0  0  0  0  0  0  0
    0.1326   14.8481   -4.9128 H   0  0  0  0  0  0  0  0  0  0  0  0
   -3.3223   15.1673  -12.6676 H   0  0  0  0  0  0  0  0  0  0  0  0
   -3.9499   15.7683  -11.0955 H   0  0  0  0  0  0  0  0  0  0  0  0
   -1.3227   14.8639  -11.4575 H   0  0  0  0  0  0  0  0  0  0  0  0
   -2.1776   14.8069   -9.8787 H   0  0  0  0  0  0  0  0  0  0  0  0
   -1.8370   12.5881  -11.9590 H   0  0  0  0  0  0  0  0  0  0  0  0
   -1.6150   12.5084  -10.1783 H   0  0  0  0  0  0  0  0  0  0  0  0
   -4.0015   12.5244   -9.7586 H   0  0  0  0  0  0  0  0  0  0  0  0
   -3.9579   11.6231  -11.3118 H   0  0  0  0  0  0  0  0  0  0  0  0
  1  2  1  0  0  0  0
  1  4  2  0  0  0  0
  1 12  1  0  0  0  0
  2  6  1  0  0  0  0
  3  4  1  0  0  0  0
  3  5  2  0  0  0  0
  5  6  1  0  0  0  0
  5  9  1  0  0  0  0
  6  7  2  0  0  0  0
  7  8  1  0  0  0  0
  7 10  1  0  0  0  0
  8  9  2  0  0  0  0
 10 14  1  0  0  0  0
 11 12  1  0  0  0  0
 11 26  1  0  0  0  0
 11 29  1  0  0  0  0
 12 13  2  0  0  0  0
 14 15  2  0  0  0  0
 14 19  1  0  0  0  0
 15 16  1  0  0  0  0
 16 17  2  0  0  0  0
 17 18  1  0  0  0  0
 17 20  1  0  0  0  0
 18 19  2  0  0  0  0
 20 21  2  0  0  0  0
 20 24  1  0  0  0  0
 21 22  1  0  0  0  0
 22 23  1  0  0  0  0
 22 25  1  0  0  0  0
 23 24  2  0  0  0  0
 26 27  1  0  0  0  0
 27 28  1  0  0  0  0
 28 29  1  0  0  0  0
  2 30  1  0  0  0  0
  2 31  1  0  0  0  0
  3 32  1  0  0  0  0
  4 33  1  0  0  0  0
 10 34  1  0  0  0  0
 10 35  1  0  0  0  0
 15 36  1  0  0  0  0
 16 37  1  0  0  0  0
 18 38  1  0  0  0  0
 19 39  1  0  0  0  0
 21 40  1  0  0  0  0
 24 41  1  0  0  0  0
 25 42  1  0  0  0  0
 25 43  1  0  0  0  0
 25 44  1  0  0  0  0
 26 45  1  0  0  0  0
 26 46  1  0  0  0  0
 27 47  1  0  0  0  0
 27 48  1  0  0  0  0
 28 49  1  0  0  0  0
 28 50  1  0  0  0  0
 29 51  1  0  0  0  0
 29 52  1  0  0  0  0
M  END
> <Name>
37

> <IC50[uM]>
0.004

$$$$
37
  -OEChem-05192314333D
 Structure written by MMmdl.
 52 56  0     1  0  0  0  0  0999 V2000
   -6.3714   12.3591  -12.0053 C   0  0  0  0  0  0  0  0  0  0  0  0
   -6.5147   11.8055  -10.7304 C   0  0  0  0  0  0  0  0  0  0  0  0
   -7.7273   10.5756  -13.0301 C   0  0  0  0  0  0  0  0  0  0  0  0
   -6.9920   11.7699  -13.1223 C   0  0  0  0  0  0  0  0  0  0  0  0
   -7.8210   10.0087  -11.7569 C   0  0  0  0  0  0  0  0  0  0  0  0
   -7.2407   10.6185  -10.5997 C   0  0  3  0  0  0  0  0  0  0  0  0
   -7.6132    9.7471   -9.5123 C   0  0  0  0  0  0  0  0  0  0  0  0
   -8.2794    8.7320   -9.9893 N   0  0  0  0  0  0  0  0  0  0  0  0
   -8.4144    8.8594  -11.3005 N   0  0  0  0  0  0  0  0  0  0  0  0
   -7.3370    9.8875   -8.0251 C   0  0  0  0  0  0  0  0  0  0  0  0
   -4.3570   13.7205  -11.5014 N   0  0  0  0  0  0  0  0  0  0  0  0
   -5.5485   13.6383  -12.1900 C   0  0  0  0  0  0  0  0  0  0  0  0
   -5.9462   14.5274  -12.9449 O   0  0  0  0  0  0  0  0  0  0  0  0
   -5.9602   10.4847   -7.7357 C   0  0  0  0  0  0  0  0  0  0  0  0
   -4.8090    9.7649   -8.0550 C   0  0  0  0  0  0  0  0  0  0  0  0
   -3.5517   10.3138   -7.8050 C   0  0  0  0  0  0  0  0  0  0  0  0
   -3.4444   11.5886   -7.2367 C   0  0  0  0  0  0  0  0  0  0  0  0
   -4.5954   12.3038   -6.9144 C   0  0  0  0  0  0  0  0  0  0  0  0
   -5.8508   11.7543   -7.1602 C   0  0  0  0  0  0  0  0  0  0  0  0
   -2.1010   12.1799   -6.9735 C   0  0  0  0  0  0  0  0  0  0  0  0
   -1.7694   13.4361   -6.4722 C   0  0  0  0  0  0  0  0  0  0  0  0
   -0.4342   13.4933   -6.4118 N   0  0  0  0  0  0  0  0  0  0  0  0
    0.1686   12.4094   -6.8087 N   0  0  0  0  0  0  0  0  0  0  0  0
   -0.8030   11.5907   -7.1765 C   0  0  0  0  0  0  0  0  0  0  0  0
    0.3824   14.6122   -5.9578 C   0  0  0  0  0  0  0  0  0  0  0  0
   -3.5015   14.9079  -11.6138 C   0  0  0  0  0  0  0  0  0  0  0  0
   -2.1980   14.4648  -10.9240 C   0  0  0  0  0  0  0  0  0  0  0  0
   -2.2178   12.9422  -10.9897 C   0  0  0  0  0  0  0  0  0  0  0  0
   -3.7152   12.5763  -10.8194 C   0  0  0  0  0  0  0  0  0  0  0  0
   -6.0752   12.2832   -9.8672 H   0  0  0  0  0  0  0  0  0  0  0  0
   -8.1926   10.1227  -13.8931 H   0  0  0  0  0  0  0  0  0  0  0  0
   -6.9001   12.2523  -14.0842 H   0  0  0  0  0  0  0  0  0  0  0  0
   -6.3199   10.0365  -10.7528 H   0  0  0  0  0  0  0  0  0  0  0  0
   -8.6350    7.9714   -9.4461 H   0  0  0  0  0  0  0  0  0  0  0  0
   -8.0373    9.5969   -7.2560 H   0  0  0  0  0  0  0  0  0  0  0  0
   -4.8913    8.7824   -8.4959 H   0  0  0  0  0  0  0  0  0  0  0  0
   -2.6604    9.7552   -8.0499 H   0  0  0  0  0  0  0  0  0  0  0  0
   -4.5139   13.2862   -6.4731 H   0  0  0  0  0  0  0  0  0  0  0  0
   -6.7415   12.3096   -6.9059 H   0  0  0  0  0  0  0  0  0  0  0  0
   -2.4594   14.2163   -6.1864 H   0  0  0  0  0  0  0  0  0  0  0  0
   -0.6424   10.6017   -7.5796 H   0  0  0  0  0  0  0  0  0  0  0  0
    1.4465   14.3426   -6.0284 H   0  0  0  0  0  0  0  0  0  0  0  0
    0.1842   15.4907   -6.5894 H   0  0  0  0  0  0  0  0  0  0  0  0
    0.1326   14.8481   -4.9128 H   0  0  0  0  0  0  0  0  0  0  0  0
   -3.3223   15.1673  -12.6676 H   0  0  0  0  0  0  0  0  0  0  0  0
   -3.9499   15.7683  -11.0955 H   0  0  0  0  0  0  0  0  0  0  0  0
   -1.3227   14.8639  -11.4575 H   0  0  0  0  0  0  0  0  0  0  0  0
   -2.1776   14.8069   -9.8787 H   0  0  0  0  0  0  0  0  0  0  0  0
   -1.8370   12.5881  -11.9590 H   0  0  0  0  0  0  0  0  0  0  0  0
   -1.6150   12.5084  -10.1783 H   0  0  0  0  0  0  0  0  0  0  0  0
   -4.0015   12.5244   -9.7586 H   0  0  0  0  0  0  0  0  0  0  0  0
   -3.9579   11.6231  -11.3118 H   0  0  0  0  0  0  0  0  0  0  0  0
  1  2  2  0  0  0  0
  1  4  1  0  0  0  0
  1 12  1  0  0  0  0
  2  6  1  0  0  0  0
  3  4  2  0  0  0  0
  3  5  1  0  0  0  0
  5  6  1  0  0  0  0
  5  9  2  0  0  0  0
  6  7  1  0  0  0  0
  7  8  1  0  0  0  0
  7 10  2  3  0  0  0
  8  9  1  0  0  0  0
 10 14  1  0  0  0  0
 11 12  1  0  0  0  0
 11 26  1  0  0  0  0
 11 29  1  0  0  0  0
 12 13  2  0  0  0  0
 14 15  2  0  0  0  0
 14 19  1  0  0  0  0
 15 16  1  0  0  0  0
 16 17  2  0  0  0  0
 17 18  1  0  0  0  0
 17 20  1  0  0  0  0
 18 19  2  0  0  0  0
 20 21  2  0  0  0  0
 20 24  1  0  0  0  0
 21 22  1  0  0  0  0
 22 23  1  0  0  0  0
 22 25  1  0  0  0  0
 23 24  2  0  0  0  0
 26 27  1  0  0  0  0
 27 28  1  0  0  0  0
 28 29  1  0  0  0  0
  2 30  1  0  0  0  0
  3 31  1  0  0  0  0
  4 32  1  0  0  0  0
  6 33  1  0  0  0  0
  8 34  1  0  0  0  0
 10 35  1  0  0  0  0
 15 36  1  0  0  0  0
 16 37  1  0  0  0  0
 18 38  1  0  0  0  0
 19 39  1  0  0  0  0
 21 40  1  0  0  0  0
 24 41  1  0  0  0  0
 25 42  1  0  0  0  0
 25 43  1  0  0  0  0
 25 44  1  0  0  0  0
 26 45  1  0  0  0  0
 26 46  1  0  0  0  0
 27 47  1  0  0  0  0
 27 48  1  0  0  0  0
 28 49  1  0  0  0  0
 28 50  1  0  0  0  0
 29 51  1  0  0  0  0
 29 52  1  0  0  0  0
M  END
> <Name>
37

> <IC50[uM]>
0.004

$$$$
37
  -OEChem-05192314333D
 Structure written by MMmdl.
 52 56  0     1  0  0  0  0  0999 V2000
   -6.3714   12.3591  -12.0053 C   0  0  0  0  0  0  0  0  0  0  0  0
   -6.5147   11.8055  -10.7304 C   0  0  0  0  0  0  0  0  0  0  0  0
   -7.7273   10.5756  -13.0301 C   0  0  0  0  0  0  0  0  0  0  0  0
   -6.9920   11.7699  -13.1223 C   0  0  0  0  0  0  0  0  0  0  0  0
   -7.8210   10.0087  -11.7569 C   0  0  0  0  0  0  0  0  0  0  0  0
   -7.2407   10.6185  -10.5997 C   0  0  0  0  0  0  0  0  0  0  0  0
   -7.6132    9.7471   -9.5123 C   0  0  0  0  0  0  0  0  0  0  0  0
   -8.2794    8.7320   -9.9893 N   0  0  0  0  0  0  0  0  0  0  0  0
   -8.4144    8.8594  -11.3005 N   0  0  0  0  0  0  0  0  0  0  0  0
   -7.3370    9.8875   -8.0251 C   0  0  0  0  0  0  0  0  0  0  0  0
   -4.3570   13.7205  -11.5014 N   0  0  0  0  0  0  0  0  0  0  0  0
   -5.5485   13.6383  -12.1900 C   0  0  0  0  0  0  0  0  0  0  0  0
   -5.9462   14.5274  -12.9449 O   0  0  0  0  0  0  0  0  0  0  0  0
   -5.9602   10.4847   -7.7357 C   0  0  0  0  0  0  0  0  0  0  0  0
   -4.8090    9.7649   -8.0550 C   0  0  0  0  0  0  0  0  0  0  0  0
   -3.5517   10.3138   -7.8050 C   0  0  0  0  0  0  0  0  0  0  0  0
   -3.4444   11.5886   -7.2367 C   0  0  0  0  0  0  0  0  0  0  0  0
   -4.5954   12.3038   -6.9144 C   0  0  0  0  0  0  0  0  0  0  0  0
   -5.8508   11.7543   -7.1602 C   0  0  0  0  0  0  0  0  0  0  0  0
   -2.1010   12.1799   -6.9735 C   0  0  0  0  0  0  0  0  0  0  0  0
   -1.7694   13.4361   -6.4722 C   0  0  0  0  0  0  0  0  0  0  0  0
   -0.4342   13.4933   -6.4118 N   0  0  3  0  0  0  0  0  0  0  0  0
    0.1686   12.4094   -6.8087 N   0  0  0  0  0  0  0  0  0  0  0  0
   -0.8030   11.5907   -7.1765 C   0  0  0  0  0  0  0  0  0  0  0  0
    0.3824   14.6122   -5.9578 C   0  0  0  0  0  0  0  0  0  0  0  0
   -3.5015   14.9079  -11.6138 C   0  0  0  0  0  0  0  0  0  0  0  0
   -2.1980   14.4648  -10.9240 C   0  0  0  0  0  0  0  0  0  0  0  0
   -2.2178   12.9422  -10.9897 C   0  0  0  0  0  0  0  0  0  0  0  0
   -3.7152   12.5763  -10.8194 C   0  0  0  0  0  0  0  0  0  0  0  0
   -6.0752   12.2832   -9.8672 H   0  0  0  0  0  0  0  0  0  0  0  0
   -8.1926   10.1227  -13.8931 H   0  0  0  0  0  0  0  0  0  0  0  0
   -6.9001   12.2523  -14.0842 H   0  0  0  0  0  0  0  0  0  0  0  0
   -8.0373    9.5969   -7.2560 H   0  0  0  0  0  0  0  0  0  0  0  0
   -5.9705   10.0290   -6.7346 H   0  0  0  0  0  0  0  0  0  0  0  0
   -4.8913    8.7824   -8.4959 H   0  0  0  0  0  0  0  0  0  0  0  0
   -2.6604    9.7552   -8.0499 H   0  0  0  0  0  0  0  0  0  0  0  0
   -4.5139   13.2862   -6.4731 H   0  0  0  0  0  0  0  0  0  0  0  0
   -6.7415   12.3096   -6.9059 H   0  0  0  0  0  0  0  0  0  0  0  0
   -2.1513   14.2222   -7.1401 H   0  0  0  0  0  0  0  0  0  0  0  0
   -2.1989   13.5675   -5.4681 H   0  0  0  0  0  0  0  0  0  0  0  0
   -0.6424   10.6017   -7.5796 H   0  0  0  0  0  0  0  0  0  0  0  0
    1.4465   14.3426   -6.0284 H   0  0  0  0  0  0  0  0  0  0  0  0
    0.1842   15.4907   -6.5894 H   0  0  0  0  0  0  0  0  0  0  0  0
    0.1326   14.8481   -4.9128 H   0  0  0  0  0  0  0  0  0  0  0  0
   -3.3223   15.1673  -12.6676 H   0  0  0  0  0  0  0  0  0  0  0  0
   -3.9499   15.7683  -11.0955 H   0  0  0  0  0  0  0  0  0  0  0  0
   -1.3227   14.8639  -11.4575 H   0  0  0  0  0  0  0  0  0  0  0  0
   -2.1776   14.8069   -9.8787 H   0  0  0  0  0  0  0  0  0  0  0  0
   -1.8370   12.5881  -11.9590 H   0  0  0  0  0  0  0  0  0  0  0  0
   -1.6150   12.5084  -10.1783 H   0  0  0  0  0  0  0  0  0  0  0  0
   -4.0015   12.5244   -9.7586 H   0  0  0  0  0  0  0  0  0  0  0  0
   -3.9579   11.6231  -11.3118 H   0  0  0  0  0  0  0  0  0  0  0  0
  1  2  2  0  0  0  0
  1  4  1  0  0  0  0
  1 12  1  0  0  0  0
  2  6  1  0  0  0  0
  3  4  2  0  0  0  0
  3  5  1  0  0  0  0
  5  6  2  0  0  0  0
  5  9  1  0  0  0  0
  6  7  1  0  0  0  0
  7  8  1  0  0  0  0
  7 10  2  3  0  0  0
  8  9  2  0  0  0  0
 10 14  1  0  0  0  0
 11 12  1  0  0  0  0
 11 26  1  0  0  0  0
 11 29  1  0  0  0  0
 12 13  2  0  0  0  0
 14 15  1  0  0  0  0
 14 19  1  0  0  0  0
 15 16  2  0  0  0  0
 16 17  1  0  0  0  0
 17 18  1  0  0  0  0
 17 20  2  0  0  0  0
 18 19  2  0  0  0  0
 20 21  1  0  0  0  0
 20 24  1  0  0  0  0
 21 22  1  0  0  0  0
 22 23  1  0  0  0  0
 22 25  1  0  0  0  0
 23 24  2  0  0  0  0
 26 27  1  0  0  0  0
 27 28  1  0  0  0  0
 28 29  1  0  0  0  0
  2 30  1  0  0  0  0
  3 31  1  0  0  0  0
  4 32  1  0  0  0  0
 10 33  1  0  0  0  0
 14 34  1  0  0  0  0
 15 35  1  0  0  0  0
 16 36  1  0  0  0  0
 18 37  1  0  0  0  0
 19 38  1  0  0  0  0
 21 39  1  0  0  0  0
 21 40  1  0  0  0  0
 24 41  1  0  0  0  0
 25 42  1  0  0  0  0
 25 43  1  0  0  0  0
 25 44  1  0  0  0  0
 26 45  1  0  0  0  0
 26 46  1  0  0  0  0
 27 47  1  0  0  0  0
 27 48  1  0  0  0  0
 28 49  1  0  0  0  0
 28 50  1  0  0  0  0
 29 51  1  0  0  0  0
 29 52  1  0  0  0  0
M  END
> <Name>
37

> <IC50[uM]>
0.004

$$$$
37
  -OEChem-05192314333D
 Structure written by MMmdl.
 52 56  0     1  0  0  0  0  0999 V2000
   -6.3714   12.3591  -12.0053 C   0  0  0  0  0  0  0  0  0  0  0  0
   -6.5147   11.8055  -10.7304 C   0  0  0  0  0  0  0  0  0  0  0  0
   -7.7273   10.5756  -13.0301 C   0  0  0  0  0  0  0  0  0  0  0  0
   -6.9920   11.7699  -13.1223 C   0  0  0  0  0  0  0  0  0  0  0  0
   -7.8210   10.0087  -11.7569 C   0  0  0  0  0  0  0  0  0  0  0  0
   -7.2407   10.6185  -10.5997 C   0  0  0  0  0  0  0  0  0  0  0  0
   -7.6132    9.7471   -9.5123 C   0  0  0  0  0  0  0  0  0  0  0  0
   -8.2794    8.7320   -9.9893 N   0  0  0  0  0  0  0  0  0  0  0  0
   -8.4144    8.8594  -11.3005 N   0  0  0  0  0  0  0  0  0  0  0  0
   -7.3370    9.8875   -8.0251 C   0  0  0  0  0  0  0  0  0  0  0  0
   -4.3570   13.7205  -11.5014 N   0  0  0  0  0  0  0  0  0  0  0  0
   -5.5485   13.6383  -12.1900 C   0  0  0  0  0  0  0  0  0  0  0  0
   -5.9462   14.5274  -12.9449 O   0  0  0  0  0  0  0  0  0  0  0  0
   -5.9602   10.4847   -7.7357 C   0  0  0  0  0  0  0  0  0  0  0  0
   -4.8090    9.7649   -8.0550 C   0  0  0  0  0  0  0  0  0  0  0  0
   -3.5517   10.3138   -7.8050 C   0  0  0  0  0  0  0  0  0  0  0  0
   -3.4444   11.5886   -7.2367 C   0  0  0  0  0  0  0  0  0  0  0  0
   -4.5954   12.3038   -6.9144 C   0  0  0  0  0  0  0  0  0  0  0  0
   -5.8508   11.7543   -7.1602 C   0  0  0  0  0  0  0  0  0  0  0  0
   -2.1010   12.1799   -6.9735 C   0  0  0  0  0  0  0  0  0  0  0  0
   -1.7694   13.4361   -6.4722 C   0  0  0  0  0  0  0  0  0  0  0  0
   -0.4342   13.4933   -6.4118 N   0  0  3  0  0  0  0  0  0  0  0  0
    0.1686   12.4094   -6.8087 N   0  0  0  0  0  0  0  0  0  0  0  0
   -0.8030   11.5907   -7.1765 C   0  0  0  0  0  0  0  0  0  0  0  0
    0.3824   14.6122   -5.9578 C   0  0  0  0  0  0  0  0  0  0  0  0
   -3.5015   14.9079  -11.6138 C   0  0  0  0  0  0  0  0  0  0  0  0
   -2.1980   14.4648  -10.9240 C   0  0  0  0  0  0  0  0  0  0  0  0
   -2.2178   12.9422  -10.9897 C   0  0  0  0  0  0  0  0  0  0  0  0
   -3.7152   12.5763  -10.8194 C   0  0  0  0  0  0  0  0  0  0  0  0
   -6.0752   12.2832   -9.8672 H   0  0  0  0  0  0  0  0  0  0  0  0
   -8.1926   10.1227  -13.8931 H   0  0  0  0  0  0  0  0  0  0  0  0
   -6.9001   12.2523  -14.0842 H   0  0  0  0  0  0  0  0  0  0  0  0
   -8.0373    9.5969   -7.2560 H   0  0  0  0  0  0  0  0  0  0  0  0
   -4.8913    8.7824   -8.4959 H   0  0  0  0  0  0  0  0  0  0  0  0
   -3.0312    9.6199   -7.1286 H   0  0  0  0  0  0  0  0  0  0  0  0
   -3.0240   10.3508   -8.7695 H   0  0  0  0  0  0  0  0  0  0  0  0
   -4.5139   13.2862   -6.4731 H   0  0  0  0  0  0  0  0  0  0  0  0
   -6.7415   12.3096   -6.9059 H   0  0  0  0  0  0  0  0  0  0  0  0
   -2.1513   14.2222   -7.1401 H   0  0  0  0  0  0  0  0  0  0  0  0
   -2.1989   13.5675   -5.4681 H   0  0  0  0  0  0  0  0  0  0  0  0
   -0.6424   10.6017   -7.5796 H   0  0  0  0  0  0  0  0  0  0  0  0
    1.4465   14.3426   -6.0284 H   0  0  0  0  0  0  0  0  0  0  0  0
    0.1842   15.4907   -6.5894 H   0  0  0  0  0  0  0  0  0  0  0  0
    0.1326   14.8481   -4.9128 H   0  0  0  0  0  0  0  0  0  0  0  0
   -3.3223   15.1673  -12.6676 H   0  0  0  0  0  0  0  0  0  0  0  0
   -3.9499   15.7683  -11.0955 H   0  0  0  0  0  0  0  0  0  0  0  0
   -1.3227   14.8639  -11.4575 H   0  0  0  0  0  0  0  0  0  0  0  0
   -2.1776   14.8069   -9.8787 H   0  0  0  0  0  0  0  0  0  0  0  0
   -1.8370   12.5881  -11.9590 H   0  0  0  0  0  0  0  0  0  0  0  0
   -1.6150   12.5084  -10.1783 H   0  0  0  0  0  0  0  0  0  0  0  0
   -4.0015   12.5244   -9.7586 H   0  0  0  0  0  0  0  0  0  0  0  0
   -3.9579   11.6231  -11.3118 H   0  0  0  0  0  0  0  0  0  0  0  0
  1  2  2  0  0  0  0
  1  4  1  0  0  0  0
  1 12  1  0  0  0  0
  2  6  1  0  0  0  0
  3  4  2  0  0  0  0
  3  5  1  0  0  0  0
  5  6  2  0  0  0  0
  5  9  1  0  0  0  0
  6  7  1  0  0  0  0
  7  8  1  0  0  0  0
  7 10  2  3  0  0  0
  8  9  2  0  0  0  0
 10 14  1  0  0  0  0
 11 12  1  0  0  0  0
 11 26  1  0  0  0  0
 11 29  1  0  0  0  0
 12 13  2  0  0  0  0
 14 15  2  0  0  0  0
 14 19  1  0  0  0  0
 15 16  1  0  0  0  0
 16 17  1  0  0  0  0
 17 18  1  0  0  0  0
 17 20  2  0  0  0  0
 18 19  2  0  0  0  0
 20 21  1  0  0  0  0
 20 24  1  0  0  0  0
 21 22  1  0  0  0  0
 22 23  1  0  0  0  0
 22 25  1  0  0  0  0
 23 24  2  0  0  0  0
 26 27  1  0  0  0  0
 27 28  1  0  0  0  0
 28 29  1  0  0  0  0
  2 30  1  0  0  0  0
  3 31  1  0  0  0  0
  4 32  1  0  0  0  0
 10 33  1  0  0  0  0
 15 34  1  0  0  0  0
 16 35  1  0  0  0  0
 16 36  1  0  0  0  0
 18 37  1  0  0  0  0
 19 38  1  0  0  0  0
 21 39  1  0  0  0  0
 21 40  1  0  0  0  0
 24 41  1  0  0  0  0
 25 42  1  0  0  0  0
 25 43  1  0  0  0  0
 25 44  1  0  0  0  0
 26 45  1  0  0  0  0
 26 46  1  0  0  0  0
 27 47  1  0  0  0  0
 27 48  1  0  0  0  0
 28 49  1  0  0  0  0
 28 50  1  0  0  0  0
 29 51  1  0  0  0  0
 29 52  1  0  0  0  0
M  END
> <Name>
37

> <IC50[uM]>
0.004

$$$$
37
  -OEChem-05192314333D
 Structure written by MMmdl.
 52 56  0     1  0  0  0  0  0999 V2000
   -6.3714   12.3591  -12.0053 C   0  0  3  0  0  0  0  0  0  0  0  0
   -6.5147   11.8055  -10.7304 C   0  0  0  0  0  0  0  0  0  0  0  0
   -7.7273   10.5756  -13.0301 C   0  0  0  0  0  0  0  0  0  0  0  0
   -6.9920   11.7699  -13.1223 C   0  0  0  0  0  0  0  0  0  0  0  0
   -7.8210   10.0087  -11.7569 C   0  0  0  0  0  0  0  0  0  0  0  0
   -7.2407   10.6185  -10.5997 C   0  0  0  0  0  0  0  0  0  0  0  0
   -7.6132    9.7471   -9.5123 C   0  0  0  0  0  0  0  0  0  0  0  0
   -8.2794    8.7320   -9.9893 N   0  0  0  0  0  0  0  0  0  0  0  0
   -8.4144    8.8594  -11.3005 N   0  0  0  0  0  0  0  0  0  0  0  0
   -7.3370    9.8875   -8.0251 C   0  0  0  0  0  0  0  0  0  0  0  0
   -4.3570   13.7205  -11.5014 N   0  0  0  0  0  0  0  0  0  0  0  0
   -5.5485   13.6383  -12.1900 C   0  0  0  0  0  0  0  0  0  0  0  0
   -5.9462   14.5274  -12.9449 O   0  0  0  0  0  0  0  0  0  0  0  0
   -5.9602   10.4847   -7.7357 C   0  0  0  0  0  0  0  0  0  0  0  0
   -4.8090    9.7649   -8.0550 C   0  0  0  0  0  0  0  0  0  0  0  0
   -3.5517   10.3138   -7.8050 C   0  0  0  0  0  0  0  0  0  0  0  0
   -3.4444   11.5886   -7.2367 C   0  0  0  0  0  0  0  0  0  0  0  0
   -4.5954   12.3038   -6.9144 C   0  0  0  0  0  0  0  0  0  0  0  0
   -5.8508   11.7543   -7.1602 C   0  0  0  0  0  0  0  0  0  0  0  0
   -2.1010   12.1799   -6.9735 C   0  0  0  0  0  0  0  0  0  0  0  0
   -1.7694   13.4361   -6.4722 C   0  0  0  0  0  0  0  0  0  0  0  0
   -0.4342   13.4933   -6.4118 N   0  0  3  0  0  0  0  0  0  0  0  0
    0.1686   12.4094   -6.8087 N   0  0  0  0  0  0  0  0  0  0  0  0
   -0.8030   11.5907   -7.1765 C   0  0  0  0  0  0  0  0  0  0  0  0
    0.3824   14.6122   -5.9578 C   0  0  0  0  0  0  0  0  0  0  0  0
   -3.5015   14.9079  -11.6138 C   0  0  0  0  0  0  0  0  0  0  0  0
   -2.1980   14.4648  -10.9240 C   0  0  0  0  0  0  0  0  0  0  0  0
   -2.2178   12.9422  -10.9897 C   0  0  0  0  0  0  0  0  0  0  0  0
   -3.7152   12.5763  -10.8194 C   0  0  0  0  0  0  0  0  0  0  0  0
   -5.4719   11.7492  -12.1757 H   0  0  0  0  0  0  0  0  0  0  0  0
   -6.0752   12.2832   -9.8672 H   0  0  0  0  0  0  0  0  0  0  0  0
   -8.1926   10.1227  -13.8931 H   0  0  0  0  0  0  0  0  0  0  0  0
   -6.9001   12.2523  -14.0842 H   0  0  0  0  0  0  0  0  0  0  0  0
   -8.0373    9.5969   -7.2560 H   0  0  0  0  0  0  0  0  0  0  0  0
   -4.8913    8.7824   -8.4959 H   0  0  0  0  0  0  0  0  0  0  0  0
   -2.6604    9.7552   -8.0499 H   0  0  0  0  0  0  0  0  0  0  0  0
   -4.5139   13.2862   -6.4731 H   0  0  0  0  0  0  0  0  0  0  0  0
   -6.7415   12.3096   -6.9059 H   0  0  0  0  0  0  0  0  0  0  0  0
   -2.1513   14.2222   -7.1401 H   0  0  0  0  0  0  0  0  0  0  0  0
   -2.1989   13.5675   -5.4681 H   0  0  0  0  0  0  0  0  0  0  0  0
   -0.6424   10.6017   -7.5796 H   0  0  0  0  0  0  0  0  0  0  0  0
    1.4465   14.3426   -6.0284 H   0  0  0  0  0  0  0  0  0  0  0  0
    0.1842   15.4907   -6.5894 H   0  0  0  0  0  0  0  0  0  0  0  0
    0.1326   14.8481   -4.9128 H   0  0  0  0  0  0  0  0  0  0  0  0
   -3.3223   15.1673  -12.6676 H   0  0  0  0  0  0  0  0  0  0  0  0
   -3.9499   15.7683  -11.0955 H   0  0  0  0  0  0  0  0  0  0  0  0
   -1.3227   14.8639  -11.4575 H   0  0  0  0  0  0  0  0  0  0  0  0
   -2.1776   14.8069   -9.8787 H   0  0  0  0  0  0  0  0  0  0  0  0
   -1.8370   12.5881  -11.9590 H   0  0  0  0  0  0  0  0  0  0  0  0
   -1.6150   12.5084  -10.1783 H   0  0  0  0  0  0  0  0  0  0  0  0
   -4.0015   12.5244   -9.7586 H   0  0  0  0  0  0  0  0  0  0  0  0
   -3.9579   11.6231  -11.3118 H   0  0  0  0  0  0  0  0  0  0  0  0
  1  2  1  0  0  0  0
  1  4  1  0  0  0  0
  1 12  1  0  0  0  0
  2  6  2  0  0  0  0
  3  4  2  0  0  0  0
  3  5  1  0  0  0  0
  5  6  1  0  0  0  0
  5  9  2  0  0  0  0
  6  7  1  0  0  0  0
  7  8  2  0  0  0  0
  7 10  1  0  0  0  0
  8  9  1  0  0  0  0
 10 14  2  0  0  0  0
 11 12  1  0  0  0  0
 11 26  1  0  0  0  0
 11 29  1  0  0  0  0
 12 13  2  0  0  0  0
 14 15  1  0  0  0  0
 14 19  1  0  0  0  0
 15 16  2  0  0  0  0
 16 17  1  0  0  0  0
 17 18  1  0  0  0  0
 17 20  2  0  0  0  0
 18 19  2  0  0  0  0
 20 21  1  0  0  0  0
 20 24  1  0  0  0  0
 21 22  1  0  0  0  0
 22 23  1  0  0  0  0
 22 25  1  0  0  0  0
 23 24  2  0  0  0  0
 26 27  1  0  0  0  0
 27 28  1  0  0  0  0
 28 29  1  0  0  0  0
  1 30  1  0  0  0  0
  2 31  1  0  0  0  0
  3 32  1  0  0  0  0
  4 33  1  0  0  0  0
 10 34  1  0  0  0  0
 15 35  1  0  0  0  0
 16 36  1  0  0  0  0
 18 37  1  0  0  0  0
 19 38  1  0  0  0  0
 21 39  1  0  0  0  0
 21 40  1  0  0  0  0
 24 41  1  0  0  0  0
 25 42  1  0  0  0  0
 25 43  1  0  0  0  0
 25 44  1  0  0  0  0
 26 45  1  0  0  0  0
 26 46  1  0  0  0  0
 27 47  1  0  0  0  0
 27 48  1  0  0  0  0
 28 49  1  0  0  0  0
 28 50  1  0  0  0  0
 29 51  1  0  0  0  0
 29 52  1  0  0  0  0
M  END
> <Name>
37

> <IC50[uM]>
0.004

$$$$
37
  -OEChem-05192314333D
 Structure written by MMmdl.
 52 56  0     1  0  0  0  0  0999 V2000
   -6.3714   12.3591  -12.0053 C   0  0  0  0  0  0  0  0  0  0  0  0
   -6.5147   11.8055  -10.7304 C   0  0  0  0  0  0  0  0  0  0  0  0
   -7.7273   10.5756  -13.0301 C   0  0  0  0  0  0  0  0  0  0  0  0
   -6.9920   11.7699  -13.1223 C   0  0  0  0  0  0  0  0  0  0  0  0
   -7.8210   10.0087  -11.7569 C   0  0  0  0  0  0  0  0  0  0  0  0
   -7.2407   10.6185  -10.5997 C   0  0  3  0  0  0  0  0  0  0  0  0
   -7.6132    9.7471   -9.5123 C   0  0  0  0  0  0  0  0  0  0  0  0
   -8.2794    8.7320   -9.9893 N   0  0  0  0  0  0  0  0  0  0  0  0
   -8.4144    8.8594  -11.3005 N   0  0  0  0  0  0  0  0  0  0  0  0
   -7.3370    9.8875   -8.0251 C   0  0  0  0  0  0  0  0  0  0  0  0
   -4.3570   13.7205  -11.5014 N   0  0  0  0  0  0  0  0  0  0  0  0
   -5.5485   13.6383  -12.1900 C   0  0  0  0  0  0  0  0  0  0  0  0
   -5.9462   14.5274  -12.9449 O   0  0  0  0  0  0  0  0  0  0  0  0
   -5.9602   10.4847   -7.7357 C   0  0  0  0  0  0  0  0  0  0  0  0
   -4.8090    9.7649   -8.0550 C   0  0  0  0  0  0  0  0  0  0  0  0
   -3.5517   10.3138   -7.8050 C   0  0  0  0  0  0  0  0  0  0  0  0
   -3.4444   11.5886   -7.2367 C   0  0  0  0  0  0  0  0  0  0  0  0
   -4.5954   12.3038   -6.9144 C   0  0  0  0  0  0  0  0  0  0  0  0
   -5.8508   11.7543   -7.1602 C   0  0  0  0  0  0  0  0  0  0  0  0
   -2.1010   12.1799   -6.9735 C   0  0  0  0  0  0  0  0  0  0  0  0
   -1.7694   13.4361   -6.4722 C   0  0  0  0  0  0  0  0  0  0  0  0
   -0.4342   13.4933   -6.4118 N   0  0  3  0  0  0  0  0  0  0  0  0
    0.1686   12.4094   -6.8087 N   0  0  0  0  0  0  0  0  0  0  0  0
   -0.8030   11.5907   -7.1765 C   0  0  0  0  0  0  0  0  0  0  0  0
    0.3824   14.6122   -5.9578 C   0  0  0  0  0  0  0  0  0  0  0  0
   -3.5015   14.9079  -11.6138 C   0  0  0  0  0  0  0  0  0  0  0  0
   -2.1980   14.4648  -10.9240 C   0  0  0  0  0  0  0  0  0  0  0  0
   -2.2178   12.9422  -10.9897 C   0  0  0  0  0  0  0  0  0  0  0  0
   -3.7152   12.5763  -10.8194 C   0  0  0  0  0  0  0  0  0  0  0  0
   -6.0752   12.2832   -9.8672 H   0  0  0  0  0  0  0  0  0  0  0  0
   -8.1926   10.1227  -13.8931 H   0  0  0  0  0  0  0  0  0  0  0  0
   -6.9001   12.2523  -14.0842 H   0  0  0  0  0  0  0  0  0  0  0  0
   -6.3199   10.0365  -10.7528 H   0  0  0  0  0  0  0  0  0  0  0  0
   -8.0373    9.5969   -7.2560 H   0  0  0  0  0  0  0  0  0  0  0  0
   -4.8913    8.7824   -8.4959 H   0  0  0  0  0  0  0  0  0  0  0  0
   -2.6604    9.7552   -8.0499 H   0  0  0  0  0  0  0  0  0  0  0  0
   -4.5139   13.2862   -6.4731 H   0  0  0  0  0  0  0  0  0  0  0  0
   -6.7415   12.3096   -6.9059 H   0  0  0  0  0  0  0  0  0  0  0  0
   -2.1513   14.2222   -7.1401 H   0  0  0  0  0  0  0  0  0  0  0  0
   -2.1989   13.5675   -5.4681 H   0  0  0  0  0  0  0  0  0  0  0  0
   -0.6424   10.6017   -7.5796 H   0  0  0  0  0  0  0  0  0  0  0  0
    1.4465   14.3426   -6.0284 H   0  0  0  0  0  0  0  0  0  0  0  0
    0.1842   15.4907   -6.5894 H   0  0  0  0  0  0  0  0  0  0  0  0
    0.1326   14.8481   -4.9128 H   0  0  0  0  0  0  0  0  0  0  0  0
   -3.3223   15.1673  -12.6676 H   0  0  0  0  0  0  0  0  0  0  0  0
   -3.9499   15.7683  -11.0955 H   0  0  0  0  0  0  0  0  0  0  0  0
   -1.3227   14.8639  -11.4575 H   0  0  0  0  0  0  0  0  0  0  0  0
   -2.1776   14.8069   -9.8787 H   0  0  0  0  0  0  0  0  0  0  0  0
   -1.8370   12.5881  -11.9590 H   0  0  0  0  0  0  0  0  0  0  0  0
   -1.6150   12.5084  -10.1783 H   0  0  0  0  0  0  0  0  0  0  0  0
   -4.0015   12.5244   -9.7586 H   0  0  0  0  0  0  0  0  0  0  0  0
   -3.9579   11.6231  -11.3118 H   0  0  0  0  0  0  0  0  0  0  0  0
  1  2  2  0  0  0  0
  1  4  1  0  0  0  0
  1 12  1  0  0  0  0
  2  6  1  0  0  0  0
  3  4  2  0  0  0  0
  3  5  1  0  0  0  0
  5  6  1  0  0  0  0
  5  9  2  0  0  0  0
  6  7  1  0  0  0  0
  7  8  2  0  0  0  0
  7 10  1  0  0  0  0
  8  9  1  0  0  0  0
 10 14  2  0  0  0  0
 11 12  1  0  0  0  0
 11 26  1  0  0  0  0
 11 29  1  0  0  0  0
 12 13  2  0  0  0  0
 14 15  1  0  0  0  0
 14 19  1  0  0  0  0
 15 16  2  0  0  0  0
 16 17  1  0  0  0  0
 17 18  1  0  0  0  0
 17 20  2  0  0  0  0
 18 19  2  0  0  0  0
 20 21  1  0  0  0  0
 20 24  1  0  0  0  0
 21 22  1  0  0  0  0
 22 23  1  0  0  0  0
 22 25  1  0  0  0  0
 23 24  2  0  0  0  0
 26 27  1  0  0  0  0
 27 28  1  0  0  0  0
 28 29  1  0  0  0  0
  2 30  1  0  0  0  0
  3 31  1  0  0  0  0
  4 32  1  0  0  0  0
  6 33  1  0  0  0  0
 10 34  1  0  0  0  0
 15 35  1  0  0  0  0
 16 36  1  0  0  0  0
 18 37  1  0  0  0  0
 19 38  1  0  0  0  0
 21 39  1  0  0  0  0
 21 40  1  0  0  0  0
 24 41  1  0  0  0  0
 25 42  1  0  0  0  0
 25 43  1  0  0  0  0
 25 44  1  0  0  0  0
 26 45  1  0  0  0  0
 26 46  1  0  0  0  0
 27 47  1  0  0  0  0
 27 48  1  0  0  0  0
 28 49  1  0  0  0  0
 28 50  1  0  0  0  0
 29 51  1  0  0  0  0
 29 52  1  0  0  0  0
M  END
> <Name>
37

> <IC50[uM]>
0.004

$$$$
37
  -OEChem-05192314333D
 Structure written by MMmdl.
 52 56  0     1  0  0  0  0  0999 V2000
   -6.3714   12.3591  -12.0053 C   0  0  0  0  0  0  0  0  0  0  0  0
   -6.5147   11.8055  -10.7304 C   0  0  0  0  0  0  0  0  0  0  0  0
   -7.7273   10.5756  -13.0301 C   0  0  0  0  0  0  0  0  0  0  0  0
   -6.9920   11.7699  -13.1223 C   0  0  0  0  0  0  0  0  0  0  0  0
   -7.8210   10.0087  -11.7569 C   0  0  0  0  0  0  0  0  0  0  0  0
   -7.2407   10.6185  -10.5997 C   0  0  0  0  0  0  0  0  0  0  0  0
   -7.6132    9.7471   -9.5123 C   0  0  0  0  0  0  0  0  0  0  0  0
   -8.2794    8.7320   -9.9893 N   0  0  0  0  0  0  0  0  0  0  0  0
   -8.4144    8.8594  -11.3005 N   0  0  0  0  0  0  0  0  0  0  0  0
   -7.3370    9.8875   -8.0251 C   0  0  0  0  0  0  0  0  0  0  0  0
   -4.3570   13.7205  -11.5014 N   0  0  0  0  0  0  0  0  0  0  0  0
   -5.5485   13.6383  -12.1900 C   0  0  0  0  0  0  0  0  0  0  0  0
   -5.9462   14.5274  -12.9449 O   0  0  0  0  0  0  0  0  0  0  0  0
   -5.9602   10.4847   -7.7357 C   0  0  0  0  0  0  0  0  0  0  0  0
   -4.8090    9.7649   -8.0550 C   0  0  0  0  0  0  0  0  0  0  0  0
   -3.5517   10.3138   -7.8050 C   0  0  0  0  0  0  0  0  0  0  0  0
   -3.4444   11.5886   -7.2367 C   0  0  0  0  0  0  0  0  0  0  0  0
   -4.5954   12.3038   -6.9144 C   0  0  0  0  0  0  0  0  0  0  0  0
   -5.8508   11.7543   -7.1602 C   0  0  0  0  0  0  0  0  0  0  0  0
   -2.1010   12.1799   -6.9735 C   0  0  0  0  0  0  0  0  0  0  0  0
   -1.7694   13.4361   -6.4722 C   0  0  0  0  0  0  0  0  0  0  0  0
   -0.4342   13.4933   -6.4118 N   0  0  3  0  0  0  0  0  0  0  0  0
    0.1686   12.4094   -6.8087 N   0  0  0  0  0  0  0  0  0  0  0  0
   -0.8030   11.5907   -7.1765 C   0  0  0  0  0  0  0  0  0  0  0  0
    0.3824   14.6122   -5.9578 C   0  0  0  0  0  0  0  0  0  0  0  0
   -3.5015   14.9079  -11.6138 C   0  0  0  0  0  0  0  0  0  0  0  0
   -2.1980   14.4648  -10.9240 C   0  0  0  0  0  0  0  0  0  0  0  0
   -2.2178   12.9422  -10.9897 C   0  0  0  0  0  0  0  0  0  0  0  0
   -3.7152   12.5763  -10.8194 C   0  0  0  0  0  0  0  0  0  0  0  0
   -6.0752   12.2832   -9.8672 H   0  0  0  0  0  0  0  0  0  0  0  0
   -8.7488   10.7817  -13.3823 H   0  0  0  0  0  0  0  0  0  0  0  0
   -7.2530    9.8368  -13.6929 H   0  0  0  0  0  0  0  0  0  0  0  0
   -6.9001   12.2523  -14.0842 H   0  0  0  0  0  0  0  0  0  0  0  0
   -8.0373    9.5969   -7.2560 H   0  0  0  0  0  0  0  0  0  0  0  0
   -4.8913    8.7824   -8.4959 H   0  0  0  0  0  0  0  0  0  0  0  0
   -2.6604    9.7552   -8.0499 H   0  0  0  0  0  0  0  0  0  0  0  0
   -4.5139   13.2862   -6.4731 H   0  0  0  0  0  0  0  0  0  0  0  0
   -6.7415   12.3096   -6.9059 H   0  0  0  0  0  0  0  0  0  0  0  0
   -2.1513   14.2222   -7.1401 H   0  0  0  0  0  0  0  0  0  0  0  0
   -2.1989   13.5675   -5.4681 H   0  0  0  0  0  0  0  0  0  0  0  0
   -0.6424   10.6017   -7.5796 H   0  0  0  0  0  0  0  0  0  0  0  0
    1.4465   14.3426   -6.0284 H   0  0  0  0  0  0  0  0  0  0  0  0
    0.1842   15.4907   -6.5894 H   0  0  0  0  0  0  0  0  0  0  0  0
    0.1326   14.8481   -4.9128 H   0  0  0  0  0  0  0  0  0  0  0  0
   -3.3223   15.1673  -12.6676 H   0  0  0  0  0  0  0  0  0  0  0  0
   -3.9499   15.7683  -11.0955 H   0  0  0  0  0  0  0  0  0  0  0  0
   -1.3227   14.8639  -11.4575 H   0  0  0  0  0  0  0  0  0  0  0  0
   -2.1776   14.8069   -9.8787 H   0  0  0  0  0  0  0  0  0  0  0  0
   -1.8370   12.5881  -11.9590 H   0  0  0  0  0  0  0  0  0  0  0  0
   -1.6150   12.5084  -10.1783 H   0  0  0  0  0  0  0  0  0  0  0  0
   -4.0015   12.5244   -9.7586 H   0  0  0  0  0  0  0  0  0  0  0  0
   -3.9579   11.6231  -11.3118 H   0  0  0  0  0  0  0  0  0  0  0  0
  1  2  1  0  0  0  0
  1  4  2  0  0  0  0
  1 12  1  0  0  0  0
  2  6  2  0  0  0  0
  3  4  1  0  0  0  0
  3  5  1  0  0  0  0
  5  6  1  0  0  0  0
  5  9  2  0  0  0  0
  6  7  1  0  0  0  0
  7  8  2  0  0  0  0
  7 10  1  0  0  0  0
  8  9  1  0  0  0  0
 10 14  2  0  0  0  0
 11 12  1  0  0  0  0
 11 26  1  0  0  0  0
 11 29  1  0  0  0  0
 12 13  2  0  0  0  0
 14 15  1  0  0  0  0
 14 19  1  0  0  0  0
 15 16  2  0  0  0  0
 16 17  1  0  0  0  0
 17 18  1  0  0  0  0
 17 20  2  0  0  0  0
 18 19  2  0  0  0  0
 20 21  1  0  0  0  0
 20 24  1  0  0  0  0
 21 22  1  0  0  0  0
 22 23  1  0  0  0  0
 22 25  1  0  0  0  0
 23 24  2  0  0  0  0
 26 27  1  0  0  0  0
 27 28  1  0  0  0  0
 28 29  1  0  0  0  0
  2 30  1  0  0  0  0
  3 31  1  0  0  0  0
  3 32  1  0  0  0  0
  4 33  1  0  0  0  0
 10 34  1  0  0  0  0
 15 35  1  0  0  0  0
 16 36  1  0  0  0  0
 18 37  1  0  0  0  0
 19 38  1  0  0  0  0
 21 39  1  0  0  0  0
 21 40  1  0  0  0  0
 24 41  1  0  0  0  0
 25 42  1  0  0  0  0
 25 43  1  0  0  0  0
 25 44  1  0  0  0  0
 26 45  1  0  0  0  0
 26 46  1  0  0  0  0
 27 47  1  0  0  0  0
 27 48  1  0  0  0  0
 28 49  1  0  0  0  0
 28 50  1  0  0  0  0
 29 51  1  0  0  0  0
 29 52  1  0  0  0  0
M  END
> <Name>
37

> <IC50[uM]>
0.004

$$$$
37
  -OEChem-05192314333D
 Structure written by MMmdl.
 52 56  0     1  0  0  0  0  0999 V2000
   -6.3714   12.3591  -12.0053 C   0  0  0  0  0  0  0  0  0  0  0  0
   -6.5147   11.8055  -10.7304 C   0  0  0  0  0  0  0  0  0  0  0  0
   -7.7273   10.5756  -13.0301 C   0  0  0  0  0  0  0  0  0  0  0  0
   -6.9920   11.7699  -13.1223 C   0  0  0  0  0  0  0  0  0  0  0  0
   -7.8210   10.0087  -11.7569 C   0  0  3  0  0  0  0  0  0  0  0  0
   -7.2407   10.6185  -10.5997 C   0  0  0  0  0  0  0  0  0  0  0  0
   -7.6132    9.7471   -9.5123 C   0  0  0  0  0  0  0  0  0  0  0  0
   -8.2794    8.7320   -9.9893 N   0  0  0  0  0  0  0  0  0  0  0  0
   -8.4144    8.8594  -11.3005 N   0  0  0  0  0  0  0  0  0  0  0  0
   -7.3370    9.8875   -8.0251 C   0  0  0  0  0  0  0  0  0  0  0  0
   -4.3570   13.7205  -11.5014 N   0  0  0  0  0  0  0  0  0  0  0  0
   -5.5485   13.6383  -12.1900 C   0  0  0  0  0  0  0  0  0  0  0  0
   -5.9462   14.5274  -12.9449 O   0  0  0  0  0  0  0  0  0  0  0  0
   -5.9602   10.4847   -7.7357 C   0  0  0  0  0  0  0  0  0  0  0  0
   -4.8090    9.7649   -8.0550 C   0  0  0  0  0  0  0  0  0  0  0  0
   -3.5517   10.3138   -7.8050 C   0  0  0  0  0  0  0  0  0  0  0  0
   -3.4444   11.5886   -7.2367 C   0  0  0  0  0  0  0  0  0  0  0  0
   -4.5954   12.3038   -6.9144 C   0  0  0  0  0  0  0  0  0  0  0  0
   -5.8508   11.7543   -7.1602 C   0  0  0  0  0  0  0  0  0  0  0  0
   -2.1010   12.1799   -6.9735 C   0  0  0  0  0  0  0  0  0  0  0  0
   -1.7694   13.4361   -6.4722 C   0  0  0  0  0  0  0  0  0  0  0  0
   -0.4342   13.4933   -6.4118 N   0  0  3  0  0  0  0  0  0  0  0  0
    0.1686   12.4094   -6.8087 N   0  0  0  0  0  0  0  0  0  0  0  0
   -0.8030   11.5907   -7.1765 C   0  0  0  0  0  0  0  0  0  0  0  0
    0.3824   14.6122   -5.9578 C   0  0  0  0  0  0  0  0  0  0  0  0
   -3.5015   14.9079  -11.6138 C   0  0  0  0  0  0  0  0  0  0  0  0
   -2.1980   14.4648  -10.9240 C   0  0  0  0  0  0  0  0  0  0  0  0
   -2.2178   12.9422  -10.9897 C   0  0  0  0  0  0  0  0  0  0  0  0
   -3.7152   12.5763  -10.8194 C   0  0  0  0  0  0  0  0  0  0  0  0
   -6.0752   12.2832   -9.8672 H   0  0  0  0  0  0  0  0  0  0  0  0
   -8.1926   10.1227  -13.8931 H   0  0  0  0  0  0  0  0  0  0  0  0
   -6.9001   12.2523  -14.0842 H   0  0  0  0  0  0  0  0  0  0  0  0
   -6.8867    9.4559  -11.9342 H   0  0  0  0  0  0  0  0  0  0  0  0
   -8.0373    9.5969   -7.2560 H   0  0  0  0  0  0  0  0  0  0  0  0
   -4.8913    8.7824   -8.4959 H   0  0  0  0  0  0  0  0  0  0  0  0
   -2.6604    9.7552   -8.0499 H   0  0  0  0  0  0  0  0  0  0  0  0
   -4.5139   13.2862   -6.4731 H   0  0  0  0  0  0  0  0  0  0  0  0
   -6.7415   12.3096   -6.9059 H   0  0  0  0  0  0  0  0  0  0  0  0
   -2.1513   14.2222   -7.1401 H   0  0  0  0  0  0  0  0  0  0  0  0
   -2.1989   13.5675   -5.4681 H   0  0  0  0  0  0  0  0  0  0  0  0
   -0.6424   10.6017   -7.5796 H   0  0  0  0  0  0  0  0  0  0  0  0
    1.4465   14.3426   -6.0284 H   0  0  0  0  0  0  0  0  0  0  0  0
    0.1842   15.4907   -6.5894 H   0  0  0  0  0  0  0  0  0  0  0  0
    0.1326   14.8481   -4.9128 H   0  0  0  0  0  0  0  0  0  0  0  0
   -3.3223   15.1673  -12.6676 H   0  0  0  0  0  0  0  0  0  0  0  0
   -3.9499   15.7683  -11.0955 H   0  0  0  0  0  0  0  0  0  0  0  0
   -1.3227   14.8639  -11.4575 H   0  0  0  0  0  0  0  0  0  0  0  0
   -2.1776   14.8069   -9.8787 H   0  0  0  0  0  0  0  0  0  0  0  0
   -1.8370   12.5881  -11.9590 H   0  0  0  0  0  0  0  0  0  0  0  0
   -1.6150   12.5084  -10.1783 H   0  0  0  0  0  0  0  0  0  0  0  0
   -4.0015   12.5244   -9.7586 H   0  0  0  0  0  0  0  0  0  0  0  0
   -3.9579   11.6231  -11.3118 H   0  0  0  0  0  0  0  0  0  0  0  0
  1  2  2  0  0  0  0
  1  4  1  0  0  0  0
  1 12  1  0  0  0  0
  2  6  1  0  0  0  0
  3  4  2  0  0  0  0
  3  5  1  0  0  0  0
  5  6  1  0  0  0  0
  5  9  1  0  0  0  0
  6  7  2  0  0  0  0
  7  8  1  0  0  0  0
  7 10  1  0  0  0  0
  8  9  2  0  0  0  0
 10 14  2  0  0  0  0
 11 12  1  0  0  0  0
 11 26  1  0  0  0  0
 11 29  1  0  0  0  0
 12 13  2  0  0  0  0
 14 15  1  0  0  0  0
 14 19  1  0  0  0  0
 15 16  2  0  0  0  0
 16 17  1  0  0  0  0
 17 18  1  0  0  0  0
 17 20  2  0  0  0  0
 18 19  2  0  0  0  0
 20 21  1  0  0  0  0
 20 24  1  0  0  0  0
 21 22  1  0  0  0  0
 22 23  1  0  0  0  0
 22 25  1  0  0  0  0
 23 24  2  0  0  0  0
 26 27  1  0  0  0  0
 27 28  1  0  0  0  0
 28 29  1  0  0  0  0
  2 30  1  0  0  0  0
  3 31  1  0  0  0  0
  4 32  1  0  0  0  0
  5 33  1  0  0  0  0
 10 34  1  0  0  0  0
 15 35  1  0  0  0  0
 16 36  1  0  0  0  0
 18 37  1  0  0  0  0
 19 38  1  0  0  0  0
 21 39  1  0  0  0  0
 21 40  1  0  0  0  0
 24 41  1  0  0  0  0
 25 42  1  0  0  0  0
 25 43  1  0  0  0  0
 25 44  1  0  0  0  0
 26 45  1  0  0  0  0
 26 46  1  0  0  0  0
 27 47  1  0  0  0  0
 27 48  1  0  0  0  0
 28 49  1  0  0  0  0
 28 50  1  0  0  0  0
 29 51  1  0  0  0  0
 29 52  1  0  0  0  0
M  END
> <Name>
37

> <IC50[uM]>
0.004

$$$$
37
  -OEChem-05192314333D
 Structure written by MMmdl.
 52 56  0     1  0  0  0  0  0999 V2000
   -6.3714   12.3591  -12.0053 C   0  0  0  0  0  0  0  0  0  0  0  0
   -6.5147   11.8055  -10.7304 C   0  0  0  0  0  0  0  0  0  0  0  0
   -7.7273   10.5756  -13.0301 C   0  0  0  0  0  0  0  0  0  0  0  0
   -6.9920   11.7699  -13.1223 C   0  0  0  0  0  0  0  0  0  0  0  0
   -7.8210   10.0087  -11.7569 C   0  0  0  0  0  0  0  0  0  0  0  0
   -7.2407   10.6185  -10.5997 C   0  0  0  0  0  0  0  0  0  0  0  0
   -7.6132    9.7471   -9.5123 C   0  0  0  0  0  0  0  0  0  0  0  0
   -8.2794    8.7320   -9.9893 N   0  0  0  0  0  0  0  0  0  0  0  0
   -8.4144    8.8594  -11.3005 N   0  0  0  0  0  0  0  0  0  0  0  0
   -7.3370    9.8875   -8.0251 C   0  0  0  0  0  0  0  0  0  0  0  0
   -4.3570   13.7205  -11.5014 N   0  0  0  0  0  0  0  0  0  0  0  0
   -5.5485   13.6383  -12.1900 C   0  0  0  0  0  0  0  0  0  0  0  0
   -5.9462   14.5274  -12.9449 O   0  0  0  0  0  0  0  0  0  0  0  0
   -5.9602   10.4847   -7.7357 C   0  0  0  0  0  0  0  0  0  0  0  0
   -4.8090    9.7649   -8.0550 C   0  0  0  0  0  0  0  0  0  0  0  0
   -3.5517   10.3138   -7.8050 C   0  0  0  0  0  0  0  0  0  0  0  0
   -3.4444   11.5886   -7.2367 C   0  0  0  0  0  0  0  0  0  0  0  0
   -4.5954   12.3038   -6.9144 C   0  0  0  0  0  0  0  0  0  0  0  0
   -5.8508   11.7543   -7.1602 C   0  0  0  0  0  0  0  0  0  0  0  0
   -2.1010   12.1799   -6.9735 C   0  0  0  0  0  0  0  0  0  0  0  0
   -1.7694   13.4361   -6.4722 C   0  0  0  0  0  0  0  0  0  0  0  0
   -0.4342   13.4933   -6.4118 N   0  0  3  0  0  0  0  0  0  0  0  0
    0.1686   12.4094   -6.8087 N   0  0  0  0  0  0  0  0  0  0  0  0
   -0.8030   11.5907   -7.1765 C   0  0  0  0  0  0  0  0  0  0  0  0
    0.3824   14.6122   -5.9578 C   0  0  0  0  0  0  0  0  0  0  0  0
   -3.5015   14.9079  -11.6138 C   0  0  0  0  0  0  0  0  0  0  0  0
   -2.1980   14.4648  -10.9240 C   0  0  0  0  0  0  0  0  0  0  0  0
   -2.2178   12.9422  -10.9897 C   0  0  0  0  0  0  0  0  0  0  0  0
   -3.7152   12.5763  -10.8194 C   0  0  0  0  0  0  0  0  0  0  0  0
   -6.0752   12.2832   -9.8672 H   0  0  0  0  0  0  0  0  0  0  0  0
   -8.1926   10.1227  -13.8931 H   0  0  0  0  0  0  0  0  0  0  0  0
   -7.6839   12.5256  -13.5225 H   0  0  0  0  0  0  0  0  0  0  0  0
   -6.1920   11.5815  -13.8534 H   0  0  0  0  0  0  0  0  0  0  0  0
   -8.0373    9.5969   -7.2560 H   0  0  0  0  0  0  0  0  0  0  0  0
   -4.8913    8.7824   -8.4959 H   0  0  0  0  0  0  0  0  0  0  0  0
   -2.6604    9.7552   -8.0499 H   0  0  0  0  0  0  0  0  0  0  0  0
   -4.5139   13.2862   -6.4731 H   0  0  0  0  0  0  0  0  0  0  0  0
   -6.7415   12.3096   -6.9059 H   0  0  0  0  0  0  0  0  0  0  0  0
   -2.1513   14.2222   -7.1401 H   0  0  0  0  0  0  0  0  0  0  0  0
   -2.1989   13.5675   -5.4681 H   0  0  0  0  0  0  0  0  0  0  0  0
   -0.6424   10.6017   -7.5796 H   0  0  0  0  0  0  0  0  0  0  0  0
    1.4465   14.3426   -6.0284 H   0  0  0  0  0  0  0  0  0  0  0  0
    0.1842   15.4907   -6.5894 H   0  0  0  0  0  0  0  0  0  0  0  0
    0.1326   14.8481   -4.9128 H   0  0  0  0  0  0  0  0  0  0  0  0
   -3.3223   15.1673  -12.6676 H   0  0  0  0  0  0  0  0  0  0  0  0
   -3.9499   15.7683  -11.0955 H   0  0  0  0  0  0  0  0  0  0  0  0
   -1.3227   14.8639  -11.4575 H   0  0  0  0  0  0  0  0  0  0  0  0
   -2.1776   14.8069   -9.8787 H   0  0  0  0  0  0  0  0  0  0  0  0
   -1.8370   12.5881  -11.9590 H   0  0  0  0  0  0  0  0  0  0  0  0
   -1.6150   12.5084  -10.1783 H   0  0  0  0  0  0  0  0  0  0  0  0
   -4.0015   12.5244   -9.7586 H   0  0  0  0  0  0  0  0  0  0  0  0
   -3.9579   11.6231  -11.3118 H   0  0  0  0  0  0  0  0  0  0  0  0
  1  2  2  0  0  0  0
  1  4  1  0  0  0  0
  1 12  1  0  0  0  0
  2  6  1  0  0  0  0
  3  4  1  0  0  0  0
  3  5  2  0  0  0  0
  5  6  1  0  0  0  0
  5  9  1  0  0  0  0
  6  7  2  0  0  0  0
  7  8  1  0  0  0  0
  7 10  1  0  0  0  0
  8  9  2  0  0  0  0
 10 14  2  0  0  0  0
 11 12  1  0  0  0  0
 11 26  1  0  0  0  0
 11 29  1  0  0  0  0
 12 13  2  0  0  0  0
 14 15  1  0  0  0  0
 14 19  1  0  0  0  0
 15 16  2  0  0  0  0
 16 17  1  0  0  0  0
 17 18  1  0  0  0  0
 17 20  2  0  0  0  0
 18 19  2  0  0  0  0
 20 21  1  0  0  0  0
 20 24  1  0  0  0  0
 21 22  1  0  0  0  0
 22 23  1  0  0  0  0
 22 25  1  0  0  0  0
 23 24  2  0  0  0  0
 26 27  1  0  0  0  0
 27 28  1  0  0  0  0
 28 29  1  0  0  0  0
  2 30  1  0  0  0  0
  3 31  1  0  0  0  0
  4 32  1  0  0  0  0
  4 33  1  0  0  0  0
 10 34  1  0  0  0  0
 15 35  1  0  0  0  0
 16 36  1  0  0  0  0
 18 37  1  0  0  0  0
 19 38  1  0  0  0  0
 21 39  1  0  0  0  0
 21 40  1  0  0  0  0
 24 41  1  0  0  0  0
 25 42  1  0  0  0  0
 25 43  1  0  0  0  0
 25 44  1  0  0  0  0
 26 45  1  0  0  0  0
 26 46  1  0  0  0  0
 27 47  1  0  0  0  0
 27 48  1  0  0  0  0
 28 49  1  0  0  0  0
 28 50  1  0  0  0  0
 29 51  1  0  0  0  0
 29 52  1  0  0  0  0
M  END
> <Name>
37

> <IC50[uM]>
0.004

$$$$
37
  -OEChem-05192314333D
 Structure written by MMmdl.
 52 56  0     1  0  0  0  0  0999 V2000
   -6.3714   12.3591  -12.0053 C   0  0  0  0  0  0  0  0  0  0  0  0
   -6.5147   11.8055  -10.7304 C   0  0  0  0  0  0  0  0  0  0  0  0
   -7.7273   10.5756  -13.0301 C   0  0  0  0  0  0  0  0  0  0  0  0
   -6.9920   11.7699  -13.1223 C   0  0  0  0  0  0  0  0  0  0  0  0
   -7.8210   10.0087  -11.7569 C   0  0  0  0  0  0  0  0  0  0  0  0
   -7.2407   10.6185  -10.5997 C   0  0  0  0  0  0  0  0  0  0  0  0
   -7.6132    9.7471   -9.5123 C   0  0  0  0  0  0  0  0  0  0  0  0
   -8.2794    8.7320   -9.9893 N   0  0  0  0  0  0  0  0  0  0  0  0
   -8.4144    8.8594  -11.3005 N   0  0  0  0  0  0  0  0  0  0  0  0
   -7.3370    9.8875   -8.0251 C   0  0  0  0  0  0  0  0  0  0  0  0
   -4.3570   13.7205  -11.5014 N   0  0  0  0  0  0  0  0  0  0  0  0
   -5.5485   13.6383  -12.1900 C   0  0  0  0  0  0  0  0  0  0  0  0
   -5.9462   14.5274  -12.9449 O   0  0  0  0  0  0  0  0  0  0  0  0
   -5.9602   10.4847   -7.7357 C   0  0  0  0  0  0  0  0  0  0  0  0
   -4.8090    9.7649   -8.0550 C   0  0  0  0  0  0  0  0  0  0  0  0
   -3.5517   10.3138   -7.8050 C   0  0  0  0  0  0  0  0  0  0  0  0
   -3.4444   11.5886   -7.2367 C   0  0  0  0  0  0  0  0  0  0  0  0
   -4.5954   12.3038   -6.9144 C   0  0  0  0  0  0  0  0  0  0  0  0
   -5.8508   11.7543   -7.1602 C   0  0  0  0  0  0  0  0  0  0  0  0
   -2.1010   12.1799   -6.9735 C   0  0  0  0  0  0  0  0  0  0  0  0
   -1.7694   13.4361   -6.4722 C   0  0  0  0  0  0  0  0  0  0  0  0
   -0.4342   13.4933   -6.4118 N   0  0  3  0  0  0  0  0  0  0  0  0
    0.1686   12.4094   -6.8087 N   0  0  0  0  0  0  0  0  0  0  0  0
   -0.8030   11.5907   -7.1765 C   0  0  0  0  0  0  0  0  0  0  0  0
    0.3824   14.6122   -5.9578 C   0  0  0  0  0  0  0  0  0  0  0  0
   -3.5015   14.9079  -11.6138 C   0  0  0  0  0  0  0  0  0  0  0  0
   -2.1980   14.4648  -10.9240 C   0  0  0  0  0  0  0  0  0  0  0  0
   -2.2178   12.9422  -10.9897 C   0  0  0  0  0  0  0  0  0  0  0  0
   -3.7152   12.5763  -10.8194 C   0  0  0  0  0  0  0  0  0  0  0  0
   -5.5031   11.6124  -10.3440 H   0  0  0  0  0  0  0  0  0  0  0  0
   -7.0095   12.5604  -10.1016 H   0  0  0  0  0  0  0  0  0  0  0  0
   -8.1926   10.1227  -13.8931 H   0  0  0  0  0  0  0  0  0  0  0  0
   -6.9001   12.2523  -14.0842 H   0  0  0  0  0  0  0  0  0  0  0  0
   -8.0373    9.5969   -7.2560 H   0  0  0  0  0  0  0  0  0  0  0  0
   -4.8913    8.7824   -8.4959 H   0  0  0  0  0  0  0  0  0  0  0  0
   -2.6604    9.7552   -8.0499 H   0  0  0  0  0  0  0  0  0  0  0  0
   -4.5139   13.2862   -6.4731 H   0  0  0  0  0  0  0  0  0  0  0  0
   -6.7415   12.3096   -6.9059 H   0  0  0  0  0  0  0  0  0  0  0  0
   -2.1513   14.2222   -7.1401 H   0  0  0  0  0  0  0  0  0  0  0  0
   -2.1989   13.5675   -5.4681 H   0  0  0  0  0  0  0  0  0  0  0  0
   -0.6424   10.6017   -7.5796 H   0  0  0  0  0  0  0  0  0  0  0  0
    1.4465   14.3426   -6.0284 H   0  0  0  0  0  0  0  0  0  0  0  0
    0.1842   15.4907   -6.5894 H   0  0  0  0  0  0  0  0  0  0  0  0
    0.1326   14.8481   -4.9128 H   0  0  0  0  0  0  0  0  0  0  0  0
   -3.3223   15.1673  -12.6676 H   0  0  0  0  0  0  0  0  0  0  0  0
   -3.9499   15.7683  -11.0955 H   0  0  0  0  0  0  0  0  0  0  0  0
   -1.3227   14.8639  -11.4575 H   0  0  0  0  0  0  0  0  0  0  0  0
   -2.1776   14.8069   -9.8787 H   0  0  0  0  0  0  0  0  0  0  0  0
   -1.8370   12.5881  -11.9590 H   0  0  0  0  0  0  0  0  0  0  0  0
   -1.6150   12.5084  -10.1783 H   0  0  0  0  0  0  0  0  0  0  0  0
   -4.0015   12.5244   -9.7586 H   0  0  0  0  0  0  0  0  0  0  0  0
   -3.9579   11.6231  -11.3118 H   0  0  0  0  0  0  0  0  0  0  0  0
  1  2  1  0  0  0  0
  1  4  2  0  0  0  0
  1 12  1  0  0  0  0
  2  6  1  0  0  0  0
  3  4  1  0  0  0  0
  3  5  2  0  0  0  0
  5  6  1  0  0  0  0
  5  9  1  0  0  0  0
  6  7  2  0  0  0  0
  7  8  1  0  0  0  0
  7 10  1  0  0  0  0
  8  9  2  0  0  0  0
 10 14  2  0  0  0  0
 11 12  1  0  0  0  0
 11 26  1  0  0  0  0
 11 29  1  0  0  0  0
 12 13  2  0  0  0  0
 14 15  1  0  0  0  0
 14 19  1  0  0  0  0
 15 16  2  0  0  0  0
 16 17  1  0  0  0  0
 17 18  1  0  0  0  0
 17 20  2  0  0  0  0
 18 19  2  0  0  0  0
 20 21  1  0  0  0  0
 20 24  1  0  0  0  0
 21 22  1  0  0  0  0
 22 23  1  0  0  0  0
 22 25  1  0  0  0  0
 23 24  2  0  0  0  0
 26 27  1  0  0  0  0
 27 28  1  0  0  0  0
 28 29  1  0  0  0  0
  2 30  1  0  0  0  0
  2 31  1  0  0  0  0
  3 32  1  0  0  0  0
  4 33  1  0  0  0  0
 10 34  1  0  0  0  0
 15 35  1  0  0  0  0
 16 36  1  0  0  0  0
 18 37  1  0  0  0  0
 19 38  1  0  0  0  0
 21 39  1  0  0  0  0
 21 40  1  0  0  0  0
 24 41  1  0  0  0  0
 25 42  1  0  0  0  0
 25 43  1  0  0  0  0
 25 44  1  0  0  0  0
 26 45  1  0  0  0  0
 26 46  1  0  0  0  0
 27 47  1  0  0  0  0
 27 48  1  0  0  0  0
 28 49  1  0  0  0  0
 28 50  1  0  0  0  0
 29 51  1  0  0  0  0
 29 52  1  0  0  0  0
M  END
> <Name>
37

> <IC50[uM]>
0.004

$$$$
37
  -OEChem-05192314333D
 Structure written by MMmdl.
 52 56  0     1  0  0  0  0  0999 V2000
   -6.3714   12.3591  -12.0053 C   0  0  3  0  0  0  0  0  0  0  0  0
   -6.5147   11.8055  -10.7304 C   0  0  0  0  0  0  0  0  0  0  0  0
   -7.7273   10.5756  -13.0301 C   0  0  0  0  0  0  0  0  0  0  0  0
   -6.9920   11.7699  -13.1223 C   0  0  0  0  0  0  0  0  0  0  0  0
   -7.8210   10.0087  -11.7569 C   0  0  0  0  0  0  0  0  0  0  0  0
   -7.2407   10.6185  -10.5997 C   0  0  0  0  0  0  0  0  0  0  0  0
   -7.6132    9.7471   -9.5123 C   0  0  0  0  0  0  0  0  0  0  0  0
   -8.2794    8.7320   -9.9893 N   0  0  0  0  0  0  0  0  0  0  0  0
   -8.4144    8.8594  -11.3005 N   0  0  0  0  0  0  0  0  0  0  0  0
   -7.3370    9.8875   -8.0251 C   0  0  0  0  0  0  0  0  0  0  0  0
   -4.3570   13.7205  -11.5014 N   0  0  0  0  0  0  0  0  0  0  0  0
   -5.5485   13.6383  -12.1900 C   0  0  0  0  0  0  0  0  0  0  0  0
   -5.9462   14.5274  -12.9449 O   0  0  0  0  0  0  0  0  0  0  0  0
   -5.9602   10.4847   -7.7357 C   0  0  0  0  0  0  0  0  0  0  0  0
   -4.8090    9.7649   -8.0550 C   0  0  0  0  0  0  0  0  0  0  0  0
   -3.5517   10.3138   -7.8050 C   0  0  0  0  0  0  0  0  0  0  0  0
   -3.4444   11.5886   -7.2367 C   0  0  0  0  0  0  0  0  0  0  0  0
   -4.5954   12.3038   -6.9144 C   0  0  0  0  0  0  0  0  0  0  0  0
   -5.8508   11.7543   -7.1602 C   0  0  0  0  0  0  0  0  0  0  0  0
   -2.1010   12.1799   -6.9735 C   0  0  0  0  0  0  0  0  0  0  0  0
   -1.7694   13.4361   -6.4722 C   0  0  0  0  0  0  0  0  0  0  0  0
   -0.4342   13.4933   -6.4118 N   0  0  0  0  0  0  0  0  0  0  0  0
    0.1686   12.4094   -6.8087 N   0  0  0  0  0  0  0  0  0  0  0  0
   -0.8030   11.5907   -7.1765 C   0  0  0  0  0  0  0  0  0  0  0  0
    0.3824   14.6122   -5.9578 C   0  0  0  0  0  0  0  0  0  0  0  0
   -3.5015   14.9079  -11.6138 C   0  0  0  0  0  0  0  0  0  0  0  0
   -2.1980   14.4648  -10.9240 C   0  0  0  0  0  0  0  0  0  0  0  0
   -2.2178   12.9422  -10.9897 C   0  0  0  0  0  0  0  0  0  0  0  0
   -3.7152   12.5763  -10.8194 C   0  0  0  0  0  0  0  0  0  0  0  0
   -5.4719   11.7492  -12.1757 H   0  0  0  0  0  0  0  0  0  0  0  0
   -6.0752   12.2832   -9.8672 H   0  0  0  0  0  0  0  0  0  0  0  0
   -8.1926   10.1227  -13.8931 H   0  0  0  0  0  0  0  0  0  0  0  0
   -6.9001   12.2523  -14.0842 H   0  0  0  0  0  0  0  0  0  0  0  0
   -8.0373    9.5969   -7.2560 H   0  0  0  0  0  0  0  0  0  0  0  0
   -4.8913    8.7824   -8.4959 H   0  0  0  0  0  0  0  0  0  0  0  0
   -2.6604    9.7552   -8.0499 H   0  0  0  0  0  0  0  0  0  0  0  0
   -3.4459   12.0373   -8.2410 H   0  0  0  0  0  0  0  0  0  0  0  0
   -4.5139   13.2862   -6.4731 H   0  0  0  0  0  0  0  0  0  0  0  0
   -6.7415   12.3096   -6.9059 H   0  0  0  0  0  0  0  0  0  0  0  0
   -2.4594   14.2163   -6.1864 H   0  0  0  0  0  0  0  0  0  0  0  0
   -0.6424   10.6017   -7.5796 H   0  0  0  0  0  0  0  0  0  0  0  0
    1.4465   14.3426   -6.0284 H   0  0  0  0  0  0  0  0  0  0  0  0
    0.1842   15.4907   -6.5894 H   0  0  0  0  0  0  0  0  0  0  0  0
    0.1326   14.8481   -4.9128 H   0  0  0  0  0  0  0  0  0  0  0  0
   -3.3223   15.1673  -12.6676 H   0  0  0  0  0  0  0  0  0  0  0  0
   -3.9499   15.7683  -11.0955 H   0  0  0  0  0  0  0  0  0  0  0  0
   -1.3227   14.8639  -11.4575 H   0  0  0  0  0  0  0  0  0  0  0  0
   -2.1776   14.8069   -9.8787 H   0  0  0  0  0  0  0  0  0  0  0  0
   -1.8370   12.5881  -11.9590 H   0  0  0  0  0  0  0  0  0  0  0  0
   -1.6150   12.5084  -10.1783 H   0  0  0  0  0  0  0  0  0  0  0  0
   -4.0015   12.5244   -9.7586 H   0  0  0  0  0  0  0  0  0  0  0  0
   -3.9579   11.6231  -11.3118 H   0  0  0  0  0  0  0  0  0  0  0  0
  1  2  1  0  0  0  0
  1  4  1  0  0  0  0
  1 12  1  0  0  0  0
  2  6  2  0  0  0  0
  3  4  2  0  0  0  0
  3  5  1  0  0  0  0
  5  6  1  0  0  0  0
  5  9  2  0  0  0  0
  6  7  1  0  0  0  0
  7  8  2  0  0  0  0
  7 10  1  0  0  0  0
  8  9  1  0  0  0  0
 10 14  2  0  0  0  0
 11 12  1  0  0  0  0
 11 26  1  0  0  0  0
 11 29  1  0  0  0  0
 12 13  2  0  0  0  0
 14 15  1  0  0  0  0
 14 19  1  0  0  0  0
 15 16  2  0  0  0  0
 16 17  1  0  0  0  0
 17 18  1  0  0  0  0
 17 20  1  0  0  0  0
 18 19  2  0  0  0  0
 20 21  2  0  0  0  0
 20 24  1  0  0  0  0
 21 22  1  0  0  0  0
 22 23  1  0  0  0  0
 22 25  1  0  0  0  0
 23 24  2  0  0  0  0
 26 27  1  0  0  0  0
 27 28  1  0  0  0  0
 28 29  1  0  0  0  0
  1 30  1  0  0  0  0
  2 31  1  0  0  0  0
  3 32  1  0  0  0  0
  4 33  1  0  0  0  0
 10 34  1  0  0  0  0
 15 35  1  0  0  0  0
 16 36  1  0  0  0  0
 17 37  1  0  0  0  0
 18 38  1  0  0  0  0
 19 39  1  0  0  0  0
 21 40  1  0  0  0  0
 24 41  1  0  0  0  0
 25 42  1  0  0  0  0
 25 43  1  0  0  0  0
 25 44  1  0  0  0  0
 26 45  1  0  0  0  0
 26 46  1  0  0  0  0
 27 47  1  0  0  0  0
 27 48  1  0  0  0  0
 28 49  1  0  0  0  0
 28 50  1  0  0  0  0
 29 51  1  0  0  0  0
 29 52  1  0  0  0  0
M  END
> <Name>
37

> <IC50[uM]>
0.004

$$$$
37
  -OEChem-05192314333D
 Structure written by MMmdl.
 52 56  0     1  0  0  0  0  0999 V2000
   -6.3714   12.3591  -12.0053 C   0  0  0  0  0  0  0  0  0  0  0  0
   -6.5147   11.8055  -10.7304 C   0  0  0  0  0  0  0  0  0  0  0  0
   -7.7273   10.5756  -13.0301 C   0  0  0  0  0  0  0  0  0  0  0  0
   -6.9920   11.7699  -13.1223 C   0  0  0  0  0  0  0  0  0  0  0  0
   -7.8210   10.0087  -11.7569 C   0  0  0  0  0  0  0  0  0  0  0  0
   -7.2407   10.6185  -10.5997 C   0  0  3  0  0  0  0  0  0  0  0  0
   -7.6132    9.7471   -9.5123 C   0  0  0  0  0  0  0  0  0  0  0  0
   -8.2794    8.7320   -9.9893 N   0  0  0  0  0  0  0  0  0  0  0  0
   -8.4144    8.8594  -11.3005 N   0  0  0  0  0  0  0  0  0  0  0  0
   -7.3370    9.8875   -8.0251 C   0  0  0  0  0  0  0  0  0  0  0  0
   -4.3570   13.7205  -11.5014 N   0  0  0  0  0  0  0  0  0  0  0  0
   -5.5485   13.6383  -12.1900 C   0  0  0  0  0  0  0  0  0  0  0  0
   -5.9462   14.5274  -12.9449 O   0  0  0  0  0  0  0  0  0  0  0  0
   -5.9602   10.4847   -7.7357 C   0  0  0  0  0  0  0  0  0  0  0  0
   -4.8090    9.7649   -8.0550 C   0  0  0  0  0  0  0  0  0  0  0  0
   -3.5517   10.3138   -7.8050 C   0  0  0  0  0  0  0  0  0  0  0  0
   -3.4444   11.5886   -7.2367 C   0  0  0  0  0  0  0  0  0  0  0  0
   -4.5954   12.3038   -6.9144 C   0  0  0  0  0  0  0  0  0  0  0  0
   -5.8508   11.7543   -7.1602 C   0  0  0  0  0  0  0  0  0  0  0  0
   -2.1010   12.1799   -6.9735 C   0  0  0  0  0  0  0  0  0  0  0  0
   -1.7694   13.4361   -6.4722 C   0  0  0  0  0  0  0  0  0  0  0  0
   -0.4342   13.4933   -6.4118 N   0  0  0  0  0  0  0  0  0  0  0  0
    0.1686   12.4094   -6.8087 N   0  0  0  0  0  0  0  0  0  0  0  0
   -0.8030   11.5907   -7.1765 C   0  0  0  0  0  0  0  0  0  0  0  0
    0.3824   14.6122   -5.9578 C   0  0  0  0  0  0  0  0  0  0  0  0
   -3.5015   14.9079  -11.6138 C   0  0  0  0  0  0  0  0  0  0  0  0
   -2.1980   14.4648  -10.9240 C   0  0  0  0  0  0  0  0  0  0  0  0
   -2.2178   12.9422  -10.9897 C   0  0  0  0  0  0  0  0  0  0  0  0
   -3.7152   12.5763  -10.8194 C   0  0  0  0  0  0  0  0  0  0  0  0
   -6.0752   12.2832   -9.8672 H   0  0  0  0  0  0  0  0  0  0  0  0
   -8.1926   10.1227  -13.8931 H   0  0  0  0  0  0  0  0  0  0  0  0
   -6.9001   12.2523  -14.0842 H   0  0  0  0  0  0  0  0  0  0  0  0
   -6.3199   10.0365  -10.7528 H   0  0  0  0  0  0  0  0  0  0  0  0
   -8.0373    9.5969   -7.2560 H   0  0  0  0  0  0  0  0  0  0  0  0
   -4.8913    8.7824   -8.4959 H   0  0  0  0  0  0  0  0  0  0  0  0
   -2.6604    9.7552   -8.0499 H   0  0  0  0  0  0  0  0  0  0  0  0
   -3.4459   12.0373   -8.2410 H   0  0  0  0  0  0  0  0  0  0  0  0
   -4.5139   13.2862   -6.4731 H   0  0  0  0  0  0  0  0  0  0  0  0
   -6.7415   12.3096   -6.9059 H   0  0  0  0  0  0  0  0  0  0  0  0
   -2.4594   14.2163   -6.1864 H   0  0  0  0  0  0  0  0  0  0  0  0
   -0.6424   10.6017   -7.5796 H   0  0  0  0  0  0  0  0  0  0  0  0
    1.4465   14.3426   -6.0284 H   0  0  0  0  0  0  0  0  0  0  0  0
    0.1842   15.4907   -6.5894 H   0  0  0  0  0  0  0  0  0  0  0  0
    0.1326   14.8481   -4.9128 H   0  0  0  0  0  0  0  0  0  0  0  0
   -3.3223   15.1673  -12.6676 H   0  0  0  0  0  0  0  0  0  0  0  0
   -3.9499   15.7683  -11.0955 H   0  0  0  0  0  0  0  0  0  0  0  0
   -1.3227   14.8639  -11.4575 H   0  0  0  0  0  0  0  0  0  0  0  0
   -2.1776   14.8069   -9.8787 H   0  0  0  0  0  0  0  0  0  0  0  0
   -1.8370   12.5881  -11.9590 H   0  0  0  0  0  0  0  0  0  0  0  0
   -1.6150   12.5084  -10.1783 H   0  0  0  0  0  0  0  0  0  0  0  0
   -4.0015   12.5244   -9.7586 H   0  0  0  0  0  0  0  0  0  0  0  0
   -3.9579   11.6231  -11.3118 H   0  0  0  0  0  0  0  0  0  0  0  0
  1  2  2  0  0  0  0
  1  4  1  0  0  0  0
  1 12  1  0  0  0  0
  2  6  1  0  0  0  0
  3  4  2  0  0  0  0
  3  5  1  0  0  0  0
  5  6  1  0  0  0  0
  5  9  2  0  0  0  0
  6  7  1  0  0  0  0
  7  8  2  0  0  0  0
  7 10  1  0  0  0  0
  8  9  1  0  0  0  0
 10 14  2  0  0  0  0
 11 12  1  0  0  0  0
 11 26  1  0  0  0  0
 11 29  1  0  0  0  0
 12 13  2  0  0  0  0
 14 15  1  0  0  0  0
 14 19  1  0  0  0  0
 15 16  2  0  0  0  0
 16 17  1  0  0  0  0
 17 18  1  0  0  0  0
 17 20  1  0  0  0  0
 18 19  2  0  0  0  0
 20 21  2  0  0  0  0
 20 24  1  0  0  0  0
 21 22  1  0  0  0  0
 22 23  1  0  0  0  0
 22 25  1  0  0  0  0
 23 24  2  0  0  0  0
 26 27  1  0  0  0  0
 27 28  1  0  0  0  0
 28 29  1  0  0  0  0
  2 30  1  0  0  0  0
  3 31  1  0  0  0  0
  4 32  1  0  0  0  0
  6 33  1  0  0  0  0
 10 34  1  0  0  0  0
 15 35  1  0  0  0  0
 16 36  1  0  0  0  0
 17 37  1  0  0  0  0
 18 38  1  0  0  0  0
 19 39  1  0  0  0  0
 21 40  1  0  0  0  0
 24 41  1  0  0  0  0
 25 42  1  0  0  0  0
 25 43  1  0  0  0  0
 25 44  1  0  0  0  0
 26 45  1  0  0  0  0
 26 46  1  0  0  0  0
 27 47  1  0  0  0  0
 27 48  1  0  0  0  0
 28 49  1  0  0  0  0
 28 50  1  0  0  0  0
 29 51  1  0  0  0  0
 29 52  1  0  0  0  0
M  END
> <Name>
37

> <IC50[uM]>
0.004

$$$$
37
  -OEChem-05192314333D
 Structure written by MMmdl.
 52 56  0     0  0  0  0  0  0999 V2000
   -6.3714   12.3591  -12.0053 C   0  0  0  0  0  0  0  0  0  0  0  0
   -6.5147   11.8055  -10.7304 C   0  0  0  0  0  0  0  0  0  0  0  0
   -7.7273   10.5756  -13.0301 C   0  0  0  0  0  0  0  0  0  0  0  0
   -6.9920   11.7699  -13.1223 C   0  0  0  0  0  0  0  0  0  0  0  0
   -7.8210   10.0087  -11.7569 C   0  0  0  0  0  0  0  0  0  0  0  0
   -7.2407   10.6185  -10.5997 C   0  0  0  0  0  0  0  0  0  0  0  0
   -7.6132    9.7471   -9.5123 C   0  0  0  0  0  0  0  0  0  0  0  0
   -8.2794    8.7320   -9.9893 N   0  0  0  0  0  0  0  0  0  0  0  0
   -8.4144    8.8594  -11.3005 N   0  0  0  0  0  0  0  0  0  0  0  0
   -7.3370    9.8875   -8.0251 C   0  0  0  0  0  0  0  0  0  0  0  0
   -4.3570   13.7205  -11.5014 N   0  0  0  0  0  0  0  0  0  0  0  0
   -5.5485   13.6383  -12.1900 C   0  0  0  0  0  0  0  0  0  0  0  0
   -5.9462   14.5274  -12.9449 O   0  0  0  0  0  0  0  0  0  0  0  0
   -5.9602   10.4847   -7.7357 C   0  0  0  0  0  0  0  0  0  0  0  0
   -4.8090    9.7649   -8.0550 C   0  0  0  0  0  0  0  0  0  0  0  0
   -3.5517   10.3138   -7.8050 C   0  0  0  0  0  0  0  0  0  0  0  0
   -3.4444   11.5886   -7.2367 C   0  0  0  0  0  0  0  0  0  0  0  0
   -4.5954   12.3038   -6.9144 C   0  0  0  0  0  0  0  0  0  0  0  0
   -5.8508   11.7543   -7.1602 C   0  0  0  0  0  0  0  0  0  0  0  0
   -2.1010   12.1799   -6.9735 C   0  0  0  0  0  0  0  0  0  0  0  0
   -1.7694   13.4361   -6.4722 C   0  0  0  0  0  0  0  0  0  0  0  0
   -0.4342   13.4933   -6.4118 N   0  0  0  0  0  0  0  0  0  0  0  0
    0.1686   12.4094   -6.8087 N   0  0  0  0  0  0  0  0  0  0  0  0
   -0.8030   11.5907   -7.1765 C   0  0  0  0  0  0  0  0  0  0  0  0
    0.3824   14.6122   -5.9578 C   0  0  0  0  0  0  0  0  0  0  0  0
   -3.5015   14.9079  -11.6138 C   0  0  0  0  0  0  0  0  0  0  0  0
   -2.1980   14.4648  -10.9240 C   0  0  0  0  0  0  0  0  0  0  0  0
   -2.2178   12.9422  -10.9897 C   0  0  0  0  0  0  0  0  0  0  0  0
   -3.7152   12.5763  -10.8194 C   0  0  0  0  0  0  0  0  0  0  0  0
   -6.0752   12.2832   -9.8672 H   0  0  0  0  0  0  0  0  0  0  0  0
   -8.7488   10.7817  -13.3823 H   0  0  0  0  0  0  0  0  0  0  0  0
   -7.2530    9.8368  -13.6929 H   0  0  0  0  0  0  0  0  0  0  0  0
   -6.9001   12.2523  -14.0842 H   0  0  0  0  0  0  0  0  0  0  0  0
   -8.0373    9.5969   -7.2560 H   0  0  0  0  0  0  0  0  0  0  0  0
   -4.8913    8.7824   -8.4959 H   0  0  0  0  0  0  0  0  0  0  0  0
   -2.6604    9.7552   -8.0499 H   0  0  0  0  0  0  0  0  0  0  0  0
   -3.4459   12.0373   -8.2410 H   0  0  0  0  0  0  0  0  0  0  0  0
   -4.5139   13.2862   -6.4731 H   0  0  0  0  0  0  0  0  0  0  0  0
   -6.7415   12.3096   -6.9059 H   0  0  0  0  0  0  0  0  0  0  0  0
   -2.4594   14.2163   -6.1864 H   0  0  0  0  0  0  0  0  0  0  0  0
   -0.6424   10.6017   -7.5796 H   0  0  0  0  0  0  0  0  0  0  0  0
    1.4465   14.3426   -6.0284 H   0  0  0  0  0  0  0  0  0  0  0  0
    0.1842   15.4907   -6.5894 H   0  0  0  0  0  0  0  0  0  0  0  0
    0.1326   14.8481   -4.9128 H   0  0  0  0  0  0  0  0  0  0  0  0
   -3.3223   15.1673  -12.6676 H   0  0  0  0  0  0  0  0  0  0  0  0
   -3.9499   15.7683  -11.0955 H   0  0  0  0  0  0  0  0  0  0  0  0
   -1.3227   14.8639  -11.4575 H   0  0  0  0  0  0  0  0  0  0  0  0
   -2.1776   14.8069   -9.8787 H   0  0  0  0  0  0  0  0  0  0  0  0
   -1.8370   12.5881  -11.9590 H   0  0  0  0  0  0  0  0  0  0  0  0
   -1.6150   12.5084  -10.1783 H   0  0  0  0  0  0  0  0  0  0  0  0
   -4.0015   12.5244   -9.7586 H   0  0  0  0  0  0  0  0  0  0  0  0
   -3.9579   11.6231  -11.3118 H   0  0  0  0  0  0  0  0  0  0  0  0
  1  2  1  0  0  0  0
  1  4  2  0  0  0  0
  1 12  1  0  0  0  0
  2  6  2  0  0  0  0
  3  4  1  0  0  0  0
  3  5  1  0  0  0  0
  5  6  1  0  0  0  0
  5  9  2  0  0  0  0
  6  7  1  0  0  0  0
  7  8  2  0  0  0  0
  7 10  1  0  0  0  0
  8  9  1  0  0  0  0
 10 14  2  0  0  0  0
 11 12  1  0  0  0  0
 11 26  1  0  0  0  0
 11 29  1  0  0  0  0
 12 13  2  0  0  0  0
 14 15  1  0  0  0  0
 14 19  1  0  0  0  0
 15 16  2  0  0  0  0
 16 17  1  0  0  0  0
 17 18  1  0  0  0  0
 17 20  1  0  0  0  0
 18 19  2  0  0  0  0
 20 21  2  0  0  0  0
 20 24  1  0  0  0  0
 21 22  1  0  0  0  0
 22 23  1  0  0  0  0
 22 25  1  0  0  0  0
 23 24  2  0  0  0  0
 26 27  1  0  0  0  0
 27 28  1  0  0  0  0
 28 29  1  0  0  0  0
  2 30  1  0  0  0  0
  3 31  1  0  0  0  0
  3 32  1  0  0  0  0
  4 33  1  0  0  0  0
 10 34  1  0  0  0  0
 15 35  1  0  0  0  0
 16 36  1  0  0  0  0
 17 37  1  0  0  0  0
 18 38  1  0  0  0  0
 19 39  1  0  0  0  0
 21 40  1  0  0  0  0
 24 41  1  0  0  0  0
 25 42  1  0  0  0  0
 25 43  1  0  0  0  0
 25 44  1  0  0  0  0
 26 45  1  0  0  0  0
 26 46  1  0  0  0  0
 27 47  1  0  0  0  0
 27 48  1  0  0  0  0
 28 49  1  0  0  0  0
 28 50  1  0  0  0  0
 29 51  1  0  0  0  0
 29 52  1  0  0  0  0
M  END
> <Name>
37

> <IC50[uM]>
0.004

$$$$
37
  -OEChem-05192314333D
 Structure written by MMmdl.
 52 56  0     1  0  0  0  0  0999 V2000
   -6.3714   12.3591  -12.0053 C   0  0  3  0  0  0  0  0  0  0  0  0
   -6.5147   11.8055  -10.7304 C   0  0  0  0  0  0  0  0  0  0  0  0
   -7.7273   10.5756  -13.0301 C   0  0  0  0  0  0  0  0  0  0  0  0
   -6.9920   11.7699  -13.1223 C   0  0  0  0  0  0  0  0  0  0  0  0
   -7.8210   10.0087  -11.7569 C   0  0  0  0  0  0  0  0  0  0  0  0
   -7.2407   10.6185  -10.5997 C   0  0  0  0  0  0  0  0  0  0  0  0
   -7.6132    9.7471   -9.5123 C   0  0  0  0  0  0  0  0  0  0  0  0
   -8.2794    8.7320   -9.9893 N   0  0  0  0  0  0  0  0  0  0  0  0
   -8.4144    8.8594  -11.3005 N   0  0  0  0  0  0  0  0  0  0  0  0
   -7.3370    9.8875   -8.0251 C   0  0  0  0  0  0  0  0  0  0  0  0
   -4.3570   13.7205  -11.5014 N   0  0  0  0  0  0  0  0  0  0  0  0
   -5.5485   13.6383  -12.1900 C   0  0  0  0  0  0  0  0  0  0  0  0
   -5.9462   14.5274  -12.9449 O   0  0  0  0  0  0  0  0  0  0  0  0
   -5.9602   10.4847   -7.7357 C   0  0  0  0  0  0  0  0  0  0  0  0
   -4.8090    9.7649   -8.0550 C   0  0  0  0  0  0  0  0  0  0  0  0
   -3.5517   10.3138   -7.8050 C   0  0  0  0  0  0  0  0  0  0  0  0
   -3.4444   11.5886   -7.2367 C   0  0  0  0  0  0  0  0  0  0  0  0
   -4.5954   12.3038   -6.9144 C   0  0  0  0  0  0  0  0  0  0  0  0
   -5.8508   11.7543   -7.1602 C   0  0  0  0  0  0  0  0  0  0  0  0
   -2.1010   12.1799   -6.9735 C   0  0  0  0  0  0  0  0  0  0  0  0
   -1.7694   13.4361   -6.4722 C   0  0  0  0  0  0  0  0  0  0  0  0
   -0.4342   13.4933   -6.4118 N   0  0  0  0  0  0  0  0  0  0  0  0
    0.1686   12.4094   -6.8087 N   0  0  0  0  0  0  0  0  0  0  0  0
   -0.8030   11.5907   -7.1765 C   0  0  0  0  0  0  0  0  0  0  0  0
    0.3824   14.6122   -5.9578 C   0  0  0  0  0  0  0  0  0  0  0  0
   -3.5015   14.9079  -11.6138 C   0  0  0  0  0  0  0  0  0  0  0  0
   -2.1980   14.4648  -10.9240 C   0  0  0  0  0  0  0  0  0  0  0  0
   -2.2178   12.9422  -10.9897 C   0  0  0  0  0  0  0  0  0  0  0  0
   -3.7152   12.5763  -10.8194 C   0  0  0  0  0  0  0  0  0  0  0  0
   -5.4719   11.7492  -12.1757 H   0  0  0  0  0  0  0  0  0  0  0  0
   -6.0752   12.2832   -9.8672 H   0  0  0  0  0  0  0  0  0  0  0  0
   -8.1926   10.1227  -13.8931 H   0  0  0  0  0  0  0  0  0  0  0  0
   -6.9001   12.2523  -14.0842 H   0  0  0  0  0  0  0  0  0  0  0  0
   -8.0373    9.5969   -7.2560 H   0  0  0  0  0  0  0  0  0  0  0  0
   -4.8913    8.7824   -8.4959 H   0  0  0  0  0  0  0  0  0  0  0  0
   -2.6604    9.7552   -8.0499 H   0  0  0  0  0  0  0  0  0  0  0  0
   -4.5139   13.2862   -6.4731 H   0  0  0  0  0  0  0  0  0  0  0  0
   -6.3768   12.4518   -7.8286 H   0  0  0  0  0  0  0  0  0  0  0  0
   -6.3724   11.7099   -6.1927 H   0  0  0  0  0  0  0  0  0  0  0  0
   -2.4594   14.2163   -6.1864 H   0  0  0  0  0  0  0  0  0  0  0  0
   -0.6424   10.6017   -7.5796 H   0  0  0  0  0  0  0  0  0  0  0  0
    1.4465   14.3426   -6.0284 H   0  0  0  0  0  0  0  0  0  0  0  0
    0.1842   15.4907   -6.5894 H   0  0  0  0  0  0  0  0  0  0  0  0
    0.1326   14.8481   -4.9128 H   0  0  0  0  0  0  0  0  0  0  0  0
   -3.3223   15.1673  -12.6676 H   0  0  0  0  0  0  0  0  0  0  0  0
   -3.9499   15.7683  -11.0955 H   0  0  0  0  0  0  0  0  0  0  0  0
   -1.3227   14.8639  -11.4575 H   0  0  0  0  0  0  0  0  0  0  0  0
   -2.1776   14.8069   -9.8787 H   0  0  0  0  0  0  0  0  0  0  0  0
   -1.8370   12.5881  -11.9590 H   0  0  0  0  0  0  0  0  0  0  0  0
   -1.6150   12.5084  -10.1783 H   0  0  0  0  0  0  0  0  0  0  0  0
   -4.0015   12.5244   -9.7586 H   0  0  0  0  0  0  0  0  0  0  0  0
   -3.9579   11.6231  -11.3118 H   0  0  0  0  0  0  0  0  0  0  0  0
  1  2  1  0  0  0  0
  1  4  1  0  0  0  0
  1 12  1  0  0  0  0
  2  6  2  0  0  0  0
  3  4  2  0  0  0  0
  3  5  1  0  0  0  0
  5  6  1  0  0  0  0
  5  9  2  0  0  0  0
  6  7  1  0  0  0  0
  7  8  2  0  0  0  0
  7 10  1  0  0  0  0
  8  9  1  0  0  0  0
 10 14  2  3  0  0  0
 11 12  1  0  0  0  0
 11 26  1  0  0  0  0
 11 29  1  0  0  0  0
 12 13  2  0  0  0  0
 14 15  1  0  0  0  0
 14 19  1  0  0  0  0
 15 16  2  0  0  0  0
 16 17  1  0  0  0  0
 17 18  2  0  0  0  0
 17 20  1  0  0  0  0
 18 19  1  0  0  0  0
 20 21  2  0  0  0  0
 20 24  1  0  0  0  0
 21 22  1  0  0  0  0
 22 23  1  0  0  0  0
 22 25  1  0  0  0  0
 23 24  2  0  0  0  0
 26 27  1  0  0  0  0
 27 28  1  0  0  0  0
 28 29  1  0  0  0  0
  1 30  1  0  0  0  0
  2 31  1  0  0  0  0
  3 32  1  0  0  0  0
  4 33  1  0  0  0  0
 10 34  1  0  0  0  0
 15 35  1  0  0  0  0
 16 36  1  0  0  0  0
 18 37  1  0  0  0  0
 19 38  1  0  0  0  0
 19 39  1  0  0  0  0
 21 40  1  0  0  0  0
 24 41  1  0  0  0  0
 25 42  1  0  0  0  0
 25 43  1  0  0  0  0
 25 44  1  0  0  0  0
 26 45  1  0  0  0  0
 26 46  1  0  0  0  0
 27 47  1  0  0  0  0
 27 48  1  0  0  0  0
 28 49  1  0  0  0  0
 28 50  1  0  0  0  0
 29 51  1  0  0  0  0
 29 52  1  0  0  0  0
M  END
> <Name>
37

> <IC50[uM]>
0.004

$$$$
37
  -OEChem-05192314333D
 Structure written by MMmdl.
 52 56  0     1  0  0  0  0  0999 V2000
   -6.3714   12.3591  -12.0053 C   0  0  0  0  0  0  0  0  0  0  0  0
   -6.5147   11.8055  -10.7304 C   0  0  0  0  0  0  0  0  0  0  0  0
   -7.7273   10.5756  -13.0301 C   0  0  0  0  0  0  0  0  0  0  0  0
   -6.9920   11.7699  -13.1223 C   0  0  0  0  0  0  0  0  0  0  0  0
   -7.8210   10.0087  -11.7569 C   0  0  0  0  0  0  0  0  0  0  0  0
   -7.2407   10.6185  -10.5997 C   0  0  3  0  0  0  0  0  0  0  0  0
   -7.6132    9.7471   -9.5123 C   0  0  0  0  0  0  0  0  0  0  0  0
   -8.2794    8.7320   -9.9893 N   0  0  0  0  0  0  0  0  0  0  0  0
   -8.4144    8.8594  -11.3005 N   0  0  0  0  0  0  0  0  0  0  0  0
   -7.3370    9.8875   -8.0251 C   0  0  0  0  0  0  0  0  0  0  0  0
   -4.3570   13.7205  -11.5014 N   0  0  0  0  0  0  0  0  0  0  0  0
   -5.5485   13.6383  -12.1900 C   0  0  0  0  0  0  0  0  0  0  0  0
   -5.9462   14.5274  -12.9449 O   0  0  0  0  0  0  0  0  0  0  0  0
   -5.9602   10.4847   -7.7357 C   0  0  0  0  0  0  0  0  0  0  0  0
   -4.8090    9.7649   -8.0550 C   0  0  0  0  0  0  0  0  0  0  0  0
   -3.5517   10.3138   -7.8050 C   0  0  0  0  0  0  0  0  0  0  0  0
   -3.4444   11.5886   -7.2367 C   0  0  0  0  0  0  0  0  0  0  0  0
   -4.5954   12.3038   -6.9144 C   0  0  0  0  0  0  0  0  0  0  0  0
   -5.8508   11.7543   -7.1602 C   0  0  0  0  0  0  0  0  0  0  0  0
   -2.1010   12.1799   -6.9735 C   0  0  0  0  0  0  0  0  0  0  0  0
   -1.7694   13.4361   -6.4722 C   0  0  0  0  0  0  0  0  0  0  0  0
   -0.4342   13.4933   -6.4118 N   0  0  0  0  0  0  0  0  0  0  0  0
    0.1686   12.4094   -6.8087 N   0  0  0  0  0  0  0  0  0  0  0  0
   -0.8030   11.5907   -7.1765 C   0  0  0  0  0  0  0  0  0  0  0  0
    0.3824   14.6122   -5.9578 C   0  0  0  0  0  0  0  0  0  0  0  0
   -3.5015   14.9079  -11.6138 C   0  0  0  0  0  0  0  0  0  0  0  0
   -2.1980   14.4648  -10.9240 C   0  0  0  0  0  0  0  0  0  0  0  0
   -2.2178   12.9422  -10.9897 C   0  0  0  0  0  0  0  0  0  0  0  0
   -3.7152   12.5763  -10.8194 C   0  0  0  0  0  0  0  0  0  0  0  0
   -6.0752   12.2832   -9.8672 H   0  0  0  0  0  0  0  0  0  0  0  0
   -8.1926   10.1227  -13.8931 H   0  0  0  0  0  0  0  0  0  0  0  0
   -6.9001   12.2523  -14.0842 H   0  0  0  0  0  0  0  0  0  0  0  0
   -6.3199   10.0365  -10.7528 H   0  0  0  0  0  0  0  0  0  0  0  0
   -8.0373    9.5969   -7.2560 H   0  0  0  0  0  0  0  0  0  0  0  0
   -4.8913    8.7824   -8.4959 H   0  0  0  0  0  0  0  0  0  0  0  0
   -2.6604    9.7552   -8.0499 H   0  0  0  0  0  0  0  0  0  0  0  0
   -4.5139   13.2862   -6.4731 H   0  0  0  0  0  0  0  0  0  0  0  0
   -6.3768   12.4518   -7.8286 H   0  0  0  0  0  0  0  0  0  0  0  0
   -6.3724   11.7099   -6.1927 H   0  0  0  0  0  0  0  0  0  0  0  0
   -2.4594   14.2163   -6.1864 H   0  0  0  0  0  0  0  0  0  0  0  0
   -0.6424   10.6017   -7.5796 H   0  0  0  0  0  0  0  0  0  0  0  0
    1.4465   14.3426   -6.0284 H   0  0  0  0  0  0  0  0  0  0  0  0
    0.1842   15.4907   -6.5894 H   0  0  0  0  0  0  0  0  0  0  0  0
    0.1326   14.8481   -4.9128 H   0  0  0  0  0  0  0  0  0  0  0  0
   -3.3223   15.1673  -12.6676 H   0  0  0  0  0  0  0  0  0  0  0  0
   -3.9499   15.7683  -11.0955 H   0  0  0  0  0  0  0  0  0  0  0  0
   -1.3227   14.8639  -11.4575 H   0  0  0  0  0  0  0  0  0  0  0  0
   -2.1776   14.8069   -9.8787 H   0  0  0  0  0  0  0  0  0  0  0  0
   -1.8370   12.5881  -11.9590 H   0  0  0  0  0  0  0  0  0  0  0  0
   -1.6150   12.5084  -10.1783 H   0  0  0  0  0  0  0  0  0  0  0  0
   -4.0015   12.5244   -9.7586 H   0  0  0  0  0  0  0  0  0  0  0  0
   -3.9579   11.6231  -11.3118 H   0  0  0  0  0  0  0  0  0  0  0  0
  1  2  2  0  0  0  0
  1  4  1  0  0  0  0
  1 12  1  0  0  0  0
  2  6  1  0  0  0  0
  3  4  2  0  0  0  0
  3  5  1  0  0  0  0
  5  6  1  0  0  0  0
  5  9  2  0  0  0  0
  6  7  1  0  0  0  0
  7  8  2  0  0  0  0
  7 10  1  0  0  0  0
  8  9  1  0  0  0  0
 10 14  2  3  0  0  0
 11 12  1  0  0  0  0
 11 26  1  0  0  0  0
 11 29  1  0  0  0  0
 12 13  2  0  0  0  0
 14 15  1  0  0  0  0
 14 19  1  0  0  0  0
 15 16  2  0  0  0  0
 16 17  1  0  0  0  0
 17 18  2  0  0  0  0
 17 20  1  0  0  0  0
 18 19  1  0  0  0  0
 20 21  2  0  0  0  0
 20 24  1  0  0  0  0
 21 22  1  0  0  0  0
 22 23  1  0  0  0  0
 22 25  1  0  0  0  0
 23 24  2  0  0  0  0
 26 27  1  0  0  0  0
 27 28  1  0  0  0  0
 28 29  1  0  0  0  0
  2 30  1  0  0  0  0
  3 31  1  0  0  0  0
  4 32  1  0  0  0  0
  6 33  1  0  0  0  0
 10 34  1  0  0  0  0
 15 35  1  0  0  0  0
 16 36  1  0  0  0  0
 18 37  1  0  0  0  0
 19 38  1  0  0  0  0
 19 39  1  0  0  0  0
 21 40  1  0  0  0  0
 24 41  1  0  0  0  0
 25 42  1  0  0  0  0
 25 43  1  0  0  0  0
 25 44  1  0  0  0  0
 26 45  1  0  0  0  0
 26 46  1  0  0  0  0
 27 47  1  0  0  0  0
 27 48  1  0  0  0  0
 28 49  1  0  0  0  0
 28 50  1  0  0  0  0
 29 51  1  0  0  0  0
 29 52  1  0  0  0  0
M  END
> <Name>
37

> <IC50[uM]>
0.004

$$$$
37
  -OEChem-05192314333D
 Structure written by MMmdl.
 52 56  0     0  0  0  0  0  0999 V2000
   -6.3714   12.3591  -12.0053 C   0  0  0  0  0  0  0  0  0  0  0  0
   -6.5147   11.8055  -10.7304 C   0  0  0  0  0  0  0  0  0  0  0  0
   -7.7273   10.5756  -13.0301 C   0  0  0  0  0  0  0  0  0  0  0  0
   -6.9920   11.7699  -13.1223 C   0  0  0  0  0  0  0  0  0  0  0  0
   -7.8210   10.0087  -11.7569 C   0  0  0  0  0  0  0  0  0  0  0  0
   -7.2407   10.6185  -10.5997 C   0  0  0  0  0  0  0  0  0  0  0  0
   -7.6132    9.7471   -9.5123 C   0  0  0  0  0  0  0  0  0  0  0  0
   -8.2794    8.7320   -9.9893 N   0  0  0  0  0  0  0  0  0  0  0  0
   -8.4144    8.8594  -11.3005 N   0  0  0  0  0  0  0  0  0  0  0  0
   -7.3370    9.8875   -8.0251 C   0  0  0  0  0  0  0  0  0  0  0  0
   -4.3570   13.7205  -11.5014 N   0  0  0  0  0  0  0  0  0  0  0  0
   -5.5485   13.6383  -12.1900 C   0  0  0  0  0  0  0  0  0  0  0  0
   -5.9462   14.5274  -12.9449 O   0  0  0  0  0  0  0  0  0  0  0  0
   -5.9602   10.4847   -7.7357 C   0  0  0  0  0  0  0  0  0  0  0  0
   -4.8090    9.7649   -8.0550 C   0  0  0  0  0  0  0  0  0  0  0  0
   -3.5517   10.3138   -7.8050 C   0  0  0  0  0  0  0  0  0  0  0  0
   -3.4444   11.5886   -7.2367 C   0  0  0  0  0  0  0  0  0  0  0  0
   -4.5954   12.3038   -6.9144 C   0  0  0  0  0  0  0  0  0  0  0  0
   -5.8508   11.7543   -7.1602 C   0  0  0  0  0  0  0  0  0  0  0  0
   -2.1010   12.1799   -6.9735 C   0  0  0  0  0  0  0  0  0  0  0  0
   -1.7694   13.4361   -6.4722 C   0  0  0  0  0  0  0  0  0  0  0  0
   -0.4342   13.4933   -6.4118 N   0  0  0  0  0  0  0  0  0  0  0  0
    0.1686   12.4094   -6.8087 N   0  0  0  0  0  0  0  0  0  0  0  0
   -0.8030   11.5907   -7.1765 C   0  0  0  0  0  0  0  0  0  0  0  0
    0.3824   14.6122   -5.9578 C   0  0  0  0  0  0  0  0  0  0  0  0
   -3.5015   14.9079  -11.6138 C   0  0  0  0  0  0  0  0  0  0  0  0
   -2.1980   14.4648  -10.9240 C   0  0  0  0  0  0  0  0  0  0  0  0
   -2.2178   12.9422  -10.9897 C   0  0  0  0  0  0  0  0  0  0  0  0
   -3.7152   12.5763  -10.8194 C   0  0  0  0  0  0  0  0  0  0  0  0
   -6.0752   12.2832   -9.8672 H   0  0  0  0  0  0  0  0  0  0  0  0
   -8.7488   10.7817  -13.3823 H   0  0  0  0  0  0  0  0  0  0  0  0
   -7.2530    9.8368  -13.6929 H   0  0  0  0  0  0  0  0  0  0  0  0
   -6.9001   12.2523  -14.0842 H   0  0  0  0  0  0  0  0  0  0  0  0
   -8.0373    9.5969   -7.2560 H   0  0  0  0  0  0  0  0  0  0  0  0
   -4.8913    8.7824   -8.4959 H   0  0  0  0  0  0  0  0  0  0  0  0
   -2.6604    9.7552   -8.0499 H   0  0  0  0  0  0  0  0  0  0  0  0
   -4.5139   13.2862   -6.4731 H   0  0  0  0  0  0  0  0  0  0  0  0
   -6.3768   12.4518   -7.8286 H   0  0  0  0  0  0  0  0  0  0  0  0
   -6.3724   11.7099   -6.1927 H   0  0  0  0  0  0  0  0  0  0  0  0
   -2.4594   14.2163   -6.1864 H   0  0  0  0  0  0  0  0  0  0  0  0
   -0.6424   10.6017   -7.5796 H   0  0  0  0  0  0  0  0  0  0  0  0
    1.4465   14.3426   -6.0284 H   0  0  0  0  0  0  0  0  0  0  0  0
    0.1842   15.4907   -6.5894 H   0  0  0  0  0  0  0  0  0  0  0  0
    0.1326   14.8481   -4.9128 H   0  0  0  0  0  0  0  0  0  0  0  0
   -3.3223   15.1673  -12.6676 H   0  0  0  0  0  0  0  0  0  0  0  0
   -3.9499   15.7683  -11.0955 H   0  0  0  0  0  0  0  0  0  0  0  0
   -1.3227   14.8639  -11.4575 H   0  0  0  0  0  0  0  0  0  0  0  0
   -2.1776   14.8069   -9.8787 H   0  0  0  0  0  0  0  0  0  0  0  0
   -1.8370   12.5881  -11.9590 H   0  0  0  0  0  0  0  0  0  0  0  0
   -1.6150   12.5084  -10.1783 H   0  0  0  0  0  0  0  0  0  0  0  0
   -4.0015   12.5244   -9.7586 H   0  0  0  0  0  0  0  0  0  0  0  0
   -3.9579   11.6231  -11.3118 H   0  0  0  0  0  0  0  0  0  0  0  0
  1  2  1  0  0  0  0
  1  4  2  0  0  0  0
  1 12  1  0  0  0  0
  2  6  2  0  0  0  0
  3  4  1  0  0  0  0
  3  5  1  0  0  0  0
  5  6  1  0  0  0  0
  5  9  2  0  0  0  0
  6  7  1  0  0  0  0
  7  8  2  0  0  0  0
  7 10  1  0  0  0  0
  8  9  1  0  0  0  0
 10 14  2  3  0  0  0
 11 12  1  0  0  0  0
 11 26  1  0  0  0  0
 11 29  1  0  0  0  0
 12 13  2  0  0  0  0
 14 15  1  0  0  0  0
 14 19  1  0  0  0  0
 15 16  2  0  0  0  0
 16 17  1  0  0  0  0
 17 18  2  0  0  0  0
 17 20  1  0  0  0  0
 18 19  1  0  0  0  0
 20 21  2  0  0  0  0
 20 24  1  0  0  0  0
 21 22  1  0  0  0  0
 22 23  1  0  0  0  0
 22 25  1  0  0  0  0
 23 24  2  0  0  0  0
 26 27  1  0  0  0  0
 27 28  1  0  0  0  0
 28 29  1  0  0  0  0
  2 30  1  0  0  0  0
  3 31  1  0  0  0  0
  3 32  1  0  0  0  0
  4 33  1  0  0  0  0
 10 34  1  0  0  0  0
 15 35  1  0  0  0  0
 16 36  1  0  0  0  0
 18 37  1  0  0  0  0
 19 38  1  0  0  0  0
 19 39  1  0  0  0  0
 21 40  1  0  0  0  0
 24 41  1  0  0  0  0
 25 42  1  0  0  0  0
 25 43  1  0  0  0  0
 25 44  1  0  0  0  0
 26 45  1  0  0  0  0
 26 46  1  0  0  0  0
 27 47  1  0  0  0  0
 27 48  1  0  0  0  0
 28 49  1  0  0  0  0
 28 50  1  0  0  0  0
 29 51  1  0  0  0  0
 29 52  1  0  0  0  0
M  END
> <Name>
37

> <IC50[uM]>
0.004

$$$$
37
  -OEChem-05192314333D
 Structure written by MMmdl.
 52 56  0     1  0  0  0  0  0999 V2000
   -6.3714   12.3591  -12.0053 C   0  0  0  0  0  0  0  0  0  0  0  0
   -6.5147   11.8055  -10.7304 C   0  0  0  0  0  0  0  0  0  0  0  0
   -7.7273   10.5756  -13.0301 C   0  0  0  0  0  0  0  0  0  0  0  0
   -6.9920   11.7699  -13.1223 C   0  0  0  0  0  0  0  0  0  0  0  0
   -7.8210   10.0087  -11.7569 C   0  0  3  0  0  0  0  0  0  0  0  0
   -7.2407   10.6185  -10.5997 C   0  0  0  0  0  0  0  0  0  0  0  0
   -7.6132    9.7471   -9.5123 C   0  0  0  0  0  0  0  0  0  0  0  0
   -8.2794    8.7320   -9.9893 N   0  0  0  0  0  0  0  0  0  0  0  0
   -8.4144    8.8594  -11.3005 N   0  0  0  0  0  0  0  0  0  0  0  0
   -7.3370    9.8875   -8.0251 C   0  0  0  0  0  0  0  0  0  0  0  0
   -4.3570   13.7205  -11.5014 N   0  0  0  0  0  0  0  0  0  0  0  0
   -5.5485   13.6383  -12.1900 C   0  0  0  0  0  0  0  0  0  0  0  0
   -5.9462   14.5274  -12.9449 O   0  0  0  0  0  0  0  0  0  0  0  0
   -5.9602   10.4847   -7.7357 C   0  0  0  0  0  0  0  0  0  0  0  0
   -4.8090    9.7649   -8.0550 C   0  0  0  0  0  0  0  0  0  0  0  0
   -3.5517   10.3138   -7.8050 C   0  0  0  0  0  0  0  0  0  0  0  0
   -3.4444   11.5886   -7.2367 C   0  0  0  0  0  0  0  0  0  0  0  0
   -4.5954   12.3038   -6.9144 C   0  0  0  0  0  0  0  0  0  0  0  0
   -5.8508   11.7543   -7.1602 C   0  0  0  0  0  0  0  0  0  0  0  0
   -2.1010   12.1799   -6.9735 C   0  0  0  0  0  0  0  0  0  0  0  0
   -1.7694   13.4361   -6.4722 C   0  0  0  0  0  0  0  0  0  0  0  0
   -0.4342   13.4933   -6.4118 N   0  0  0  0  0  0  0  0  0  0  0  0
    0.1686   12.4094   -6.8087 N   0  0  0  0  0  0  0  0  0  0  0  0
   -0.8030   11.5907   -7.1765 C   0  0  0  0  0  0  0  0  0  0  0  0
    0.3824   14.6122   -5.9578 C   0  0  0  0  0  0  0  0  0  0  0  0
   -3.5015   14.9079  -11.6138 C   0  0  0  0  0  0  0  0  0  0  0  0
   -2.1980   14.4648  -10.9240 C   0  0  0  0  0  0  0  0  0  0  0  0
   -2.2178   12.9422  -10.9897 C   0  0  0  0  0  0  0  0  0  0  0  0
   -3.7152   12.5763  -10.8194 C   0  0  0  0  0  0  0  0  0  0  0  0
   -6.0752   12.2832   -9.8672 H   0  0  0  0  0  0  0  0  0  0  0  0
   -8.1926   10.1227  -13.8931 H   0  0  0  0  0  0  0  0  0  0  0  0
   -6.9001   12.2523  -14.0842 H   0  0  0  0  0  0  0  0  0  0  0  0
   -6.8867    9.4559  -11.9342 H   0  0  0  0  0  0  0  0  0  0  0  0
   -8.0373    9.5969   -7.2560 H   0  0  0  0  0  0  0  0  0  0  0  0
   -4.8913    8.7824   -8.4959 H   0  0  0  0  0  0  0  0  0  0  0  0
   -2.6604    9.7552   -8.0499 H   0  0  0  0  0  0  0  0  0  0  0  0
   -3.4459   12.0373   -8.2410 H   0  0  0  0  0  0  0  0  0  0  0  0
   -4.5139   13.2862   -6.4731 H   0  0  0  0  0  0  0  0  0  0  0  0
   -6.7415   12.3096   -6.9059 H   0  0  0  0  0  0  0  0  0  0  0  0
   -2.4594   14.2163   -6.1864 H   0  0  0  0  0  0  0  0  0  0  0  0
   -0.6424   10.6017   -7.5796 H   0  0  0  0  0  0  0  0  0  0  0  0
    1.4465   14.3426   -6.0284 H   0  0  0  0  0  0  0  0  0  0  0  0
    0.1842   15.4907   -6.5894 H   0  0  0  0  0  0  0  0  0  0  0  0
    0.1326   14.8481   -4.9128 H   0  0  0  0  0  0  0  0  0  0  0  0
   -3.3223   15.1673  -12.6676 H   0  0  0  0  0  0  0  0  0  0  0  0
   -3.9499   15.7683  -11.0955 H   0  0  0  0  0  0  0  0  0  0  0  0
   -1.3227   14.8639  -11.4575 H   0  0  0  0  0  0  0  0  0  0  0  0
   -2.1776   14.8069   -9.8787 H   0  0  0  0  0  0  0  0  0  0  0  0
   -1.8370   12.5881  -11.9590 H   0  0  0  0  0  0  0  0  0  0  0  0
   -1.6150   12.5084  -10.1783 H   0  0  0  0  0  0  0  0  0  0  0  0
   -4.0015   12.5244   -9.7586 H   0  0  0  0  0  0  0  0  0  0  0  0
   -3.9579   11.6231  -11.3118 H   0  0  0  0  0  0  0  0  0  0  0  0
  1  2  2  0  0  0  0
  1  4  1  0  0  0  0
  1 12  1  0  0  0  0
  2  6  1  0  0  0  0
  3  4  2  0  0  0  0
  3  5  1  0  0  0  0
  5  6  1  0  0  0  0
  5  9  1  0  0  0  0
  6  7  2  0  0  0  0
  7  8  1  0  0  0  0
  7 10  1  0  0  0  0
  8  9  2  0  0  0  0
 10 14  2  0  0  0  0
 11 12  1  0  0  0  0
 11 26  1  0  0  0  0
 11 29  1  0  0  0  0
 12 13  2  0  0  0  0
 14 15  1  0  0  0  0
 14 19  1  0  0  0  0
 15 16  2  0  0  0  0
 16 17  1  0  0  0  0
 17 18  1  0  0  0  0
 17 20  1  0  0  0  0
 18 19  2  0  0  0  0
 20 21  2  0  0  0  0
 20 24  1  0  0  0  0
 21 22  1  0  0  0  0
 22 23  1  0  0  0  0
 22 25  1  0  0  0  0
 23 24  2  0  0  0  0
 26 27  1  0  0  0  0
 27 28  1  0  0  0  0
 28 29  1  0  0  0  0
  2 30  1  0  0  0  0
  3 31  1  0  0  0  0
  4 32  1  0  0  0  0
  5 33  1  0  0  0  0
 10 34  1  0  0  0  0
 15 35  1  0  0  0  0
 16 36  1  0  0  0  0
 17 37  1  0  0  0  0
 18 38  1  0  0  0  0
 19 39  1  0  0  0  0
 21 40  1  0  0  0  0
 24 41  1  0  0  0  0
 25 42  1  0  0  0  0
 25 43  1  0  0  0  0
 25 44  1  0  0  0  0
 26 45  1  0  0  0  0
 26 46  1  0  0  0  0
 27 47  1  0  0  0  0
 27 48  1  0  0  0  0
 28 49  1  0  0  0  0
 28 50  1  0  0  0  0
 29 51  1  0  0  0  0
 29 52  1  0  0  0  0
M  END
> <Name>
37

> <IC50[uM]>
0.004

$$$$
37
  -OEChem-05192314333D
 Structure written by MMmdl.
 52 56  0     0  0  0  0  0  0999 V2000
   -6.3714   12.3591  -12.0053 C   0  0  0  0  0  0  0  0  0  0  0  0
   -6.5147   11.8055  -10.7304 C   0  0  0  0  0  0  0  0  0  0  0  0
   -7.7273   10.5756  -13.0301 C   0  0  0  0  0  0  0  0  0  0  0  0
   -6.9920   11.7699  -13.1223 C   0  0  0  0  0  0  0  0  0  0  0  0
   -7.8210   10.0087  -11.7569 C   0  0  0  0  0  0  0  0  0  0  0  0
   -7.2407   10.6185  -10.5997 C   0  0  0  0  0  0  0  0  0  0  0  0
   -7.6132    9.7471   -9.5123 C   0  0  0  0  0  0  0  0  0  0  0  0
   -8.2794    8.7320   -9.9893 N   0  0  0  0  0  0  0  0  0  0  0  0
   -8.4144    8.8594  -11.3005 N   0  0  0  0  0  0  0  0  0  0  0  0
   -7.3370    9.8875   -8.0251 C   0  0  0  0  0  0  0  0  0  0  0  0
   -4.3570   13.7205  -11.5014 N   0  0  0  0  0  0  0  0  0  0  0  0
   -5.5485   13.6383  -12.1900 C   0  0  0  0  0  0  0  0  0  0  0  0
   -5.9462   14.5274  -12.9449 O   0  0  0  0  0  0  0  0  0  0  0  0
   -5.9602   10.4847   -7.7357 C   0  0  0  0  0  0  0  0  0  0  0  0
   -4.8090    9.7649   -8.0550 C   0  0  0  0  0  0  0  0  0  0  0  0
   -3.5517   10.3138   -7.8050 C   0  0  0  0  0  0  0  0  0  0  0  0
   -3.4444   11.5886   -7.2367 C   0  0  0  0  0  0  0  0  0  0  0  0
   -4.5954   12.3038   -6.9144 C   0  0  0  0  0  0  0  0  0  0  0  0
   -5.8508   11.7543   -7.1602 C   0  0  0  0  0  0  0  0  0  0  0  0
   -2.1010   12.1799   -6.9735 C   0  0  0  0  0  0  0  0  0  0  0  0
   -1.7694   13.4361   -6.4722 C   0  0  0  0  0  0  0  0  0  0  0  0
   -0.4342   13.4933   -6.4118 N   0  0  0  0  0  0  0  0  0  0  0  0
    0.1686   12.4094   -6.8087 N   0  0  0  0  0  0  0  0  0  0  0  0
   -0.8030   11.5907   -7.1765 C   0  0  0  0  0  0  0  0  0  0  0  0
    0.3824   14.6122   -5.9578 C   0  0  0  0  0  0  0  0  0  0  0  0
   -3.5015   14.9079  -11.6138 C   0  0  0  0  0  0  0  0  0  0  0  0
   -2.1980   14.4648  -10.9240 C   0  0  0  0  0  0  0  0  0  0  0  0
   -2.2178   12.9422  -10.9897 C   0  0  0  0  0  0  0  0  0  0  0  0
   -3.7152   12.5763  -10.8194 C   0  0  0  0  0  0  0  0  0  0  0  0
   -6.0752   12.2832   -9.8672 H   0  0  0  0  0  0  0  0  0  0  0  0
   -8.1926   10.1227  -13.8931 H   0  0  0  0  0  0  0  0  0  0  0  0
   -7.6839   12.5256  -13.5225 H   0  0  0  0  0  0  0  0  0  0  0  0
   -6.1920   11.5815  -13.8534 H   0  0  0  0  0  0  0  0  0  0  0  0
   -8.0373    9.5969   -7.2560 H   0  0  0  0  0  0  0  0  0  0  0  0
   -4.8913    8.7824   -8.4959 H   0  0  0  0  0  0  0  0  0  0  0  0
   -2.6604    9.7552   -8.0499 H   0  0  0  0  0  0  0  0  0  0  0  0
   -3.4459   12.0373   -8.2410 H   0  0  0  0  0  0  0  0  0  0  0  0
   -4.5139   13.2862   -6.4731 H   0  0  0  0  0  0  0  0  0  0  0  0
   -6.7415   12.3096   -6.9059 H   0  0  0  0  0  0  0  0  0  0  0  0
   -2.4594   14.2163   -6.1864 H   0  0  0  0  0  0  0  0  0  0  0  0
   -0.6424   10.6017   -7.5796 H   0  0  0  0  0  0  0  0  0  0  0  0
    1.4465   14.3426   -6.0284 H   0  0  0  0  0  0  0  0  0  0  0  0
    0.1842   15.4907   -6.5894 H   0  0  0  0  0  0  0  0  0  0  0  0
    0.1326   14.8481   -4.9128 H   0  0  0  0  0  0  0  0  0  0  0  0
   -3.3223   15.1673  -12.6676 H   0  0  0  0  0  0  0  0  0  0  0  0
   -3.9499   15.7683  -11.0955 H   0  0  0  0  0  0  0  0  0  0  0  0
   -1.3227   14.8639  -11.4575 H   0  0  0  0  0  0  0  0  0  0  0  0
   -2.1776   14.8069   -9.8787 H   0  0  0  0  0  0  0  0  0  0  0  0
   -1.8370   12.5881  -11.9590 H   0  0  0  0  0  0  0  0  0  0  0  0
   -1.6150   12.5084  -10.1783 H   0  0  0  0  0  0  0  0  0  0  0  0
   -4.0015   12.5244   -9.7586 H   0  0  0  0  0  0  0  0  0  0  0  0
   -3.9579   11.6231  -11.3118 H   0  0  0  0  0  0  0  0  0  0  0  0
  1  2  2  0  0  0  0
  1  4  1  0  0  0  0
  1 12  1  0  0  0  0
  2  6  1  0  0  0  0
  3  4  1  0  0  0  0
  3  5  2  0  0  0  0
  5  6  1  0  0  0  0
  5  9  1  0  0  0  0
  6  7  2  0  0  0  0
  7  8  1  0  0  0  0
  7 10  1  0  0  0  0
  8  9  2  0  0  0  0
 10 14  2  0  0  0  0
 11 12  1  0  0  0  0
 11 26  1  0  0  0  0
 11 29  1  0  0  0  0
 12 13  2  0  0  0  0
 14 15  1  0  0  0  0
 14 19  1  0  0  0  0
 15 16  2  0  0  0  0
 16 17  1  0  0  0  0
 17 18  1  0  0  0  0
 17 20  1  0  0  0  0
 18 19  2  0  0  0  0
 20 21  2  0  0  0  0
 20 24  1  0  0  0  0
 21 22  1  0  0  0  0
 22 23  1  0  0  0  0
 22 25  1  0  0  0  0
 23 24  2  0  0  0  0
 26 27  1  0  0  0  0
 27 28  1  0  0  0  0
 28 29  1  0  0  0  0
  2 30  1  0  0  0  0
  3 31  1  0  0  0  0
  4 32  1  0  0  0  0
  4 33  1  0  0  0  0
 10 34  1  0  0  0  0
 15 35  1  0  0  0  0
 16 36  1  0  0  0  0
 17 37  1  0  0  0  0
 18 38  1  0  0  0  0
 19 39  1  0  0  0  0
 21 40  1  0  0  0  0
 24 41  1  0  0  0  0
 25 42  1  0  0  0  0
 25 43  1  0  0  0  0
 25 44  1  0  0  0  0
 26 45  1  0  0  0  0
 26 46  1  0  0  0  0
 27 47  1  0  0  0  0
 27 48  1  0  0  0  0
 28 49  1  0  0  0  0
 28 50  1  0  0  0  0
 29 51  1  0  0  0  0
 29 52  1  0  0  0  0
M  END
> <Name>
37

> <IC50[uM]>
0.004

$$$$
37
  -OEChem-05192314333D
 Structure written by MMmdl.
 52 56  0     1  0  0  0  0  0999 V2000
   -6.3714   12.3591  -12.0053 C   0  0  0  0  0  0  0  0  0  0  0  0
   -6.5147   11.8055  -10.7304 C   0  0  0  0  0  0  0  0  0  0  0  0
   -7.7273   10.5756  -13.0301 C   0  0  0  0  0  0  0  0  0  0  0  0
   -6.9920   11.7699  -13.1223 C   0  0  0  0  0  0  0  0  0  0  0  0
   -7.8210   10.0087  -11.7569 C   0  0  3  0  0  0  0  0  0  0  0  0
   -7.2407   10.6185  -10.5997 C   0  0  0  0  0  0  0  0  0  0  0  0
   -7.6132    9.7471   -9.5123 C   0  0  0  0  0  0  0  0  0  0  0  0
   -8.2794    8.7320   -9.9893 N   0  0  0  0  0  0  0  0  0  0  0  0
   -8.4144    8.8594  -11.3005 N   0  0  0  0  0  0  0  0  0  0  0  0
   -7.3370    9.8875   -8.0251 C   0  0  0  0  0  0  0  0  0  0  0  0
   -4.3570   13.7205  -11.5014 N   0  0  0  0  0  0  0  0  0  0  0  0
   -5.5485   13.6383  -12.1900 C   0  0  0  0  0  0  0  0  0  0  0  0
   -5.9462   14.5274  -12.9449 O   0  0  0  0  0  0  0  0  0  0  0  0
   -5.9602   10.4847   -7.7357 C   0  0  0  0  0  0  0  0  0  0  0  0
   -4.8090    9.7649   -8.0550 C   0  0  0  0  0  0  0  0  0  0  0  0
   -3.5517   10.3138   -7.8050 C   0  0  0  0  0  0  0  0  0  0  0  0
   -3.4444   11.5886   -7.2367 C   0  0  0  0  0  0  0  0  0  0  0  0
   -4.5954   12.3038   -6.9144 C   0  0  0  0  0  0  0  0  0  0  0  0
   -5.8508   11.7543   -7.1602 C   0  0  0  0  0  0  0  0  0  0  0  0
   -2.1010   12.1799   -6.9735 C   0  0  0  0  0  0  0  0  0  0  0  0
   -1.7694   13.4361   -6.4722 C   0  0  0  0  0  0  0  0  0  0  0  0
   -0.4342   13.4933   -6.4118 N   0  0  0  0  0  0  0  0  0  0  0  0
    0.1686   12.4094   -6.8087 N   0  0  0  0  0  0  0  0  0  0  0  0
   -0.8030   11.5907   -7.1765 C   0  0  0  0  0  0  0  0  0  0  0  0
    0.3824   14.6122   -5.9578 C   0  0  0  0  0  0  0  0  0  0  0  0
   -3.5015   14.9079  -11.6138 C   0  0  0  0  0  0  0  0  0  0  0  0
   -2.1980   14.4648  -10.9240 C   0  0  0  0  0  0  0  0  0  0  0  0
   -2.2178   12.9422  -10.9897 C   0  0  0  0  0  0  0  0  0  0  0  0
   -3.7152   12.5763  -10.8194 C   0  0  0  0  0  0  0  0  0  0  0  0
   -6.0752   12.2832   -9.8672 H   0  0  0  0  0  0  0  0  0  0  0  0
   -8.1926   10.1227  -13.8931 H   0  0  0  0  0  0  0  0  0  0  0  0
   -6.9001   12.2523  -14.0842 H   0  0  0  0  0  0  0  0  0  0  0  0
   -6.8867    9.4559  -11.9342 H   0  0  0  0  0  0  0  0  0  0  0  0
   -8.0373    9.5969   -7.2560 H   0  0  0  0  0  0  0  0  0  0  0  0
   -4.8913    8.7824   -8.4959 H   0  0  0  0  0  0  0  0  0  0  0  0
   -2.6604    9.7552   -8.0499 H   0  0  0  0  0  0  0  0  0  0  0  0
   -4.5139   13.2862   -6.4731 H   0  0  0  0  0  0  0  0  0  0  0  0
   -6.3768   12.4518   -7.8286 H   0  0  0  0  0  0  0  0  0  0  0  0
   -6.3724   11.7099   -6.1927 H   0  0  0  0  0  0  0  0  0  0  0  0
   -2.4594   14.2163   -6.1864 H   0  0  0  0  0  0  0  0  0  0  0  0
   -0.6424   10.6017   -7.5796 H   0  0  0  0  0  0  0  0  0  0  0  0
    1.4465   14.3426   -6.0284 H   0  0  0  0  0  0  0  0  0  0  0  0
    0.1842   15.4907   -6.5894 H   0  0  0  0  0  0  0  0  0  0  0  0
    0.1326   14.8481   -4.9128 H   0  0  0  0  0  0  0  0  0  0  0  0
   -3.3223   15.1673  -12.6676 H   0  0  0  0  0  0  0  0  0  0  0  0
   -3.9499   15.7683  -11.0955 H   0  0  0  0  0  0  0  0  0  0  0  0
   -1.3227   14.8639  -11.4575 H   0  0  0  0  0  0  0  0  0  0  0  0
   -2.1776   14.8069   -9.8787 H   0  0  0  0  0  0  0  0  0  0  0  0
   -1.8370   12.5881  -11.9590 H   0  0  0  0  0  0  0  0  0  0  0  0
   -1.6150   12.5084  -10.1783 H   0  0  0  0  0  0  0  0  0  0  0  0
   -4.0015   12.5244   -9.7586 H   0  0  0  0  0  0  0  0  0  0  0  0
   -3.9579   11.6231  -11.3118 H   0  0  0  0  0  0  0  0  0  0  0  0
  1  2  2  0  0  0  0
  1  4  1  0  0  0  0
  1 12  1  0  0  0  0
  2  6  1  0  0  0  0
  3  4  2  0  0  0  0
  3  5  1  0  0  0  0
  5  6  1  0  0  0  0
  5  9  1  0  0  0  0
  6  7  2  0  0  0  0
  7  8  1  0  0  0  0
  7 10  1  0  0  0  0
  8  9  2  0  0  0  0
 10 14  2  3  0  0  0
 11 12  1  0  0  0  0
 11 26  1  0  0  0  0
 11 29  1  0  0  0  0
 12 13  2  0  0  0  0
 14 15  1  0  0  0  0
 14 19  1  0  0  0  0
 15 16  2  0  0  0  0
 16 17  1  0  0  0  0
 17 18  2  0  0  0  0
 17 20  1  0  0  0  0
 18 19  1  0  0  0  0
 20 21  2  0  0  0  0
 20 24  1  0  0  0  0
 21 22  1  0  0  0  0
 22 23  1  0  0  0  0
 22 25  1  0  0  0  0
 23 24  2  0  0  0  0
 26 27  1  0  0  0  0
 27 28  1  0  0  0  0
 28 29  1  0  0  0  0
  2 30  1  0  0  0  0
  3 31  1  0  0  0  0
  4 32  1  0  0  0  0
  5 33  1  0  0  0  0
 10 34  1  0  0  0  0
 15 35  1  0  0  0  0
 16 36  1  0  0  0  0
 18 37  1  0  0  0  0
 19 38  1  0  0  0  0
 19 39  1  0  0  0  0
 21 40  1  0  0  0  0
 24 41  1  0  0  0  0
 25 42  1  0  0  0  0
 25 43  1  0  0  0  0
 25 44  1  0  0  0  0
 26 45  1  0  0  0  0
 26 46  1  0  0  0  0
 27 47  1  0  0  0  0
 27 48  1  0  0  0  0
 28 49  1  0  0  0  0
 28 50  1  0  0  0  0
 29 51  1  0  0  0  0
 29 52  1  0  0  0  0
M  END
> <Name>
37

> <IC50[uM]>
0.004

$$$$
37
  -OEChem-05192314333D
 Structure written by MMmdl.
 52 56  0     0  0  0  0  0  0999 V2000
   -6.3714   12.3591  -12.0053 C   0  0  0  0  0  0  0  0  0  0  0  0
   -6.5147   11.8055  -10.7304 C   0  0  0  0  0  0  0  0  0  0  0  0
   -7.7273   10.5756  -13.0301 C   0  0  0  0  0  0  0  0  0  0  0  0
   -6.9920   11.7699  -13.1223 C   0  0  0  0  0  0  0  0  0  0  0  0
   -7.8210   10.0087  -11.7569 C   0  0  0  0  0  0  0  0  0  0  0  0
   -7.2407   10.6185  -10.5997 C   0  0  0  0  0  0  0  0  0  0  0  0
   -7.6132    9.7471   -9.5123 C   0  0  0  0  0  0  0  0  0  0  0  0
   -8.2794    8.7320   -9.9893 N   0  0  0  0  0  0  0  0  0  0  0  0
   -8.4144    8.8594  -11.3005 N   0  0  0  0  0  0  0  0  0  0  0  0
   -7.3370    9.8875   -8.0251 C   0  0  0  0  0  0  0  0  0  0  0  0
   -4.3570   13.7205  -11.5014 N   0  0  0  0  0  0  0  0  0  0  0  0
   -5.5485   13.6383  -12.1900 C   0  0  0  0  0  0  0  0  0  0  0  0
   -5.9462   14.5274  -12.9449 O   0  0  0  0  0  0  0  0  0  0  0  0
   -5.9602   10.4847   -7.7357 C   0  0  0  0  0  0  0  0  0  0  0  0
   -4.8090    9.7649   -8.0550 C   0  0  0  0  0  0  0  0  0  0  0  0
   -3.5517   10.3138   -7.8050 C   0  0  0  0  0  0  0  0  0  0  0  0
   -3.4444   11.5886   -7.2367 C   0  0  0  0  0  0  0  0  0  0  0  0
   -4.5954   12.3038   -6.9144 C   0  0  0  0  0  0  0  0  0  0  0  0
   -5.8508   11.7543   -7.1602 C   0  0  0  0  0  0  0  0  0  0  0  0
   -2.1010   12.1799   -6.9735 C   0  0  0  0  0  0  0  0  0  0  0  0
   -1.7694   13.4361   -6.4722 C   0  0  0  0  0  0  0  0  0  0  0  0
   -0.4342   13.4933   -6.4118 N   0  0  0  0  0  0  0  0  0  0  0  0
    0.1686   12.4094   -6.8087 N   0  0  0  0  0  0  0  0  0  0  0  0
   -0.8030   11.5907   -7.1765 C   0  0  0  0  0  0  0  0  0  0  0  0
    0.3824   14.6122   -5.9578 C   0  0  0  0  0  0  0  0  0  0  0  0
   -3.5015   14.9079  -11.6138 C   0  0  0  0  0  0  0  0  0  0  0  0
   -2.1980   14.4648  -10.9240 C   0  0  0  0  0  0  0  0  0  0  0  0
   -2.2178   12.9422  -10.9897 C   0  0  0  0  0  0  0  0  0  0  0  0
   -3.7152   12.5763  -10.8194 C   0  0  0  0  0  0  0  0  0  0  0  0
   -6.0752   12.2832   -9.8672 H   0  0  0  0  0  0  0  0  0  0  0  0
   -8.1926   10.1227  -13.8931 H   0  0  0  0  0  0  0  0  0  0  0  0
   -7.6839   12.5256  -13.5225 H   0  0  0  0  0  0  0  0  0  0  0  0
   -6.1920   11.5815  -13.8534 H   0  0  0  0  0  0  0  0  0  0  0  0
   -8.0373    9.5969   -7.2560 H   0  0  0  0  0  0  0  0  0  0  0  0
   -4.8913    8.7824   -8.4959 H   0  0  0  0  0  0  0  0  0  0  0  0
   -2.6604    9.7552   -8.0499 H   0  0  0  0  0  0  0  0  0  0  0  0
   -4.5139   13.2862   -6.4731 H   0  0  0  0  0  0  0  0  0  0  0  0
   -6.3768   12.4518   -7.8286 H   0  0  0  0  0  0  0  0  0  0  0  0
   -6.3724   11.7099   -6.1927 H   0  0  0  0  0  0  0  0  0  0  0  0
   -2.4594   14.2163   -6.1864 H   0  0  0  0  0  0  0  0  0  0  0  0
   -0.6424   10.6017   -7.5796 H   0  0  0  0  0  0  0  0  0  0  0  0
    1.4465   14.3426   -6.0284 H   0  0  0  0  0  0  0  0  0  0  0  0
    0.1842   15.4907   -6.5894 H   0  0  0  0  0  0  0  0  0  0  0  0
    0.1326   14.8481   -4.9128 H   0  0  0  0  0  0  0  0  0  0  0  0
   -3.3223   15.1673  -12.6676 H   0  0  0  0  0  0  0  0  0  0  0  0
   -3.9499   15.7683  -11.0955 H   0  0  0  0  0  0  0  0  0  0  0  0
   -1.3227   14.8639  -11.4575 H   0  0  0  0  0  0  0  0  0  0  0  0
   -2.1776   14.8069   -9.8787 H   0  0  0  0  0  0  0  0  0  0  0  0
   -1.8370   12.5881  -11.9590 H   0  0  0  0  0  0  0  0  0  0  0  0
   -1.6150   12.5084  -10.1783 H   0  0  0  0  0  0  0  0  0  0  0  0
   -4.0015   12.5244   -9.7586 H   0  0  0  0  0  0  0  0  0  0  0  0
   -3.9579   11.6231  -11.3118 H   0  0  0  0  0  0  0  0  0  0  0  0
  1  2  2  0  0  0  0
  1  4  1  0  0  0  0
  1 12  1  0  0  0  0
  2  6  1  0  0  0  0
  3  4  1  0  0  0  0
  3  5  2  0  0  0  0
  5  6  1  0  0  0  0
  5  9  1  0  0  0  0
  6  7  2  0  0  0  0
  7  8  1  0  0  0  0
  7 10  1  0  0  0  0
  8  9  2  0  0  0  0
 10 14  2  3  0  0  0
 11 12  1  0  0  0  0
 11 26  1  0  0  0  0
 11 29  1  0  0  0  0
 12 13  2  0  0  0  0
 14 15  1  0  0  0  0
 14 19  1  0  0  0  0
 15 16  2  0  0  0  0
 16 17  1  0  0  0  0
 17 18  2  0  0  0  0
 17 20  1  0  0  0  0
 18 19  1  0  0  0  0
 20 21  2  0  0  0  0
 20 24  1  0  0  0  0
 21 22  1  0  0  0  0
 22 23  1  0  0  0  0
 22 25  1  0  0  0  0
 23 24  2  0  0  0  0
 26 27  1  0  0  0  0
 27 28  1  0  0  0  0
 28 29  1  0  0  0  0
  2 30  1  0  0  0  0
  3 31  1  0  0  0  0
  4 32  1  0  0  0  0
  4 33  1  0  0  0  0
 10 34  1  0  0  0  0
 15 35  1  0  0  0  0
 16 36  1  0  0  0  0
 18 37  1  0  0  0  0
 19 38  1  0  0  0  0
 19 39  1  0  0  0  0
 21 40  1  0  0  0  0
 24 41  1  0  0  0  0
 25 42  1  0  0  0  0
 25 43  1  0  0  0  0
 25 44  1  0  0  0  0
 26 45  1  0  0  0  0
 26 46  1  0  0  0  0
 27 47  1  0  0  0  0
 27 48  1  0  0  0  0
 28 49  1  0  0  0  0
 28 50  1  0  0  0  0
 29 51  1  0  0  0  0
 29 52  1  0  0  0  0
M  END
> <Name>
37

> <IC50[uM]>
0.004

$$$$
37
  -OEChem-05192314333D
 Structure written by MMmdl.
 52 56  0     0  0  0  0  0  0999 V2000
   -6.3714   12.3591  -12.0053 C   0  0  0  0  0  0  0  0  0  0  0  0
   -6.5147   11.8055  -10.7304 C   0  0  0  0  0  0  0  0  0  0  0  0
   -7.7273   10.5756  -13.0301 C   0  0  0  0  0  0  0  0  0  0  0  0
   -6.9920   11.7699  -13.1223 C   0  0  0  0  0  0  0  0  0  0  0  0
   -7.8210   10.0087  -11.7569 C   0  0  0  0  0  0  0  0  0  0  0  0
   -7.2407   10.6185  -10.5997 C   0  0  0  0  0  0  0  0  0  0  0  0
   -7.6132    9.7471   -9.5123 C   0  0  0  0  0  0  0  0  0  0  0  0
   -8.2794    8.7320   -9.9893 N   0  0  0  0  0  0  0  0  0  0  0  0
   -8.4144    8.8594  -11.3005 N   0  0  0  0  0  0  0  0  0  0  0  0
   -7.3370    9.8875   -8.0251 C   0  0  0  0  0  0  0  0  0  0  0  0
   -4.3570   13.7205  -11.5014 N   0  0  0  0  0  0  0  0  0  0  0  0
   -5.5485   13.6383  -12.1900 C   0  0  0  0  0  0  0  0  0  0  0  0
   -5.9462   14.5274  -12.9449 O   0  0  0  0  0  0  0  0  0  0  0  0
   -5.9602   10.4847   -7.7357 C   0  0  0  0  0  0  0  0  0  0  0  0
   -4.8090    9.7649   -8.0550 C   0  0  0  0  0  0  0  0  0  0  0  0
   -3.5517   10.3138   -7.8050 C   0  0  0  0  0  0  0  0  0  0  0  0
   -3.4444   11.5886   -7.2367 C   0  0  0  0  0  0  0  0  0  0  0  0
   -4.5954   12.3038   -6.9144 C   0  0  0  0  0  0  0  0  0  0  0  0
   -5.8508   11.7543   -7.1602 C   0  0  0  0  0  0  0  0  0  0  0  0
   -2.1010   12.1799   -6.9735 C   0  0  0  0  0  0  0  0  0  0  0  0
   -1.7694   13.4361   -6.4722 C   0  0  0  0  0  0  0  0  0  0  0  0
   -0.4342   13.4933   -6.4118 N   0  0  0  0  0  0  0  0  0  0  0  0
    0.1686   12.4094   -6.8087 N   0  0  0  0  0  0  0  0  0  0  0  0
   -0.8030   11.5907   -7.1765 C   0  0  0  0  0  0  0  0  0  0  0  0
    0.3824   14.6122   -5.9578 C   0  0  0  0  0  0  0  0  0  0  0  0
   -3.5015   14.9079  -11.6138 C   0  0  0  0  0  0  0  0  0  0  0  0
   -2.1980   14.4648  -10.9240 C   0  0  0  0  0  0  0  0  0  0  0  0
   -2.2178   12.9422  -10.9897 C   0  0  0  0  0  0  0  0  0  0  0  0
   -3.7152   12.5763  -10.8194 C   0  0  0  0  0  0  0  0  0  0  0  0
   -5.5031   11.6124  -10.3440 H   0  0  0  0  0  0  0  0  0  0  0  0
   -7.0095   12.5604  -10.1016 H   0  0  0  0  0  0  0  0  0  0  0  0
   -8.1926   10.1227  -13.8931 H   0  0  0  0  0  0  0  0  0  0  0  0
   -6.9001   12.2523  -14.0842 H   0  0  0  0  0  0  0  0  0  0  0  0
   -8.0373    9.5969   -7.2560 H   0  0  0  0  0  0  0  0  0  0  0  0
   -4.8913    8.7824   -8.4959 H   0  0  0  0  0  0  0  0  0  0  0  0
   -2.6604    9.7552   -8.0499 H   0  0  0  0  0  0  0  0  0  0  0  0
   -3.4459   12.0373   -8.2410 H   0  0  0  0  0  0  0  0  0  0  0  0
   -4.5139   13.2862   -6.4731 H   0  0  0  0  0  0  0  0  0  0  0  0
   -6.7415   12.3096   -6.9059 H   0  0  0  0  0  0  0  0  0  0  0  0
   -2.4594   14.2163   -6.1864 H   0  0  0  0  0  0  0  0  0  0  0  0
   -0.6424   10.6017   -7.5796 H   0  0  0  0  0  0  0  0  0  0  0  0
    1.4465   14.3426   -6.0284 H   0  0  0  0  0  0  0  0  0  0  0  0
    0.1842   15.4907   -6.5894 H   0  0  0  0  0  0  0  0  0  0  0  0
    0.1326   14.8481   -4.9128 H   0  0  0  0  0  0  0  0  0  0  0  0
   -3.3223   15.1673  -12.6676 H   0  0  0  0  0  0  0  0  0  0  0  0
   -3.9499   15.7683  -11.0955 H   0  0  0  0  0  0  0  0  0  0  0  0
   -1.3227   14.8639  -11.4575 H   0  0  0  0  0  0  0  0  0  0  0  0
   -2.1776   14.8069   -9.8787 H   0  0  0  0  0  0  0  0  0  0  0  0
   -1.8370   12.5881  -11.9590 H   0  0  0  0  0  0  0  0  0  0  0  0
   -1.6150   12.5084  -10.1783 H   0  0  0  0  0  0  0  0  0  0  0  0
   -4.0015   12.5244   -9.7586 H   0  0  0  0  0  0  0  0  0  0  0  0
   -3.9579   11.6231  -11.3118 H   0  0  0  0  0  0  0  0  0  0  0  0
  1  2  1  0  0  0  0
  1  4  2  0  0  0  0
  1 12  1  0  0  0  0
  2  6  1  0  0  0  0
  3  4  1  0  0  0  0
  3  5  2  0  0  0  0
  5  6  1  0  0  0  0
  5  9  1  0  0  0  0
  6  7  2  0  0  0  0
  7  8  1  0  0  0  0
  7 10  1  0  0  0  0
  8  9  2  0  0  0  0
 10 14  2  0  0  0  0
 11 12  1  0  0  0  0
 11 26  1  0  0  0  0
 11 29  1  0  0  0  0
 12 13  2  0  0  0  0
 14 15  1  0  0  0  0
 14 19  1  0  0  0  0
 15 16  2  0  0  0  0
 16 17  1  0  0  0  0
 17 18  1  0  0  0  0
 17 20  1  0  0  0  0
 18 19  2  0  0  0  0
 20 21  2  0  0  0  0
 20 24  1  0  0  0  0
 21 22  1  0  0  0  0
 22 23  1  0  0  0  0
 22 25  1  0  0  0  0
 23 24  2  0  0  0  0
 26 27  1  0  0  0  0
 27 28  1  0  0  0  0
 28 29  1  0  0  0  0
  2 30  1  0  0  0  0
  2 31  1  0  0  0  0
  3 32  1  0  0  0  0
  4 33  1  0  0  0  0
 10 34  1  0  0  0  0
 15 35  1  0  0  0  0
 16 36  1  0  0  0  0
 17 37  1  0  0  0  0
 18 38  1  0  0  0  0
 19 39  1  0  0  0  0
 21 40  1  0  0  0  0
 24 41  1  0  0  0  0
 25 42  1  0  0  0  0
 25 43  1  0  0  0  0
 25 44  1  0  0  0  0
 26 45  1  0  0  0  0
 26 46  1  0  0  0  0
 27 47  1  0  0  0  0
 27 48  1  0  0  0  0
 28 49  1  0  0  0  0
 28 50  1  0  0  0  0
 29 51  1  0  0  0  0
 29 52  1  0  0  0  0
M  END
> <Name>
37

> <IC50[uM]>
0.004

$$$$
37
  -OEChem-05192314333D
 Structure written by MMmdl.
 52 56  0     0  0  0  0  0  0999 V2000
   -6.3714   12.3591  -12.0053 C   0  0  0  0  0  0  0  0  0  0  0  0
   -6.5147   11.8055  -10.7304 C   0  0  0  0  0  0  0  0  0  0  0  0
   -7.7273   10.5756  -13.0301 C   0  0  0  0  0  0  0  0  0  0  0  0
   -6.9920   11.7699  -13.1223 C   0  0  0  0  0  0  0  0  0  0  0  0
   -7.8210   10.0087  -11.7569 C   0  0  0  0  0  0  0  0  0  0  0  0
   -7.2407   10.6185  -10.5997 C   0  0  0  0  0  0  0  0  0  0  0  0
   -7.6132    9.7471   -9.5123 C   0  0  0  0  0  0  0  0  0  0  0  0
   -8.2794    8.7320   -9.9893 N   0  0  0  0  0  0  0  0  0  0  0  0
   -8.4144    8.8594  -11.3005 N   0  0  0  0  0  0  0  0  0  0  0  0
   -7.3370    9.8875   -8.0251 C   0  0  0  0  0  0  0  0  0  0  0  0
   -4.3570   13.7205  -11.5014 N   0  0  0  0  0  0  0  0  0  0  0  0
   -5.5485   13.6383  -12.1900 C   0  0  0  0  0  0  0  0  0  0  0  0
   -5.9462   14.5274  -12.9449 O   0  0  0  0  0  0  0  0  0  0  0  0
   -5.9602   10.4847   -7.7357 C   0  0  0  0  0  0  0  0  0  0  0  0
   -4.8090    9.7649   -8.0550 C   0  0  0  0  0  0  0  0  0  0  0  0
   -3.5517   10.3138   -7.8050 C   0  0  0  0  0  0  0  0  0  0  0  0
   -3.4444   11.5886   -7.2367 C   0  0  0  0  0  0  0  0  0  0  0  0
   -4.5954   12.3038   -6.9144 C   0  0  0  0  0  0  0  0  0  0  0  0
   -5.8508   11.7543   -7.1602 C   0  0  0  0  0  0  0  0  0  0  0  0
   -2.1010   12.1799   -6.9735 C   0  0  0  0  0  0  0  0  0  0  0  0
   -1.7694   13.4361   -6.4722 C   0  0  0  0  0  0  0  0  0  0  0  0
   -0.4342   13.4933   -6.4118 N   0  0  0  0  0  0  0  0  0  0  0  0
    0.1686   12.4094   -6.8087 N   0  0  0  0  0  0  0  0  0  0  0  0
   -0.8030   11.5907   -7.1765 C   0  0  0  0  0  0  0  0  0  0  0  0
    0.3824   14.6122   -5.9578 C   0  0  0  0  0  0  0  0  0  0  0  0
   -3.5015   14.9079  -11.6138 C   0  0  0  0  0  0  0  0  0  0  0  0
   -2.1980   14.4648  -10.9240 C   0  0  0  0  0  0  0  0  0  0  0  0
   -2.2178   12.9422  -10.9897 C   0  0  0  0  0  0  0  0  0  0  0  0
   -3.7152   12.5763  -10.8194 C   0  0  0  0  0  0  0  0  0  0  0  0
   -5.5031   11.6124  -10.3440 H   0  0  0  0  0  0  0  0  0  0  0  0
   -7.0095   12.5604  -10.1016 H   0  0  0  0  0  0  0  0  0  0  0  0
   -8.1926   10.1227  -13.8931 H   0  0  0  0  0  0  0  0  0  0  0  0
   -6.9001   12.2523  -14.0842 H   0  0  0  0  0  0  0  0  0  0  0  0
   -8.0373    9.5969   -7.2560 H   0  0  0  0  0  0  0  0  0  0  0  0
   -4.8913    8.7824   -8.4959 H   0  0  0  0  0  0  0  0  0  0  0  0
   -2.6604    9.7552   -8.0499 H   0  0  0  0  0  0  0  0  0  0  0  0
   -4.5139   13.2862   -6.4731 H   0  0  0  0  0  0  0  0  0  0  0  0
   -6.3768   12.4518   -7.8286 H   0  0  0  0  0  0  0  0  0  0  0  0
   -6.3724   11.7099   -6.1927 H   0  0  0  0  0  0  0  0  0  0  0  0
   -2.4594   14.2163   -6.1864 H   0  0  0  0  0  0  0  0  0  0  0  0
   -0.6424   10.6017   -7.5796 H   0  0  0  0  0  0  0  0  0  0  0  0
    1.4465   14.3426   -6.0284 H   0  0  0  0  0  0  0  0  0  0  0  0
    0.1842   15.4907   -6.5894 H   0  0  0  0  0  0  0  0  0  0  0  0
    0.1326   14.8481   -4.9128 H   0  0  0  0  0  0  0  0  0  0  0  0
   -3.3223   15.1673  -12.6676 H   0  0  0  0  0  0  0  0  0  0  0  0
   -3.9499   15.7683  -11.0955 H   0  0  0  0  0  0  0  0  0  0  0  0
   -1.3227   14.8639  -11.4575 H   0  0  0  0  0  0  0  0  0  0  0  0
   -2.1776   14.8069   -9.8787 H   0  0  0  0  0  0  0  0  0  0  0  0
   -1.8370   12.5881  -11.9590 H   0  0  0  0  0  0  0  0  0  0  0  0
   -1.6150   12.5084  -10.1783 H   0  0  0  0  0  0  0  0  0  0  0  0
   -4.0015   12.5244   -9.7586 H   0  0  0  0  0  0  0  0  0  0  0  0
   -3.9579   11.6231  -11.3118 H   0  0  0  0  0  0  0  0  0  0  0  0
  1  2  1  0  0  0  0
  1  4  2  0  0  0  0
  1 12  1  0  0  0  0
  2  6  1  0  0  0  0
  3  4  1  0  0  0  0
  3  5  2  0  0  0  0
  5  6  1  0  0  0  0
  5  9  1  0  0  0  0
  6  7  2  0  0  0  0
  7  8  1  0  0  0  0
  7 10  1  0  0  0  0
  8  9  2  0  0  0  0
 10 14  2  3  0  0  0
 11 12  1  0  0  0  0
 11 26  1  0  0  0  0
 11 29  1  0  0  0  0
 12 13  2  0  0  0  0
 14 15  1  0  0  0  0
 14 19  1  0  0  0  0
 15 16  2  0  0  0  0
 16 17  1  0  0  0  0
 17 18  2  0  0  0  0
 17 20  1  0  0  0  0
 18 19  1  0  0  0  0
 20 21  2  0  0  0  0
 20 24  1  0  0  0  0
 21 22  1  0  0  0  0
 22 23  1  0  0  0  0
 22 25  1  0  0  0  0
 23 24  2  0  0  0  0
 26 27  1  0  0  0  0
 27 28  1  0  0  0  0
 28 29  1  0  0  0  0
  2 30  1  0  0  0  0
  2 31  1  0  0  0  0
  3 32  1  0  0  0  0
  4 33  1  0  0  0  0
 10 34  1  0  0  0  0
 15 35  1  0  0  0  0
 16 36  1  0  0  0  0
 18 37  1  0  0  0  0
 19 38  1  0  0  0  0
 19 39  1  0  0  0  0
 21 40  1  0  0  0  0
 24 41  1  0  0  0  0
 25 42  1  0  0  0  0
 25 43  1  0  0  0  0
 25 44  1  0  0  0  0
 26 45  1  0  0  0  0
 26 46  1  0  0  0  0
 27 47  1  0  0  0  0
 27 48  1  0  0  0  0
 28 49  1  0  0  0  0
 28 50  1  0  0  0  0
 29 51  1  0  0  0  0
 29 52  1  0  0  0  0
M  END
> <Name>
37

> <IC50[uM]>
0.004

$$$$
37
  -OEChem-05192314333D
 Structure written by MMmdl.
 52 56  0     0  0  0  0  0  0999 V2000
   -6.3714   12.3591  -12.0053 C   0  0  0  0  0  0  0  0  0  0  0  0
   -6.5147   11.8055  -10.7304 C   0  0  0  0  0  0  0  0  0  0  0  0
   -7.7273   10.5756  -13.0301 C   0  0  0  0  0  0  0  0  0  0  0  0
   -6.9920   11.7699  -13.1223 C   0  0  0  0  0  0  0  0  0  0  0  0
   -7.8210   10.0087  -11.7569 C   0  0  0  0  0  0  0  0  0  0  0  0
   -7.2407   10.6185  -10.5997 C   0  0  0  0  0  0  0  0  0  0  0  0
   -7.6132    9.7471   -9.5123 C   0  0  0  0  0  0  0  0  0  0  0  0
   -8.2794    8.7320   -9.9893 N   0  0  0  0  0  0  0  0  0  0  0  0
   -8.4144    8.8594  -11.3005 N   0  0  0  0  0  0  0  0  0  0  0  0
   -7.3370    9.8875   -8.0251 C   0  0  0  0  0  0  0  0  0  0  0  0
   -4.3570   13.7205  -11.5014 N   0  0  0  0  0  0  0  0  0  0  0  0
   -5.5485   13.6383  -12.1900 C   0  0  0  0  0  0  0  0  0  0  0  0
   -5.9462   14.5274  -12.9449 O   0  0  0  0  0  0  0  0  0  0  0  0
   -5.9602   10.4847   -7.7357 C   0  0  0  0  0  0  0  0  0  0  0  0
   -4.8090    9.7649   -8.0550 C   0  0  0  0  0  0  0  0  0  0  0  0
   -3.5517   10.3138   -7.8050 C   0  0  0  0  0  0  0  0  0  0  0  0
   -3.4444   11.5886   -7.2367 C   0  0  0  0  0  0  0  0  0  0  0  0
   -4.5954   12.3038   -6.9144 C   0  0  0  0  0  0  0  0  0  0  0  0
   -5.8508   11.7543   -7.1602 C   0  0  0  0  0  0  0  0  0  0  0  0
   -2.1010   12.1799   -6.9735 C   0  0  0  0  0  0  0  0  0  0  0  0
   -1.7694   13.4361   -6.4722 C   0  0  0  0  0  0  0  0  0  0  0  0
   -0.4342   13.4933   -6.4118 N   0  0  0  0  0  0  0  0  0  0  0  0
    0.1686   12.4094   -6.8087 N   0  0  0  0  0  0  0  0  0  0  0  0
   -0.8030   11.5907   -7.1765 C   0  0  0  0  0  0  0  0  0  0  0  0
    0.3824   14.6122   -5.9578 C   0  0  0  0  0  0  0  0  0  0  0  0
   -3.5015   14.9079  -11.6138 C   0  0  0  0  0  0  0  0  0  0  0  0
   -2.1980   14.4648  -10.9240 C   0  0  0  0  0  0  0  0  0  0  0  0
   -2.2178   12.9422  -10.9897 C   0  0  0  0  0  0  0  0  0  0  0  0
   -3.7152   12.5763  -10.8194 C   0  0  0  0  0  0  0  0  0  0  0  0
   -6.0752   12.2832   -9.8672 H   0  0  0  0  0  0  0  0  0  0  0  0
   -8.1926   10.1227  -13.8931 H   0  0  0  0  0  0  0  0  0  0  0  0
   -6.9001   12.2523  -14.0842 H   0  0  0  0  0  0  0  0  0  0  0  0
   -8.6350    7.9714   -9.4461 H   0  0  0  0  0  0  0  0  0  0  0  0
   -8.0373    9.5969   -7.2560 H   0  0  0  0  0  0  0  0  0  0  0  0
   -5.3240   15.2453  -12.9449 H   0  0  0  0  0  0  0  0  0  0  0  0
   -4.8913    8.7824   -8.4959 H   0  0  0  0  0  0  0  0  0  0  0  0
   -2.6604    9.7552   -8.0499 H   0  0  0  0  0  0  0  0  0  0  0  0
   -4.5139   13.2862   -6.4731 H   0  0  0  0  0  0  0  0  0  0  0  0
   -6.7415   12.3096   -6.9059 H   0  0  0  0  0  0  0  0  0  0  0  0
   -2.4594   14.2163   -6.1864 H   0  0  0  0  0  0  0  0  0  0  0  0
   -0.6424   10.6017   -7.5796 H   0  0  0  0  0  0  0  0  0  0  0  0
    1.4465   14.3426   -6.0284 H   0  0  0  0  0  0  0  0  0  0  0  0
    0.1842   15.4907   -6.5894 H   0  0  0  0  0  0  0  0  0  0  0  0
    0.1326   14.8481   -4.9128 H   0  0  0  0  0  0  0  0  0  0  0  0
   -3.3223   15.1673  -12.6676 H   0  0  0  0  0  0  0  0  0  0  0  0
   -3.9499   15.7683  -11.0955 H   0  0  0  0  0  0  0  0  0  0  0  0
   -1.3227   14.8639  -11.4575 H   0  0  0  0  0  0  0  0  0  0  0  0
   -2.1776   14.8069   -9.8787 H   0  0  0  0  0  0  0  0  0  0  0  0
   -1.8370   12.5881  -11.9590 H   0  0  0  0  0  0  0  0  0  0  0  0
   -1.6150   12.5084  -10.1783 H   0  0  0  0  0  0  0  0  0  0  0  0
   -4.0015   12.5244   -9.7586 H   0  0  0  0  0  0  0  0  0  0  0  0
   -3.9579   11.6231  -11.3118 H   0  0  0  0  0  0  0  0  0  0  0  0
  1  2  1  0  0  0  0
  1  4  1  0  0  0  0
  1 12  2  3  0  0  0
  2  6  2  0  0  0  0
  3  4  2  0  0  0  0
  3  5  1  0  0  0  0
  5  6  1  0  0  0  0
  5  9  2  0  0  0  0
  6  7  1  0  0  0  0
  7  8  1  0  0  0  0
  7 10  2  3  0  0  0
  8  9  1  0  0  0  0
 10 14  1  0  0  0  0
 11 12  1  0  0  0  0
 11 26  1  0  0  0  0
 11 29  1  0  0  0  0
 12 13  1  0  0  0  0
 14 15  2  0  0  0  0
 14 19  1  0  0  0  0
 15 16  1  0  0  0  0
 16 17  2  0  0  0  0
 17 18  1  0  0  0  0
 17 20  1  0  0  0  0
 18 19  2  0  0  0  0
 20 21  2  0  0  0  0
 20 24  1  0  0  0  0
 21 22  1  0  0  0  0
 22 23  1  0  0  0  0
 22 25  1  0  0  0  0
 23 24  2  0  0  0  0
 26 27  1  0  0  0  0
 27 28  1  0  0  0  0
 28 29  1  0  0  0  0
  2 30  1  0  0  0  0
  3 31  1  0  0  0  0
  4 32  1  0  0  0  0
  8 33  1  0  0  0  0
 10 34  1  0  0  0  0
 13 35  1  0  0  0  0
 15 36  1  0  0  0  0
 16 37  1  0  0  0  0
 18 38  1  0  0  0  0
 19 39  1  0  0  0  0
 21 40  1  0  0  0  0
 24 41  1  0  0  0  0
 25 42  1  0  0  0  0
 25 43  1  0  0  0  0
 25 44  1  0  0  0  0
 26 45  1  0  0  0  0
 26 46  1  0  0  0  0
 27 47  1  0  0  0  0
 27 48  1  0  0  0  0
 28 49  1  0  0  0  0
 28 50  1  0  0  0  0
 29 51  1  0  0  0  0
 29 52  1  0  0  0  0
M  END
> <Name>
37

> <IC50[uM]>
0.004

$$$$
37
  -OEChem-05192314333D
 Structure written by MMmdl.
 52 56  0     1  0  0  0  0  0999 V2000
   -6.3714   12.3591  -12.0053 C   0  0  0  0  0  0  0  0  0  0  0  0
   -6.5147   11.8055  -10.7304 C   0  0  0  0  0  0  0  0  0  0  0  0
   -7.7273   10.5756  -13.0301 C   0  0  0  0  0  0  0  0  0  0  0  0
   -6.9920   11.7699  -13.1223 C   0  0  0  0  0  0  0  0  0  0  0  0
   -7.8210   10.0087  -11.7569 C   0  0  0  0  0  0  0  0  0  0  0  0
   -7.2407   10.6185  -10.5997 C   0  0  0  0  0  0  0  0  0  0  0  0
   -7.6132    9.7471   -9.5123 C   0  0  0  0  0  0  0  0  0  0  0  0
   -8.2794    8.7320   -9.9893 N   0  0  0  0  0  0  0  0  0  0  0  0
   -8.4144    8.8594  -11.3005 N   0  0  0  0  0  0  0  0  0  0  0  0
   -7.3370    9.8875   -8.0251 C   0  0  0  0  0  0  0  0  0  0  0  0
   -4.3570   13.7205  -11.5014 N   0  0  0  0  0  0  0  0  0  0  0  0
   -5.5485   13.6383  -12.1900 C   0  0  3  0  0  0  0  0  0  0  0  0
   -5.9462   14.5274  -12.9449 O   0  0  0  0  0  0  0  0  0  0  0  0
   -5.9602   10.4847   -7.7357 C   0  0  0  0  0  0  0  0  0  0  0  0
   -4.8090    9.7649   -8.0550 C   0  0  0  0  0  0  0  0  0  0  0  0
   -3.5517   10.3138   -7.8050 C   0  0  0  0  0  0  0  0  0  0  0  0
   -3.4444   11.5886   -7.2367 C   0  0  0  0  0  0  0  0  0  0  0  0
   -4.5954   12.3038   -6.9144 C   0  0  0  0  0  0  0  0  0  0  0  0
   -5.8508   11.7543   -7.1602 C   0  0  0  0  0  0  0  0  0  0  0  0
   -2.1010   12.1799   -6.9735 C   0  0  0  0  0  0  0  0  0  0  0  0
   -1.7694   13.4361   -6.4722 C   0  0  0  0  0  0  0  0  0  0  0  0
   -0.4342   13.4933   -6.4118 N   0  0  0  0  0  0  0  0  0  0  0  0
    0.1686   12.4094   -6.8087 N   0  0  0  0  0  0  0  0  0  0  0  0
   -0.8030   11.5907   -7.1765 C   0  0  0  0  0  0  0  0  0  0  0  0
    0.3824   14.6122   -5.9578 C   0  0  0  0  0  0  0  0  0  0  0  0
   -3.5015   14.9079  -11.6138 C   0  0  0  0  0  0  0  0  0  0  0  0
   -2.1980   14.4648  -10.9240 C   0  0  0  0  0  0  0  0  0  0  0  0
   -2.2178   12.9422  -10.9897 C   0  0  0  0  0  0  0  0  0  0  0  0
   -3.7152   12.5763  -10.8194 C   0  0  0  0  0  0  0  0  0  0  0  0
   -6.0752   12.2832   -9.8672 H   0  0  0  0  0  0  0  0  0  0  0  0
   -8.1926   10.1227  -13.8931 H   0  0  0  0  0  0  0  0  0  0  0  0
   -6.9001   12.2523  -14.0842 H   0  0  0  0  0  0  0  0  0  0  0  0
   -8.0373    9.5969   -7.2560 H   0  0  0  0  0  0  0  0  0  0  0  0
   -6.0764   14.1073  -11.3466 H   0  0  0  0  0  0  0  0  0  0  0  0
   -5.3240   15.2453  -12.9449 H   0  0  0  0  0  0  0  0  0  0  0  0
   -4.8913    8.7824   -8.4959 H   0  0  0  0  0  0  0  0  0  0  0  0
   -2.6604    9.7552   -8.0499 H   0  0  0  0  0  0  0  0  0  0  0  0
   -4.5139   13.2862   -6.4731 H   0  0  0  0  0  0  0  0  0  0  0  0
   -6.7415   12.3096   -6.9059 H   0  0  0  0  0  0  0  0  0  0  0  0
   -2.4594   14.2163   -6.1864 H   0  0  0  0  0  0  0  0  0  0  0  0
   -0.6424   10.6017   -7.5796 H   0  0  0  0  0  0  0  0  0  0  0  0
    1.4465   14.3426   -6.0284 H   0  0  0  0  0  0  0  0  0  0  0  0
    0.1842   15.4907   -6.5894 H   0  0  0  0  0  0  0  0  0  0  0  0
    0.1326   14.8481   -4.9128 H   0  0  0  0  0  0  0  0  0  0  0  0
   -3.3223   15.1673  -12.6676 H   0  0  0  0  0  0  0  0  0  0  0  0
   -3.9499   15.7683  -11.0955 H   0  0  0  0  0  0  0  0  0  0  0  0
   -1.3227   14.8639  -11.4575 H   0  0  0  0  0  0  0  0  0  0  0  0
   -2.1776   14.8069   -9.8787 H   0  0  0  0  0  0  0  0  0  0  0  0
   -1.8370   12.5881  -11.9590 H   0  0  0  0  0  0  0  0  0  0  0  0
   -1.6150   12.5084  -10.1783 H   0  0  0  0  0  0  0  0  0  0  0  0
   -4.0015   12.5244   -9.7586 H   0  0  0  0  0  0  0  0  0  0  0  0
   -3.9579   11.6231  -11.3118 H   0  0  0  0  0  0  0  0  0  0  0  0
  1  2  2  0  0  0  0
  1  4  1  0  0  0  0
  1 12  1  0  0  0  0
  2  6  1  0  0  0  0
  3  4  2  0  0  0  0
  3  5  1  0  0  0  0
  5  6  2  0  0  0  0
  5  9  1  0  0  0  0
  6  7  1  0  0  0  0
  7  8  1  0  0  0  0
  7 10  2  3  0  0  0
  8  9  2  0  0  0  0
 10 14  1  0  0  0  0
 11 12  1  0  0  0  0
 11 26  1  0  0  0  0
 11 29  1  0  0  0  0
 12 13  1  0  0  0  0
 14 15  2  0  0  0  0
 14 19  1  0  0  0  0
 15 16  1  0  0  0  0
 16 17  2  0  0  0  0
 17 18  1  0  0  0  0
 17 20  1  0  0  0  0
 18 19  2  0  0  0  0
 20 21  2  0  0  0  0
 20 24  1  0  0  0  0
 21 22  1  0  0  0  0
 22 23  1  0  0  0  0
 22 25  1  0  0  0  0
 23 24  2  0  0  0  0
 26 27  1  0  0  0  0
 27 28  1  0  0  0  0
 28 29  1  0  0  0  0
  2 30  1  0  0  0  0
  3 31  1  0  0  0  0
  4 32  1  0  0  0  0
 10 33  1  0  0  0  0
 12 34  1  0  0  0  0
 13 35  1  0  0  0  0
 15 36  1  0  0  0  0
 16 37  1  0  0  0  0
 18 38  1  0  0  0  0
 19 39  1  0  0  0  0
 21 40  1  0  0  0  0
 24 41  1  0  0  0  0
 25 42  1  0  0  0  0
 25 43  1  0  0  0  0
 25 44  1  0  0  0  0
 26 45  1  0  0  0  0
 26 46  1  0  0  0  0
 27 47  1  0  0  0  0
 27 48  1  0  0  0  0
 28 49  1  0  0  0  0
 28 50  1  0  0  0  0
 29 51  1  0  0  0  0
 29 52  1  0  0  0  0
M  END
> <Name>
37

> <IC50[uM]>
0.004

$$$$
37
  -OEChem-05192314333D
 Structure written by MMmdl.
 52 56  0     0  0  0  0  0  0999 V2000
   -6.3714   12.3591  -12.0053 C   0  0  0  0  0  0  0  0  0  0  0  0
   -6.5147   11.8055  -10.7304 C   0  0  0  0  0  0  0  0  0  0  0  0
   -7.7273   10.5756  -13.0301 C   0  0  0  0  0  0  0  0  0  0  0  0
   -6.9920   11.7699  -13.1223 C   0  0  0  0  0  0  0  0  0  0  0  0
   -7.8210   10.0087  -11.7569 C   0  0  0  0  0  0  0  0  0  0  0  0
   -7.2407   10.6185  -10.5997 C   0  0  0  0  0  0  0  0  0  0  0  0
   -7.6132    9.7471   -9.5123 C   0  0  0  0  0  0  0  0  0  0  0  0
   -8.2794    8.7320   -9.9893 N   0  0  0  0  0  0  0  0  0  0  0  0
   -8.4144    8.8594  -11.3005 N   0  0  0  0  0  0  0  0  0  0  0  0
   -7.3370    9.8875   -8.0251 C   0  0  0  0  0  0  0  0  0  0  0  0
   -4.3570   13.7205  -11.5014 N   0  0  0  0  0  0  0  0  0  0  0  0
   -5.5485   13.6383  -12.1900 C   0  0  0  0  0  0  0  0  0  0  0  0
   -5.9462   14.5274  -12.9449 O   0  0  0  0  0  0  0  0  0  0  0  0
   -5.9602   10.4847   -7.7357 C   0  0  0  0  0  0  0  0  0  0  0  0
   -4.8090    9.7649   -8.0550 C   0  0  0  0  0  0  0  0  0  0  0  0
   -3.5517   10.3138   -7.8050 C   0  0  0  0  0  0  0  0  0  0  0  0
   -3.4444   11.5886   -7.2367 C   0  0  0  0  0  0  0  0  0  0  0  0
   -4.5954   12.3038   -6.9144 C   0  0  0  0  0  0  0  0  0  0  0  0
   -5.8508   11.7543   -7.1602 C   0  0  0  0  0  0  0  0  0  0  0  0
   -2.1010   12.1799   -6.9735 C   0  0  0  0  0  0  0  0  0  0  0  0
   -1.7694   13.4361   -6.4722 C   0  0  0  0  0  0  0  0  0  0  0  0
   -0.4342   13.4933   -6.4118 N   0  0  0  0  0  0  0  0  0  0  0  0
    0.1686   12.4094   -6.8087 N   0  0  0  0  0  0  0  0  0  0  0  0
   -0.8030   11.5907   -7.1765 C   0  0  0  0  0  0  0  0  0  0  0  0
    0.3824   14.6122   -5.9578 C   0  0  0  0  0  0  0  0  0  0  0  0
   -3.5015   14.9079  -11.6138 C   0  0  0  0  0  0  0  0  0  0  0  0
   -2.1980   14.4648  -10.9240 C   0  0  0  0  0  0  0  0  0  0  0  0
   -2.2178   12.9422  -10.9897 C   0  0  0  0  0  0  0  0  0  0  0  0
   -3.7152   12.5763  -10.8194 C   0  0  0  0  0  0  0  0  0  0  0  0
   -6.0752   12.2832   -9.8672 H   0  0  0  0  0  0  0  0  0  0  0  0
   -8.1926   10.1227  -13.8931 H   0  0  0  0  0  0  0  0  0  0  0  0
   -6.9001   12.2523  -14.0842 H   0  0  0  0  0  0  0  0  0  0  0  0
   -8.1041   10.5414   -7.5847 H   0  0  0  0  0  0  0  0  0  0  0  0
   -7.3935    8.8918   -7.5609 H   0  0  0  0  0  0  0  0  0  0  0  0
   -5.3240   15.2453  -12.9449 H   0  0  0  0  0  0  0  0  0  0  0  0
   -4.8913    8.7824   -8.4959 H   0  0  0  0  0  0  0  0  0  0  0  0
   -2.6604    9.7552   -8.0499 H   0  0  0  0  0  0  0  0  0  0  0  0
   -4.5139   13.2862   -6.4731 H   0  0  0  0  0  0  0  0  0  0  0  0
   -6.7415   12.3096   -6.9059 H   0  0  0  0  0  0  0  0  0  0  0  0
   -2.4594   14.2163   -6.1864 H   0  0  0  0  0  0  0  0  0  0  0  0
   -0.6424   10.6017   -7.5796 H   0  0  0  0  0  0  0  0  0  0  0  0
    1.4465   14.3426   -6.0284 H   0  0  0  0  0  0  0  0  0  0  0  0
    0.1842   15.4907   -6.5894 H   0  0  0  0  0  0  0  0  0  0  0  0
    0.1326   14.8481   -4.9128 H   0  0  0  0  0  0  0  0  0  0  0  0
   -3.3223   15.1673  -12.6676 H   0  0  0  0  0  0  0  0  0  0  0  0
   -3.9499   15.7683  -11.0955 H   0  0  0  0  0  0  0  0  0  0  0  0
   -1.3227   14.8639  -11.4575 H   0  0  0  0  0  0  0  0  0  0  0  0
   -2.1776   14.8069   -9.8787 H   0  0  0  0  0  0  0  0  0  0  0  0
   -1.8370   12.5881  -11.9590 H   0  0  0  0  0  0  0  0  0  0  0  0
   -1.6150   12.5084  -10.1783 H   0  0  0  0  0  0  0  0  0  0  0  0
   -4.0015   12.5244   -9.7586 H   0  0  0  0  0  0  0  0  0  0  0  0
   -3.9579   11.6231  -11.3118 H   0  0  0  0  0  0  0  0  0  0  0  0
  1  2  1  0  0  0  0
  1  4  1  0  0  0  0
  1 12  2  3  0  0  0
  2  6  2  0  0  0  0
  3  4  2  0  0  0  0
  3  5  1  0  0  0  0
  5  6  1  0  0  0  0
  5  9  2  0  0  0  0
  6  7  1  0  0  0  0
  7  8  2  0  0  0  0
  7 10  1  0  0  0  0
  8  9  1  0  0  0  0
 10 14  1  0  0  0  0
 11 12  1  0  0  0  0
 11 26  1  0  0  0  0
 11 29  1  0  0  0  0
 12 13  1  0  0  0  0
 14 15  2  0  0  0  0
 14 19  1  0  0  0  0
 15 16  1  0  0  0  0
 16 17  2  0  0  0  0
 17 18  1  0  0  0  0
 17 20  1  0  0  0  0
 18 19  2  0  0  0  0
 20 21  2  0  0  0  0
 20 24  1  0  0  0  0
 21 22  1  0  0  0  0
 22 23  1  0  0  0  0
 22 25  1  0  0  0  0
 23 24  2  0  0  0  0
 26 27  1  0  0  0  0
 27 28  1  0  0  0  0
 28 29  1  0  0  0  0
  2 30  1  0  0  0  0
  3 31  1  0  0  0  0
  4 32  1  0  0  0  0
 10 33  1  0  0  0  0
 10 34  1  0  0  0  0
 13 35  1  0  0  0  0
 15 36  1  0  0  0  0
 16 37  1  0  0  0  0
 18 38  1  0  0  0  0
 19 39  1  0  0  0  0
 21 40  1  0  0  0  0
 24 41  1  0  0  0  0
 25 42  1  0  0  0  0
 25 43  1  0  0  0  0
 25 44  1  0  0  0  0
 26 45  1  0  0  0  0
 26 46  1  0  0  0  0
 27 47  1  0  0  0  0
 27 48  1  0  0  0  0
 28 49  1  0  0  0  0
 28 50  1  0  0  0  0
 29 51  1  0  0  0  0
 29 52  1  0  0  0  0
M  END
> <Name>
37

> <IC50[uM]>
0.004

$$$$
37
  -OEChem-05192314333D
 Structure written by MMmdl.
 52 56  0     1  0  0  0  0  0999 V2000
   -6.3714   12.3591  -12.0053 C   0  0  0  0  0  0  0  0  0  0  0  0
   -6.5147   11.8055  -10.7304 C   0  0  0  0  0  0  0  0  0  0  0  0
   -7.7273   10.5756  -13.0301 C   0  0  0  0  0  0  0  0  0  0  0  0
   -6.9920   11.7699  -13.1223 C   0  0  0  0  0  0  0  0  0  0  0  0
   -7.8210   10.0087  -11.7569 C   0  0  0  0  0  0  0  0  0  0  0  0
   -7.2407   10.6185  -10.5997 C   0  0  0  0  0  0  0  0  0  0  0  0
   -7.6132    9.7471   -9.5123 C   0  0  0  0  0  0  0  0  0  0  0  0
   -8.2794    8.7320   -9.9893 N   0  0  0  0  0  0  0  0  0  0  0  0
   -8.4144    8.8594  -11.3005 N   0  0  0  0  0  0  0  0  0  0  0  0
   -7.3370    9.8875   -8.0251 C   0  0  0  0  0  0  0  0  0  0  0  0
   -4.3570   13.7205  -11.5014 N   0  0  0  0  0  0  0  0  0  0  0  0
   -5.5485   13.6383  -12.1900 C   0  0  0  0  0  0  0  0  0  0  0  0
   -5.9462   14.5274  -12.9449 O   0  0  0  0  0  0  0  0  0  0  0  0
   -5.9602   10.4847   -7.7357 C   0  0  0  0  0  0  0  0  0  0  0  0
   -4.8090    9.7649   -8.0550 C   0  0  0  0  0  0  0  0  0  0  0  0
   -3.5517   10.3138   -7.8050 C   0  0  0  0  0  0  0  0  0  0  0  0
   -3.4444   11.5886   -7.2367 C   0  0  0  0  0  0  0  0  0  0  0  0
   -4.5954   12.3038   -6.9144 C   0  0  0  0  0  0  0  0  0  0  0  0
   -5.8508   11.7543   -7.1602 C   0  0  0  0  0  0  0  0  0  0  0  0
   -2.1010   12.1799   -6.9735 C   0  0  0  0  0  0  0  0  0  0  0  0
   -1.7694   13.4361   -6.4722 C   0  0  0  0  0  0  0  0  0  0  0  0
   -0.4342   13.4933   -6.4118 N   0  0  3  0  0  0  0  0  0  0  0  0
    0.1686   12.4094   -6.8087 N   0  0  0  0  0  0  0  0  0  0  0  0
   -0.8030   11.5907   -7.1765 C   0  0  0  0  0  0  0  0  0  0  0  0
    0.3824   14.6122   -5.9578 C   0  0  0  0  0  0  0  0  0  0  0  0
   -3.5015   14.9079  -11.6138 C   0  0  0  0  0  0  0  0  0  0  0  0
   -2.1980   14.4648  -10.9240 C   0  0  0  0  0  0  0  0  0  0  0  0
   -2.2178   12.9422  -10.9897 C   0  0  0  0  0  0  0  0  0  0  0  0
   -3.7152   12.5763  -10.8194 C   0  0  0  0  0  0  0  0  0  0  0  0
   -6.0752   12.2832   -9.8672 H   0  0  0  0  0  0  0  0  0  0  0  0
   -8.1926   10.1227  -13.8931 H   0  0  0  0  0  0  0  0  0  0  0  0
   -6.9001   12.2523  -14.0842 H   0  0  0  0  0  0  0  0  0  0  0  0
   -8.0373    9.5969   -7.2560 H   0  0  0  0  0  0  0  0  0  0  0  0
   -5.3240   15.2453  -12.9449 H   0  0  0  0  0  0  0  0  0  0  0  0
   -4.8913    8.7824   -8.4959 H   0  0  0  0  0  0  0  0  0  0  0  0
   -2.6604    9.7552   -8.0499 H   0  0  0  0  0  0  0  0  0  0  0  0
   -4.5139   13.2862   -6.4731 H   0  0  0  0  0  0  0  0  0  0  0  0
   -6.7415   12.3096   -6.9059 H   0  0  0  0  0  0  0  0  0  0  0  0
   -2.1513   14.2222   -7.1401 H   0  0  0  0  0  0  0  0  0  0  0  0
   -2.1989   13.5675   -5.4681 H   0  0  0  0  0  0  0  0  0  0  0  0
   -0.6424   10.6017   -7.5796 H   0  0  0  0  0  0  0  0  0  0  0  0
    1.4465   14.3426   -6.0284 H   0  0  0  0  0  0  0  0  0  0  0  0
    0.1842   15.4907   -6.5894 H   0  0  0  0  0  0  0  0  0  0  0  0
    0.1326   14.8481   -4.9128 H   0  0  0  0  0  0  0  0  0  0  0  0
   -3.3223   15.1673  -12.6676 H   0  0  0  0  0  0  0  0  0  0  0  0
   -3.9499   15.7683  -11.0955 H   0  0  0  0  0  0  0  0  0  0  0  0
   -1.3227   14.8639  -11.4575 H   0  0  0  0  0  0  0  0  0  0  0  0
   -2.1776   14.8069   -9.8787 H   0  0  0  0  0  0  0  0  0  0  0  0
   -1.8370   12.5881  -11.9590 H   0  0  0  0  0  0  0  0  0  0  0  0
   -1.6150   12.5084  -10.1783 H   0  0  0  0  0  0  0  0  0  0  0  0
   -4.0015   12.5244   -9.7586 H   0  0  0  0  0  0  0  0  0  0  0  0
   -3.9579   11.6231  -11.3118 H   0  0  0  0  0  0  0  0  0  0  0  0
  1  2  1  0  0  0  0
  1  4  1  0  0  0  0
  1 12  2  3  0  0  0
  2  6  2  0  0  0  0
  3  4  2  0  0  0  0
  3  5  1  0  0  0  0
  5  6  1  0  0  0  0
  5  9  2  0  0  0  0
  6  7  1  0  0  0  0
  7  8  2  0  0  0  0
  7 10  1  0  0  0  0
  8  9  1  0  0  0  0
 10 14  2  0  0  0  0
 11 12  1  0  0  0  0
 11 26  1  0  0  0  0
 11 29  1  0  0  0  0
 12 13  1  0  0  0  0
 14 15  1  0  0  0  0
 14 19  1  0  0  0  0
 15 16  2  0  0  0  0
 16 17  1  0  0  0  0
 17 18  1  0  0  0  0
 17 20  2  0  0  0  0
 18 19  2  0  0  0  0
 20 21  1  0  0  0  0
 20 24  1  0  0  0  0
 21 22  1  0  0  0  0
 22 23  1  0  0  0  0
 22 25  1  0  0  0  0
 23 24  2  0  0  0  0
 26 27  1  0  0  0  0
 27 28  1  0  0  0  0
 28 29  1  0  0  0  0
  2 30  1  0  0  0  0
  3 31  1  0  0  0  0
  4 32  1  0  0  0  0
 10 33  1  0  0  0  0
 13 34  1  0  0  0  0
 15 35  1  0  0  0  0
 16 36  1  0  0  0  0
 18 37  1  0  0  0  0
 19 38  1  0  0  0  0
 21 39  1  0  0  0  0
 21 40  1  0  0  0  0
 24 41  1  0  0  0  0
 25 42  1  0  0  0  0
 25 43  1  0  0  0  0
 25 44  1  0  0  0  0
 26 45  1  0  0  0  0
 26 46  1  0  0  0  0
 27 47  1  0  0  0  0
 27 48  1  0  0  0  0
 28 49  1  0  0  0  0
 28 50  1  0  0  0  0
 29 51  1  0  0  0  0
 29 52  1  0  0  0  0
M  END
> <Name>
37

> <IC50[uM]>
0.004

$$$$
37
  -OEChem-05192314333D
 Structure written by MMmdl.
 52 56  0     1  0  0  0  0  0999 V2000
   -6.3714   12.3591  -12.0053 C   0  0  0  0  0  0  0  0  0  0  0  0
   -6.5147   11.8055  -10.7304 C   0  0  0  0  0  0  0  0  0  0  0  0
   -7.7273   10.5756  -13.0301 C   0  0  0  0  0  0  0  0  0  0  0  0
   -6.9920   11.7699  -13.1223 C   0  0  0  0  0  0  0  0  0  0  0  0
   -7.8210   10.0087  -11.7569 C   0  0  3  0  0  0  0  0  0  0  0  0
   -7.2407   10.6185  -10.5997 C   0  0  0  0  0  0  0  0  0  0  0  0
   -7.6132    9.7471   -9.5123 C   0  0  0  0  0  0  0  0  0  0  0  0
   -8.2794    8.7320   -9.9893 N   0  0  0  0  0  0  0  0  0  0  0  0
   -8.4144    8.8594  -11.3005 N   0  0  0  0  0  0  0  0  0  0  0  0
   -7.3370    9.8875   -8.0251 C   0  0  0  0  0  0  0  0  0  0  0  0
   -4.3570   13.7205  -11.5014 N   0  0  0  0  0  0  0  0  0  0  0  0
   -5.5485   13.6383  -12.1900 C   0  0  0  0  0  0  0  0  0  0  0  0
   -5.9462   14.5274  -12.9449 O   0  0  0  0  0  0  0  0  0  0  0  0
   -5.9602   10.4847   -7.7357 C   0  0  0  0  0  0  0  0  0  0  0  0
   -4.8090    9.7649   -8.0550 C   0  0  0  0  0  0  0  0  0  0  0  0
   -3.5517   10.3138   -7.8050 C   0  0  0  0  0  0  0  0  0  0  0  0
   -3.4444   11.5886   -7.2367 C   0  0  0  0  0  0  0  0  0  0  0  0
   -4.5954   12.3038   -6.9144 C   0  0  0  0  0  0  0  0  0  0  0  0
   -5.8508   11.7543   -7.1602 C   0  0  0  0  0  0  0  0  0  0  0  0
   -2.1010   12.1799   -6.9735 C   0  0  0  0  0  0  0  0  0  0  0  0
   -1.7694   13.4361   -6.4722 C   0  0  0  0  0  0  0  0  0  0  0  0
   -0.4342   13.4933   -6.4118 N   0  0  0  0  0  0  0  0  0  0  0  0
    0.1686   12.4094   -6.8087 N   0  0  0  0  0  0  0  0  0  0  0  0
   -0.8030   11.5907   -7.1765 C   0  0  0  0  0  0  0  0  0  0  0  0
    0.3824   14.6122   -5.9578 C   0  0  0  0  0  0  0  0  0  0  0  0
   -3.5015   14.9079  -11.6138 C   0  0  0  0  0  0  0  0  0  0  0  0
   -2.1980   14.4648  -10.9240 C   0  0  0  0  0  0  0  0  0  0  0  0
   -2.2178   12.9422  -10.9897 C   0  0  0  0  0  0  0  0  0  0  0  0
   -3.7152   12.5763  -10.8194 C   0  0  0  0  0  0  0  0  0  0  0  0
   -6.0752   12.2832   -9.8672 H   0  0  0  0  0  0  0  0  0  0  0  0
   -8.1926   10.1227  -13.8931 H   0  0  0  0  0  0  0  0  0  0  0  0
   -6.9001   12.2523  -14.0842 H   0  0  0  0  0  0  0  0  0  0  0  0
   -6.8867    9.4559  -11.9342 H   0  0  0  0  0  0  0  0  0  0  0  0
   -8.0373    9.5969   -7.2560 H   0  0  0  0  0  0  0  0  0  0  0  0
   -5.3240   15.2453  -12.9449 H   0  0  0  0  0  0  0  0  0  0  0  0
   -4.8913    8.7824   -8.4959 H   0  0  0  0  0  0  0  0  0  0  0  0
   -2.6604    9.7552   -8.0499 H   0  0  0  0  0  0  0  0  0  0  0  0
   -4.5139   13.2862   -6.4731 H   0  0  0  0  0  0  0  0  0  0  0  0
   -6.7415   12.3096   -6.9059 H   0  0  0  0  0  0  0  0  0  0  0  0
   -2.4594   14.2163   -6.1864 H   0  0  0  0  0  0  0  0  0  0  0  0
   -0.6424   10.6017   -7.5796 H   0  0  0  0  0  0  0  0  0  0  0  0
    1.4465   14.3426   -6.0284 H   0  0  0  0  0  0  0  0  0  0  0  0
    0.1842   15.4907   -6.5894 H   0  0  0  0  0  0  0  0  0  0  0  0
    0.1326   14.8481   -4.9128 H   0  0  0  0  0  0  0  0  0  0  0  0
   -3.3223   15.1673  -12.6676 H   0  0  0  0  0  0  0  0  0  0  0  0
   -3.9499   15.7683  -11.0955 H   0  0  0  0  0  0  0  0  0  0  0  0
   -1.3227   14.8639  -11.4575 H   0  0  0  0  0  0  0  0  0  0  0  0
   -2.1776   14.8069   -9.8787 H   0  0  0  0  0  0  0  0  0  0  0  0
   -1.8370   12.5881  -11.9590 H   0  0  0  0  0  0  0  0  0  0  0  0
   -1.6150   12.5084  -10.1783 H   0  0  0  0  0  0  0  0  0  0  0  0
   -4.0015   12.5244   -9.7586 H   0  0  0  0  0  0  0  0  0  0  0  0
   -3.9579   11.6231  -11.3118 H   0  0  0  0  0  0  0  0  0  0  0  0
  1  2  1  0  0  0  0
  1  4  1  0  0  0  0
  1 12  2  3  0  0  0
  2  6  2  0  0  0  0
  3  4  2  0  0  0  0
  3  5  1  0  0  0  0
  5  6  1  0  0  0  0
  5  9  1  0  0  0  0
  6  7  1  0  0  0  0
  7  8  1  0  0  0  0
  7 10  2  3  0  0  0
  8  9  2  0  0  0  0
 10 14  1  0  0  0  0
 11 12  1  0  0  0  0
 11 26  1  0  0  0  0
 11 29  1  0  0  0  0
 12 13  1  0  0  0  0
 14 15  2  0  0  0  0
 14 19  1  0  0  0  0
 15 16  1  0  0  0  0
 16 17  2  0  0  0  0
 17 18  1  0  0  0  0
 17 20  1  0  0  0  0
 18 19  2  0  0  0  0
 20 21  2  0  0  0  0
 20 24  1  0  0  0  0
 21 22  1  0  0  0  0
 22 23  1  0  0  0  0
 22 25  1  0  0  0  0
 23 24  2  0  0  0  0
 26 27  1  0  0  0  0
 27 28  1  0  0  0  0
 28 29  1  0  0  0  0
  2 30  1  0  0  0  0
  3 31  1  0  0  0  0
  4 32  1  0  0  0  0
  5 33  1  0  0  0  0
 10 34  1  0  0  0  0
 13 35  1  0  0  0  0
 15 36  1  0  0  0  0
 16 37  1  0  0  0  0
 18 38  1  0  0  0  0
 19 39  1  0  0  0  0
 21 40  1  0  0  0  0
 24 41  1  0  0  0  0
 25 42  1  0  0  0  0
 25 43  1  0  0  0  0
 25 44  1  0  0  0  0
 26 45  1  0  0  0  0
 26 46  1  0  0  0  0
 27 47  1  0  0  0  0
 27 48  1  0  0  0  0
 28 49  1  0  0  0  0
 28 50  1  0  0  0  0
 29 51  1  0  0  0  0
 29 52  1  0  0  0  0
M  END
> <Name>
37

> <IC50[uM]>
0.004

$$$$
37
  -OEChem-05192314333D
 Structure written by MMmdl.
 52 56  0     0  0  0  0  0  0999 V2000
   -6.3714   12.3591  -12.0053 C   0  0  0  0  0  0  0  0  0  0  0  0
   -6.5147   11.8055  -10.7304 C   0  0  0  0  0  0  0  0  0  0  0  0
   -7.7273   10.5756  -13.0301 C   0  0  0  0  0  0  0  0  0  0  0  0
   -6.9920   11.7699  -13.1223 C   0  0  0  0  0  0  0  0  0  0  0  0
   -7.8210   10.0087  -11.7569 C   0  0  0  0  0  0  0  0  0  0  0  0
   -7.2407   10.6185  -10.5997 C   0  0  0  0  0  0  0  0  0  0  0  0
   -7.6132    9.7471   -9.5123 C   0  0  0  0  0  0  0  0  0  0  0  0
   -8.2794    8.7320   -9.9893 N   0  0  0  0  0  0  0  0  0  0  0  0
   -8.4144    8.8594  -11.3005 N   0  0  0  0  0  0  0  0  0  0  0  0
   -7.3370    9.8875   -8.0251 C   0  0  0  0  0  0  0  0  0  0  0  0
   -4.3570   13.7205  -11.5014 N   0  0  0  0  0  0  0  0  0  0  0  0
   -5.5485   13.6383  -12.1900 C   0  0  0  0  0  0  0  0  0  0  0  0
   -5.9462   14.5274  -12.9449 O   0  0  0  0  0  0  0  0  0  0  0  0
   -5.9602   10.4847   -7.7357 C   0  0  0  0  0  0  0  0  0  0  0  0
   -4.8090    9.7649   -8.0550 C   0  0  0  0  0  0  0  0  0  0  0  0
   -3.5517   10.3138   -7.8050 C   0  0  0  0  0  0  0  0  0  0  0  0
   -3.4444   11.5886   -7.2367 C   0  0  0  0  0  0  0  0  0  0  0  0
   -4.5954   12.3038   -6.9144 C   0  0  0  0  0  0  0  0  0  0  0  0
   -5.8508   11.7543   -7.1602 C   0  0  0  0  0  0  0  0  0  0  0  0
   -2.1010   12.1799   -6.9735 C   0  0  0  0  0  0  0  0  0  0  0  0
   -1.7694   13.4361   -6.4722 C   0  0  0  0  0  0  0  0  0  0  0  0
   -0.4342   13.4933   -6.4118 N   0  0  0  0  0  0  0  0  0  0  0  0
    0.1686   12.4094   -6.8087 N   0  0  0  0  0  0  0  0  0  0  0  0
   -0.8030   11.5907   -7.1765 C   0  0  0  0  0  0  0  0  0  0  0  0
    0.3824   14.6122   -5.9578 C   0  0  0  0  0  0  0  0  0  0  0  0
   -3.5015   14.9079  -11.6138 C   0  0  0  0  0  0  0  0  0  0  0  0
   -2.1980   14.4648  -10.9240 C   0  0  0  0  0  0  0  0  0  0  0  0
   -2.2178   12.9422  -10.9897 C   0  0  0  0  0  0  0  0  0  0  0  0
   -3.7152   12.5763  -10.8194 C   0  0  0  0  0  0  0  0  0  0  0  0
   -6.0752   12.2832   -9.8672 H   0  0  0  0  0  0  0  0  0  0  0  0
   -8.1926   10.1227  -13.8931 H   0  0  0  0  0  0  0  0  0  0  0  0
   -7.6839   12.5256  -13.5225 H   0  0  0  0  0  0  0  0  0  0  0  0
   -6.1920   11.5815  -13.8534 H   0  0  0  0  0  0  0  0  0  0  0  0
   -8.0373    9.5969   -7.2560 H   0  0  0  0  0  0  0  0  0  0  0  0
   -5.3240   15.2453  -12.9449 H   0  0  0  0  0  0  0  0  0  0  0  0
   -4.8913    8.7824   -8.4959 H   0  0  0  0  0  0  0  0  0  0  0  0
   -2.6604    9.7552   -8.0499 H   0  0  0  0  0  0  0  0  0  0  0  0
   -4.5139   13.2862   -6.4731 H   0  0  0  0  0  0  0  0  0  0  0  0
   -6.7415   12.3096   -6.9059 H   0  0  0  0  0  0  0  0  0  0  0  0
   -2.4594   14.2163   -6.1864 H   0  0  0  0  0  0  0  0  0  0  0  0
   -0.6424   10.6017   -7.5796 H   0  0  0  0  0  0  0  0  0  0  0  0
    1.4465   14.3426   -6.0284 H   0  0  0  0  0  0  0  0  0  0  0  0
    0.1842   15.4907   -6.5894 H   0  0  0  0  0  0  0  0  0  0  0  0
    0.1326   14.8481   -4.9128 H   0  0  0  0  0  0  0  0  0  0  0  0
   -3.3223   15.1673  -12.6676 H   0  0  0  0  0  0  0  0  0  0  0  0
   -3.9499   15.7683  -11.0955 H   0  0  0  0  0  0  0  0  0  0  0  0
   -1.3227   14.8639  -11.4575 H   0  0  0  0  0  0  0  0  0  0  0  0
   -2.1776   14.8069   -9.8787 H   0  0  0  0  0  0  0  0  0  0  0  0
   -1.8370   12.5881  -11.9590 H   0  0  0  0  0  0  0  0  0  0  0  0
   -1.6150   12.5084  -10.1783 H   0  0  0  0  0  0  0  0  0  0  0  0
   -4.0015   12.5244   -9.7586 H   0  0  0  0  0  0  0  0  0  0  0  0
   -3.9579   11.6231  -11.3118 H   0  0  0  0  0  0  0  0  0  0  0  0
  1  2  1  0  0  0  0
  1  4  1  0  0  0  0
  1 12  2  3  0  0  0
  2  6  2  0  0  0  0
  3  4  1  0  0  0  0
  3  5  2  0  0  0  0
  5  6  1  0  0  0  0
  5  9  1  0  0  0  0
  6  7  1  0  0  0  0
  7  8  1  0  0  0  0
  7 10  2  3  0  0  0
  8  9  2  0  0  0  0
 10 14  1  0  0  0  0
 11 12  1  0  0  0  0
 11 26  1  0  0  0  0
 11 29  1  0  0  0  0
 12 13  1  0  0  0  0
 14 15  2  0  0  0  0
 14 19  1  0  0  0  0
 15 16  1  0  0  0  0
 16 17  2  0  0  0  0
 17 18  1  0  0  0  0
 17 20  1  0  0  0  0
 18 19  2  0  0  0  0
 20 21  2  0  0  0  0
 20 24  1  0  0  0  0
 21 22  1  0  0  0  0
 22 23  1  0  0  0  0
 22 25  1  0  0  0  0
 23 24  2  0  0  0  0
 26 27  1  0  0  0  0
 27 28  1  0  0  0  0
 28 29  1  0  0  0  0
  2 30  1  0  0  0  0
  3 31  1  0  0  0  0
  4 32  1  0  0  0  0
  4 33  1  0  0  0  0
 10 34  1  0  0  0  0
 13 35  1  0  0  0  0
 15 36  1  0  0  0  0
 16 37  1  0  0  0  0
 18 38  1  0  0  0  0
 19 39  1  0  0  0  0
 21 40  1  0  0  0  0
 24 41  1  0  0  0  0
 25 42  1  0  0  0  0
 25 43  1  0  0  0  0
 25 44  1  0  0  0  0
 26 45  1  0  0  0  0
 26 46  1  0  0  0  0
 27 47  1  0  0  0  0
 27 48  1  0  0  0  0
 28 49  1  0  0  0  0
 28 50  1  0  0  0  0
 29 51  1  0  0  0  0
 29 52  1  0  0  0  0
M  END
> <Name>
37

> <IC50[uM]>
0.004

$$$$
37
  -OEChem-05192314333D
 Structure written by MMmdl.
 52 56  0     0  0  0  0  0  0999 V2000
   -6.3714   12.3591  -12.0053 C   0  0  0  0  0  0  0  0  0  0  0  0
   -6.5147   11.8055  -10.7304 C   0  0  0  0  0  0  0  0  0  0  0  0
   -7.7273   10.5756  -13.0301 C   0  0  0  0  0  0  0  0  0  0  0  0
   -6.9920   11.7699  -13.1223 C   0  0  0  0  0  0  0  0  0  0  0  0
   -7.8210   10.0087  -11.7569 C   0  0  0  0  0  0  0  0  0  0  0  0
   -7.2407   10.6185  -10.5997 C   0  0  0  0  0  0  0  0  0  0  0  0
   -7.6132    9.7471   -9.5123 C   0  0  0  0  0  0  0  0  0  0  0  0
   -8.2794    8.7320   -9.9893 N   0  0  0  0  0  0  0  0  0  0  0  0
   -8.4144    8.8594  -11.3005 N   0  0  0  0  0  0  0  0  0  0  0  0
   -7.3370    9.8875   -8.0251 C   0  0  0  0  0  0  0  0  0  0  0  0
   -4.3570   13.7205  -11.5014 N   0  0  0  0  0  0  0  0  0  0  0  0
   -5.5485   13.6383  -12.1900 C   0  0  0  0  0  0  0  0  0  0  0  0
   -5.9462   14.5274  -12.9449 O   0  0  0  0  0  0  0  0  0  0  0  0
   -5.9602   10.4847   -7.7357 C   0  0  0  0  0  0  0  0  0  0  0  0
   -4.8090    9.7649   -8.0550 C   0  0  0  0  0  0  0  0  0  0  0  0
   -3.5517   10.3138   -7.8050 C   0  0  0  0  0  0  0  0  0  0  0  0
   -3.4444   11.5886   -7.2367 C   0  0  0  0  0  0  0  0  0  0  0  0
   -4.5954   12.3038   -6.9144 C   0  0  0  0  0  0  0  0  0  0  0  0
   -5.8508   11.7543   -7.1602 C   0  0  0  0  0  0  0  0  0  0  0  0
   -2.1010   12.1799   -6.9735 C   0  0  0  0  0  0  0  0  0  0  0  0
   -1.7694   13.4361   -6.4722 C   0  0  0  0  0  0  0  0  0  0  0  0
   -0.4342   13.4933   -6.4118 N   0  0  0  0  0  0  0  0  0  0  0  0
    0.1686   12.4094   -6.8087 N   0  0  0  0  0  0  0  0  0  0  0  0
   -0.8030   11.5907   -7.1765 C   0  0  0  0  0  0  0  0  0  0  0  0
    0.3824   14.6122   -5.9578 C   0  0  0  0  0  0  0  0  0  0  0  0
   -3.5015   14.9079  -11.6138 C   0  0  0  0  0  0  0  0  0  0  0  0
   -2.1980   14.4648  -10.9240 C   0  0  0  0  0  0  0  0  0  0  0  0
   -2.2178   12.9422  -10.9897 C   0  0  0  0  0  0  0  0  0  0  0  0
   -3.7152   12.5763  -10.8194 C   0  0  0  0  0  0  0  0  0  0  0  0
   -5.5031   11.6124  -10.3440 H   0  0  0  0  0  0  0  0  0  0  0  0
   -7.0095   12.5604  -10.1016 H   0  0  0  0  0  0  0  0  0  0  0  0
   -8.1926   10.1227  -13.8931 H   0  0  0  0  0  0  0  0  0  0  0  0
   -6.9001   12.2523  -14.0842 H   0  0  0  0  0  0  0  0  0  0  0  0
   -8.0373    9.5969   -7.2560 H   0  0  0  0  0  0  0  0  0  0  0  0
   -5.3240   15.2453  -12.9449 H   0  0  0  0  0  0  0  0  0  0  0  0
   -4.8913    8.7824   -8.4959 H   0  0  0  0  0  0  0  0  0  0  0  0
   -2.6604    9.7552   -8.0499 H   0  0  0  0  0  0  0  0  0  0  0  0
   -4.5139   13.2862   -6.4731 H   0  0  0  0  0  0  0  0  0  0  0  0
   -6.7415   12.3096   -6.9059 H   0  0  0  0  0  0  0  0  0  0  0  0
   -2.4594   14.2163   -6.1864 H   0  0  0  0  0  0  0  0  0  0  0  0
   -0.6424   10.6017   -7.5796 H   0  0  0  0  0  0  0  0  0  0  0  0
    1.4465   14.3426   -6.0284 H   0  0  0  0  0  0  0  0  0  0  0  0
    0.1842   15.4907   -6.5894 H   0  0  0  0  0  0  0  0  0  0  0  0
    0.1326   14.8481   -4.9128 H   0  0  0  0  0  0  0  0  0  0  0  0
   -3.3223   15.1673  -12.6676 H   0  0  0  0  0  0  0  0  0  0  0  0
   -3.9499   15.7683  -11.0955 H   0  0  0  0  0  0  0  0  0  0  0  0
   -1.3227   14.8639  -11.4575 H   0  0  0  0  0  0  0  0  0  0  0  0
   -2.1776   14.8069   -9.8787 H   0  0  0  0  0  0  0  0  0  0  0  0
   -1.8370   12.5881  -11.9590 H   0  0  0  0  0  0  0  0  0  0  0  0
   -1.6150   12.5084  -10.1783 H   0  0  0  0  0  0  0  0  0  0  0  0
   -4.0015   12.5244   -9.7586 H   0  0  0  0  0  0  0  0  0  0  0  0
   -3.9579   11.6231  -11.3118 H   0  0  0  0  0  0  0  0  0  0  0  0
  1  2  1  0  0  0  0
  1  4  1  0  0  0  0
  1 12  2  3  0  0  0
  2  6  1  0  0  0  0
  3  4  2  0  0  0  0
  3  5  1  0  0  0  0
  5  6  2  0  0  0  0
  5  9  1  0  0  0  0
  6  7  1  0  0  0  0
  7  8  1  0  0  0  0
  7 10  2  3  0  0  0
  8  9  2  0  0  0  0
 10 14  1  0  0  0  0
 11 12  1  0  0  0  0
 11 26  1  0  0  0  0
 11 29  1  0  0  0  0
 12 13  1  0  0  0  0
 14 15  2  0  0  0  0
 14 19  1  0  0  0  0
 15 16  1  0  0  0  0
 16 17  2  0  0  0  0
 17 18  1  0  0  0  0
 17 20  1  0  0  0  0
 18 19  2  0  0  0  0
 20 21  2  0  0  0  0
 20 24  1  0  0  0  0
 21 22  1  0  0  0  0
 22 23  1  0  0  0  0
 22 25  1  0  0  0  0
 23 24  2  0  0  0  0
 26 27  1  0  0  0  0
 27 28  1  0  0  0  0
 28 29  1  0  0  0  0
  2 30  1  0  0  0  0
  2 31  1  0  0  0  0
  3 32  1  0  0  0  0
  4 33  1  0  0  0  0
 10 34  1  0  0  0  0
 13 35  1  0  0  0  0
 15 36  1  0  0  0  0
 16 37  1  0  0  0  0
 18 38  1  0  0  0  0
 19 39  1  0  0  0  0
 21 40  1  0  0  0  0
 24 41  1  0  0  0  0
 25 42  1  0  0  0  0
 25 43  1  0  0  0  0
 25 44  1  0  0  0  0
 26 45  1  0  0  0  0
 26 46  1  0  0  0  0
 27 47  1  0  0  0  0
 27 48  1  0  0  0  0
 28 49  1  0  0  0  0
 28 50  1  0  0  0  0
 29 51  1  0  0  0  0
 29 52  1  0  0  0  0
M  END
> <Name>
37

> <IC50[uM]>
0.004

$$$$
37
  -OEChem-05192314333D
 Structure written by MMmdl.
 52 56  0     0  0  0  0  0  0999 V2000
   -6.3714   12.3591  -12.0053 C   0  0  0  0  0  0  0  0  0  0  0  0
   -6.5147   11.8055  -10.7304 C   0  0  0  0  0  0  0  0  0  0  0  0
   -7.7273   10.5756  -13.0301 C   0  0  0  0  0  0  0  0  0  0  0  0
   -6.9920   11.7699  -13.1223 C   0  0  0  0  0  0  0  0  0  0  0  0
   -7.8210   10.0087  -11.7569 C   0  0  0  0  0  0  0  0  0  0  0  0
   -7.2407   10.6185  -10.5997 C   0  0  0  0  0  0  0  0  0  0  0  0
   -7.6132    9.7471   -9.5123 C   0  0  0  0  0  0  0  0  0  0  0  0
   -8.2794    8.7320   -9.9893 N   0  0  0  0  0  0  0  0  0  0  0  0
   -8.4144    8.8594  -11.3005 N   0  0  0  0  0  0  0  0  0  0  0  0
   -7.3370    9.8875   -8.0251 C   0  0  0  0  0  0  0  0  0  0  0  0
   -4.3570   13.7205  -11.5014 N   0  0  0  0  0  0  0  0  0  0  0  0
   -5.5485   13.6383  -12.1900 C   0  0  0  0  0  0  0  0  0  0  0  0
   -5.9462   14.5274  -12.9449 O   0  0  0  0  0  0  0  0  0  0  0  0
   -5.9602   10.4847   -7.7357 C   0  0  0  0  0  0  0  0  0  0  0  0
   -4.8090    9.7649   -8.0550 C   0  0  0  0  0  0  0  0  0  0  0  0
   -3.5517   10.3138   -7.8050 C   0  0  0  0  0  0  0  0  0  0  0  0
   -3.4444   11.5886   -7.2367 C   0  0  0  0  0  0  0  0  0  0  0  0
   -4.5954   12.3038   -6.9144 C   0  0  0  0  0  0  0  0  0  0  0  0
   -5.8508   11.7543   -7.1602 C   0  0  0  0  0  0  0  0  0  0  0  0
   -2.1010   12.1799   -6.9735 C   0  0  0  0  0  0  0  0  0  0  0  0
   -1.7694   13.4361   -6.4722 C   0  0  0  0  0  0  0  0  0  0  0  0
   -0.4342   13.4933   -6.4118 N   0  0  0  0  0  0  0  0  0  0  0  0
    0.1686   12.4094   -6.8087 N   0  0  0  0  0  0  0  0  0  0  0  0
   -0.8030   11.5907   -7.1765 C   0  0  0  0  0  0  0  0  0  0  0  0
    0.3824   14.6122   -5.9578 C   0  0  0  0  0  0  0  0  0  0  0  0
   -3.5015   14.9079  -11.6138 C   0  0  0  0  0  0  0  0  0  0  0  0
   -2.1980   14.4648  -10.9240 C   0  0  0  0  0  0  0  0  0  0  0  0
   -2.2178   12.9422  -10.9897 C   0  0  0  0  0  0  0  0  0  0  0  0
   -3.7152   12.5763  -10.8194 C   0  0  0  0  0  0  0  0  0  0  0  0
   -6.0752   12.2832   -9.8672 H   0  0  0  0  0  0  0  0  0  0  0  0
   -8.1926   10.1227  -13.8931 H   0  0  0  0  0  0  0  0  0  0  0  0
   -6.9001   12.2523  -14.0842 H   0  0  0  0  0  0  0  0  0  0  0  0
   -8.0373    9.5969   -7.2560 H   0  0  0  0  0  0  0  0  0  0  0  0
   -5.3240   15.2453  -12.9449 H   0  0  0  0  0  0  0  0  0  0  0  0
   -4.8913    8.7824   -8.4959 H   0  0  0  0  0  0  0  0  0  0  0  0
   -2.6604    9.7552   -8.0499 H   0  0  0  0  0  0  0  0  0  0  0  0
   -3.4459   12.0373   -8.2410 H   0  0  0  0  0  0  0  0  0  0  0  0
   -4.5139   13.2862   -6.4731 H   0  0  0  0  0  0  0  0  0  0  0  0
   -6.7415   12.3096   -6.9059 H   0  0  0  0  0  0  0  0  0  0  0  0
   -2.4594   14.2163   -6.1864 H   0  0  0  0  0  0  0  0  0  0  0  0
   -0.6424   10.6017   -7.5796 H   0  0  0  0  0  0  0  0  0  0  0  0
    1.4465   14.3426   -6.0284 H   0  0  0  0  0  0  0  0  0  0  0  0
    0.1842   15.4907   -6.5894 H   0  0  0  0  0  0  0  0  0  0  0  0
    0.1326   14.8481   -4.9128 H   0  0  0  0  0  0  0  0  0  0  0  0
   -3.3223   15.1673  -12.6676 H   0  0  0  0  0  0  0  0  0  0  0  0
   -3.9499   15.7683  -11.0955 H   0  0  0  0  0  0  0  0  0  0  0  0
   -1.3227   14.8639  -11.4575 H   0  0  0  0  0  0  0  0  0  0  0  0
   -2.1776   14.8069   -9.8787 H   0  0  0  0  0  0  0  0  0  0  0  0
   -1.8370   12.5881  -11.9590 H   0  0  0  0  0  0  0  0  0  0  0  0
   -1.6150   12.5084  -10.1783 H   0  0  0  0  0  0  0  0  0  0  0  0
   -4.0015   12.5244   -9.7586 H   0  0  0  0  0  0  0  0  0  0  0  0
   -3.9579   11.6231  -11.3118 H   0  0  0  0  0  0  0  0  0  0  0  0
  1  2  1  0  0  0  0
  1  4  1  0  0  0  0
  1 12  2  3  0  0  0
  2  6  2  0  0  0  0
  3  4  2  0  0  0  0
  3  5  1  0  0  0  0
  5  6  1  0  0  0  0
  5  9  2  0  0  0  0
  6  7  1  0  0  0  0
  7  8  2  0  0  0  0
  7 10  1  0  0  0  0
  8  9  1  0  0  0  0
 10 14  2  0  0  0  0
 11 12  1  0  0  0  0
 11 26  1  0  0  0  0
 11 29  1  0  0  0  0
 12 13  1  0  0  0  0
 14 15  1  0  0  0  0
 14 19  1  0  0  0  0
 15 16  2  0  0  0  0
 16 17  1  0  0  0  0
 17 18  1  0  0  0  0
 17 20  1  0  0  0  0
 18 19  2  0  0  0  0
 20 21  2  0  0  0  0
 20 24  1  0  0  0  0
 21 22  1  0  0  0  0
 22 23  1  0  0  0  0
 22 25  1  0  0  0  0
 23 24  2  0  0  0  0
 26 27  1  0  0  0  0
 27 28  1  0  0  0  0
 28 29  1  0  0  0  0
  2 30  1  0  0  0  0
  3 31  1  0  0  0  0
  4 32  1  0  0  0  0
 10 33  1  0  0  0  0
 13 34  1  0  0  0  0
 15 35  1  0  0  0  0
 16 36  1  0  0  0  0
 17 37  1  0  0  0  0
 18 38  1  0  0  0  0
 19 39  1  0  0  0  0
 21 40  1  0  0  0  0
 24 41  1  0  0  0  0
 25 42  1  0  0  0  0
 25 43  1  0  0  0  0
 25 44  1  0  0  0  0
 26 45  1  0  0  0  0
 26 46  1  0  0  0  0
 27 47  1  0  0  0  0
 27 48  1  0  0  0  0
 28 49  1  0  0  0  0
 28 50  1  0  0  0  0
 29 51  1  0  0  0  0
 29 52  1  0  0  0  0
M  END
> <Name>
37

> <IC50[uM]>
0.004

$$$$
37
  -OEChem-05192314333D
 Structure written by MMmdl.
 52 56  0     0  0  0  0  0  0999 V2000
   -6.3714   12.3591  -12.0053 C   0  0  0  0  0  0  0  0  0  0  0  0
   -6.5147   11.8055  -10.7304 C   0  0  0  0  0  0  0  0  0  0  0  0
   -7.7273   10.5756  -13.0301 C   0  0  0  0  0  0  0  0  0  0  0  0
   -6.9920   11.7699  -13.1223 C   0  0  0  0  0  0  0  0  0  0  0  0
   -7.8210   10.0087  -11.7569 C   0  0  0  0  0  0  0  0  0  0  0  0
   -7.2407   10.6185  -10.5997 C   0  0  0  0  0  0  0  0  0  0  0  0
   -7.6132    9.7471   -9.5123 C   0  0  0  0  0  0  0  0  0  0  0  0
   -8.2794    8.7320   -9.9893 N   0  0  0  0  0  0  0  0  0  0  0  0
   -8.4144    8.8594  -11.3005 N   0  0  0  0  0  0  0  0  0  0  0  0
   -7.3370    9.8875   -8.0251 C   0  0  0  0  0  0  0  0  0  0  0  0
   -4.3570   13.7205  -11.5014 N   0  0  0  0  0  0  0  0  0  0  0  0
   -5.5485   13.6383  -12.1900 C   0  0  0  0  0  0  0  0  0  0  0  0
   -5.9462   14.5274  -12.9449 O   0  0  0  0  0  0  0  0  0  0  0  0
   -5.9602   10.4847   -7.7357 C   0  0  0  0  0  0  0  0  0  0  0  0
   -4.8090    9.7649   -8.0550 C   0  0  0  0  0  0  0  0  0  0  0  0
   -3.5517   10.3138   -7.8050 C   0  0  0  0  0  0  0  0  0  0  0  0
   -3.4444   11.5886   -7.2367 C   0  0  0  0  0  0  0  0  0  0  0  0
   -4.5954   12.3038   -6.9144 C   0  0  0  0  0  0  0  0  0  0  0  0
   -5.8508   11.7543   -7.1602 C   0  0  0  0  0  0  0  0  0  0  0  0
   -2.1010   12.1799   -6.9735 C   0  0  0  0  0  0  0  0  0  0  0  0
   -1.7694   13.4361   -6.4722 C   0  0  0  0  0  0  0  0  0  0  0  0
   -0.4342   13.4933   -6.4118 N   0  0  0  0  0  0  0  0  0  0  0  0
    0.1686   12.4094   -6.8087 N   0  0  0  0  0  0  0  0  0  0  0  0
   -0.8030   11.5907   -7.1765 C   0  0  0  0  0  0  0  0  0  0  0  0
    0.3824   14.6122   -5.9578 C   0  0  0  0  0  0  0  0  0  0  0  0
   -3.5015   14.9079  -11.6138 C   0  0  0  0  0  0  0  0  0  0  0  0
   -2.1980   14.4648  -10.9240 C   0  0  0  0  0  0  0  0  0  0  0  0
   -2.2178   12.9422  -10.9897 C   0  0  0  0  0  0  0  0  0  0  0  0
   -3.7152   12.5763  -10.8194 C   0  0  0  0  0  0  0  0  0  0  0  0
   -6.0752   12.2832   -9.8672 H   0  0  0  0  0  0  0  0  0  0  0  0
   -8.1926   10.1227  -13.8931 H   0  0  0  0  0  0  0  0  0  0  0  0
   -6.9001   12.2523  -14.0842 H   0  0  0  0  0  0  0  0  0  0  0  0
   -8.0373    9.5969   -7.2560 H   0  0  0  0  0  0  0  0  0  0  0  0
   -5.3240   15.2453  -12.9449 H   0  0  0  0  0  0  0  0  0  0  0  0
   -4.8913    8.7824   -8.4959 H   0  0  0  0  0  0  0  0  0  0  0  0
   -2.6604    9.7552   -8.0499 H   0  0  0  0  0  0  0  0  0  0  0  0
   -4.5139   13.2862   -6.4731 H   0  0  0  0  0  0  0  0  0  0  0  0
   -6.3768   12.4518   -7.8286 H   0  0  0  0  0  0  0  0  0  0  0  0
   -6.3724   11.7099   -6.1927 H   0  0  0  0  0  0  0  0  0  0  0  0
   -2.4594   14.2163   -6.1864 H   0  0  0  0  0  0  0  0  0  0  0  0
   -0.6424   10.6017   -7.5796 H   0  0  0  0  0  0  0  0  0  0  0  0
    1.4465   14.3426   -6.0284 H   0  0  0  0  0  0  0  0  0  0  0  0
    0.1842   15.4907   -6.5894 H   0  0  0  0  0  0  0  0  0  0  0  0
    0.1326   14.8481   -4.9128 H   0  0  0  0  0  0  0  0  0  0  0  0
   -3.3223   15.1673  -12.6676 H   0  0  0  0  0  0  0  0  0  0  0  0
   -3.9499   15.7683  -11.0955 H   0  0  0  0  0  0  0  0  0  0  0  0
   -1.3227   14.8639  -11.4575 H   0  0  0  0  0  0  0  0  0  0  0  0
   -2.1776   14.8069   -9.8787 H   0  0  0  0  0  0  0  0  0  0  0  0
   -1.8370   12.5881  -11.9590 H   0  0  0  0  0  0  0  0  0  0  0  0
   -1.6150   12.5084  -10.1783 H   0  0  0  0  0  0  0  0  0  0  0  0
   -4.0015   12.5244   -9.7586 H   0  0  0  0  0  0  0  0  0  0  0  0
   -3.9579   11.6231  -11.3118 H   0  0  0  0  0  0  0  0  0  0  0  0
  1  2  1  0  0  0  0
  1  4  1  0  0  0  0
  1 12  2  3  0  0  0
  2  6  2  0  0  0  0
  3  4  2  0  0  0  0
  3  5  1  0  0  0  0
  5  6  1  0  0  0  0
  5  9  2  0  0  0  0
  6  7  1  0  0  0  0
  7  8  2  0  0  0  0
  7 10  1  0  0  0  0
  8  9  1  0  0  0  0
 10 14  2  3  0  0  0
 11 12  1  0  0  0  0
 11 26  1  0  0  0  0
 11 29  1  0  0  0  0
 12 13  1  0  0  0  0
 14 15  1  0  0  0  0
 14 19  1  0  0  0  0
 15 16  2  0  0  0  0
 16 17  1  0  0  0  0
 17 18  2  0  0  0  0
 17 20  1  0  0  0  0
 18 19  1  0  0  0  0
 20 21  2  0  0  0  0
 20 24  1  0  0  0  0
 21 22  1  0  0  0  0
 22 23  1  0  0  0  0
 22 25  1  0  0  0  0
 23 24  2  0  0  0  0
 26 27  1  0  0  0  0
 27 28  1  0  0  0  0
 28 29  1  0  0  0  0
  2 30  1  0  0  0  0
  3 31  1  0  0  0  0
  4 32  1  0  0  0  0
 10 33  1  0  0  0  0
 13 34  1  0  0  0  0
 15 35  1  0  0  0  0
 16 36  1  0  0  0  0
 18 37  1  0  0  0  0
 19 38  1  0  0  0  0
 19 39  1  0  0  0  0
 21 40  1  0  0  0  0
 24 41  1  0  0  0  0
 25 42  1  0  0  0  0
 25 43  1  0  0  0  0
 25 44  1  0  0  0  0
 26 45  1  0  0  0  0
 26 46  1  0  0  0  0
 27 47  1  0  0  0  0
 27 48  1  0  0  0  0
 28 49  1  0  0  0  0
 28 50  1  0  0  0  0
 29 51  1  0  0  0  0
 29 52  1  0  0  0  0
M  END
> <Name>
37

> <IC50[uM]>
0.004

$$$$
