34
  -OEChem-05192314333D
 Structure written by MMmdl.
 49 53  0     0  0  0  0  0  0999 V2000
   -6.4024   12.3461  -12.0147 C   0  0  0  0  0  0  0  0  0  0  0  0
   -6.5825   11.7781  -10.7426 C   0  0  0  0  0  0  0  0  0  0  0  0
   -7.7347   10.5660  -13.0395 C   0  0  0  0  0  0  0  0  0  0  0  0
   -6.9966   11.7550  -13.1361 C   0  0  0  0  0  0  0  0  0  0  0  0
   -7.8265    9.9936  -11.7632 C   0  0  0  0  0  0  0  0  0  0  0  0
   -7.2675   10.6024  -10.6199 C   0  0  0  0  0  0  0  0  0  0  0  0
   -7.6234    9.7358   -9.5255 C   0  0  0  0  0  0  0  0  0  0  0  0
   -8.2741    8.7136   -9.9910 N   0  0  0  0  0  0  0  0  0  0  0  0
   -8.4130    8.8453  -11.3044 N   0  0  0  0  0  0  0  0  0  0  0  0
   -7.3406    9.8933   -8.0338 C   0  0  0  0  0  0  0  0  0  0  0  0
   -4.5538   13.8407  -11.3379 N   0  0  0  0  0  0  0  0  0  0  0  0
   -5.6005   13.6490  -12.1765 C   0  0  0  0  0  0  0  0  0  0  0  0
   -5.9196   14.4808  -13.0199 O   0  0  0  0  0  0  0  0  0  0  0  0
   -5.9590   10.4855   -7.7382 C   0  0  0  0  0  0  0  0  0  0  0  0
   -4.8075    9.7636   -8.0570 C   0  0  0  0  0  0  0  0  0  0  0  0
   -3.5513   10.3099   -7.8070 C   0  0  0  0  0  0  0  0  0  0  0  0
   -3.4406   11.5840   -7.2355 C   0  0  0  0  0  0  0  0  0  0  0  0
   -4.5915   12.3007   -6.9126 C   0  0  0  0  0  0  0  0  0  0  0  0
   -5.8470   11.7538   -7.1581 C   0  0  0  0  0  0  0  0  0  0  0  0
   -2.0979   12.1738   -6.9691 C   0  0  0  0  0  0  0  0  0  0  0  0
   -1.7666   13.4166   -6.4372 C   0  0  0  0  0  0  0  0  0  0  0  0
   -0.4273   13.4768   -6.3903 N   0  0  0  0  0  0  0  0  0  0  0  0
    0.1744   12.4049   -6.8247 N   0  0  0  0  0  0  0  0  0  0  0  0
   -0.8040   11.5944   -7.2012 C   0  0  0  0  0  0  0  0  0  0  0  0
    0.3946   14.5874   -5.9129 C   0  0  0  0  0  0  0  0  0  0  0  0
   -4.1104   13.1199  -10.1564 C   0  0  0  0  0  0  0  0  0  0  0  0
   -3.1547   14.2611   -9.9254 C   0  0  0  0  0  0  0  0  0  0  0  0
   -3.7686   15.0454  -11.0979 C   0  0  0  0  0  0  0  0  0  0  0  0
   -3.3454   14.7999   -8.7258 F   0  0  0  0  0  0  0  0  0  0  0  0
   -1.8808   13.9286  -10.0717 F   0  0  0  0  0  0  0  0  0  0  0  0
   -6.1820   12.2677   -9.8672 H   0  0  0  0  0  0  0  0  0  0  0  0
   -8.2062   10.1164  -13.9009 H   0  0  0  0  0  0  0  0  0  0  0  0
   -6.8838   12.2269  -14.1010 H   0  0  0  0  0  0  0  0  0  0  0  0
   -8.6165    7.9481   -9.4463 H   0  0  0  0  0  0  0  0  0  0  0  0
   -8.1045   10.5565   -7.6017 H   0  0  0  0  0  0  0  0  0  0  0  0
   -7.4046    8.9027   -7.5598 H   0  0  0  0  0  0  0  0  0  0  0  0
   -4.8910    8.7811   -8.4977 H   0  0  0  0  0  0  0  0  0  0  0  0
   -2.6611    9.7505   -8.0541 H   0  0  0  0  0  0  0  0  0  0  0  0
   -4.5085   13.2827   -6.4709 H   0  0  0  0  0  0  0  0  0  0  0  0
   -6.7367   12.3092   -6.9005 H   0  0  0  0  0  0  0  0  0  0  0  0
   -2.4562   14.1858   -6.1223 H   0  0  0  0  0  0  0  0  0  0  0  0
   -0.6475   10.6160   -7.6308 H   0  0  0  0  0  0  0  0  0  0  0  0
    1.4583   14.3222   -6.0031 H   0  0  0  0  0  0  0  0  0  0  0  0
    0.1876   15.4829   -6.5173 H   0  0  0  0  0  0  0  0  0  0  0  0
    0.1562   14.7932   -4.8589 H   0  0  0  0  0  0  0  0  0  0  0  0
   -4.8767   12.9944   -9.3773 H   0  0  0  0  0  0  0  0  0  0  0  0
   -3.6317   12.1505  -10.3594 H   0  0  0  0  0  0  0  0  0  0  0  0
   -3.0652   15.3118  -11.9005 H   0  0  0  0  0  0  0  0  0  0  0  0
   -4.3514   15.9332  -10.8114 H   0  0  0  0  0  0  0  0  0  0  0  0
  1  2  2  0  0  0  0
  1  4  1  0  0  0  0
  1 12  1  0  0  0  0
  2  6  1  0  0  0  0
  3  4  2  0  0  0  0
  3  5  1  0  0  0  0
  5  6  1  0  0  0  0
  5  9  2  0  0  0  0
  6  7  2  0  0  0  0
  7  8  1  0  0  0  0
  7 10  1  0  0  0  0
  8  9  1  0  0  0  0
 10 14  1  0  0  0  0
 11 12  1  0  0  0  0
 11 26  1  0  0  0  0
 11 28  1  0  0  0  0
 12 13  2  0  0  0  0
 14 15  2  0  0  0  0
 14 19  1  0  0  0  0
 15 16  1  0  0  0  0
 16 17  2  0  0  0  0
 17 18  1  0  0  0  0
 17 20  1  0  0  0  0
 18 19  2  0  0  0  0
 20 21  2  0  0  0  0
 20 24  1  0  0  0  0
 21 22  1  0  0  0  0
 22 23  1  0  0  0  0
 22 25  1  0  0  0  0
 23 24  2  0  0  0  0
 26 27  1  0  0  0  0
 27 28  1  0  0  0  0
 27 29  1  0  0  0  0
 27 30  1  0  0  0  0
  2 31  1  0  0  0  0
  3 32  1  0  0  0  0
  4 33  1  0  0  0  0
  8 34  1  0  0  0  0
 10 35  1  0  0  0  0
 10 36  1  0  0  0  0
 15 37  1  0  0  0  0
 16 38  1  0  0  0  0
 18 39  1  0  0  0  0
 19 40  1  0  0  0  0
 21 41  1  0  0  0  0
 24 42  1  0  0  0  0
 25 43  1  0  0  0  0
 25 44  1  0  0  0  0
 25 45  1  0  0  0  0
 26 46  1  0  0  0  0
 26 47  1  0  0  0  0
 28 48  1  0  0  0  0
 28 49  1  0  0  0  0
M  END
> <Name>
34

> <IC50[uM]>
0.007

$$$$
34
  -OEChem-05192314333D
 Structure written by MMmdl.
 49 53  0     0  0  0  0  0  0999 V2000
   -6.4024   12.3461  -12.0147 C   0  0  0  0  0  0  0  0  0  0  0  0
   -6.5825   11.7781  -10.7426 C   0  0  0  0  0  0  0  0  0  0  0  0
   -7.7347   10.5660  -13.0395 C   0  0  0  0  0  0  0  0  0  0  0  0
   -6.9966   11.7550  -13.1361 C   0  0  0  0  0  0  0  0  0  0  0  0
   -7.8265    9.9936  -11.7632 C   0  0  0  0  0  0  0  0  0  0  0  0
   -7.2675   10.6024  -10.6199 C   0  0  0  0  0  0  0  0  0  0  0  0
   -7.6234    9.7358   -9.5255 C   0  0  0  0  0  0  0  0  0  0  0  0
   -8.2741    8.7136   -9.9910 N   0  0  0  0  0  0  0  0  0  0  0  0
   -8.4130    8.8453  -11.3044 N   0  0  0  0  0  0  0  0  0  0  0  0
   -7.3406    9.8933   -8.0338 C   0  0  0  0  0  0  0  0  0  0  0  0
   -4.5538   13.8407  -11.3379 N   0  0  0  0  0  0  0  0  0  0  0  0
   -5.6005   13.6490  -12.1765 C   0  0  0  0  0  0  0  0  0  0  0  0
   -5.9196   14.4808  -13.0199 O   0  0  0  0  0  0  0  0  0  0  0  0
   -5.9590   10.4855   -7.7382 C   0  0  0  0  0  0  0  0  0  0  0  0
   -4.8075    9.7636   -8.0570 C   0  0  0  0  0  0  0  0  0  0  0  0
   -3.5513   10.3099   -7.8070 C   0  0  0  0  0  0  0  0  0  0  0  0
   -3.4406   11.5840   -7.2355 C   0  0  0  0  0  0  0  0  0  0  0  0
   -4.5915   12.3007   -6.9126 C   0  0  0  0  0  0  0  0  0  0  0  0
   -5.8470   11.7538   -7.1581 C   0  0  0  0  0  0  0  0  0  0  0  0
   -2.0979   12.1738   -6.9691 C   0  0  0  0  0  0  0  0  0  0  0  0
   -1.7666   13.4166   -6.4372 C   0  0  0  0  0  0  0  0  0  0  0  0
   -0.4273   13.4768   -6.3903 N   0  0  0  0  0  0  0  0  0  0  0  0
    0.1744   12.4049   -6.8247 N   0  0  0  0  0  0  0  0  0  0  0  0
   -0.8040   11.5944   -7.2012 C   0  0  0  0  0  0  0  0  0  0  0  0
    0.3946   14.5874   -5.9129 C   0  0  0  0  0  0  0  0  0  0  0  0
   -4.1104   13.1199  -10.1564 C   0  0  0  0  0  0  0  0  0  0  0  0
   -3.1547   14.2611   -9.9254 C   0  0  0  0  0  0  0  0  0  0  0  0
   -3.7686   15.0454  -11.0979 C   0  0  0  0  0  0  0  0  0  0  0  0
   -3.3454   14.7999   -8.7258 F   0  0  0  0  0  0  0  0  0  0  0  0
   -1.8808   13.9286  -10.0717 F   0  0  0  0  0  0  0  0  0  0  0  0
   -6.1820   12.2677   -9.8672 H   0  0  0  0  0  0  0  0  0  0  0  0
   -8.2062   10.1164  -13.9009 H   0  0  0  0  0  0  0  0  0  0  0  0
   -6.8838   12.2269  -14.1010 H   0  0  0  0  0  0  0  0  0  0  0  0
   -8.8881    8.1862  -11.8874 H   0  0  0  0  0  0  0  0  0  0  0  0
   -8.1045   10.5565   -7.6017 H   0  0  0  0  0  0  0  0  0  0  0  0
   -7.4046    8.9027   -7.5598 H   0  0  0  0  0  0  0  0  0  0  0  0
   -4.8910    8.7811   -8.4977 H   0  0  0  0  0  0  0  0  0  0  0  0
   -2.6611    9.7505   -8.0541 H   0  0  0  0  0  0  0  0  0  0  0  0
   -4.5085   13.2827   -6.4709 H   0  0  0  0  0  0  0  0  0  0  0  0
   -6.7367   12.3092   -6.9005 H   0  0  0  0  0  0  0  0  0  0  0  0
   -2.4562   14.1858   -6.1223 H   0  0  0  0  0  0  0  0  0  0  0  0
   -0.6475   10.6160   -7.6308 H   0  0  0  0  0  0  0  0  0  0  0  0
    1.4583   14.3222   -6.0031 H   0  0  0  0  0  0  0  0  0  0  0  0
    0.1876   15.4829   -6.5173 H   0  0  0  0  0  0  0  0  0  0  0  0
    0.1562   14.7932   -4.8589 H   0  0  0  0  0  0  0  0  0  0  0  0
   -4.8767   12.9944   -9.3773 H   0  0  0  0  0  0  0  0  0  0  0  0
   -3.6317   12.1505  -10.3594 H   0  0  0  0  0  0  0  0  0  0  0  0
   -3.0652   15.3118  -11.9005 H   0  0  0  0  0  0  0  0  0  0  0  0
   -4.3514   15.9332  -10.8114 H   0  0  0  0  0  0  0  0  0  0  0  0
  1  2  2  0  0  0  0
  1  4  1  0  0  0  0
  1 12  1  0  0  0  0
  2  6  1  0  0  0  0
  3  4  2  0  0  0  0
  3  5  1  0  0  0  0
  5  6  2  0  0  0  0
  5  9  1  0  0  0  0
  6  7  1  0  0  0  0
  7  8  2  0  0  0  0
  7 10  1  0  0  0  0
  8  9  1  0  0  0  0
 10 14  1  0  0  0  0
 11 12  1  0  0  0  0
 11 26  1  0  0  0  0
 11 28  1  0  0  0  0
 12 13  2  0  0  0  0
 14 15  2  0  0  0  0
 14 19  1  0  0  0  0
 15 16  1  0  0  0  0
 16 17  2  0  0  0  0
 17 18  1  0  0  0  0
 17 20  1  0  0  0  0
 18 19  2  0  0  0  0
 20 21  2  0  0  0  0
 20 24  1  0  0  0  0
 21 22  1  0  0  0  0
 22 23  1  0  0  0  0
 22 25  1  0  0  0  0
 23 24  2  0  0  0  0
 26 27  1  0  0  0  0
 27 28  1  0  0  0  0
 27 29  1  0  0  0  0
 27 30  1  0  0  0  0
  2 31  1  0  0  0  0
  3 32  1  0  0  0  0
  4 33  1  0  0  0  0
  9 34  1  0  0  0  0
 10 35  1  0  0  0  0
 10 36  1  0  0  0  0
 15 37  1  0  0  0  0
 16 38  1  0  0  0  0
 18 39  1  0  0  0  0
 19 40  1  0  0  0  0
 21 41  1  0  0  0  0
 24 42  1  0  0  0  0
 25 43  1  0  0  0  0
 25 44  1  0  0  0  0
 25 45  1  0  0  0  0
 26 46  1  0  0  0  0
 26 47  1  0  0  0  0
 28 48  1  0  0  0  0
 28 49  1  0  0  0  0
M  END
> <Name>
34

> <IC50[uM]>
0.007

$$$$
34
  -OEChem-05192314333D
 Structure written by MMmdl.
 49 53  0     1  0  0  0  0  0999 V2000
   -6.4024   12.3461  -12.0147 C   0  0  0  0  0  0  0  0  0  0  0  0
   -6.5825   11.7781  -10.7426 C   0  0  0  0  0  0  0  0  0  0  0  0
   -7.7347   10.5660  -13.0395 C   0  0  0  0  0  0  0  0  0  0  0  0
   -6.9966   11.7550  -13.1361 C   0  0  0  0  0  0  0  0  0  0  0  0
   -7.8265    9.9936  -11.7632 C   0  0  0  0  0  0  0  0  0  0  0  0
   -7.2675   10.6024  -10.6199 C   0  0  0  0  0  0  0  0  0  0  0  0
   -7.6234    9.7358   -9.5255 C   0  0  3  0  0  0  0  0  0  0  0  0
   -8.2741    8.7136   -9.9910 N   0  0  0  0  0  0  0  0  0  0  0  0
   -8.4130    8.8453  -11.3044 N   0  0  0  0  0  0  0  0  0  0  0  0
   -7.3406    9.8933   -8.0338 C   0  0  0  0  0  0  0  0  0  0  0  0
   -4.5538   13.8407  -11.3379 N   0  0  0  0  0  0  0  0  0  0  0  0
   -5.6005   13.6490  -12.1765 C   0  0  0  0  0  0  0  0  0  0  0  0
   -5.9196   14.4808  -13.0199 O   0  0  0  0  0  0  0  0  0  0  0  0
   -5.9590   10.4855   -7.7382 C   0  0  0  0  0  0  0  0  0  0  0  0
   -4.8075    9.7636   -8.0570 C   0  0  0  0  0  0  0  0  0  0  0  0
   -3.5513   10.3099   -7.8070 C   0  0  0  0  0  0  0  0  0  0  0  0
   -3.4406   11.5840   -7.2355 C   0  0  0  0  0  0  0  0  0  0  0  0
   -4.5915   12.3007   -6.9126 C   0  0  0  0  0  0  0  0  0  0  0  0
   -5.8470   11.7538   -7.1581 C   0  0  0  0  0  0  0  0  0  0  0  0
   -2.0979   12.1738   -6.9691 C   0  0  0  0  0  0  0  0  0  0  0  0
   -1.7666   13.4166   -6.4372 C   0  0  0  0  0  0  0  0  0  0  0  0
   -0.4273   13.4768   -6.3903 N   0  0  0  0  0  0  0  0  0  0  0  0
    0.1744   12.4049   -6.8247 N   0  0  0  0  0  0  0  0  0  0  0  0
   -0.8040   11.5944   -7.2012 C   0  0  0  0  0  0  0  0  0  0  0  0
    0.3946   14.5874   -5.9129 C   0  0  0  0  0  0  0  0  0  0  0  0
   -4.1104   13.1199  -10.1564 C   0  0  0  0  0  0  0  0  0  0  0  0
   -3.1547   14.2611   -9.9254 C   0  0  0  0  0  0  0  0  0  0  0  0
   -3.7686   15.0454  -11.0979 C   0  0  0  0  0  0  0  0  0  0  0  0
   -3.3454   14.7999   -8.7258 F   0  0  0  0  0  0  0  0  0  0  0  0
   -1.8808   13.9286  -10.0717 F   0  0  0  0  0  0  0  0  0  0  0  0
   -6.1820   12.2677   -9.8672 H   0  0  0  0  0  0  0  0  0  0  0  0
   -8.2062   10.1164  -13.9009 H   0  0  0  0  0  0  0  0  0  0  0  0
   -6.8838   12.2269  -14.1010 H   0  0  0  0  0  0  0  0  0  0  0  0
   -6.6762    9.1901   -9.6484 H   0  0  0  0  0  0  0  0  0  0  0  0
   -8.1045   10.5565   -7.6017 H   0  0  0  0  0  0  0  0  0  0  0  0
   -7.4046    8.9027   -7.5598 H   0  0  0  0  0  0  0  0  0  0  0  0
   -4.8910    8.7811   -8.4977 H   0  0  0  0  0  0  0  0  0  0  0  0
   -2.6611    9.7505   -8.0541 H   0  0  0  0  0  0  0  0  0  0  0  0
   -4.5085   13.2827   -6.4709 H   0  0  0  0  0  0  0  0  0  0  0  0
   -6.7367   12.3092   -6.9005 H   0  0  0  0  0  0  0  0  0  0  0  0
   -2.4562   14.1858   -6.1223 H   0  0  0  0  0  0  0  0  0  0  0  0
   -0.6475   10.6160   -7.6308 H   0  0  0  0  0  0  0  0  0  0  0  0
    1.4583   14.3222   -6.0031 H   0  0  0  0  0  0  0  0  0  0  0  0
    0.1876   15.4829   -6.5173 H   0  0  0  0  0  0  0  0  0  0  0  0
    0.1562   14.7932   -4.8589 H   0  0  0  0  0  0  0  0  0  0  0  0
   -4.8767   12.9944   -9.3773 H   0  0  0  0  0  0  0  0  0  0  0  0
   -3.6317   12.1505  -10.3594 H   0  0  0  0  0  0  0  0  0  0  0  0
   -3.0652   15.3118  -11.9005 H   0  0  0  0  0  0  0  0  0  0  0  0
   -4.3514   15.9332  -10.8114 H   0  0  0  0  0  0  0  0  0  0  0  0
  1  2  2  0  0  0  0
  1  4  1  0  0  0  0
  1 12  1  0  0  0  0
  2  6  1  0  0  0  0
  3  4  2  0  0  0  0
  3  5  1  0  0  0  0
  5  6  2  0  0  0  0
  5  9  1  0  0  0  0
  6  7  1  0  0  0  0
  7  8  1  0  0  0  0
  7 10  1  0  0  0  0
  8  9  2  0  0  0  0
 10 14  1  0  0  0  0
 11 12  1  0  0  0  0
 11 26  1  0  0  0  0
 11 28  1  0  0  0  0
 12 13  2  0  0  0  0
 14 15  2  0  0  0  0
 14 19  1  0  0  0  0
 15 16  1  0  0  0  0
 16 17  2  0  0  0  0
 17 18  1  0  0  0  0
 17 20  1  0  0  0  0
 18 19  2  0  0  0  0
 20 21  2  0  0  0  0
 20 24  1  0  0  0  0
 21 22  1  0  0  0  0
 22 23  1  0  0  0  0
 22 25  1  0  0  0  0
 23 24  2  0  0  0  0
 26 27  1  0  0  0  0
 27 28  1  0  0  0  0
 27 29  1  0  0  0  0
 27 30  1  0  0  0  0
  2 31  1  0  0  0  0
  3 32  1  0  0  0  0
  4 33  1  0  0  0  0
  7 34  1  0  0  0  0
 10 35  1  0  0  0  0
 10 36  1  0  0  0  0
 15 37  1  0  0  0  0
 16 38  1  0  0  0  0
 18 39  1  0  0  0  0
 19 40  1  0  0  0  0
 21 41  1  0  0  0  0
 24 42  1  0  0  0  0
 25 43  1  0  0  0  0
 25 44  1  0  0  0  0
 25 45  1  0  0  0  0
 26 46  1  0  0  0  0
 26 47  1  0  0  0  0
 28 48  1  0  0  0  0
 28 49  1  0  0  0  0
M  END
> <Name>
34

> <IC50[uM]>
0.007

$$$$
34
  -OEChem-05192314333D
 Structure written by MMmdl.
 49 53  0     0  0  0  0  0  0999 V2000
   -6.4024   12.3461  -12.0147 C   0  0  0  0  0  0  0  0  0  0  0  0
   -6.5825   11.7781  -10.7426 C   0  0  0  0  0  0  0  0  0  0  0  0
   -7.7347   10.5660  -13.0395 C   0  0  0  0  0  0  0  0  0  0  0  0
   -6.9966   11.7550  -13.1361 C   0  0  0  0  0  0  0  0  0  0  0  0
   -7.8265    9.9936  -11.7632 C   0  0  0  0  0  0  0  0  0  0  0  0
   -7.2675   10.6024  -10.6199 C   0  0  0  0  0  0  0  0  0  0  0  0
   -7.6234    9.7358   -9.5255 C   0  0  0  0  0  0  0  0  0  0  0  0
   -8.2741    8.7136   -9.9910 N   0  0  0  0  0  0  0  0  0  0  0  0
   -8.4130    8.8453  -11.3044 N   0  0  0  0  0  0  0  0  0  0  0  0
   -7.3406    9.8933   -8.0338 C   0  0  0  0  0  0  0  0  0  0  0  0
   -4.5538   13.8407  -11.3379 N   0  0  0  0  0  0  0  0  0  0  0  0
   -5.6005   13.6490  -12.1765 C   0  0  0  0  0  0  0  0  0  0  0  0
   -5.9196   14.4808  -13.0199 O   0  0  0  0  0  0  0  0  0  0  0  0
   -5.9590   10.4855   -7.7382 C   0  0  0  0  0  0  0  0  0  0  0  0
   -4.8075    9.7636   -8.0570 C   0  0  0  0  0  0  0  0  0  0  0  0
   -3.5513   10.3099   -7.8070 C   0  0  0  0  0  0  0  0  0  0  0  0
   -3.4406   11.5840   -7.2355 C   0  0  0  0  0  0  0  0  0  0  0  0
   -4.5915   12.3007   -6.9126 C   0  0  0  0  0  0  0  0  0  0  0  0
   -5.8470   11.7538   -7.1581 C   0  0  0  0  0  0  0  0  0  0  0  0
   -2.0979   12.1738   -6.9691 C   0  0  0  0  0  0  0  0  0  0  0  0
   -1.7666   13.4166   -6.4372 C   0  0  0  0  0  0  0  0  0  0  0  0
   -0.4273   13.4768   -6.3903 N   0  0  0  0  0  0  0  0  0  0  0  0
    0.1744   12.4049   -6.8247 N   0  0  0  0  0  0  0  0  0  0  0  0
   -0.8040   11.5944   -7.2012 C   0  0  0  0  0  0  0  0  0  0  0  0
    0.3946   14.5874   -5.9129 C   0  0  0  0  0  0  0  0  0  0  0  0
   -4.1104   13.1199  -10.1564 C   0  0  0  0  0  0  0  0  0  0  0  0
   -3.1547   14.2611   -9.9254 C   0  0  0  0  0  0  0  0  0  0  0  0
   -3.7686   15.0454  -11.0979 C   0  0  0  0  0  0  0  0  0  0  0  0
   -3.3454   14.7999   -8.7258 F   0  0  0  0  0  0  0  0  0  0  0  0
   -1.8808   13.9286  -10.0717 F   0  0  0  0  0  0  0  0  0  0  0  0
   -6.1820   12.2677   -9.8672 H   0  0  0  0  0  0  0  0  0  0  0  0
   -8.2062   10.1164  -13.9009 H   0  0  0  0  0  0  0  0  0  0  0  0
   -6.8838   12.2269  -14.1010 H   0  0  0  0  0  0  0  0  0  0  0  0
   -7.7672    7.8752   -9.7908 H   0  0  0  0  0  0  0  0  0  0  0  0
   -9.3878    8.8683  -11.5264 H   0  0  0  0  0  0  0  0  0  0  0  0
   -8.0445    9.6149   -7.2634 H   0  0  0  0  0  0  0  0  0  0  0  0
   -4.8910    8.7811   -8.4977 H   0  0  0  0  0  0  0  0  0  0  0  0
   -2.6611    9.7505   -8.0541 H   0  0  0  0  0  0  0  0  0  0  0  0
   -4.5085   13.2827   -6.4709 H   0  0  0  0  0  0  0  0  0  0  0  0
   -6.7367   12.3092   -6.9005 H   0  0  0  0  0  0  0  0  0  0  0  0
   -2.4562   14.1858   -6.1223 H   0  0  0  0  0  0  0  0  0  0  0  0
   -0.6475   10.6160   -7.6308 H   0  0  0  0  0  0  0  0  0  0  0  0
    1.4583   14.3222   -6.0031 H   0  0  0  0  0  0  0  0  0  0  0  0
    0.1876   15.4829   -6.5173 H   0  0  0  0  0  0  0  0  0  0  0  0
    0.1562   14.7932   -4.8589 H   0  0  0  0  0  0  0  0  0  0  0  0
   -4.8767   12.9944   -9.3773 H   0  0  0  0  0  0  0  0  0  0  0  0
   -3.6317   12.1505  -10.3594 H   0  0  0  0  0  0  0  0  0  0  0  0
   -3.0652   15.3118  -11.9005 H   0  0  0  0  0  0  0  0  0  0  0  0
   -4.3514   15.9332  -10.8114 H   0  0  0  0  0  0  0  0  0  0  0  0
  1  2  2  0  0  0  0
  1  4  1  0  0  0  0
  1 12  1  0  0  0  0
  2  6  1  0  0  0  0
  3  4  2  0  0  0  0
  3  5  1  0  0  0  0
  5  6  2  0  0  0  0
  5  9  1  0  0  0  0
  6  7  1  0  0  0  0
  7  8  1  0  0  0  0
  7 10  2  3  0  0  0
  8  9  1  0  0  0  0
 10 14  1  0  0  0  0
 11 12  1  0  0  0  0
 11 26  1  0  0  0  0
 11 28  1  0  0  0  0
 12 13  2  0  0  0  0
 14 15  2  0  0  0  0
 14 19  1  0  0  0  0
 15 16  1  0  0  0  0
 16 17  2  0  0  0  0
 17 18  1  0  0  0  0
 17 20  1  0  0  0  0
 18 19  2  0  0  0  0
 20 21  2  0  0  0  0
 20 24  1  0  0  0  0
 21 22  1  0  0  0  0
 22 23  1  0  0  0  0
 22 25  1  0  0  0  0
 23 24  2  0  0  0  0
 26 27  1  0  0  0  0
 27 28  1  0  0  0  0
 27 29  1  0  0  0  0
 27 30  1  0  0  0  0
  2 31  1  0  0  0  0
  3 32  1  0  0  0  0
  4 33  1  0  0  0  0
  8 34  1  0  0  0  0
  9 35  1  0  0  0  0
 10 36  1  0  0  0  0
 15 37  1  0  0  0  0
 16 38  1  0  0  0  0
 18 39  1  0  0  0  0
 19 40  1  0  0  0  0
 21 41  1  0  0  0  0
 24 42  1  0  0  0  0
 25 43  1  0  0  0  0
 25 44  1  0  0  0  0
 25 45  1  0  0  0  0
 26 46  1  0  0  0  0
 26 47  1  0  0  0  0
 28 48  1  0  0  0  0
 28 49  1  0  0  0  0
M  END
> <Name>
34

> <IC50[uM]>
0.007

$$$$
34
  -OEChem-05192314333D
 Structure written by MMmdl.
 49 53  0     1  0  0  0  0  0999 V2000
   -6.4024   12.3461  -12.0147 C   0  0  3  0  0  0  0  0  0  0  0  0
   -6.5825   11.7781  -10.7426 C   0  0  0  0  0  0  0  0  0  0  0  0
   -7.7347   10.5660  -13.0395 C   0  0  0  0  0  0  0  0  0  0  0  0
   -6.9966   11.7550  -13.1361 C   0  0  0  0  0  0  0  0  0  0  0  0
   -7.8265    9.9936  -11.7632 C   0  0  0  0  0  0  0  0  0  0  0  0
   -7.2675   10.6024  -10.6199 C   0  0  0  0  0  0  0  0  0  0  0  0
   -7.6234    9.7358   -9.5255 C   0  0  0  0  0  0  0  0  0  0  0  0
   -8.2741    8.7136   -9.9910 N   0  0  0  0  0  0  0  0  0  0  0  0
   -8.4130    8.8453  -11.3044 N   0  0  0  0  0  0  0  0  0  0  0  0
   -7.3406    9.8933   -8.0338 C   0  0  0  0  0  0  0  0  0  0  0  0
   -4.5538   13.8407  -11.3379 N   0  0  0  0  0  0  0  0  0  0  0  0
   -5.6005   13.6490  -12.1765 C   0  0  0  0  0  0  0  0  0  0  0  0
   -5.9196   14.4808  -13.0199 O   0  0  0  0  0  0  0  0  0  0  0  0
   -5.9590   10.4855   -7.7382 C   0  0  0  0  0  0  0  0  0  0  0  0
   -4.8075    9.7636   -8.0570 C   0  0  0  0  0  0  0  0  0  0  0  0
   -3.5513   10.3099   -7.8070 C   0  0  0  0  0  0  0  0  0  0  0  0
   -3.4406   11.5840   -7.2355 C   0  0  0  0  0  0  0  0  0  0  0  0
   -4.5915   12.3007   -6.9126 C   0  0  0  0  0  0  0  0  0  0  0  0
   -5.8470   11.7538   -7.1581 C   0  0  0  0  0  0  0  0  0  0  0  0
   -2.0979   12.1738   -6.9691 C   0  0  0  0  0  0  0  0  0  0  0  0
   -1.7666   13.4166   -6.4372 C   0  0  0  0  0  0  0  0  0  0  0  0
   -0.4273   13.4768   -6.3903 N   0  0  0  0  0  0  0  0  0  0  0  0
    0.1744   12.4049   -6.8247 N   0  0  0  0  0  0  0  0  0  0  0  0
   -0.8040   11.5944   -7.2012 C   0  0  0  0  0  0  0  0  0  0  0  0
    0.3946   14.5874   -5.9129 C   0  0  0  0  0  0  0  0  0  0  0  0
   -4.1104   13.1199  -10.1564 C   0  0  0  0  0  0  0  0  0  0  0  0
   -3.1547   14.2611   -9.9254 C   0  0  0  0  0  0  0  0  0  0  0  0
   -3.7686   15.0454  -11.0979 C   0  0  0  0  0  0  0  0  0  0  0  0
   -3.3454   14.7999   -8.7258 F   0  0  0  0  0  0  0  0  0  0  0  0
   -1.8808   13.9286  -10.0717 F   0  0  0  0  0  0  0  0  0  0  0  0
   -5.4901   11.7507  -12.1668 H   0  0  0  0  0  0  0  0  0  0  0  0
   -6.1820   12.2677   -9.8672 H   0  0  0  0  0  0  0  0  0  0  0  0
   -8.2062   10.1164  -13.9009 H   0  0  0  0  0  0  0  0  0  0  0  0
   -6.8838   12.2269  -14.1010 H   0  0  0  0  0  0  0  0  0  0  0  0
   -8.6165    7.9481   -9.4463 H   0  0  0  0  0  0  0  0  0  0  0  0
   -8.0445    9.6149   -7.2634 H   0  0  0  0  0  0  0  0  0  0  0  0
   -4.8910    8.7811   -8.4977 H   0  0  0  0  0  0  0  0  0  0  0  0
   -2.6611    9.7505   -8.0541 H   0  0  0  0  0  0  0  0  0  0  0  0
   -4.5085   13.2827   -6.4709 H   0  0  0  0  0  0  0  0  0  0  0  0
   -6.7367   12.3092   -6.9005 H   0  0  0  0  0  0  0  0  0  0  0  0
   -2.4562   14.1858   -6.1223 H   0  0  0  0  0  0  0  0  0  0  0  0
   -0.6475   10.6160   -7.6308 H   0  0  0  0  0  0  0  0  0  0  0  0
    1.4583   14.3222   -6.0031 H   0  0  0  0  0  0  0  0  0  0  0  0
    0.1876   15.4829   -6.5173 H   0  0  0  0  0  0  0  0  0  0  0  0
    0.1562   14.7932   -4.8589 H   0  0  0  0  0  0  0  0  0  0  0  0
   -4.8767   12.9944   -9.3773 H   0  0  0  0  0  0  0  0  0  0  0  0
   -3.6317   12.1505  -10.3594 H   0  0  0  0  0  0  0  0  0  0  0  0
   -3.0652   15.3118  -11.9005 H   0  0  0  0  0  0  0  0  0  0  0  0
   -4.3514   15.9332  -10.8114 H   0  0  0  0  0  0  0  0  0  0  0  0
  1  2  1  0  0  0  0
  1  4  1  0  0  0  0
  1 12  1  0  0  0  0
  2  6  2  0  0  0  0
  3  4  2  0  0  0  0
  3  5  1  0  0  0  0
  5  6  1  0  0  0  0
  5  9  2  0  0  0  0
  6  7  1  0  0  0  0
  7  8  1  0  0  0  0
  7 10  2  3  0  0  0
  8  9  1  0  0  0  0
 10 14  1  0  0  0  0
 11 12  1  0  0  0  0
 11 26  1  0  0  0  0
 11 28  1  0  0  0  0
 12 13  2  0  0  0  0
 14 15  2  0  0  0  0
 14 19  1  0  0  0  0
 15 16  1  0  0  0  0
 16 17  2  0  0  0  0
 17 18  1  0  0  0  0
 17 20  1  0  0  0  0
 18 19  2  0  0  0  0
 20 21  2  0  0  0  0
 20 24  1  0  0  0  0
 21 22  1  0  0  0  0
 22 23  1  0  0  0  0
 22 25  1  0  0  0  0
 23 24  2  0  0  0  0
 26 27  1  0  0  0  0
 27 28  1  0  0  0  0
 27 29  1  0  0  0  0
 27 30  1  0  0  0  0
  1 31  1  0  0  0  0
  2 32  1  0  0  0  0
  3 33  1  0  0  0  0
  4 34  1  0  0  0  0
  8 35  1  0  0  0  0
 10 36  1  0  0  0  0
 15 37  1  0  0  0  0
 16 38  1  0  0  0  0
 18 39  1  0  0  0  0
 19 40  1  0  0  0  0
 21 41  1  0  0  0  0
 24 42  1  0  0  0  0
 25 43  1  0  0  0  0
 25 44  1  0  0  0  0
 25 45  1  0  0  0  0
 26 46  1  0  0  0  0
 26 47  1  0  0  0  0
 28 48  1  0  0  0  0
 28 49  1  0  0  0  0
M  END
> <Name>
34

> <IC50[uM]>
0.007

$$$$
34
  -OEChem-05192314333D
 Structure written by MMmdl.
 49 53  0     0  0  0  0  0  0999 V2000
   -6.4024   12.3461  -12.0147 C   0  0  0  0  0  0  0  0  0  0  0  0
   -6.5825   11.7781  -10.7426 C   0  0  0  0  0  0  0  0  0  0  0  0
   -7.7347   10.5660  -13.0395 C   0  0  0  0  0  0  0  0  0  0  0  0
   -6.9966   11.7550  -13.1361 C   0  0  0  0  0  0  0  0  0  0  0  0
   -7.8265    9.9936  -11.7632 C   0  0  0  0  0  0  0  0  0  0  0  0
   -7.2675   10.6024  -10.6199 C   0  0  0  0  0  0  0  0  0  0  0  0
   -7.6234    9.7358   -9.5255 C   0  0  0  0  0  0  0  0  0  0  0  0
   -8.2741    8.7136   -9.9910 N   0  0  0  0  0  0  0  0  0  0  0  0
   -8.4130    8.8453  -11.3044 N   0  0  0  0  0  0  0  0  0  0  0  0
   -7.3406    9.8933   -8.0338 C   0  0  0  0  0  0  0  0  0  0  0  0
   -4.5538   13.8407  -11.3379 N   0  0  0  0  0  0  0  0  0  0  0  0
   -5.6005   13.6490  -12.1765 C   0  0  0  0  0  0  0  0  0  0  0  0
   -5.9196   14.4808  -13.0199 O   0  0  0  0  0  0  0  0  0  0  0  0
   -5.9590   10.4855   -7.7382 C   0  0  0  0  0  0  0  0  0  0  0  0
   -4.8075    9.7636   -8.0570 C   0  0  0  0  0  0  0  0  0  0  0  0
   -3.5513   10.3099   -7.8070 C   0  0  0  0  0  0  0  0  0  0  0  0
   -3.4406   11.5840   -7.2355 C   0  0  0  0  0  0  0  0  0  0  0  0
   -4.5915   12.3007   -6.9126 C   0  0  0  0  0  0  0  0  0  0  0  0
   -5.8470   11.7538   -7.1581 C   0  0  0  0  0  0  0  0  0  0  0  0
   -2.0979   12.1738   -6.9691 C   0  0  0  0  0  0  0  0  0  0  0  0
   -1.7666   13.4166   -6.4372 C   0  0  0  0  0  0  0  0  0  0  0  0
   -0.4273   13.4768   -6.3903 N   0  0  0  0  0  0  0  0  0  0  0  0
    0.1744   12.4049   -6.8247 N   0  0  0  0  0  0  0  0  0  0  0  0
   -0.8040   11.5944   -7.2012 C   0  0  0  0  0  0  0  0  0  0  0  0
    0.3946   14.5874   -5.9129 C   0  0  0  0  0  0  0  0  0  0  0  0
   -4.1104   13.1199  -10.1564 C   0  0  0  0  0  0  0  0  0  0  0  0
   -3.1547   14.2611   -9.9254 C   0  0  0  0  0  0  0  0  0  0  0  0
   -3.7686   15.0454  -11.0979 C   0  0  0  0  0  0  0  0  0  0  0  0
   -3.3454   14.7999   -8.7258 F   0  0  0  0  0  0  0  0  0  0  0  0
   -1.8808   13.9286  -10.0717 F   0  0  0  0  0  0  0  0  0  0  0  0
   -6.1820   12.2677   -9.8672 H   0  0  0  0  0  0  0  0  0  0  0  0
   -8.7570   10.7771  -13.3864 H   0  0  0  0  0  0  0  0  0  0  0  0
   -7.2669    9.8262  -13.7057 H   0  0  0  0  0  0  0  0  0  0  0  0
   -6.8838   12.2269  -14.1010 H   0  0  0  0  0  0  0  0  0  0  0  0
   -8.6165    7.9481   -9.4463 H   0  0  0  0  0  0  0  0  0  0  0  0
   -8.0445    9.6149   -7.2634 H   0  0  0  0  0  0  0  0  0  0  0  0
   -4.8910    8.7811   -8.4977 H   0  0  0  0  0  0  0  0  0  0  0  0
   -2.6611    9.7505   -8.0541 H   0  0  0  0  0  0  0  0  0  0  0  0
   -4.5085   13.2827   -6.4709 H   0  0  0  0  0  0  0  0  0  0  0  0
   -6.7367   12.3092   -6.9005 H   0  0  0  0  0  0  0  0  0  0  0  0
   -2.4562   14.1858   -6.1223 H   0  0  0  0  0  0  0  0  0  0  0  0
   -0.6475   10.6160   -7.6308 H   0  0  0  0  0  0  0  0  0  0  0  0
    1.4583   14.3222   -6.0031 H   0  0  0  0  0  0  0  0  0  0  0  0
    0.1876   15.4829   -6.5173 H   0  0  0  0  0  0  0  0  0  0  0  0
    0.1562   14.7932   -4.8589 H   0  0  0  0  0  0  0  0  0  0  0  0
   -4.8767   12.9944   -9.3773 H   0  0  0  0  0  0  0  0  0  0  0  0
   -3.6317   12.1505  -10.3594 H   0  0  0  0  0  0  0  0  0  0  0  0
   -3.0652   15.3118  -11.9005 H   0  0  0  0  0  0  0  0  0  0  0  0
   -4.3514   15.9332  -10.8114 H   0  0  0  0  0  0  0  0  0  0  0  0
  1  2  1  0  0  0  0
  1  4  2  0  0  0  0
  1 12  1  0  0  0  0
  2  6  2  0  0  0  0
  3  4  1  0  0  0  0
  3  5  1  0  0  0  0
  5  6  1  0  0  0  0
  5  9  2  0  0  0  0
  6  7  1  0  0  0  0
  7  8  1  0  0  0  0
  7 10  2  3  0  0  0
  8  9  1  0  0  0  0
 10 14  1  0  0  0  0
 11 12  1  0  0  0  0
 11 26  1  0  0  0  0
 11 28  1  0  0  0  0
 12 13  2  0  0  0  0
 14 15  2  0  0  0  0
 14 19  1  0  0  0  0
 15 16  1  0  0  0  0
 16 17  2  0  0  0  0
 17 18  1  0  0  0  0
 17 20  1  0  0  0  0
 18 19  2  0  0  0  0
 20 21  2  0  0  0  0
 20 24  1  0  0  0  0
 21 22  1  0  0  0  0
 22 23  1  0  0  0  0
 22 25  1  0  0  0  0
 23 24  2  0  0  0  0
 26 27  1  0  0  0  0
 27 28  1  0  0  0  0
 27 29  1  0  0  0  0
 27 30  1  0  0  0  0
  2 31  1  0  0  0  0
  3 32  1  0  0  0  0
  3 33  1  0  0  0  0
  4 34  1  0  0  0  0
  8 35  1  0  0  0  0
 10 36  1  0  0  0  0
 15 37  1  0  0  0  0
 16 38  1  0  0  0  0
 18 39  1  0  0  0  0
 19 40  1  0  0  0  0
 21 41  1  0  0  0  0
 24 42  1  0  0  0  0
 25 43  1  0  0  0  0
 25 44  1  0  0  0  0
 25 45  1  0  0  0  0
 26 46  1  0  0  0  0
 26 47  1  0  0  0  0
 28 48  1  0  0  0  0
 28 49  1  0  0  0  0
M  END
> <Name>
34

> <IC50[uM]>
0.007

$$$$
34
  -OEChem-05192314333D
 Structure written by MMmdl.
 49 53  0     1  0  0  0  0  0999 V2000
   -6.4024   12.3461  -12.0147 C   0  0  0  0  0  0  0  0  0  0  0  0
   -6.5825   11.7781  -10.7426 C   0  0  0  0  0  0  0  0  0  0  0  0
   -7.7347   10.5660  -13.0395 C   0  0  0  0  0  0  0  0  0  0  0  0
   -6.9966   11.7550  -13.1361 C   0  0  0  0  0  0  0  0  0  0  0  0
   -7.8265    9.9936  -11.7632 C   0  0  0  0  0  0  0  0  0  0  0  0
   -7.2675   10.6024  -10.6199 C   0  0  0  0  0  0  0  0  0  0  0  0
   -7.6234    9.7358   -9.5255 C   0  0  0  0  0  0  0  0  0  0  0  0
   -8.2741    8.7136   -9.9910 N   0  0  0  0  0  0  0  0  0  0  0  0
   -8.4130    8.8453  -11.3044 N   0  0  0  0  0  0  0  0  0  0  0  0
   -7.3406    9.8933   -8.0338 C   0  0  0  0  0  0  0  0  0  0  0  0
   -4.5538   13.8407  -11.3379 N   0  0  0  0  0  0  0  0  0  0  0  0
   -5.6005   13.6490  -12.1765 C   0  0  0  0  0  0  0  0  0  0  0  0
   -5.9196   14.4808  -13.0199 O   0  0  0  0  0  0  0  0  0  0  0  0
   -5.9590   10.4855   -7.7382 C   0  0  0  0  0  0  0  0  0  0  0  0
   -4.8075    9.7636   -8.0570 C   0  0  0  0  0  0  0  0  0  0  0  0
   -3.5513   10.3099   -7.8070 C   0  0  0  0  0  0  0  0  0  0  0  0
   -3.4406   11.5840   -7.2355 C   0  0  0  0  0  0  0  0  0  0  0  0
   -4.5915   12.3007   -6.9126 C   0  0  0  0  0  0  0  0  0  0  0  0
   -5.8470   11.7538   -7.1581 C   0  0  0  0  0  0  0  0  0  0  0  0
   -2.0979   12.1738   -6.9691 C   0  0  0  0  0  0  0  0  0  0  0  0
   -1.7666   13.4166   -6.4372 C   0  0  0  0  0  0  0  0  0  0  0  0
   -0.4273   13.4768   -6.3903 N   0  0  3  0  0  0  0  0  0  0  0  0
    0.1744   12.4049   -6.8247 N   0  0  0  0  0  0  0  0  0  0  0  0
   -0.8040   11.5944   -7.2012 C   0  0  0  0  0  0  0  0  0  0  0  0
    0.3946   14.5874   -5.9129 C   0  0  0  0  0  0  0  0  0  0  0  0
   -4.1104   13.1199  -10.1564 C   0  0  0  0  0  0  0  0  0  0  0  0
   -3.1547   14.2611   -9.9254 C   0  0  0  0  0  0  0  0  0  0  0  0
   -3.7686   15.0454  -11.0979 C   0  0  0  0  0  0  0  0  0  0  0  0
   -3.3454   14.7999   -8.7258 F   0  0  0  0  0  0  0  0  0  0  0  0
   -1.8808   13.9286  -10.0717 F   0  0  0  0  0  0  0  0  0  0  0  0
   -6.1820   12.2677   -9.8672 H   0  0  0  0  0  0  0  0  0  0  0  0
   -8.2062   10.1164  -13.9009 H   0  0  0  0  0  0  0  0  0  0  0  0
   -6.8838   12.2269  -14.1010 H   0  0  0  0  0  0  0  0  0  0  0  0
   -8.6165    7.9481   -9.4463 H   0  0  0  0  0  0  0  0  0  0  0  0
   -8.0445    9.6149   -7.2634 H   0  0  0  0  0  0  0  0  0  0  0  0
   -4.8910    8.7811   -8.4977 H   0  0  0  0  0  0  0  0  0  0  0  0
   -2.6611    9.7505   -8.0541 H   0  0  0  0  0  0  0  0  0  0  0  0
   -4.5085   13.2827   -6.4709 H   0  0  0  0  0  0  0  0  0  0  0  0
   -6.7367   12.3092   -6.9005 H   0  0  0  0  0  0  0  0  0  0  0  0
   -2.1589   14.2193   -7.0789 H   0  0  0  0  0  0  0  0  0  0  0  0
   -2.1853   13.5185   -5.4251 H   0  0  0  0  0  0  0  0  0  0  0  0
   -0.6475   10.6160   -7.6308 H   0  0  0  0  0  0  0  0  0  0  0  0
    1.4583   14.3222   -6.0031 H   0  0  0  0  0  0  0  0  0  0  0  0
    0.1876   15.4829   -6.5173 H   0  0  0  0  0  0  0  0  0  0  0  0
    0.1562   14.7932   -4.8589 H   0  0  0  0  0  0  0  0  0  0  0  0
   -4.8767   12.9944   -9.3773 H   0  0  0  0  0  0  0  0  0  0  0  0
   -3.6317   12.1505  -10.3594 H   0  0  0  0  0  0  0  0  0  0  0  0
   -3.0652   15.3118  -11.9005 H   0  0  0  0  0  0  0  0  0  0  0  0
   -4.3514   15.9332  -10.8114 H   0  0  0  0  0  0  0  0  0  0  0  0
  1  2  2  0  0  0  0
  1  4  1  0  0  0  0
  1 12  1  0  0  0  0
  2  6  1  0  0  0  0
  3  4  2  0  0  0  0
  3  5  1  0  0  0  0
  5  6  1  0  0  0  0
  5  9  2  0  0  0  0
  6  7  2  0  0  0  0
  7  8  1  0  0  0  0
  7 10  1  0  0  0  0
  8  9  1  0  0  0  0
 10 14  2  0  0  0  0
 11 12  1  0  0  0  0
 11 26  1  0  0  0  0
 11 28  1  0  0  0  0
 12 13  2  0  0  0  0
 14 15  1  0  0  0  0
 14 19  1  0  0  0  0
 15 16  2  0  0  0  0
 16 17  1  0  0  0  0
 17 18  1  0  0  0  0
 17 20  2  0  0  0  0
 18 19  2  0  0  0  0
 20 21  1  0  0  0  0
 20 24  1  0  0  0  0
 21 22  1  0  0  0  0
 22 23  1  0  0  0  0
 22 25  1  0  0  0  0
 23 24  2  0  0  0  0
 26 27  1  0  0  0  0
 27 28  1  0  0  0  0
 27 29  1  0  0  0  0
 27 30  1  0  0  0  0
  2 31  1  0  0  0  0
  3 32  1  0  0  0  0
  4 33  1  0  0  0  0
  8 34  1  0  0  0  0
 10 35  1  0  0  0  0
 15 36  1  0  0  0  0
 16 37  1  0  0  0  0
 18 38  1  0  0  0  0
 19 39  1  0  0  0  0
 21 40  1  0  0  0  0
 21 41  1  0  0  0  0
 24 42  1  0  0  0  0
 25 43  1  0  0  0  0
 25 44  1  0  0  0  0
 25 45  1  0  0  0  0
 26 46  1  0  0  0  0
 26 47  1  0  0  0  0
 28 48  1  0  0  0  0
 28 49  1  0  0  0  0
M  END
> <Name>
34

> <IC50[uM]>
0.007

$$$$
34
  -OEChem-05192314333D
 Structure written by MMmdl.
 49 53  0     1  0  0  0  0  0999 V2000
   -6.4024   12.3461  -12.0147 C   0  0  0  0  0  0  0  0  0  0  0  0
   -6.5825   11.7781  -10.7426 C   0  0  0  0  0  0  0  0  0  0  0  0
   -7.7347   10.5660  -13.0395 C   0  0  0  0  0  0  0  0  0  0  0  0
   -6.9966   11.7550  -13.1361 C   0  0  0  0  0  0  0  0  0  0  0  0
   -7.8265    9.9936  -11.7632 C   0  0  0  0  0  0  0  0  0  0  0  0
   -7.2675   10.6024  -10.6199 C   0  0  0  0  0  0  0  0  0  0  0  0
   -7.6234    9.7358   -9.5255 C   0  0  0  0  0  0  0  0  0  0  0  0
   -8.2741    8.7136   -9.9910 N   0  0  0  0  0  0  0  0  0  0  0  0
   -8.4130    8.8453  -11.3044 N   0  0  0  0  0  0  0  0  0  0  0  0
   -7.3406    9.8933   -8.0338 C   0  0  0  0  0  0  0  0  0  0  0  0
   -4.5538   13.8407  -11.3379 N   0  0  0  0  0  0  0  0  0  0  0  0
   -5.6005   13.6490  -12.1765 C   0  0  0  0  0  0  0  0  0  0  0  0
   -5.9196   14.4808  -13.0199 O   0  0  0  0  0  0  0  0  0  0  0  0
   -5.9590   10.4855   -7.7382 C   0  0  0  0  0  0  0  0  0  0  0  0
   -4.8075    9.7636   -8.0570 C   0  0  0  0  0  0  0  0  0  0  0  0
   -3.5513   10.3099   -7.8070 C   0  0  0  0  0  0  0  0  0  0  0  0
   -3.4406   11.5840   -7.2355 C   0  0  0  0  0  0  0  0  0  0  0  0
   -4.5915   12.3007   -6.9126 C   0  0  0  0  0  0  0  0  0  0  0  0
   -5.8470   11.7538   -7.1581 C   0  0  0  0  0  0  0  0  0  0  0  0
   -2.0979   12.1738   -6.9691 C   0  0  0  0  0  0  0  0  0  0  0  0
   -1.7666   13.4166   -6.4372 C   0  0  0  0  0  0  0  0  0  0  0  0
   -0.4273   13.4768   -6.3903 N   0  0  3  0  0  0  0  0  0  0  0  0
    0.1744   12.4049   -6.8247 N   0  0  0  0  0  0  0  0  0  0  0  0
   -0.8040   11.5944   -7.2012 C   0  0  0  0  0  0  0  0  0  0  0  0
    0.3946   14.5874   -5.9129 C   0  0  0  0  0  0  0  0  0  0  0  0
   -4.1104   13.1199  -10.1564 C   0  0  0  0  0  0  0  0  0  0  0  0
   -3.1547   14.2611   -9.9254 C   0  0  0  0  0  0  0  0  0  0  0  0
   -3.7686   15.0454  -11.0979 C   0  0  0  0  0  0  0  0  0  0  0  0
   -3.3454   14.7999   -8.7258 F   0  0  0  0  0  0  0  0  0  0  0  0
   -1.8808   13.9286  -10.0717 F   0  0  0  0  0  0  0  0  0  0  0  0
   -6.1820   12.2677   -9.8672 H   0  0  0  0  0  0  0  0  0  0  0  0
   -8.2062   10.1164  -13.9009 H   0  0  0  0  0  0  0  0  0  0  0  0
   -6.8838   12.2269  -14.1010 H   0  0  0  0  0  0  0  0  0  0  0  0
   -8.8881    8.1862  -11.8874 H   0  0  0  0  0  0  0  0  0  0  0  0
   -8.0445    9.6149   -7.2634 H   0  0  0  0  0  0  0  0  0  0  0  0
   -4.8910    8.7811   -8.4977 H   0  0  0  0  0  0  0  0  0  0  0  0
   -2.6611    9.7505   -8.0541 H   0  0  0  0  0  0  0  0  0  0  0  0
   -4.5085   13.2827   -6.4709 H   0  0  0  0  0  0  0  0  0  0  0  0
   -6.7367   12.3092   -6.9005 H   0  0  0  0  0  0  0  0  0  0  0  0
   -2.1589   14.2193   -7.0789 H   0  0  0  0  0  0  0  0  0  0  0  0
   -2.1853   13.5185   -5.4251 H   0  0  0  0  0  0  0  0  0  0  0  0
   -0.6475   10.6160   -7.6308 H   0  0  0  0  0  0  0  0  0  0  0  0
    1.4583   14.3222   -6.0031 H   0  0  0  0  0  0  0  0  0  0  0  0
    0.1876   15.4829   -6.5173 H   0  0  0  0  0  0  0  0  0  0  0  0
    0.1562   14.7932   -4.8589 H   0  0  0  0  0  0  0  0  0  0  0  0
   -4.8767   12.9944   -9.3773 H   0  0  0  0  0  0  0  0  0  0  0  0
   -3.6317   12.1505  -10.3594 H   0  0  0  0  0  0  0  0  0  0  0  0
   -3.0652   15.3118  -11.9005 H   0  0  0  0  0  0  0  0  0  0  0  0
   -4.3514   15.9332  -10.8114 H   0  0  0  0  0  0  0  0  0  0  0  0
  1  2  2  0  0  0  0
  1  4  1  0  0  0  0
  1 12  1  0  0  0  0
  2  6  1  0  0  0  0
  3  4  2  0  0  0  0
  3  5  1  0  0  0  0
  5  6  2  0  0  0  0
  5  9  1  0  0  0  0
  6  7  1  0  0  0  0
  7  8  2  0  0  0  0
  7 10  1  0  0  0  0
  8  9  1  0  0  0  0
 10 14  2  0  0  0  0
 11 12  1  0  0  0  0
 11 26  1  0  0  0  0
 11 28  1  0  0  0  0
 12 13  2  0  0  0  0
 14 15  1  0  0  0  0
 14 19  1  0  0  0  0
 15 16  2  0  0  0  0
 16 17  1  0  0  0  0
 17 18  1  0  0  0  0
 17 20  2  0  0  0  0
 18 19  2  0  0  0  0
 20 21  1  0  0  0  0
 20 24  1  0  0  0  0
 21 22  1  0  0  0  0
 22 23  1  0  0  0  0
 22 25  1  0  0  0  0
 23 24  2  0  0  0  0
 26 27  1  0  0  0  0
 27 28  1  0  0  0  0
 27 29  1  0  0  0  0
 27 30  1  0  0  0  0
  2 31  1  0  0  0  0
  3 32  1  0  0  0  0
  4 33  1  0  0  0  0
  9 34  1  0  0  0  0
 10 35  1  0  0  0  0
 15 36  1  0  0  0  0
 16 37  1  0  0  0  0
 18 38  1  0  0  0  0
 19 39  1  0  0  0  0
 21 40  1  0  0  0  0
 21 41  1  0  0  0  0
 24 42  1  0  0  0  0
 25 43  1  0  0  0  0
 25 44  1  0  0  0  0
 25 45  1  0  0  0  0
 26 46  1  0  0  0  0
 26 47  1  0  0  0  0
 28 48  1  0  0  0  0
 28 49  1  0  0  0  0
M  END
> <Name>
34

> <IC50[uM]>
0.007

$$$$
34
  -OEChem-05192314333D
 Structure written by MMmdl.
 49 53  0     0  0  0  0  0  0999 V2000
   -6.4024   12.3461  -12.0147 C   0  0  0  0  0  0  0  0  0  0  0  0
   -6.5825   11.7781  -10.7426 C   0  0  0  0  0  0  0  0  0  0  0  0
   -7.7347   10.5660  -13.0395 C   0  0  0  0  0  0  0  0  0  0  0  0
   -6.9966   11.7550  -13.1361 C   0  0  0  0  0  0  0  0  0  0  0  0
   -7.8265    9.9936  -11.7632 C   0  0  0  0  0  0  0  0  0  0  0  0
   -7.2675   10.6024  -10.6199 C   0  0  0  0  0  0  0  0  0  0  0  0
   -7.6234    9.7358   -9.5255 C   0  0  0  0  0  0  0  0  0  0  0  0
   -8.2741    8.7136   -9.9910 N   0  0  0  0  0  0  0  0  0  0  0  0
   -8.4130    8.8453  -11.3044 N   0  0  0  0  0  0  0  0  0  0  0  0
   -7.3406    9.8933   -8.0338 C   0  0  0  0  0  0  0  0  0  0  0  0
   -4.5538   13.8407  -11.3379 N   0  0  0  0  0  0  0  0  0  0  0  0
   -5.6005   13.6490  -12.1765 C   0  0  0  0  0  0  0  0  0  0  0  0
   -5.9196   14.4808  -13.0199 O   0  0  0  0  0  0  0  0  0  0  0  0
   -5.9590   10.4855   -7.7382 C   0  0  0  0  0  0  0  0  0  0  0  0
   -4.8075    9.7636   -8.0570 C   0  0  0  0  0  0  0  0  0  0  0  0
   -3.5513   10.3099   -7.8070 C   0  0  0  0  0  0  0  0  0  0  0  0
   -3.4406   11.5840   -7.2355 C   0  0  0  0  0  0  0  0  0  0  0  0
   -4.5915   12.3007   -6.9126 C   0  0  0  0  0  0  0  0  0  0  0  0
   -5.8470   11.7538   -7.1581 C   0  0  0  0  0  0  0  0  0  0  0  0
   -2.0979   12.1738   -6.9691 C   0  0  0  0  0  0  0  0  0  0  0  0
   -1.7666   13.4166   -6.4372 C   0  0  0  0  0  0  0  0  0  0  0  0
   -0.4273   13.4768   -6.3903 N   0  0  0  0  0  0  0  0  0  0  0  0
    0.1744   12.4049   -6.8247 N   0  0  0  0  0  0  0  0  0  0  0  0
   -0.8040   11.5944   -7.2012 C   0  0  0  0  0  0  0  0  0  0  0  0
    0.3946   14.5874   -5.9129 C   0  0  0  0  0  0  0  0  0  0  0  0
   -4.1104   13.1199  -10.1564 C   0  0  0  0  0  0  0  0  0  0  0  0
   -3.1547   14.2611   -9.9254 C   0  0  0  0  0  0  0  0  0  0  0  0
   -3.7686   15.0454  -11.0979 C   0  0  0  0  0  0  0  0  0  0  0  0
   -3.3454   14.7999   -8.7258 F   0  0  0  0  0  0  0  0  0  0  0  0
   -1.8808   13.9286  -10.0717 F   0  0  0  0  0  0  0  0  0  0  0  0
   -6.1820   12.2677   -9.8672 H   0  0  0  0  0  0  0  0  0  0  0  0
   -8.2062   10.1164  -13.9009 H   0  0  0  0  0  0  0  0  0  0  0  0
   -6.8838   12.2269  -14.1010 H   0  0  0  0  0  0  0  0  0  0  0  0
   -8.6165    7.9481   -9.4463 H   0  0  0  0  0  0  0  0  0  0  0  0
   -8.0445    9.6149   -7.2634 H   0  0  0  0  0  0  0  0  0  0  0  0
   -4.8910    8.7811   -8.4977 H   0  0  0  0  0  0  0  0  0  0  0  0
   -2.6611    9.7505   -8.0541 H   0  0  0  0  0  0  0  0  0  0  0  0
   -3.4404   12.0349   -8.2388 H   0  0  0  0  0  0  0  0  0  0  0  0
   -4.5085   13.2827   -6.4709 H   0  0  0  0  0  0  0  0  0  0  0  0
   -6.7367   12.3092   -6.9005 H   0  0  0  0  0  0  0  0  0  0  0  0
   -2.4562   14.1858   -6.1223 H   0  0  0  0  0  0  0  0  0  0  0  0
   -0.6475   10.6160   -7.6308 H   0  0  0  0  0  0  0  0  0  0  0  0
    1.4583   14.3222   -6.0031 H   0  0  0  0  0  0  0  0  0  0  0  0
    0.1876   15.4829   -6.5173 H   0  0  0  0  0  0  0  0  0  0  0  0
    0.1562   14.7932   -4.8589 H   0  0  0  0  0  0  0  0  0  0  0  0
   -4.8767   12.9944   -9.3773 H   0  0  0  0  0  0  0  0  0  0  0  0
   -3.6317   12.1505  -10.3594 H   0  0  0  0  0  0  0  0  0  0  0  0
   -3.0652   15.3118  -11.9005 H   0  0  0  0  0  0  0  0  0  0  0  0
   -4.3514   15.9332  -10.8114 H   0  0  0  0  0  0  0  0  0  0  0  0
  1  2  2  0  0  0  0
  1  4  1  0  0  0  0
  1 12  1  0  0  0  0
  2  6  1  0  0  0  0
  3  4  2  0  0  0  0
  3  5  1  0  0  0  0
  5  6  1  0  0  0  0
  5  9  2  0  0  0  0
  6  7  2  0  0  0  0
  7  8  1  0  0  0  0
  7 10  1  0  0  0  0
  8  9  1  0  0  0  0
 10 14  2  0  0  0  0
 11 12  1  0  0  0  0
 11 26  1  0  0  0  0
 11 28  1  0  0  0  0
 12 13  2  0  0  0  0
 14 15  1  0  0  0  0
 14 19  1  0  0  0  0
 15 16  2  0  0  0  0
 16 17  1  0  0  0  0
 17 18  1  0  0  0  0
 17 20  1  0  0  0  0
 18 19  2  0  0  0  0
 20 21  2  0  0  0  0
 20 24  1  0  0  0  0
 21 22  1  0  0  0  0
 22 23  1  0  0  0  0
 22 25  1  0  0  0  0
 23 24  2  0  0  0  0
 26 27  1  0  0  0  0
 27 28  1  0  0  0  0
 27 29  1  0  0  0  0
 27 30  1  0  0  0  0
  2 31  1  0  0  0  0
  3 32  1  0  0  0  0
  4 33  1  0  0  0  0
  8 34  1  0  0  0  0
 10 35  1  0  0  0  0
 15 36  1  0  0  0  0
 16 37  1  0  0  0  0
 17 38  1  0  0  0  0
 18 39  1  0  0  0  0
 19 40  1  0  0  0  0
 21 41  1  0  0  0  0
 24 42  1  0  0  0  0
 25 43  1  0  0  0  0
 25 44  1  0  0  0  0
 25 45  1  0  0  0  0
 26 46  1  0  0  0  0
 26 47  1  0  0  0  0
 28 48  1  0  0  0  0
 28 49  1  0  0  0  0
M  END
> <Name>
34

> <IC50[uM]>
0.007

$$$$
34
  -OEChem-05192314333D
 Structure written by MMmdl.
 49 53  0     0  0  0  0  0  0999 V2000
   -6.4024   12.3461  -12.0147 C   0  0  0  0  0  0  0  0  0  0  0  0
   -6.5825   11.7781  -10.7426 C   0  0  0  0  0  0  0  0  0  0  0  0
   -7.7347   10.5660  -13.0395 C   0  0  0  0  0  0  0  0  0  0  0  0
   -6.9966   11.7550  -13.1361 C   0  0  0  0  0  0  0  0  0  0  0  0
   -7.8265    9.9936  -11.7632 C   0  0  0  0  0  0  0  0  0  0  0  0
   -7.2675   10.6024  -10.6199 C   0  0  0  0  0  0  0  0  0  0  0  0
   -7.6234    9.7358   -9.5255 C   0  0  0  0  0  0  0  0  0  0  0  0
   -8.2741    8.7136   -9.9910 N   0  0  0  0  0  0  0  0  0  0  0  0
   -8.4130    8.8453  -11.3044 N   0  0  0  0  0  0  0  0  0  0  0  0
   -7.3406    9.8933   -8.0338 C   0  0  0  0  0  0  0  0  0  0  0  0
   -4.5538   13.8407  -11.3379 N   0  0  0  0  0  0  0  0  0  0  0  0
   -5.6005   13.6490  -12.1765 C   0  0  0  0  0  0  0  0  0  0  0  0
   -5.9196   14.4808  -13.0199 O   0  0  0  0  0  0  0  0  0  0  0  0
   -5.9590   10.4855   -7.7382 C   0  0  0  0  0  0  0  0  0  0  0  0
   -4.8075    9.7636   -8.0570 C   0  0  0  0  0  0  0  0  0  0  0  0
   -3.5513   10.3099   -7.8070 C   0  0  0  0  0  0  0  0  0  0  0  0
   -3.4406   11.5840   -7.2355 C   0  0  0  0  0  0  0  0  0  0  0  0
   -4.5915   12.3007   -6.9126 C   0  0  0  0  0  0  0  0  0  0  0  0
   -5.8470   11.7538   -7.1581 C   0  0  0  0  0  0  0  0  0  0  0  0
   -2.0979   12.1738   -6.9691 C   0  0  0  0  0  0  0  0  0  0  0  0
   -1.7666   13.4166   -6.4372 C   0  0  0  0  0  0  0  0  0  0  0  0
   -0.4273   13.4768   -6.3903 N   0  0  0  0  0  0  0  0  0  0  0  0
    0.1744   12.4049   -6.8247 N   0  0  0  0  0  0  0  0  0  0  0  0
   -0.8040   11.5944   -7.2012 C   0  0  0  0  0  0  0  0  0  0  0  0
    0.3946   14.5874   -5.9129 C   0  0  0  0  0  0  0  0  0  0  0  0
   -4.1104   13.1199  -10.1564 C   0  0  0  0  0  0  0  0  0  0  0  0
   -3.1547   14.2611   -9.9254 C   0  0  0  0  0  0  0  0  0  0  0  0
   -3.7686   15.0454  -11.0979 C   0  0  0  0  0  0  0  0  0  0  0  0
   -3.3454   14.7999   -8.7258 F   0  0  0  0  0  0  0  0  0  0  0  0
   -1.8808   13.9286  -10.0717 F   0  0  0  0  0  0  0  0  0  0  0  0
   -6.1820   12.2677   -9.8672 H   0  0  0  0  0  0  0  0  0  0  0  0
   -8.2062   10.1164  -13.9009 H   0  0  0  0  0  0  0  0  0  0  0  0
   -6.8838   12.2269  -14.1010 H   0  0  0  0  0  0  0  0  0  0  0  0
   -8.8881    8.1862  -11.8874 H   0  0  0  0  0  0  0  0  0  0  0  0
   -8.0445    9.6149   -7.2634 H   0  0  0  0  0  0  0  0  0  0  0  0
   -4.8910    8.7811   -8.4977 H   0  0  0  0  0  0  0  0  0  0  0  0
   -2.6611    9.7505   -8.0541 H   0  0  0  0  0  0  0  0  0  0  0  0
   -3.4404   12.0349   -8.2388 H   0  0  0  0  0  0  0  0  0  0  0  0
   -4.5085   13.2827   -6.4709 H   0  0  0  0  0  0  0  0  0  0  0  0
   -6.7367   12.3092   -6.9005 H   0  0  0  0  0  0  0  0  0  0  0  0
   -2.4562   14.1858   -6.1223 H   0  0  0  0  0  0  0  0  0  0  0  0
   -0.6475   10.6160   -7.6308 H   0  0  0  0  0  0  0  0  0  0  0  0
    1.4583   14.3222   -6.0031 H   0  0  0  0  0  0  0  0  0  0  0  0
    0.1876   15.4829   -6.5173 H   0  0  0  0  0  0  0  0  0  0  0  0
    0.1562   14.7932   -4.8589 H   0  0  0  0  0  0  0  0  0  0  0  0
   -4.8767   12.9944   -9.3773 H   0  0  0  0  0  0  0  0  0  0  0  0
   -3.6317   12.1505  -10.3594 H   0  0  0  0  0  0  0  0  0  0  0  0
   -3.0652   15.3118  -11.9005 H   0  0  0  0  0  0  0  0  0  0  0  0
   -4.3514   15.9332  -10.8114 H   0  0  0  0  0  0  0  0  0  0  0  0
  1  2  2  0  0  0  0
  1  4  1  0  0  0  0
  1 12  1  0  0  0  0
  2  6  1  0  0  0  0
  3  4  2  0  0  0  0
  3  5  1  0  0  0  0
  5  6  2  0  0  0  0
  5  9  1  0  0  0  0
  6  7  1  0  0  0  0
  7  8  2  0  0  0  0
  7 10  1  0  0  0  0
  8  9  1  0  0  0  0
 10 14  2  0  0  0  0
 11 12  1  0  0  0  0
 11 26  1  0  0  0  0
 11 28  1  0  0  0  0
 12 13  2  0  0  0  0
 14 15  1  0  0  0  0
 14 19  1  0  0  0  0
 15 16  2  0  0  0  0
 16 17  1  0  0  0  0
 17 18  1  0  0  0  0
 17 20  1  0  0  0  0
 18 19  2  0  0  0  0
 20 21  2  0  0  0  0
 20 24  1  0  0  0  0
 21 22  1  0  0  0  0
 22 23  1  0  0  0  0
 22 25  1  0  0  0  0
 23 24  2  0  0  0  0
 26 27  1  0  0  0  0
 27 28  1  0  0  0  0
 27 29  1  0  0  0  0
 27 30  1  0  0  0  0
  2 31  1  0  0  0  0
  3 32  1  0  0  0  0
  4 33  1  0  0  0  0
  9 34  1  0  0  0  0
 10 35  1  0  0  0  0
 15 36  1  0  0  0  0
 16 37  1  0  0  0  0
 17 38  1  0  0  0  0
 18 39  1  0  0  0  0
 19 40  1  0  0  0  0
 21 41  1  0  0  0  0
 24 42  1  0  0  0  0
 25 43  1  0  0  0  0
 25 44  1  0  0  0  0
 25 45  1  0  0  0  0
 26 46  1  0  0  0  0
 26 47  1  0  0  0  0
 28 48  1  0  0  0  0
 28 49  1  0  0  0  0
M  END
> <Name>
34

> <IC50[uM]>
0.007

$$$$
34
  -OEChem-05192314333D
 Structure written by MMmdl.
 49 53  0     0  0  0  0  0  0999 V2000
   -6.4024   12.3461  -12.0147 C   0  0  0  0  0  0  0  0  0  0  0  0
   -6.5825   11.7781  -10.7426 C   0  0  0  0  0  0  0  0  0  0  0  0
   -7.7347   10.5660  -13.0395 C   0  0  0  0  0  0  0  0  0  0  0  0
   -6.9966   11.7550  -13.1361 C   0  0  0  0  0  0  0  0  0  0  0  0
   -7.8265    9.9936  -11.7632 C   0  0  0  0  0  0  0  0  0  0  0  0
   -7.2675   10.6024  -10.6199 C   0  0  0  0  0  0  0  0  0  0  0  0
   -7.6234    9.7358   -9.5255 C   0  0  0  0  0  0  0  0  0  0  0  0
   -8.2741    8.7136   -9.9910 N   0  0  0  0  0  0  0  0  0  0  0  0
   -8.4130    8.8453  -11.3044 N   0  0  0  0  0  0  0  0  0  0  0  0
   -7.3406    9.8933   -8.0338 C   0  0  0  0  0  0  0  0  0  0  0  0
   -4.5538   13.8407  -11.3379 N   0  0  0  0  0  0  0  0  0  0  0  0
   -5.6005   13.6490  -12.1765 C   0  0  0  0  0  0  0  0  0  0  0  0
   -5.9196   14.4808  -13.0199 O   0  0  0  0  0  0  0  0  0  0  0  0
   -5.9590   10.4855   -7.7382 C   0  0  0  0  0  0  0  0  0  0  0  0
   -4.8075    9.7636   -8.0570 C   0  0  0  0  0  0  0  0  0  0  0  0
   -3.5513   10.3099   -7.8070 C   0  0  0  0  0  0  0  0  0  0  0  0
   -3.4406   11.5840   -7.2355 C   0  0  0  0  0  0  0  0  0  0  0  0
   -4.5915   12.3007   -6.9126 C   0  0  0  0  0  0  0  0  0  0  0  0
   -5.8470   11.7538   -7.1581 C   0  0  0  0  0  0  0  0  0  0  0  0
   -2.0979   12.1738   -6.9691 C   0  0  0  0  0  0  0  0  0  0  0  0
   -1.7666   13.4166   -6.4372 C   0  0  0  0  0  0  0  0  0  0  0  0
   -0.4273   13.4768   -6.3903 N   0  0  0  0  0  0  0  0  0  0  0  0
    0.1744   12.4049   -6.8247 N   0  0  0  0  0  0  0  0  0  0  0  0
   -0.8040   11.5944   -7.2012 C   0  0  0  0  0  0  0  0  0  0  0  0
    0.3946   14.5874   -5.9129 C   0  0  0  0  0  0  0  0  0  0  0  0
   -4.1104   13.1199  -10.1564 C   0  0  0  0  0  0  0  0  0  0  0  0
   -3.1547   14.2611   -9.9254 C   0  0  0  0  0  0  0  0  0  0  0  0
   -3.7686   15.0454  -11.0979 C   0  0  0  0  0  0  0  0  0  0  0  0
   -3.3454   14.7999   -8.7258 F   0  0  0  0  0  0  0  0  0  0  0  0
   -1.8808   13.9286  -10.0717 F   0  0  0  0  0  0  0  0  0  0  0  0
   -6.1820   12.2677   -9.8672 H   0  0  0  0  0  0  0  0  0  0  0  0
   -8.2062   10.1164  -13.9009 H   0  0  0  0  0  0  0  0  0  0  0  0
   -6.8838   12.2269  -14.1010 H   0  0  0  0  0  0  0  0  0  0  0  0
   -8.6165    7.9481   -9.4463 H   0  0  0  0  0  0  0  0  0  0  0  0
   -8.0445    9.6149   -7.2634 H   0  0  0  0  0  0  0  0  0  0  0  0
   -4.8910    8.7811   -8.4977 H   0  0  0  0  0  0  0  0  0  0  0  0
   -2.6611    9.7505   -8.0541 H   0  0  0  0  0  0  0  0  0  0  0  0
   -4.5085   13.2827   -6.4709 H   0  0  0  0  0  0  0  0  0  0  0  0
   -6.3733   12.4542   -7.8233 H   0  0  0  0  0  0  0  0  0  0  0  0
   -6.3670   11.7066   -6.1899 H   0  0  0  0  0  0  0  0  0  0  0  0
   -2.4562   14.1858   -6.1223 H   0  0  0  0  0  0  0  0  0  0  0  0
   -0.6475   10.6160   -7.6308 H   0  0  0  0  0  0  0  0  0  0  0  0
    1.4583   14.3222   -6.0031 H   0  0  0  0  0  0  0  0  0  0  0  0
    0.1876   15.4829   -6.5173 H   0  0  0  0  0  0  0  0  0  0  0  0
    0.1562   14.7932   -4.8589 H   0  0  0  0  0  0  0  0  0  0  0  0
   -4.8767   12.9944   -9.3773 H   0  0  0  0  0  0  0  0  0  0  0  0
   -3.6317   12.1505  -10.3594 H   0  0  0  0  0  0  0  0  0  0  0  0
   -3.0652   15.3118  -11.9005 H   0  0  0  0  0  0  0  0  0  0  0  0
   -4.3514   15.9332  -10.8114 H   0  0  0  0  0  0  0  0  0  0  0  0
  1  2  2  0  0  0  0
  1  4  1  0  0  0  0
  1 12  1  0  0  0  0
  2  6  1  0  0  0  0
  3  4  2  0  0  0  0
  3  5  1  0  0  0  0
  5  6  1  0  0  0  0
  5  9  2  0  0  0  0
  6  7  2  0  0  0  0
  7  8  1  0  0  0  0
  7 10  1  0  0  0  0
  8  9  1  0  0  0  0
 10 14  2  3  0  0  0
 11 12  1  0  0  0  0
 11 26  1  0  0  0  0
 11 28  1  0  0  0  0
 12 13  2  0  0  0  0
 14 15  1  0  0  0  0
 14 19  1  0  0  0  0
 15 16  2  0  0  0  0
 16 17  1  0  0  0  0
 17 18  2  0  0  0  0
 17 20  1  0  0  0  0
 18 19  1  0  0  0  0
 20 21  2  0  0  0  0
 20 24  1  0  0  0  0
 21 22  1  0  0  0  0
 22 23  1  0  0  0  0
 22 25  1  0  0  0  0
 23 24  2  0  0  0  0
 26 27  1  0  0  0  0
 27 28  1  0  0  0  0
 27 29  1  0  0  0  0
 27 30  1  0  0  0  0
  2 31  1  0  0  0  0
  3 32  1  0  0  0  0
  4 33  1  0  0  0  0
  8 34  1  0  0  0  0
 10 35  1  0  0  0  0
 15 36  1  0  0  0  0
 16 37  1  0  0  0  0
 18 38  1  0  0  0  0
 19 39  1  0  0  0  0
 19 40  1  0  0  0  0
 21 41  1  0  0  0  0
 24 42  1  0  0  0  0
 25 43  1  0  0  0  0
 25 44  1  0  0  0  0
 25 45  1  0  0  0  0
 26 46  1  0  0  0  0
 26 47  1  0  0  0  0
 28 48  1  0  0  0  0
 28 49  1  0  0  0  0
M  END
> <Name>
34

> <IC50[uM]>
0.007

$$$$
34
  -OEChem-05192314333D
 Structure written by MMmdl.
 49 53  0     0  0  0  0  0  0999 V2000
   -6.4024   12.3461  -12.0147 C   0  0  0  0  0  0  0  0  0  0  0  0
   -6.5825   11.7781  -10.7426 C   0  0  0  0  0  0  0  0  0  0  0  0
   -7.7347   10.5660  -13.0395 C   0  0  0  0  0  0  0  0  0  0  0  0
   -6.9966   11.7550  -13.1361 C   0  0  0  0  0  0  0  0  0  0  0  0
   -7.8265    9.9936  -11.7632 C   0  0  0  0  0  0  0  0  0  0  0  0
   -7.2675   10.6024  -10.6199 C   0  0  0  0  0  0  0  0  0  0  0  0
   -7.6234    9.7358   -9.5255 C   0  0  0  0  0  0  0  0  0  0  0  0
   -8.2741    8.7136   -9.9910 N   0  0  0  0  0  0  0  0  0  0  0  0
   -8.4130    8.8453  -11.3044 N   0  0  0  0  0  0  0  0  0  0  0  0
   -7.3406    9.8933   -8.0338 C   0  0  0  0  0  0  0  0  0  0  0  0
   -4.5538   13.8407  -11.3379 N   0  0  0  0  0  0  0  0  0  0  0  0
   -5.6005   13.6490  -12.1765 C   0  0  0  0  0  0  0  0  0  0  0  0
   -5.9196   14.4808  -13.0199 O   0  0  0  0  0  0  0  0  0  0  0  0
   -5.9590   10.4855   -7.7382 C   0  0  0  0  0  0  0  0  0  0  0  0
   -4.8075    9.7636   -8.0570 C   0  0  0  0  0  0  0  0  0  0  0  0
   -3.5513   10.3099   -7.8070 C   0  0  0  0  0  0  0  0  0  0  0  0
   -3.4406   11.5840   -7.2355 C   0  0  0  0  0  0  0  0  0  0  0  0
   -4.5915   12.3007   -6.9126 C   0  0  0  0  0  0  0  0  0  0  0  0
   -5.8470   11.7538   -7.1581 C   0  0  0  0  0  0  0  0  0  0  0  0
   -2.0979   12.1738   -6.9691 C   0  0  0  0  0  0  0  0  0  0  0  0
   -1.7666   13.4166   -6.4372 C   0  0  0  0  0  0  0  0  0  0  0  0
   -0.4273   13.4768   -6.3903 N   0  0  0  0  0  0  0  0  0  0  0  0
    0.1744   12.4049   -6.8247 N   0  0  0  0  0  0  0  0  0  0  0  0
   -0.8040   11.5944   -7.2012 C   0  0  0  0  0  0  0  0  0  0  0  0
    0.3946   14.5874   -5.9129 C   0  0  0  0  0  0  0  0  0  0  0  0
   -4.1104   13.1199  -10.1564 C   0  0  0  0  0  0  0  0  0  0  0  0
   -3.1547   14.2611   -9.9254 C   0  0  0  0  0  0  0  0  0  0  0  0
   -3.7686   15.0454  -11.0979 C   0  0  0  0  0  0  0  0  0  0  0  0
   -3.3454   14.7999   -8.7258 F   0  0  0  0  0  0  0  0  0  0  0  0
   -1.8808   13.9286  -10.0717 F   0  0  0  0  0  0  0  0  0  0  0  0
   -6.1820   12.2677   -9.8672 H   0  0  0  0  0  0  0  0  0  0  0  0
   -8.2062   10.1164  -13.9009 H   0  0  0  0  0  0  0  0  0  0  0  0
   -6.8838   12.2269  -14.1010 H   0  0  0  0  0  0  0  0  0  0  0  0
   -8.8881    8.1862  -11.8874 H   0  0  0  0  0  0  0  0  0  0  0  0
   -8.0445    9.6149   -7.2634 H   0  0  0  0  0  0  0  0  0  0  0  0
   -4.8910    8.7811   -8.4977 H   0  0  0  0  0  0  0  0  0  0  0  0
   -2.6611    9.7505   -8.0541 H   0  0  0  0  0  0  0  0  0  0  0  0
   -4.5085   13.2827   -6.4709 H   0  0  0  0  0  0  0  0  0  0  0  0
   -6.3733   12.4542   -7.8233 H   0  0  0  0  0  0  0  0  0  0  0  0
   -6.3670   11.7066   -6.1899 H   0  0  0  0  0  0  0  0  0  0  0  0
   -2.4562   14.1858   -6.1223 H   0  0  0  0  0  0  0  0  0  0  0  0
   -0.6475   10.6160   -7.6308 H   0  0  0  0  0  0  0  0  0  0  0  0
    1.4583   14.3222   -6.0031 H   0  0  0  0  0  0  0  0  0  0  0  0
    0.1876   15.4829   -6.5173 H   0  0  0  0  0  0  0  0  0  0  0  0
    0.1562   14.7932   -4.8589 H   0  0  0  0  0  0  0  0  0  0  0  0
   -4.8767   12.9944   -9.3773 H   0  0  0  0  0  0  0  0  0  0  0  0
   -3.6317   12.1505  -10.3594 H   0  0  0  0  0  0  0  0  0  0  0  0
   -3.0652   15.3118  -11.9005 H   0  0  0  0  0  0  0  0  0  0  0  0
   -4.3514   15.9332  -10.8114 H   0  0  0  0  0  0  0  0  0  0  0  0
  1  2  2  0  0  0  0
  1  4  1  0  0  0  0
  1 12  1  0  0  0  0
  2  6  1  0  0  0  0
  3  4  2  0  0  0  0
  3  5  1  0  0  0  0
  5  6  2  0  0  0  0
  5  9  1  0  0  0  0
  6  7  1  0  0  0  0
  7  8  2  0  0  0  0
  7 10  1  0  0  0  0
  8  9  1  0  0  0  0
 10 14  2  3  0  0  0
 11 12  1  0  0  0  0
 11 26  1  0  0  0  0
 11 28  1  0  0  0  0
 12 13  2  0  0  0  0
 14 15  1  0  0  0  0
 14 19  1  0  0  0  0
 15 16  2  0  0  0  0
 16 17  1  0  0  0  0
 17 18  2  0  0  0  0
 17 20  1  0  0  0  0
 18 19  1  0  0  0  0
 20 21  2  0  0  0  0
 20 24  1  0  0  0  0
 21 22  1  0  0  0  0
 22 23  1  0  0  0  0
 22 25  1  0  0  0  0
 23 24  2  0  0  0  0
 26 27  1  0  0  0  0
 27 28  1  0  0  0  0
 27 29  1  0  0  0  0
 27 30  1  0  0  0  0
  2 31  1  0  0  0  0
  3 32  1  0  0  0  0
  4 33  1  0  0  0  0
  9 34  1  0  0  0  0
 10 35  1  0  0  0  0
 15 36  1  0  0  0  0
 16 37  1  0  0  0  0
 18 38  1  0  0  0  0
 19 39  1  0  0  0  0
 19 40  1  0  0  0  0
 21 41  1  0  0  0  0
 24 42  1  0  0  0  0
 25 43  1  0  0  0  0
 25 44  1  0  0  0  0
 25 45  1  0  0  0  0
 26 46  1  0  0  0  0
 26 47  1  0  0  0  0
 28 48  1  0  0  0  0
 28 49  1  0  0  0  0
M  END
> <Name>
34

> <IC50[uM]>
0.007

$$$$
34
  -OEChem-05192314333D
 Structure written by MMmdl.
 49 53  0     1  0  0  0  0  0999 V2000
   -6.4024   12.3461  -12.0147 C   0  0  0  0  0  0  0  0  0  0  0  0
   -6.5825   11.7781  -10.7426 C   0  0  0  0  0  0  0  0  0  0  0  0
   -7.7347   10.5660  -13.0395 C   0  0  0  0  0  0  0  0  0  0  0  0
   -6.9966   11.7550  -13.1361 C   0  0  0  0  0  0  0  0  0  0  0  0
   -7.8265    9.9936  -11.7632 C   0  0  0  0  0  0  0  0  0  0  0  0
   -7.2675   10.6024  -10.6199 C   0  0  0  0  0  0  0  0  0  0  0  0
   -7.6234    9.7358   -9.5255 C   0  0  0  0  0  0  0  0  0  0  0  0
   -8.2741    8.7136   -9.9910 N   0  0  0  0  0  0  0  0  0  0  0  0
   -8.4130    8.8453  -11.3044 N   0  0  0  0  0  0  0  0  0  0  0  0
   -7.3406    9.8933   -8.0338 C   0  0  0  0  0  0  0  0  0  0  0  0
   -4.5538   13.8407  -11.3379 N   0  0  0  0  0  0  0  0  0  0  0  0
   -5.6005   13.6490  -12.1765 C   0  0  0  0  0  0  0  0  0  0  0  0
   -5.9196   14.4808  -13.0199 O   0  0  0  0  0  0  0  0  0  0  0  0
   -5.9590   10.4855   -7.7382 C   0  0  0  0  0  0  0  0  0  0  0  0
   -4.8075    9.7636   -8.0570 C   0  0  0  0  0  0  0  0  0  0  0  0
   -3.5513   10.3099   -7.8070 C   0  0  0  0  0  0  0  0  0  0  0  0
   -3.4406   11.5840   -7.2355 C   0  0  0  0  0  0  0  0  0  0  0  0
   -4.5915   12.3007   -6.9126 C   0  0  0  0  0  0  0  0  0  0  0  0
   -5.8470   11.7538   -7.1581 C   0  0  0  0  0  0  0  0  0  0  0  0
   -2.0979   12.1738   -6.9691 C   0  0  3  0  0  0  0  0  0  0  0  0
   -1.7666   13.4166   -6.4372 C   0  0  0  0  0  0  0  0  0  0  0  0
   -0.4273   13.4768   -6.3903 N   0  0  3  0  0  0  0  0  0  0  0  0
    0.1744   12.4049   -6.8247 N   0  0  0  0  0  0  0  0  0  0  0  0
   -0.8040   11.5944   -7.2012 C   0  0  0  0  0  0  0  0  0  0  0  0
    0.3946   14.5874   -5.9129 C   0  0  0  0  0  0  0  0  0  0  0  0
   -4.1104   13.1199  -10.1564 C   0  0  0  0  0  0  0  0  0  0  0  0
   -3.1547   14.2611   -9.9254 C   0  0  0  0  0  0  0  0  0  0  0  0
   -3.7686   15.0454  -11.0979 C   0  0  0  0  0  0  0  0  0  0  0  0
   -3.3454   14.7999   -8.7258 F   0  0  0  0  0  0  0  0  0  0  0  0
   -1.8808   13.9286  -10.0717 F   0  0  0  0  0  0  0  0  0  0  0  0
   -6.1820   12.2677   -9.8672 H   0  0  0  0  0  0  0  0  0  0  0  0
   -8.2062   10.1164  -13.9009 H   0  0  0  0  0  0  0  0  0  0  0  0
   -6.8838   12.2269  -14.1010 H   0  0  0  0  0  0  0  0  0  0  0  0
   -8.0445    9.6149   -7.2634 H   0  0  0  0  0  0  0  0  0  0  0  0
   -4.8910    8.7811   -8.4977 H   0  0  0  0  0  0  0  0  0  0  0  0
   -2.6611    9.7505   -8.0541 H   0  0  0  0  0  0  0  0  0  0  0  0
   -4.5085   13.2827   -6.4709 H   0  0  0  0  0  0  0  0  0  0  0  0
   -6.7367   12.3092   -6.9005 H   0  0  0  0  0  0  0  0  0  0  0  0
   -2.1094   11.7433   -5.9569 H   0  0  0  0  0  0  0  0  0  0  0  0
   -2.1589   14.2193   -7.0789 H   0  0  0  0  0  0  0  0  0  0  0  0
   -2.1853   13.5185   -5.4251 H   0  0  0  0  0  0  0  0  0  0  0  0
   -0.6475   10.6160   -7.6308 H   0  0  0  0  0  0  0  0  0  0  0  0
    1.4583   14.3222   -6.0031 H   0  0  0  0  0  0  0  0  0  0  0  0
    0.1876   15.4829   -6.5173 H   0  0  0  0  0  0  0  0  0  0  0  0
    0.1562   14.7932   -4.8589 H   0  0  0  0  0  0  0  0  0  0  0  0
   -4.8767   12.9944   -9.3773 H   0  0  0  0  0  0  0  0  0  0  0  0
   -3.6317   12.1505  -10.3594 H   0  0  0  0  0  0  0  0  0  0  0  0
   -3.0652   15.3118  -11.9005 H   0  0  0  0  0  0  0  0  0  0  0  0
   -4.3514   15.9332  -10.8114 H   0  0  0  0  0  0  0  0  0  0  0  0
  1  2  2  0  0  0  0
  1  4  1  0  0  0  0
  1 12  1  0  0  0  0
  2  6  1  0  0  0  0
  3  4  2  0  0  0  0
  3  5  1  0  0  0  0
  5  6  2  0  0  0  0
  5  9  1  0  0  0  0
  6  7  1  0  0  0  0
  7  8  1  0  0  0  0
  7 10  2  3  0  0  0
  8  9  2  0  0  0  0
 10 14  1  0  0  0  0
 11 12  1  0  0  0  0
 11 26  1  0  0  0  0
 11 28  1  0  0  0  0
 12 13  2  0  0  0  0
 14 15  2  0  0  0  0
 14 19  1  0  0  0  0
 15 16  1  0  0  0  0
 16 17  2  0  0  0  0
 17 18  1  0  0  0  0
 17 20  1  0  0  0  0
 18 19  2  0  0  0  0
 20 21  1  0  0  0  0
 20 24  1  0  0  0  0
 21 22  1  0  0  0  0
 22 23  1  0  0  0  0
 22 25  1  0  0  0  0
 23 24  2  0  0  0  0
 26 27  1  0  0  0  0
 27 28  1  0  0  0  0
 27 29  1  0  0  0  0
 27 30  1  0  0  0  0
  2 31  1  0  0  0  0
  3 32  1  0  0  0  0
  4 33  1  0  0  0  0
 10 34  1  0  0  0  0
 15 35  1  0  0  0  0
 16 36  1  0  0  0  0
 18 37  1  0  0  0  0
 19 38  1  0  0  0  0
 20 39  1  0  0  0  0
 21 40  1  0  0  0  0
 21 41  1  0  0  0  0
 24 42  1  0  0  0  0
 25 43  1  0  0  0  0
 25 44  1  0  0  0  0
 25 45  1  0  0  0  0
 26 46  1  0  0  0  0
 26 47  1  0  0  0  0
 28 48  1  0  0  0  0
 28 49  1  0  0  0  0
M  END
> <Name>
34

> <IC50[uM]>
0.007

$$$$
34
  -OEChem-05192314333D
 Structure written by MMmdl.
 49 53  0     1  0  0  0  0  0999 V2000
   -6.4024   12.3461  -12.0147 C   0  0  0  0  0  0  0  0  0  0  0  0
   -6.5825   11.7781  -10.7426 C   0  0  0  0  0  0  0  0  0  0  0  0
   -7.7347   10.5660  -13.0395 C   0  0  0  0  0  0  0  0  0  0  0  0
   -6.9966   11.7550  -13.1361 C   0  0  0  0  0  0  0  0  0  0  0  0
   -7.8265    9.9936  -11.7632 C   0  0  0  0  0  0  0  0  0  0  0  0
   -7.2675   10.6024  -10.6199 C   0  0  0  0  0  0  0  0  0  0  0  0
   -7.6234    9.7358   -9.5255 C   0  0  0  0  0  0  0  0  0  0  0  0
   -8.2741    8.7136   -9.9910 N   0  0  0  0  0  0  0  0  0  0  0  0
   -8.4130    8.8453  -11.3044 N   0  0  0  0  0  0  0  0  0  0  0  0
   -7.3406    9.8933   -8.0338 C   0  0  0  0  0  0  0  0  0  0  0  0
   -4.5538   13.8407  -11.3379 N   0  0  0  0  0  0  0  0  0  0  0  0
   -5.6005   13.6490  -12.1765 C   0  0  0  0  0  0  0  0  0  0  0  0
   -5.9196   14.4808  -13.0199 O   0  0  0  0  0  0  0  0  0  0  0  0
   -5.9590   10.4855   -7.7382 C   0  0  0  0  0  0  0  0  0  0  0  0
   -4.8075    9.7636   -8.0570 C   0  0  0  0  0  0  0  0  0  0  0  0
   -3.5513   10.3099   -7.8070 C   0  0  0  0  0  0  0  0  0  0  0  0
   -3.4406   11.5840   -7.2355 C   0  0  0  0  0  0  0  0  0  0  0  0
   -4.5915   12.3007   -6.9126 C   0  0  0  0  0  0  0  0  0  0  0  0
   -5.8470   11.7538   -7.1581 C   0  0  0  0  0  0  0  0  0  0  0  0
   -2.0979   12.1738   -6.9691 C   0  0  0  0  0  0  0  0  0  0  0  0
   -1.7666   13.4166   -6.4372 C   0  0  0  0  0  0  0  0  0  0  0  0
   -0.4273   13.4768   -6.3903 N   0  0  3  0  0  0  0  0  0  0  0  0
    0.1744   12.4049   -6.8247 N   0  0  0  0  0  0  0  0  0  0  0  0
   -0.8040   11.5944   -7.2012 C   0  0  0  0  0  0  0  0  0  0  0  0
    0.3946   14.5874   -5.9129 C   0  0  0  0  0  0  0  0  0  0  0  0
   -4.1104   13.1199  -10.1564 C   0  0  0  0  0  0  0  0  0  0  0  0
   -3.1547   14.2611   -9.9254 C   0  0  0  0  0  0  0  0  0  0  0  0
   -3.7686   15.0454  -11.0979 C   0  0  0  0  0  0  0  0  0  0  0  0
   -3.3454   14.7999   -8.7258 F   0  0  0  0  0  0  0  0  0  0  0  0
   -1.8808   13.9286  -10.0717 F   0  0  0  0  0  0  0  0  0  0  0  0
   -6.1820   12.2677   -9.8672 H   0  0  0  0  0  0  0  0  0  0  0  0
   -8.2062   10.1164  -13.9009 H   0  0  0  0  0  0  0  0  0  0  0  0
   -6.8838   12.2269  -14.1010 H   0  0  0  0  0  0  0  0  0  0  0  0
   -8.0445    9.6149   -7.2634 H   0  0  0  0  0  0  0  0  0  0  0  0
   -4.8910    8.7811   -8.4977 H   0  0  0  0  0  0  0  0  0  0  0  0
   -2.6611    9.7505   -8.0541 H   0  0  0  0  0  0  0  0  0  0  0  0
   -4.5085   13.2827   -6.4709 H   0  0  0  0  0  0  0  0  0  0  0  0
   -6.7367   12.3092   -6.9005 H   0  0  0  0  0  0  0  0  0  0  0  0
   -2.4562   14.1858   -6.1223 H   0  0  0  0  0  0  0  0  0  0  0  0
    0.7678   12.6238   -7.5993 H   0  0  0  0  0  0  0  0  0  0  0  0
   -0.7272   10.6559   -6.6325 H   0  0  0  0  0  0  0  0  0  0  0  0
   -0.6967   11.3822   -8.2752 H   0  0  0  0  0  0  0  0  0  0  0  0
    1.4584   14.3234   -6.0059 H   0  0  0  0  0  0  0  0  0  0  0  0
    0.1853   15.4837   -6.5153 H   0  0  0  0  0  0  0  0  0  0  0  0
    0.1584   14.7912   -4.8581 H   0  0  0  0  0  0  0  0  0  0  0  0
   -4.8767   12.9944   -9.3773 H   0  0  0  0  0  0  0  0  0  0  0  0
   -3.6317   12.1505  -10.3594 H   0  0  0  0  0  0  0  0  0  0  0  0
   -3.0652   15.3118  -11.9005 H   0  0  0  0  0  0  0  0  0  0  0  0
   -4.3514   15.9332  -10.8114 H   0  0  0  0  0  0  0  0  0  0  0  0
  1  2  2  0  0  0  0
  1  4  1  0  0  0  0
  1 12  1  0  0  0  0
  2  6  1  0  0  0  0
  3  4  2  0  0  0  0
  3  5  1  0  0  0  0
  5  6  2  0  0  0  0
  5  9  1  0  0  0  0
  6  7  1  0  0  0  0
  7  8  1  0  0  0  0
  7 10  2  3  0  0  0
  8  9  2  0  0  0  0
 10 14  1  0  0  0  0
 11 12  1  0  0  0  0
 11 26  1  0  0  0  0
 11 28  1  0  0  0  0
 12 13  2  0  0  0  0
 14 15  2  0  0  0  0
 14 19  1  0  0  0  0
 15 16  1  0  0  0  0
 16 17  2  0  0  0  0
 17 18  1  0  0  0  0
 17 20  1  0  0  0  0
 18 19  2  0  0  0  0
 20 21  2  0  0  0  0
 20 24  1  0  0  0  0
 21 22  1  0  0  0  0
 22 23  1  0  0  0  0
 22 25  1  0  0  0  0
 23 24  1  0  0  0  0
 26 27  1  0  0  0  0
 27 28  1  0  0  0  0
 27 29  1  0  0  0  0
 27 30  1  0  0  0  0
  2 31  1  0  0  0  0
  3 32  1  0  0  0  0
  4 33  1  0  0  0  0
 10 34  1  0  0  0  0
 15 35  1  0  0  0  0
 16 36  1  0  0  0  0
 18 37  1  0  0  0  0
 19 38  1  0  0  0  0
 21 39  1  0  0  0  0
 23 40  1  0  0  0  0
 24 41  1  0  0  0  0
 24 42  1  0  0  0  0
 25 43  1  0  0  0  0
 25 44  1  0  0  0  0
 25 45  1  0  0  0  0
 26 46  1  0  0  0  0
 26 47  1  0  0  0  0
 28 48  1  0  0  0  0
 28 49  1  0  0  0  0
M  END
> <Name>
34

> <IC50[uM]>
0.007

$$$$
34
  -OEChem-05192314333D
 Structure written by MMmdl.
 49 53  0     1  0  0  0  0  0999 V2000
   -6.4024   12.3461  -12.0147 C   0  0  0  0  0  0  0  0  0  0  0  0
   -6.5825   11.7781  -10.7426 C   0  0  0  0  0  0  0  0  0  0  0  0
   -7.7347   10.5660  -13.0395 C   0  0  0  0  0  0  0  0  0  0  0  0
   -6.9966   11.7550  -13.1361 C   0  0  0  0  0  0  0  0  0  0  0  0
   -7.8265    9.9936  -11.7632 C   0  0  0  0  0  0  0  0  0  0  0  0
   -7.2675   10.6024  -10.6199 C   0  0  0  0  0  0  0  0  0  0  0  0
   -7.6234    9.7358   -9.5255 C   0  0  0  0  0  0  0  0  0  0  0  0
   -8.2741    8.7136   -9.9910 N   0  0  0  0  0  0  0  0  0  0  0  0
   -8.4130    8.8453  -11.3044 N   0  0  0  0  0  0  0  0  0  0  0  0
   -7.3406    9.8933   -8.0338 C   0  0  0  0  0  0  0  0  0  0  0  0
   -4.5538   13.8407  -11.3379 N   0  0  0  0  0  0  0  0  0  0  0  0
   -5.6005   13.6490  -12.1765 C   0  0  0  0  0  0  0  0  0  0  0  0
   -5.9196   14.4808  -13.0199 O   0  0  0  0  0  0  0  0  0  0  0  0
   -5.9590   10.4855   -7.7382 C   0  0  0  0  0  0  0  0  0  0  0  0
   -4.8075    9.7636   -8.0570 C   0  0  0  0  0  0  0  0  0  0  0  0
   -3.5513   10.3099   -7.8070 C   0  0  0  0  0  0  0  0  0  0  0  0
   -3.4406   11.5840   -7.2355 C   0  0  0  0  0  0  0  0  0  0  0  0
   -4.5915   12.3007   -6.9126 C   0  0  0  0  0  0  0  0  0  0  0  0
   -5.8470   11.7538   -7.1581 C   0  0  0  0  0  0  0  0  0  0  0  0
   -2.0979   12.1738   -6.9691 C   0  0  0  0  0  0  0  0  0  0  0  0
   -1.7666   13.4166   -6.4372 C   0  0  0  0  0  0  0  0  0  0  0  0
   -0.4273   13.4768   -6.3903 N   0  0  3  0  0  0  0  0  0  0  0  0
    0.1744   12.4049   -6.8247 N   0  0  0  0  0  0  0  0  0  0  0  0
   -0.8040   11.5944   -7.2012 C   0  0  0  0  0  0  0  0  0  0  0  0
    0.3946   14.5874   -5.9129 C   0  0  0  0  0  0  0  0  0  0  0  0
   -4.1104   13.1199  -10.1564 C   0  0  0  0  0  0  0  0  0  0  0  0
   -3.1547   14.2611   -9.9254 C   0  0  0  0  0  0  0  0  0  0  0  0
   -3.7686   15.0454  -11.0979 C   0  0  0  0  0  0  0  0  0  0  0  0
   -3.3454   14.7999   -8.7258 F   0  0  0  0  0  0  0  0  0  0  0  0
   -1.8808   13.9286  -10.0717 F   0  0  0  0  0  0  0  0  0  0  0  0
   -6.1820   12.2677   -9.8672 H   0  0  0  0  0  0  0  0  0  0  0  0
   -8.2062   10.1164  -13.9009 H   0  0  0  0  0  0  0  0  0  0  0  0
   -6.8838   12.2269  -14.1010 H   0  0  0  0  0  0  0  0  0  0  0  0
   -8.0445    9.6149   -7.2634 H   0  0  0  0  0  0  0  0  0  0  0  0
   -4.8910    8.7811   -8.4977 H   0  0  0  0  0  0  0  0  0  0  0  0
   -2.6611    9.7505   -8.0541 H   0  0  0  0  0  0  0  0  0  0  0  0
   -4.5085   13.2827   -6.4709 H   0  0  0  0  0  0  0  0  0  0  0  0
   -6.7367   12.3092   -6.9005 H   0  0  0  0  0  0  0  0  0  0  0  0
   -2.1589   14.2193   -7.0789 H   0  0  0  0  0  0  0  0  0  0  0  0
   -2.1853   13.5185   -5.4251 H   0  0  0  0  0  0  0  0  0  0  0  0
    0.7678   12.6238   -7.5993 H   0  0  0  0  0  0  0  0  0  0  0  0
   -0.6475   10.6160   -7.6308 H   0  0  0  0  0  0  0  0  0  0  0  0
    1.4584   14.3234   -6.0059 H   0  0  0  0  0  0  0  0  0  0  0  0
    0.1853   15.4837   -6.5153 H   0  0  0  0  0  0  0  0  0  0  0  0
    0.1584   14.7912   -4.8581 H   0  0  0  0  0  0  0  0  0  0  0  0
   -4.8767   12.9944   -9.3773 H   0  0  0  0  0  0  0  0  0  0  0  0
   -3.6317   12.1505  -10.3594 H   0  0  0  0  0  0  0  0  0  0  0  0
   -3.0652   15.3118  -11.9005 H   0  0  0  0  0  0  0  0  0  0  0  0
   -4.3514   15.9332  -10.8114 H   0  0  0  0  0  0  0  0  0  0  0  0
  1  2  2  0  0  0  0
  1  4  1  0  0  0  0
  1 12  1  0  0  0  0
  2  6  1  0  0  0  0
  3  4  2  0  0  0  0
  3  5  1  0  0  0  0
  5  6  2  0  0  0  0
  5  9  1  0  0  0  0
  6  7  1  0  0  0  0
  7  8  1  0  0  0  0
  7 10  2  3  0  0  0
  8  9  2  0  0  0  0
 10 14  1  0  0  0  0
 11 12  1  0  0  0  0
 11 26  1  0  0  0  0
 11 28  1  0  0  0  0
 12 13  2  0  0  0  0
 14 15  2  0  0  0  0
 14 19  1  0  0  0  0
 15 16  1  0  0  0  0
 16 17  2  0  0  0  0
 17 18  1  0  0  0  0
 17 20  1  0  0  0  0
 18 19  2  0  0  0  0
 20 21  1  0  0  0  0
 20 24  2  0  0  0  0
 21 22  1  0  0  0  0
 22 23  1  0  0  0  0
 22 25  1  0  0  0  0
 23 24  1  0  0  0  0
 26 27  1  0  0  0  0
 27 28  1  0  0  0  0
 27 29  1  0  0  0  0
 27 30  1  0  0  0  0
  2 31  1  0  0  0  0
  3 32  1  0  0  0  0
  4 33  1  0  0  0  0
 10 34  1  0  0  0  0
 15 35  1  0  0  0  0
 16 36  1  0  0  0  0
 18 37  1  0  0  0  0
 19 38  1  0  0  0  0
 21 39  1  0  0  0  0
 21 40  1  0  0  0  0
 23 41  1  0  0  0  0
 24 42  1  0  0  0  0
 25 43  1  0  0  0  0
 25 44  1  0  0  0  0
 25 45  1  0  0  0  0
 26 46  1  0  0  0  0
 26 47  1  0  0  0  0
 28 48  1  0  0  0  0
 28 49  1  0  0  0  0
M  END
> <Name>
34

> <IC50[uM]>
0.007

$$$$
34
  -OEChem-05192314333D
 Structure written by MMmdl.
 49 53  0     1  0  0  0  0  0999 V2000
   -6.4024   12.3461  -12.0147 C   0  0  0  0  0  0  0  0  0  0  0  0
   -6.5825   11.7781  -10.7426 C   0  0  0  0  0  0  0  0  0  0  0  0
   -7.7347   10.5660  -13.0395 C   0  0  0  0  0  0  0  0  0  0  0  0
   -6.9966   11.7550  -13.1361 C   0  0  0  0  0  0  0  0  0  0  0  0
   -7.8265    9.9936  -11.7632 C   0  0  0  0  0  0  0  0  0  0  0  0
   -7.2675   10.6024  -10.6199 C   0  0  0  0  0  0  0  0  0  0  0  0
   -7.6234    9.7358   -9.5255 C   0  0  3  0  0  0  0  0  0  0  0  0
   -8.2741    8.7136   -9.9910 N   0  0  0  0  0  0  0  0  0  0  0  0
   -8.4130    8.8453  -11.3044 N   0  0  0  0  0  0  0  0  0  0  0  0
   -7.3406    9.8933   -8.0338 C   0  0  0  0  0  0  0  0  0  0  0  0
   -4.5538   13.8407  -11.3379 N   0  0  0  0  0  0  0  0  0  0  0  0
   -5.6005   13.6490  -12.1765 C   0  0  0  0  0  0  0  0  0  0  0  0
   -5.9196   14.4808  -13.0199 O   0  0  0  0  0  0  0  0  0  0  0  0
   -5.9590   10.4855   -7.7382 C   0  0  0  0  0  0  0  0  0  0  0  0
   -4.8075    9.7636   -8.0570 C   0  0  0  0  0  0  0  0  0  0  0  0
   -3.5513   10.3099   -7.8070 C   0  0  0  0  0  0  0  0  0  0  0  0
   -3.4406   11.5840   -7.2355 C   0  0  0  0  0  0  0  0  0  0  0  0
   -4.5915   12.3007   -6.9126 C   0  0  0  0  0  0  0  0  0  0  0  0
   -5.8470   11.7538   -7.1581 C   0  0  0  0  0  0  0  0  0  0  0  0
   -2.0979   12.1738   -6.9691 C   0  0  0  0  0  0  0  0  0  0  0  0
   -1.7666   13.4166   -6.4372 C   0  0  0  0  0  0  0  0  0  0  0  0
   -0.4273   13.4768   -6.3903 N   0  0  3  0  0  0  0  0  0  0  0  0
    0.1744   12.4049   -6.8247 N   0  0  0  0  0  0  0  0  0  0  0  0
   -0.8040   11.5944   -7.2012 C   0  0  0  0  0  0  0  0  0  0  0  0
    0.3946   14.5874   -5.9129 C   0  0  0  0  0  0  0  0  0  0  0  0
   -4.1104   13.1199  -10.1564 C   0  0  0  0  0  0  0  0  0  0  0  0
   -3.1547   14.2611   -9.9254 C   0  0  0  0  0  0  0  0  0  0  0  0
   -3.7686   15.0454  -11.0979 C   0  0  0  0  0  0  0  0  0  0  0  0
   -3.3454   14.7999   -8.7258 F   0  0  0  0  0  0  0  0  0  0  0  0
   -1.8808   13.9286  -10.0717 F   0  0  0  0  0  0  0  0  0  0  0  0
   -6.1820   12.2677   -9.8672 H   0  0  0  0  0  0  0  0  0  0  0  0
   -8.2062   10.1164  -13.9009 H   0  0  0  0  0  0  0  0  0  0  0  0
   -6.8838   12.2269  -14.1010 H   0  0  0  0  0  0  0  0  0  0  0  0
   -6.6762    9.1901   -9.6484 H   0  0  0  0  0  0  0  0  0  0  0  0
   -8.0445    9.6149   -7.2634 H   0  0  0  0  0  0  0  0  0  0  0  0
   -4.8910    8.7811   -8.4977 H   0  0  0  0  0  0  0  0  0  0  0  0
   -2.6611    9.7505   -8.0541 H   0  0  0  0  0  0  0  0  0  0  0  0
   -4.5085   13.2827   -6.4709 H   0  0  0  0  0  0  0  0  0  0  0  0
   -6.7367   12.3092   -6.9005 H   0  0  0  0  0  0  0  0  0  0  0  0
   -2.1589   14.2193   -7.0789 H   0  0  0  0  0  0  0  0  0  0  0  0
   -2.1853   13.5185   -5.4251 H   0  0  0  0  0  0  0  0  0  0  0  0
   -0.6475   10.6160   -7.6308 H   0  0  0  0  0  0  0  0  0  0  0  0
    1.4583   14.3222   -6.0031 H   0  0  0  0  0  0  0  0  0  0  0  0
    0.1876   15.4829   -6.5173 H   0  0  0  0  0  0  0  0  0  0  0  0
    0.1562   14.7932   -4.8589 H   0  0  0  0  0  0  0  0  0  0  0  0
   -4.8767   12.9944   -9.3773 H   0  0  0  0  0  0  0  0  0  0  0  0
   -3.6317   12.1505  -10.3594 H   0  0  0  0  0  0  0  0  0  0  0  0
   -3.0652   15.3118  -11.9005 H   0  0  0  0  0  0  0  0  0  0  0  0
   -4.3514   15.9332  -10.8114 H   0  0  0  0  0  0  0  0  0  0  0  0
  1  2  2  0  0  0  0
  1  4  1  0  0  0  0
  1 12  1  0  0  0  0
  2  6  1  0  0  0  0
  3  4  2  0  0  0  0
  3  5  1  0  0  0  0
  5  6  2  0  0  0  0
  5  9  1  0  0  0  0
  6  7  1  0  0  0  0
  7  8  1  0  0  0  0
  7 10  1  0  0  0  0
  8  9  2  0  0  0  0
 10 14  2  0  0  0  0
 11 12  1  0  0  0  0
 11 26  1  0  0  0  0
 11 28  1  0  0  0  0
 12 13  2  0  0  0  0
 14 15  1  0  0  0  0
 14 19  1  0  0  0  0
 15 16  2  0  0  0  0
 16 17  1  0  0  0  0
 17 18  1  0  0  0  0
 17 20  2  0  0  0  0
 18 19  2  0  0  0  0
 20 21  1  0  0  0  0
 20 24  1  0  0  0  0
 21 22  1  0  0  0  0
 22 23  1  0  0  0  0
 22 25  1  0  0  0  0
 23 24  2  0  0  0  0
 26 27  1  0  0  0  0
 27 28  1  0  0  0  0
 27 29  1  0  0  0  0
 27 30  1  0  0  0  0
  2 31  1  0  0  0  0
  3 32  1  0  0  0  0
  4 33  1  0  0  0  0
  7 34  1  0  0  0  0
 10 35  1  0  0  0  0
 15 36  1  0  0  0  0
 16 37  1  0  0  0  0
 18 38  1  0  0  0  0
 19 39  1  0  0  0  0
 21 40  1  0  0  0  0
 21 41  1  0  0  0  0
 24 42  1  0  0  0  0
 25 43  1  0  0  0  0
 25 44  1  0  0  0  0
 25 45  1  0  0  0  0
 26 46  1  0  0  0  0
 26 47  1  0  0  0  0
 28 48  1  0  0  0  0
 28 49  1  0  0  0  0
M  END
> <Name>
34

> <IC50[uM]>
0.007

$$$$
34
  -OEChem-05192314333D
 Structure written by MMmdl.
 49 53  0     1  0  0  0  0  0999 V2000
   -6.4024   12.3461  -12.0147 C   0  0  3  0  0  0  0  0  0  0  0  0
   -6.5825   11.7781  -10.7426 C   0  0  0  0  0  0  0  0  0  0  0  0
   -7.7347   10.5660  -13.0395 C   0  0  0  0  0  0  0  0  0  0  0  0
   -6.9966   11.7550  -13.1361 C   0  0  0  0  0  0  0  0  0  0  0  0
   -7.8265    9.9936  -11.7632 C   0  0  0  0  0  0  0  0  0  0  0  0
   -7.2675   10.6024  -10.6199 C   0  0  0  0  0  0  0  0  0  0  0  0
   -7.6234    9.7358   -9.5255 C   0  0  0  0  0  0  0  0  0  0  0  0
   -8.2741    8.7136   -9.9910 N   0  0  0  0  0  0  0  0  0  0  0  0
   -8.4130    8.8453  -11.3044 N   0  0  0  0  0  0  0  0  0  0  0  0
   -7.3406    9.8933   -8.0338 C   0  0  0  0  0  0  0  0  0  0  0  0
   -4.5538   13.8407  -11.3379 N   0  0  0  0  0  0  0  0  0  0  0  0
   -5.6005   13.6490  -12.1765 C   0  0  0  0  0  0  0  0  0  0  0  0
   -5.9196   14.4808  -13.0199 O   0  0  0  0  0  0  0  0  0  0  0  0
   -5.9590   10.4855   -7.7382 C   0  0  0  0  0  0  0  0  0  0  0  0
   -4.8075    9.7636   -8.0570 C   0  0  0  0  0  0  0  0  0  0  0  0
   -3.5513   10.3099   -7.8070 C   0  0  0  0  0  0  0  0  0  0  0  0
   -3.4406   11.5840   -7.2355 C   0  0  0  0  0  0  0  0  0  0  0  0
   -4.5915   12.3007   -6.9126 C   0  0  0  0  0  0  0  0  0  0  0  0
   -5.8470   11.7538   -7.1581 C   0  0  0  0  0  0  0  0  0  0  0  0
   -2.0979   12.1738   -6.9691 C   0  0  0  0  0  0  0  0  0  0  0  0
   -1.7666   13.4166   -6.4372 C   0  0  0  0  0  0  0  0  0  0  0  0
   -0.4273   13.4768   -6.3903 N   0  0  0  0  0  0  0  0  0  0  0  0
    0.1744   12.4049   -6.8247 N   0  0  0  0  0  0  0  0  0  0  0  0
   -0.8040   11.5944   -7.2012 C   0  0  0  0  0  0  0  0  0  0  0  0
    0.3946   14.5874   -5.9129 C   0  0  0  0  0  0  0  0  0  0  0  0
   -4.1104   13.1199  -10.1564 C   0  0  0  0  0  0  0  0  0  0  0  0
   -3.1547   14.2611   -9.9254 C   0  0  0  0  0  0  0  0  0  0  0  0
   -3.7686   15.0454  -11.0979 C   0  0  0  0  0  0  0  0  0  0  0  0
   -3.3454   14.7999   -8.7258 F   0  0  0  0  0  0  0  0  0  0  0  0
   -1.8808   13.9286  -10.0717 F   0  0  0  0  0  0  0  0  0  0  0  0
   -5.4901   11.7507  -12.1668 H   0  0  0  0  0  0  0  0  0  0  0  0
   -6.1820   12.2677   -9.8672 H   0  0  0  0  0  0  0  0  0  0  0  0
   -8.2062   10.1164  -13.9009 H   0  0  0  0  0  0  0  0  0  0  0  0
   -6.8838   12.2269  -14.1010 H   0  0  0  0  0  0  0  0  0  0  0  0
   -8.1045   10.5565   -7.6017 H   0  0  0  0  0  0  0  0  0  0  0  0
   -7.4046    8.9027   -7.5598 H   0  0  0  0  0  0  0  0  0  0  0  0
   -4.8910    8.7811   -8.4977 H   0  0  0  0  0  0  0  0  0  0  0  0
   -2.6611    9.7505   -8.0541 H   0  0  0  0  0  0  0  0  0  0  0  0
   -4.5085   13.2827   -6.4709 H   0  0  0  0  0  0  0  0  0  0  0  0
   -6.7367   12.3092   -6.9005 H   0  0  0  0  0  0  0  0  0  0  0  0
   -2.4562   14.1858   -6.1223 H   0  0  0  0  0  0  0  0  0  0  0  0
   -0.6475   10.6160   -7.6308 H   0  0  0  0  0  0  0  0  0  0  0  0
    1.4583   14.3222   -6.0031 H   0  0  0  0  0  0  0  0  0  0  0  0
    0.1876   15.4829   -6.5173 H   0  0  0  0  0  0  0  0  0  0  0  0
    0.1562   14.7932   -4.8589 H   0  0  0  0  0  0  0  0  0  0  0  0
   -4.8767   12.9944   -9.3773 H   0  0  0  0  0  0  0  0  0  0  0  0
   -3.6317   12.1505  -10.3594 H   0  0  0  0  0  0  0  0  0  0  0  0
   -3.0652   15.3118  -11.9005 H   0  0  0  0  0  0  0  0  0  0  0  0
   -4.3514   15.9332  -10.8114 H   0  0  0  0  0  0  0  0  0  0  0  0
  1  2  1  0  0  0  0
  1  4  1  0  0  0  0
  1 12  1  0  0  0  0
  2  6  2  0  0  0  0
  3  4  2  0  0  0  0
  3  5  1  0  0  0  0
  5  6  1  0  0  0  0
  5  9  2  0  0  0  0
  6  7  1  0  0  0  0
  7  8  2  0  0  0  0
  7 10  1  0  0  0  0
  8  9  1  0  0  0  0
 10 14  1  0  0  0  0
 11 12  1  0  0  0  0
 11 26  1  0  0  0  0
 11 28  1  0  0  0  0
 12 13  2  0  0  0  0
 14 15  2  0  0  0  0
 14 19  1  0  0  0  0
 15 16  1  0  0  0  0
 16 17  2  0  0  0  0
 17 18  1  0  0  0  0
 17 20  1  0  0  0  0
 18 19  2  0  0  0  0
 20 21  2  0  0  0  0
 20 24  1  0  0  0  0
 21 22  1  0  0  0  0
 22 23  1  0  0  0  0
 22 25  1  0  0  0  0
 23 24  2  0  0  0  0
 26 27  1  0  0  0  0
 27 28  1  0  0  0  0
 27 29  1  0  0  0  0
 27 30  1  0  0  0  0
  1 31  1  0  0  0  0
  2 32  1  0  0  0  0
  3 33  1  0  0  0  0
  4 34  1  0  0  0  0
 10 35  1  0  0  0  0
 10 36  1  0  0  0  0
 15 37  1  0  0  0  0
 16 38  1  0  0  0  0
 18 39  1  0  0  0  0
 19 40  1  0  0  0  0
 21 41  1  0  0  0  0
 24 42  1  0  0  0  0
 25 43  1  0  0  0  0
 25 44  1  0  0  0  0
 25 45  1  0  0  0  0
 26 46  1  0  0  0  0
 26 47  1  0  0  0  0
 28 48  1  0  0  0  0
 28 49  1  0  0  0  0
M  END
> <Name>
34

> <IC50[uM]>
0.007

$$$$
34
  -OEChem-05192314333D
 Structure written by MMmdl.
 49 53  0     1  0  0  0  0  0999 V2000
   -6.4024   12.3461  -12.0147 C   0  0  0  0  0  0  0  0  0  0  0  0
   -6.5825   11.7781  -10.7426 C   0  0  0  0  0  0  0  0  0  0  0  0
   -7.7347   10.5660  -13.0395 C   0  0  0  0  0  0  0  0  0  0  0  0
   -6.9966   11.7550  -13.1361 C   0  0  0  0  0  0  0  0  0  0  0  0
   -7.8265    9.9936  -11.7632 C   0  0  0  0  0  0  0  0  0  0  0  0
   -7.2675   10.6024  -10.6199 C   0  0  3  0  0  0  0  0  0  0  0  0
   -7.6234    9.7358   -9.5255 C   0  0  0  0  0  0  0  0  0  0  0  0
   -8.2741    8.7136   -9.9910 N   0  0  0  0  0  0  0  0  0  0  0  0
   -8.4130    8.8453  -11.3044 N   0  0  0  0  0  0  0  0  0  0  0  0
   -7.3406    9.8933   -8.0338 C   0  0  0  0  0  0  0  0  0  0  0  0
   -4.5538   13.8407  -11.3379 N   0  0  0  0  0  0  0  0  0  0  0  0
   -5.6005   13.6490  -12.1765 C   0  0  0  0  0  0  0  0  0  0  0  0
   -5.9196   14.4808  -13.0199 O   0  0  0  0  0  0  0  0  0  0  0  0
   -5.9590   10.4855   -7.7382 C   0  0  0  0  0  0  0  0  0  0  0  0
   -4.8075    9.7636   -8.0570 C   0  0  0  0  0  0  0  0  0  0  0  0
   -3.5513   10.3099   -7.8070 C   0  0  0  0  0  0  0  0  0  0  0  0
   -3.4406   11.5840   -7.2355 C   0  0  0  0  0  0  0  0  0  0  0  0
   -4.5915   12.3007   -6.9126 C   0  0  0  0  0  0  0  0  0  0  0  0
   -5.8470   11.7538   -7.1581 C   0  0  0  0  0  0  0  0  0  0  0  0
   -2.0979   12.1738   -6.9691 C   0  0  0  0  0  0  0  0  0  0  0  0
   -1.7666   13.4166   -6.4372 C   0  0  0  0  0  0  0  0  0  0  0  0
   -0.4273   13.4768   -6.3903 N   0  0  0  0  0  0  0  0  0  0  0  0
    0.1744   12.4049   -6.8247 N   0  0  0  0  0  0  0  0  0  0  0  0
   -0.8040   11.5944   -7.2012 C   0  0  0  0  0  0  0  0  0  0  0  0
    0.3946   14.5874   -5.9129 C   0  0  0  0  0  0  0  0  0  0  0  0
   -4.1104   13.1199  -10.1564 C   0  0  0  0  0  0  0  0  0  0  0  0
   -3.1547   14.2611   -9.9254 C   0  0  0  0  0  0  0  0  0  0  0  0
   -3.7686   15.0454  -11.0979 C   0  0  0  0  0  0  0  0  0  0  0  0
   -3.3454   14.7999   -8.7258 F   0  0  0  0  0  0  0  0  0  0  0  0
   -1.8808   13.9286  -10.0717 F   0  0  0  0  0  0  0  0  0  0  0  0
   -6.1820   12.2677   -9.8672 H   0  0  0  0  0  0  0  0  0  0  0  0
   -8.2062   10.1164  -13.9009 H   0  0  0  0  0  0  0  0  0  0  0  0
   -6.8838   12.2269  -14.1010 H   0  0  0  0  0  0  0  0  0  0  0  0
   -6.3352   10.0381  -10.7695 H   0  0  0  0  0  0  0  0  0  0  0  0
   -8.1045   10.5565   -7.6017 H   0  0  0  0  0  0  0  0  0  0  0  0
   -7.4046    8.9027   -7.5598 H   0  0  0  0  0  0  0  0  0  0  0  0
   -4.8910    8.7811   -8.4977 H   0  0  0  0  0  0  0  0  0  0  0  0
   -2.6611    9.7505   -8.0541 H   0  0  0  0  0  0  0  0  0  0  0  0
   -4.5085   13.2827   -6.4709 H   0  0  0  0  0  0  0  0  0  0  0  0
   -6.7367   12.3092   -6.9005 H   0  0  0  0  0  0  0  0  0  0  0  0
   -2.4562   14.1858   -6.1223 H   0  0  0  0  0  0  0  0  0  0  0  0
   -0.6475   10.6160   -7.6308 H   0  0  0  0  0  0  0  0  0  0  0  0
    1.4583   14.3222   -6.0031 H   0  0  0  0  0  0  0  0  0  0  0  0
    0.1876   15.4829   -6.5173 H   0  0  0  0  0  0  0  0  0  0  0  0
    0.1562   14.7932   -4.8589 H   0  0  0  0  0  0  0  0  0  0  0  0
   -4.8767   12.9944   -9.3773 H   0  0  0  0  0  0  0  0  0  0  0  0
   -3.6317   12.1505  -10.3594 H   0  0  0  0  0  0  0  0  0  0  0  0
   -3.0652   15.3118  -11.9005 H   0  0  0  0  0  0  0  0  0  0  0  0
   -4.3514   15.9332  -10.8114 H   0  0  0  0  0  0  0  0  0  0  0  0
  1  2  2  0  0  0  0
  1  4  1  0  0  0  0
  1 12  1  0  0  0  0
  2  6  1  0  0  0  0
  3  4  2  0  0  0  0
  3  5  1  0  0  0  0
  5  6  1  0  0  0  0
  5  9  2  0  0  0  0
  6  7  1  0  0  0  0
  7  8  2  0  0  0  0
  7 10  1  0  0  0  0
  8  9  1  0  0  0  0
 10 14  1  0  0  0  0
 11 12  1  0  0  0  0
 11 26  1  0  0  0  0
 11 28  1  0  0  0  0
 12 13  2  0  0  0  0
 14 15  2  0  0  0  0
 14 19  1  0  0  0  0
 15 16  1  0  0  0  0
 16 17  2  0  0  0  0
 17 18  1  0  0  0  0
 17 20  1  0  0  0  0
 18 19  2  0  0  0  0
 20 21  2  0  0  0  0
 20 24  1  0  0  0  0
 21 22  1  0  0  0  0
 22 23  1  0  0  0  0
 22 25  1  0  0  0  0
 23 24  2  0  0  0  0
 26 27  1  0  0  0  0
 27 28  1  0  0  0  0
 27 29  1  0  0  0  0
 27 30  1  0  0  0  0
  2 31  1  0  0  0  0
  3 32  1  0  0  0  0
  4 33  1  0  0  0  0
  6 34  1  0  0  0  0
 10 35  1  0  0  0  0
 10 36  1  0  0  0  0
 15 37  1  0  0  0  0
 16 38  1  0  0  0  0
 18 39  1  0  0  0  0
 19 40  1  0  0  0  0
 21 41  1  0  0  0  0
 24 42  1  0  0  0  0
 25 43  1  0  0  0  0
 25 44  1  0  0  0  0
 25 45  1  0  0  0  0
 26 46  1  0  0  0  0
 26 47  1  0  0  0  0
 28 48  1  0  0  0  0
 28 49  1  0  0  0  0
M  END
> <Name>
34

> <IC50[uM]>
0.007

$$$$
34
  -OEChem-05192314333D
 Structure written by MMmdl.
 49 53  0     0  0  0  0  0  0999 V2000
   -6.4024   12.3461  -12.0147 C   0  0  0  0  0  0  0  0  0  0  0  0
   -6.5825   11.7781  -10.7426 C   0  0  0  0  0  0  0  0  0  0  0  0
   -7.7347   10.5660  -13.0395 C   0  0  0  0  0  0  0  0  0  0  0  0
   -6.9966   11.7550  -13.1361 C   0  0  0  0  0  0  0  0  0  0  0  0
   -7.8265    9.9936  -11.7632 C   0  0  0  0  0  0  0  0  0  0  0  0
   -7.2675   10.6024  -10.6199 C   0  0  0  0  0  0  0  0  0  0  0  0
   -7.6234    9.7358   -9.5255 C   0  0  0  0  0  0  0  0  0  0  0  0
   -8.2741    8.7136   -9.9910 N   0  0  0  0  0  0  0  0  0  0  0  0
   -8.4130    8.8453  -11.3044 N   0  0  0  0  0  0  0  0  0  0  0  0
   -7.3406    9.8933   -8.0338 C   0  0  0  0  0  0  0  0  0  0  0  0
   -4.5538   13.8407  -11.3379 N   0  0  0  0  0  0  0  0  0  0  0  0
   -5.6005   13.6490  -12.1765 C   0  0  0  0  0  0  0  0  0  0  0  0
   -5.9196   14.4808  -13.0199 O   0  0  0  0  0  0  0  0  0  0  0  0
   -5.9590   10.4855   -7.7382 C   0  0  0  0  0  0  0  0  0  0  0  0
   -4.8075    9.7636   -8.0570 C   0  0  0  0  0  0  0  0  0  0  0  0
   -3.5513   10.3099   -7.8070 C   0  0  0  0  0  0  0  0  0  0  0  0
   -3.4406   11.5840   -7.2355 C   0  0  0  0  0  0  0  0  0  0  0  0
   -4.5915   12.3007   -6.9126 C   0  0  0  0  0  0  0  0  0  0  0  0
   -5.8470   11.7538   -7.1581 C   0  0  0  0  0  0  0  0  0  0  0  0
   -2.0979   12.1738   -6.9691 C   0  0  0  0  0  0  0  0  0  0  0  0
   -1.7666   13.4166   -6.4372 C   0  0  0  0  0  0  0  0  0  0  0  0
   -0.4273   13.4768   -6.3903 N   0  0  0  0  0  0  0  0  0  0  0  0
    0.1744   12.4049   -6.8247 N   0  0  0  0  0  0  0  0  0  0  0  0
   -0.8040   11.5944   -7.2012 C   0  0  0  0  0  0  0  0  0  0  0  0
    0.3946   14.5874   -5.9129 C   0  0  0  0  0  0  0  0  0  0  0  0
   -4.1104   13.1199  -10.1564 C   0  0  0  0  0  0  0  0  0  0  0  0
   -3.1547   14.2611   -9.9254 C   0  0  0  0  0  0  0  0  0  0  0  0
   -3.7686   15.0454  -11.0979 C   0  0  0  0  0  0  0  0  0  0  0  0
   -3.3454   14.7999   -8.7258 F   0  0  0  0  0  0  0  0  0  0  0  0
   -1.8808   13.9286  -10.0717 F   0  0  0  0  0  0  0  0  0  0  0  0
   -6.1820   12.2677   -9.8672 H   0  0  0  0  0  0  0  0  0  0  0  0
   -8.7570   10.7771  -13.3864 H   0  0  0  0  0  0  0  0  0  0  0  0
   -7.2669    9.8262  -13.7057 H   0  0  0  0  0  0  0  0  0  0  0  0
   -6.8838   12.2269  -14.1010 H   0  0  0  0  0  0  0  0  0  0  0  0
   -8.1045   10.5565   -7.6017 H   0  0  0  0  0  0  0  0  0  0  0  0
   -7.4046    8.9027   -7.5598 H   0  0  0  0  0  0  0  0  0  0  0  0
   -4.8910    8.7811   -8.4977 H   0  0  0  0  0  0  0  0  0  0  0  0
   -2.6611    9.7505   -8.0541 H   0  0  0  0  0  0  0  0  0  0  0  0
   -4.5085   13.2827   -6.4709 H   0  0  0  0  0  0  0  0  0  0  0  0
   -6.7367   12.3092   -6.9005 H   0  0  0  0  0  0  0  0  0  0  0  0
   -2.4562   14.1858   -6.1223 H   0  0  0  0  0  0  0  0  0  0  0  0
   -0.6475   10.6160   -7.6308 H   0  0  0  0  0  0  0  0  0  0  0  0
    1.4583   14.3222   -6.0031 H   0  0  0  0  0  0  0  0  0  0  0  0
    0.1876   15.4829   -6.5173 H   0  0  0  0  0  0  0  0  0  0  0  0
    0.1562   14.7932   -4.8589 H   0  0  0  0  0  0  0  0  0  0  0  0
   -4.8767   12.9944   -9.3773 H   0  0  0  0  0  0  0  0  0  0  0  0
   -3.6317   12.1505  -10.3594 H   0  0  0  0  0  0  0  0  0  0  0  0
   -3.0652   15.3118  -11.9005 H   0  0  0  0  0  0  0  0  0  0  0  0
   -4.3514   15.9332  -10.8114 H   0  0  0  0  0  0  0  0  0  0  0  0
  1  2  1  0  0  0  0
  1  4  2  0  0  0  0
  1 12  1  0  0  0  0
  2  6  2  0  0  0  0
  3  4  1  0  0  0  0
  3  5  1  0  0  0  0
  5  6  1  0  0  0  0
  5  9  2  0  0  0  0
  6  7  1  0  0  0  0
  7  8  2  0  0  0  0
  7 10  1  0  0  0  0
  8  9  1  0  0  0  0
 10 14  1  0  0  0  0
 11 12  1  0  0  0  0
 11 26  1  0  0  0  0
 11 28  1  0  0  0  0
 12 13  2  0  0  0  0
 14 15  2  0  0  0  0
 14 19  1  0  0  0  0
 15 16  1  0  0  0  0
 16 17  2  0  0  0  0
 17 18  1  0  0  0  0
 17 20  1  0  0  0  0
 18 19  2  0  0  0  0
 20 21  2  0  0  0  0
 20 24  1  0  0  0  0
 21 22  1  0  0  0  0
 22 23  1  0  0  0  0
 22 25  1  0  0  0  0
 23 24  2  0  0  0  0
 26 27  1  0  0  0  0
 27 28  1  0  0  0  0
 27 29  1  0  0  0  0
 27 30  1  0  0  0  0
  2 31  1  0  0  0  0
  3 32  1  0  0  0  0
  3 33  1  0  0  0  0
  4 34  1  0  0  0  0
 10 35  1  0  0  0  0
 10 36  1  0  0  0  0
 15 37  1  0  0  0  0
 16 38  1  0  0  0  0
 18 39  1  0  0  0  0
 19 40  1  0  0  0  0
 21 41  1  0  0  0  0
 24 42  1  0  0  0  0
 25 43  1  0  0  0  0
 25 44  1  0  0  0  0
 25 45  1  0  0  0  0
 26 46  1  0  0  0  0
 26 47  1  0  0  0  0
 28 48  1  0  0  0  0
 28 49  1  0  0  0  0
M  END
> <Name>
34

> <IC50[uM]>
0.007

$$$$
34
  -OEChem-05192314333D
 Structure written by MMmdl.
 49 53  0     0  0  0  0  0  0999 V2000
   -6.4024   12.3461  -12.0147 C   0  0  0  0  0  0  0  0  0  0  0  0
   -6.5825   11.7781  -10.7426 C   0  0  0  0  0  0  0  0  0  0  0  0
   -7.7347   10.5660  -13.0395 C   0  0  0  0  0  0  0  0  0  0  0  0
   -6.9966   11.7550  -13.1361 C   0  0  0  0  0  0  0  0  0  0  0  0
   -7.8265    9.9936  -11.7632 C   0  0  0  0  0  0  0  0  0  0  0  0
   -7.2675   10.6024  -10.6199 C   0  0  0  0  0  0  0  0  0  0  0  0
   -7.6234    9.7358   -9.5255 C   0  0  0  0  0  0  0  0  0  0  0  0
   -8.2741    8.7136   -9.9910 N   0  0  0  0  0  0  0  0  0  0  0  0
   -8.4130    8.8453  -11.3044 N   0  0  0  0  0  0  0  0  0  0  0  0
   -7.3406    9.8933   -8.0338 C   0  0  0  0  0  0  0  0  0  0  0  0
   -4.5538   13.8407  -11.3379 N   0  0  0  0  0  0  0  0  0  0  0  0
   -5.6005   13.6490  -12.1765 C   0  0  0  0  0  0  0  0  0  0  0  0
   -5.9196   14.4808  -13.0199 O   0  0  0  0  0  0  0  0  0  0  0  0
   -5.9590   10.4855   -7.7382 C   0  0  0  0  0  0  0  0  0  0  0  0
   -4.8075    9.7636   -8.0570 C   0  0  0  0  0  0  0  0  0  0  0  0
   -3.5513   10.3099   -7.8070 C   0  0  0  0  0  0  0  0  0  0  0  0
   -3.4406   11.5840   -7.2355 C   0  0  0  0  0  0  0  0  0  0  0  0
   -4.5915   12.3007   -6.9126 C   0  0  0  0  0  0  0  0  0  0  0  0
   -5.8470   11.7538   -7.1581 C   0  0  0  0  0  0  0  0  0  0  0  0
   -2.0979   12.1738   -6.9691 C   0  0  0  0  0  0  0  0  0  0  0  0
   -1.7666   13.4166   -6.4372 C   0  0  0  0  0  0  0  0  0  0  0  0
   -0.4273   13.4768   -6.3903 N   0  0  0  0  0  0  0  0  0  0  0  0
    0.1744   12.4049   -6.8247 N   0  0  0  0  0  0  0  0  0  0  0  0
   -0.8040   11.5944   -7.2012 C   0  0  0  0  0  0  0  0  0  0  0  0
    0.3946   14.5874   -5.9129 C   0  0  0  0  0  0  0  0  0  0  0  0
   -4.1104   13.1199  -10.1564 C   0  0  0  0  0  0  0  0  0  0  0  0
   -3.1547   14.2611   -9.9254 C   0  0  0  0  0  0  0  0  0  0  0  0
   -3.7686   15.0454  -11.0979 C   0  0  0  0  0  0  0  0  0  0  0  0
   -3.3454   14.7999   -8.7258 F   0  0  0  0  0  0  0  0  0  0  0  0
   -1.8808   13.9286  -10.0717 F   0  0  0  0  0  0  0  0  0  0  0  0
   -6.1820   12.2677   -9.8672 H   0  0  0  0  0  0  0  0  0  0  0  0
   -8.2062   10.1164  -13.9009 H   0  0  0  0  0  0  0  0  0  0  0  0
   -6.8838   12.2269  -14.1010 H   0  0  0  0  0  0  0  0  0  0  0  0
   -8.0445    9.6149   -7.2634 H   0  0  0  0  0  0  0  0  0  0  0  0
   -5.9733   10.0265   -6.7386 H   0  0  0  0  0  0  0  0  0  0  0  0
   -4.8910    8.7811   -8.4977 H   0  0  0  0  0  0  0  0  0  0  0  0
   -2.6611    9.7505   -8.0541 H   0  0  0  0  0  0  0  0  0  0  0  0
   -3.4404   12.0349   -8.2388 H   0  0  0  0  0  0  0  0  0  0  0  0
   -4.5085   13.2827   -6.4709 H   0  0  0  0  0  0  0  0  0  0  0  0
   -6.7367   12.3092   -6.9005 H   0  0  0  0  0  0  0  0  0  0  0  0
   -2.4562   14.1858   -6.1223 H   0  0  0  0  0  0  0  0  0  0  0  0
   -0.6475   10.6160   -7.6308 H   0  0  0  0  0  0  0  0  0  0  0  0
    1.4583   14.3222   -6.0031 H   0  0  0  0  0  0  0  0  0  0  0  0
    0.1876   15.4829   -6.5173 H   0  0  0  0  0  0  0  0  0  0  0  0
    0.1562   14.7932   -4.8589 H   0  0  0  0  0  0  0  0  0  0  0  0
   -4.8767   12.9944   -9.3773 H   0  0  0  0  0  0  0  0  0  0  0  0
   -3.6317   12.1505  -10.3594 H   0  0  0  0  0  0  0  0  0  0  0  0
   -3.0652   15.3118  -11.9005 H   0  0  0  0  0  0  0  0  0  0  0  0
   -4.3514   15.9332  -10.8114 H   0  0  0  0  0  0  0  0  0  0  0  0
  1  2  2  0  0  0  0
  1  4  1  0  0  0  0
  1 12  1  0  0  0  0
  2  6  1  0  0  0  0
  3  4  2  0  0  0  0
  3  5  1  0  0  0  0
  5  6  2  0  0  0  0
  5  9  1  0  0  0  0
  6  7  1  0  0  0  0
  7  8  1  0  0  0  0
  7 10  2  3  0  0  0
  8  9  2  0  0  0  0
 10 14  1  0  0  0  0
 11 12  1  0  0  0  0
 11 26  1  0  0  0  0
 11 28  1  0  0  0  0
 12 13  2  0  0  0  0
 14 15  1  0  0  0  0
 14 19  1  0  0  0  0
 15 16  2  0  0  0  0
 16 17  1  0  0  0  0
 17 18  1  0  0  0  0
 17 20  1  0  0  0  0
 18 19  2  0  0  0  0
 20 21  2  0  0  0  0
 20 24  1  0  0  0  0
 21 22  1  0  0  0  0
 22 23  1  0  0  0  0
 22 25  1  0  0  0  0
 23 24  2  0  0  0  0
 26 27  1  0  0  0  0
 27 28  1  0  0  0  0
 27 29  1  0  0  0  0
 27 30  1  0  0  0  0
  2 31  1  0  0  0  0
  3 32  1  0  0  0  0
  4 33  1  0  0  0  0
 10 34  1  0  0  0  0
 14 35  1  0  0  0  0
 15 36  1  0  0  0  0
 16 37  1  0  0  0  0
 17 38  1  0  0  0  0
 18 39  1  0  0  0  0
 19 40  1  0  0  0  0
 21 41  1  0  0  0  0
 24 42  1  0  0  0  0
 25 43  1  0  0  0  0
 25 44  1  0  0  0  0
 25 45  1  0  0  0  0
 26 46  1  0  0  0  0
 26 47  1  0  0  0  0
 28 48  1  0  0  0  0
 28 49  1  0  0  0  0
M  END
> <Name>
34

> <IC50[uM]>
0.007

$$$$
34
  -OEChem-05192314333D
 Structure written by MMmdl.
 49 53  0     1  0  0  0  0  0999 V2000
   -6.4024   12.3461  -12.0147 C   0  0  0  0  0  0  0  0  0  0  0  0
   -6.5825   11.7781  -10.7426 C   0  0  0  0  0  0  0  0  0  0  0  0
   -7.7347   10.5660  -13.0395 C   0  0  0  0  0  0  0  0  0  0  0  0
   -6.9966   11.7550  -13.1361 C   0  0  0  0  0  0  0  0  0  0  0  0
   -7.8265    9.9936  -11.7632 C   0  0  0  0  0  0  0  0  0  0  0  0
   -7.2675   10.6024  -10.6199 C   0  0  0  0  0  0  0  0  0  0  0  0
   -7.6234    9.7358   -9.5255 C   0  0  3  0  0  0  0  0  0  0  0  0
   -8.2741    8.7136   -9.9910 N   0  0  0  0  0  0  0  0  0  0  0  0
   -8.4130    8.8453  -11.3044 N   0  0  0  0  0  0  0  0  0  0  0  0
   -7.3406    9.8933   -8.0338 C   0  0  0  0  0  0  0  0  0  0  0  0
   -4.5538   13.8407  -11.3379 N   0  0  0  0  0  0  0  0  0  0  0  0
   -5.6005   13.6490  -12.1765 C   0  0  0  0  0  0  0  0  0  0  0  0
   -5.9196   14.4808  -13.0199 O   0  0  0  0  0  0  0  0  0  0  0  0
   -5.9590   10.4855   -7.7382 C   0  0  0  0  0  0  0  0  0  0  0  0
   -4.8075    9.7636   -8.0570 C   0  0  0  0  0  0  0  0  0  0  0  0
   -3.5513   10.3099   -7.8070 C   0  0  0  0  0  0  0  0  0  0  0  0
   -3.4406   11.5840   -7.2355 C   0  0  0  0  0  0  0  0  0  0  0  0
   -4.5915   12.3007   -6.9126 C   0  0  0  0  0  0  0  0  0  0  0  0
   -5.8470   11.7538   -7.1581 C   0  0  0  0  0  0  0  0  0  0  0  0
   -2.0979   12.1738   -6.9691 C   0  0  0  0  0  0  0  0  0  0  0  0
   -1.7666   13.4166   -6.4372 C   0  0  0  0  0  0  0  0  0  0  0  0
   -0.4273   13.4768   -6.3903 N   0  0  0  0  0  0  0  0  0  0  0  0
    0.1744   12.4049   -6.8247 N   0  0  0  0  0  0  0  0  0  0  0  0
   -0.8040   11.5944   -7.2012 C   0  0  0  0  0  0  0  0  0  0  0  0
    0.3946   14.5874   -5.9129 C   0  0  0  0  0  0  0  0  0  0  0  0
   -4.1104   13.1199  -10.1564 C   0  0  0  0  0  0  0  0  0  0  0  0
   -3.1547   14.2611   -9.9254 C   0  0  0  0  0  0  0  0  0  0  0  0
   -3.7686   15.0454  -11.0979 C   0  0  0  0  0  0  0  0  0  0  0  0
   -3.3454   14.7999   -8.7258 F   0  0  0  0  0  0  0  0  0  0  0  0
   -1.8808   13.9286  -10.0717 F   0  0  0  0  0  0  0  0  0  0  0  0
   -6.1820   12.2677   -9.8672 H   0  0  0  0  0  0  0  0  0  0  0  0
   -8.2062   10.1164  -13.9009 H   0  0  0  0  0  0  0  0  0  0  0  0
   -6.8838   12.2269  -14.1010 H   0  0  0  0  0  0  0  0  0  0  0  0
   -6.6762    9.1901   -9.6484 H   0  0  0  0  0  0  0  0  0  0  0  0
   -8.0445    9.6149   -7.2634 H   0  0  0  0  0  0  0  0  0  0  0  0
   -4.8910    8.7811   -8.4977 H   0  0  0  0  0  0  0  0  0  0  0  0
   -2.6611    9.7505   -8.0541 H   0  0  0  0  0  0  0  0  0  0  0  0
   -3.4404   12.0349   -8.2388 H   0  0  0  0  0  0  0  0  0  0  0  0
   -4.5085   13.2827   -6.4709 H   0  0  0  0  0  0  0  0  0  0  0  0
   -6.7367   12.3092   -6.9005 H   0  0  0  0  0  0  0  0  0  0  0  0
   -2.4562   14.1858   -6.1223 H   0  0  0  0  0  0  0  0  0  0  0  0
   -0.6475   10.6160   -7.6308 H   0  0  0  0  0  0  0  0  0  0  0  0
    1.4583   14.3222   -6.0031 H   0  0  0  0  0  0  0  0  0  0  0  0
    0.1876   15.4829   -6.5173 H   0  0  0  0  0  0  0  0  0  0  0  0
    0.1562   14.7932   -4.8589 H   0  0  0  0  0  0  0  0  0  0  0  0
   -4.8767   12.9944   -9.3773 H   0  0  0  0  0  0  0  0  0  0  0  0
   -3.6317   12.1505  -10.3594 H   0  0  0  0  0  0  0  0  0  0  0  0
   -3.0652   15.3118  -11.9005 H   0  0  0  0  0  0  0  0  0  0  0  0
   -4.3514   15.9332  -10.8114 H   0  0  0  0  0  0  0  0  0  0  0  0
  1  2  2  0  0  0  0
  1  4  1  0  0  0  0
  1 12  1  0  0  0  0
  2  6  1  0  0  0  0
  3  4  2  0  0  0  0
  3  5  1  0  0  0  0
  5  6  2  0  0  0  0
  5  9  1  0  0  0  0
  6  7  1  0  0  0  0
  7  8  1  0  0  0  0
  7 10  1  0  0  0  0
  8  9  2  0  0  0  0
 10 14  2  0  0  0  0
 11 12  1  0  0  0  0
 11 26  1  0  0  0  0
 11 28  1  0  0  0  0
 12 13  2  0  0  0  0
 14 15  1  0  0  0  0
 14 19  1  0  0  0  0
 15 16  2  0  0  0  0
 16 17  1  0  0  0  0
 17 18  1  0  0  0  0
 17 20  1  0  0  0  0
 18 19  2  0  0  0  0
 20 21  2  0  0  0  0
 20 24  1  0  0  0  0
 21 22  1  0  0  0  0
 22 23  1  0  0  0  0
 22 25  1  0  0  0  0
 23 24  2  0  0  0  0
 26 27  1  0  0  0  0
 27 28  1  0  0  0  0
 27 29  1  0  0  0  0
 27 30  1  0  0  0  0
  2 31  1  0  0  0  0
  3 32  1  0  0  0  0
  4 33  1  0  0  0  0
  7 34  1  0  0  0  0
 10 35  1  0  0  0  0
 15 36  1  0  0  0  0
 16 37  1  0  0  0  0
 17 38  1  0  0  0  0
 18 39  1  0  0  0  0
 19 40  1  0  0  0  0
 21 41  1  0  0  0  0
 24 42  1  0  0  0  0
 25 43  1  0  0  0  0
 25 44  1  0  0  0  0
 25 45  1  0  0  0  0
 26 46  1  0  0  0  0
 26 47  1  0  0  0  0
 28 48  1  0  0  0  0
 28 49  1  0  0  0  0
M  END
> <Name>
34

> <IC50[uM]>
0.007

$$$$
34
  -OEChem-05192314333D
 Structure written by MMmdl.
 49 53  0     1  0  0  0  0  0999 V2000
   -6.4024   12.3461  -12.0147 C   0  0  3  0  0  0  0  0  0  0  0  0
   -6.5825   11.7781  -10.7426 C   0  0  0  0  0  0  0  0  0  0  0  0
   -7.7347   10.5660  -13.0395 C   0  0  0  0  0  0  0  0  0  0  0  0
   -6.9966   11.7550  -13.1361 C   0  0  0  0  0  0  0  0  0  0  0  0
   -7.8265    9.9936  -11.7632 C   0  0  3  0  0  0  0  0  0  0  0  0
   -7.2675   10.6024  -10.6199 C   0  0  0  0  0  0  0  0  0  0  0  0
   -7.6234    9.7358   -9.5255 C   0  0  0  0  0  0  0  0  0  0  0  0
   -8.2741    8.7136   -9.9910 N   0  0  0  0  0  0  0  0  0  0  0  0
   -8.4130    8.8453  -11.3044 N   0  0  0  0  0  0  0  0  0  0  0  0
   -7.3406    9.8933   -8.0338 C   0  0  0  0  0  0  0  0  0  0  0  0
   -4.5538   13.8407  -11.3379 N   0  0  0  0  0  0  0  0  0  0  0  0
   -5.6005   13.6490  -12.1765 C   0  0  0  0  0  0  0  0  0  0  0  0
   -5.9196   14.4808  -13.0199 O   0  0  0  0  0  0  0  0  0  0  0  0
   -5.9590   10.4855   -7.7382 C   0  0  0  0  0  0  0  0  0  0  0  0
   -4.8075    9.7636   -8.0570 C   0  0  0  0  0  0  0  0  0  0  0  0
   -3.5513   10.3099   -7.8070 C   0  0  0  0  0  0  0  0  0  0  0  0
   -3.4406   11.5840   -7.2355 C   0  0  0  0  0  0  0  0  0  0  0  0
   -4.5915   12.3007   -6.9126 C   0  0  0  0  0  0  0  0  0  0  0  0
   -5.8470   11.7538   -7.1581 C   0  0  0  0  0  0  0  0  0  0  0  0
   -2.0979   12.1738   -6.9691 C   0  0  0  0  0  0  0  0  0  0  0  0
   -1.7666   13.4166   -6.4372 C   0  0  0  0  0  0  0  0  0  0  0  0
   -0.4273   13.4768   -6.3903 N   0  0  0  0  0  0  0  0  0  0  0  0
    0.1744   12.4049   -6.8247 N   0  0  0  0  0  0  0  0  0  0  0  0
   -0.8040   11.5944   -7.2012 C   0  0  0  0  0  0  0  0  0  0  0  0
    0.3946   14.5874   -5.9129 C   0  0  0  0  0  0  0  0  0  0  0  0
   -4.1104   13.1199  -10.1564 C   0  0  0  0  0  0  0  0  0  0  0  0
   -3.1547   14.2611   -9.9254 C   0  0  0  0  0  0  0  0  0  0  0  0
   -3.7686   15.0454  -11.0979 C   0  0  0  0  0  0  0  0  0  0  0  0
   -3.3454   14.7999   -8.7258 F   0  0  0  0  0  0  0  0  0  0  0  0
   -1.8808   13.9286  -10.0717 F   0  0  0  0  0  0  0  0  0  0  0  0
   -5.4901   11.7507  -12.1668 H   0  0  0  0  0  0  0  0  0  0  0  0
   -6.1820   12.2677   -9.8672 H   0  0  0  0  0  0  0  0  0  0  0  0
   -8.2062   10.1164  -13.9009 H   0  0  0  0  0  0  0  0  0  0  0  0
   -6.8838   12.2269  -14.1010 H   0  0  0  0  0  0  0  0  0  0  0  0
   -6.8869    9.4485  -11.9364 H   0  0  0  0  0  0  0  0  0  0  0  0
   -8.0445    9.6149   -7.2634 H   0  0  0  0  0  0  0  0  0  0  0  0
   -4.8910    8.7811   -8.4977 H   0  0  0  0  0  0  0  0  0  0  0  0
   -2.6611    9.7505   -8.0541 H   0  0  0  0  0  0  0  0  0  0  0  0
   -4.5085   13.2827   -6.4709 H   0  0  0  0  0  0  0  0  0  0  0  0
   -6.7367   12.3092   -6.9005 H   0  0  0  0  0  0  0  0  0  0  0  0
   -2.4562   14.1858   -6.1223 H   0  0  0  0  0  0  0  0  0  0  0  0
   -0.6475   10.6160   -7.6308 H   0  0  0  0  0  0  0  0  0  0  0  0
    1.4583   14.3222   -6.0031 H   0  0  0  0  0  0  0  0  0  0  0  0
    0.1876   15.4829   -6.5173 H   0  0  0  0  0  0  0  0  0  0  0  0
    0.1562   14.7932   -4.8589 H   0  0  0  0  0  0  0  0  0  0  0  0
   -4.8767   12.9944   -9.3773 H   0  0  0  0  0  0  0  0  0  0  0  0
   -3.6317   12.1505  -10.3594 H   0  0  0  0  0  0  0  0  0  0  0  0
   -3.0652   15.3118  -11.9005 H   0  0  0  0  0  0  0  0  0  0  0  0
   -4.3514   15.9332  -10.8114 H   0  0  0  0  0  0  0  0  0  0  0  0
  1  2  1  0  0  0  0
  1  4  1  0  0  0  0
  1 12  1  0  0  0  0
  2  6  2  0  0  0  0
  3  4  2  0  0  0  0
  3  5  1  0  0  0  0
  5  6  1  0  0  0  0
  5  9  1  0  0  0  0
  6  7  1  0  0  0  0
  7  8  1  0  0  0  0
  7 10  2  3  0  0  0
  8  9  2  0  0  0  0
 10 14  1  0  0  0  0
 11 12  1  0  0  0  0
 11 26  1  0  0  0  0
 11 28  1  0  0  0  0
 12 13  2  0  0  0  0
 14 15  2  0  0  0  0
 14 19  1  0  0  0  0
 15 16  1  0  0  0  0
 16 17  2  0  0  0  0
 17 18  1  0  0  0  0
 17 20  1  0  0  0  0
 18 19  2  0  0  0  0
 20 21  2  0  0  0  0
 20 24  1  0  0  0  0
 21 22  1  0  0  0  0
 22 23  1  0  0  0  0
 22 25  1  0  0  0  0
 23 24  2  0  0  0  0
 26 27  1  0  0  0  0
 27 28  1  0  0  0  0
 27 29  1  0  0  0  0
 27 30  1  0  0  0  0
  1 31  1  0  0  0  0
  2 32  1  0  0  0  0
  3 33  1  0  0  0  0
  4 34  1  0  0  0  0
  5 35  1  0  0  0  0
 10 36  1  0  0  0  0
 15 37  1  0  0  0  0
 16 38  1  0  0  0  0
 18 39  1  0  0  0  0
 19 40  1  0  0  0  0
 21 41  1  0  0  0  0
 24 42  1  0  0  0  0
 25 43  1  0  0  0  0
 25 44  1  0  0  0  0
 25 45  1  0  0  0  0
 26 46  1  0  0  0  0
 26 47  1  0  0  0  0
 28 48  1  0  0  0  0
 28 49  1  0  0  0  0
M  END
> <Name>
34

> <IC50[uM]>
0.007

$$$$
34
  -OEChem-05192314333D
 Structure written by MMmdl.
 49 53  0     1  0  0  0  0  0999 V2000
   -6.4024   12.3461  -12.0147 C   0  0  0  0  0  0  0  0  0  0  0  0
   -6.5825   11.7781  -10.7426 C   0  0  0  0  0  0  0  0  0  0  0  0
   -7.7347   10.5660  -13.0395 C   0  0  0  0  0  0  0  0  0  0  0  0
   -6.9966   11.7550  -13.1361 C   0  0  0  0  0  0  0  0  0  0  0  0
   -7.8265    9.9936  -11.7632 C   0  0  3  0  0  0  0  0  0  0  0  0
   -7.2675   10.6024  -10.6199 C   0  0  3  0  0  0  0  0  0  0  0  0
   -7.6234    9.7358   -9.5255 C   0  0  0  0  0  0  0  0  0  0  0  0
   -8.2741    8.7136   -9.9910 N   0  0  0  0  0  0  0  0  0  0  0  0
   -8.4130    8.8453  -11.3044 N   0  0  0  0  0  0  0  0  0  0  0  0
   -7.3406    9.8933   -8.0338 C   0  0  0  0  0  0  0  0  0  0  0  0
   -4.5538   13.8407  -11.3379 N   0  0  0  0  0  0  0  0  0  0  0  0
   -5.6005   13.6490  -12.1765 C   0  0  0  0  0  0  0  0  0  0  0  0
   -5.9196   14.4808  -13.0199 O   0  0  0  0  0  0  0  0  0  0  0  0
   -5.9590   10.4855   -7.7382 C   0  0  0  0  0  0  0  0  0  0  0  0
   -4.8075    9.7636   -8.0570 C   0  0  0  0  0  0  0  0  0  0  0  0
   -3.5513   10.3099   -7.8070 C   0  0  0  0  0  0  0  0  0  0  0  0
   -3.4406   11.5840   -7.2355 C   0  0  0  0  0  0  0  0  0  0  0  0
   -4.5915   12.3007   -6.9126 C   0  0  0  0  0  0  0  0  0  0  0  0
   -5.8470   11.7538   -7.1581 C   0  0  0  0  0  0  0  0  0  0  0  0
   -2.0979   12.1738   -6.9691 C   0  0  0  0  0  0  0  0  0  0  0  0
   -1.7666   13.4166   -6.4372 C   0  0  0  0  0  0  0  0  0  0  0  0
   -0.4273   13.4768   -6.3903 N   0  0  0  0  0  0  0  0  0  0  0  0
    0.1744   12.4049   -6.8247 N   0  0  0  0  0  0  0  0  0  0  0  0
   -0.8040   11.5944   -7.2012 C   0  0  0  0  0  0  0  0  0  0  0  0
    0.3946   14.5874   -5.9129 C   0  0  0  0  0  0  0  0  0  0  0  0
   -4.1104   13.1199  -10.1564 C   0  0  0  0  0  0  0  0  0  0  0  0
   -3.1547   14.2611   -9.9254 C   0  0  0  0  0  0  0  0  0  0  0  0
   -3.7686   15.0454  -11.0979 C   0  0  0  0  0  0  0  0  0  0  0  0
   -3.3454   14.7999   -8.7258 F   0  0  0  0  0  0  0  0  0  0  0  0
   -1.8808   13.9286  -10.0717 F   0  0  0  0  0  0  0  0  0  0  0  0
   -6.1820   12.2677   -9.8672 H   0  0  0  0  0  0  0  0  0  0  0  0
   -8.2062   10.1164  -13.9009 H   0  0  0  0  0  0  0  0  0  0  0  0
   -6.8838   12.2269  -14.1010 H   0  0  0  0  0  0  0  0  0  0  0  0
   -6.8869    9.4485  -11.9364 H   0  0  0  0  0  0  0  0  0  0  0  0
   -6.3352   10.0381  -10.7695 H   0  0  0  0  0  0  0  0  0  0  0  0
   -8.0445    9.6149   -7.2634 H   0  0  0  0  0  0  0  0  0  0  0  0
   -4.8910    8.7811   -8.4977 H   0  0  0  0  0  0  0  0  0  0  0  0
   -2.6611    9.7505   -8.0541 H   0  0  0  0  0  0  0  0  0  0  0  0
   -4.5085   13.2827   -6.4709 H   0  0  0  0  0  0  0  0  0  0  0  0
   -6.7367   12.3092   -6.9005 H   0  0  0  0  0  0  0  0  0  0  0  0
   -2.4562   14.1858   -6.1223 H   0  0  0  0  0  0  0  0  0  0  0  0
   -0.6475   10.6160   -7.6308 H   0  0  0  0  0  0  0  0  0  0  0  0
    1.4583   14.3222   -6.0031 H   0  0  0  0  0  0  0  0  0  0  0  0
    0.1876   15.4829   -6.5173 H   0  0  0  0  0  0  0  0  0  0  0  0
    0.1562   14.7932   -4.8589 H   0  0  0  0  0  0  0  0  0  0  0  0
   -4.8767   12.9944   -9.3773 H   0  0  0  0  0  0  0  0  0  0  0  0
   -3.6317   12.1505  -10.3594 H   0  0  0  0  0  0  0  0  0  0  0  0
   -3.0652   15.3118  -11.9005 H   0  0  0  0  0  0  0  0  0  0  0  0
   -4.3514   15.9332  -10.8114 H   0  0  0  0  0  0  0  0  0  0  0  0
  1  2  2  0  0  0  0
  1  4  1  0  0  0  0
  1 12  1  0  0  0  0
  2  6  1  0  0  0  0
  3  4  2  0  0  0  0
  3  5  1  0  0  0  0
  5  6  1  0  0  0  0
  5  9  1  0  0  0  0
  6  7  1  0  0  0  0
  7  8  1  0  0  0  0
  7 10  2  3  0  0  0
  8  9  2  0  0  0  0
 10 14  1  0  0  0  0
 11 12  1  0  0  0  0
 11 26  1  0  0  0  0
 11 28  1  0  0  0  0
 12 13  2  0  0  0  0
 14 15  2  0  0  0  0
 14 19  1  0  0  0  0
 15 16  1  0  0  0  0
 16 17  2  0  0  0  0
 17 18  1  0  0  0  0
 17 20  1  0  0  0  0
 18 19  2  0  0  0  0
 20 21  2  0  0  0  0
 20 24  1  0  0  0  0
 21 22  1  0  0  0  0
 22 23  1  0  0  0  0
 22 25  1  0  0  0  0
 23 24  2  0  0  0  0
 26 27  1  0  0  0  0
 27 28  1  0  0  0  0
 27 29  1  0  0  0  0
 27 30  1  0  0  0  0
  2 31  1  0  0  0  0
  3 32  1  0  0  0  0
  4 33  1  0  0  0  0
  5 34  1  0  0  0  0
  6 35  1  0  0  0  0
 10 36  1  0  0  0  0
 15 37  1  0  0  0  0
 16 38  1  0  0  0  0
 18 39  1  0  0  0  0
 19 40  1  0  0  0  0
 21 41  1  0  0  0  0
 24 42  1  0  0  0  0
 25 43  1  0  0  0  0
 25 44  1  0  0  0  0
 25 45  1  0  0  0  0
 26 46  1  0  0  0  0
 26 47  1  0  0  0  0
 28 48  1  0  0  0  0
 28 49  1  0  0  0  0
M  END
> <Name>
34

> <IC50[uM]>
0.007

$$$$
34
  -OEChem-05192314333D
 Structure written by MMmdl.
 49 53  0     1  0  0  0  0  0999 V2000
   -6.4024   12.3461  -12.0147 C   0  0  0  0  0  0  0  0  0  0  0  0
   -6.5825   11.7781  -10.7426 C   0  0  0  0  0  0  0  0  0  0  0  0
   -7.7347   10.5660  -13.0395 C   0  0  0  0  0  0  0  0  0  0  0  0
   -6.9966   11.7550  -13.1361 C   0  0  0  0  0  0  0  0  0  0  0  0
   -7.8265    9.9936  -11.7632 C   0  0  3  0  0  0  0  0  0  0  0  0
   -7.2675   10.6024  -10.6199 C   0  0  0  0  0  0  0  0  0  0  0  0
   -7.6234    9.7358   -9.5255 C   0  0  0  0  0  0  0  0  0  0  0  0
   -8.2741    8.7136   -9.9910 N   0  0  0  0  0  0  0  0  0  0  0  0
   -8.4130    8.8453  -11.3044 N   0  0  0  0  0  0  0  0  0  0  0  0
   -7.3406    9.8933   -8.0338 C   0  0  0  0  0  0  0  0  0  0  0  0
   -4.5538   13.8407  -11.3379 N   0  0  0  0  0  0  0  0  0  0  0  0
   -5.6005   13.6490  -12.1765 C   0  0  0  0  0  0  0  0  0  0  0  0
   -5.9196   14.4808  -13.0199 O   0  0  0  0  0  0  0  0  0  0  0  0
   -5.9590   10.4855   -7.7382 C   0  0  0  0  0  0  0  0  0  0  0  0
   -4.8075    9.7636   -8.0570 C   0  0  0  0  0  0  0  0  0  0  0  0
   -3.5513   10.3099   -7.8070 C   0  0  0  0  0  0  0  0  0  0  0  0
   -3.4406   11.5840   -7.2355 C   0  0  0  0  0  0  0  0  0  0  0  0
   -4.5915   12.3007   -6.9126 C   0  0  0  0  0  0  0  0  0  0  0  0
   -5.8470   11.7538   -7.1581 C   0  0  0  0  0  0  0  0  0  0  0  0
   -2.0979   12.1738   -6.9691 C   0  0  0  0  0  0  0  0  0  0  0  0
   -1.7666   13.4166   -6.4372 C   0  0  0  0  0  0  0  0  0  0  0  0
   -0.4273   13.4768   -6.3903 N   0  0  0  0  0  0  0  0  0  0  0  0
    0.1744   12.4049   -6.8247 N   0  0  0  0  0  0  0  0  0  0  0  0
   -0.8040   11.5944   -7.2012 C   0  0  0  0  0  0  0  0  0  0  0  0
    0.3946   14.5874   -5.9129 C   0  0  0  0  0  0  0  0  0  0  0  0
   -4.1104   13.1199  -10.1564 C   0  0  0  0  0  0  0  0  0  0  0  0
   -3.1547   14.2611   -9.9254 C   0  0  0  0  0  0  0  0  0  0  0  0
   -3.7686   15.0454  -11.0979 C   0  0  0  0  0  0  0  0  0  0  0  0
   -3.3454   14.7999   -8.7258 F   0  0  0  0  0  0  0  0  0  0  0  0
   -1.8808   13.9286  -10.0717 F   0  0  0  0  0  0  0  0  0  0  0  0
   -6.1820   12.2677   -9.8672 H   0  0  0  0  0  0  0  0  0  0  0  0
   -8.7570   10.7771  -13.3864 H   0  0  0  0  0  0  0  0  0  0  0  0
   -7.2669    9.8262  -13.7057 H   0  0  0  0  0  0  0  0  0  0  0  0
   -6.8838   12.2269  -14.1010 H   0  0  0  0  0  0  0  0  0  0  0  0
   -6.8869    9.4485  -11.9364 H   0  0  0  0  0  0  0  0  0  0  0  0
   -8.0445    9.6149   -7.2634 H   0  0  0  0  0  0  0  0  0  0  0  0
   -4.8910    8.7811   -8.4977 H   0  0  0  0  0  0  0  0  0  0  0  0
   -2.6611    9.7505   -8.0541 H   0  0  0  0  0  0  0  0  0  0  0  0
   -4.5085   13.2827   -6.4709 H   0  0  0  0  0  0  0  0  0  0  0  0
   -6.7367   12.3092   -6.9005 H   0  0  0  0  0  0  0  0  0  0  0  0
   -2.4562   14.1858   -6.1223 H   0  0  0  0  0  0  0  0  0  0  0  0
   -0.6475   10.6160   -7.6308 H   0  0  0  0  0  0  0  0  0  0  0  0
    1.4583   14.3222   -6.0031 H   0  0  0  0  0  0  0  0  0  0  0  0
    0.1876   15.4829   -6.5173 H   0  0  0  0  0  0  0  0  0  0  0  0
    0.1562   14.7932   -4.8589 H   0  0  0  0  0  0  0  0  0  0  0  0
   -4.8767   12.9944   -9.3773 H   0  0  0  0  0  0  0  0  0  0  0  0
   -3.6317   12.1505  -10.3594 H   0  0  0  0  0  0  0  0  0  0  0  0
   -3.0652   15.3118  -11.9005 H   0  0  0  0  0  0  0  0  0  0  0  0
   -4.3514   15.9332  -10.8114 H   0  0  0  0  0  0  0  0  0  0  0  0
  1  2  1  0  0  0  0
  1  4  2  0  0  0  0
  1 12  1  0  0  0  0
  2  6  2  0  0  0  0
  3  4  1  0  0  0  0
  3  5  1  0  0  0  0
  5  6  1  0  0  0  0
  5  9  1  0  0  0  0
  6  7  1  0  0  0  0
  7  8  1  0  0  0  0
  7 10  2  3  0  0  0
  8  9  2  0  0  0  0
 10 14  1  0  0  0  0
 11 12  1  0  0  0  0
 11 26  1  0  0  0  0
 11 28  1  0  0  0  0
 12 13  2  0  0  0  0
 14 15  2  0  0  0  0
 14 19  1  0  0  0  0
 15 16  1  0  0  0  0
 16 17  2  0  0  0  0
 17 18  1  0  0  0  0
 17 20  1  0  0  0  0
 18 19  2  0  0  0  0
 20 21  2  0  0  0  0
 20 24  1  0  0  0  0
 21 22  1  0  0  0  0
 22 23  1  0  0  0  0
 22 25  1  0  0  0  0
 23 24  2  0  0  0  0
 26 27  1  0  0  0  0
 27 28  1  0  0  0  0
 27 29  1  0  0  0  0
 27 30  1  0  0  0  0
  2 31  1  0  0  0  0
  3 32  1  0  0  0  0
  3 33  1  0  0  0  0
  4 34  1  0  0  0  0
  5 35  1  0  0  0  0
 10 36  1  0  0  0  0
 15 37  1  0  0  0  0
 16 38  1  0  0  0  0
 18 39  1  0  0  0  0
 19 40  1  0  0  0  0
 21 41  1  0  0  0  0
 24 42  1  0  0  0  0
 25 43  1  0  0  0  0
 25 44  1  0  0  0  0
 25 45  1  0  0  0  0
 26 46  1  0  0  0  0
 26 47  1  0  0  0  0
 28 48  1  0  0  0  0
 28 49  1  0  0  0  0
M  END
> <Name>
34

> <IC50[uM]>
0.007

$$$$
34
  -OEChem-05192314333D
 Structure written by MMmdl.
 49 53  0     1  0  0  0  0  0999 V2000
   -6.4024   12.3461  -12.0147 C   0  0  0  0  0  0  0  0  0  0  0  0
   -6.5825   11.7781  -10.7426 C   0  0  0  0  0  0  0  0  0  0  0  0
   -7.7347   10.5660  -13.0395 C   0  0  0  0  0  0  0  0  0  0  0  0
   -6.9966   11.7550  -13.1361 C   0  0  0  0  0  0  0  0  0  0  0  0
   -7.8265    9.9936  -11.7632 C   0  0  0  0  0  0  0  0  0  0  0  0
   -7.2675   10.6024  -10.6199 C   0  0  0  0  0  0  0  0  0  0  0  0
   -7.6234    9.7358   -9.5255 C   0  0  0  0  0  0  0  0  0  0  0  0
   -8.2741    8.7136   -9.9910 N   0  0  0  0  0  0  0  0  0  0  0  0
   -8.4130    8.8453  -11.3044 N   0  0  0  0  0  0  0  0  0  0  0  0
   -7.3406    9.8933   -8.0338 C   0  0  0  0  0  0  0  0  0  0  0  0
   -4.5538   13.8407  -11.3379 N   0  0  0  0  0  0  0  0  0  0  0  0
   -5.6005   13.6490  -12.1765 C   0  0  0  0  0  0  0  0  0  0  0  0
   -5.9196   14.4808  -13.0199 O   0  0  0  0  0  0  0  0  0  0  0  0
   -5.9590   10.4855   -7.7382 C   0  0  0  0  0  0  0  0  0  0  0  0
   -4.8075    9.7636   -8.0570 C   0  0  0  0  0  0  0  0  0  0  0  0
   -3.5513   10.3099   -7.8070 C   0  0  0  0  0  0  0  0  0  0  0  0
   -3.4406   11.5840   -7.2355 C   0  0  3  0  0  0  0  0  0  0  0  0
   -4.5915   12.3007   -6.9126 C   0  0  0  0  0  0  0  0  0  0  0  0
   -5.8470   11.7538   -7.1581 C   0  0  0  0  0  0  0  0  0  0  0  0
   -2.0979   12.1738   -6.9691 C   0  0  0  0  0  0  0  0  0  0  0  0
   -1.7666   13.4166   -6.4372 C   0  0  0  0  0  0  0  0  0  0  0  0
   -0.4273   13.4768   -6.3903 N   0  0  0  0  0  0  0  0  0  0  0  0
    0.1744   12.4049   -6.8247 N   0  0  0  0  0  0  0  0  0  0  0  0
   -0.8040   11.5944   -7.2012 C   0  0  0  0  0  0  0  0  0  0  0  0
    0.3946   14.5874   -5.9129 C   0  0  0  0  0  0  0  0  0  0  0  0
   -4.1104   13.1199  -10.1564 C   0  0  0  0  0  0  0  0  0  0  0  0
   -3.1547   14.2611   -9.9254 C   0  0  0  0  0  0  0  0  0  0  0  0
   -3.7686   15.0454  -11.0979 C   0  0  0  0  0  0  0  0  0  0  0  0
   -3.3454   14.7999   -8.7258 F   0  0  0  0  0  0  0  0  0  0  0  0
   -1.8808   13.9286  -10.0717 F   0  0  0  0  0  0  0  0  0  0  0  0
   -6.1820   12.2677   -9.8672 H   0  0  0  0  0  0  0  0  0  0  0  0
   -8.2062   10.1164  -13.9009 H   0  0  0  0  0  0  0  0  0  0  0  0
   -6.8838   12.2269  -14.1010 H   0  0  0  0  0  0  0  0  0  0  0  0
   -8.0445    9.6149   -7.2634 H   0  0  0  0  0  0  0  0  0  0  0  0
   -4.8910    8.7811   -8.4977 H   0  0  0  0  0  0  0  0  0  0  0  0
   -3.0312    9.6136   -7.1327 H   0  0  0  0  0  0  0  0  0  0  0  0
   -3.0245   10.3483   -8.7719 H   0  0  0  0  0  0  0  0  0  0  0  0
   -3.4404   12.0349   -8.2388 H   0  0  0  0  0  0  0  0  0  0  0  0
   -4.5085   13.2827   -6.4709 H   0  0  0  0  0  0  0  0  0  0  0  0
   -6.7367   12.3092   -6.9005 H   0  0  0  0  0  0  0  0  0  0  0  0
   -2.4562   14.1858   -6.1223 H   0  0  0  0  0  0  0  0  0  0  0  0
   -0.6475   10.6160   -7.6308 H   0  0  0  0  0  0  0  0  0  0  0  0
    1.4583   14.3222   -6.0031 H   0  0  0  0  0  0  0  0  0  0  0  0
    0.1876   15.4829   -6.5173 H   0  0  0  0  0  0  0  0  0  0  0  0
    0.1562   14.7932   -4.8589 H   0  0  0  0  0  0  0  0  0  0  0  0
   -4.8767   12.9944   -9.3773 H   0  0  0  0  0  0  0  0  0  0  0  0
   -3.6317   12.1505  -10.3594 H   0  0  0  0  0  0  0  0  0  0  0  0
   -3.0652   15.3118  -11.9005 H   0  0  0  0  0  0  0  0  0  0  0  0
   -4.3514   15.9332  -10.8114 H   0  0  0  0  0  0  0  0  0  0  0  0
  1  2  2  0  0  0  0
  1  4  1  0  0  0  0
  1 12  1  0  0  0  0
  2  6  1  0  0  0  0
  3  4  2  0  0  0  0
  3  5  1  0  0  0  0
  5  6  2  0  0  0  0
  5  9  1  0  0  0  0
  6  7  1  0  0  0  0
  7  8  1  0  0  0  0
  7 10  2  3  0  0  0
  8  9  2  0  0  0  0
 10 14  1  0  0  0  0
 11 12  1  0  0  0  0
 11 26  1  0  0  0  0
 11 28  1  0  0  0  0
 12 13  2  0  0  0  0
 14 15  2  0  0  0  0
 14 19  1  0  0  0  0
 15 16  1  0  0  0  0
 16 17  1  0  0  0  0
 17 18  1  0  0  0  0
 17 20  1  0  0  0  0
 18 19  2  0  0  0  0
 20 21  2  0  0  0  0
 20 24  1  0  0  0  0
 21 22  1  0  0  0  0
 22 23  1  0  0  0  0
 22 25  1  0  0  0  0
 23 24  2  0  0  0  0
 26 27  1  0  0  0  0
 27 28  1  0  0  0  0
 27 29  1  0  0  0  0
 27 30  1  0  0  0  0
  2 31  1  0  0  0  0
  3 32  1  0  0  0  0
  4 33  1  0  0  0  0
 10 34  1  0  0  0  0
 15 35  1  0  0  0  0
 16 36  1  0  0  0  0
 16 37  1  0  0  0  0
 17 38  1  0  0  0  0
 18 39  1  0  0  0  0
 19 40  1  0  0  0  0
 21 41  1  0  0  0  0
 24 42  1  0  0  0  0
 25 43  1  0  0  0  0
 25 44  1  0  0  0  0
 25 45  1  0  0  0  0
 26 46  1  0  0  0  0
 26 47  1  0  0  0  0
 28 48  1  0  0  0  0
 28 49  1  0  0  0  0
M  END
> <Name>
34

> <IC50[uM]>
0.007

$$$$
34
  -OEChem-05192314333D
 Structure written by MMmdl.
 49 53  0     1  0  0  0  0  0999 V2000
   -6.4024   12.3461  -12.0147 C   0  0  3  0  0  0  0  0  0  0  0  0
   -6.5825   11.7781  -10.7426 C   0  0  0  0  0  0  0  0  0  0  0  0
   -7.7347   10.5660  -13.0395 C   0  0  0  0  0  0  0  0  0  0  0  0
   -6.9966   11.7550  -13.1361 C   0  0  0  0  0  0  0  0  0  0  0  0
   -7.8265    9.9936  -11.7632 C   0  0  0  0  0  0  0  0  0  0  0  0
   -7.2675   10.6024  -10.6199 C   0  0  0  0  0  0  0  0  0  0  0  0
   -7.6234    9.7358   -9.5255 C   0  0  0  0  0  0  0  0  0  0  0  0
   -8.2741    8.7136   -9.9910 N   0  0  0  0  0  0  0  0  0  0  0  0
   -8.4130    8.8453  -11.3044 N   0  0  0  0  0  0  0  0  0  0  0  0
   -7.3406    9.8933   -8.0338 C   0  0  0  0  0  0  0  0  0  0  0  0
   -4.5538   13.8407  -11.3379 N   0  0  0  0  0  0  0  0  0  0  0  0
   -5.6005   13.6490  -12.1765 C   0  0  0  0  0  0  0  0  0  0  0  0
   -5.9196   14.4808  -13.0199 O   0  0  0  0  0  0  0  0  0  0  0  0
   -5.9590   10.4855   -7.7382 C   0  0  0  0  0  0  0  0  0  0  0  0
   -4.8075    9.7636   -8.0570 C   0  0  0  0  0  0  0  0  0  0  0  0
   -3.5513   10.3099   -7.8070 C   0  0  0  0  0  0  0  0  0  0  0  0
   -3.4406   11.5840   -7.2355 C   0  0  0  0  0  0  0  0  0  0  0  0
   -4.5915   12.3007   -6.9126 C   0  0  0  0  0  0  0  0  0  0  0  0
   -5.8470   11.7538   -7.1581 C   0  0  0  0  0  0  0  0  0  0  0  0
   -2.0979   12.1738   -6.9691 C   0  0  0  0  0  0  0  0  0  0  0  0
   -1.7666   13.4166   -6.4372 C   0  0  0  0  0  0  0  0  0  0  0  0
   -0.4273   13.4768   -6.3903 N   0  0  0  0  0  0  0  0  0  0  0  0
    0.1744   12.4049   -6.8247 N   0  0  0  0  0  0  0  0  0  0  0  0
   -0.8040   11.5944   -7.2012 C   0  0  0  0  0  0  0  0  0  0  0  0
    0.3946   14.5874   -5.9129 C   0  0  0  0  0  0  0  0  0  0  0  0
   -4.1104   13.1199  -10.1564 C   0  0  0  0  0  0  0  0  0  0  0  0
   -3.1547   14.2611   -9.9254 C   0  0  0  0  0  0  0  0  0  0  0  0
   -3.7686   15.0454  -11.0979 C   0  0  0  0  0  0  0  0  0  0  0  0
   -3.3454   14.7999   -8.7258 F   0  0  0  0  0  0  0  0  0  0  0  0
   -1.8808   13.9286  -10.0717 F   0  0  0  0  0  0  0  0  0  0  0  0
   -5.4901   11.7507  -12.1668 H   0  0  0  0  0  0  0  0  0  0  0  0
   -6.1820   12.2677   -9.8672 H   0  0  0  0  0  0  0  0  0  0  0  0
   -8.2062   10.1164  -13.9009 H   0  0  0  0  0  0  0  0  0  0  0  0
   -7.6779   12.5084  -13.5582 H   0  0  0  0  0  0  0  0  0  0  0  0
   -6.1826   11.5565  -13.8488 H   0  0  0  0  0  0  0  0  0  0  0  0
   -8.0445    9.6149   -7.2634 H   0  0  0  0  0  0  0  0  0  0  0  0
   -4.8910    8.7811   -8.4977 H   0  0  0  0  0  0  0  0  0  0  0  0
   -2.6611    9.7505   -8.0541 H   0  0  0  0  0  0  0  0  0  0  0  0
   -4.5085   13.2827   -6.4709 H   0  0  0  0  0  0  0  0  0  0  0  0
   -6.7367   12.3092   -6.9005 H   0  0  0  0  0  0  0  0  0  0  0  0
   -2.4562   14.1858   -6.1223 H   0  0  0  0  0  0  0  0  0  0  0  0
   -0.6475   10.6160   -7.6308 H   0  0  0  0  0  0  0  0  0  0  0  0
    1.4583   14.3222   -6.0031 H   0  0  0  0  0  0  0  0  0  0  0  0
    0.1876   15.4829   -6.5173 H   0  0  0  0  0  0  0  0  0  0  0  0
    0.1562   14.7932   -4.8589 H   0  0  0  0  0  0  0  0  0  0  0  0
   -4.8767   12.9944   -9.3773 H   0  0  0  0  0  0  0  0  0  0  0  0
   -3.6317   12.1505  -10.3594 H   0  0  0  0  0  0  0  0  0  0  0  0
   -3.0652   15.3118  -11.9005 H   0  0  0  0  0  0  0  0  0  0  0  0
   -4.3514   15.9332  -10.8114 H   0  0  0  0  0  0  0  0  0  0  0  0
  1  2  1  0  0  0  0
  1  4  1  0  0  0  0
  1 12  1  0  0  0  0
  2  6  2  0  0  0  0
  3  4  1  0  0  0  0
  3  5  2  0  0  0  0
  5  6  1  0  0  0  0
  5  9  1  0  0  0  0
  6  7  1  0  0  0  0
  7  8  1  0  0  0  0
  7 10  2  3  0  0  0
  8  9  2  0  0  0  0
 10 14  1  0  0  0  0
 11 12  1  0  0  0  0
 11 26  1  0  0  0  0
 11 28  1  0  0  0  0
 12 13  2  0  0  0  0
 14 15  2  0  0  0  0
 14 19  1  0  0  0  0
 15 16  1  0  0  0  0
 16 17  2  0  0  0  0
 17 18  1  0  0  0  0
 17 20  1  0  0  0  0
 18 19  2  0  0  0  0
 20 21  2  0  0  0  0
 20 24  1  0  0  0  0
 21 22  1  0  0  0  0
 22 23  1  0  0  0  0
 22 25  1  0  0  0  0
 23 24  2  0  0  0  0
 26 27  1  0  0  0  0
 27 28  1  0  0  0  0
 27 29  1  0  0  0  0
 27 30  1  0  0  0  0
  1 31  1  0  0  0  0
  2 32  1  0  0  0  0
  3 33  1  0  0  0  0
  4 34  1  0  0  0  0
  4 35  1  0  0  0  0
 10 36  1  0  0  0  0
 15 37  1  0  0  0  0
 16 38  1  0  0  0  0
 18 39  1  0  0  0  0
 19 40  1  0  0  0  0
 21 41  1  0  0  0  0
 24 42  1  0  0  0  0
 25 43  1  0  0  0  0
 25 44  1  0  0  0  0
 25 45  1  0  0  0  0
 26 46  1  0  0  0  0
 26 47  1  0  0  0  0
 28 48  1  0  0  0  0
 28 49  1  0  0  0  0
M  END
> <Name>
34

> <IC50[uM]>
0.007

$$$$
34
  -OEChem-05192314333D
 Structure written by MMmdl.
 49 53  0     1  0  0  0  0  0999 V2000
   -6.4024   12.3461  -12.0147 C   0  0  0  0  0  0  0  0  0  0  0  0
   -6.5825   11.7781  -10.7426 C   0  0  0  0  0  0  0  0  0  0  0  0
   -7.7347   10.5660  -13.0395 C   0  0  0  0  0  0  0  0  0  0  0  0
   -6.9966   11.7550  -13.1361 C   0  0  0  0  0  0  0  0  0  0  0  0
   -7.8265    9.9936  -11.7632 C   0  0  0  0  0  0  0  0  0  0  0  0
   -7.2675   10.6024  -10.6199 C   0  0  3  0  0  0  0  0  0  0  0  0
   -7.6234    9.7358   -9.5255 C   0  0  0  0  0  0  0  0  0  0  0  0
   -8.2741    8.7136   -9.9910 N   0  0  0  0  0  0  0  0  0  0  0  0
   -8.4130    8.8453  -11.3044 N   0  0  0  0  0  0  0  0  0  0  0  0
   -7.3406    9.8933   -8.0338 C   0  0  0  0  0  0  0  0  0  0  0  0
   -4.5538   13.8407  -11.3379 N   0  0  0  0  0  0  0  0  0  0  0  0
   -5.6005   13.6490  -12.1765 C   0  0  0  0  0  0  0  0  0  0  0  0
   -5.9196   14.4808  -13.0199 O   0  0  0  0  0  0  0  0  0  0  0  0
   -5.9590   10.4855   -7.7382 C   0  0  0  0  0  0  0  0  0  0  0  0
   -4.8075    9.7636   -8.0570 C   0  0  0  0  0  0  0  0  0  0  0  0
   -3.5513   10.3099   -7.8070 C   0  0  0  0  0  0  0  0  0  0  0  0
   -3.4406   11.5840   -7.2355 C   0  0  0  0  0  0  0  0  0  0  0  0
   -4.5915   12.3007   -6.9126 C   0  0  0  0  0  0  0  0  0  0  0  0
   -5.8470   11.7538   -7.1581 C   0  0  0  0  0  0  0  0  0  0  0  0
   -2.0979   12.1738   -6.9691 C   0  0  0  0  0  0  0  0  0  0  0  0
   -1.7666   13.4166   -6.4372 C   0  0  0  0  0  0  0  0  0  0  0  0
   -0.4273   13.4768   -6.3903 N   0  0  0  0  0  0  0  0  0  0  0  0
    0.1744   12.4049   -6.8247 N   0  0  0  0  0  0  0  0  0  0  0  0
   -0.8040   11.5944   -7.2012 C   0  0  0  0  0  0  0  0  0  0  0  0
    0.3946   14.5874   -5.9129 C   0  0  0  0  0  0  0  0  0  0  0  0
   -4.1104   13.1199  -10.1564 C   0  0  0  0  0  0  0  0  0  0  0  0
   -3.1547   14.2611   -9.9254 C   0  0  0  0  0  0  0  0  0  0  0  0
   -3.7686   15.0454  -11.0979 C   0  0  0  0  0  0  0  0  0  0  0  0
   -3.3454   14.7999   -8.7258 F   0  0  0  0  0  0  0  0  0  0  0  0
   -1.8808   13.9286  -10.0717 F   0  0  0  0  0  0  0  0  0  0  0  0
   -6.1820   12.2677   -9.8672 H   0  0  0  0  0  0  0  0  0  0  0  0
   -8.2062   10.1164  -13.9009 H   0  0  0  0  0  0  0  0  0  0  0  0
   -7.6779   12.5084  -13.5582 H   0  0  0  0  0  0  0  0  0  0  0  0
   -6.1826   11.5565  -13.8488 H   0  0  0  0  0  0  0  0  0  0  0  0
   -6.3352   10.0381  -10.7695 H   0  0  0  0  0  0  0  0  0  0  0  0
   -8.0445    9.6149   -7.2634 H   0  0  0  0  0  0  0  0  0  0  0  0
   -4.8910    8.7811   -8.4977 H   0  0  0  0  0  0  0  0  0  0  0  0
   -2.6611    9.7505   -8.0541 H   0  0  0  0  0  0  0  0  0  0  0  0
   -4.5085   13.2827   -6.4709 H   0  0  0  0  0  0  0  0  0  0  0  0
   -6.7367   12.3092   -6.9005 H   0  0  0  0  0  0  0  0  0  0  0  0
   -2.4562   14.1858   -6.1223 H   0  0  0  0  0  0  0  0  0  0  0  0
   -0.6475   10.6160   -7.6308 H   0  0  0  0  0  0  0  0  0  0  0  0
    1.4583   14.3222   -6.0031 H   0  0  0  0  0  0  0  0  0  0  0  0
    0.1876   15.4829   -6.5173 H   0  0  0  0  0  0  0  0  0  0  0  0
    0.1562   14.7932   -4.8589 H   0  0  0  0  0  0  0  0  0  0  0  0
   -4.8767   12.9944   -9.3773 H   0  0  0  0  0  0  0  0  0  0  0  0
   -3.6317   12.1505  -10.3594 H   0  0  0  0  0  0  0  0  0  0  0  0
   -3.0652   15.3118  -11.9005 H   0  0  0  0  0  0  0  0  0  0  0  0
   -4.3514   15.9332  -10.8114 H   0  0  0  0  0  0  0  0  0  0  0  0
  1  2  2  0  0  0  0
  1  4  1  0  0  0  0
  1 12  1  0  0  0  0
  2  6  1  0  0  0  0
  3  4  1  0  0  0  0
  3  5  2  0  0  0  0
  5  6  1  0  0  0  0
  5  9  1  0  0  0  0
  6  7  1  0  0  0  0
  7  8  1  0  0  0  0
  7 10  2  3  0  0  0
  8  9  2  0  0  0  0
 10 14  1  0  0  0  0
 11 12  1  0  0  0  0
 11 26  1  0  0  0  0
 11 28  1  0  0  0  0
 12 13  2  0  0  0  0
 14 15  2  0  0  0  0
 14 19  1  0  0  0  0
 15 16  1  0  0  0  0
 16 17  2  0  0  0  0
 17 18  1  0  0  0  0
 17 20  1  0  0  0  0
 18 19  2  0  0  0  0
 20 21  2  0  0  0  0
 20 24  1  0  0  0  0
 21 22  1  0  0  0  0
 22 23  1  0  0  0  0
 22 25  1  0  0  0  0
 23 24  2  0  0  0  0
 26 27  1  0  0  0  0
 27 28  1  0  0  0  0
 27 29  1  0  0  0  0
 27 30  1  0  0  0  0
  2 31  1  0  0  0  0
  3 32  1  0  0  0  0
  4 33  1  0  0  0  0
  4 34  1  0  0  0  0
  6 35  1  0  0  0  0
 10 36  1  0  0  0  0
 15 37  1  0  0  0  0
 16 38  1  0  0  0  0
 18 39  1  0  0  0  0
 19 40  1  0  0  0  0
 21 41  1  0  0  0  0
 24 42  1  0  0  0  0
 25 43  1  0  0  0  0
 25 44  1  0  0  0  0
 25 45  1  0  0  0  0
 26 46  1  0  0  0  0
 26 47  1  0  0  0  0
 28 48  1  0  0  0  0
 28 49  1  0  0  0  0
M  END
> <Name>
34

> <IC50[uM]>
0.007

$$$$
34
  -OEChem-05192314333D
 Structure written by MMmdl.
 49 53  0     0  0  0  0  0  0999 V2000
   -6.4024   12.3461  -12.0147 C   0  0  0  0  0  0  0  0  0  0  0  0
   -6.5825   11.7781  -10.7426 C   0  0  0  0  0  0  0  0  0  0  0  0
   -7.7347   10.5660  -13.0395 C   0  0  0  0  0  0  0  0  0  0  0  0
   -6.9966   11.7550  -13.1361 C   0  0  0  0  0  0  0  0  0  0  0  0
   -7.8265    9.9936  -11.7632 C   0  0  0  0  0  0  0  0  0  0  0  0
   -7.2675   10.6024  -10.6199 C   0  0  0  0  0  0  0  0  0  0  0  0
   -7.6234    9.7358   -9.5255 C   0  0  0  0  0  0  0  0  0  0  0  0
   -8.2741    8.7136   -9.9910 N   0  0  0  0  0  0  0  0  0  0  0  0
   -8.4130    8.8453  -11.3044 N   0  0  0  0  0  0  0  0  0  0  0  0
   -7.3406    9.8933   -8.0338 C   0  0  0  0  0  0  0  0  0  0  0  0
   -4.5538   13.8407  -11.3379 N   0  0  0  0  0  0  0  0  0  0  0  0
   -5.6005   13.6490  -12.1765 C   0  0  0  0  0  0  0  0  0  0  0  0
   -5.9196   14.4808  -13.0199 O   0  0  0  0  0  0  0  0  0  0  0  0
   -5.9590   10.4855   -7.7382 C   0  0  0  0  0  0  0  0  0  0  0  0
   -4.8075    9.7636   -8.0570 C   0  0  0  0  0  0  0  0  0  0  0  0
   -3.5513   10.3099   -7.8070 C   0  0  0  0  0  0  0  0  0  0  0  0
   -3.4406   11.5840   -7.2355 C   0  0  0  0  0  0  0  0  0  0  0  0
   -4.5915   12.3007   -6.9126 C   0  0  0  0  0  0  0  0  0  0  0  0
   -5.8470   11.7538   -7.1581 C   0  0  0  0  0  0  0  0  0  0  0  0
   -2.0979   12.1738   -6.9691 C   0  0  0  0  0  0  0  0  0  0  0  0
   -1.7666   13.4166   -6.4372 C   0  0  0  0  0  0  0  0  0  0  0  0
   -0.4273   13.4768   -6.3903 N   0  0  0  0  0  0  0  0  0  0  0  0
    0.1744   12.4049   -6.8247 N   0  0  0  0  0  0  0  0  0  0  0  0
   -0.8040   11.5944   -7.2012 C   0  0  0  0  0  0  0  0  0  0  0  0
    0.3946   14.5874   -5.9129 C   0  0  0  0  0  0  0  0  0  0  0  0
   -4.1104   13.1199  -10.1564 C   0  0  0  0  0  0  0  0  0  0  0  0
   -3.1547   14.2611   -9.9254 C   0  0  0  0  0  0  0  0  0  0  0  0
   -3.7686   15.0454  -11.0979 C   0  0  0  0  0  0  0  0  0  0  0  0
   -3.3454   14.7999   -8.7258 F   0  0  0  0  0  0  0  0  0  0  0  0
   -1.8808   13.9286  -10.0717 F   0  0  0  0  0  0  0  0  0  0  0  0
   -6.1820   12.2677   -9.8672 H   0  0  0  0  0  0  0  0  0  0  0  0
   -8.7570   10.7771  -13.3864 H   0  0  0  0  0  0  0  0  0  0  0  0
   -7.2669    9.8262  -13.7057 H   0  0  0  0  0  0  0  0  0  0  0  0
   -7.6779   12.5084  -13.5582 H   0  0  0  0  0  0  0  0  0  0  0  0
   -6.1826   11.5565  -13.8488 H   0  0  0  0  0  0  0  0  0  0  0  0
   -8.0445    9.6149   -7.2634 H   0  0  0  0  0  0  0  0  0  0  0  0
   -4.8910    8.7811   -8.4977 H   0  0  0  0  0  0  0  0  0  0  0  0
   -2.6611    9.7505   -8.0541 H   0  0  0  0  0  0  0  0  0  0  0  0
   -4.5085   13.2827   -6.4709 H   0  0  0  0  0  0  0  0  0  0  0  0
   -6.7367   12.3092   -6.9005 H   0  0  0  0  0  0  0  0  0  0  0  0
   -2.4562   14.1858   -6.1223 H   0  0  0  0  0  0  0  0  0  0  0  0
   -0.6475   10.6160   -7.6308 H   0  0  0  0  0  0  0  0  0  0  0  0
    1.4583   14.3222   -6.0031 H   0  0  0  0  0  0  0  0  0  0  0  0
    0.1876   15.4829   -6.5173 H   0  0  0  0  0  0  0  0  0  0  0  0
    0.1562   14.7932   -4.8589 H   0  0  0  0  0  0  0  0  0  0  0  0
   -4.8767   12.9944   -9.3773 H   0  0  0  0  0  0  0  0  0  0  0  0
   -3.6317   12.1505  -10.3594 H   0  0  0  0  0  0  0  0  0  0  0  0
   -3.0652   15.3118  -11.9005 H   0  0  0  0  0  0  0  0  0  0  0  0
   -4.3514   15.9332  -10.8114 H   0  0  0  0  0  0  0  0  0  0  0  0
  1  2  2  0  0  0  0
  1  4  1  0  0  0  0
  1 12  1  0  0  0  0
  2  6  1  0  0  0  0
  3  4  1  0  0  0  0
  3  5  1  0  0  0  0
  5  6  2  0  0  0  0
  5  9  1  0  0  0  0
  6  7  1  0  0  0  0
  7  8  1  0  0  0  0
  7 10  2  3  0  0  0
  8  9  2  0  0  0  0
 10 14  1  0  0  0  0
 11 12  1  0  0  0  0
 11 26  1  0  0  0  0
 11 28  1  0  0  0  0
 12 13  2  0  0  0  0
 14 15  2  0  0  0  0
 14 19  1  0  0  0  0
 15 16  1  0  0  0  0
 16 17  2  0  0  0  0
 17 18  1  0  0  0  0
 17 20  1  0  0  0  0
 18 19  2  0  0  0  0
 20 21  2  0  0  0  0
 20 24  1  0  0  0  0
 21 22  1  0  0  0  0
 22 23  1  0  0  0  0
 22 25  1  0  0  0  0
 23 24  2  0  0  0  0
 26 27  1  0  0  0  0
 27 28  1  0  0  0  0
 27 29  1  0  0  0  0
 27 30  1  0  0  0  0
  2 31  1  0  0  0  0
  3 32  1  0  0  0  0
  3 33  1  0  0  0  0
  4 34  1  0  0  0  0
  4 35  1  0  0  0  0
 10 36  1  0  0  0  0
 15 37  1  0  0  0  0
 16 38  1  0  0  0  0
 18 39  1  0  0  0  0
 19 40  1  0  0  0  0
 21 41  1  0  0  0  0
 24 42  1  0  0  0  0
 25 43  1  0  0  0  0
 25 44  1  0  0  0  0
 25 45  1  0  0  0  0
 26 46  1  0  0  0  0
 26 47  1  0  0  0  0
 28 48  1  0  0  0  0
 28 49  1  0  0  0  0
M  END
> <Name>
34

> <IC50[uM]>
0.007

$$$$
34
  -OEChem-05192314333D
 Structure written by MMmdl.
 49 53  0     1  0  0  0  0  0999 V2000
   -6.4024   12.3461  -12.0147 C   0  0  0  0  0  0  0  0  0  0  0  0
   -6.5825   11.7781  -10.7426 C   0  0  0  0  0  0  0  0  0  0  0  0
   -7.7347   10.5660  -13.0395 C   0  0  0  0  0  0  0  0  0  0  0  0
   -6.9966   11.7550  -13.1361 C   0  0  0  0  0  0  0  0  0  0  0  0
   -7.8265    9.9936  -11.7632 C   0  0  0  0  0  0  0  0  0  0  0  0
   -7.2675   10.6024  -10.6199 C   0  0  0  0  0  0  0  0  0  0  0  0
   -7.6234    9.7358   -9.5255 C   0  0  0  0  0  0  0  0  0  0  0  0
   -8.2741    8.7136   -9.9910 N   0  0  0  0  0  0  0  0  0  0  0  0
   -8.4130    8.8453  -11.3044 N   0  0  0  0  0  0  0  0  0  0  0  0
   -7.3406    9.8933   -8.0338 C   0  0  0  0  0  0  0  0  0  0  0  0
   -4.5538   13.8407  -11.3379 N   0  0  0  0  0  0  0  0  0  0  0  0
   -5.6005   13.6490  -12.1765 C   0  0  0  0  0  0  0  0  0  0  0  0
   -5.9196   14.4808  -13.0199 O   0  0  0  0  0  0  0  0  0  0  0  0
   -5.9590   10.4855   -7.7382 C   0  0  3  0  0  0  0  0  0  0  0  0
   -4.8075    9.7636   -8.0570 C   0  0  0  0  0  0  0  0  0  0  0  0
   -3.5513   10.3099   -7.8070 C   0  0  0  0  0  0  0  0  0  0  0  0
   -3.4406   11.5840   -7.2355 C   0  0  0  0  0  0  0  0  0  0  0  0
   -4.5915   12.3007   -6.9126 C   0  0  0  0  0  0  0  0  0  0  0  0
   -5.8470   11.7538   -7.1581 C   0  0  0  0  0  0  0  0  0  0  0  0
   -2.0979   12.1738   -6.9691 C   0  0  0  0  0  0  0  0  0  0  0  0
   -1.7666   13.4166   -6.4372 C   0  0  0  0  0  0  0  0  0  0  0  0
   -0.4273   13.4768   -6.3903 N   0  0  0  0  0  0  0  0  0  0  0  0
    0.1744   12.4049   -6.8247 N   0  0  0  0  0  0  0  0  0  0  0  0
   -0.8040   11.5944   -7.2012 C   0  0  0  0  0  0  0  0  0  0  0  0
    0.3946   14.5874   -5.9129 C   0  0  0  0  0  0  0  0  0  0  0  0
   -4.1104   13.1199  -10.1564 C   0  0  0  0  0  0  0  0  0  0  0  0
   -3.1547   14.2611   -9.9254 C   0  0  0  0  0  0  0  0  0  0  0  0
   -3.7686   15.0454  -11.0979 C   0  0  0  0  0  0  0  0  0  0  0  0
   -3.3454   14.7999   -8.7258 F   0  0  0  0  0  0  0  0  0  0  0  0
   -1.8808   13.9286  -10.0717 F   0  0  0  0  0  0  0  0  0  0  0  0
   -6.1820   12.2677   -9.8672 H   0  0  0  0  0  0  0  0  0  0  0  0
   -8.2062   10.1164  -13.9009 H   0  0  0  0  0  0  0  0  0  0  0  0
   -6.8838   12.2269  -14.1010 H   0  0  0  0  0  0  0  0  0  0  0  0
   -8.0445    9.6149   -7.2634 H   0  0  0  0  0  0  0  0  0  0  0  0
   -5.9733   10.0265   -6.7386 H   0  0  0  0  0  0  0  0  0  0  0  0
   -4.8910    8.7811   -8.4977 H   0  0  0  0  0  0  0  0  0  0  0  0
   -2.6611    9.7505   -8.0541 H   0  0  0  0  0  0  0  0  0  0  0  0
   -4.5085   13.2827   -6.4709 H   0  0  0  0  0  0  0  0  0  0  0  0
   -6.3733   12.4542   -7.8233 H   0  0  0  0  0  0  0  0  0  0  0  0
   -6.3670   11.7066   -6.1899 H   0  0  0  0  0  0  0  0  0  0  0  0
   -2.4562   14.1858   -6.1223 H   0  0  0  0  0  0  0  0  0  0  0  0
   -0.6475   10.6160   -7.6308 H   0  0  0  0  0  0  0  0  0  0  0  0
    1.4583   14.3222   -6.0031 H   0  0  0  0  0  0  0  0  0  0  0  0
    0.1876   15.4829   -6.5173 H   0  0  0  0  0  0  0  0  0  0  0  0
    0.1562   14.7932   -4.8589 H   0  0  0  0  0  0  0  0  0  0  0  0
   -4.8767   12.9944   -9.3773 H   0  0  0  0  0  0  0  0  0  0  0  0
   -3.6317   12.1505  -10.3594 H   0  0  0  0  0  0  0  0  0  0  0  0
   -3.0652   15.3118  -11.9005 H   0  0  0  0  0  0  0  0  0  0  0  0
   -4.3514   15.9332  -10.8114 H   0  0  0  0  0  0  0  0  0  0  0  0
  1  2  2  0  0  0  0
  1  4  1  0  0  0  0
  1 12  1  0  0  0  0
  2  6  1  0  0  0  0
  3  4  2  0  0  0  0
  3  5  1  0  0  0  0
  5  6  2  0  0  0  0
  5  9  1  0  0  0  0
  6  7  1  0  0  0  0
  7  8  1  0  0  0  0
  7 10  2  3  0  0  0
  8  9  2  0  0  0  0
 10 14  1  0  0  0  0
 11 12  1  0  0  0  0
 11 26  1  0  0  0  0
 11 28  1  0  0  0  0
 12 13  2  0  0  0  0
 14 15  1  0  0  0  0
 14 19  1  0  0  0  0
 15 16  2  0  0  0  0
 16 17  1  0  0  0  0
 17 18  2  0  0  0  0
 17 20  1  0  0  0  0
 18 19  1  0  0  0  0
 20 21  2  0  0  0  0
 20 24  1  0  0  0  0
 21 22  1  0  0  0  0
 22 23  1  0  0  0  0
 22 25  1  0  0  0  0
 23 24  2  0  0  0  0
 26 27  1  0  0  0  0
 27 28  1  0  0  0  0
 27 29  1  0  0  0  0
 27 30  1  0  0  0  0
  2 31  1  0  0  0  0
  3 32  1  0  0  0  0
  4 33  1  0  0  0  0
 10 34  1  0  0  0  0
 14 35  1  0  0  0  0
 15 36  1  0  0  0  0
 16 37  1  0  0  0  0
 18 38  1  0  0  0  0
 19 39  1  0  0  0  0
 19 40  1  0  0  0  0
 21 41  1  0  0  0  0
 24 42  1  0  0  0  0
 25 43  1  0  0  0  0
 25 44  1  0  0  0  0
 25 45  1  0  0  0  0
 26 46  1  0  0  0  0
 26 47  1  0  0  0  0
 28 48  1  0  0  0  0
 28 49  1  0  0  0  0
M  END
> <Name>
34

> <IC50[uM]>
0.007

$$$$
34
  -OEChem-05192314333D
 Structure written by MMmdl.
 49 53  0     1  0  0  0  0  0999 V2000
   -6.4024   12.3461  -12.0147 C   0  0  0  0  0  0  0  0  0  0  0  0
   -6.5825   11.7781  -10.7426 C   0  0  0  0  0  0  0  0  0  0  0  0
   -7.7347   10.5660  -13.0395 C   0  0  0  0  0  0  0  0  0  0  0  0
   -6.9966   11.7550  -13.1361 C   0  0  0  0  0  0  0  0  0  0  0  0
   -7.8265    9.9936  -11.7632 C   0  0  0  0  0  0  0  0  0  0  0  0
   -7.2675   10.6024  -10.6199 C   0  0  0  0  0  0  0  0  0  0  0  0
   -7.6234    9.7358   -9.5255 C   0  0  3  0  0  0  0  0  0  0  0  0
   -8.2741    8.7136   -9.9910 N   0  0  0  0  0  0  0  0  0  0  0  0
   -8.4130    8.8453  -11.3044 N   0  0  0  0  0  0  0  0  0  0  0  0
   -7.3406    9.8933   -8.0338 C   0  0  0  0  0  0  0  0  0  0  0  0
   -4.5538   13.8407  -11.3379 N   0  0  0  0  0  0  0  0  0  0  0  0
   -5.6005   13.6490  -12.1765 C   0  0  0  0  0  0  0  0  0  0  0  0
   -5.9196   14.4808  -13.0199 O   0  0  0  0  0  0  0  0  0  0  0  0
   -5.9590   10.4855   -7.7382 C   0  0  0  0  0  0  0  0  0  0  0  0
   -4.8075    9.7636   -8.0570 C   0  0  0  0  0  0  0  0  0  0  0  0
   -3.5513   10.3099   -7.8070 C   0  0  0  0  0  0  0  0  0  0  0  0
   -3.4406   11.5840   -7.2355 C   0  0  0  0  0  0  0  0  0  0  0  0
   -4.5915   12.3007   -6.9126 C   0  0  0  0  0  0  0  0  0  0  0  0
   -5.8470   11.7538   -7.1581 C   0  0  0  0  0  0  0  0  0  0  0  0
   -2.0979   12.1738   -6.9691 C   0  0  0  0  0  0  0  0  0  0  0  0
   -1.7666   13.4166   -6.4372 C   0  0  0  0  0  0  0  0  0  0  0  0
   -0.4273   13.4768   -6.3903 N   0  0  0  0  0  0  0  0  0  0  0  0
    0.1744   12.4049   -6.8247 N   0  0  0  0  0  0  0  0  0  0  0  0
   -0.8040   11.5944   -7.2012 C   0  0  0  0  0  0  0  0  0  0  0  0
    0.3946   14.5874   -5.9129 C   0  0  0  0  0  0  0  0  0  0  0  0
   -4.1104   13.1199  -10.1564 C   0  0  0  0  0  0  0  0  0  0  0  0
   -3.1547   14.2611   -9.9254 C   0  0  0  0  0  0  0  0  0  0  0  0
   -3.7686   15.0454  -11.0979 C   0  0  0  0  0  0  0  0  0  0  0  0
   -3.3454   14.7999   -8.7258 F   0  0  0  0  0  0  0  0  0  0  0  0
   -1.8808   13.9286  -10.0717 F   0  0  0  0  0  0  0  0  0  0  0  0
   -6.1820   12.2677   -9.8672 H   0  0  0  0  0  0  0  0  0  0  0  0
   -8.2062   10.1164  -13.9009 H   0  0  0  0  0  0  0  0  0  0  0  0
   -6.8838   12.2269  -14.1010 H   0  0  0  0  0  0  0  0  0  0  0  0
   -6.6762    9.1901   -9.6484 H   0  0  0  0  0  0  0  0  0  0  0  0
   -8.0445    9.6149   -7.2634 H   0  0  0  0  0  0  0  0  0  0  0  0
   -4.8910    8.7811   -8.4977 H   0  0  0  0  0  0  0  0  0  0  0  0
   -2.6611    9.7505   -8.0541 H   0  0  0  0  0  0  0  0  0  0  0  0
   -4.5085   13.2827   -6.4709 H   0  0  0  0  0  0  0  0  0  0  0  0
   -6.3733   12.4542   -7.8233 H   0  0  0  0  0  0  0  0  0  0  0  0
   -6.3670   11.7066   -6.1899 H   0  0  0  0  0  0  0  0  0  0  0  0
   -2.4562   14.1858   -6.1223 H   0  0  0  0  0  0  0  0  0  0  0  0
   -0.6475   10.6160   -7.6308 H   0  0  0  0  0  0  0  0  0  0  0  0
    1.4583   14.3222   -6.0031 H   0  0  0  0  0  0  0  0  0  0  0  0
    0.1876   15.4829   -6.5173 H   0  0  0  0  0  0  0  0  0  0  0  0
    0.1562   14.7932   -4.8589 H   0  0  0  0  0  0  0  0  0  0  0  0
   -4.8767   12.9944   -9.3773 H   0  0  0  0  0  0  0  0  0  0  0  0
   -3.6317   12.1505  -10.3594 H   0  0  0  0  0  0  0  0  0  0  0  0
   -3.0652   15.3118  -11.9005 H   0  0  0  0  0  0  0  0  0  0  0  0
   -4.3514   15.9332  -10.8114 H   0  0  0  0  0  0  0  0  0  0  0  0
  1  2  2  0  0  0  0
  1  4  1  0  0  0  0
  1 12  1  0  0  0  0
  2  6  1  0  0  0  0
  3  4  2  0  0  0  0
  3  5  1  0  0  0  0
  5  6  2  0  0  0  0
  5  9  1  0  0  0  0
  6  7  1  0  0  0  0
  7  8  1  0  0  0  0
  7 10  1  0  0  0  0
  8  9  2  0  0  0  0
 10 14  2  3  0  0  0
 11 12  1  0  0  0  0
 11 26  1  0  0  0  0
 11 28  1  0  0  0  0
 12 13  2  0  0  0  0
 14 15  1  0  0  0  0
 14 19  1  0  0  0  0
 15 16  2  0  0  0  0
 16 17  1  0  0  0  0
 17 18  2  0  0  0  0
 17 20  1  0  0  0  0
 18 19  1  0  0  0  0
 20 21  2  0  0  0  0
 20 24  1  0  0  0  0
 21 22  1  0  0  0  0
 22 23  1  0  0  0  0
 22 25  1  0  0  0  0
 23 24  2  0  0  0  0
 26 27  1  0  0  0  0
 27 28  1  0  0  0  0
 27 29  1  0  0  0  0
 27 30  1  0  0  0  0
  2 31  1  0  0  0  0
  3 32  1  0  0  0  0
  4 33  1  0  0  0  0
  7 34  1  0  0  0  0
 10 35  1  0  0  0  0
 15 36  1  0  0  0  0
 16 37  1  0  0  0  0
 18 38  1  0  0  0  0
 19 39  1  0  0  0  0
 19 40  1  0  0  0  0
 21 41  1  0  0  0  0
 24 42  1  0  0  0  0
 25 43  1  0  0  0  0
 25 44  1  0  0  0  0
 25 45  1  0  0  0  0
 26 46  1  0  0  0  0
 26 47  1  0  0  0  0
 28 48  1  0  0  0  0
 28 49  1  0  0  0  0
M  END
> <Name>
34

> <IC50[uM]>
0.007

$$$$
34
  -OEChem-05192314333D
 Structure written by MMmdl.
 49 53  0     0  0  0  0  0  0999 V2000
   -6.4024   12.3461  -12.0147 C   0  0  0  0  0  0  0  0  0  0  0  0
   -6.5825   11.7781  -10.7426 C   0  0  0  0  0  0  0  0  0  0  0  0
   -7.7347   10.5660  -13.0395 C   0  0  0  0  0  0  0  0  0  0  0  0
   -6.9966   11.7550  -13.1361 C   0  0  0  0  0  0  0  0  0  0  0  0
   -7.8265    9.9936  -11.7632 C   0  0  0  0  0  0  0  0  0  0  0  0
   -7.2675   10.6024  -10.6199 C   0  0  0  0  0  0  0  0  0  0  0  0
   -7.6234    9.7358   -9.5255 C   0  0  0  0  0  0  0  0  0  0  0  0
   -8.2741    8.7136   -9.9910 N   0  0  0  0  0  0  0  0  0  0  0  0
   -8.4130    8.8453  -11.3044 N   0  0  0  0  0  0  0  0  0  0  0  0
   -7.3406    9.8933   -8.0338 C   0  0  0  0  0  0  0  0  0  0  0  0
   -4.5538   13.8407  -11.3379 N   0  0  0  0  0  0  0  0  0  0  0  0
   -5.6005   13.6490  -12.1765 C   0  0  0  0  0  0  0  0  0  0  0  0
   -5.9196   14.4808  -13.0199 O   0  0  0  0  0  0  0  0  0  0  0  0
   -5.9590   10.4855   -7.7382 C   0  0  0  0  0  0  0  0  0  0  0  0
   -4.8075    9.7636   -8.0570 C   0  0  0  0  0  0  0  0  0  0  0  0
   -3.5513   10.3099   -7.8070 C   0  0  0  0  0  0  0  0  0  0  0  0
   -3.4406   11.5840   -7.2355 C   0  0  0  0  0  0  0  0  0  0  0  0
   -4.5915   12.3007   -6.9126 C   0  0  0  0  0  0  0  0  0  0  0  0
   -5.8470   11.7538   -7.1581 C   0  0  0  0  0  0  0  0  0  0  0  0
   -2.0979   12.1738   -6.9691 C   0  0  0  0  0  0  0  0  0  0  0  0
   -1.7666   13.4166   -6.4372 C   0  0  0  0  0  0  0  0  0  0  0  0
   -0.4273   13.4768   -6.3903 N   0  0  0  0  0  0  0  0  0  0  0  0
    0.1744   12.4049   -6.8247 N   0  0  0  0  0  0  0  0  0  0  0  0
   -0.8040   11.5944   -7.2012 C   0  0  0  0  0  0  0  0  0  0  0  0
    0.3946   14.5874   -5.9129 C   0  0  0  0  0  0  0  0  0  0  0  0
   -4.1104   13.1199  -10.1564 C   0  0  0  0  0  0  0  0  0  0  0  0
   -3.1547   14.2611   -9.9254 C   0  0  0  0  0  0  0  0  0  0  0  0
   -3.7686   15.0454  -11.0979 C   0  0  0  0  0  0  0  0  0  0  0  0
   -3.3454   14.7999   -8.7258 F   0  0  0  0  0  0  0  0  0  0  0  0
   -1.8808   13.9286  -10.0717 F   0  0  0  0  0  0  0  0  0  0  0  0
   -6.1820   12.2677   -9.8672 H   0  0  0  0  0  0  0  0  0  0  0  0
   -8.2062   10.1164  -13.9009 H   0  0  0  0  0  0  0  0  0  0  0  0
   -6.8838   12.2269  -14.1010 H   0  0  0  0  0  0  0  0  0  0  0  0
   -8.0445    9.6149   -7.2634 H   0  0  0  0  0  0  0  0  0  0  0  0
   -4.8910    8.7811   -8.4977 H   0  0  0  0  0  0  0  0  0  0  0  0
   -3.0312    9.6136   -7.1327 H   0  0  0  0  0  0  0  0  0  0  0  0
   -3.0245   10.3483   -8.7719 H   0  0  0  0  0  0  0  0  0  0  0  0
   -4.5085   13.2827   -6.4709 H   0  0  0  0  0  0  0  0  0  0  0  0
   -6.3733   12.4542   -7.8233 H   0  0  0  0  0  0  0  0  0  0  0  0
   -6.3670   11.7066   -6.1899 H   0  0  0  0  0  0  0  0  0  0  0  0
   -2.4562   14.1858   -6.1223 H   0  0  0  0  0  0  0  0  0  0  0  0
   -0.6475   10.6160   -7.6308 H   0  0  0  0  0  0  0  0  0  0  0  0
    1.4583   14.3222   -6.0031 H   0  0  0  0  0  0  0  0  0  0  0  0
    0.1876   15.4829   -6.5173 H   0  0  0  0  0  0  0  0  0  0  0  0
    0.1562   14.7932   -4.8589 H   0  0  0  0  0  0  0  0  0  0  0  0
   -4.8767   12.9944   -9.3773 H   0  0  0  0  0  0  0  0  0  0  0  0
   -3.6317   12.1505  -10.3594 H   0  0  0  0  0  0  0  0  0  0  0  0
   -3.0652   15.3118  -11.9005 H   0  0  0  0  0  0  0  0  0  0  0  0
   -4.3514   15.9332  -10.8114 H   0  0  0  0  0  0  0  0  0  0  0  0
  1  2  2  0  0  0  0
  1  4  1  0  0  0  0
  1 12  1  0  0  0  0
  2  6  1  0  0  0  0
  3  4  2  0  0  0  0
  3  5  1  0  0  0  0
  5  6  2  0  0  0  0
  5  9  1  0  0  0  0
  6  7  1  0  0  0  0
  7  8  1  0  0  0  0
  7 10  2  3  0  0  0
  8  9  2  0  0  0  0
 10 14  1  0  0  0  0
 11 12  1  0  0  0  0
 11 26  1  0  0  0  0
 11 28  1  0  0  0  0
 12 13  2  0  0  0  0
 14 15  2  0  0  0  0
 14 19  1  0  0  0  0
 15 16  1  0  0  0  0
 16 17  1  0  0  0  0
 17 18  2  0  0  0  0
 17 20  1  0  0  0  0
 18 19  1  0  0  0  0
 20 21  2  0  0  0  0
 20 24  1  0  0  0  0
 21 22  1  0  0  0  0
 22 23  1  0  0  0  0
 22 25  1  0  0  0  0
 23 24  2  0  0  0  0
 26 27  1  0  0  0  0
 27 28  1  0  0  0  0
 27 29  1  0  0  0  0
 27 30  1  0  0  0  0
  2 31  1  0  0  0  0
  3 32  1  0  0  0  0
  4 33  1  0  0  0  0
 10 34  1  0  0  0  0
 15 35  1  0  0  0  0
 16 36  1  0  0  0  0
 16 37  1  0  0  0  0
 18 38  1  0  0  0  0
 19 39  1  0  0  0  0
 19 40  1  0  0  0  0
 21 41  1  0  0  0  0
 24 42  1  0  0  0  0
 25 43  1  0  0  0  0
 25 44  1  0  0  0  0
 25 45  1  0  0  0  0
 26 46  1  0  0  0  0
 26 47  1  0  0  0  0
 28 48  1  0  0  0  0
 28 49  1  0  0  0  0
M  END
> <Name>
34

> <IC50[uM]>
0.007

$$$$
34
  -OEChem-05192314333D
 Structure written by MMmdl.
 49 53  0     0  0  0  0  0  0999 V2000
   -6.4024   12.3461  -12.0147 C   0  0  0  0  0  0  0  0  0  0  0  0
   -6.5825   11.7781  -10.7426 C   0  0  0  0  0  0  0  0  0  0  0  0
   -7.7347   10.5660  -13.0395 C   0  0  0  0  0  0  0  0  0  0  0  0
   -6.9966   11.7550  -13.1361 C   0  0  0  0  0  0  0  0  0  0  0  0
   -7.8265    9.9936  -11.7632 C   0  0  0  0  0  0  0  0  0  0  0  0
   -7.2675   10.6024  -10.6199 C   0  0  0  0  0  0  0  0  0  0  0  0
   -7.6234    9.7358   -9.5255 C   0  0  0  0  0  0  0  0  0  0  0  0
   -8.2741    8.7136   -9.9910 N   0  0  0  0  0  0  0  0  0  0  0  0
   -8.4130    8.8453  -11.3044 N   0  0  0  0  0  0  0  0  0  0  0  0
   -7.3406    9.8933   -8.0338 C   0  0  0  0  0  0  0  0  0  0  0  0
   -4.5538   13.8407  -11.3379 N   0  0  0  0  0  0  0  0  0  0  0  0
   -5.6005   13.6490  -12.1765 C   0  0  0  0  0  0  0  0  0  0  0  0
   -5.9196   14.4808  -13.0199 O   0  0  0  0  0  0  0  0  0  0  0  0
   -5.9590   10.4855   -7.7382 C   0  0  0  0  0  0  0  0  0  0  0  0
   -4.8075    9.7636   -8.0570 C   0  0  0  0  0  0  0  0  0  0  0  0
   -3.5513   10.3099   -7.8070 C   0  0  0  0  0  0  0  0  0  0  0  0
   -3.4406   11.5840   -7.2355 C   0  0  0  0  0  0  0  0  0  0  0  0
   -4.5915   12.3007   -6.9126 C   0  0  0  0  0  0  0  0  0  0  0  0
   -5.8470   11.7538   -7.1581 C   0  0  0  0  0  0  0  0  0  0  0  0
   -2.0979   12.1738   -6.9691 C   0  0  0  0  0  0  0  0  0  0  0  0
   -1.7666   13.4166   -6.4372 C   0  0  0  0  0  0  0  0  0  0  0  0
   -0.4273   13.4768   -6.3903 N   0  0  0  0  0  0  0  0  0  0  0  0
    0.1744   12.4049   -6.8247 N   0  0  0  0  0  0  0  0  0  0  0  0
   -0.8040   11.5944   -7.2012 C   0  0  0  0  0  0  0  0  0  0  0  0
    0.3946   14.5874   -5.9129 C   0  0  0  0  0  0  0  0  0  0  0  0
   -4.1104   13.1199  -10.1564 C   0  0  0  0  0  0  0  0  0  0  0  0
   -3.1547   14.2611   -9.9254 C   0  0  0  0  0  0  0  0  0  0  0  0
   -3.7686   15.0454  -11.0979 C   0  0  0  0  0  0  0  0  0  0  0  0
   -3.3454   14.7999   -8.7258 F   0  0  0  0  0  0  0  0  0  0  0  0
   -1.8808   13.9286  -10.0717 F   0  0  0  0  0  0  0  0  0  0  0  0
   -6.1820   12.2677   -9.8672 H   0  0  0  0  0  0  0  0  0  0  0  0
   -8.2062   10.1164  -13.9009 H   0  0  0  0  0  0  0  0  0  0  0  0
   -6.8838   12.2269  -14.1010 H   0  0  0  0  0  0  0  0  0  0  0  0
   -8.0445    9.6149   -7.2634 H   0  0  0  0  0  0  0  0  0  0  0  0
   -4.8910    8.7811   -8.4977 H   0  0  0  0  0  0  0  0  0  0  0  0
   -2.6611    9.7505   -8.0541 H   0  0  0  0  0  0  0  0  0  0  0  0
   -4.5424   12.5097   -5.8338 H   0  0  0  0  0  0  0  0  0  0  0  0
   -4.5431   13.2466   -7.4719 H   0  0  0  0  0  0  0  0  0  0  0  0
   -6.3733   12.4542   -7.8233 H   0  0  0  0  0  0  0  0  0  0  0  0
   -6.3670   11.7066   -6.1899 H   0  0  0  0  0  0  0  0  0  0  0  0
   -2.4562   14.1858   -6.1223 H   0  0  0  0  0  0  0  0  0  0  0  0
   -0.6475   10.6160   -7.6308 H   0  0  0  0  0  0  0  0  0  0  0  0
    1.4583   14.3222   -6.0031 H   0  0  0  0  0  0  0  0  0  0  0  0
    0.1876   15.4829   -6.5173 H   0  0  0  0  0  0  0  0  0  0  0  0
    0.1562   14.7932   -4.8589 H   0  0  0  0  0  0  0  0  0  0  0  0
   -4.8767   12.9944   -9.3773 H   0  0  0  0  0  0  0  0  0  0  0  0
   -3.6317   12.1505  -10.3594 H   0  0  0  0  0  0  0  0  0  0  0  0
   -3.0652   15.3118  -11.9005 H   0  0  0  0  0  0  0  0  0  0  0  0
   -4.3514   15.9332  -10.8114 H   0  0  0  0  0  0  0  0  0  0  0  0
  1  2  2  0  0  0  0
  1  4  1  0  0  0  0
  1 12  1  0  0  0  0
  2  6  1  0  0  0  0
  3  4  2  0  0  0  0
  3  5  1  0  0  0  0
  5  6  2  0  0  0  0
  5  9  1  0  0  0  0
  6  7  1  0  0  0  0
  7  8  1  0  0  0  0
  7 10  2  3  0  0  0
  8  9  2  0  0  0  0
 10 14  1  0  0  0  0
 11 12  1  0  0  0  0
 11 26  1  0  0  0  0
 11 28  1  0  0  0  0
 12 13  2  0  0  0  0
 14 15  2  0  0  0  0
 14 19  1  0  0  0  0
 15 16  1  0  0  0  0
 16 17  2  0  0  0  0
 17 18  1  0  0  0  0
 17 20  1  0  0  0  0
 18 19  1  0  0  0  0
 20 21  2  0  0  0  0
 20 24  1  0  0  0  0
 21 22  1  0  0  0  0
 22 23  1  0  0  0  0
 22 25  1  0  0  0  0
 23 24  2  0  0  0  0
 26 27  1  0  0  0  0
 27 28  1  0  0  0  0
 27 29  1  0  0  0  0
 27 30  1  0  0  0  0
  2 31  1  0  0  0  0
  3 32  1  0  0  0  0
  4 33  1  0  0  0  0
 10 34  1  0  0  0  0
 15 35  1  0  0  0  0
 16 36  1  0  0  0  0
 18 37  1  0  0  0  0
 18 38  1  0  0  0  0
 19 39  1  0  0  0  0
 19 40  1  0  0  0  0
 21 41  1  0  0  0  0
 24 42  1  0  0  0  0
 25 43  1  0  0  0  0
 25 44  1  0  0  0  0
 25 45  1  0  0  0  0
 26 46  1  0  0  0  0
 26 47  1  0  0  0  0
 28 48  1  0  0  0  0
 28 49  1  0  0  0  0
M  END
> <Name>
34

> <IC50[uM]>
0.007

$$$$
34
  -OEChem-05192314333D
 Structure written by MMmdl.
 49 53  0     1  0  0  0  0  0999 V2000
   -6.4024   12.3461  -12.0147 C   0  0  3  0  0  0  0  0  0  0  0  0
   -6.5825   11.7781  -10.7426 C   0  0  0  0  0  0  0  0  0  0  0  0
   -7.7347   10.5660  -13.0395 C   0  0  0  0  0  0  0  0  0  0  0  0
   -6.9966   11.7550  -13.1361 C   0  0  0  0  0  0  0  0  0  0  0  0
   -7.8265    9.9936  -11.7632 C   0  0  0  0  0  0  0  0  0  0  0  0
   -7.2675   10.6024  -10.6199 C   0  0  0  0  0  0  0  0  0  0  0  0
   -7.6234    9.7358   -9.5255 C   0  0  0  0  0  0  0  0  0  0  0  0
   -8.2741    8.7136   -9.9910 N   0  0  0  0  0  0  0  0  0  0  0  0
   -8.4130    8.8453  -11.3044 N   0  0  0  0  0  0  0  0  0  0  0  0
   -7.3406    9.8933   -8.0338 C   0  0  0  0  0  0  0  0  0  0  0  0
   -4.5538   13.8407  -11.3379 N   0  0  0  0  0  0  0  0  0  0  0  0
   -5.6005   13.6490  -12.1765 C   0  0  0  0  0  0  0  0  0  0  0  0
   -5.9196   14.4808  -13.0199 O   0  0  0  0  0  0  0  0  0  0  0  0
   -5.9590   10.4855   -7.7382 C   0  0  0  0  0  0  0  0  0  0  0  0
   -4.8075    9.7636   -8.0570 C   0  0  0  0  0  0  0  0  0  0  0  0
   -3.5513   10.3099   -7.8070 C   0  0  0  0  0  0  0  0  0  0  0  0
   -3.4406   11.5840   -7.2355 C   0  0  0  0  0  0  0  0  0  0  0  0
   -4.5915   12.3007   -6.9126 C   0  0  0  0  0  0  0  0  0  0  0  0
   -5.8470   11.7538   -7.1581 C   0  0  0  0  0  0  0  0  0  0  0  0
   -2.0979   12.1738   -6.9691 C   0  0  0  0  0  0  0  0  0  0  0  0
   -1.7666   13.4166   -6.4372 C   0  0  0  0  0  0  0  0  0  0  0  0
   -0.4273   13.4768   -6.3903 N   0  0  0  0  0  0  0  0  0  0  0  0
    0.1744   12.4049   -6.8247 N   0  0  0  0  0  0  0  0  0  0  0  0
   -0.8040   11.5944   -7.2012 C   0  0  0  0  0  0  0  0  0  0  0  0
    0.3946   14.5874   -5.9129 C   0  0  0  0  0  0  0  0  0  0  0  0
   -4.1104   13.1199  -10.1564 C   0  0  0  0  0  0  0  0  0  0  0  0
   -3.1547   14.2611   -9.9254 C   0  0  0  0  0  0  0  0  0  0  0  0
   -3.7686   15.0454  -11.0979 C   0  0  0  0  0  0  0  0  0  0  0  0
   -3.3454   14.7999   -8.7258 F   0  0  0  0  0  0  0  0  0  0  0  0
   -1.8808   13.9286  -10.0717 F   0  0  0  0  0  0  0  0  0  0  0  0
   -5.4901   11.7507  -12.1668 H   0  0  0  0  0  0  0  0  0  0  0  0
   -5.5797   11.6090  -10.3232 H   0  0  0  0  0  0  0  0  0  0  0  0
   -7.1143   12.5230  -10.1324 H   0  0  0  0  0  0  0  0  0  0  0  0
   -8.2062   10.1164  -13.9009 H   0  0  0  0  0  0  0  0  0  0  0  0
   -6.8838   12.2269  -14.1010 H   0  0  0  0  0  0  0  0  0  0  0  0
   -8.0445    9.6149   -7.2634 H   0  0  0  0  0  0  0  0  0  0  0  0
   -4.8910    8.7811   -8.4977 H   0  0  0  0  0  0  0  0  0  0  0  0
   -2.6611    9.7505   -8.0541 H   0  0  0  0  0  0  0  0  0  0  0  0
   -4.5085   13.2827   -6.4709 H   0  0  0  0  0  0  0  0  0  0  0  0
   -6.7367   12.3092   -6.9005 H   0  0  0  0  0  0  0  0  0  0  0  0
   -2.4562   14.1858   -6.1223 H   0  0  0  0  0  0  0  0  0  0  0  0
   -0.6475   10.6160   -7.6308 H   0  0  0  0  0  0  0  0  0  0  0  0
    1.4583   14.3222   -6.0031 H   0  0  0  0  0  0  0  0  0  0  0  0
    0.1876   15.4829   -6.5173 H   0  0  0  0  0  0  0  0  0  0  0  0
    0.1562   14.7932   -4.8589 H   0  0  0  0  0  0  0  0  0  0  0  0
   -4.8767   12.9944   -9.3773 H   0  0  0  0  0  0  0  0  0  0  0  0
   -3.6317   12.1505  -10.3594 H   0  0  0  0  0  0  0  0  0  0  0  0
   -3.0652   15.3118  -11.9005 H   0  0  0  0  0  0  0  0  0  0  0  0
   -4.3514   15.9332  -10.8114 H   0  0  0  0  0  0  0  0  0  0  0  0
  1  2  1  0  0  0  0
  1  4  1  0  0  0  0
  1 12  1  0  0  0  0
  2  6  1  0  0  0  0
  3  4  2  0  0  0  0
  3  5  1  0  0  0  0
  5  6  2  0  0  0  0
  5  9  1  0  0  0  0
  6  7  1  0  0  0  0
  7  8  1  0  0  0  0
  7 10  2  3  0  0  0
  8  9  2  0  0  0  0
 10 14  1  0  0  0  0
 11 12  1  0  0  0  0
 11 26  1  0  0  0  0
 11 28  1  0  0  0  0
 12 13  2  0  0  0  0
 14 15  2  0  0  0  0
 14 19  1  0  0  0  0
 15 16  1  0  0  0  0
 16 17  2  0  0  0  0
 17 18  1  0  0  0  0
 17 20  1  0  0  0  0
 18 19  2  0  0  0  0
 20 21  2  0  0  0  0
 20 24  1  0  0  0  0
 21 22  1  0  0  0  0
 22 23  1  0  0  0  0
 22 25  1  0  0  0  0
 23 24  2  0  0  0  0
 26 27  1  0  0  0  0
 27 28  1  0  0  0  0
 27 29  1  0  0  0  0
 27 30  1  0  0  0  0
  1 31  1  0  0  0  0
  2 32  1  0  0  0  0
  2 33  1  0  0  0  0
  3 34  1  0  0  0  0
  4 35  1  0  0  0  0
 10 36  1  0  0  0  0
 15 37  1  0  0  0  0
 16 38  1  0  0  0  0
 18 39  1  0  0  0  0
 19 40  1  0  0  0  0
 21 41  1  0  0  0  0
 24 42  1  0  0  0  0
 25 43  1  0  0  0  0
 25 44  1  0  0  0  0
 25 45  1  0  0  0  0
 26 46  1  0  0  0  0
 26 47  1  0  0  0  0
 28 48  1  0  0  0  0
 28 49  1  0  0  0  0
M  END
> <Name>
34

> <IC50[uM]>
0.007

$$$$
34
  -OEChem-05192314333D
 Structure written by MMmdl.
 49 53  0     1  0  0  0  0  0999 V2000
   -6.4024   12.3461  -12.0147 C   0  0  0  0  0  0  0  0  0  0  0  0
   -6.5825   11.7781  -10.7426 C   0  0  0  0  0  0  0  0  0  0  0  0
   -7.7347   10.5660  -13.0395 C   0  0  0  0  0  0  0  0  0  0  0  0
   -6.9966   11.7550  -13.1361 C   0  0  0  0  0  0  0  0  0  0  0  0
   -7.8265    9.9936  -11.7632 C   0  0  0  0  0  0  0  0  0  0  0  0
   -7.2675   10.6024  -10.6199 C   0  0  3  0  0  0  0  0  0  0  0  0
   -7.6234    9.7358   -9.5255 C   0  0  0  0  0  0  0  0  0  0  0  0
   -8.2741    8.7136   -9.9910 N   0  0  0  0  0  0  0  0  0  0  0  0
   -8.4130    8.8453  -11.3044 N   0  0  0  0  0  0  0  0  0  0  0  0
   -7.3406    9.8933   -8.0338 C   0  0  0  0  0  0  0  0  0  0  0  0
   -4.5538   13.8407  -11.3379 N   0  0  0  0  0  0  0  0  0  0  0  0
   -5.6005   13.6490  -12.1765 C   0  0  0  0  0  0  0  0  0  0  0  0
   -5.9196   14.4808  -13.0199 O   0  0  0  0  0  0  0  0  0  0  0  0
   -5.9590   10.4855   -7.7382 C   0  0  0  0  0  0  0  0  0  0  0  0
   -4.8075    9.7636   -8.0570 C   0  0  0  0  0  0  0  0  0  0  0  0
   -3.5513   10.3099   -7.8070 C   0  0  0  0  0  0  0  0  0  0  0  0
   -3.4406   11.5840   -7.2355 C   0  0  0  0  0  0  0  0  0  0  0  0
   -4.5915   12.3007   -6.9126 C   0  0  0  0  0  0  0  0  0  0  0  0
   -5.8470   11.7538   -7.1581 C   0  0  0  0  0  0  0  0  0  0  0  0
   -2.0979   12.1738   -6.9691 C   0  0  0  0  0  0  0  0  0  0  0  0
   -1.7666   13.4166   -6.4372 C   0  0  0  0  0  0  0  0  0  0  0  0
   -0.4273   13.4768   -6.3903 N   0  0  0  0  0  0  0  0  0  0  0  0
    0.1744   12.4049   -6.8247 N   0  0  0  0  0  0  0  0  0  0  0  0
   -0.8040   11.5944   -7.2012 C   0  0  0  0  0  0  0  0  0  0  0  0
    0.3946   14.5874   -5.9129 C   0  0  0  0  0  0  0  0  0  0  0  0
   -4.1104   13.1199  -10.1564 C   0  0  0  0  0  0  0  0  0  0  0  0
   -3.1547   14.2611   -9.9254 C   0  0  0  0  0  0  0  0  0  0  0  0
   -3.7686   15.0454  -11.0979 C   0  0  0  0  0  0  0  0  0  0  0  0
   -3.3454   14.7999   -8.7258 F   0  0  0  0  0  0  0  0  0  0  0  0
   -1.8808   13.9286  -10.0717 F   0  0  0  0  0  0  0  0  0  0  0  0
   -5.5797   11.6090  -10.3232 H   0  0  0  0  0  0  0  0  0  0  0  0
   -7.1143   12.5230  -10.1324 H   0  0  0  0  0  0  0  0  0  0  0  0
   -8.2062   10.1164  -13.9009 H   0  0  0  0  0  0  0  0  0  0  0  0
   -6.8838   12.2269  -14.1010 H   0  0  0  0  0  0  0  0  0  0  0  0
   -6.3352   10.0381  -10.7695 H   0  0  0  0  0  0  0  0  0  0  0  0
   -8.0445    9.6149   -7.2634 H   0  0  0  0  0  0  0  0  0  0  0  0
   -4.8910    8.7811   -8.4977 H   0  0  0  0  0  0  0  0  0  0  0  0
   -2.6611    9.7505   -8.0541 H   0  0  0  0  0  0  0  0  0  0  0  0
   -4.5085   13.2827   -6.4709 H   0  0  0  0  0  0  0  0  0  0  0  0
   -6.7367   12.3092   -6.9005 H   0  0  0  0  0  0  0  0  0  0  0  0
   -2.4562   14.1858   -6.1223 H   0  0  0  0  0  0  0  0  0  0  0  0
   -0.6475   10.6160   -7.6308 H   0  0  0  0  0  0  0  0  0  0  0  0
    1.4583   14.3222   -6.0031 H   0  0  0  0  0  0  0  0  0  0  0  0
    0.1876   15.4829   -6.5173 H   0  0  0  0  0  0  0  0  0  0  0  0
    0.1562   14.7932   -4.8589 H   0  0  0  0  0  0  0  0  0  0  0  0
   -4.8767   12.9944   -9.3773 H   0  0  0  0  0  0  0  0  0  0  0  0
   -3.6317   12.1505  -10.3594 H   0  0  0  0  0  0  0  0  0  0  0  0
   -3.0652   15.3118  -11.9005 H   0  0  0  0  0  0  0  0  0  0  0  0
   -4.3514   15.9332  -10.8114 H   0  0  0  0  0  0  0  0  0  0  0  0
  1  2  1  0  0  0  0
  1  4  2  0  0  0  0
  1 12  1  0  0  0  0
  2  6  1  0  0  0  0
  3  4  1  0  0  0  0
  3  5  2  0  0  0  0
  5  6  1  0  0  0  0
  5  9  1  0  0  0  0
  6  7  1  0  0  0  0
  7  8  1  0  0  0  0
  7 10  2  3  0  0  0
  8  9  2  0  0  0  0
 10 14  1  0  0  0  0
 11 12  1  0  0  0  0
 11 26  1  0  0  0  0
 11 28  1  0  0  0  0
 12 13  2  0  0  0  0
 14 15  2  0  0  0  0
 14 19  1  0  0  0  0
 15 16  1  0  0  0  0
 16 17  2  0  0  0  0
 17 18  1  0  0  0  0
 17 20  1  0  0  0  0
 18 19  2  0  0  0  0
 20 21  2  0  0  0  0
 20 24  1  0  0  0  0
 21 22  1  0  0  0  0
 22 23  1  0  0  0  0
 22 25  1  0  0  0  0
 23 24  2  0  0  0  0
 26 27  1  0  0  0  0
 27 28  1  0  0  0  0
 27 29  1  0  0  0  0
 27 30  1  0  0  0  0
  2 31  1  0  0  0  0
  2 32  1  0  0  0  0
  3 33  1  0  0  0  0
  4 34  1  0  0  0  0
  6 35  1  0  0  0  0
 10 36  1  0  0  0  0
 15 37  1  0  0  0  0
 16 38  1  0  0  0  0
 18 39  1  0  0  0  0
 19 40  1  0  0  0  0
 21 41  1  0  0  0  0
 24 42  1  0  0  0  0
 25 43  1  0  0  0  0
 25 44  1  0  0  0  0
 25 45  1  0  0  0  0
 26 46  1  0  0  0  0
 26 47  1  0  0  0  0
 28 48  1  0  0  0  0
 28 49  1  0  0  0  0
M  END
> <Name>
34

> <IC50[uM]>
0.007

$$$$
34
  -OEChem-05192314333D
 Structure written by MMmdl.
 49 53  0     0  0  0  0  0  0999 V2000
   -6.4024   12.3461  -12.0147 C   0  0  0  0  0  0  0  0  0  0  0  0
   -6.5825   11.7781  -10.7426 C   0  0  0  0  0  0  0  0  0  0  0  0
   -7.7347   10.5660  -13.0395 C   0  0  0  0  0  0  0  0  0  0  0  0
   -6.9966   11.7550  -13.1361 C   0  0  0  0  0  0  0  0  0  0  0  0
   -7.8265    9.9936  -11.7632 C   0  0  0  0  0  0  0  0  0  0  0  0
   -7.2675   10.6024  -10.6199 C   0  0  0  0  0  0  0  0  0  0  0  0
   -7.6234    9.7358   -9.5255 C   0  0  0  0  0  0  0  0  0  0  0  0
   -8.2741    8.7136   -9.9910 N   0  0  0  0  0  0  0  0  0  0  0  0
   -8.4130    8.8453  -11.3044 N   0  0  0  0  0  0  0  0  0  0  0  0
   -7.3406    9.8933   -8.0338 C   0  0  0  0  0  0  0  0  0  0  0  0
   -4.5538   13.8407  -11.3379 N   0  0  0  0  0  0  0  0  0  0  0  0
   -5.6005   13.6490  -12.1765 C   0  0  0  0  0  0  0  0  0  0  0  0
   -5.9196   14.4808  -13.0199 O   0  0  0  0  0  0  0  0  0  0  0  0
   -5.9590   10.4855   -7.7382 C   0  0  0  0  0  0  0  0  0  0  0  0
   -4.8075    9.7636   -8.0570 C   0  0  0  0  0  0  0  0  0  0  0  0
   -3.5513   10.3099   -7.8070 C   0  0  0  0  0  0  0  0  0  0  0  0
   -3.4406   11.5840   -7.2355 C   0  0  0  0  0  0  0  0  0  0  0  0
   -4.5915   12.3007   -6.9126 C   0  0  0  0  0  0  0  0  0  0  0  0
   -5.8470   11.7538   -7.1581 C   0  0  0  0  0  0  0  0  0  0  0  0
   -2.0979   12.1738   -6.9691 C   0  0  0  0  0  0  0  0  0  0  0  0
   -1.7666   13.4166   -6.4372 C   0  0  0  0  0  0  0  0  0  0  0  0
   -0.4273   13.4768   -6.3903 N   0  0  0  0  0  0  0  0  0  0  0  0
    0.1744   12.4049   -6.8247 N   0  0  0  0  0  0  0  0  0  0  0  0
   -0.8040   11.5944   -7.2012 C   0  0  0  0  0  0  0  0  0  0  0  0
    0.3946   14.5874   -5.9129 C   0  0  0  0  0  0  0  0  0  0  0  0
   -4.1104   13.1199  -10.1564 C   0  0  0  0  0  0  0  0  0  0  0  0
   -3.1547   14.2611   -9.9254 C   0  0  0  0  0  0  0  0  0  0  0  0
   -3.7686   15.0454  -11.0979 C   0  0  0  0  0  0  0  0  0  0  0  0
   -3.3454   14.7999   -8.7258 F   0  0  0  0  0  0  0  0  0  0  0  0
   -1.8808   13.9286  -10.0717 F   0  0  0  0  0  0  0  0  0  0  0  0
   -5.5797   11.6090  -10.3232 H   0  0  0  0  0  0  0  0  0  0  0  0
   -7.1143   12.5230  -10.1324 H   0  0  0  0  0  0  0  0  0  0  0  0
   -8.7570   10.7771  -13.3864 H   0  0  0  0  0  0  0  0  0  0  0  0
   -7.2669    9.8262  -13.7057 H   0  0  0  0  0  0  0  0  0  0  0  0
   -6.8838   12.2269  -14.1010 H   0  0  0  0  0  0  0  0  0  0  0  0
   -8.0445    9.6149   -7.2634 H   0  0  0  0  0  0  0  0  0  0  0  0
   -4.8910    8.7811   -8.4977 H   0  0  0  0  0  0  0  0  0  0  0  0
   -2.6611    9.7505   -8.0541 H   0  0  0  0  0  0  0  0  0  0  0  0
   -4.5085   13.2827   -6.4709 H   0  0  0  0  0  0  0  0  0  0  0  0
   -6.7367   12.3092   -6.9005 H   0  0  0  0  0  0  0  0  0  0  0  0
   -2.4562   14.1858   -6.1223 H   0  0  0  0  0  0  0  0  0  0  0  0
   -0.6475   10.6160   -7.6308 H   0  0  0  0  0  0  0  0  0  0  0  0
    1.4583   14.3222   -6.0031 H   0  0  0  0  0  0  0  0  0  0  0  0
    0.1876   15.4829   -6.5173 H   0  0  0  0  0  0  0  0  0  0  0  0
    0.1562   14.7932   -4.8589 H   0  0  0  0  0  0  0  0  0  0  0  0
   -4.8767   12.9944   -9.3773 H   0  0  0  0  0  0  0  0  0  0  0  0
   -3.6317   12.1505  -10.3594 H   0  0  0  0  0  0  0  0  0  0  0  0
   -3.0652   15.3118  -11.9005 H   0  0  0  0  0  0  0  0  0  0  0  0
   -4.3514   15.9332  -10.8114 H   0  0  0  0  0  0  0  0  0  0  0  0
  1  2  1  0  0  0  0
  1  4  2  0  0  0  0
  1 12  1  0  0  0  0
  2  6  1  0  0  0  0
  3  4  1  0  0  0  0
  3  5  1  0  0  0  0
  5  6  2  0  0  0  0
  5  9  1  0  0  0  0
  6  7  1  0  0  0  0
  7  8  1  0  0  0  0
  7 10  2  3  0  0  0
  8  9  2  0  0  0  0
 10 14  1  0  0  0  0
 11 12  1  0  0  0  0
 11 26  1  0  0  0  0
 11 28  1  0  0  0  0
 12 13  2  0  0  0  0
 14 15  2  0  0  0  0
 14 19  1  0  0  0  0
 15 16  1  0  0  0  0
 16 17  2  0  0  0  0
 17 18  1  0  0  0  0
 17 20  1  0  0  0  0
 18 19  2  0  0  0  0
 20 21  2  0  0  0  0
 20 24  1  0  0  0  0
 21 22  1  0  0  0  0
 22 23  1  0  0  0  0
 22 25  1  0  0  0  0
 23 24  2  0  0  0  0
 26 27  1  0  0  0  0
 27 28  1  0  0  0  0
 27 29  1  0  0  0  0
 27 30  1  0  0  0  0
  2 31  1  0  0  0  0
  2 32  1  0  0  0  0
  3 33  1  0  0  0  0
  3 34  1  0  0  0  0
  4 35  1  0  0  0  0
 10 36  1  0  0  0  0
 15 37  1  0  0  0  0
 16 38  1  0  0  0  0
 18 39  1  0  0  0  0
 19 40  1  0  0  0  0
 21 41  1  0  0  0  0
 24 42  1  0  0  0  0
 25 43  1  0  0  0  0
 25 44  1  0  0  0  0
 25 45  1  0  0  0  0
 26 46  1  0  0  0  0
 26 47  1  0  0  0  0
 28 48  1  0  0  0  0
 28 49  1  0  0  0  0
M  END
> <Name>
34

> <IC50[uM]>
0.007

$$$$
34
  -OEChem-05192314333D
 Structure written by MMmdl.
 49 53  0     1  0  0  0  0  0999 V2000
   -6.4024   12.3461  -12.0147 C   0  0  0  0  0  0  0  0  0  0  0  0
   -6.5825   11.7781  -10.7426 C   0  0  0  0  0  0  0  0  0  0  0  0
   -7.7347   10.5660  -13.0395 C   0  0  0  0  0  0  0  0  0  0  0  0
   -6.9966   11.7550  -13.1361 C   0  0  0  0  0  0  0  0  0  0  0  0
   -7.8265    9.9936  -11.7632 C   0  0  3  0  0  0  0  0  0  0  0  0
   -7.2675   10.6024  -10.6199 C   0  0  0  0  0  0  0  0  0  0  0  0
   -7.6234    9.7358   -9.5255 C   0  0  0  0  0  0  0  0  0  0  0  0
   -8.2741    8.7136   -9.9910 N   0  0  0  0  0  0  0  0  0  0  0  0
   -8.4130    8.8453  -11.3044 N   0  0  0  0  0  0  0  0  0  0  0  0
   -7.3406    9.8933   -8.0338 C   0  0  0  0  0  0  0  0  0  0  0  0
   -4.5538   13.8407  -11.3379 N   0  0  0  0  0  0  0  0  0  0  0  0
   -5.6005   13.6490  -12.1765 C   0  0  0  0  0  0  0  0  0  0  0  0
   -5.9196   14.4808  -13.0199 O   0  0  0  0  0  0  0  0  0  0  0  0
   -5.9590   10.4855   -7.7382 C   0  0  0  0  0  0  0  0  0  0  0  0
   -4.8075    9.7636   -8.0570 C   0  0  0  0  0  0  0  0  0  0  0  0
   -3.5513   10.3099   -7.8070 C   0  0  0  0  0  0  0  0  0  0  0  0
   -3.4406   11.5840   -7.2355 C   0  0  0  0  0  0  0  0  0  0  0  0
   -4.5915   12.3007   -6.9126 C   0  0  0  0  0  0  0  0  0  0  0  0
   -5.8470   11.7538   -7.1581 C   0  0  0  0  0  0  0  0  0  0  0  0
   -2.0979   12.1738   -6.9691 C   0  0  0  0  0  0  0  0  0  0  0  0
   -1.7666   13.4166   -6.4372 C   0  0  0  0  0  0  0  0  0  0  0  0
   -0.4273   13.4768   -6.3903 N   0  0  0  0  0  0  0  0  0  0  0  0
    0.1744   12.4049   -6.8247 N   0  0  0  0  0  0  0  0  0  0  0  0
   -0.8040   11.5944   -7.2012 C   0  0  0  0  0  0  0  0  0  0  0  0
    0.3946   14.5874   -5.9129 C   0  0  0  0  0  0  0  0  0  0  0  0
   -4.1104   13.1199  -10.1564 C   0  0  0  0  0  0  0  0  0  0  0  0
   -3.1547   14.2611   -9.9254 C   0  0  0  0  0  0  0  0  0  0  0  0
   -3.7686   15.0454  -11.0979 C   0  0  0  0  0  0  0  0  0  0  0  0
   -3.3454   14.7999   -8.7258 F   0  0  0  0  0  0  0  0  0  0  0  0
   -1.8808   13.9286  -10.0717 F   0  0  0  0  0  0  0  0  0  0  0  0
   -6.1820   12.2677   -9.8672 H   0  0  0  0  0  0  0  0  0  0  0  0
   -8.2062   10.1164  -13.9009 H   0  0  0  0  0  0  0  0  0  0  0  0
   -6.8838   12.2269  -14.1010 H   0  0  0  0  0  0  0  0  0  0  0  0
   -6.8869    9.4485  -11.9364 H   0  0  0  0  0  0  0  0  0  0  0  0
   -8.1045   10.5565   -7.6017 H   0  0  0  0  0  0  0  0  0  0  0  0
   -7.4046    8.9027   -7.5598 H   0  0  0  0  0  0  0  0  0  0  0  0
   -4.8910    8.7811   -8.4977 H   0  0  0  0  0  0  0  0  0  0  0  0
   -2.6611    9.7505   -8.0541 H   0  0  0  0  0  0  0  0  0  0  0  0
   -4.5085   13.2827   -6.4709 H   0  0  0  0  0  0  0  0  0  0  0  0
   -6.7367   12.3092   -6.9005 H   0  0  0  0  0  0  0  0  0  0  0  0
   -2.4562   14.1858   -6.1223 H   0  0  0  0  0  0  0  0  0  0  0  0
   -0.6475   10.6160   -7.6308 H   0  0  0  0  0  0  0  0  0  0  0  0
    1.4583   14.3222   -6.0031 H   0  0  0  0  0  0  0  0  0  0  0  0
    0.1876   15.4829   -6.5173 H   0  0  0  0  0  0  0  0  0  0  0  0
    0.1562   14.7932   -4.8589 H   0  0  0  0  0  0  0  0  0  0  0  0
   -4.8767   12.9944   -9.3773 H   0  0  0  0  0  0  0  0  0  0  0  0
   -3.6317   12.1505  -10.3594 H   0  0  0  0  0  0  0  0  0  0  0  0
   -3.0652   15.3118  -11.9005 H   0  0  0  0  0  0  0  0  0  0  0  0
   -4.3514   15.9332  -10.8114 H   0  0  0  0  0  0  0  0  0  0  0  0
  1  2  2  0  0  0  0
  1  4  1  0  0  0  0
  1 12  1  0  0  0  0
  2  6  1  0  0  0  0
  3  4  2  0  0  0  0
  3  5  1  0  0  0  0
  5  6  1  0  0  0  0
  5  9  1  0  0  0  0
  6  7  2  0  0  0  0
  7  8  1  0  0  0  0
  7 10  1  0  0  0  0
  8  9  2  0  0  0  0
 10 14  1  0  0  0  0
 11 12  1  0  0  0  0
 11 26  1  0  0  0  0
 11 28  1  0  0  0  0
 12 13  2  0  0  0  0
 14 15  2  0  0  0  0
 14 19  1  0  0  0  0
 15 16  1  0  0  0  0
 16 17  2  0  0  0  0
 17 18  1  0  0  0  0
 17 20  1  0  0  0  0
 18 19  2  0  0  0  0
 20 21  2  0  0  0  0
 20 24  1  0  0  0  0
 21 22  1  0  0  0  0
 22 23  1  0  0  0  0
 22 25  1  0  0  0  0
 23 24  2  0  0  0  0
 26 27  1  0  0  0  0
 27 28  1  0  0  0  0
 27 29  1  0  0  0  0
 27 30  1  0  0  0  0
  2 31  1  0  0  0  0
  3 32  1  0  0  0  0
  4 33  1  0  0  0  0
  5 34  1  0  0  0  0
 10 35  1  0  0  0  0
 10 36  1  0  0  0  0
 15 37  1  0  0  0  0
 16 38  1  0  0  0  0
 18 39  1  0  0  0  0
 19 40  1  0  0  0  0
 21 41  1  0  0  0  0
 24 42  1  0  0  0  0
 25 43  1  0  0  0  0
 25 44  1  0  0  0  0
 25 45  1  0  0  0  0
 26 46  1  0  0  0  0
 26 47  1  0  0  0  0
 28 48  1  0  0  0  0
 28 49  1  0  0  0  0
M  END
> <Name>
34

> <IC50[uM]>
0.007

$$$$
34
  -OEChem-05192314333D
 Structure written by MMmdl.
 49 53  0     0  0  0  0  0  0999 V2000
   -6.4024   12.3461  -12.0147 C   0  0  0  0  0  0  0  0  0  0  0  0
   -6.5825   11.7781  -10.7426 C   0  0  0  0  0  0  0  0  0  0  0  0
   -7.7347   10.5660  -13.0395 C   0  0  0  0  0  0  0  0  0  0  0  0
   -6.9966   11.7550  -13.1361 C   0  0  0  0  0  0  0  0  0  0  0  0
   -7.8265    9.9936  -11.7632 C   0  0  0  0  0  0  0  0  0  0  0  0
   -7.2675   10.6024  -10.6199 C   0  0  0  0  0  0  0  0  0  0  0  0
   -7.6234    9.7358   -9.5255 C   0  0  0  0  0  0  0  0  0  0  0  0
   -8.2741    8.7136   -9.9910 N   0  0  0  0  0  0  0  0  0  0  0  0
   -8.4130    8.8453  -11.3044 N   0  0  0  0  0  0  0  0  0  0  0  0
   -7.3406    9.8933   -8.0338 C   0  0  0  0  0  0  0  0  0  0  0  0
   -4.5538   13.8407  -11.3379 N   0  0  0  0  0  0  0  0  0  0  0  0
   -5.6005   13.6490  -12.1765 C   0  0  0  0  0  0  0  0  0  0  0  0
   -5.9196   14.4808  -13.0199 O   0  0  0  0  0  0  0  0  0  0  0  0
   -5.9590   10.4855   -7.7382 C   0  0  0  0  0  0  0  0  0  0  0  0
   -4.8075    9.7636   -8.0570 C   0  0  0  0  0  0  0  0  0  0  0  0
   -3.5513   10.3099   -7.8070 C   0  0  0  0  0  0  0  0  0  0  0  0
   -3.4406   11.5840   -7.2355 C   0  0  0  0  0  0  0  0  0  0  0  0
   -4.5915   12.3007   -6.9126 C   0  0  0  0  0  0  0  0  0  0  0  0
   -5.8470   11.7538   -7.1581 C   0  0  0  0  0  0  0  0  0  0  0  0
   -2.0979   12.1738   -6.9691 C   0  0  0  0  0  0  0  0  0  0  0  0
   -1.7666   13.4166   -6.4372 C   0  0  0  0  0  0  0  0  0  0  0  0
   -0.4273   13.4768   -6.3903 N   0  0  0  0  0  0  0  0  0  0  0  0
    0.1744   12.4049   -6.8247 N   0  0  0  0  0  0  0  0  0  0  0  0
   -0.8040   11.5944   -7.2012 C   0  0  0  0  0  0  0  0  0  0  0  0
    0.3946   14.5874   -5.9129 C   0  0  0  0  0  0  0  0  0  0  0  0
   -4.1104   13.1199  -10.1564 C   0  0  0  0  0  0  0  0  0  0  0  0
   -3.1547   14.2611   -9.9254 C   0  0  0  0  0  0  0  0  0  0  0  0
   -3.7686   15.0454  -11.0979 C   0  0  0  0  0  0  0  0  0  0  0  0
   -3.3454   14.7999   -8.7258 F   0  0  0  0  0  0  0  0  0  0  0  0
   -1.8808   13.9286  -10.0717 F   0  0  0  0  0  0  0  0  0  0  0  0
   -6.1820   12.2677   -9.8672 H   0  0  0  0  0  0  0  0  0  0  0  0
   -8.2062   10.1164  -13.9009 H   0  0  0  0  0  0  0  0  0  0  0  0
   -7.6779   12.5084  -13.5582 H   0  0  0  0  0  0  0  0  0  0  0  0
   -6.1826   11.5565  -13.8488 H   0  0  0  0  0  0  0  0  0  0  0  0
   -8.1045   10.5565   -7.6017 H   0  0  0  0  0  0  0  0  0  0  0  0
   -7.4046    8.9027   -7.5598 H   0  0  0  0  0  0  0  0  0  0  0  0
   -4.8910    8.7811   -8.4977 H   0  0  0  0  0  0  0  0  0  0  0  0
   -2.6611    9.7505   -8.0541 H   0  0  0  0  0  0  0  0  0  0  0  0
   -4.5085   13.2827   -6.4709 H   0  0  0  0  0  0  0  0  0  0  0  0
   -6.7367   12.3092   -6.9005 H   0  0  0  0  0  0  0  0  0  0  0  0
   -2.4562   14.1858   -6.1223 H   0  0  0  0  0  0  0  0  0  0  0  0
   -0.6475   10.6160   -7.6308 H   0  0  0  0  0  0  0  0  0  0  0  0
    1.4583   14.3222   -6.0031 H   0  0  0  0  0  0  0  0  0  0  0  0
    0.1876   15.4829   -6.5173 H   0  0  0  0  0  0  0  0  0  0  0  0
    0.1562   14.7932   -4.8589 H   0  0  0  0  0  0  0  0  0  0  0  0
   -4.8767   12.9944   -9.3773 H   0  0  0  0  0  0  0  0  0  0  0  0
   -3.6317   12.1505  -10.3594 H   0  0  0  0  0  0  0  0  0  0  0  0
   -3.0652   15.3118  -11.9005 H   0  0  0  0  0  0  0  0  0  0  0  0
   -4.3514   15.9332  -10.8114 H   0  0  0  0  0  0  0  0  0  0  0  0
  1  2  2  0  0  0  0
  1  4  1  0  0  0  0
  1 12  1  0  0  0  0
  2  6  1  0  0  0  0
  3  4  1  0  0  0  0
  3  5  2  0  0  0  0
  5  6  1  0  0  0  0
  5  9  1  0  0  0  0
  6  7  2  0  0  0  0
  7  8  1  0  0  0  0
  7 10  1  0  0  0  0
  8  9  2  0  0  0  0
 10 14  1  0  0  0  0
 11 12  1  0  0  0  0
 11 26  1  0  0  0  0
 11 28  1  0  0  0  0
 12 13  2  0  0  0  0
 14 15  2  0  0  0  0
 14 19  1  0  0  0  0
 15 16  1  0  0  0  0
 16 17  2  0  0  0  0
 17 18  1  0  0  0  0
 17 20  1  0  0  0  0
 18 19  2  0  0  0  0
 20 21  2  0  0  0  0
 20 24  1  0  0  0  0
 21 22  1  0  0  0  0
 22 23  1  0  0  0  0
 22 25  1  0  0  0  0
 23 24  2  0  0  0  0
 26 27  1  0  0  0  0
 27 28  1  0  0  0  0
 27 29  1  0  0  0  0
 27 30  1  0  0  0  0
  2 31  1  0  0  0  0
  3 32  1  0  0  0  0
  4 33  1  0  0  0  0
  4 34  1  0  0  0  0
 10 35  1  0  0  0  0
 10 36  1  0  0  0  0
 15 37  1  0  0  0  0
 16 38  1  0  0  0  0
 18 39  1  0  0  0  0
 19 40  1  0  0  0  0
 21 41  1  0  0  0  0
 24 42  1  0  0  0  0
 25 43  1  0  0  0  0
 25 44  1  0  0  0  0
 25 45  1  0  0  0  0
 26 46  1  0  0  0  0
 26 47  1  0  0  0  0
 28 48  1  0  0  0  0
 28 49  1  0  0  0  0
M  END
> <Name>
34

> <IC50[uM]>
0.007

$$$$
34
  -OEChem-05192314333D
 Structure written by MMmdl.
 49 53  0     0  0  0  0  0  0999 V2000
   -6.4024   12.3461  -12.0147 C   0  0  0  0  0  0  0  0  0  0  0  0
   -6.5825   11.7781  -10.7426 C   0  0  0  0  0  0  0  0  0  0  0  0
   -7.7347   10.5660  -13.0395 C   0  0  0  0  0  0  0  0  0  0  0  0
   -6.9966   11.7550  -13.1361 C   0  0  0  0  0  0  0  0  0  0  0  0
   -7.8265    9.9936  -11.7632 C   0  0  0  0  0  0  0  0  0  0  0  0
   -7.2675   10.6024  -10.6199 C   0  0  0  0  0  0  0  0  0  0  0  0
   -7.6234    9.7358   -9.5255 C   0  0  0  0  0  0  0  0  0  0  0  0
   -8.2741    8.7136   -9.9910 N   0  0  0  0  0  0  0  0  0  0  0  0
   -8.4130    8.8453  -11.3044 N   0  0  0  0  0  0  0  0  0  0  0  0
   -7.3406    9.8933   -8.0338 C   0  0  0  0  0  0  0  0  0  0  0  0
   -4.5538   13.8407  -11.3379 N   0  0  0  0  0  0  0  0  0  0  0  0
   -5.6005   13.6490  -12.1765 C   0  0  0  0  0  0  0  0  0  0  0  0
   -5.9196   14.4808  -13.0199 O   0  0  0  0  0  0  0  0  0  0  0  0
   -5.9590   10.4855   -7.7382 C   0  0  0  0  0  0  0  0  0  0  0  0
   -4.8075    9.7636   -8.0570 C   0  0  0  0  0  0  0  0  0  0  0  0
   -3.5513   10.3099   -7.8070 C   0  0  0  0  0  0  0  0  0  0  0  0
   -3.4406   11.5840   -7.2355 C   0  0  0  0  0  0  0  0  0  0  0  0
   -4.5915   12.3007   -6.9126 C   0  0  0  0  0  0  0  0  0  0  0  0
   -5.8470   11.7538   -7.1581 C   0  0  0  0  0  0  0  0  0  0  0  0
   -2.0979   12.1738   -6.9691 C   0  0  0  0  0  0  0  0  0  0  0  0
   -1.7666   13.4166   -6.4372 C   0  0  0  0  0  0  0  0  0  0  0  0
   -0.4273   13.4768   -6.3903 N   0  0  0  0  0  0  0  0  0  0  0  0
    0.1744   12.4049   -6.8247 N   0  0  0  0  0  0  0  0  0  0  0  0
   -0.8040   11.5944   -7.2012 C   0  0  0  0  0  0  0  0  0  0  0  0
    0.3946   14.5874   -5.9129 C   0  0  0  0  0  0  0  0  0  0  0  0
   -4.1104   13.1199  -10.1564 C   0  0  0  0  0  0  0  0  0  0  0  0
   -3.1547   14.2611   -9.9254 C   0  0  0  0  0  0  0  0  0  0  0  0
   -3.7686   15.0454  -11.0979 C   0  0  0  0  0  0  0  0  0  0  0  0
   -3.3454   14.7999   -8.7258 F   0  0  0  0  0  0  0  0  0  0  0  0
   -1.8808   13.9286  -10.0717 F   0  0  0  0  0  0  0  0  0  0  0  0
   -5.5797   11.6090  -10.3232 H   0  0  0  0  0  0  0  0  0  0  0  0
   -7.1143   12.5230  -10.1324 H   0  0  0  0  0  0  0  0  0  0  0  0
   -8.2062   10.1164  -13.9009 H   0  0  0  0  0  0  0  0  0  0  0  0
   -6.8838   12.2269  -14.1010 H   0  0  0  0  0  0  0  0  0  0  0  0
   -8.1045   10.5565   -7.6017 H   0  0  0  0  0  0  0  0  0  0  0  0
   -7.4046    8.9027   -7.5598 H   0  0  0  0  0  0  0  0  0  0  0  0
   -4.8910    8.7811   -8.4977 H   0  0  0  0  0  0  0  0  0  0  0  0
   -2.6611    9.7505   -8.0541 H   0  0  0  0  0  0  0  0  0  0  0  0
   -4.5085   13.2827   -6.4709 H   0  0  0  0  0  0  0  0  0  0  0  0
   -6.7367   12.3092   -6.9005 H   0  0  0  0  0  0  0  0  0  0  0  0
   -2.4562   14.1858   -6.1223 H   0  0  0  0  0  0  0  0  0  0  0  0
   -0.6475   10.6160   -7.6308 H   0  0  0  0  0  0  0  0  0  0  0  0
    1.4583   14.3222   -6.0031 H   0  0  0  0  0  0  0  0  0  0  0  0
    0.1876   15.4829   -6.5173 H   0  0  0  0  0  0  0  0  0  0  0  0
    0.1562   14.7932   -4.8589 H   0  0  0  0  0  0  0  0  0  0  0  0
   -4.8767   12.9944   -9.3773 H   0  0  0  0  0  0  0  0  0  0  0  0
   -3.6317   12.1505  -10.3594 H   0  0  0  0  0  0  0  0  0  0  0  0
   -3.0652   15.3118  -11.9005 H   0  0  0  0  0  0  0  0  0  0  0  0
   -4.3514   15.9332  -10.8114 H   0  0  0  0  0  0  0  0  0  0  0  0
  1  2  1  0  0  0  0
  1  4  2  0  0  0  0
  1 12  1  0  0  0  0
  2  6  1  0  0  0  0
  3  4  1  0  0  0  0
  3  5  2  0  0  0  0
  5  6  1  0  0  0  0
  5  9  1  0  0  0  0
  6  7  2  0  0  0  0
  7  8  1  0  0  0  0
  7 10  1  0  0  0  0
  8  9  2  0  0  0  0
 10 14  1  0  0  0  0
 11 12  1  0  0  0  0
 11 26  1  0  0  0  0
 11 28  1  0  0  0  0
 12 13  2  0  0  0  0
 14 15  2  0  0  0  0
 14 19  1  0  0  0  0
 15 16  1  0  0  0  0
 16 17  2  0  0  0  0
 17 18  1  0  0  0  0
 17 20  1  0  0  0  0
 18 19  2  0  0  0  0
 20 21  2  0  0  0  0
 20 24  1  0  0  0  0
 21 22  1  0  0  0  0
 22 23  1  0  0  0  0
 22 25  1  0  0  0  0
 23 24  2  0  0  0  0
 26 27  1  0  0  0  0
 27 28  1  0  0  0  0
 27 29  1  0  0  0  0
 27 30  1  0  0  0  0
  2 31  1  0  0  0  0
  2 32  1  0  0  0  0
  3 33  1  0  0  0  0
  4 34  1  0  0  0  0
 10 35  1  0  0  0  0
 10 36  1  0  0  0  0
 15 37  1  0  0  0  0
 16 38  1  0  0  0  0
 18 39  1  0  0  0  0
 19 40  1  0  0  0  0
 21 41  1  0  0  0  0
 24 42  1  0  0  0  0
 25 43  1  0  0  0  0
 25 44  1  0  0  0  0
 25 45  1  0  0  0  0
 26 46  1  0  0  0  0
 26 47  1  0  0  0  0
 28 48  1  0  0  0  0
 28 49  1  0  0  0  0
M  END
> <Name>
34

> <IC50[uM]>
0.007

$$$$
34
  -OEChem-05192314333D
 Structure written by MMmdl.
 49 53  0     1  0  0  0  0  0999 V2000
   -6.4024   12.3461  -12.0147 C   0  0  0  0  0  0  0  0  0  0  0  0
   -6.5825   11.7781  -10.7426 C   0  0  0  0  0  0  0  0  0  0  0  0
   -7.7347   10.5660  -13.0395 C   0  0  0  0  0  0  0  0  0  0  0  0
   -6.9966   11.7550  -13.1361 C   0  0  0  0  0  0  0  0  0  0  0  0
   -7.8265    9.9936  -11.7632 C   0  0  0  0  0  0  0  0  0  0  0  0
   -7.2675   10.6024  -10.6199 C   0  0  3  0  0  0  0  0  0  0  0  0
   -7.6234    9.7358   -9.5255 C   0  0  0  0  0  0  0  0  0  0  0  0
   -8.2741    8.7136   -9.9910 N   0  0  0  0  0  0  0  0  0  0  0  0
   -8.4130    8.8453  -11.3044 N   0  0  0  0  0  0  0  0  0  0  0  0
   -7.3406    9.8933   -8.0338 C   0  0  0  0  0  0  0  0  0  0  0  0
   -4.5538   13.8407  -11.3379 N   0  0  0  0  0  0  0  0  0  0  0  0
   -5.6005   13.6490  -12.1765 C   0  0  0  0  0  0  0  0  0  0  0  0
   -5.9196   14.4808  -13.0199 O   0  0  0  0  0  0  0  0  0  0  0  0
   -5.9590   10.4855   -7.7382 C   0  0  0  0  0  0  0  0  0  0  0  0
   -4.8075    9.7636   -8.0570 C   0  0  0  0  0  0  0  0  0  0  0  0
   -3.5513   10.3099   -7.8070 C   0  0  0  0  0  0  0  0  0  0  0  0
   -3.4406   11.5840   -7.2355 C   0  0  0  0  0  0  0  0  0  0  0  0
   -4.5915   12.3007   -6.9126 C   0  0  0  0  0  0  0  0  0  0  0  0
   -5.8470   11.7538   -7.1581 C   0  0  0  0  0  0  0  0  0  0  0  0
   -2.0979   12.1738   -6.9691 C   0  0  0  0  0  0  0  0  0  0  0  0
   -1.7666   13.4166   -6.4372 C   0  0  0  0  0  0  0  0  0  0  0  0
   -0.4273   13.4768   -6.3903 N   0  0  0  0  0  0  0  0  0  0  0  0
    0.1744   12.4049   -6.8247 N   0  0  0  0  0  0  0  0  0  0  0  0
   -0.8040   11.5944   -7.2012 C   0  0  0  0  0  0  0  0  0  0  0  0
    0.3946   14.5874   -5.9129 C   0  0  0  0  0  0  0  0  0  0  0  0
   -4.1104   13.1199  -10.1564 C   0  0  0  0  0  0  0  0  0  0  0  0
   -3.1547   14.2611   -9.9254 C   0  0  0  0  0  0  0  0  0  0  0  0
   -3.7686   15.0454  -11.0979 C   0  0  0  0  0  0  0  0  0  0  0  0
   -3.3454   14.7999   -8.7258 F   0  0  0  0  0  0  0  0  0  0  0  0
   -1.8808   13.9286  -10.0717 F   0  0  0  0  0  0  0  0  0  0  0  0
   -6.1820   12.2677   -9.8672 H   0  0  0  0  0  0  0  0  0  0  0  0
   -8.2062   10.1164  -13.9009 H   0  0  0  0  0  0  0  0  0  0  0  0
   -6.8838   12.2269  -14.1010 H   0  0  0  0  0  0  0  0  0  0  0  0
   -6.3352   10.0381  -10.7695 H   0  0  0  0  0  0  0  0  0  0  0  0
   -8.6165    7.9481   -9.4463 H   0  0  0  0  0  0  0  0  0  0  0  0
   -8.0445    9.6149   -7.2634 H   0  0  0  0  0  0  0  0  0  0  0  0
   -4.8910    8.7811   -8.4977 H   0  0  0  0  0  0  0  0  0  0  0  0
   -2.6611    9.7505   -8.0541 H   0  0  0  0  0  0  0  0  0  0  0  0
   -4.5085   13.2827   -6.4709 H   0  0  0  0  0  0  0  0  0  0  0  0
   -6.7367   12.3092   -6.9005 H   0  0  0  0  0  0  0  0  0  0  0  0
   -2.4562   14.1858   -6.1223 H   0  0  0  0  0  0  0  0  0  0  0  0
   -0.6475   10.6160   -7.6308 H   0  0  0  0  0  0  0  0  0  0  0  0
    1.4583   14.3222   -6.0031 H   0  0  0  0  0  0  0  0  0  0  0  0
    0.1876   15.4829   -6.5173 H   0  0  0  0  0  0  0  0  0  0  0  0
    0.1562   14.7932   -4.8589 H   0  0  0  0  0  0  0  0  0  0  0  0
   -4.8767   12.9944   -9.3773 H   0  0  0  0  0  0  0  0  0  0  0  0
   -3.6317   12.1505  -10.3594 H   0  0  0  0  0  0  0  0  0  0  0  0
   -3.0652   15.3118  -11.9005 H   0  0  0  0  0  0  0  0  0  0  0  0
   -4.3514   15.9332  -10.8114 H   0  0  0  0  0  0  0  0  0  0  0  0
  1  2  2  0  0  0  0
  1  4  1  0  0  0  0
  1 12  1  0  0  0  0
  2  6  1  0  0  0  0
  3  4  2  0  0  0  0
  3  5  1  0  0  0  0
  5  6  1  0  0  0  0
  5  9  2  0  0  0  0
  6  7  1  0  0  0  0
  7  8  1  0  0  0  0
  7 10  2  3  0  0  0
  8  9  1  0  0  0  0
 10 14  1  0  0  0  0
 11 12  1  0  0  0  0
 11 26  1  0  0  0  0
 11 28  1  0  0  0  0
 12 13  2  0  0  0  0
 14 15  2  0  0  0  0
 14 19  1  0  0  0  0
 15 16  1  0  0  0  0
 16 17  2  0  0  0  0
 17 18  1  0  0  0  0
 17 20  1  0  0  0  0
 18 19  2  0  0  0  0
 20 21  2  0  0  0  0
 20 24  1  0  0  0  0
 21 22  1  0  0  0  0
 22 23  1  0  0  0  0
 22 25  1  0  0  0  0
 23 24  2  0  0  0  0
 26 27  1  0  0  0  0
 27 28  1  0  0  0  0
 27 29  1  0  0  0  0
 27 30  1  0  0  0  0
  2 31  1  0  0  0  0
  3 32  1  0  0  0  0
  4 33  1  0  0  0  0
  6 34  1  0  0  0  0
  8 35  1  0  0  0  0
 10 36  1  0  0  0  0
 15 37  1  0  0  0  0
 16 38  1  0  0  0  0
 18 39  1  0  0  0  0
 19 40  1  0  0  0  0
 21 41  1  0  0  0  0
 24 42  1  0  0  0  0
 25 43  1  0  0  0  0
 25 44  1  0  0  0  0
 25 45  1  0  0  0  0
 26 46  1  0  0  0  0
 26 47  1  0  0  0  0
 28 48  1  0  0  0  0
 28 49  1  0  0  0  0
M  END
> <Name>
34

> <IC50[uM]>
0.007

$$$$
34
  -OEChem-05192314333D
 Structure written by MMmdl.
 49 53  0     1  0  0  0  0  0999 V2000
   -6.4024   12.3461  -12.0147 C   0  0  0  0  0  0  0  0  0  0  0  0
   -6.5825   11.7781  -10.7426 C   0  0  0  0  0  0  0  0  0  0  0  0
   -7.7347   10.5660  -13.0395 C   0  0  0  0  0  0  0  0  0  0  0  0
   -6.9966   11.7550  -13.1361 C   0  0  0  0  0  0  0  0  0  0  0  0
   -7.8265    9.9936  -11.7632 C   0  0  0  0  0  0  0  0  0  0  0  0
   -7.2675   10.6024  -10.6199 C   0  0  0  0  0  0  0  0  0  0  0  0
   -7.6234    9.7358   -9.5255 C   0  0  0  0  0  0  0  0  0  0  0  0
   -8.2741    8.7136   -9.9910 N   0  0  0  0  0  0  0  0  0  0  0  0
   -8.4130    8.8453  -11.3044 N   0  0  0  0  0  0  0  0  0  0  0  0
   -7.3406    9.8933   -8.0338 C   0  0  0  0  0  0  0  0  0  0  0  0
   -4.5538   13.8407  -11.3379 N   0  0  0  0  0  0  0  0  0  0  0  0
   -5.6005   13.6490  -12.1765 C   0  0  0  0  0  0  0  0  0  0  0  0
   -5.9196   14.4808  -13.0199 O   0  0  0  0  0  0  0  0  0  0  0  0
   -5.9590   10.4855   -7.7382 C   0  0  0  0  0  0  0  0  0  0  0  0
   -4.8075    9.7636   -8.0570 C   0  0  0  0  0  0  0  0  0  0  0  0
   -3.5513   10.3099   -7.8070 C   0  0  0  0  0  0  0  0  0  0  0  0
   -3.4406   11.5840   -7.2355 C   0  0  0  0  0  0  0  0  0  0  0  0
   -4.5915   12.3007   -6.9126 C   0  0  0  0  0  0  0  0  0  0  0  0
   -5.8470   11.7538   -7.1581 C   0  0  0  0  0  0  0  0  0  0  0  0
   -2.0979   12.1738   -6.9691 C   0  0  0  0  0  0  0  0  0  0  0  0
   -1.7666   13.4166   -6.4372 C   0  0  0  0  0  0  0  0  0  0  0  0
   -0.4273   13.4768   -6.3903 N   0  0  3  0  0  0  0  0  0  0  0  0
    0.1744   12.4049   -6.8247 N   0  0  0  0  0  0  0  0  0  0  0  0
   -0.8040   11.5944   -7.2012 C   0  0  0  0  0  0  0  0  0  0  0  0
    0.3946   14.5874   -5.9129 C   0  0  0  0  0  0  0  0  0  0  0  0
   -4.1104   13.1199  -10.1564 C   0  0  0  0  0  0  0  0  0  0  0  0
   -3.1547   14.2611   -9.9254 C   0  0  0  0  0  0  0  0  0  0  0  0
   -3.7686   15.0454  -11.0979 C   0  0  0  0  0  0  0  0  0  0  0  0
   -3.3454   14.7999   -8.7258 F   0  0  0  0  0  0  0  0  0  0  0  0
   -1.8808   13.9286  -10.0717 F   0  0  0  0  0  0  0  0  0  0  0  0
   -6.1820   12.2677   -9.8672 H   0  0  0  0  0  0  0  0  0  0  0  0
   -8.2062   10.1164  -13.9009 H   0  0  0  0  0  0  0  0  0  0  0  0
   -6.8838   12.2269  -14.1010 H   0  0  0  0  0  0  0  0  0  0  0  0
   -8.0445    9.6149   -7.2634 H   0  0  0  0  0  0  0  0  0  0  0  0
   -5.9733   10.0265   -6.7386 H   0  0  0  0  0  0  0  0  0  0  0  0
   -4.8910    8.7811   -8.4977 H   0  0  0  0  0  0  0  0  0  0  0  0
   -2.6611    9.7505   -8.0541 H   0  0  0  0  0  0  0  0  0  0  0  0
   -4.5085   13.2827   -6.4709 H   0  0  0  0  0  0  0  0  0  0  0  0
   -6.7367   12.3092   -6.9005 H   0  0  0  0  0  0  0  0  0  0  0  0
   -2.1589   14.2193   -7.0789 H   0  0  0  0  0  0  0  0  0  0  0  0
   -2.1853   13.5185   -5.4251 H   0  0  0  0  0  0  0  0  0  0  0  0
   -0.6475   10.6160   -7.6308 H   0  0  0  0  0  0  0  0  0  0  0  0
    1.4583   14.3222   -6.0031 H   0  0  0  0  0  0  0  0  0  0  0  0
    0.1876   15.4829   -6.5173 H   0  0  0  0  0  0  0  0  0  0  0  0
    0.1562   14.7932   -4.8589 H   0  0  0  0  0  0  0  0  0  0  0  0
   -4.8767   12.9944   -9.3773 H   0  0  0  0  0  0  0  0  0  0  0  0
   -3.6317   12.1505  -10.3594 H   0  0  0  0  0  0  0  0  0  0  0  0
   -3.0652   15.3118  -11.9005 H   0  0  0  0  0  0  0  0  0  0  0  0
   -4.3514   15.9332  -10.8114 H   0  0  0  0  0  0  0  0  0  0  0  0
  1  2  2  0  0  0  0
  1  4  1  0  0  0  0
  1 12  1  0  0  0  0
  2  6  1  0  0  0  0
  3  4  2  0  0  0  0
  3  5  1  0  0  0  0
  5  6  2  0  0  0  0
  5  9  1  0  0  0  0
  6  7  1  0  0  0  0
  7  8  1  0  0  0  0
  7 10  2  3  0  0  0
  8  9  2  0  0  0  0
 10 14  1  0  0  0  0
 11 12  1  0  0  0  0
 11 26  1  0  0  0  0
 11 28  1  0  0  0  0
 12 13  2  0  0  0  0
 14 15  1  0  0  0  0
 14 19  1  0  0  0  0
 15 16  2  0  0  0  0
 16 17  1  0  0  0  0
 17 18  1  0  0  0  0
 17 20  2  0  0  0  0
 18 19  2  0  0  0  0
 20 21  1  0  0  0  0
 20 24  1  0  0  0  0
 21 22  1  0  0  0  0
 22 23  1  0  0  0  0
 22 25  1  0  0  0  0
 23 24  2  0  0  0  0
 26 27  1  0  0  0  0
 27 28  1  0  0  0  0
 27 29  1  0  0  0  0
 27 30  1  0  0  0  0
  2 31  1  0  0  0  0
  3 32  1  0  0  0  0
  4 33  1  0  0  0  0
 10 34  1  0  0  0  0
 14 35  1  0  0  0  0
 15 36  1  0  0  0  0
 16 37  1  0  0  0  0
 18 38  1  0  0  0  0
 19 39  1  0  0  0  0
 21 40  1  0  0  0  0
 21 41  1  0  0  0  0
 24 42  1  0  0  0  0
 25 43  1  0  0  0  0
 25 44  1  0  0  0  0
 25 45  1  0  0  0  0
 26 46  1  0  0  0  0
 26 47  1  0  0  0  0
 28 48  1  0  0  0  0
 28 49  1  0  0  0  0
M  END
> <Name>
34

> <IC50[uM]>
0.007

$$$$
34
  -OEChem-05192314333D
 Structure written by MMmdl.
 49 53  0     1  0  0  0  0  0999 V2000
   -6.4024   12.3461  -12.0147 C   0  0  0  0  0  0  0  0  0  0  0  0
   -6.5825   11.7781  -10.7426 C   0  0  0  0  0  0  0  0  0  0  0  0
   -7.7347   10.5660  -13.0395 C   0  0  0  0  0  0  0  0  0  0  0  0
   -6.9966   11.7550  -13.1361 C   0  0  0  0  0  0  0  0  0  0  0  0
   -7.8265    9.9936  -11.7632 C   0  0  0  0  0  0  0  0  0  0  0  0
   -7.2675   10.6024  -10.6199 C   0  0  0  0  0  0  0  0  0  0  0  0
   -7.6234    9.7358   -9.5255 C   0  0  0  0  0  0  0  0  0  0  0  0
   -8.2741    8.7136   -9.9910 N   0  0  0  0  0  0  0  0  0  0  0  0
   -8.4130    8.8453  -11.3044 N   0  0  0  0  0  0  0  0  0  0  0  0
   -7.3406    9.8933   -8.0338 C   0  0  0  0  0  0  0  0  0  0  0  0
   -4.5538   13.8407  -11.3379 N   0  0  0  0  0  0  0  0  0  0  0  0
   -5.6005   13.6490  -12.1765 C   0  0  0  0  0  0  0  0  0  0  0  0
   -5.9196   14.4808  -13.0199 O   0  0  0  0  0  0  0  0  0  0  0  0
   -5.9590   10.4855   -7.7382 C   0  0  0  0  0  0  0  0  0  0  0  0
   -4.8075    9.7636   -8.0570 C   0  0  0  0  0  0  0  0  0  0  0  0
   -3.5513   10.3099   -7.8070 C   0  0  0  0  0  0  0  0  0  0  0  0
   -3.4406   11.5840   -7.2355 C   0  0  0  0  0  0  0  0  0  0  0  0
   -4.5915   12.3007   -6.9126 C   0  0  0  0  0  0  0  0  0  0  0  0
   -5.8470   11.7538   -7.1581 C   0  0  0  0  0  0  0  0  0  0  0  0
   -2.0979   12.1738   -6.9691 C   0  0  0  0  0  0  0  0  0  0  0  0
   -1.7666   13.4166   -6.4372 C   0  0  0  0  0  0  0  0  0  0  0  0
   -0.4273   13.4768   -6.3903 N   0  0  3  0  0  0  0  0  0  0  0  0
    0.1744   12.4049   -6.8247 N   0  0  0  0  0  0  0  0  0  0  0  0
   -0.8040   11.5944   -7.2012 C   0  0  0  0  0  0  0  0  0  0  0  0
    0.3946   14.5874   -5.9129 C   0  0  0  0  0  0  0  0  0  0  0  0
   -4.1104   13.1199  -10.1564 C   0  0  0  0  0  0  0  0  0  0  0  0
   -3.1547   14.2611   -9.9254 C   0  0  0  0  0  0  0  0  0  0  0  0
   -3.7686   15.0454  -11.0979 C   0  0  0  0  0  0  0  0  0  0  0  0
   -3.3454   14.7999   -8.7258 F   0  0  0  0  0  0  0  0  0  0  0  0
   -1.8808   13.9286  -10.0717 F   0  0  0  0  0  0  0  0  0  0  0  0
   -6.1820   12.2677   -9.8672 H   0  0  0  0  0  0  0  0  0  0  0  0
   -8.2062   10.1164  -13.9009 H   0  0  0  0  0  0  0  0  0  0  0  0
   -6.8838   12.2269  -14.1010 H   0  0  0  0  0  0  0  0  0  0  0  0
   -8.0445    9.6149   -7.2634 H   0  0  0  0  0  0  0  0  0  0  0  0
   -4.8910    8.7811   -8.4977 H   0  0  0  0  0  0  0  0  0  0  0  0
   -3.0312    9.6136   -7.1327 H   0  0  0  0  0  0  0  0  0  0  0  0
   -3.0245   10.3483   -8.7719 H   0  0  0  0  0  0  0  0  0  0  0  0
   -4.5085   13.2827   -6.4709 H   0  0  0  0  0  0  0  0  0  0  0  0
   -6.7367   12.3092   -6.9005 H   0  0  0  0  0  0  0  0  0  0  0  0
   -2.1589   14.2193   -7.0789 H   0  0  0  0  0  0  0  0  0  0  0  0
   -2.1853   13.5185   -5.4251 H   0  0  0  0  0  0  0  0  0  0  0  0
   -0.6475   10.6160   -7.6308 H   0  0  0  0  0  0  0  0  0  0  0  0
    1.4583   14.3222   -6.0031 H   0  0  0  0  0  0  0  0  0  0  0  0
    0.1876   15.4829   -6.5173 H   0  0  0  0  0  0  0  0  0  0  0  0
    0.1562   14.7932   -4.8589 H   0  0  0  0  0  0  0  0  0  0  0  0
   -4.8767   12.9944   -9.3773 H   0  0  0  0  0  0  0  0  0  0  0  0
   -3.6317   12.1505  -10.3594 H   0  0  0  0  0  0  0  0  0  0  0  0
   -3.0652   15.3118  -11.9005 H   0  0  0  0  0  0  0  0  0  0  0  0
   -4.3514   15.9332  -10.8114 H   0  0  0  0  0  0  0  0  0  0  0  0
  1  2  2  0  0  0  0
  1  4  1  0  0  0  0
  1 12  1  0  0  0  0
  2  6  1  0  0  0  0
  3  4  2  0  0  0  0
  3  5  1  0  0  0  0
  5  6  2  0  0  0  0
  5  9  1  0  0  0  0
  6  7  1  0  0  0  0
  7  8  1  0  0  0  0
  7 10  2  3  0  0  0
  8  9  2  0  0  0  0
 10 14  1  0  0  0  0
 11 12  1  0  0  0  0
 11 26  1  0  0  0  0
 11 28  1  0  0  0  0
 12 13  2  0  0  0  0
 14 15  2  0  0  0  0
 14 19  1  0  0  0  0
 15 16  1  0  0  0  0
 16 17  1  0  0  0  0
 17 18  1  0  0  0  0
 17 20  2  0  0  0  0
 18 19  2  0  0  0  0
 20 21  1  0  0  0  0
 20 24  1  0  0  0  0
 21 22  1  0  0  0  0
 22 23  1  0  0  0  0
 22 25  1  0  0  0  0
 23 24  2  0  0  0  0
 26 27  1  0  0  0  0
 27 28  1  0  0  0  0
 27 29  1  0  0  0  0
 27 30  1  0  0  0  0
  2 31  1  0  0  0  0
  3 32  1  0  0  0  0
  4 33  1  0  0  0  0
 10 34  1  0  0  0  0
 15 35  1  0  0  0  0
 16 36  1  0  0  0  0
 16 37  1  0  0  0  0
 18 38  1  0  0  0  0
 19 39  1  0  0  0  0
 21 40  1  0  0  0  0
 21 41  1  0  0  0  0
 24 42  1  0  0  0  0
 25 43  1  0  0  0  0
 25 44  1  0  0  0  0
 25 45  1  0  0  0  0
 26 46  1  0  0  0  0
 26 47  1  0  0  0  0
 28 48  1  0  0  0  0
 28 49  1  0  0  0  0
M  END
> <Name>
34

> <IC50[uM]>
0.007

$$$$
34
  -OEChem-05192314333D
 Structure written by MMmdl.
 49 53  0     1  0  0  0  0  0999 V2000
   -6.4024   12.3461  -12.0147 C   0  0  3  0  0  0  0  0  0  0  0  0
   -6.5825   11.7781  -10.7426 C   0  0  0  0  0  0  0  0  0  0  0  0
   -7.7347   10.5660  -13.0395 C   0  0  0  0  0  0  0  0  0  0  0  0
   -6.9966   11.7550  -13.1361 C   0  0  0  0  0  0  0  0  0  0  0  0
   -7.8265    9.9936  -11.7632 C   0  0  0  0  0  0  0  0  0  0  0  0
   -7.2675   10.6024  -10.6199 C   0  0  0  0  0  0  0  0  0  0  0  0
   -7.6234    9.7358   -9.5255 C   0  0  0  0  0  0  0  0  0  0  0  0
   -8.2741    8.7136   -9.9910 N   0  0  0  0  0  0  0  0  0  0  0  0
   -8.4130    8.8453  -11.3044 N   0  0  0  0  0  0  0  0  0  0  0  0
   -7.3406    9.8933   -8.0338 C   0  0  0  0  0  0  0  0  0  0  0  0
   -4.5538   13.8407  -11.3379 N   0  0  0  0  0  0  0  0  0  0  0  0
   -5.6005   13.6490  -12.1765 C   0  0  0  0  0  0  0  0  0  0  0  0
   -5.9196   14.4808  -13.0199 O   0  0  0  0  0  0  0  0  0  0  0  0
   -5.9590   10.4855   -7.7382 C   0  0  0  0  0  0  0  0  0  0  0  0
   -4.8075    9.7636   -8.0570 C   0  0  0  0  0  0  0  0  0  0  0  0
   -3.5513   10.3099   -7.8070 C   0  0  0  0  0  0  0  0  0  0  0  0
   -3.4406   11.5840   -7.2355 C   0  0  0  0  0  0  0  0  0  0  0  0
   -4.5915   12.3007   -6.9126 C   0  0  0  0  0  0  0  0  0  0  0  0
   -5.8470   11.7538   -7.1581 C   0  0  0  0  0  0  0  0  0  0  0  0
   -2.0979   12.1738   -6.9691 C   0  0  0  0  0  0  0  0  0  0  0  0
   -1.7666   13.4166   -6.4372 C   0  0  0  0  0  0  0  0  0  0  0  0
   -0.4273   13.4768   -6.3903 N   0  0  3  0  0  0  0  0  0  0  0  0
    0.1744   12.4049   -6.8247 N   0  0  0  0  0  0  0  0  0  0  0  0
   -0.8040   11.5944   -7.2012 C   0  0  0  0  0  0  0  0  0  0  0  0
    0.3946   14.5874   -5.9129 C   0  0  0  0  0  0  0  0  0  0  0  0
   -4.1104   13.1199  -10.1564 C   0  0  0  0  0  0  0  0  0  0  0  0
   -3.1547   14.2611   -9.9254 C   0  0  0  0  0  0  0  0  0  0  0  0
   -3.7686   15.0454  -11.0979 C   0  0  0  0  0  0  0  0  0  0  0  0
   -3.3454   14.7999   -8.7258 F   0  0  0  0  0  0  0  0  0  0  0  0
   -1.8808   13.9286  -10.0717 F   0  0  0  0  0  0  0  0  0  0  0  0
   -5.4901   11.7507  -12.1668 H   0  0  0  0  0  0  0  0  0  0  0  0
   -6.1820   12.2677   -9.8672 H   0  0  0  0  0  0  0  0  0  0  0  0
   -8.2062   10.1164  -13.9009 H   0  0  0  0  0  0  0  0  0  0  0  0
   -6.8838   12.2269  -14.1010 H   0  0  0  0  0  0  0  0  0  0  0  0
   -8.0445    9.6149   -7.2634 H   0  0  0  0  0  0  0  0  0  0  0  0
   -4.8910    8.7811   -8.4977 H   0  0  0  0  0  0  0  0  0  0  0  0
   -2.6611    9.7505   -8.0541 H   0  0  0  0  0  0  0  0  0  0  0  0
   -4.5085   13.2827   -6.4709 H   0  0  0  0  0  0  0  0  0  0  0  0
   -6.7367   12.3092   -6.9005 H   0  0  0  0  0  0  0  0  0  0  0  0
   -2.1589   14.2193   -7.0789 H   0  0  0  0  0  0  0  0  0  0  0  0
   -2.1853   13.5185   -5.4251 H   0  0  0  0  0  0  0  0  0  0  0  0
   -0.6475   10.6160   -7.6308 H   0  0  0  0  0  0  0  0  0  0  0  0
    1.4583   14.3222   -6.0031 H   0  0  0  0  0  0  0  0  0  0  0  0
    0.1876   15.4829   -6.5173 H   0  0  0  0  0  0  0  0  0  0  0  0
    0.1562   14.7932   -4.8589 H   0  0  0  0  0  0  0  0  0  0  0  0
   -4.8767   12.9944   -9.3773 H   0  0  0  0  0  0  0  0  0  0  0  0
   -3.6317   12.1505  -10.3594 H   0  0  0  0  0  0  0  0  0  0  0  0
   -3.0652   15.3118  -11.9005 H   0  0  0  0  0  0  0  0  0  0  0  0
   -4.3514   15.9332  -10.8114 H   0  0  0  0  0  0  0  0  0  0  0  0
  1  2  1  0  0  0  0
  1  4  1  0  0  0  0
  1 12  1  0  0  0  0
  2  6  2  0  0  0  0
  3  4  2  0  0  0  0
  3  5  1  0  0  0  0
  5  6  1  0  0  0  0
  5  9  2  0  0  0  0
  6  7  1  0  0  0  0
  7  8  2  0  0  0  0
  7 10  1  0  0  0  0
  8  9  1  0  0  0  0
 10 14  2  0  0  0  0
 11 12  1  0  0  0  0
 11 26  1  0  0  0  0
 11 28  1  0  0  0  0
 12 13  2  0  0  0  0
 14 15  1  0  0  0  0
 14 19  1  0  0  0  0
 15 16  2  0  0  0  0
 16 17  1  0  0  0  0
 17 18  1  0  0  0  0
 17 20  2  0  0  0  0
 18 19  2  0  0  0  0
 20 21  1  0  0  0  0
 20 24  1  0  0  0  0
 21 22  1  0  0  0  0
 22 23  1  0  0  0  0
 22 25  1  0  0  0  0
 23 24  2  0  0  0  0
 26 27  1  0  0  0  0
 27 28  1  0  0  0  0
 27 29  1  0  0  0  0
 27 30  1  0  0  0  0
  1 31  1  0  0  0  0
  2 32  1  0  0  0  0
  3 33  1  0  0  0  0
  4 34  1  0  0  0  0
 10 35  1  0  0  0  0
 15 36  1  0  0  0  0
 16 37  1  0  0  0  0
 18 38  1  0  0  0  0
 19 39  1  0  0  0  0
 21 40  1  0  0  0  0
 21 41  1  0  0  0  0
 24 42  1  0  0  0  0
 25 43  1  0  0  0  0
 25 44  1  0  0  0  0
 25 45  1  0  0  0  0
 26 46  1  0  0  0  0
 26 47  1  0  0  0  0
 28 48  1  0  0  0  0
 28 49  1  0  0  0  0
M  END
> <Name>
34

> <IC50[uM]>
0.007

$$$$
34
  -OEChem-05192314333D
 Structure written by MMmdl.
 49 53  0     1  0  0  0  0  0999 V2000
   -6.4024   12.3461  -12.0147 C   0  0  0  0  0  0  0  0  0  0  0  0
   -6.5825   11.7781  -10.7426 C   0  0  0  0  0  0  0  0  0  0  0  0
   -7.7347   10.5660  -13.0395 C   0  0  0  0  0  0  0  0  0  0  0  0
   -6.9966   11.7550  -13.1361 C   0  0  0  0  0  0  0  0  0  0  0  0
   -7.8265    9.9936  -11.7632 C   0  0  0  0  0  0  0  0  0  0  0  0
   -7.2675   10.6024  -10.6199 C   0  0  3  0  0  0  0  0  0  0  0  0
   -7.6234    9.7358   -9.5255 C   0  0  0  0  0  0  0  0  0  0  0  0
   -8.2741    8.7136   -9.9910 N   0  0  0  0  0  0  0  0  0  0  0  0
   -8.4130    8.8453  -11.3044 N   0  0  0  0  0  0  0  0  0  0  0  0
   -7.3406    9.8933   -8.0338 C   0  0  0  0  0  0  0  0  0  0  0  0
   -4.5538   13.8407  -11.3379 N   0  0  0  0  0  0  0  0  0  0  0  0
   -5.6005   13.6490  -12.1765 C   0  0  0  0  0  0  0  0  0  0  0  0
   -5.9196   14.4808  -13.0199 O   0  0  0  0  0  0  0  0  0  0  0  0
   -5.9590   10.4855   -7.7382 C   0  0  0  0  0  0  0  0  0  0  0  0
   -4.8075    9.7636   -8.0570 C   0  0  0  0  0  0  0  0  0  0  0  0
   -3.5513   10.3099   -7.8070 C   0  0  0  0  0  0  0  0  0  0  0  0
   -3.4406   11.5840   -7.2355 C   0  0  0  0  0  0  0  0  0  0  0  0
   -4.5915   12.3007   -6.9126 C   0  0  0  0  0  0  0  0  0  0  0  0
   -5.8470   11.7538   -7.1581 C   0  0  0  0  0  0  0  0  0  0  0  0
   -2.0979   12.1738   -6.9691 C   0  0  0  0  0  0  0  0  0  0  0  0
   -1.7666   13.4166   -6.4372 C   0  0  0  0  0  0  0  0  0  0  0  0
   -0.4273   13.4768   -6.3903 N   0  0  3  0  0  0  0  0  0  0  0  0
    0.1744   12.4049   -6.8247 N   0  0  0  0  0  0  0  0  0  0  0  0
   -0.8040   11.5944   -7.2012 C   0  0  0  0  0  0  0  0  0  0  0  0
    0.3946   14.5874   -5.9129 C   0  0  0  0  0  0  0  0  0  0  0  0
   -4.1104   13.1199  -10.1564 C   0  0  0  0  0  0  0  0  0  0  0  0
   -3.1547   14.2611   -9.9254 C   0  0  0  0  0  0  0  0  0  0  0  0
   -3.7686   15.0454  -11.0979 C   0  0  0  0  0  0  0  0  0  0  0  0
   -3.3454   14.7999   -8.7258 F   0  0  0  0  0  0  0  0  0  0  0  0
   -1.8808   13.9286  -10.0717 F   0  0  0  0  0  0  0  0  0  0  0  0
   -6.1820   12.2677   -9.8672 H   0  0  0  0  0  0  0  0  0  0  0  0
   -8.2062   10.1164  -13.9009 H   0  0  0  0  0  0  0  0  0  0  0  0
   -6.8838   12.2269  -14.1010 H   0  0  0  0  0  0  0  0  0  0  0  0
   -6.3352   10.0381  -10.7695 H   0  0  0  0  0  0  0  0  0  0  0  0
   -8.0445    9.6149   -7.2634 H   0  0  0  0  0  0  0  0  0  0  0  0
   -4.8910    8.7811   -8.4977 H   0  0  0  0  0  0  0  0  0  0  0  0
   -2.6611    9.7505   -8.0541 H   0  0  0  0  0  0  0  0  0  0  0  0
   -4.5085   13.2827   -6.4709 H   0  0  0  0  0  0  0  0  0  0  0  0
   -6.7367   12.3092   -6.9005 H   0  0  0  0  0  0  0  0  0  0  0  0
   -2.1589   14.2193   -7.0789 H   0  0  0  0  0  0  0  0  0  0  0  0
   -2.1853   13.5185   -5.4251 H   0  0  0  0  0  0  0  0  0  0  0  0
   -0.6475   10.6160   -7.6308 H   0  0  0  0  0  0  0  0  0  0  0  0
    1.4583   14.3222   -6.0031 H   0  0  0  0  0  0  0  0  0  0  0  0
    0.1876   15.4829   -6.5173 H   0  0  0  0  0  0  0  0  0  0  0  0
    0.1562   14.7932   -4.8589 H   0  0  0  0  0  0  0  0  0  0  0  0
   -4.8767   12.9944   -9.3773 H   0  0  0  0  0  0  0  0  0  0  0  0
   -3.6317   12.1505  -10.3594 H   0  0  0  0  0  0  0  0  0  0  0  0
   -3.0652   15.3118  -11.9005 H   0  0  0  0  0  0  0  0  0  0  0  0
   -4.3514   15.9332  -10.8114 H   0  0  0  0  0  0  0  0  0  0  0  0
  1  2  2  0  0  0  0
  1  4  1  0  0  0  0
  1 12  1  0  0  0  0
  2  6  1  0  0  0  0
  3  4  2  0  0  0  0
  3  5  1  0  0  0  0
  5  6  1  0  0  0  0
  5  9  2  0  0  0  0
  6  7  1  0  0  0  0
  7  8  2  0  0  0  0
  7 10  1  0  0  0  0
  8  9  1  0  0  0  0
 10 14  2  0  0  0  0
 11 12  1  0  0  0  0
 11 26  1  0  0  0  0
 11 28  1  0  0  0  0
 12 13  2  0  0  0  0
 14 15  1  0  0  0  0
 14 19  1  0  0  0  0
 15 16  2  0  0  0  0
 16 17  1  0  0  0  0
 17 18  1  0  0  0  0
 17 20  2  0  0  0  0
 18 19  2  0  0  0  0
 20 21  1  0  0  0  0
 20 24  1  0  0  0  0
 21 22  1  0  0  0  0
 22 23  1  0  0  0  0
 22 25  1  0  0  0  0
 23 24  2  0  0  0  0
 26 27  1  0  0  0  0
 27 28  1  0  0  0  0
 27 29  1  0  0  0  0
 27 30  1  0  0  0  0
  2 31  1  0  0  0  0
  3 32  1  0  0  0  0
  4 33  1  0  0  0  0
  6 34  1  0  0  0  0
 10 35  1  0  0  0  0
 15 36  1  0  0  0  0
 16 37  1  0  0  0  0
 18 38  1  0  0  0  0
 19 39  1  0  0  0  0
 21 40  1  0  0  0  0
 21 41  1  0  0  0  0
 24 42  1  0  0  0  0
 25 43  1  0  0  0  0
 25 44  1  0  0  0  0
 25 45  1  0  0  0  0
 26 46  1  0  0  0  0
 26 47  1  0  0  0  0
 28 48  1  0  0  0  0
 28 49  1  0  0  0  0
M  END
> <Name>
34

> <IC50[uM]>
0.007

$$$$
34
  -OEChem-05192314333D
 Structure written by MMmdl.
 49 53  0     1  0  0  0  0  0999 V2000
   -6.4024   12.3461  -12.0147 C   0  0  0  0  0  0  0  0  0  0  0  0
   -6.5825   11.7781  -10.7426 C   0  0  0  0  0  0  0  0  0  0  0  0
   -7.7347   10.5660  -13.0395 C   0  0  0  0  0  0  0  0  0  0  0  0
   -6.9966   11.7550  -13.1361 C   0  0  0  0  0  0  0  0  0  0  0  0
   -7.8265    9.9936  -11.7632 C   0  0  0  0  0  0  0  0  0  0  0  0
   -7.2675   10.6024  -10.6199 C   0  0  0  0  0  0  0  0  0  0  0  0
   -7.6234    9.7358   -9.5255 C   0  0  0  0  0  0  0  0  0  0  0  0
   -8.2741    8.7136   -9.9910 N   0  0  0  0  0  0  0  0  0  0  0  0
   -8.4130    8.8453  -11.3044 N   0  0  0  0  0  0  0  0  0  0  0  0
   -7.3406    9.8933   -8.0338 C   0  0  0  0  0  0  0  0  0  0  0  0
   -4.5538   13.8407  -11.3379 N   0  0  0  0  0  0  0  0  0  0  0  0
   -5.6005   13.6490  -12.1765 C   0  0  0  0  0  0  0  0  0  0  0  0
   -5.9196   14.4808  -13.0199 O   0  0  0  0  0  0  0  0  0  0  0  0
   -5.9590   10.4855   -7.7382 C   0  0  0  0  0  0  0  0  0  0  0  0
   -4.8075    9.7636   -8.0570 C   0  0  0  0  0  0  0  0  0  0  0  0
   -3.5513   10.3099   -7.8070 C   0  0  0  0  0  0  0  0  0  0  0  0
   -3.4406   11.5840   -7.2355 C   0  0  0  0  0  0  0  0  0  0  0  0
   -4.5915   12.3007   -6.9126 C   0  0  0  0  0  0  0  0  0  0  0  0
   -5.8470   11.7538   -7.1581 C   0  0  0  0  0  0  0  0  0  0  0  0
   -2.0979   12.1738   -6.9691 C   0  0  0  0  0  0  0  0  0  0  0  0
   -1.7666   13.4166   -6.4372 C   0  0  0  0  0  0  0  0  0  0  0  0
   -0.4273   13.4768   -6.3903 N   0  0  3  0  0  0  0  0  0  0  0  0
    0.1744   12.4049   -6.8247 N   0  0  0  0  0  0  0  0  0  0  0  0
   -0.8040   11.5944   -7.2012 C   0  0  0  0  0  0  0  0  0  0  0  0
    0.3946   14.5874   -5.9129 C   0  0  0  0  0  0  0  0  0  0  0  0
   -4.1104   13.1199  -10.1564 C   0  0  0  0  0  0  0  0  0  0  0  0
   -3.1547   14.2611   -9.9254 C   0  0  0  0  0  0  0  0  0  0  0  0
   -3.7686   15.0454  -11.0979 C   0  0  0  0  0  0  0  0  0  0  0  0
   -3.3454   14.7999   -8.7258 F   0  0  0  0  0  0  0  0  0  0  0  0
   -1.8808   13.9286  -10.0717 F   0  0  0  0  0  0  0  0  0  0  0  0
   -6.1820   12.2677   -9.8672 H   0  0  0  0  0  0  0  0  0  0  0  0
   -8.7570   10.7771  -13.3864 H   0  0  0  0  0  0  0  0  0  0  0  0
   -7.2669    9.8262  -13.7057 H   0  0  0  0  0  0  0  0  0  0  0  0
   -6.8838   12.2269  -14.1010 H   0  0  0  0  0  0  0  0  0  0  0  0
   -8.0445    9.6149   -7.2634 H   0  0  0  0  0  0  0  0  0  0  0  0
   -4.8910    8.7811   -8.4977 H   0  0  0  0  0  0  0  0  0  0  0  0
   -2.6611    9.7505   -8.0541 H   0  0  0  0  0  0  0  0  0  0  0  0
   -4.5085   13.2827   -6.4709 H   0  0  0  0  0  0  0  0  0  0  0  0
   -6.7367   12.3092   -6.9005 H   0  0  0  0  0  0  0  0  0  0  0  0
   -2.1589   14.2193   -7.0789 H   0  0  0  0  0  0  0  0  0  0  0  0
   -2.1853   13.5185   -5.4251 H   0  0  0  0  0  0  0  0  0  0  0  0
   -0.6475   10.6160   -7.6308 H   0  0  0  0  0  0  0  0  0  0  0  0
    1.4583   14.3222   -6.0031 H   0  0  0  0  0  0  0  0  0  0  0  0
    0.1876   15.4829   -6.5173 H   0  0  0  0  0  0  0  0  0  0  0  0
    0.1562   14.7932   -4.8589 H   0  0  0  0  0  0  0  0  0  0  0  0
   -4.8767   12.9944   -9.3773 H   0  0  0  0  0  0  0  0  0  0  0  0
   -3.6317   12.1505  -10.3594 H   0  0  0  0  0  0  0  0  0  0  0  0
   -3.0652   15.3118  -11.9005 H   0  0  0  0  0  0  0  0  0  0  0  0
   -4.3514   15.9332  -10.8114 H   0  0  0  0  0  0  0  0  0  0  0  0
  1  2  1  0  0  0  0
  1  4  2  0  0  0  0
  1 12  1  0  0  0  0
  2  6  2  0  0  0  0
  3  4  1  0  0  0  0
  3  5  1  0  0  0  0
  5  6  1  0  0  0  0
  5  9  2  0  0  0  0
  6  7  1  0  0  0  0
  7  8  2  0  0  0  0
  7 10  1  0  0  0  0
  8  9  1  0  0  0  0
 10 14  2  0  0  0  0
 11 12  1  0  0  0  0
 11 26  1  0  0  0  0
 11 28  1  0  0  0  0
 12 13  2  0  0  0  0
 14 15  1  0  0  0  0
 14 19  1  0  0  0  0
 15 16  2  0  0  0  0
 16 17  1  0  0  0  0
 17 18  1  0  0  0  0
 17 20  2  0  0  0  0
 18 19  2  0  0  0  0
 20 21  1  0  0  0  0
 20 24  1  0  0  0  0
 21 22  1  0  0  0  0
 22 23  1  0  0  0  0
 22 25  1  0  0  0  0
 23 24  2  0  0  0  0
 26 27  1  0  0  0  0
 27 28  1  0  0  0  0
 27 29  1  0  0  0  0
 27 30  1  0  0  0  0
  2 31  1  0  0  0  0
  3 32  1  0  0  0  0
  3 33  1  0  0  0  0
  4 34  1  0  0  0  0
 10 35  1  0  0  0  0
 15 36  1  0  0  0  0
 16 37  1  0  0  0  0
 18 38  1  0  0  0  0
 19 39  1  0  0  0  0
 21 40  1  0  0  0  0
 21 41  1  0  0  0  0
 24 42  1  0  0  0  0
 25 43  1  0  0  0  0
 25 44  1  0  0  0  0
 25 45  1  0  0  0  0
 26 46  1  0  0  0  0
 26 47  1  0  0  0  0
 28 48  1  0  0  0  0
 28 49  1  0  0  0  0
M  END
> <Name>
34

> <IC50[uM]>
0.007

$$$$
34
  -OEChem-05192314333D
 Structure written by MMmdl.
 49 53  0     1  0  0  0  0  0999 V2000
   -6.4024   12.3461  -12.0147 C   0  0  0  0  0  0  0  0  0  0  0  0
   -6.5825   11.7781  -10.7426 C   0  0  0  0  0  0  0  0  0  0  0  0
   -7.7347   10.5660  -13.0395 C   0  0  0  0  0  0  0  0  0  0  0  0
   -6.9966   11.7550  -13.1361 C   0  0  0  0  0  0  0  0  0  0  0  0
   -7.8265    9.9936  -11.7632 C   0  0  3  0  0  0  0  0  0  0  0  0
   -7.2675   10.6024  -10.6199 C   0  0  0  0  0  0  0  0  0  0  0  0
   -7.6234    9.7358   -9.5255 C   0  0  0  0  0  0  0  0  0  0  0  0
   -8.2741    8.7136   -9.9910 N   0  0  0  0  0  0  0  0  0  0  0  0
   -8.4130    8.8453  -11.3044 N   0  0  0  0  0  0  0  0  0  0  0  0
   -7.3406    9.8933   -8.0338 C   0  0  0  0  0  0  0  0  0  0  0  0
   -4.5538   13.8407  -11.3379 N   0  0  0  0  0  0  0  0  0  0  0  0
   -5.6005   13.6490  -12.1765 C   0  0  0  0  0  0  0  0  0  0  0  0
   -5.9196   14.4808  -13.0199 O   0  0  0  0  0  0  0  0  0  0  0  0
   -5.9590   10.4855   -7.7382 C   0  0  0  0  0  0  0  0  0  0  0  0
   -4.8075    9.7636   -8.0570 C   0  0  0  0  0  0  0  0  0  0  0  0
   -3.5513   10.3099   -7.8070 C   0  0  0  0  0  0  0  0  0  0  0  0
   -3.4406   11.5840   -7.2355 C   0  0  0  0  0  0  0  0  0  0  0  0
   -4.5915   12.3007   -6.9126 C   0  0  0  0  0  0  0  0  0  0  0  0
   -5.8470   11.7538   -7.1581 C   0  0  0  0  0  0  0  0  0  0  0  0
   -2.0979   12.1738   -6.9691 C   0  0  0  0  0  0  0  0  0  0  0  0
   -1.7666   13.4166   -6.4372 C   0  0  0  0  0  0  0  0  0  0  0  0
   -0.4273   13.4768   -6.3903 N   0  0  3  0  0  0  0  0  0  0  0  0
    0.1744   12.4049   -6.8247 N   0  0  0  0  0  0  0  0  0  0  0  0
   -0.8040   11.5944   -7.2012 C   0  0  0  0  0  0  0  0  0  0  0  0
    0.3946   14.5874   -5.9129 C   0  0  0  0  0  0  0  0  0  0  0  0
   -4.1104   13.1199  -10.1564 C   0  0  0  0  0  0  0  0  0  0  0  0
   -3.1547   14.2611   -9.9254 C   0  0  0  0  0  0  0  0  0  0  0  0
   -3.7686   15.0454  -11.0979 C   0  0  0  0  0  0  0  0  0  0  0  0
   -3.3454   14.7999   -8.7258 F   0  0  0  0  0  0  0  0  0  0  0  0
   -1.8808   13.9286  -10.0717 F   0  0  0  0  0  0  0  0  0  0  0  0
   -6.1820   12.2677   -9.8672 H   0  0  0  0  0  0  0  0  0  0  0  0
   -8.2062   10.1164  -13.9009 H   0  0  0  0  0  0  0  0  0  0  0  0
   -6.8838   12.2269  -14.1010 H   0  0  0  0  0  0  0  0  0  0  0  0
   -6.8869    9.4485  -11.9364 H   0  0  0  0  0  0  0  0  0  0  0  0
   -8.0445    9.6149   -7.2634 H   0  0  0  0  0  0  0  0  0  0  0  0
   -4.8910    8.7811   -8.4977 H   0  0  0  0  0  0  0  0  0  0  0  0
   -2.6611    9.7505   -8.0541 H   0  0  0  0  0  0  0  0  0  0  0  0
   -4.5085   13.2827   -6.4709 H   0  0  0  0  0  0  0  0  0  0  0  0
   -6.7367   12.3092   -6.9005 H   0  0  0  0  0  0  0  0  0  0  0  0
   -2.1589   14.2193   -7.0789 H   0  0  0  0  0  0  0  0  0  0  0  0
   -2.1853   13.5185   -5.4251 H   0  0  0  0  0  0  0  0  0  0  0  0
   -0.6475   10.6160   -7.6308 H   0  0  0  0  0  0  0  0  0  0  0  0
    1.4583   14.3222   -6.0031 H   0  0  0  0  0  0  0  0  0  0  0  0
    0.1876   15.4829   -6.5173 H   0  0  0  0  0  0  0  0  0  0  0  0
    0.1562   14.7932   -4.8589 H   0  0  0  0  0  0  0  0  0  0  0  0
   -4.8767   12.9944   -9.3773 H   0  0  0  0  0  0  0  0  0  0  0  0
   -3.6317   12.1505  -10.3594 H   0  0  0  0  0  0  0  0  0  0  0  0
   -3.0652   15.3118  -11.9005 H   0  0  0  0  0  0  0  0  0  0  0  0
   -4.3514   15.9332  -10.8114 H   0  0  0  0  0  0  0  0  0  0  0  0
  1  2  2  0  0  0  0
  1  4  1  0  0  0  0
  1 12  1  0  0  0  0
  2  6  1  0  0  0  0
  3  4  2  0  0  0  0
  3  5  1  0  0  0  0
  5  6  1  0  0  0  0
  5  9  1  0  0  0  0
  6  7  2  0  0  0  0
  7  8  1  0  0  0  0
  7 10  1  0  0  0  0
  8  9  2  0  0  0  0
 10 14  2  0  0  0  0
 11 12  1  0  0  0  0
 11 26  1  0  0  0  0
 11 28  1  0  0  0  0
 12 13  2  0  0  0  0
 14 15  1  0  0  0  0
 14 19  1  0  0  0  0
 15 16  2  0  0  0  0
 16 17  1  0  0  0  0
 17 18  1  0  0  0  0
 17 20  2  0  0  0  0
 18 19  2  0  0  0  0
 20 21  1  0  0  0  0
 20 24  1  0  0  0  0
 21 22  1  0  0  0  0
 22 23  1  0  0  0  0
 22 25  1  0  0  0  0
 23 24  2  0  0  0  0
 26 27  1  0  0  0  0
 27 28  1  0  0  0  0
 27 29  1  0  0  0  0
 27 30  1  0  0  0  0
  2 31  1  0  0  0  0
  3 32  1  0  0  0  0
  4 33  1  0  0  0  0
  5 34  1  0  0  0  0
 10 35  1  0  0  0  0
 15 36  1  0  0  0  0
 16 37  1  0  0  0  0
 18 38  1  0  0  0  0
 19 39  1  0  0  0  0
 21 40  1  0  0  0  0
 21 41  1  0  0  0  0
 24 42  1  0  0  0  0
 25 43  1  0  0  0  0
 25 44  1  0  0  0  0
 25 45  1  0  0  0  0
 26 46  1  0  0  0  0
 26 47  1  0  0  0  0
 28 48  1  0  0  0  0
 28 49  1  0  0  0  0
M  END
> <Name>
34

> <IC50[uM]>
0.007

$$$$
34
  -OEChem-05192314333D
 Structure written by MMmdl.
 49 53  0     1  0  0  0  0  0999 V2000
   -6.4024   12.3461  -12.0147 C   0  0  0  0  0  0  0  0  0  0  0  0
   -6.5825   11.7781  -10.7426 C   0  0  0  0  0  0  0  0  0  0  0  0
   -7.7347   10.5660  -13.0395 C   0  0  0  0  0  0  0  0  0  0  0  0
   -6.9966   11.7550  -13.1361 C   0  0  0  0  0  0  0  0  0  0  0  0
   -7.8265    9.9936  -11.7632 C   0  0  0  0  0  0  0  0  0  0  0  0
   -7.2675   10.6024  -10.6199 C   0  0  0  0  0  0  0  0  0  0  0  0
   -7.6234    9.7358   -9.5255 C   0  0  0  0  0  0  0  0  0  0  0  0
   -8.2741    8.7136   -9.9910 N   0  0  0  0  0  0  0  0  0  0  0  0
   -8.4130    8.8453  -11.3044 N   0  0  0  0  0  0  0  0  0  0  0  0
   -7.3406    9.8933   -8.0338 C   0  0  0  0  0  0  0  0  0  0  0  0
   -4.5538   13.8407  -11.3379 N   0  0  0  0  0  0  0  0  0  0  0  0
   -5.6005   13.6490  -12.1765 C   0  0  0  0  0  0  0  0  0  0  0  0
   -5.9196   14.4808  -13.0199 O   0  0  0  0  0  0  0  0  0  0  0  0
   -5.9590   10.4855   -7.7382 C   0  0  0  0  0  0  0  0  0  0  0  0
   -4.8075    9.7636   -8.0570 C   0  0  0  0  0  0  0  0  0  0  0  0
   -3.5513   10.3099   -7.8070 C   0  0  0  0  0  0  0  0  0  0  0  0
   -3.4406   11.5840   -7.2355 C   0  0  0  0  0  0  0  0  0  0  0  0
   -4.5915   12.3007   -6.9126 C   0  0  0  0  0  0  0  0  0  0  0  0
   -5.8470   11.7538   -7.1581 C   0  0  0  0  0  0  0  0  0  0  0  0
   -2.0979   12.1738   -6.9691 C   0  0  0  0  0  0  0  0  0  0  0  0
   -1.7666   13.4166   -6.4372 C   0  0  0  0  0  0  0  0  0  0  0  0
   -0.4273   13.4768   -6.3903 N   0  0  3  0  0  0  0  0  0  0  0  0
    0.1744   12.4049   -6.8247 N   0  0  0  0  0  0  0  0  0  0  0  0
   -0.8040   11.5944   -7.2012 C   0  0  0  0  0  0  0  0  0  0  0  0
    0.3946   14.5874   -5.9129 C   0  0  0  0  0  0  0  0  0  0  0  0
   -4.1104   13.1199  -10.1564 C   0  0  0  0  0  0  0  0  0  0  0  0
   -3.1547   14.2611   -9.9254 C   0  0  0  0  0  0  0  0  0  0  0  0
   -3.7686   15.0454  -11.0979 C   0  0  0  0  0  0  0  0  0  0  0  0
   -3.3454   14.7999   -8.7258 F   0  0  0  0  0  0  0  0  0  0  0  0
   -1.8808   13.9286  -10.0717 F   0  0  0  0  0  0  0  0  0  0  0  0
   -6.1820   12.2677   -9.8672 H   0  0  0  0  0  0  0  0  0  0  0  0
   -8.2062   10.1164  -13.9009 H   0  0  0  0  0  0  0  0  0  0  0  0
   -7.6779   12.5084  -13.5582 H   0  0  0  0  0  0  0  0  0  0  0  0
   -6.1826   11.5565  -13.8488 H   0  0  0  0  0  0  0  0  0  0  0  0
   -8.0445    9.6149   -7.2634 H   0  0  0  0  0  0  0  0  0  0  0  0
   -4.8910    8.7811   -8.4977 H   0  0  0  0  0  0  0  0  0  0  0  0
   -2.6611    9.7505   -8.0541 H   0  0  0  0  0  0  0  0  0  0  0  0
   -4.5085   13.2827   -6.4709 H   0  0  0  0  0  0  0  0  0  0  0  0
   -6.7367   12.3092   -6.9005 H   0  0  0  0  0  0  0  0  0  0  0  0
   -2.1589   14.2193   -7.0789 H   0  0  0  0  0  0  0  0  0  0  0  0
   -2.1853   13.5185   -5.4251 H   0  0  0  0  0  0  0  0  0  0  0  0
   -0.6475   10.6160   -7.6308 H   0  0  0  0  0  0  0  0  0  0  0  0
    1.4583   14.3222   -6.0031 H   0  0  0  0  0  0  0  0  0  0  0  0
    0.1876   15.4829   -6.5173 H   0  0  0  0  0  0  0  0  0  0  0  0
    0.1562   14.7932   -4.8589 H   0  0  0  0  0  0  0  0  0  0  0  0
   -4.8767   12.9944   -9.3773 H   0  0  0  0  0  0  0  0  0  0  0  0
   -3.6317   12.1505  -10.3594 H   0  0  0  0  0  0  0  0  0  0  0  0
   -3.0652   15.3118  -11.9005 H   0  0  0  0  0  0  0  0  0  0  0  0
   -4.3514   15.9332  -10.8114 H   0  0  0  0  0  0  0  0  0  0  0  0
  1  2  2  0  0  0  0
  1  4  1  0  0  0  0
  1 12  1  0  0  0  0
  2  6  1  0  0  0  0
  3  4  1  0  0  0  0
  3  5  2  0  0  0  0
  5  6  1  0  0  0  0
  5  9  1  0  0  0  0
  6  7  2  0  0  0  0
  7  8  1  0  0  0  0
  7 10  1  0  0  0  0
  8  9  2  0  0  0  0
 10 14  2  0  0  0  0
 11 12  1  0  0  0  0
 11 26  1  0  0  0  0
 11 28  1  0  0  0  0
 12 13  2  0  0  0  0
 14 15  1  0  0  0  0
 14 19  1  0  0  0  0
 15 16  2  0  0  0  0
 16 17  1  0  0  0  0
 17 18  1  0  0  0  0
 17 20  2  0  0  0  0
 18 19  2  0  0  0  0
 20 21  1  0  0  0  0
 20 24  1  0  0  0  0
 21 22  1  0  0  0  0
 22 23  1  0  0  0  0
 22 25  1  0  0  0  0
 23 24  2  0  0  0  0
 26 27  1  0  0  0  0
 27 28  1  0  0  0  0
 27 29  1  0  0  0  0
 27 30  1  0  0  0  0
  2 31  1  0  0  0  0
  3 32  1  0  0  0  0
  4 33  1  0  0  0  0
  4 34  1  0  0  0  0
 10 35  1  0  0  0  0
 15 36  1  0  0  0  0
 16 37  1  0  0  0  0
 18 38  1  0  0  0  0
 19 39  1  0  0  0  0
 21 40  1  0  0  0  0
 21 41  1  0  0  0  0
 24 42  1  0  0  0  0
 25 43  1  0  0  0  0
 25 44  1  0  0  0  0
 25 45  1  0  0  0  0
 26 46  1  0  0  0  0
 26 47  1  0  0  0  0
 28 48  1  0  0  0  0
 28 49  1  0  0  0  0
M  END
> <Name>
34

> <IC50[uM]>
0.007

$$$$
34
  -OEChem-05192314333D
 Structure written by MMmdl.
 49 53  0     1  0  0  0  0  0999 V2000
   -6.4024   12.3461  -12.0147 C   0  0  0  0  0  0  0  0  0  0  0  0
   -6.5825   11.7781  -10.7426 C   0  0  0  0  0  0  0  0  0  0  0  0
   -7.7347   10.5660  -13.0395 C   0  0  0  0  0  0  0  0  0  0  0  0
   -6.9966   11.7550  -13.1361 C   0  0  0  0  0  0  0  0  0  0  0  0
   -7.8265    9.9936  -11.7632 C   0  0  0  0  0  0  0  0  0  0  0  0
   -7.2675   10.6024  -10.6199 C   0  0  0  0  0  0  0  0  0  0  0  0
   -7.6234    9.7358   -9.5255 C   0  0  0  0  0  0  0  0  0  0  0  0
   -8.2741    8.7136   -9.9910 N   0  0  0  0  0  0  0  0  0  0  0  0
   -8.4130    8.8453  -11.3044 N   0  0  0  0  0  0  0  0  0  0  0  0
   -7.3406    9.8933   -8.0338 C   0  0  0  0  0  0  0  0  0  0  0  0
   -4.5538   13.8407  -11.3379 N   0  0  0  0  0  0  0  0  0  0  0  0
   -5.6005   13.6490  -12.1765 C   0  0  0  0  0  0  0  0  0  0  0  0
   -5.9196   14.4808  -13.0199 O   0  0  0  0  0  0  0  0  0  0  0  0
   -5.9590   10.4855   -7.7382 C   0  0  0  0  0  0  0  0  0  0  0  0
   -4.8075    9.7636   -8.0570 C   0  0  0  0  0  0  0  0  0  0  0  0
   -3.5513   10.3099   -7.8070 C   0  0  0  0  0  0  0  0  0  0  0  0
   -3.4406   11.5840   -7.2355 C   0  0  0  0  0  0  0  0  0  0  0  0
   -4.5915   12.3007   -6.9126 C   0  0  0  0  0  0  0  0  0  0  0  0
   -5.8470   11.7538   -7.1581 C   0  0  0  0  0  0  0  0  0  0  0  0
   -2.0979   12.1738   -6.9691 C   0  0  0  0  0  0  0  0  0  0  0  0
   -1.7666   13.4166   -6.4372 C   0  0  0  0  0  0  0  0  0  0  0  0
   -0.4273   13.4768   -6.3903 N   0  0  3  0  0  0  0  0  0  0  0  0
    0.1744   12.4049   -6.8247 N   0  0  0  0  0  0  0  0  0  0  0  0
   -0.8040   11.5944   -7.2012 C   0  0  0  0  0  0  0  0  0  0  0  0
    0.3946   14.5874   -5.9129 C   0  0  0  0  0  0  0  0  0  0  0  0
   -4.1104   13.1199  -10.1564 C   0  0  0  0  0  0  0  0  0  0  0  0
   -3.1547   14.2611   -9.9254 C   0  0  0  0  0  0  0  0  0  0  0  0
   -3.7686   15.0454  -11.0979 C   0  0  0  0  0  0  0  0  0  0  0  0
   -3.3454   14.7999   -8.7258 F   0  0  0  0  0  0  0  0  0  0  0  0
   -1.8808   13.9286  -10.0717 F   0  0  0  0  0  0  0  0  0  0  0  0
   -5.5797   11.6090  -10.3232 H   0  0  0  0  0  0  0  0  0  0  0  0
   -7.1143   12.5230  -10.1324 H   0  0  0  0  0  0  0  0  0  0  0  0
   -8.2062   10.1164  -13.9009 H   0  0  0  0  0  0  0  0  0  0  0  0
   -6.8838   12.2269  -14.1010 H   0  0  0  0  0  0  0  0  0  0  0  0
   -8.0445    9.6149   -7.2634 H   0  0  0  0  0  0  0  0  0  0  0  0
   -4.8910    8.7811   -8.4977 H   0  0  0  0  0  0  0  0  0  0  0  0
   -2.6611    9.7505   -8.0541 H   0  0  0  0  0  0  0  0  0  0  0  0
   -4.5085   13.2827   -6.4709 H   0  0  0  0  0  0  0  0  0  0  0  0
   -6.7367   12.3092   -6.9005 H   0  0  0  0  0  0  0  0  0  0  0  0
   -2.1589   14.2193   -7.0789 H   0  0  0  0  0  0  0  0  0  0  0  0
   -2.1853   13.5185   -5.4251 H   0  0  0  0  0  0  0  0  0  0  0  0
   -0.6475   10.6160   -7.6308 H   0  0  0  0  0  0  0  0  0  0  0  0
    1.4583   14.3222   -6.0031 H   0  0  0  0  0  0  0  0  0  0  0  0
    0.1876   15.4829   -6.5173 H   0  0  0  0  0  0  0  0  0  0  0  0
    0.1562   14.7932   -4.8589 H   0  0  0  0  0  0  0  0  0  0  0  0
   -4.8767   12.9944   -9.3773 H   0  0  0  0  0  0  0  0  0  0  0  0
   -3.6317   12.1505  -10.3594 H   0  0  0  0  0  0  0  0  0  0  0  0
   -3.0652   15.3118  -11.9005 H   0  0  0  0  0  0  0  0  0  0  0  0
   -4.3514   15.9332  -10.8114 H   0  0  0  0  0  0  0  0  0  0  0  0
  1  2  1  0  0  0  0
  1  4  2  0  0  0  0
  1 12  1  0  0  0  0
  2  6  1  0  0  0  0
  3  4  1  0  0  0  0
  3  5  2  0  0  0  0
  5  6  1  0  0  0  0
  5  9  1  0  0  0  0
  6  7  2  0  0  0  0
  7  8  1  0  0  0  0
  7 10  1  0  0  0  0
  8  9  2  0  0  0  0
 10 14  2  0  0  0  0
 11 12  1  0  0  0  0
 11 26  1  0  0  0  0
 11 28  1  0  0  0  0
 12 13  2  0  0  0  0
 14 15  1  0  0  0  0
 14 19  1  0  0  0  0
 15 16  2  0  0  0  0
 16 17  1  0  0  0  0
 17 18  1  0  0  0  0
 17 20  2  0  0  0  0
 18 19  2  0  0  0  0
 20 21  1  0  0  0  0
 20 24  1  0  0  0  0
 21 22  1  0  0  0  0
 22 23  1  0  0  0  0
 22 25  1  0  0  0  0
 23 24  2  0  0  0  0
 26 27  1  0  0  0  0
 27 28  1  0  0  0  0
 27 29  1  0  0  0  0
 27 30  1  0  0  0  0
  2 31  1  0  0  0  0
  2 32  1  0  0  0  0
  3 33  1  0  0  0  0
  4 34  1  0  0  0  0
 10 35  1  0  0  0  0
 15 36  1  0  0  0  0
 16 37  1  0  0  0  0
 18 38  1  0  0  0  0
 19 39  1  0  0  0  0
 21 40  1  0  0  0  0
 21 41  1  0  0  0  0
 24 42  1  0  0  0  0
 25 43  1  0  0  0  0
 25 44  1  0  0  0  0
 25 45  1  0  0  0  0
 26 46  1  0  0  0  0
 26 47  1  0  0  0  0
 28 48  1  0  0  0  0
 28 49  1  0  0  0  0
M  END
> <Name>
34

> <IC50[uM]>
0.007

$$$$
34
  -OEChem-05192314333D
 Structure written by MMmdl.
 49 53  0     1  0  0  0  0  0999 V2000
   -6.4024   12.3461  -12.0147 C   0  0  3  0  0  0  0  0  0  0  0  0
   -6.5825   11.7781  -10.7426 C   0  0  0  0  0  0  0  0  0  0  0  0
   -7.7347   10.5660  -13.0395 C   0  0  0  0  0  0  0  0  0  0  0  0
   -6.9966   11.7550  -13.1361 C   0  0  0  0  0  0  0  0  0  0  0  0
   -7.8265    9.9936  -11.7632 C   0  0  0  0  0  0  0  0  0  0  0  0
   -7.2675   10.6024  -10.6199 C   0  0  0  0  0  0  0  0  0  0  0  0
   -7.6234    9.7358   -9.5255 C   0  0  0  0  0  0  0  0  0  0  0  0
   -8.2741    8.7136   -9.9910 N   0  0  0  0  0  0  0  0  0  0  0  0
   -8.4130    8.8453  -11.3044 N   0  0  0  0  0  0  0  0  0  0  0  0
   -7.3406    9.8933   -8.0338 C   0  0  0  0  0  0  0  0  0  0  0  0
   -4.5538   13.8407  -11.3379 N   0  0  0  0  0  0  0  0  0  0  0  0
   -5.6005   13.6490  -12.1765 C   0  0  0  0  0  0  0  0  0  0  0  0
   -5.9196   14.4808  -13.0199 O   0  0  0  0  0  0  0  0  0  0  0  0
   -5.9590   10.4855   -7.7382 C   0  0  0  0  0  0  0  0  0  0  0  0
   -4.8075    9.7636   -8.0570 C   0  0  0  0  0  0  0  0  0  0  0  0
   -3.5513   10.3099   -7.8070 C   0  0  0  0  0  0  0  0  0  0  0  0
   -3.4406   11.5840   -7.2355 C   0  0  0  0  0  0  0  0  0  0  0  0
   -4.5915   12.3007   -6.9126 C   0  0  0  0  0  0  0  0  0  0  0  0
   -5.8470   11.7538   -7.1581 C   0  0  0  0  0  0  0  0  0  0  0  0
   -2.0979   12.1738   -6.9691 C   0  0  0  0  0  0  0  0  0  0  0  0
   -1.7666   13.4166   -6.4372 C   0  0  0  0  0  0  0  0  0  0  0  0
   -0.4273   13.4768   -6.3903 N   0  0  0  0  0  0  0  0  0  0  0  0
    0.1744   12.4049   -6.8247 N   0  0  0  0  0  0  0  0  0  0  0  0
   -0.8040   11.5944   -7.2012 C   0  0  0  0  0  0  0  0  0  0  0  0
    0.3946   14.5874   -5.9129 C   0  0  0  0  0  0  0  0  0  0  0  0
   -4.1104   13.1199  -10.1564 C   0  0  0  0  0  0  0  0  0  0  0  0
   -3.1547   14.2611   -9.9254 C   0  0  0  0  0  0  0  0  0  0  0  0
   -3.7686   15.0454  -11.0979 C   0  0  0  0  0  0  0  0  0  0  0  0
   -3.3454   14.7999   -8.7258 F   0  0  0  0  0  0  0  0  0  0  0  0
   -1.8808   13.9286  -10.0717 F   0  0  0  0  0  0  0  0  0  0  0  0
   -5.4901   11.7507  -12.1668 H   0  0  0  0  0  0  0  0  0  0  0  0
   -6.1820   12.2677   -9.8672 H   0  0  0  0  0  0  0  0  0  0  0  0
   -8.2062   10.1164  -13.9009 H   0  0  0  0  0  0  0  0  0  0  0  0
   -6.8838   12.2269  -14.1010 H   0  0  0  0  0  0  0  0  0  0  0  0
   -8.0445    9.6149   -7.2634 H   0  0  0  0  0  0  0  0  0  0  0  0
   -4.8910    8.7811   -8.4977 H   0  0  0  0  0  0  0  0  0  0  0  0
   -2.6611    9.7505   -8.0541 H   0  0  0  0  0  0  0  0  0  0  0  0
   -3.4404   12.0349   -8.2388 H   0  0  0  0  0  0  0  0  0  0  0  0
   -4.5085   13.2827   -6.4709 H   0  0  0  0  0  0  0  0  0  0  0  0
   -6.7367   12.3092   -6.9005 H   0  0  0  0  0  0  0  0  0  0  0  0
   -2.4562   14.1858   -6.1223 H   0  0  0  0  0  0  0  0  0  0  0  0
   -0.6475   10.6160   -7.6308 H   0  0  0  0  0  0  0  0  0  0  0  0
    1.4583   14.3222   -6.0031 H   0  0  0  0  0  0  0  0  0  0  0  0
    0.1876   15.4829   -6.5173 H   0  0  0  0  0  0  0  0  0  0  0  0
    0.1562   14.7932   -4.8589 H   0  0  0  0  0  0  0  0  0  0  0  0
   -4.8767   12.9944   -9.3773 H   0  0  0  0  0  0  0  0  0  0  0  0
   -3.6317   12.1505  -10.3594 H   0  0  0  0  0  0  0  0  0  0  0  0
   -3.0652   15.3118  -11.9005 H   0  0  0  0  0  0  0  0  0  0  0  0
   -4.3514   15.9332  -10.8114 H   0  0  0  0  0  0  0  0  0  0  0  0
  1  2  1  0  0  0  0
  1  4  1  0  0  0  0
  1 12  1  0  0  0  0
  2  6  2  0  0  0  0
  3  4  2  0  0  0  0
  3  5  1  0  0  0  0
  5  6  1  0  0  0  0
  5  9  2  0  0  0  0
  6  7  1  0  0  0  0
  7  8  2  0  0  0  0
  7 10  1  0  0  0  0
  8  9  1  0  0  0  0
 10 14  2  0  0  0  0
 11 12  1  0  0  0  0
 11 26  1  0  0  0  0
 11 28  1  0  0  0  0
 12 13  2  0  0  0  0
 14 15  1  0  0  0  0
 14 19  1  0  0  0  0
 15 16  2  0  0  0  0
 16 17  1  0  0  0  0
 17 18  1  0  0  0  0
 17 20  1  0  0  0  0
 18 19  2  0  0  0  0
 20 21  2  0  0  0  0
 20 24  1  0  0  0  0
 21 22  1  0  0  0  0
 22 23  1  0  0  0  0
 22 25  1  0  0  0  0
 23 24  2  0  0  0  0
 26 27  1  0  0  0  0
 27 28  1  0  0  0  0
 27 29  1  0  0  0  0
 27 30  1  0  0  0  0
  1 31  1  0  0  0  0
  2 32  1  0  0  0  0
  3 33  1  0  0  0  0
  4 34  1  0  0  0  0
 10 35  1  0  0  0  0
 15 36  1  0  0  0  0
 16 37  1  0  0  0  0
 17 38  1  0  0  0  0
 18 39  1  0  0  0  0
 19 40  1  0  0  0  0
 21 41  1  0  0  0  0
 24 42  1  0  0  0  0
 25 43  1  0  0  0  0
 25 44  1  0  0  0  0
 25 45  1  0  0  0  0
 26 46  1  0  0  0  0
 26 47  1  0  0  0  0
 28 48  1  0  0  0  0
 28 49  1  0  0  0  0
M  END
> <Name>
34

> <IC50[uM]>
0.007

$$$$
34
  -OEChem-05192314333D
 Structure written by MMmdl.
 49 53  0     1  0  0  0  0  0999 V2000
   -6.4024   12.3461  -12.0147 C   0  0  0  0  0  0  0  0  0  0  0  0
   -6.5825   11.7781  -10.7426 C   0  0  0  0  0  0  0  0  0  0  0  0
   -7.7347   10.5660  -13.0395 C   0  0  0  0  0  0  0  0  0  0  0  0
   -6.9966   11.7550  -13.1361 C   0  0  0  0  0  0  0  0  0  0  0  0
   -7.8265    9.9936  -11.7632 C   0  0  0  0  0  0  0  0  0  0  0  0
   -7.2675   10.6024  -10.6199 C   0  0  3  0  0  0  0  0  0  0  0  0
   -7.6234    9.7358   -9.5255 C   0  0  0  0  0  0  0  0  0  0  0  0
   -8.2741    8.7136   -9.9910 N   0  0  0  0  0  0  0  0  0  0  0  0
   -8.4130    8.8453  -11.3044 N   0  0  0  0  0  0  0  0  0  0  0  0
   -7.3406    9.8933   -8.0338 C   0  0  0  0  0  0  0  0  0  0  0  0
   -4.5538   13.8407  -11.3379 N   0  0  0  0  0  0  0  0  0  0  0  0
   -5.6005   13.6490  -12.1765 C   0  0  0  0  0  0  0  0  0  0  0  0
   -5.9196   14.4808  -13.0199 O   0  0  0  0  0  0  0  0  0  0  0  0
   -5.9590   10.4855   -7.7382 C   0  0  0  0  0  0  0  0  0  0  0  0
   -4.8075    9.7636   -8.0570 C   0  0  0  0  0  0  0  0  0  0  0  0
   -3.5513   10.3099   -7.8070 C   0  0  0  0  0  0  0  0  0  0  0  0
   -3.4406   11.5840   -7.2355 C   0  0  0  0  0  0  0  0  0  0  0  0
   -4.5915   12.3007   -6.9126 C   0  0  0  0  0  0  0  0  0  0  0  0
   -5.8470   11.7538   -7.1581 C   0  0  0  0  0  0  0  0  0  0  0  0
   -2.0979   12.1738   -6.9691 C   0  0  0  0  0  0  0  0  0  0  0  0
   -1.7666   13.4166   -6.4372 C   0  0  0  0  0  0  0  0  0  0  0  0
   -0.4273   13.4768   -6.3903 N   0  0  0  0  0  0  0  0  0  0  0  0
    0.1744   12.4049   -6.8247 N   0  0  0  0  0  0  0  0  0  0  0  0
   -0.8040   11.5944   -7.2012 C   0  0  0  0  0  0  0  0  0  0  0  0
    0.3946   14.5874   -5.9129 C   0  0  0  0  0  0  0  0  0  0  0  0
   -4.1104   13.1199  -10.1564 C   0  0  0  0  0  0  0  0  0  0  0  0
   -3.1547   14.2611   -9.9254 C   0  0  0  0  0  0  0  0  0  0  0  0
   -3.7686   15.0454  -11.0979 C   0  0  0  0  0  0  0  0  0  0  0  0
   -3.3454   14.7999   -8.7258 F   0  0  0  0  0  0  0  0  0  0  0  0
   -1.8808   13.9286  -10.0717 F   0  0  0  0  0  0  0  0  0  0  0  0
   -6.1820   12.2677   -9.8672 H   0  0  0  0  0  0  0  0  0  0  0  0
   -8.2062   10.1164  -13.9009 H   0  0  0  0  0  0  0  0  0  0  0  0
   -6.8838   12.2269  -14.1010 H   0  0  0  0  0  0  0  0  0  0  0  0
   -6.3352   10.0381  -10.7695 H   0  0  0  0  0  0  0  0  0  0  0  0
   -8.0445    9.6149   -7.2634 H   0  0  0  0  0  0  0  0  0  0  0  0
   -4.8910    8.7811   -8.4977 H   0  0  0  0  0  0  0  0  0  0  0  0
   -2.6611    9.7505   -8.0541 H   0  0  0  0  0  0  0  0  0  0  0  0
   -3.4404   12.0349   -8.2388 H   0  0  0  0  0  0  0  0  0  0  0  0
   -4.5085   13.2827   -6.4709 H   0  0  0  0  0  0  0  0  0  0  0  0
   -6.7367   12.3092   -6.9005 H   0  0  0  0  0  0  0  0  0  0  0  0
   -2.4562   14.1858   -6.1223 H   0  0  0  0  0  0  0  0  0  0  0  0
   -0.6475   10.6160   -7.6308 H   0  0  0  0  0  0  0  0  0  0  0  0
    1.4583   14.3222   -6.0031 H   0  0  0  0  0  0  0  0  0  0  0  0
    0.1876   15.4829   -6.5173 H   0  0  0  0  0  0  0  0  0  0  0  0
    0.1562   14.7932   -4.8589 H   0  0  0  0  0  0  0  0  0  0  0  0
   -4.8767   12.9944   -9.3773 H   0  0  0  0  0  0  0  0  0  0  0  0
   -3.6317   12.1505  -10.3594 H   0  0  0  0  0  0  0  0  0  0  0  0
   -3.0652   15.3118  -11.9005 H   0  0  0  0  0  0  0  0  0  0  0  0
   -4.3514   15.9332  -10.8114 H   0  0  0  0  0  0  0  0  0  0  0  0
  1  2  2  0  0  0  0
  1  4  1  0  0  0  0
  1 12  1  0  0  0  0
  2  6  1  0  0  0  0
  3  4  2  0  0  0  0
  3  5  1  0  0  0  0
  5  6  1  0  0  0  0
  5  9  2  0  0  0  0
  6  7  1  0  0  0  0
  7  8  2  0  0  0  0
  7 10  1  0  0  0  0
  8  9  1  0  0  0  0
 10 14  2  0  0  0  0
 11 12  1  0  0  0  0
 11 26  1  0  0  0  0
 11 28  1  0  0  0  0
 12 13  2  0  0  0  0
 14 15  1  0  0  0  0
 14 19  1  0  0  0  0
 15 16  2  0  0  0  0
 16 17  1  0  0  0  0
 17 18  1  0  0  0  0
 17 20  1  0  0  0  0
 18 19  2  0  0  0  0
 20 21  2  0  0  0  0
 20 24  1  0  0  0  0
 21 22  1  0  0  0  0
 22 23  1  0  0  0  0
 22 25  1  0  0  0  0
 23 24  2  0  0  0  0
 26 27  1  0  0  0  0
 27 28  1  0  0  0  0
 27 29  1  0  0  0  0
 27 30  1  0  0  0  0
  2 31  1  0  0  0  0
  3 32  1  0  0  0  0
  4 33  1  0  0  0  0
  6 34  1  0  0  0  0
 10 35  1  0  0  0  0
 15 36  1  0  0  0  0
 16 37  1  0  0  0  0
 17 38  1  0  0  0  0
 18 39  1  0  0  0  0
 19 40  1  0  0  0  0
 21 41  1  0  0  0  0
 24 42  1  0  0  0  0
 25 43  1  0  0  0  0
 25 44  1  0  0  0  0
 25 45  1  0  0  0  0
 26 46  1  0  0  0  0
 26 47  1  0  0  0  0
 28 48  1  0  0  0  0
 28 49  1  0  0  0  0
M  END
> <Name>
34

> <IC50[uM]>
0.007

$$$$
34
  -OEChem-05192314333D
 Structure written by MMmdl.
 49 53  0     0  0  0  0  0  0999 V2000
   -6.4024   12.3461  -12.0147 C   0  0  0  0  0  0  0  0  0  0  0  0
   -6.5825   11.7781  -10.7426 C   0  0  0  0  0  0  0  0  0  0  0  0
   -7.7347   10.5660  -13.0395 C   0  0  0  0  0  0  0  0  0  0  0  0
   -6.9966   11.7550  -13.1361 C   0  0  0  0  0  0  0  0  0  0  0  0
   -7.8265    9.9936  -11.7632 C   0  0  0  0  0  0  0  0  0  0  0  0
   -7.2675   10.6024  -10.6199 C   0  0  0  0  0  0  0  0  0  0  0  0
   -7.6234    9.7358   -9.5255 C   0  0  0  0  0  0  0  0  0  0  0  0
   -8.2741    8.7136   -9.9910 N   0  0  0  0  0  0  0  0  0  0  0  0
   -8.4130    8.8453  -11.3044 N   0  0  0  0  0  0  0  0  0  0  0  0
   -7.3406    9.8933   -8.0338 C   0  0  0  0  0  0  0  0  0  0  0  0
   -4.5538   13.8407  -11.3379 N   0  0  0  0  0  0  0  0  0  0  0  0
   -5.6005   13.6490  -12.1765 C   0  0  0  0  0  0  0  0  0  0  0  0
   -5.9196   14.4808  -13.0199 O   0  0  0  0  0  0  0  0  0  0  0  0
   -5.9590   10.4855   -7.7382 C   0  0  0  0  0  0  0  0  0  0  0  0
   -4.8075    9.7636   -8.0570 C   0  0  0  0  0  0  0  0  0  0  0  0
   -3.5513   10.3099   -7.8070 C   0  0  0  0  0  0  0  0  0  0  0  0
   -3.4406   11.5840   -7.2355 C   0  0  0  0  0  0  0  0  0  0  0  0
   -4.5915   12.3007   -6.9126 C   0  0  0  0  0  0  0  0  0  0  0  0
   -5.8470   11.7538   -7.1581 C   0  0  0  0  0  0  0  0  0  0  0  0
   -2.0979   12.1738   -6.9691 C   0  0  0  0  0  0  0  0  0  0  0  0
   -1.7666   13.4166   -6.4372 C   0  0  0  0  0  0  0  0  0  0  0  0
   -0.4273   13.4768   -6.3903 N   0  0  0  0  0  0  0  0  0  0  0  0
    0.1744   12.4049   -6.8247 N   0  0  0  0  0  0  0  0  0  0  0  0
   -0.8040   11.5944   -7.2012 C   0  0  0  0  0  0  0  0  0  0  0  0
    0.3946   14.5874   -5.9129 C   0  0  0  0  0  0  0  0  0  0  0  0
   -4.1104   13.1199  -10.1564 C   0  0  0  0  0  0  0  0  0  0  0  0
   -3.1547   14.2611   -9.9254 C   0  0  0  0  0  0  0  0  0  0  0  0
   -3.7686   15.0454  -11.0979 C   0  0  0  0  0  0  0  0  0  0  0  0
   -3.3454   14.7999   -8.7258 F   0  0  0  0  0  0  0  0  0  0  0  0
   -1.8808   13.9286  -10.0717 F   0  0  0  0  0  0  0  0  0  0  0  0
   -6.1820   12.2677   -9.8672 H   0  0  0  0  0  0  0  0  0  0  0  0
   -8.7570   10.7771  -13.3864 H   0  0  0  0  0  0  0  0  0  0  0  0
   -7.2669    9.8262  -13.7057 H   0  0  0  0  0  0  0  0  0  0  0  0
   -6.8838   12.2269  -14.1010 H   0  0  0  0  0  0  0  0  0  0  0  0
   -8.0445    9.6149   -7.2634 H   0  0  0  0  0  0  0  0  0  0  0  0
   -4.8910    8.7811   -8.4977 H   0  0  0  0  0  0  0  0  0  0  0  0
   -2.6611    9.7505   -8.0541 H   0  0  0  0  0  0  0  0  0  0  0  0
   -3.4404   12.0349   -8.2388 H   0  0  0  0  0  0  0  0  0  0  0  0
   -4.5085   13.2827   -6.4709 H   0  0  0  0  0  0  0  0  0  0  0  0
   -6.7367   12.3092   -6.9005 H   0  0  0  0  0  0  0  0  0  0  0  0
   -2.4562   14.1858   -6.1223 H   0  0  0  0  0  0  0  0  0  0  0  0
   -0.6475   10.6160   -7.6308 H   0  0  0  0  0  0  0  0  0  0  0  0
    1.4583   14.3222   -6.0031 H   0  0  0  0  0  0  0  0  0  0  0  0
    0.1876   15.4829   -6.5173 H   0  0  0  0  0  0  0  0  0  0  0  0
    0.1562   14.7932   -4.8589 H   0  0  0  0  0  0  0  0  0  0  0  0
   -4.8767   12.9944   -9.3773 H   0  0  0  0  0  0  0  0  0  0  0  0
   -3.6317   12.1505  -10.3594 H   0  0  0  0  0  0  0  0  0  0  0  0
   -3.0652   15.3118  -11.9005 H   0  0  0  0  0  0  0  0  0  0  0  0
   -4.3514   15.9332  -10.8114 H   0  0  0  0  0  0  0  0  0  0  0  0
  1  2  1  0  0  0  0
  1  4  2  0  0  0  0
  1 12  1  0  0  0  0
  2  6  2  0  0  0  0
  3  4  1  0  0  0  0
  3  5  1  0  0  0  0
  5  6  1  0  0  0  0
  5  9  2  0  0  0  0
  6  7  1  0  0  0  0
  7  8  2  0  0  0  0
  7 10  1  0  0  0  0
  8  9  1  0  0  0  0
 10 14  2  0  0  0  0
 11 12  1  0  0  0  0
 11 26  1  0  0  0  0
 11 28  1  0  0  0  0
 12 13  2  0  0  0  0
 14 15  1  0  0  0  0
 14 19  1  0  0  0  0
 15 16  2  0  0  0  0
 16 17  1  0  0  0  0
 17 18  1  0  0  0  0
 17 20  1  0  0  0  0
 18 19  2  0  0  0  0
 20 21  2  0  0  0  0
 20 24  1  0  0  0  0
 21 22  1  0  0  0  0
 22 23  1  0  0  0  0
 22 25  1  0  0  0  0
 23 24  2  0  0  0  0
 26 27  1  0  0  0  0
 27 28  1  0  0  0  0
 27 29  1  0  0  0  0
 27 30  1  0  0  0  0
  2 31  1  0  0  0  0
  3 32  1  0  0  0  0
  3 33  1  0  0  0  0
  4 34  1  0  0  0  0
 10 35  1  0  0  0  0
 15 36  1  0  0  0  0
 16 37  1  0  0  0  0
 17 38  1  0  0  0  0
 18 39  1  0  0  0  0
 19 40  1  0  0  0  0
 21 41  1  0  0  0  0
 24 42  1  0  0  0  0
 25 43  1  0  0  0  0
 25 44  1  0  0  0  0
 25 45  1  0  0  0  0
 26 46  1  0  0  0  0
 26 47  1  0  0  0  0
 28 48  1  0  0  0  0
 28 49  1  0  0  0  0
M  END
> <Name>
34

> <IC50[uM]>
0.007

$$$$
34
  -OEChem-05192314333D
 Structure written by MMmdl.
 49 53  0     1  0  0  0  0  0999 V2000
   -6.4024   12.3461  -12.0147 C   0  0  3  0  0  0  0  0  0  0  0  0
   -6.5825   11.7781  -10.7426 C   0  0  0  0  0  0  0  0  0  0  0  0
   -7.7347   10.5660  -13.0395 C   0  0  0  0  0  0  0  0  0  0  0  0
   -6.9966   11.7550  -13.1361 C   0  0  0  0  0  0  0  0  0  0  0  0
   -7.8265    9.9936  -11.7632 C   0  0  0  0  0  0  0  0  0  0  0  0
   -7.2675   10.6024  -10.6199 C   0  0  0  0  0  0  0  0  0  0  0  0
   -7.6234    9.7358   -9.5255 C   0  0  0  0  0  0  0  0  0  0  0  0
   -8.2741    8.7136   -9.9910 N   0  0  0  0  0  0  0  0  0  0  0  0
   -8.4130    8.8453  -11.3044 N   0  0  0  0  0  0  0  0  0  0  0  0
   -7.3406    9.8933   -8.0338 C   0  0  0  0  0  0  0  0  0  0  0  0
   -4.5538   13.8407  -11.3379 N   0  0  0  0  0  0  0  0  0  0  0  0
   -5.6005   13.6490  -12.1765 C   0  0  0  0  0  0  0  0  0  0  0  0
   -5.9196   14.4808  -13.0199 O   0  0  0  0  0  0  0  0  0  0  0  0
   -5.9590   10.4855   -7.7382 C   0  0  0  0  0  0  0  0  0  0  0  0
   -4.8075    9.7636   -8.0570 C   0  0  0  0  0  0  0  0  0  0  0  0
   -3.5513   10.3099   -7.8070 C   0  0  0  0  0  0  0  0  0  0  0  0
   -3.4406   11.5840   -7.2355 C   0  0  0  0  0  0  0  0  0  0  0  0
   -4.5915   12.3007   -6.9126 C   0  0  0  0  0  0  0  0  0  0  0  0
   -5.8470   11.7538   -7.1581 C   0  0  0  0  0  0  0  0  0  0  0  0
   -2.0979   12.1738   -6.9691 C   0  0  0  0  0  0  0  0  0  0  0  0
   -1.7666   13.4166   -6.4372 C   0  0  0  0  0  0  0  0  0  0  0  0
   -0.4273   13.4768   -6.3903 N   0  0  0  0  0  0  0  0  0  0  0  0
    0.1744   12.4049   -6.8247 N   0  0  0  0  0  0  0  0  0  0  0  0
   -0.8040   11.5944   -7.2012 C   0  0  0  0  0  0  0  0  0  0  0  0
    0.3946   14.5874   -5.9129 C   0  0  0  0  0  0  0  0  0  0  0  0
   -4.1104   13.1199  -10.1564 C   0  0  0  0  0  0  0  0  0  0  0  0
   -3.1547   14.2611   -9.9254 C   0  0  0  0  0  0  0  0  0  0  0  0
   -3.7686   15.0454  -11.0979 C   0  0  0  0  0  0  0  0  0  0  0  0
   -3.3454   14.7999   -8.7258 F   0  0  0  0  0  0  0  0  0  0  0  0
   -1.8808   13.9286  -10.0717 F   0  0  0  0  0  0  0  0  0  0  0  0
   -5.4901   11.7507  -12.1668 H   0  0  0  0  0  0  0  0  0  0  0  0
   -6.1820   12.2677   -9.8672 H   0  0  0  0  0  0  0  0  0  0  0  0
   -8.2062   10.1164  -13.9009 H   0  0  0  0  0  0  0  0  0  0  0  0
   -6.8838   12.2269  -14.1010 H   0  0  0  0  0  0  0  0  0  0  0  0
   -8.0445    9.6149   -7.2634 H   0  0  0  0  0  0  0  0  0  0  0  0
   -4.8910    8.7811   -8.4977 H   0  0  0  0  0  0  0  0  0  0  0  0
   -2.6611    9.7505   -8.0541 H   0  0  0  0  0  0  0  0  0  0  0  0
   -4.5085   13.2827   -6.4709 H   0  0  0  0  0  0  0  0  0  0  0  0
   -6.3733   12.4542   -7.8233 H   0  0  0  0  0  0  0  0  0  0  0  0
   -6.3670   11.7066   -6.1899 H   0  0  0  0  0  0  0  0  0  0  0  0
   -2.4562   14.1858   -6.1223 H   0  0  0  0  0  0  0  0  0  0  0  0
   -0.6475   10.6160   -7.6308 H   0  0  0  0  0  0  0  0  0  0  0  0
    1.4583   14.3222   -6.0031 H   0  0  0  0  0  0  0  0  0  0  0  0
    0.1876   15.4829   -6.5173 H   0  0  0  0  0  0  0  0  0  0  0  0
    0.1562   14.7932   -4.8589 H   0  0  0  0  0  0  0  0  0  0  0  0
   -4.8767   12.9944   -9.3773 H   0  0  0  0  0  0  0  0  0  0  0  0
   -3.6317   12.1505  -10.3594 H   0  0  0  0  0  0  0  0  0  0  0  0
   -3.0652   15.3118  -11.9005 H   0  0  0  0  0  0  0  0  0  0  0  0
   -4.3514   15.9332  -10.8114 H   0  0  0  0  0  0  0  0  0  0  0  0
  1  2  1  0  0  0  0
  1  4  1  0  0  0  0
  1 12  1  0  0  0  0
  2  6  2  0  0  0  0
  3  4  2  0  0  0  0
  3  5  1  0  0  0  0
  5  6  1  0  0  0  0
  5  9  2  0  0  0  0
  6  7  1  0  0  0  0
  7  8  2  0  0  0  0
  7 10  1  0  0  0  0
  8  9  1  0  0  0  0
 10 14  2  3  0  0  0
 11 12  1  0  0  0  0
 11 26  1  0  0  0  0
 11 28  1  0  0  0  0
 12 13  2  0  0  0  0
 14 15  1  0  0  0  0
 14 19  1  0  0  0  0
 15 16  2  0  0  0  0
 16 17  1  0  0  0  0
 17 18  2  0  0  0  0
 17 20  1  0  0  0  0
 18 19  1  0  0  0  0
 20 21  2  0  0  0  0
 20 24  1  0  0  0  0
 21 22  1  0  0  0  0
 22 23  1  0  0  0  0
 22 25  1  0  0  0  0
 23 24  2  0  0  0  0
 26 27  1  0  0  0  0
 27 28  1  0  0  0  0
 27 29  1  0  0  0  0
 27 30  1  0  0  0  0
  1 31  1  0  0  0  0
  2 32  1  0  0  0  0
  3 33  1  0  0  0  0
  4 34  1  0  0  0  0
 10 35  1  0  0  0  0
 15 36  1  0  0  0  0
 16 37  1  0  0  0  0
 18 38  1  0  0  0  0
 19 39  1  0  0  0  0
 19 40  1  0  0  0  0
 21 41  1  0  0  0  0
 24 42  1  0  0  0  0
 25 43  1  0  0  0  0
 25 44  1  0  0  0  0
 25 45  1  0  0  0  0
 26 46  1  0  0  0  0
 26 47  1  0  0  0  0
 28 48  1  0  0  0  0
 28 49  1  0  0  0  0
M  END
> <Name>
34

> <IC50[uM]>
0.007

$$$$
34
  -OEChem-05192314333D
 Structure written by MMmdl.
 49 53  0     1  0  0  0  0  0999 V2000
   -6.4024   12.3461  -12.0147 C   0  0  0  0  0  0  0  0  0  0  0  0
   -6.5825   11.7781  -10.7426 C   0  0  0  0  0  0  0  0  0  0  0  0
   -7.7347   10.5660  -13.0395 C   0  0  0  0  0  0  0  0  0  0  0  0
   -6.9966   11.7550  -13.1361 C   0  0  0  0  0  0  0  0  0  0  0  0
   -7.8265    9.9936  -11.7632 C   0  0  0  0  0  0  0  0  0  0  0  0
   -7.2675   10.6024  -10.6199 C   0  0  3  0  0  0  0  0  0  0  0  0
   -7.6234    9.7358   -9.5255 C   0  0  0  0  0  0  0  0  0  0  0  0
   -8.2741    8.7136   -9.9910 N   0  0  0  0  0  0  0  0  0  0  0  0
   -8.4130    8.8453  -11.3044 N   0  0  0  0  0  0  0  0  0  0  0  0
   -7.3406    9.8933   -8.0338 C   0  0  0  0  0  0  0  0  0  0  0  0
   -4.5538   13.8407  -11.3379 N   0  0  0  0  0  0  0  0  0  0  0  0
   -5.6005   13.6490  -12.1765 C   0  0  0  0  0  0  0  0  0  0  0  0
   -5.9196   14.4808  -13.0199 O   0  0  0  0  0  0  0  0  0  0  0  0
   -5.9590   10.4855   -7.7382 C   0  0  0  0  0  0  0  0  0  0  0  0
   -4.8075    9.7636   -8.0570 C   0  0  0  0  0  0  0  0  0  0  0  0
   -3.5513   10.3099   -7.8070 C   0  0  0  0  0  0  0  0  0  0  0  0
   -3.4406   11.5840   -7.2355 C   0  0  0  0  0  0  0  0  0  0  0  0
   -4.5915   12.3007   -6.9126 C   0  0  0  0  0  0  0  0  0  0  0  0
   -5.8470   11.7538   -7.1581 C   0  0  0  0  0  0  0  0  0  0  0  0
   -2.0979   12.1738   -6.9691 C   0  0  0  0  0  0  0  0  0  0  0  0
   -1.7666   13.4166   -6.4372 C   0  0  0  0  0  0  0  0  0  0  0  0
   -0.4273   13.4768   -6.3903 N   0  0  0  0  0  0  0  0  0  0  0  0
    0.1744   12.4049   -6.8247 N   0  0  0  0  0  0  0  0  0  0  0  0
   -0.8040   11.5944   -7.2012 C   0  0  0  0  0  0  0  0  0  0  0  0
    0.3946   14.5874   -5.9129 C   0  0  0  0  0  0  0  0  0  0  0  0
   -4.1104   13.1199  -10.1564 C   0  0  0  0  0  0  0  0  0  0  0  0
   -3.1547   14.2611   -9.9254 C   0  0  0  0  0  0  0  0  0  0  0  0
   -3.7686   15.0454  -11.0979 C   0  0  0  0  0  0  0  0  0  0  0  0
   -3.3454   14.7999   -8.7258 F   0  0  0  0  0  0  0  0  0  0  0  0
   -1.8808   13.9286  -10.0717 F   0  0  0  0  0  0  0  0  0  0  0  0
   -6.1820   12.2677   -9.8672 H   0  0  0  0  0  0  0  0  0  0  0  0
   -8.2062   10.1164  -13.9009 H   0  0  0  0  0  0  0  0  0  0  0  0
   -6.8838   12.2269  -14.1010 H   0  0  0  0  0  0  0  0  0  0  0  0
   -6.3352   10.0381  -10.7695 H   0  0  0  0  0  0  0  0  0  0  0  0
   -8.0445    9.6149   -7.2634 H   0  0  0  0  0  0  0  0  0  0  0  0
   -4.8910    8.7811   -8.4977 H   0  0  0  0  0  0  0  0  0  0  0  0
   -2.6611    9.7505   -8.0541 H   0  0  0  0  0  0  0  0  0  0  0  0
   -4.5085   13.2827   -6.4709 H   0  0  0  0  0  0  0  0  0  0  0  0
   -6.3733   12.4542   -7.8233 H   0  0  0  0  0  0  0  0  0  0  0  0
   -6.3670   11.7066   -6.1899 H   0  0  0  0  0  0  0  0  0  0  0  0
   -2.4562   14.1858   -6.1223 H   0  0  0  0  0  0  0  0  0  0  0  0
   -0.6475   10.6160   -7.6308 H   0  0  0  0  0  0  0  0  0  0  0  0
    1.4583   14.3222   -6.0031 H   0  0  0  0  0  0  0  0  0  0  0  0
    0.1876   15.4829   -6.5173 H   0  0  0  0  0  0  0  0  0  0  0  0
    0.1562   14.7932   -4.8589 H   0  0  0  0  0  0  0  0  0  0  0  0
   -4.8767   12.9944   -9.3773 H   0  0  0  0  0  0  0  0  0  0  0  0
   -3.6317   12.1505  -10.3594 H   0  0  0  0  0  0  0  0  0  0  0  0
   -3.0652   15.3118  -11.9005 H   0  0  0  0  0  0  0  0  0  0  0  0
   -4.3514   15.9332  -10.8114 H   0  0  0  0  0  0  0  0  0  0  0  0
  1  2  2  0  0  0  0
  1  4  1  0  0  0  0
  1 12  1  0  0  0  0
  2  6  1  0  0  0  0
  3  4  2  0  0  0  0
  3  5  1  0  0  0  0
  5  6  1  0  0  0  0
  5  9  2  0  0  0  0
  6  7  1  0  0  0  0
  7  8  2  0  0  0  0
  7 10  1  0  0  0  0
  8  9  1  0  0  0  0
 10 14  2  3  0  0  0
 11 12  1  0  0  0  0
 11 26  1  0  0  0  0
 11 28  1  0  0  0  0
 12 13  2  0  0  0  0
 14 15  1  0  0  0  0
 14 19  1  0  0  0  0
 15 16  2  0  0  0  0
 16 17  1  0  0  0  0
 17 18  2  0  0  0  0
 17 20  1  0  0  0  0
 18 19  1  0  0  0  0
 20 21  2  0  0  0  0
 20 24  1  0  0  0  0
 21 22  1  0  0  0  0
 22 23  1  0  0  0  0
 22 25  1  0  0  0  0
 23 24  2  0  0  0  0
 26 27  1  0  0  0  0
 27 28  1  0  0  0  0
 27 29  1  0  0  0  0
 27 30  1  0  0  0  0
  2 31  1  0  0  0  0
  3 32  1  0  0  0  0
  4 33  1  0  0  0  0
  6 34  1  0  0  0  0
 10 35  1  0  0  0  0
 15 36  1  0  0  0  0
 16 37  1  0  0  0  0
 18 38  1  0  0  0  0
 19 39  1  0  0  0  0
 19 40  1  0  0  0  0
 21 41  1  0  0  0  0
 24 42  1  0  0  0  0
 25 43  1  0  0  0  0
 25 44  1  0  0  0  0
 25 45  1  0  0  0  0
 26 46  1  0  0  0  0
 26 47  1  0  0  0  0
 28 48  1  0  0  0  0
 28 49  1  0  0  0  0
M  END
> <Name>
34

> <IC50[uM]>
0.007

$$$$
34
  -OEChem-05192314333D
 Structure written by MMmdl.
 49 53  0     0  0  0  0  0  0999 V2000
   -6.4024   12.3461  -12.0147 C   0  0  0  0  0  0  0  0  0  0  0  0
   -6.5825   11.7781  -10.7426 C   0  0  0  0  0  0  0  0  0  0  0  0
   -7.7347   10.5660  -13.0395 C   0  0  0  0  0  0  0  0  0  0  0  0
   -6.9966   11.7550  -13.1361 C   0  0  0  0  0  0  0  0  0  0  0  0
   -7.8265    9.9936  -11.7632 C   0  0  0  0  0  0  0  0  0  0  0  0
   -7.2675   10.6024  -10.6199 C   0  0  0  0  0  0  0  0  0  0  0  0
   -7.6234    9.7358   -9.5255 C   0  0  0  0  0  0  0  0  0  0  0  0
   -8.2741    8.7136   -9.9910 N   0  0  0  0  0  0  0  0  0  0  0  0
   -8.4130    8.8453  -11.3044 N   0  0  0  0  0  0  0  0  0  0  0  0
   -7.3406    9.8933   -8.0338 C   0  0  0  0  0  0  0  0  0  0  0  0
   -4.5538   13.8407  -11.3379 N   0  0  0  0  0  0  0  0  0  0  0  0
   -5.6005   13.6490  -12.1765 C   0  0  0  0  0  0  0  0  0  0  0  0
   -5.9196   14.4808  -13.0199 O   0  0  0  0  0  0  0  0  0  0  0  0
   -5.9590   10.4855   -7.7382 C   0  0  0  0  0  0  0  0  0  0  0  0
   -4.8075    9.7636   -8.0570 C   0  0  0  0  0  0  0  0  0  0  0  0
   -3.5513   10.3099   -7.8070 C   0  0  0  0  0  0  0  0  0  0  0  0
   -3.4406   11.5840   -7.2355 C   0  0  0  0  0  0  0  0  0  0  0  0
   -4.5915   12.3007   -6.9126 C   0  0  0  0  0  0  0  0  0  0  0  0
   -5.8470   11.7538   -7.1581 C   0  0  0  0  0  0  0  0  0  0  0  0
   -2.0979   12.1738   -6.9691 C   0  0  0  0  0  0  0  0  0  0  0  0
   -1.7666   13.4166   -6.4372 C   0  0  0  0  0  0  0  0  0  0  0  0
   -0.4273   13.4768   -6.3903 N   0  0  0  0  0  0  0  0  0  0  0  0
    0.1744   12.4049   -6.8247 N   0  0  0  0  0  0  0  0  0  0  0  0
   -0.8040   11.5944   -7.2012 C   0  0  0  0  0  0  0  0  0  0  0  0
    0.3946   14.5874   -5.9129 C   0  0  0  0  0  0  0  0  0  0  0  0
   -4.1104   13.1199  -10.1564 C   0  0  0  0  0  0  0  0  0  0  0  0
   -3.1547   14.2611   -9.9254 C   0  0  0  0  0  0  0  0  0  0  0  0
   -3.7686   15.0454  -11.0979 C   0  0  0  0  0  0  0  0  0  0  0  0
   -3.3454   14.7999   -8.7258 F   0  0  0  0  0  0  0  0  0  0  0  0
   -1.8808   13.9286  -10.0717 F   0  0  0  0  0  0  0  0  0  0  0  0
   -6.1820   12.2677   -9.8672 H   0  0  0  0  0  0  0  0  0  0  0  0
   -8.7570   10.7771  -13.3864 H   0  0  0  0  0  0  0  0  0  0  0  0
   -7.2669    9.8262  -13.7057 H   0  0  0  0  0  0  0  0  0  0  0  0
   -6.8838   12.2269  -14.1010 H   0  0  0  0  0  0  0  0  0  0  0  0
   -8.0445    9.6149   -7.2634 H   0  0  0  0  0  0  0  0  0  0  0  0
   -4.8910    8.7811   -8.4977 H   0  0  0  0  0  0  0  0  0  0  0  0
   -2.6611    9.7505   -8.0541 H   0  0  0  0  0  0  0  0  0  0  0  0
   -4.5085   13.2827   -6.4709 H   0  0  0  0  0  0  0  0  0  0  0  0
   -6.3733   12.4542   -7.8233 H   0  0  0  0  0  0  0  0  0  0  0  0
   -6.3670   11.7066   -6.1899 H   0  0  0  0  0  0  0  0  0  0  0  0
   -2.4562   14.1858   -6.1223 H   0  0  0  0  0  0  0  0  0  0  0  0
   -0.6475   10.6160   -7.6308 H   0  0  0  0  0  0  0  0  0  0  0  0
    1.4583   14.3222   -6.0031 H   0  0  0  0  0  0  0  0  0  0  0  0
    0.1876   15.4829   -6.5173 H   0  0  0  0  0  0  0  0  0  0  0  0
    0.1562   14.7932   -4.8589 H   0  0  0  0  0  0  0  0  0  0  0  0
   -4.8767   12.9944   -9.3773 H   0  0  0  0  0  0  0  0  0  0  0  0
   -3.6317   12.1505  -10.3594 H   0  0  0  0  0  0  0  0  0  0  0  0
   -3.0652   15.3118  -11.9005 H   0  0  0  0  0  0  0  0  0  0  0  0
   -4.3514   15.9332  -10.8114 H   0  0  0  0  0  0  0  0  0  0  0  0
  1  2  1  0  0  0  0
  1  4  2  0  0  0  0
  1 12  1  0  0  0  0
  2  6  2  0  0  0  0
  3  4  1  0  0  0  0
  3  5  1  0  0  0  0
  5  6  1  0  0  0  0
  5  9  2  0  0  0  0
  6  7  1  0  0  0  0
  7  8  2  0  0  0  0
  7 10  1  0  0  0  0
  8  9  1  0  0  0  0
 10 14  2  3  0  0  0
 11 12  1  0  0  0  0
 11 26  1  0  0  0  0
 11 28  1  0  0  0  0
 12 13  2  0  0  0  0
 14 15  1  0  0  0  0
 14 19  1  0  0  0  0
 15 16  2  0  0  0  0
 16 17  1  0  0  0  0
 17 18  2  0  0  0  0
 17 20  1  0  0  0  0
 18 19  1  0  0  0  0
 20 21  2  0  0  0  0
 20 24  1  0  0  0  0
 21 22  1  0  0  0  0
 22 23  1  0  0  0  0
 22 25  1  0  0  0  0
 23 24  2  0  0  0  0
 26 27  1  0  0  0  0
 27 28  1  0  0  0  0
 27 29  1  0  0  0  0
 27 30  1  0  0  0  0
  2 31  1  0  0  0  0
  3 32  1  0  0  0  0
  3 33  1  0  0  0  0
  4 34  1  0  0  0  0
 10 35  1  0  0  0  0
 15 36  1  0  0  0  0
 16 37  1  0  0  0  0
 18 38  1  0  0  0  0
 19 39  1  0  0  0  0
 19 40  1  0  0  0  0
 21 41  1  0  0  0  0
 24 42  1  0  0  0  0
 25 43  1  0  0  0  0
 25 44  1  0  0  0  0
 25 45  1  0  0  0  0
 26 46  1  0  0  0  0
 26 47  1  0  0  0  0
 28 48  1  0  0  0  0
 28 49  1  0  0  0  0
M  END
> <Name>
34

> <IC50[uM]>
0.007

$$$$
34
  -OEChem-05192314333D
 Structure written by MMmdl.
 49 53  0     1  0  0  0  0  0999 V2000
   -6.4024   12.3461  -12.0147 C   0  0  0  0  0  0  0  0  0  0  0  0
   -6.5825   11.7781  -10.7426 C   0  0  0  0  0  0  0  0  0  0  0  0
   -7.7347   10.5660  -13.0395 C   0  0  0  0  0  0  0  0  0  0  0  0
   -6.9966   11.7550  -13.1361 C   0  0  0  0  0  0  0  0  0  0  0  0
   -7.8265    9.9936  -11.7632 C   0  0  3  0  0  0  0  0  0  0  0  0
   -7.2675   10.6024  -10.6199 C   0  0  0  0  0  0  0  0  0  0  0  0
   -7.6234    9.7358   -9.5255 C   0  0  0  0  0  0  0  0  0  0  0  0
   -8.2741    8.7136   -9.9910 N   0  0  0  0  0  0  0  0  0  0  0  0
   -8.4130    8.8453  -11.3044 N   0  0  0  0  0  0  0  0  0  0  0  0
   -7.3406    9.8933   -8.0338 C   0  0  0  0  0  0  0  0  0  0  0  0
   -4.5538   13.8407  -11.3379 N   0  0  0  0  0  0  0  0  0  0  0  0
   -5.6005   13.6490  -12.1765 C   0  0  0  0  0  0  0  0  0  0  0  0
   -5.9196   14.4808  -13.0199 O   0  0  0  0  0  0  0  0  0  0  0  0
   -5.9590   10.4855   -7.7382 C   0  0  0  0  0  0  0  0  0  0  0  0
   -4.8075    9.7636   -8.0570 C   0  0  0  0  0  0  0  0  0  0  0  0
   -3.5513   10.3099   -7.8070 C   0  0  0  0  0  0  0  0  0  0  0  0
   -3.4406   11.5840   -7.2355 C   0  0  0  0  0  0  0  0  0  0  0  0
   -4.5915   12.3007   -6.9126 C   0  0  0  0  0  0  0  0  0  0  0  0
   -5.8470   11.7538   -7.1581 C   0  0  0  0  0  0  0  0  0  0  0  0
   -2.0979   12.1738   -6.9691 C   0  0  0  0  0  0  0  0  0  0  0  0
   -1.7666   13.4166   -6.4372 C   0  0  0  0  0  0  0  0  0  0  0  0
   -0.4273   13.4768   -6.3903 N   0  0  0  0  0  0  0  0  0  0  0  0
    0.1744   12.4049   -6.8247 N   0  0  0  0  0  0  0  0  0  0  0  0
   -0.8040   11.5944   -7.2012 C   0  0  0  0  0  0  0  0  0  0  0  0
    0.3946   14.5874   -5.9129 C   0  0  0  0  0  0  0  0  0  0  0  0
   -4.1104   13.1199  -10.1564 C   0  0  0  0  0  0  0  0  0  0  0  0
   -3.1547   14.2611   -9.9254 C   0  0  0  0  0  0  0  0  0  0  0  0
   -3.7686   15.0454  -11.0979 C   0  0  0  0  0  0  0  0  0  0  0  0
   -3.3454   14.7999   -8.7258 F   0  0  0  0  0  0  0  0  0  0  0  0
   -1.8808   13.9286  -10.0717 F   0  0  0  0  0  0  0  0  0  0  0  0
   -6.1820   12.2677   -9.8672 H   0  0  0  0  0  0  0  0  0  0  0  0
   -8.2062   10.1164  -13.9009 H   0  0  0  0  0  0  0  0  0  0  0  0
   -6.8838   12.2269  -14.1010 H   0  0  0  0  0  0  0  0  0  0  0  0
   -6.8869    9.4485  -11.9364 H   0  0  0  0  0  0  0  0  0  0  0  0
   -8.0445    9.6149   -7.2634 H   0  0  0  0  0  0  0  0  0  0  0  0
   -4.8910    8.7811   -8.4977 H   0  0  0  0  0  0  0  0  0  0  0  0
   -2.6611    9.7505   -8.0541 H   0  0  0  0  0  0  0  0  0  0  0  0
   -3.4404   12.0349   -8.2388 H   0  0  0  0  0  0  0  0  0  0  0  0
   -4.5085   13.2827   -6.4709 H   0  0  0  0  0  0  0  0  0  0  0  0
   -6.7367   12.3092   -6.9005 H   0  0  0  0  0  0  0  0  0  0  0  0
   -2.4562   14.1858   -6.1223 H   0  0  0  0  0  0  0  0  0  0  0  0
   -0.6475   10.6160   -7.6308 H   0  0  0  0  0  0  0  0  0  0  0  0
    1.4583   14.3222   -6.0031 H   0  0  0  0  0  0  0  0  0  0  0  0
    0.1876   15.4829   -6.5173 H   0  0  0  0  0  0  0  0  0  0  0  0
    0.1562   14.7932   -4.8589 H   0  0  0  0  0  0  0  0  0  0  0  0
   -4.8767   12.9944   -9.3773 H   0  0  0  0  0  0  0  0  0  0  0  0
   -3.6317   12.1505  -10.3594 H   0  0  0  0  0  0  0  0  0  0  0  0
   -3.0652   15.3118  -11.9005 H   0  0  0  0  0  0  0  0  0  0  0  0
   -4.3514   15.9332  -10.8114 H   0  0  0  0  0  0  0  0  0  0  0  0
  1  2  2  0  0  0  0
  1  4  1  0  0  0  0
  1 12  1  0  0  0  0
  2  6  1  0  0  0  0
  3  4  2  0  0  0  0
  3  5  1  0  0  0  0
  5  6  1  0  0  0  0
  5  9  1  0  0  0  0
  6  7  2  0  0  0  0
  7  8  1  0  0  0  0
  7 10  1  0  0  0  0
  8  9  2  0  0  0  0
 10 14  2  0  0  0  0
 11 12  1  0  0  0  0
 11 26  1  0  0  0  0
 11 28  1  0  0  0  0
 12 13  2  0  0  0  0
 14 15  1  0  0  0  0
 14 19  1  0  0  0  0
 15 16  2  0  0  0  0
 16 17  1  0  0  0  0
 17 18  1  0  0  0  0
 17 20  1  0  0  0  0
 18 19  2  0  0  0  0
 20 21  2  0  0  0  0
 20 24  1  0  0  0  0
 21 22  1  0  0  0  0
 22 23  1  0  0  0  0
 22 25  1  0  0  0  0
 23 24  2  0  0  0  0
 26 27  1  0  0  0  0
 27 28  1  0  0  0  0
 27 29  1  0  0  0  0
 27 30  1  0  0  0  0
  2 31  1  0  0  0  0
  3 32  1  0  0  0  0
  4 33  1  0  0  0  0
  5 34  1  0  0  0  0
 10 35  1  0  0  0  0
 15 36  1  0  0  0  0
 16 37  1  0  0  0  0
 17 38  1  0  0  0  0
 18 39  1  0  0  0  0
 19 40  1  0  0  0  0
 21 41  1  0  0  0  0
 24 42  1  0  0  0  0
 25 43  1  0  0  0  0
 25 44  1  0  0  0  0
 25 45  1  0  0  0  0
 26 46  1  0  0  0  0
 26 47  1  0  0  0  0
 28 48  1  0  0  0  0
 28 49  1  0  0  0  0
M  END
> <Name>
34

> <IC50[uM]>
0.007

$$$$
34
  -OEChem-05192314333D
 Structure written by MMmdl.
 49 53  0     0  0  0  0  0  0999 V2000
   -6.4024   12.3461  -12.0147 C   0  0  0  0  0  0  0  0  0  0  0  0
   -6.5825   11.7781  -10.7426 C   0  0  0  0  0  0  0  0  0  0  0  0
   -7.7347   10.5660  -13.0395 C   0  0  0  0  0  0  0  0  0  0  0  0
   -6.9966   11.7550  -13.1361 C   0  0  0  0  0  0  0  0  0  0  0  0
   -7.8265    9.9936  -11.7632 C   0  0  0  0  0  0  0  0  0  0  0  0
   -7.2675   10.6024  -10.6199 C   0  0  0  0  0  0  0  0  0  0  0  0
   -7.6234    9.7358   -9.5255 C   0  0  0  0  0  0  0  0  0  0  0  0
   -8.2741    8.7136   -9.9910 N   0  0  0  0  0  0  0  0  0  0  0  0
   -8.4130    8.8453  -11.3044 N   0  0  0  0  0  0  0  0  0  0  0  0
   -7.3406    9.8933   -8.0338 C   0  0  0  0  0  0  0  0  0  0  0  0
   -4.5538   13.8407  -11.3379 N   0  0  0  0  0  0  0  0  0  0  0  0
   -5.6005   13.6490  -12.1765 C   0  0  0  0  0  0  0  0  0  0  0  0
   -5.9196   14.4808  -13.0199 O   0  0  0  0  0  0  0  0  0  0  0  0
   -5.9590   10.4855   -7.7382 C   0  0  0  0  0  0  0  0  0  0  0  0
   -4.8075    9.7636   -8.0570 C   0  0  0  0  0  0  0  0  0  0  0  0
   -3.5513   10.3099   -7.8070 C   0  0  0  0  0  0  0  0  0  0  0  0
   -3.4406   11.5840   -7.2355 C   0  0  0  0  0  0  0  0  0  0  0  0
   -4.5915   12.3007   -6.9126 C   0  0  0  0  0  0  0  0  0  0  0  0
   -5.8470   11.7538   -7.1581 C   0  0  0  0  0  0  0  0  0  0  0  0
   -2.0979   12.1738   -6.9691 C   0  0  0  0  0  0  0  0  0  0  0  0
   -1.7666   13.4166   -6.4372 C   0  0  0  0  0  0  0  0  0  0  0  0
   -0.4273   13.4768   -6.3903 N   0  0  0  0  0  0  0  0  0  0  0  0
    0.1744   12.4049   -6.8247 N   0  0  0  0  0  0  0  0  0  0  0  0
   -0.8040   11.5944   -7.2012 C   0  0  0  0  0  0  0  0  0  0  0  0
    0.3946   14.5874   -5.9129 C   0  0  0  0  0  0  0  0  0  0  0  0
   -4.1104   13.1199  -10.1564 C   0  0  0  0  0  0  0  0  0  0  0  0
   -3.1547   14.2611   -9.9254 C   0  0  0  0  0  0  0  0  0  0  0  0
   -3.7686   15.0454  -11.0979 C   0  0  0  0  0  0  0  0  0  0  0  0
   -3.3454   14.7999   -8.7258 F   0  0  0  0  0  0  0  0  0  0  0  0
   -1.8808   13.9286  -10.0717 F   0  0  0  0  0  0  0  0  0  0  0  0
   -6.1820   12.2677   -9.8672 H   0  0  0  0  0  0  0  0  0  0  0  0
   -8.2062   10.1164  -13.9009 H   0  0  0  0  0  0  0  0  0  0  0  0
   -7.6779   12.5084  -13.5582 H   0  0  0  0  0  0  0  0  0  0  0  0
   -6.1826   11.5565  -13.8488 H   0  0  0  0  0  0  0  0  0  0  0  0
   -8.0445    9.6149   -7.2634 H   0  0  0  0  0  0  0  0  0  0  0  0
   -4.8910    8.7811   -8.4977 H   0  0  0  0  0  0  0  0  0  0  0  0
   -2.6611    9.7505   -8.0541 H   0  0  0  0  0  0  0  0  0  0  0  0
   -3.4404   12.0349   -8.2388 H   0  0  0  0  0  0  0  0  0  0  0  0
   -4.5085   13.2827   -6.4709 H   0  0  0  0  0  0  0  0  0  0  0  0
   -6.7367   12.3092   -6.9005 H   0  0  0  0  0  0  0  0  0  0  0  0
   -2.4562   14.1858   -6.1223 H   0  0  0  0  0  0  0  0  0  0  0  0
   -0.6475   10.6160   -7.6308 H   0  0  0  0  0  0  0  0  0  0  0  0
    1.4583   14.3222   -6.0031 H   0  0  0  0  0  0  0  0  0  0  0  0
    0.1876   15.4829   -6.5173 H   0  0  0  0  0  0  0  0  0  0  0  0
    0.1562   14.7932   -4.8589 H   0  0  0  0  0  0  0  0  0  0  0  0
   -4.8767   12.9944   -9.3773 H   0  0  0  0  0  0  0  0  0  0  0  0
   -3.6317   12.1505  -10.3594 H   0  0  0  0  0  0  0  0  0  0  0  0
   -3.0652   15.3118  -11.9005 H   0  0  0  0  0  0  0  0  0  0  0  0
   -4.3514   15.9332  -10.8114 H   0  0  0  0  0  0  0  0  0  0  0  0
  1  2  2  0  0  0  0
  1  4  1  0  0  0  0
  1 12  1  0  0  0  0
  2  6  1  0  0  0  0
  3  4  1  0  0  0  0
  3  5  2  0  0  0  0
  5  6  1  0  0  0  0
  5  9  1  0  0  0  0
  6  7  2  0  0  0  0
  7  8  1  0  0  0  0
  7 10  1  0  0  0  0
  8  9  2  0  0  0  0
 10 14  2  0  0  0  0
 11 12  1  0  0  0  0
 11 26  1  0  0  0  0
 11 28  1  0  0  0  0
 12 13  2  0  0  0  0
 14 15  1  0  0  0  0
 14 19  1  0  0  0  0
 15 16  2  0  0  0  0
 16 17  1  0  0  0  0
 17 18  1  0  0  0  0
 17 20  1  0  0  0  0
 18 19  2  0  0  0  0
 20 21  2  0  0  0  0
 20 24  1  0  0  0  0
 21 22  1  0  0  0  0
 22 23  1  0  0  0  0
 22 25  1  0  0  0  0
 23 24  2  0  0  0  0
 26 27  1  0  0  0  0
 27 28  1  0  0  0  0
 27 29  1  0  0  0  0
 27 30  1  0  0  0  0
  2 31  1  0  0  0  0
  3 32  1  0  0  0  0
  4 33  1  0  0  0  0
  4 34  1  0  0  0  0
 10 35  1  0  0  0  0
 15 36  1  0  0  0  0
 16 37  1  0  0  0  0
 17 38  1  0  0  0  0
 18 39  1  0  0  0  0
 19 40  1  0  0  0  0
 21 41  1  0  0  0  0
 24 42  1  0  0  0  0
 25 43  1  0  0  0  0
 25 44  1  0  0  0  0
 25 45  1  0  0  0  0
 26 46  1  0  0  0  0
 26 47  1  0  0  0  0
 28 48  1  0  0  0  0
 28 49  1  0  0  0  0
M  END
> <Name>
34

> <IC50[uM]>
0.007

$$$$
34
  -OEChem-05192314333D
 Structure written by MMmdl.
 49 53  0     1  0  0  0  0  0999 V2000
   -6.4024   12.3461  -12.0147 C   0  0  0  0  0  0  0  0  0  0  0  0
   -6.5825   11.7781  -10.7426 C   0  0  0  0  0  0  0  0  0  0  0  0
   -7.7347   10.5660  -13.0395 C   0  0  0  0  0  0  0  0  0  0  0  0
   -6.9966   11.7550  -13.1361 C   0  0  0  0  0  0  0  0  0  0  0  0
   -7.8265    9.9936  -11.7632 C   0  0  3  0  0  0  0  0  0  0  0  0
   -7.2675   10.6024  -10.6199 C   0  0  0  0  0  0  0  0  0  0  0  0
   -7.6234    9.7358   -9.5255 C   0  0  0  0  0  0  0  0  0  0  0  0
   -8.2741    8.7136   -9.9910 N   0  0  0  0  0  0  0  0  0  0  0  0
   -8.4130    8.8453  -11.3044 N   0  0  0  0  0  0  0  0  0  0  0  0
   -7.3406    9.8933   -8.0338 C   0  0  0  0  0  0  0  0  0  0  0  0
   -4.5538   13.8407  -11.3379 N   0  0  0  0  0  0  0  0  0  0  0  0
   -5.6005   13.6490  -12.1765 C   0  0  0  0  0  0  0  0  0  0  0  0
   -5.9196   14.4808  -13.0199 O   0  0  0  0  0  0  0  0  0  0  0  0
   -5.9590   10.4855   -7.7382 C   0  0  0  0  0  0  0  0  0  0  0  0
   -4.8075    9.7636   -8.0570 C   0  0  0  0  0  0  0  0  0  0  0  0
   -3.5513   10.3099   -7.8070 C   0  0  0  0  0  0  0  0  0  0  0  0
   -3.4406   11.5840   -7.2355 C   0  0  0  0  0  0  0  0  0  0  0  0
   -4.5915   12.3007   -6.9126 C   0  0  0  0  0  0  0  0  0  0  0  0
   -5.8470   11.7538   -7.1581 C   0  0  0  0  0  0  0  0  0  0  0  0
   -2.0979   12.1738   -6.9691 C   0  0  0  0  0  0  0  0  0  0  0  0
   -1.7666   13.4166   -6.4372 C   0  0  0  0  0  0  0  0  0  0  0  0
   -0.4273   13.4768   -6.3903 N   0  0  0  0  0  0  0  0  0  0  0  0
    0.1744   12.4049   -6.8247 N   0  0  0  0  0  0  0  0  0  0  0  0
   -0.8040   11.5944   -7.2012 C   0  0  0  0  0  0  0  0  0  0  0  0
    0.3946   14.5874   -5.9129 C   0  0  0  0  0  0  0  0  0  0  0  0
   -4.1104   13.1199  -10.1564 C   0  0  0  0  0  0  0  0  0  0  0  0
   -3.1547   14.2611   -9.9254 C   0  0  0  0  0  0  0  0  0  0  0  0
   -3.7686   15.0454  -11.0979 C   0  0  0  0  0  0  0  0  0  0  0  0
   -3.3454   14.7999   -8.7258 F   0  0  0  0  0  0  0  0  0  0  0  0
   -1.8808   13.9286  -10.0717 F   0  0  0  0  0  0  0  0  0  0  0  0
   -6.1820   12.2677   -9.8672 H   0  0  0  0  0  0  0  0  0  0  0  0
   -8.2062   10.1164  -13.9009 H   0  0  0  0  0  0  0  0  0  0  0  0
   -6.8838   12.2269  -14.1010 H   0  0  0  0  0  0  0  0  0  0  0  0
   -6.8869    9.4485  -11.9364 H   0  0  0  0  0  0  0  0  0  0  0  0
   -8.0445    9.6149   -7.2634 H   0  0  0  0  0  0  0  0  0  0  0  0
   -4.8910    8.7811   -8.4977 H   0  0  0  0  0  0  0  0  0  0  0  0
   -2.6611    9.7505   -8.0541 H   0  0  0  0  0  0  0  0  0  0  0  0
   -4.5085   13.2827   -6.4709 H   0  0  0  0  0  0  0  0  0  0  0  0
   -6.3733   12.4542   -7.8233 H   0  0  0  0  0  0  0  0  0  0  0  0
   -6.3670   11.7066   -6.1899 H   0  0  0  0  0  0  0  0  0  0  0  0
   -2.4562   14.1858   -6.1223 H   0  0  0  0  0  0  0  0  0  0  0  0
   -0.6475   10.6160   -7.6308 H   0  0  0  0  0  0  0  0  0  0  0  0
    1.4583   14.3222   -6.0031 H   0  0  0  0  0  0  0  0  0  0  0  0
    0.1876   15.4829   -6.5173 H   0  0  0  0  0  0  0  0  0  0  0  0
    0.1562   14.7932   -4.8589 H   0  0  0  0  0  0  0  0  0  0  0  0
   -4.8767   12.9944   -9.3773 H   0  0  0  0  0  0  0  0  0  0  0  0
   -3.6317   12.1505  -10.3594 H   0  0  0  0  0  0  0  0  0  0  0  0
   -3.0652   15.3118  -11.9005 H   0  0  0  0  0  0  0  0  0  0  0  0
   -4.3514   15.9332  -10.8114 H   0  0  0  0  0  0  0  0  0  0  0  0
  1  2  2  0  0  0  0
  1  4  1  0  0  0  0
  1 12  1  0  0  0  0
  2  6  1  0  0  0  0
  3  4  2  0  0  0  0
  3  5  1  0  0  0  0
  5  6  1  0  0  0  0
  5  9  1  0  0  0  0
  6  7  2  0  0  0  0
  7  8  1  0  0  0  0
  7 10  1  0  0  0  0
  8  9  2  0  0  0  0
 10 14  2  3  0  0  0
 11 12  1  0  0  0  0
 11 26  1  0  0  0  0
 11 28  1  0  0  0  0
 12 13  2  0  0  0  0
 14 15  1  0  0  0  0
 14 19  1  0  0  0  0
 15 16  2  0  0  0  0
 16 17  1  0  0  0  0
 17 18  2  0  0  0  0
 17 20  1  0  0  0  0
 18 19  1  0  0  0  0
 20 21  2  0  0  0  0
 20 24  1  0  0  0  0
 21 22  1  0  0  0  0
 22 23  1  0  0  0  0
 22 25  1  0  0  0  0
 23 24  2  0  0  0  0
 26 27  1  0  0  0  0
 27 28  1  0  0  0  0
 27 29  1  0  0  0  0
 27 30  1  0  0  0  0
  2 31  1  0  0  0  0
  3 32  1  0  0  0  0
  4 33  1  0  0  0  0
  5 34  1  0  0  0  0
 10 35  1  0  0  0  0
 15 36  1  0  0  0  0
 16 37  1  0  0  0  0
 18 38  1  0  0  0  0
 19 39  1  0  0  0  0
 19 40  1  0  0  0  0
 21 41  1  0  0  0  0
 24 42  1  0  0  0  0
 25 43  1  0  0  0  0
 25 44  1  0  0  0  0
 25 45  1  0  0  0  0
 26 46  1  0  0  0  0
 26 47  1  0  0  0  0
 28 48  1  0  0  0  0
 28 49  1  0  0  0  0
M  END
> <Name>
34

> <IC50[uM]>
0.007

$$$$
34
  -OEChem-05192314333D
 Structure written by MMmdl.
 49 53  0     0  0  0  0  0  0999 V2000
   -6.4024   12.3461  -12.0147 C   0  0  0  0  0  0  0  0  0  0  0  0
   -6.5825   11.7781  -10.7426 C   0  0  0  0  0  0  0  0  0  0  0  0
   -7.7347   10.5660  -13.0395 C   0  0  0  0  0  0  0  0  0  0  0  0
   -6.9966   11.7550  -13.1361 C   0  0  0  0  0  0  0  0  0  0  0  0
   -7.8265    9.9936  -11.7632 C   0  0  0  0  0  0  0  0  0  0  0  0
   -7.2675   10.6024  -10.6199 C   0  0  0  0  0  0  0  0  0  0  0  0
   -7.6234    9.7358   -9.5255 C   0  0  0  0  0  0  0  0  0  0  0  0
   -8.2741    8.7136   -9.9910 N   0  0  0  0  0  0  0  0  0  0  0  0
   -8.4130    8.8453  -11.3044 N   0  0  0  0  0  0  0  0  0  0  0  0
   -7.3406    9.8933   -8.0338 C   0  0  0  0  0  0  0  0  0  0  0  0
   -4.5538   13.8407  -11.3379 N   0  0  0  0  0  0  0  0  0  0  0  0
   -5.6005   13.6490  -12.1765 C   0  0  0  0  0  0  0  0  0  0  0  0
   -5.9196   14.4808  -13.0199 O   0  0  0  0  0  0  0  0  0  0  0  0
   -5.9590   10.4855   -7.7382 C   0  0  0  0  0  0  0  0  0  0  0  0
   -4.8075    9.7636   -8.0570 C   0  0  0  0  0  0  0  0  0  0  0  0
   -3.5513   10.3099   -7.8070 C   0  0  0  0  0  0  0  0  0  0  0  0
   -3.4406   11.5840   -7.2355 C   0  0  0  0  0  0  0  0  0  0  0  0
   -4.5915   12.3007   -6.9126 C   0  0  0  0  0  0  0  0  0  0  0  0
   -5.8470   11.7538   -7.1581 C   0  0  0  0  0  0  0  0  0  0  0  0
   -2.0979   12.1738   -6.9691 C   0  0  0  0  0  0  0  0  0  0  0  0
   -1.7666   13.4166   -6.4372 C   0  0  0  0  0  0  0  0  0  0  0  0
   -0.4273   13.4768   -6.3903 N   0  0  0  0  0  0  0  0  0  0  0  0
    0.1744   12.4049   -6.8247 N   0  0  0  0  0  0  0  0  0  0  0  0
   -0.8040   11.5944   -7.2012 C   0  0  0  0  0  0  0  0  0  0  0  0
    0.3946   14.5874   -5.9129 C   0  0  0  0  0  0  0  0  0  0  0  0
   -4.1104   13.1199  -10.1564 C   0  0  0  0  0  0  0  0  0  0  0  0
   -3.1547   14.2611   -9.9254 C   0  0  0  0  0  0  0  0  0  0  0  0
   -3.7686   15.0454  -11.0979 C   0  0  0  0  0  0  0  0  0  0  0  0
   -3.3454   14.7999   -8.7258 F   0  0  0  0  0  0  0  0  0  0  0  0
   -1.8808   13.9286  -10.0717 F   0  0  0  0  0  0  0  0  0  0  0  0
   -6.1820   12.2677   -9.8672 H   0  0  0  0  0  0  0  0  0  0  0  0
   -8.2062   10.1164  -13.9009 H   0  0  0  0  0  0  0  0  0  0  0  0
   -7.6779   12.5084  -13.5582 H   0  0  0  0  0  0  0  0  0  0  0  0
   -6.1826   11.5565  -13.8488 H   0  0  0  0  0  0  0  0  0  0  0  0
   -8.0445    9.6149   -7.2634 H   0  0  0  0  0  0  0  0  0  0  0  0
   -4.8910    8.7811   -8.4977 H   0  0  0  0  0  0  0  0  0  0  0  0
   -2.6611    9.7505   -8.0541 H   0  0  0  0  0  0  0  0  0  0  0  0
   -4.5085   13.2827   -6.4709 H   0  0  0  0  0  0  0  0  0  0  0  0
   -6.3733   12.4542   -7.8233 H   0  0  0  0  0  0  0  0  0  0  0  0
   -6.3670   11.7066   -6.1899 H   0  0  0  0  0  0  0  0  0  0  0  0
   -2.4562   14.1858   -6.1223 H   0  0  0  0  0  0  0  0  0  0  0  0
   -0.6475   10.6160   -7.6308 H   0  0  0  0  0  0  0  0  0  0  0  0
    1.4583   14.3222   -6.0031 H   0  0  0  0  0  0  0  0  0  0  0  0
    0.1876   15.4829   -6.5173 H   0  0  0  0  0  0  0  0  0  0  0  0
    0.1562   14.7932   -4.8589 H   0  0  0  0  0  0  0  0  0  0  0  0
   -4.8767   12.9944   -9.3773 H   0  0  0  0  0  0  0  0  0  0  0  0
   -3.6317   12.1505  -10.3594 H   0  0  0  0  0  0  0  0  0  0  0  0
   -3.0652   15.3118  -11.9005 H   0  0  0  0  0  0  0  0  0  0  0  0
   -4.3514   15.9332  -10.8114 H   0  0  0  0  0  0  0  0  0  0  0  0
  1  2  2  0  0  0  0
  1  4  1  0  0  0  0
  1 12  1  0  0  0  0
  2  6  1  0  0  0  0
  3  4  1  0  0  0  0
  3  5  2  0  0  0  0
  5  6  1  0  0  0  0
  5  9  1  0  0  0  0
  6  7  2  0  0  0  0
  7  8  1  0  0  0  0
  7 10  1  0  0  0  0
  8  9  2  0  0  0  0
 10 14  2  3  0  0  0
 11 12  1  0  0  0  0
 11 26  1  0  0  0  0
 11 28  1  0  0  0  0
 12 13  2  0  0  0  0
 14 15  1  0  0  0  0
 14 19  1  0  0  0  0
 15 16  2  0  0  0  0
 16 17  1  0  0  0  0
 17 18  2  0  0  0  0
 17 20  1  0  0  0  0
 18 19  1  0  0  0  0
 20 21  2  0  0  0  0
 20 24  1  0  0  0  0
 21 22  1  0  0  0  0
 22 23  1  0  0  0  0
 22 25  1  0  0  0  0
 23 24  2  0  0  0  0
 26 27  1  0  0  0  0
 27 28  1  0  0  0  0
 27 29  1  0  0  0  0
 27 30  1  0  0  0  0
  2 31  1  0  0  0  0
  3 32  1  0  0  0  0
  4 33  1  0  0  0  0
  4 34  1  0  0  0  0
 10 35  1  0  0  0  0
 15 36  1  0  0  0  0
 16 37  1  0  0  0  0
 18 38  1  0  0  0  0
 19 39  1  0  0  0  0
 19 40  1  0  0  0  0
 21 41  1  0  0  0  0
 24 42  1  0  0  0  0
 25 43  1  0  0  0  0
 25 44  1  0  0  0  0
 25 45  1  0  0  0  0
 26 46  1  0  0  0  0
 26 47  1  0  0  0  0
 28 48  1  0  0  0  0
 28 49  1  0  0  0  0
M  END
> <Name>
34

> <IC50[uM]>
0.007

$$$$
34
  -OEChem-05192314333D
 Structure written by MMmdl.
 49 53  0     0  0  0  0  0  0999 V2000
   -6.4024   12.3461  -12.0147 C   0  0  0  0  0  0  0  0  0  0  0  0
   -6.5825   11.7781  -10.7426 C   0  0  0  0  0  0  0  0  0  0  0  0
   -7.7347   10.5660  -13.0395 C   0  0  0  0  0  0  0  0  0  0  0  0
   -6.9966   11.7550  -13.1361 C   0  0  0  0  0  0  0  0  0  0  0  0
   -7.8265    9.9936  -11.7632 C   0  0  0  0  0  0  0  0  0  0  0  0
   -7.2675   10.6024  -10.6199 C   0  0  0  0  0  0  0  0  0  0  0  0
   -7.6234    9.7358   -9.5255 C   0  0  0  0  0  0  0  0  0  0  0  0
   -8.2741    8.7136   -9.9910 N   0  0  0  0  0  0  0  0  0  0  0  0
   -8.4130    8.8453  -11.3044 N   0  0  0  0  0  0  0  0  0  0  0  0
   -7.3406    9.8933   -8.0338 C   0  0  0  0  0  0  0  0  0  0  0  0
   -4.5538   13.8407  -11.3379 N   0  0  0  0  0  0  0  0  0  0  0  0
   -5.6005   13.6490  -12.1765 C   0  0  0  0  0  0  0  0  0  0  0  0
   -5.9196   14.4808  -13.0199 O   0  0  0  0  0  0  0  0  0  0  0  0
   -5.9590   10.4855   -7.7382 C   0  0  0  0  0  0  0  0  0  0  0  0
   -4.8075    9.7636   -8.0570 C   0  0  0  0  0  0  0  0  0  0  0  0
   -3.5513   10.3099   -7.8070 C   0  0  0  0  0  0  0  0  0  0  0  0
   -3.4406   11.5840   -7.2355 C   0  0  0  0  0  0  0  0  0  0  0  0
   -4.5915   12.3007   -6.9126 C   0  0  0  0  0  0  0  0  0  0  0  0
   -5.8470   11.7538   -7.1581 C   0  0  0  0  0  0  0  0  0  0  0  0
   -2.0979   12.1738   -6.9691 C   0  0  0  0  0  0  0  0  0  0  0  0
   -1.7666   13.4166   -6.4372 C   0  0  0  0  0  0  0  0  0  0  0  0
   -0.4273   13.4768   -6.3903 N   0  0  0  0  0  0  0  0  0  0  0  0
    0.1744   12.4049   -6.8247 N   0  0  0  0  0  0  0  0  0  0  0  0
   -0.8040   11.5944   -7.2012 C   0  0  0  0  0  0  0  0  0  0  0  0
    0.3946   14.5874   -5.9129 C   0  0  0  0  0  0  0  0  0  0  0  0
   -4.1104   13.1199  -10.1564 C   0  0  0  0  0  0  0  0  0  0  0  0
   -3.1547   14.2611   -9.9254 C   0  0  0  0  0  0  0  0  0  0  0  0
   -3.7686   15.0454  -11.0979 C   0  0  0  0  0  0  0  0  0  0  0  0
   -3.3454   14.7999   -8.7258 F   0  0  0  0  0  0  0  0  0  0  0  0
   -1.8808   13.9286  -10.0717 F   0  0  0  0  0  0  0  0  0  0  0  0
   -5.5797   11.6090  -10.3232 H   0  0  0  0  0  0  0  0  0  0  0  0
   -7.1143   12.5230  -10.1324 H   0  0  0  0  0  0  0  0  0  0  0  0
   -8.2062   10.1164  -13.9009 H   0  0  0  0  0  0  0  0  0  0  0  0
   -6.8838   12.2269  -14.1010 H   0  0  0  0  0  0  0  0  0  0  0  0
   -8.0445    9.6149   -7.2634 H   0  0  0  0  0  0  0  0  0  0  0  0
   -4.8910    8.7811   -8.4977 H   0  0  0  0  0  0  0  0  0  0  0  0
   -2.6611    9.7505   -8.0541 H   0  0  0  0  0  0  0  0  0  0  0  0
   -3.4404   12.0349   -8.2388 H   0  0  0  0  0  0  0  0  0  0  0  0
   -4.5085   13.2827   -6.4709 H   0  0  0  0  0  0  0  0  0  0  0  0
   -6.7367   12.3092   -6.9005 H   0  0  0  0  0  0  0  0  0  0  0  0
   -2.4562   14.1858   -6.1223 H   0  0  0  0  0  0  0  0  0  0  0  0
   -0.6475   10.6160   -7.6308 H   0  0  0  0  0  0  0  0  0  0  0  0
    1.4583   14.3222   -6.0031 H   0  0  0  0  0  0  0  0  0  0  0  0
    0.1876   15.4829   -6.5173 H   0  0  0  0  0  0  0  0  0  0  0  0
    0.1562   14.7932   -4.8589 H   0  0  0  0  0  0  0  0  0  0  0  0
   -4.8767   12.9944   -9.3773 H   0  0  0  0  0  0  0  0  0  0  0  0
   -3.6317   12.1505  -10.3594 H   0  0  0  0  0  0  0  0  0  0  0  0
   -3.0652   15.3118  -11.9005 H   0  0  0  0  0  0  0  0  0  0  0  0
   -4.3514   15.9332  -10.8114 H   0  0  0  0  0  0  0  0  0  0  0  0
  1  2  1  0  0  0  0
  1  4  2  0  0  0  0
  1 12  1  0  0  0  0
  2  6  1  0  0  0  0
  3  4  1  0  0  0  0
  3  5  2  0  0  0  0
  5  6  1  0  0  0  0
  5  9  1  0  0  0  0
  6  7  2  0  0  0  0
  7  8  1  0  0  0  0
  7 10  1  0  0  0  0
  8  9  2  0  0  0  0
 10 14  2  0  0  0  0
 11 12  1  0  0  0  0
 11 26  1  0  0  0  0
 11 28  1  0  0  0  0
 12 13  2  0  0  0  0
 14 15  1  0  0  0  0
 14 19  1  0  0  0  0
 15 16  2  0  0  0  0
 16 17  1  0  0  0  0
 17 18  1  0  0  0  0
 17 20  1  0  0  0  0
 18 19  2  0  0  0  0
 20 21  2  0  0  0  0
 20 24  1  0  0  0  0
 21 22  1  0  0  0  0
 22 23  1  0  0  0  0
 22 25  1  0  0  0  0
 23 24  2  0  0  0  0
 26 27  1  0  0  0  0
 27 28  1  0  0  0  0
 27 29  1  0  0  0  0
 27 30  1  0  0  0  0
  2 31  1  0  0  0  0
  2 32  1  0  0  0  0
  3 33  1  0  0  0  0
  4 34  1  0  0  0  0
 10 35  1  0  0  0  0
 15 36  1  0  0  0  0
 16 37  1  0  0  0  0
 17 38  1  0  0  0  0
 18 39  1  0  0  0  0
 19 40  1  0  0  0  0
 21 41  1  0  0  0  0
 24 42  1  0  0  0  0
 25 43  1  0  0  0  0
 25 44  1  0  0  0  0
 25 45  1  0  0  0  0
 26 46  1  0  0  0  0
 26 47  1  0  0  0  0
 28 48  1  0  0  0  0
 28 49  1  0  0  0  0
M  END
> <Name>
34

> <IC50[uM]>
0.007

$$$$
34
  -OEChem-05192314333D
 Structure written by MMmdl.
 49 53  0     0  0  0  0  0  0999 V2000
   -6.4024   12.3461  -12.0147 C   0  0  0  0  0  0  0  0  0  0  0  0
   -6.5825   11.7781  -10.7426 C   0  0  0  0  0  0  0  0  0  0  0  0
   -7.7347   10.5660  -13.0395 C   0  0  0  0  0  0  0  0  0  0  0  0
   -6.9966   11.7550  -13.1361 C   0  0  0  0  0  0  0  0  0  0  0  0
   -7.8265    9.9936  -11.7632 C   0  0  0  0  0  0  0  0  0  0  0  0
   -7.2675   10.6024  -10.6199 C   0  0  0  0  0  0  0  0  0  0  0  0
   -7.6234    9.7358   -9.5255 C   0  0  0  0  0  0  0  0  0  0  0  0
   -8.2741    8.7136   -9.9910 N   0  0  0  0  0  0  0  0  0  0  0  0
   -8.4130    8.8453  -11.3044 N   0  0  0  0  0  0  0  0  0  0  0  0
   -7.3406    9.8933   -8.0338 C   0  0  0  0  0  0  0  0  0  0  0  0
   -4.5538   13.8407  -11.3379 N   0  0  0  0  0  0  0  0  0  0  0  0
   -5.6005   13.6490  -12.1765 C   0  0  0  0  0  0  0  0  0  0  0  0
   -5.9196   14.4808  -13.0199 O   0  0  0  0  0  0  0  0  0  0  0  0
   -5.9590   10.4855   -7.7382 C   0  0  0  0  0  0  0  0  0  0  0  0
   -4.8075    9.7636   -8.0570 C   0  0  0  0  0  0  0  0  0  0  0  0
   -3.5513   10.3099   -7.8070 C   0  0  0  0  0  0  0  0  0  0  0  0
   -3.4406   11.5840   -7.2355 C   0  0  0  0  0  0  0  0  0  0  0  0
   -4.5915   12.3007   -6.9126 C   0  0  0  0  0  0  0  0  0  0  0  0
   -5.8470   11.7538   -7.1581 C   0  0  0  0  0  0  0  0  0  0  0  0
   -2.0979   12.1738   -6.9691 C   0  0  0  0  0  0  0  0  0  0  0  0
   -1.7666   13.4166   -6.4372 C   0  0  0  0  0  0  0  0  0  0  0  0
   -0.4273   13.4768   -6.3903 N   0  0  0  0  0  0  0  0  0  0  0  0
    0.1744   12.4049   -6.8247 N   0  0  0  0  0  0  0  0  0  0  0  0
   -0.8040   11.5944   -7.2012 C   0  0  0  0  0  0  0  0  0  0  0  0
    0.3946   14.5874   -5.9129 C   0  0  0  0  0  0  0  0  0  0  0  0
   -4.1104   13.1199  -10.1564 C   0  0  0  0  0  0  0  0  0  0  0  0
   -3.1547   14.2611   -9.9254 C   0  0  0  0  0  0  0  0  0  0  0  0
   -3.7686   15.0454  -11.0979 C   0  0  0  0  0  0  0  0  0  0  0  0
   -3.3454   14.7999   -8.7258 F   0  0  0  0  0  0  0  0  0  0  0  0
   -1.8808   13.9286  -10.0717 F   0  0  0  0  0  0  0  0  0  0  0  0
   -5.5797   11.6090  -10.3232 H   0  0  0  0  0  0  0  0  0  0  0  0
   -7.1143   12.5230  -10.1324 H   0  0  0  0  0  0  0  0  0  0  0  0
   -8.2062   10.1164  -13.9009 H   0  0  0  0  0  0  0  0  0  0  0  0
   -6.8838   12.2269  -14.1010 H   0  0  0  0  0  0  0  0  0  0  0  0
   -8.0445    9.6149   -7.2634 H   0  0  0  0  0  0  0  0  0  0  0  0
   -4.8910    8.7811   -8.4977 H   0  0  0  0  0  0  0  0  0  0  0  0
   -2.6611    9.7505   -8.0541 H   0  0  0  0  0  0  0  0  0  0  0  0
   -4.5085   13.2827   -6.4709 H   0  0  0  0  0  0  0  0  0  0  0  0
   -6.3733   12.4542   -7.8233 H   0  0  0  0  0  0  0  0  0  0  0  0
   -6.3670   11.7066   -6.1899 H   0  0  0  0  0  0  0  0  0  0  0  0
   -2.4562   14.1858   -6.1223 H   0  0  0  0  0  0  0  0  0  0  0  0
   -0.6475   10.6160   -7.6308 H   0  0  0  0  0  0  0  0  0  0  0  0
    1.4583   14.3222   -6.0031 H   0  0  0  0  0  0  0  0  0  0  0  0
    0.1876   15.4829   -6.5173 H   0  0  0  0  0  0  0  0  0  0  0  0
    0.1562   14.7932   -4.8589 H   0  0  0  0  0  0  0  0  0  0  0  0
   -4.8767   12.9944   -9.3773 H   0  0  0  0  0  0  0  0  0  0  0  0
   -3.6317   12.1505  -10.3594 H   0  0  0  0  0  0  0  0  0  0  0  0
   -3.0652   15.3118  -11.9005 H   0  0  0  0  0  0  0  0  0  0  0  0
   -4.3514   15.9332  -10.8114 H   0  0  0  0  0  0  0  0  0  0  0  0
  1  2  1  0  0  0  0
  1  4  2  0  0  0  0
  1 12  1  0  0  0  0
  2  6  1  0  0  0  0
  3  4  1  0  0  0  0
  3  5  2  0  0  0  0
  5  6  1  0  0  0  0
  5  9  1  0  0  0  0
  6  7  2  0  0  0  0
  7  8  1  0  0  0  0
  7 10  1  0  0  0  0
  8  9  2  0  0  0  0
 10 14  2  3  0  0  0
 11 12  1  0  0  0  0
 11 26  1  0  0  0  0
 11 28  1  0  0  0  0
 12 13  2  0  0  0  0
 14 15  1  0  0  0  0
 14 19  1  0  0  0  0
 15 16  2  0  0  0  0
 16 17  1  0  0  0  0
 17 18  2  0  0  0  0
 17 20  1  0  0  0  0
 18 19  1  0  0  0  0
 20 21  2  0  0  0  0
 20 24  1  0  0  0  0
 21 22  1  0  0  0  0
 22 23  1  0  0  0  0
 22 25  1  0  0  0  0
 23 24  2  0  0  0  0
 26 27  1  0  0  0  0
 27 28  1  0  0  0  0
 27 29  1  0  0  0  0
 27 30  1  0  0  0  0
  2 31  1  0  0  0  0
  2 32  1  0  0  0  0
  3 33  1  0  0  0  0
  4 34  1  0  0  0  0
 10 35  1  0  0  0  0
 15 36  1  0  0  0  0
 16 37  1  0  0  0  0
 18 38  1  0  0  0  0
 19 39  1  0  0  0  0
 19 40  1  0  0  0  0
 21 41  1  0  0  0  0
 24 42  1  0  0  0  0
 25 43  1  0  0  0  0
 25 44  1  0  0  0  0
 25 45  1  0  0  0  0
 26 46  1  0  0  0  0
 26 47  1  0  0  0  0
 28 48  1  0  0  0  0
 28 49  1  0  0  0  0
M  END
> <Name>
34

> <IC50[uM]>
0.007

$$$$
34
  -OEChem-05192314333D
 Structure written by MMmdl.
 49 53  0     0  0  0  0  0  0999 V2000
   -6.4024   12.3461  -12.0147 C   0  0  0  0  0  0  0  0  0  0  0  0
   -6.5825   11.7781  -10.7426 C   0  0  0  0  0  0  0  0  0  0  0  0
   -7.7347   10.5660  -13.0395 C   0  0  0  0  0  0  0  0  0  0  0  0
   -6.9966   11.7550  -13.1361 C   0  0  0  0  0  0  0  0  0  0  0  0
   -7.8265    9.9936  -11.7632 C   0  0  0  0  0  0  0  0  0  0  0  0
   -7.2675   10.6024  -10.6199 C   0  0  0  0  0  0  0  0  0  0  0  0
   -7.6234    9.7358   -9.5255 C   0  0  0  0  0  0  0  0  0  0  0  0
   -8.2741    8.7136   -9.9910 N   0  0  0  0  0  0  0  0  0  0  0  0
   -8.4130    8.8453  -11.3044 N   0  0  0  0  0  0  0  0  0  0  0  0
   -7.3406    9.8933   -8.0338 C   0  0  0  0  0  0  0  0  0  0  0  0
   -4.5538   13.8407  -11.3379 N   0  0  0  0  0  0  0  0  0  0  0  0
   -5.6005   13.6490  -12.1765 C   0  0  0  0  0  0  0  0  0  0  0  0
   -5.9196   14.4808  -13.0199 O   0  0  0  0  0  0  0  0  0  0  0  0
   -5.9590   10.4855   -7.7382 C   0  0  0  0  0  0  0  0  0  0  0  0
   -4.8075    9.7636   -8.0570 C   0  0  0  0  0  0  0  0  0  0  0  0
   -3.5513   10.3099   -7.8070 C   0  0  0  0  0  0  0  0  0  0  0  0
   -3.4406   11.5840   -7.2355 C   0  0  0  0  0  0  0  0  0  0  0  0
   -4.5915   12.3007   -6.9126 C   0  0  0  0  0  0  0  0  0  0  0  0
   -5.8470   11.7538   -7.1581 C   0  0  0  0  0  0  0  0  0  0  0  0
   -2.0979   12.1738   -6.9691 C   0  0  0  0  0  0  0  0  0  0  0  0
   -1.7666   13.4166   -6.4372 C   0  0  0  0  0  0  0  0  0  0  0  0
   -0.4273   13.4768   -6.3903 N   0  0  0  0  0  0  0  0  0  0  0  0
    0.1744   12.4049   -6.8247 N   0  0  0  0  0  0  0  0  0  0  0  0
   -0.8040   11.5944   -7.2012 C   0  0  0  0  0  0  0  0  0  0  0  0
    0.3946   14.5874   -5.9129 C   0  0  0  0  0  0  0  0  0  0  0  0
   -4.1104   13.1199  -10.1564 C   0  0  0  0  0  0  0  0  0  0  0  0
   -3.1547   14.2611   -9.9254 C   0  0  0  0  0  0  0  0  0  0  0  0
   -3.7686   15.0454  -11.0979 C   0  0  0  0  0  0  0  0  0  0  0  0
   -3.3454   14.7999   -8.7258 F   0  0  0  0  0  0  0  0  0  0  0  0
   -1.8808   13.9286  -10.0717 F   0  0  0  0  0  0  0  0  0  0  0  0
   -6.1820   12.2677   -9.8672 H   0  0  0  0  0  0  0  0  0  0  0  0
   -8.2062   10.1164  -13.9009 H   0  0  0  0  0  0  0  0  0  0  0  0
   -6.8838   12.2269  -14.1010 H   0  0  0  0  0  0  0  0  0  0  0  0
   -8.6165    7.9481   -9.4463 H   0  0  0  0  0  0  0  0  0  0  0  0
   -8.0445    9.6149   -7.2634 H   0  0  0  0  0  0  0  0  0  0  0  0
   -5.3206   15.2172  -12.9815 H   0  0  0  0  0  0  0  0  0  0  0  0
   -4.8910    8.7811   -8.4977 H   0  0  0  0  0  0  0  0  0  0  0  0
   -2.6611    9.7505   -8.0541 H   0  0  0  0  0  0  0  0  0  0  0  0
   -4.5085   13.2827   -6.4709 H   0  0  0  0  0  0  0  0  0  0  0  0
   -6.7367   12.3092   -6.9005 H   0  0  0  0  0  0  0  0  0  0  0  0
   -2.4562   14.1858   -6.1223 H   0  0  0  0  0  0  0  0  0  0  0  0
   -0.6475   10.6160   -7.6308 H   0  0  0  0  0  0  0  0  0  0  0  0
    1.4583   14.3222   -6.0031 H   0  0  0  0  0  0  0  0  0  0  0  0
    0.1876   15.4829   -6.5173 H   0  0  0  0  0  0  0  0  0  0  0  0
    0.1562   14.7932   -4.8589 H   0  0  0  0  0  0  0  0  0  0  0  0
   -4.8767   12.9944   -9.3773 H   0  0  0  0  0  0  0  0  0  0  0  0
   -3.6317   12.1505  -10.3594 H   0  0  0  0  0  0  0  0  0  0  0  0
   -3.0652   15.3118  -11.9005 H   0  0  0  0  0  0  0  0  0  0  0  0
   -4.3514   15.9332  -10.8114 H   0  0  0  0  0  0  0  0  0  0  0  0
  1  2  1  0  0  0  0
  1  4  1  0  0  0  0
  1 12  2  3  0  0  0
  2  6  2  0  0  0  0
  3  4  2  0  0  0  0
  3  5  1  0  0  0  0
  5  6  1  0  0  0  0
  5  9  2  0  0  0  0
  6  7  1  0  0  0  0
  7  8  1  0  0  0  0
  7 10  2  3  0  0  0
  8  9  1  0  0  0  0
 10 14  1  0  0  0  0
 11 12  1  0  0  0  0
 11 26  1  0  0  0  0
 11 28  1  0  0  0  0
 12 13  1  0  0  0  0
 14 15  2  0  0  0  0
 14 19  1  0  0  0  0
 15 16  1  0  0  0  0
 16 17  2  0  0  0  0
 17 18  1  0  0  0  0
 17 20  1  0  0  0  0
 18 19  2  0  0  0  0
 20 21  2  0  0  0  0
 20 24  1  0  0  0  0
 21 22  1  0  0  0  0
 22 23  1  0  0  0  0
 22 25  1  0  0  0  0
 23 24  2  0  0  0  0
 26 27  1  0  0  0  0
 27 28  1  0  0  0  0
 27 29  1  0  0  0  0
 27 30  1  0  0  0  0
  2 31  1  0  0  0  0
  3 32  1  0  0  0  0
  4 33  1  0  0  0  0
  8 34  1  0  0  0  0
 10 35  1  0  0  0  0
 13 36  1  0  0  0  0
 15 37  1  0  0  0  0
 16 38  1  0  0  0  0
 18 39  1  0  0  0  0
 19 40  1  0  0  0  0
 21 41  1  0  0  0  0
 24 42  1  0  0  0  0
 25 43  1  0  0  0  0
 25 44  1  0  0  0  0
 25 45  1  0  0  0  0
 26 46  1  0  0  0  0
 26 47  1  0  0  0  0
 28 48  1  0  0  0  0
 28 49  1  0  0  0  0
M  END
> <Name>
34

> <IC50[uM]>
0.007

$$$$
34
  -OEChem-05192314333D
 Structure written by MMmdl.
 49 53  0     1  0  0  0  0  0999 V2000
   -6.4024   12.3461  -12.0147 C   0  0  0  0  0  0  0  0  0  0  0  0
   -6.5825   11.7781  -10.7426 C   0  0  0  0  0  0  0  0  0  0  0  0
   -7.7347   10.5660  -13.0395 C   0  0  0  0  0  0  0  0  0  0  0  0
   -6.9966   11.7550  -13.1361 C   0  0  0  0  0  0  0  0  0  0  0  0
   -7.8265    9.9936  -11.7632 C   0  0  0  0  0  0  0  0  0  0  0  0
   -7.2675   10.6024  -10.6199 C   0  0  0  0  0  0  0  0  0  0  0  0
   -7.6234    9.7358   -9.5255 C   0  0  0  0  0  0  0  0  0  0  0  0
   -8.2741    8.7136   -9.9910 N   0  0  0  0  0  0  0  0  0  0  0  0
   -8.4130    8.8453  -11.3044 N   0  0  0  0  0  0  0  0  0  0  0  0
   -7.3406    9.8933   -8.0338 C   0  0  0  0  0  0  0  0  0  0  0  0
   -4.5538   13.8407  -11.3379 N   0  0  0  0  0  0  0  0  0  0  0  0
   -5.6005   13.6490  -12.1765 C   0  0  3  0  0  0  0  0  0  0  0  0
   -5.9196   14.4808  -13.0199 O   0  0  0  0  0  0  0  0  0  0  0  0
   -5.9590   10.4855   -7.7382 C   0  0  0  0  0  0  0  0  0  0  0  0
   -4.8075    9.7636   -8.0570 C   0  0  0  0  0  0  0  0  0  0  0  0
   -3.5513   10.3099   -7.8070 C   0  0  0  0  0  0  0  0  0  0  0  0
   -3.4406   11.5840   -7.2355 C   0  0  0  0  0  0  0  0  0  0  0  0
   -4.5915   12.3007   -6.9126 C   0  0  0  0  0  0  0  0  0  0  0  0
   -5.8470   11.7538   -7.1581 C   0  0  0  0  0  0  0  0  0  0  0  0
   -2.0979   12.1738   -6.9691 C   0  0  0  0  0  0  0  0  0  0  0  0
   -1.7666   13.4166   -6.4372 C   0  0  0  0  0  0  0  0  0  0  0  0
   -0.4273   13.4768   -6.3903 N   0  0  0  0  0  0  0  0  0  0  0  0
    0.1744   12.4049   -6.8247 N   0  0  0  0  0  0  0  0  0  0  0  0
   -0.8040   11.5944   -7.2012 C   0  0  0  0  0  0  0  0  0  0  0  0
    0.3946   14.5874   -5.9129 C   0  0  0  0  0  0  0  0  0  0  0  0
   -4.1104   13.1199  -10.1564 C   0  0  0  0  0  0  0  0  0  0  0  0
   -3.1547   14.2611   -9.9254 C   0  0  0  0  0  0  0  0  0  0  0  0
   -3.7686   15.0454  -11.0979 C   0  0  0  0  0  0  0  0  0  0  0  0
   -3.3454   14.7999   -8.7258 F   0  0  0  0  0  0  0  0  0  0  0  0
   -1.8808   13.9286  -10.0717 F   0  0  0  0  0  0  0  0  0  0  0  0
   -6.1820   12.2677   -9.8672 H   0  0  0  0  0  0  0  0  0  0  0  0
   -8.2062   10.1164  -13.9009 H   0  0  0  0  0  0  0  0  0  0  0  0
   -6.8838   12.2269  -14.1010 H   0  0  0  0  0  0  0  0  0  0  0  0
   -8.0445    9.6149   -7.2634 H   0  0  0  0  0  0  0  0  0  0  0  0
   -4.9368   13.1569  -12.9027 H   0  0  0  0  0  0  0  0  0  0  0  0
   -5.3206   15.2172  -12.9815 H   0  0  0  0  0  0  0  0  0  0  0  0
   -4.8910    8.7811   -8.4977 H   0  0  0  0  0  0  0  0  0  0  0  0
   -2.6611    9.7505   -8.0541 H   0  0  0  0  0  0  0  0  0  0  0  0
   -4.5085   13.2827   -6.4709 H   0  0  0  0  0  0  0  0  0  0  0  0
   -6.7367   12.3092   -6.9005 H   0  0  0  0  0  0  0  0  0  0  0  0
   -2.4562   14.1858   -6.1223 H   0  0  0  0  0  0  0  0  0  0  0  0
   -0.6475   10.6160   -7.6308 H   0  0  0  0  0  0  0  0  0  0  0  0
    1.4583   14.3222   -6.0031 H   0  0  0  0  0  0  0  0  0  0  0  0
    0.1876   15.4829   -6.5173 H   0  0  0  0  0  0  0  0  0  0  0  0
    0.1562   14.7932   -4.8589 H   0  0  0  0  0  0  0  0  0  0  0  0
   -4.8767   12.9944   -9.3773 H   0  0  0  0  0  0  0  0  0  0  0  0
   -3.6317   12.1505  -10.3594 H   0  0  0  0  0  0  0  0  0  0  0  0
   -3.0652   15.3118  -11.9005 H   0  0  0  0  0  0  0  0  0  0  0  0
   -4.3514   15.9332  -10.8114 H   0  0  0  0  0  0  0  0  0  0  0  0
  1  2  2  0  0  0  0
  1  4  1  0  0  0  0
  1 12  1  0  0  0  0
  2  6  1  0  0  0  0
  3  4  2  0  0  0  0
  3  5  1  0  0  0  0
  5  6  2  0  0  0  0
  5  9  1  0  0  0  0
  6  7  1  0  0  0  0
  7  8  1  0  0  0  0
  7 10  2  3  0  0  0
  8  9  2  0  0  0  0
 10 14  1  0  0  0  0
 11 12  1  0  0  0  0
 11 26  1  0  0  0  0
 11 28  1  0  0  0  0
 12 13  1  0  0  0  0
 14 15  2  0  0  0  0
 14 19  1  0  0  0  0
 15 16  1  0  0  0  0
 16 17  2  0  0  0  0
 17 18  1  0  0  0  0
 17 20  1  0  0  0  0
 18 19  2  0  0  0  0
 20 21  2  0  0  0  0
 20 24  1  0  0  0  0
 21 22  1  0  0  0  0
 22 23  1  0  0  0  0
 22 25  1  0  0  0  0
 23 24  2  0  0  0  0
 26 27  1  0  0  0  0
 27 28  1  0  0  0  0
 27 29  1  0  0  0  0
 27 30  1  0  0  0  0
  2 31  1  0  0  0  0
  3 32  1  0  0  0  0
  4 33  1  0  0  0  0
 10 34  1  0  0  0  0
 12 35  1  0  0  0  0
 13 36  1  0  0  0  0
 15 37  1  0  0  0  0
 16 38  1  0  0  0  0
 18 39  1  0  0  0  0
 19 40  1  0  0  0  0
 21 41  1  0  0  0  0
 24 42  1  0  0  0  0
 25 43  1  0  0  0  0
 25 44  1  0  0  0  0
 25 45  1  0  0  0  0
 26 46  1  0  0  0  0
 26 47  1  0  0  0  0
 28 48  1  0  0  0  0
 28 49  1  0  0  0  0
M  END
> <Name>
34

> <IC50[uM]>
0.007

$$$$
34
  -OEChem-05192314333D
 Structure written by MMmdl.
 49 53  0     0  0  0  0  0  0999 V2000
   -6.4024   12.3461  -12.0147 C   0  0  0  0  0  0  0  0  0  0  0  0
   -6.5825   11.7781  -10.7426 C   0  0  0  0  0  0  0  0  0  0  0  0
   -7.7347   10.5660  -13.0395 C   0  0  0  0  0  0  0  0  0  0  0  0
   -6.9966   11.7550  -13.1361 C   0  0  0  0  0  0  0  0  0  0  0  0
   -7.8265    9.9936  -11.7632 C   0  0  0  0  0  0  0  0  0  0  0  0
   -7.2675   10.6024  -10.6199 C   0  0  0  0  0  0  0  0  0  0  0  0
   -7.6234    9.7358   -9.5255 C   0  0  0  0  0  0  0  0  0  0  0  0
   -8.2741    8.7136   -9.9910 N   0  0  0  0  0  0  0  0  0  0  0  0
   -8.4130    8.8453  -11.3044 N   0  0  0  0  0  0  0  0  0  0  0  0
   -7.3406    9.8933   -8.0338 C   0  0  0  0  0  0  0  0  0  0  0  0
   -4.5538   13.8407  -11.3379 N   0  0  0  0  0  0  0  0  0  0  0  0
   -5.6005   13.6490  -12.1765 C   0  0  0  0  0  0  0  0  0  0  0  0
   -5.9196   14.4808  -13.0199 O   0  0  0  0  0  0  0  0  0  0  0  0
   -5.9590   10.4855   -7.7382 C   0  0  0  0  0  0  0  0  0  0  0  0
   -4.8075    9.7636   -8.0570 C   0  0  0  0  0  0  0  0  0  0  0  0
   -3.5513   10.3099   -7.8070 C   0  0  0  0  0  0  0  0  0  0  0  0
   -3.4406   11.5840   -7.2355 C   0  0  0  0  0  0  0  0  0  0  0  0
   -4.5915   12.3007   -6.9126 C   0  0  0  0  0  0  0  0  0  0  0  0
   -5.8470   11.7538   -7.1581 C   0  0  0  0  0  0  0  0  0  0  0  0
   -2.0979   12.1738   -6.9691 C   0  0  0  0  0  0  0  0  0  0  0  0
   -1.7666   13.4166   -6.4372 C   0  0  0  0  0  0  0  0  0  0  0  0
   -0.4273   13.4768   -6.3903 N   0  0  0  0  0  0  0  0  0  0  0  0
    0.1744   12.4049   -6.8247 N   0  0  0  0  0  0  0  0  0  0  0  0
   -0.8040   11.5944   -7.2012 C   0  0  0  0  0  0  0  0  0  0  0  0
    0.3946   14.5874   -5.9129 C   0  0  0  0  0  0  0  0  0  0  0  0
   -4.1104   13.1199  -10.1564 C   0  0  0  0  0  0  0  0  0  0  0  0
   -3.1547   14.2611   -9.9254 C   0  0  0  0  0  0  0  0  0  0  0  0
   -3.7686   15.0454  -11.0979 C   0  0  0  0  0  0  0  0  0  0  0  0
   -3.3454   14.7999   -8.7258 F   0  0  0  0  0  0  0  0  0  0  0  0
   -1.8808   13.9286  -10.0717 F   0  0  0  0  0  0  0  0  0  0  0  0
   -6.1820   12.2677   -9.8672 H   0  0  0  0  0  0  0  0  0  0  0  0
   -8.2062   10.1164  -13.9009 H   0  0  0  0  0  0  0  0  0  0  0  0
   -6.8838   12.2269  -14.1010 H   0  0  0  0  0  0  0  0  0  0  0  0
   -8.1045   10.5565   -7.6017 H   0  0  0  0  0  0  0  0  0  0  0  0
   -7.4046    8.9027   -7.5598 H   0  0  0  0  0  0  0  0  0  0  0  0
   -5.3206   15.2172  -12.9815 H   0  0  0  0  0  0  0  0  0  0  0  0
   -4.8910    8.7811   -8.4977 H   0  0  0  0  0  0  0  0  0  0  0  0
   -2.6611    9.7505   -8.0541 H   0  0  0  0  0  0  0  0  0  0  0  0
   -4.5085   13.2827   -6.4709 H   0  0  0  0  0  0  0  0  0  0  0  0
   -6.7367   12.3092   -6.9005 H   0  0  0  0  0  0  0  0  0  0  0  0
   -2.4562   14.1858   -6.1223 H   0  0  0  0  0  0  0  0  0  0  0  0
   -0.6475   10.6160   -7.6308 H   0  0  0  0  0  0  0  0  0  0  0  0
    1.4583   14.3222   -6.0031 H   0  0  0  0  0  0  0  0  0  0  0  0
    0.1876   15.4829   -6.5173 H   0  0  0  0  0  0  0  0  0  0  0  0
    0.1562   14.7932   -4.8589 H   0  0  0  0  0  0  0  0  0  0  0  0
   -4.8767   12.9944   -9.3773 H   0  0  0  0  0  0  0  0  0  0  0  0
   -3.6317   12.1505  -10.3594 H   0  0  0  0  0  0  0  0  0  0  0  0
   -3.0652   15.3118  -11.9005 H   0  0  0  0  0  0  0  0  0  0  0  0
   -4.3514   15.9332  -10.8114 H   0  0  0  0  0  0  0  0  0  0  0  0
  1  2  1  0  0  0  0
  1  4  1  0  0  0  0
  1 12  2  3  0  0  0
  2  6  2  0  0  0  0
  3  4  2  0  0  0  0
  3  5  1  0  0  0  0
  5  6  1  0  0  0  0
  5  9  2  0  0  0  0
  6  7  1  0  0  0  0
  7  8  2  0  0  0  0
  7 10  1  0  0  0  0
  8  9  1  0  0  0  0
 10 14  1  0  0  0  0
 11 12  1  0  0  0  0
 11 26  1  0  0  0  0
 11 28  1  0  0  0  0
 12 13  1  0  0  0  0
 14 15  2  0  0  0  0
 14 19  1  0  0  0  0
 15 16  1  0  0  0  0
 16 17  2  0  0  0  0
 17 18  1  0  0  0  0
 17 20  1  0  0  0  0
 18 19  2  0  0  0  0
 20 21  2  0  0  0  0
 20 24  1  0  0  0  0
 21 22  1  0  0  0  0
 22 23  1  0  0  0  0
 22 25  1  0  0  0  0
 23 24  2  0  0  0  0
 26 27  1  0  0  0  0
 27 28  1  0  0  0  0
 27 29  1  0  0  0  0
 27 30  1  0  0  0  0
  2 31  1  0  0  0  0
  3 32  1  0  0  0  0
  4 33  1  0  0  0  0
 10 34  1  0  0  0  0
 10 35  1  0  0  0  0
 13 36  1  0  0  0  0
 15 37  1  0  0  0  0
 16 38  1  0  0  0  0
 18 39  1  0  0  0  0
 19 40  1  0  0  0  0
 21 41  1  0  0  0  0
 24 42  1  0  0  0  0
 25 43  1  0  0  0  0
 25 44  1  0  0  0  0
 25 45  1  0  0  0  0
 26 46  1  0  0  0  0
 26 47  1  0  0  0  0
 28 48  1  0  0  0  0
 28 49  1  0  0  0  0
M  END
> <Name>
34

> <IC50[uM]>
0.007

$$$$
34
  -OEChem-05192314333D
 Structure written by MMmdl.
 49 53  0     1  0  0  0  0  0999 V2000
   -6.4024   12.3461  -12.0147 C   0  0  0  0  0  0  0  0  0  0  0  0
   -6.5825   11.7781  -10.7426 C   0  0  0  0  0  0  0  0  0  0  0  0
   -7.7347   10.5660  -13.0395 C   0  0  0  0  0  0  0  0  0  0  0  0
   -6.9966   11.7550  -13.1361 C   0  0  0  0  0  0  0  0  0  0  0  0
   -7.8265    9.9936  -11.7632 C   0  0  0  0  0  0  0  0  0  0  0  0
   -7.2675   10.6024  -10.6199 C   0  0  0  0  0  0  0  0  0  0  0  0
   -7.6234    9.7358   -9.5255 C   0  0  0  0  0  0  0  0  0  0  0  0
   -8.2741    8.7136   -9.9910 N   0  0  0  0  0  0  0  0  0  0  0  0
   -8.4130    8.8453  -11.3044 N   0  0  0  0  0  0  0  0  0  0  0  0
   -7.3406    9.8933   -8.0338 C   0  0  0  0  0  0  0  0  0  0  0  0
   -4.5538   13.8407  -11.3379 N   0  0  0  0  0  0  0  0  0  0  0  0
   -5.6005   13.6490  -12.1765 C   0  0  0  0  0  0  0  0  0  0  0  0
   -5.9196   14.4808  -13.0199 O   0  0  0  0  0  0  0  0  0  0  0  0
   -5.9590   10.4855   -7.7382 C   0  0  0  0  0  0  0  0  0  0  0  0
   -4.8075    9.7636   -8.0570 C   0  0  0  0  0  0  0  0  0  0  0  0
   -3.5513   10.3099   -7.8070 C   0  0  0  0  0  0  0  0  0  0  0  0
   -3.4406   11.5840   -7.2355 C   0  0  0  0  0  0  0  0  0  0  0  0
   -4.5915   12.3007   -6.9126 C   0  0  0  0  0  0  0  0  0  0  0  0
   -5.8470   11.7538   -7.1581 C   0  0  0  0  0  0  0  0  0  0  0  0
   -2.0979   12.1738   -6.9691 C   0  0  0  0  0  0  0  0  0  0  0  0
   -1.7666   13.4166   -6.4372 C   0  0  0  0  0  0  0  0  0  0  0  0
   -0.4273   13.4768   -6.3903 N   0  0  3  0  0  0  0  0  0  0  0  0
    0.1744   12.4049   -6.8247 N   0  0  0  0  0  0  0  0  0  0  0  0
   -0.8040   11.5944   -7.2012 C   0  0  0  0  0  0  0  0  0  0  0  0
    0.3946   14.5874   -5.9129 C   0  0  0  0  0  0  0  0  0  0  0  0
   -4.1104   13.1199  -10.1564 C   0  0  0  0  0  0  0  0  0  0  0  0
   -3.1547   14.2611   -9.9254 C   0  0  0  0  0  0  0  0  0  0  0  0
   -3.7686   15.0454  -11.0979 C   0  0  0  0  0  0  0  0  0  0  0  0
   -3.3454   14.7999   -8.7258 F   0  0  0  0  0  0  0  0  0  0  0  0
   -1.8808   13.9286  -10.0717 F   0  0  0  0  0  0  0  0  0  0  0  0
   -6.1820   12.2677   -9.8672 H   0  0  0  0  0  0  0  0  0  0  0  0
   -8.2062   10.1164  -13.9009 H   0  0  0  0  0  0  0  0  0  0  0  0
   -6.8838   12.2269  -14.1010 H   0  0  0  0  0  0  0  0  0  0  0  0
   -8.0445    9.6149   -7.2634 H   0  0  0  0  0  0  0  0  0  0  0  0
   -5.3206   15.2172  -12.9815 H   0  0  0  0  0  0  0  0  0  0  0  0
   -4.8910    8.7811   -8.4977 H   0  0  0  0  0  0  0  0  0  0  0  0
   -2.6611    9.7505   -8.0541 H   0  0  0  0  0  0  0  0  0  0  0  0
   -4.5085   13.2827   -6.4709 H   0  0  0  0  0  0  0  0  0  0  0  0
   -6.7367   12.3092   -6.9005 H   0  0  0  0  0  0  0  0  0  0  0  0
   -2.1589   14.2193   -7.0789 H   0  0  0  0  0  0  0  0  0  0  0  0
   -2.1853   13.5185   -5.4251 H   0  0  0  0  0  0  0  0  0  0  0  0
   -0.6475   10.6160   -7.6308 H   0  0  0  0  0  0  0  0  0  0  0  0
    1.4583   14.3222   -6.0031 H   0  0  0  0  0  0  0  0  0  0  0  0
    0.1876   15.4829   -6.5173 H   0  0  0  0  0  0  0  0  0  0  0  0
    0.1562   14.7932   -4.8589 H   0  0  0  0  0  0  0  0  0  0  0  0
   -4.8767   12.9944   -9.3773 H   0  0  0  0  0  0  0  0  0  0  0  0
   -3.6317   12.1505  -10.3594 H   0  0  0  0  0  0  0  0  0  0  0  0
   -3.0652   15.3118  -11.9005 H   0  0  0  0  0  0  0  0  0  0  0  0
   -4.3514   15.9332  -10.8114 H   0  0  0  0  0  0  0  0  0  0  0  0
  1  2  1  0  0  0  0
  1  4  1  0  0  0  0
  1 12  2  3  0  0  0
  2  6  2  0  0  0  0
  3  4  2  0  0  0  0
  3  5  1  0  0  0  0
  5  6  1  0  0  0  0
  5  9  2  0  0  0  0
  6  7  1  0  0  0  0
  7  8  2  0  0  0  0
  7 10  1  0  0  0  0
  8  9  1  0  0  0  0
 10 14  2  0  0  0  0
 11 12  1  0  0  0  0
 11 26  1  0  0  0  0
 11 28  1  0  0  0  0
 12 13  1  0  0  0  0
 14 15  1  0  0  0  0
 14 19  1  0  0  0  0
 15 16  2  0  0  0  0
 16 17  1  0  0  0  0
 17 18  1  0  0  0  0
 17 20  2  0  0  0  0
 18 19  2  0  0  0  0
 20 21  1  0  0  0  0
 20 24  1  0  0  0  0
 21 22  1  0  0  0  0
 22 23  1  0  0  0  0
 22 25  1  0  0  0  0
 23 24  2  0  0  0  0
 26 27  1  0  0  0  0
 27 28  1  0  0  0  0
 27 29  1  0  0  0  0
 27 30  1  0  0  0  0
  2 31  1  0  0  0  0
  3 32  1  0  0  0  0
  4 33  1  0  0  0  0
 10 34  1  0  0  0  0
 13 35  1  0  0  0  0
 15 36  1  0  0  0  0
 16 37  1  0  0  0  0
 18 38  1  0  0  0  0
 19 39  1  0  0  0  0
 21 40  1  0  0  0  0
 21 41  1  0  0  0  0
 24 42  1  0  0  0  0
 25 43  1  0  0  0  0
 25 44  1  0  0  0  0
 25 45  1  0  0  0  0
 26 46  1  0  0  0  0
 26 47  1  0  0  0  0
 28 48  1  0  0  0  0
 28 49  1  0  0  0  0
M  END
> <Name>
34

> <IC50[uM]>
0.007

$$$$
34
  -OEChem-05192314333D
 Structure written by MMmdl.
 49 53  0     1  0  0  0  0  0999 V2000
   -6.4024   12.3461  -12.0147 C   0  0  0  0  0  0  0  0  0  0  0  0
   -6.5825   11.7781  -10.7426 C   0  0  0  0  0  0  0  0  0  0  0  0
   -7.7347   10.5660  -13.0395 C   0  0  0  0  0  0  0  0  0  0  0  0
   -6.9966   11.7550  -13.1361 C   0  0  0  0  0  0  0  0  0  0  0  0
   -7.8265    9.9936  -11.7632 C   0  0  3  0  0  0  0  0  0  0  0  0
   -7.2675   10.6024  -10.6199 C   0  0  0  0  0  0  0  0  0  0  0  0
   -7.6234    9.7358   -9.5255 C   0  0  0  0  0  0  0  0  0  0  0  0
   -8.2741    8.7136   -9.9910 N   0  0  0  0  0  0  0  0  0  0  0  0
   -8.4130    8.8453  -11.3044 N   0  0  0  0  0  0  0  0  0  0  0  0
   -7.3406    9.8933   -8.0338 C   0  0  0  0  0  0  0  0  0  0  0  0
   -4.5538   13.8407  -11.3379 N   0  0  0  0  0  0  0  0  0  0  0  0
   -5.6005   13.6490  -12.1765 C   0  0  0  0  0  0  0  0  0  0  0  0
   -5.9196   14.4808  -13.0199 O   0  0  0  0  0  0  0  0  0  0  0  0
   -5.9590   10.4855   -7.7382 C   0  0  0  0  0  0  0  0  0  0  0  0
   -4.8075    9.7636   -8.0570 C   0  0  0  0  0  0  0  0  0  0  0  0
   -3.5513   10.3099   -7.8070 C   0  0  0  0  0  0  0  0  0  0  0  0
   -3.4406   11.5840   -7.2355 C   0  0  0  0  0  0  0  0  0  0  0  0
   -4.5915   12.3007   -6.9126 C   0  0  0  0  0  0  0  0  0  0  0  0
   -5.8470   11.7538   -7.1581 C   0  0  0  0  0  0  0  0  0  0  0  0
   -2.0979   12.1738   -6.9691 C   0  0  0  0  0  0  0  0  0  0  0  0
   -1.7666   13.4166   -6.4372 C   0  0  0  0  0  0  0  0  0  0  0  0
   -0.4273   13.4768   -6.3903 N   0  0  0  0  0  0  0  0  0  0  0  0
    0.1744   12.4049   -6.8247 N   0  0  0  0  0  0  0  0  0  0  0  0
   -0.8040   11.5944   -7.2012 C   0  0  0  0  0  0  0  0  0  0  0  0
    0.3946   14.5874   -5.9129 C   0  0  0  0  0  0  0  0  0  0  0  0
   -4.1104   13.1199  -10.1564 C   0  0  0  0  0  0  0  0  0  0  0  0
   -3.1547   14.2611   -9.9254 C   0  0  0  0  0  0  0  0  0  0  0  0
   -3.7686   15.0454  -11.0979 C   0  0  0  0  0  0  0  0  0  0  0  0
   -3.3454   14.7999   -8.7258 F   0  0  0  0  0  0  0  0  0  0  0  0
   -1.8808   13.9286  -10.0717 F   0  0  0  0  0  0  0  0  0  0  0  0
   -6.1820   12.2677   -9.8672 H   0  0  0  0  0  0  0  0  0  0  0  0
   -8.2062   10.1164  -13.9009 H   0  0  0  0  0  0  0  0  0  0  0  0
   -6.8838   12.2269  -14.1010 H   0  0  0  0  0  0  0  0  0  0  0  0
   -6.8869    9.4485  -11.9364 H   0  0  0  0  0  0  0  0  0  0  0  0
   -8.0445    9.6149   -7.2634 H   0  0  0  0  0  0  0  0  0  0  0  0
   -5.3206   15.2172  -12.9815 H   0  0  0  0  0  0  0  0  0  0  0  0
   -4.8910    8.7811   -8.4977 H   0  0  0  0  0  0  0  0  0  0  0  0
   -2.6611    9.7505   -8.0541 H   0  0  0  0  0  0  0  0  0  0  0  0
   -4.5085   13.2827   -6.4709 H   0  0  0  0  0  0  0  0  0  0  0  0
   -6.7367   12.3092   -6.9005 H   0  0  0  0  0  0  0  0  0  0  0  0
   -2.4562   14.1858   -6.1223 H   0  0  0  0  0  0  0  0  0  0  0  0
   -0.6475   10.6160   -7.6308 H   0  0  0  0  0  0  0  0  0  0  0  0
    1.4583   14.3222   -6.0031 H   0  0  0  0  0  0  0  0  0  0  0  0
    0.1876   15.4829   -6.5173 H   0  0  0  0  0  0  0  0  0  0  0  0
    0.1562   14.7932   -4.8589 H   0  0  0  0  0  0  0  0  0  0  0  0
   -4.8767   12.9944   -9.3773 H   0  0  0  0  0  0  0  0  0  0  0  0
   -3.6317   12.1505  -10.3594 H   0  0  0  0  0  0  0  0  0  0  0  0
   -3.0652   15.3118  -11.9005 H   0  0  0  0  0  0  0  0  0  0  0  0
   -4.3514   15.9332  -10.8114 H   0  0  0  0  0  0  0  0  0  0  0  0
  1  2  1  0  0  0  0
  1  4  1  0  0  0  0
  1 12  2  3  0  0  0
  2  6  2  0  0  0  0
  3  4  2  0  0  0  0
  3  5  1  0  0  0  0
  5  6  1  0  0  0  0
  5  9  1  0  0  0  0
  6  7  1  0  0  0  0
  7  8  1  0  0  0  0
  7 10  2  3  0  0  0
  8  9  2  0  0  0  0
 10 14  1  0  0  0  0
 11 12  1  0  0  0  0
 11 26  1  0  0  0  0
 11 28  1  0  0  0  0
 12 13  1  0  0  0  0
 14 15  2  0  0  0  0
 14 19  1  0  0  0  0
 15 16  1  0  0  0  0
 16 17  2  0  0  0  0
 17 18  1  0  0  0  0
 17 20  1  0  0  0  0
 18 19  2  0  0  0  0
 20 21  2  0  0  0  0
 20 24  1  0  0  0  0
 21 22  1  0  0  0  0
 22 23  1  0  0  0  0
 22 25  1  0  0  0  0
 23 24  2  0  0  0  0
 26 27  1  0  0  0  0
 27 28  1  0  0  0  0
 27 29  1  0  0  0  0
 27 30  1  0  0  0  0
  2 31  1  0  0  0  0
  3 32  1  0  0  0  0
  4 33  1  0  0  0  0
  5 34  1  0  0  0  0
 10 35  1  0  0  0  0
 13 36  1  0  0  0  0
 15 37  1  0  0  0  0
 16 38  1  0  0  0  0
 18 39  1  0  0  0  0
 19 40  1  0  0  0  0
 21 41  1  0  0  0  0
 24 42  1  0  0  0  0
 25 43  1  0  0  0  0
 25 44  1  0  0  0  0
 25 45  1  0  0  0  0
 26 46  1  0  0  0  0
 26 47  1  0  0  0  0
 28 48  1  0  0  0  0
 28 49  1  0  0  0  0
M  END
> <Name>
34

> <IC50[uM]>
0.007

$$$$
34
  -OEChem-05192314333D
 Structure written by MMmdl.
 49 53  0     0  0  0  0  0  0999 V2000
   -6.4024   12.3461  -12.0147 C   0  0  0  0  0  0  0  0  0  0  0  0
   -6.5825   11.7781  -10.7426 C   0  0  0  0  0  0  0  0  0  0  0  0
   -7.7347   10.5660  -13.0395 C   0  0  0  0  0  0  0  0  0  0  0  0
   -6.9966   11.7550  -13.1361 C   0  0  0  0  0  0  0  0  0  0  0  0
   -7.8265    9.9936  -11.7632 C   0  0  0  0  0  0  0  0  0  0  0  0
   -7.2675   10.6024  -10.6199 C   0  0  0  0  0  0  0  0  0  0  0  0
   -7.6234    9.7358   -9.5255 C   0  0  0  0  0  0  0  0  0  0  0  0
   -8.2741    8.7136   -9.9910 N   0  0  0  0  0  0  0  0  0  0  0  0
   -8.4130    8.8453  -11.3044 N   0  0  0  0  0  0  0  0  0  0  0  0
   -7.3406    9.8933   -8.0338 C   0  0  0  0  0  0  0  0  0  0  0  0
   -4.5538   13.8407  -11.3379 N   0  0  0  0  0  0  0  0  0  0  0  0
   -5.6005   13.6490  -12.1765 C   0  0  0  0  0  0  0  0  0  0  0  0
   -5.9196   14.4808  -13.0199 O   0  0  0  0  0  0  0  0  0  0  0  0
   -5.9590   10.4855   -7.7382 C   0  0  0  0  0  0  0  0  0  0  0  0
   -4.8075    9.7636   -8.0570 C   0  0  0  0  0  0  0  0  0  0  0  0
   -3.5513   10.3099   -7.8070 C   0  0  0  0  0  0  0  0  0  0  0  0
   -3.4406   11.5840   -7.2355 C   0  0  0  0  0  0  0  0  0  0  0  0
   -4.5915   12.3007   -6.9126 C   0  0  0  0  0  0  0  0  0  0  0  0
   -5.8470   11.7538   -7.1581 C   0  0  0  0  0  0  0  0  0  0  0  0
   -2.0979   12.1738   -6.9691 C   0  0  0  0  0  0  0  0  0  0  0  0
   -1.7666   13.4166   -6.4372 C   0  0  0  0  0  0  0  0  0  0  0  0
   -0.4273   13.4768   -6.3903 N   0  0  0  0  0  0  0  0  0  0  0  0
    0.1744   12.4049   -6.8247 N   0  0  0  0  0  0  0  0  0  0  0  0
   -0.8040   11.5944   -7.2012 C   0  0  0  0  0  0  0  0  0  0  0  0
    0.3946   14.5874   -5.9129 C   0  0  0  0  0  0  0  0  0  0  0  0
   -4.1104   13.1199  -10.1564 C   0  0  0  0  0  0  0  0  0  0  0  0
   -3.1547   14.2611   -9.9254 C   0  0  0  0  0  0  0  0  0  0  0  0
   -3.7686   15.0454  -11.0979 C   0  0  0  0  0  0  0  0  0  0  0  0
   -3.3454   14.7999   -8.7258 F   0  0  0  0  0  0  0  0  0  0  0  0
   -1.8808   13.9286  -10.0717 F   0  0  0  0  0  0  0  0  0  0  0  0
   -6.1820   12.2677   -9.8672 H   0  0  0  0  0  0  0  0  0  0  0  0
   -8.2062   10.1164  -13.9009 H   0  0  0  0  0  0  0  0  0  0  0  0
   -7.6779   12.5084  -13.5582 H   0  0  0  0  0  0  0  0  0  0  0  0
   -6.1826   11.5565  -13.8488 H   0  0  0  0  0  0  0  0  0  0  0  0
   -8.0445    9.6149   -7.2634 H   0  0  0  0  0  0  0  0  0  0  0  0
   -5.3206   15.2172  -12.9815 H   0  0  0  0  0  0  0  0  0  0  0  0
   -4.8910    8.7811   -8.4977 H   0  0  0  0  0  0  0  0  0  0  0  0
   -2.6611    9.7505   -8.0541 H   0  0  0  0  0  0  0  0  0  0  0  0
   -4.5085   13.2827   -6.4709 H   0  0  0  0  0  0  0  0  0  0  0  0
   -6.7367   12.3092   -6.9005 H   0  0  0  0  0  0  0  0  0  0  0  0
   -2.4562   14.1858   -6.1223 H   0  0  0  0  0  0  0  0  0  0  0  0
   -0.6475   10.6160   -7.6308 H   0  0  0  0  0  0  0  0  0  0  0  0
    1.4583   14.3222   -6.0031 H   0  0  0  0  0  0  0  0  0  0  0  0
    0.1876   15.4829   -6.5173 H   0  0  0  0  0  0  0  0  0  0  0  0
    0.1562   14.7932   -4.8589 H   0  0  0  0  0  0  0  0  0  0  0  0
   -4.8767   12.9944   -9.3773 H   0  0  0  0  0  0  0  0  0  0  0  0
   -3.6317   12.1505  -10.3594 H   0  0  0  0  0  0  0  0  0  0  0  0
   -3.0652   15.3118  -11.9005 H   0  0  0  0  0  0  0  0  0  0  0  0
   -4.3514   15.9332  -10.8114 H   0  0  0  0  0  0  0  0  0  0  0  0
  1  2  1  0  0  0  0
  1  4  1  0  0  0  0
  1 12  2  3  0  0  0
  2  6  2  0  0  0  0
  3  4  1  0  0  0  0
  3  5  2  0  0  0  0
  5  6  1  0  0  0  0
  5  9  1  0  0  0  0
  6  7  1  0  0  0  0
  7  8  1  0  0  0  0
  7 10  2  3  0  0  0
  8  9  2  0  0  0  0
 10 14  1  0  0  0  0
 11 12  1  0  0  0  0
 11 26  1  0  0  0  0
 11 28  1  0  0  0  0
 12 13  1  0  0  0  0
 14 15  2  0  0  0  0
 14 19  1  0  0  0  0
 15 16  1  0  0  0  0
 16 17  2  0  0  0  0
 17 18  1  0  0  0  0
 17 20  1  0  0  0  0
 18 19  2  0  0  0  0
 20 21  2  0  0  0  0
 20 24  1  0  0  0  0
 21 22  1  0  0  0  0
 22 23  1  0  0  0  0
 22 25  1  0  0  0  0
 23 24  2  0  0  0  0
 26 27  1  0  0  0  0
 27 28  1  0  0  0  0
 27 29  1  0  0  0  0
 27 30  1  0  0  0  0
  2 31  1  0  0  0  0
  3 32  1  0  0  0  0
  4 33  1  0  0  0  0
  4 34  1  0  0  0  0
 10 35  1  0  0  0  0
 13 36  1  0  0  0  0
 15 37  1  0  0  0  0
 16 38  1  0  0  0  0
 18 39  1  0  0  0  0
 19 40  1  0  0  0  0
 21 41  1  0  0  0  0
 24 42  1  0  0  0  0
 25 43  1  0  0  0  0
 25 44  1  0  0  0  0
 25 45  1  0  0  0  0
 26 46  1  0  0  0  0
 26 47  1  0  0  0  0
 28 48  1  0  0  0  0
 28 49  1  0  0  0  0
M  END
> <Name>
34

> <IC50[uM]>
0.007

$$$$
34
  -OEChem-05192314333D
 Structure written by MMmdl.
 49 53  0     0  0  0  0  0  0999 V2000
   -6.4024   12.3461  -12.0147 C   0  0  0  0  0  0  0  0  0  0  0  0
   -6.5825   11.7781  -10.7426 C   0  0  0  0  0  0  0  0  0  0  0  0
   -7.7347   10.5660  -13.0395 C   0  0  0  0  0  0  0  0  0  0  0  0
   -6.9966   11.7550  -13.1361 C   0  0  0  0  0  0  0  0  0  0  0  0
   -7.8265    9.9936  -11.7632 C   0  0  0  0  0  0  0  0  0  0  0  0
   -7.2675   10.6024  -10.6199 C   0  0  0  0  0  0  0  0  0  0  0  0
   -7.6234    9.7358   -9.5255 C   0  0  0  0  0  0  0  0  0  0  0  0
   -8.2741    8.7136   -9.9910 N   0  0  0  0  0  0  0  0  0  0  0  0
   -8.4130    8.8453  -11.3044 N   0  0  0  0  0  0  0  0  0  0  0  0
   -7.3406    9.8933   -8.0338 C   0  0  0  0  0  0  0  0  0  0  0  0
   -4.5538   13.8407  -11.3379 N   0  0  0  0  0  0  0  0  0  0  0  0
   -5.6005   13.6490  -12.1765 C   0  0  0  0  0  0  0  0  0  0  0  0
   -5.9196   14.4808  -13.0199 O   0  0  0  0  0  0  0  0  0  0  0  0
   -5.9590   10.4855   -7.7382 C   0  0  0  0  0  0  0  0  0  0  0  0
   -4.8075    9.7636   -8.0570 C   0  0  0  0  0  0  0  0  0  0  0  0
   -3.5513   10.3099   -7.8070 C   0  0  0  0  0  0  0  0  0  0  0  0
   -3.4406   11.5840   -7.2355 C   0  0  0  0  0  0  0  0  0  0  0  0
   -4.5915   12.3007   -6.9126 C   0  0  0  0  0  0  0  0  0  0  0  0
   -5.8470   11.7538   -7.1581 C   0  0  0  0  0  0  0  0  0  0  0  0
   -2.0979   12.1738   -6.9691 C   0  0  0  0  0  0  0  0  0  0  0  0
   -1.7666   13.4166   -6.4372 C   0  0  0  0  0  0  0  0  0  0  0  0
   -0.4273   13.4768   -6.3903 N   0  0  0  0  0  0  0  0  0  0  0  0
    0.1744   12.4049   -6.8247 N   0  0  0  0  0  0  0  0  0  0  0  0
   -0.8040   11.5944   -7.2012 C   0  0  0  0  0  0  0  0  0  0  0  0
    0.3946   14.5874   -5.9129 C   0  0  0  0  0  0  0  0  0  0  0  0
   -4.1104   13.1199  -10.1564 C   0  0  0  0  0  0  0  0  0  0  0  0
   -3.1547   14.2611   -9.9254 C   0  0  0  0  0  0  0  0  0  0  0  0
   -3.7686   15.0454  -11.0979 C   0  0  0  0  0  0  0  0  0  0  0  0
   -3.3454   14.7999   -8.7258 F   0  0  0  0  0  0  0  0  0  0  0  0
   -1.8808   13.9286  -10.0717 F   0  0  0  0  0  0  0  0  0  0  0  0
   -5.5797   11.6090  -10.3232 H   0  0  0  0  0  0  0  0  0  0  0  0
   -7.1143   12.5230  -10.1324 H   0  0  0  0  0  0  0  0  0  0  0  0
   -8.2062   10.1164  -13.9009 H   0  0  0  0  0  0  0  0  0  0  0  0
   -6.8838   12.2269  -14.1010 H   0  0  0  0  0  0  0  0  0  0  0  0
   -8.0445    9.6149   -7.2634 H   0  0  0  0  0  0  0  0  0  0  0  0
   -5.3206   15.2172  -12.9815 H   0  0  0  0  0  0  0  0  0  0  0  0
   -4.8910    8.7811   -8.4977 H   0  0  0  0  0  0  0  0  0  0  0  0
   -2.6611    9.7505   -8.0541 H   0  0  0  0  0  0  0  0  0  0  0  0
   -4.5085   13.2827   -6.4709 H   0  0  0  0  0  0  0  0  0  0  0  0
   -6.7367   12.3092   -6.9005 H   0  0  0  0  0  0  0  0  0  0  0  0
   -2.4562   14.1858   -6.1223 H   0  0  0  0  0  0  0  0  0  0  0  0
   -0.6475   10.6160   -7.6308 H   0  0  0  0  0  0  0  0  0  0  0  0
    1.4583   14.3222   -6.0031 H   0  0  0  0  0  0  0  0  0  0  0  0
    0.1876   15.4829   -6.5173 H   0  0  0  0  0  0  0  0  0  0  0  0
    0.1562   14.7932   -4.8589 H   0  0  0  0  0  0  0  0  0  0  0  0
   -4.8767   12.9944   -9.3773 H   0  0  0  0  0  0  0  0  0  0  0  0
   -3.6317   12.1505  -10.3594 H   0  0  0  0  0  0  0  0  0  0  0  0
   -3.0652   15.3118  -11.9005 H   0  0  0  0  0  0  0  0  0  0  0  0
   -4.3514   15.9332  -10.8114 H   0  0  0  0  0  0  0  0  0  0  0  0
  1  2  1  0  0  0  0
  1  4  1  0  0  0  0
  1 12  2  3  0  0  0
  2  6  1  0  0  0  0
  3  4  2  0  0  0  0
  3  5  1  0  0  0  0
  5  6  2  0  0  0  0
  5  9  1  0  0  0  0
  6  7  1  0  0  0  0
  7  8  1  0  0  0  0
  7 10  2  3  0  0  0
  8  9  2  0  0  0  0
 10 14  1  0  0  0  0
 11 12  1  0  0  0  0
 11 26  1  0  0  0  0
 11 28  1  0  0  0  0
 12 13  1  0  0  0  0
 14 15  2  0  0  0  0
 14 19  1  0  0  0  0
 15 16  1  0  0  0  0
 16 17  2  0  0  0  0
 17 18  1  0  0  0  0
 17 20  1  0  0  0  0
 18 19  2  0  0  0  0
 20 21  2  0  0  0  0
 20 24  1  0  0  0  0
 21 22  1  0  0  0  0
 22 23  1  0  0  0  0
 22 25  1  0  0  0  0
 23 24  2  0  0  0  0
 26 27  1  0  0  0  0
 27 28  1  0  0  0  0
 27 29  1  0  0  0  0
 27 30  1  0  0  0  0
  2 31  1  0  0  0  0
  2 32  1  0  0  0  0
  3 33  1  0  0  0  0
  4 34  1  0  0  0  0
 10 35  1  0  0  0  0
 13 36  1  0  0  0  0
 15 37  1  0  0  0  0
 16 38  1  0  0  0  0
 18 39  1  0  0  0  0
 19 40  1  0  0  0  0
 21 41  1  0  0  0  0
 24 42  1  0  0  0  0
 25 43  1  0  0  0  0
 25 44  1  0  0  0  0
 25 45  1  0  0  0  0
 26 46  1  0  0  0  0
 26 47  1  0  0  0  0
 28 48  1  0  0  0  0
 28 49  1  0  0  0  0
M  END
> <Name>
34

> <IC50[uM]>
0.007

$$$$
34
  -OEChem-05192314333D
 Structure written by MMmdl.
 49 53  0     0  0  0  0  0  0999 V2000
   -6.4024   12.3461  -12.0147 C   0  0  0  0  0  0  0  0  0  0  0  0
   -6.5825   11.7781  -10.7426 C   0  0  0  0  0  0  0  0  0  0  0  0
   -7.7347   10.5660  -13.0395 C   0  0  0  0  0  0  0  0  0  0  0  0
   -6.9966   11.7550  -13.1361 C   0  0  0  0  0  0  0  0  0  0  0  0
   -7.8265    9.9936  -11.7632 C   0  0  0  0  0  0  0  0  0  0  0  0
   -7.2675   10.6024  -10.6199 C   0  0  0  0  0  0  0  0  0  0  0  0
   -7.6234    9.7358   -9.5255 C   0  0  0  0  0  0  0  0  0  0  0  0
   -8.2741    8.7136   -9.9910 N   0  0  0  0  0  0  0  0  0  0  0  0
   -8.4130    8.8453  -11.3044 N   0  0  0  0  0  0  0  0  0  0  0  0
   -7.3406    9.8933   -8.0338 C   0  0  0  0  0  0  0  0  0  0  0  0
   -4.5538   13.8407  -11.3379 N   0  0  0  0  0  0  0  0  0  0  0  0
   -5.6005   13.6490  -12.1765 C   0  0  0  0  0  0  0  0  0  0  0  0
   -5.9196   14.4808  -13.0199 O   0  0  0  0  0  0  0  0  0  0  0  0
   -5.9590   10.4855   -7.7382 C   0  0  0  0  0  0  0  0  0  0  0  0
   -4.8075    9.7636   -8.0570 C   0  0  0  0  0  0  0  0  0  0  0  0
   -3.5513   10.3099   -7.8070 C   0  0  0  0  0  0  0  0  0  0  0  0
   -3.4406   11.5840   -7.2355 C   0  0  0  0  0  0  0  0  0  0  0  0
   -4.5915   12.3007   -6.9126 C   0  0  0  0  0  0  0  0  0  0  0  0
   -5.8470   11.7538   -7.1581 C   0  0  0  0  0  0  0  0  0  0  0  0
   -2.0979   12.1738   -6.9691 C   0  0  0  0  0  0  0  0  0  0  0  0
   -1.7666   13.4166   -6.4372 C   0  0  0  0  0  0  0  0  0  0  0  0
   -0.4273   13.4768   -6.3903 N   0  0  0  0  0  0  0  0  0  0  0  0
    0.1744   12.4049   -6.8247 N   0  0  0  0  0  0  0  0  0  0  0  0
   -0.8040   11.5944   -7.2012 C   0  0  0  0  0  0  0  0  0  0  0  0
    0.3946   14.5874   -5.9129 C   0  0  0  0  0  0  0  0  0  0  0  0
   -4.1104   13.1199  -10.1564 C   0  0  0  0  0  0  0  0  0  0  0  0
   -3.1547   14.2611   -9.9254 C   0  0  0  0  0  0  0  0  0  0  0  0
   -3.7686   15.0454  -11.0979 C   0  0  0  0  0  0  0  0  0  0  0  0
   -3.3454   14.7999   -8.7258 F   0  0  0  0  0  0  0  0  0  0  0  0
   -1.8808   13.9286  -10.0717 F   0  0  0  0  0  0  0  0  0  0  0  0
   -6.1820   12.2677   -9.8672 H   0  0  0  0  0  0  0  0  0  0  0  0
   -8.2062   10.1164  -13.9009 H   0  0  0  0  0  0  0  0  0  0  0  0
   -6.8838   12.2269  -14.1010 H   0  0  0  0  0  0  0  0  0  0  0  0
   -8.0445    9.6149   -7.2634 H   0  0  0  0  0  0  0  0  0  0  0  0
   -5.3206   15.2172  -12.9815 H   0  0  0  0  0  0  0  0  0  0  0  0
   -4.8910    8.7811   -8.4977 H   0  0  0  0  0  0  0  0  0  0  0  0
   -2.6611    9.7505   -8.0541 H   0  0  0  0  0  0  0  0  0  0  0  0
   -3.4404   12.0349   -8.2388 H   0  0  0  0  0  0  0  0  0  0  0  0
   -4.5085   13.2827   -6.4709 H   0  0  0  0  0  0  0  0  0  0  0  0
   -6.7367   12.3092   -6.9005 H   0  0  0  0  0  0  0  0  0  0  0  0
   -2.4562   14.1858   -6.1223 H   0  0  0  0  0  0  0  0  0  0  0  0
   -0.6475   10.6160   -7.6308 H   0  0  0  0  0  0  0  0  0  0  0  0
    1.4583   14.3222   -6.0031 H   0  0  0  0  0  0  0  0  0  0  0  0
    0.1876   15.4829   -6.5173 H   0  0  0  0  0  0  0  0  0  0  0  0
    0.1562   14.7932   -4.8589 H   0  0  0  0  0  0  0  0  0  0  0  0
   -4.8767   12.9944   -9.3773 H   0  0  0  0  0  0  0  0  0  0  0  0
   -3.6317   12.1505  -10.3594 H   0  0  0  0  0  0  0  0  0  0  0  0
   -3.0652   15.3118  -11.9005 H   0  0  0  0  0  0  0  0  0  0  0  0
   -4.3514   15.9332  -10.8114 H   0  0  0  0  0  0  0  0  0  0  0  0
  1  2  1  0  0  0  0
  1  4  1  0  0  0  0
  1 12  2  3  0  0  0
  2  6  2  0  0  0  0
  3  4  2  0  0  0  0
  3  5  1  0  0  0  0
  5  6  1  0  0  0  0
  5  9  2  0  0  0  0
  6  7  1  0  0  0  0
  7  8  2  0  0  0  0
  7 10  1  0  0  0  0
  8  9  1  0  0  0  0
 10 14  2  0  0  0  0
 11 12  1  0  0  0  0
 11 26  1  0  0  0  0
 11 28  1  0  0  0  0
 12 13  1  0  0  0  0
 14 15  1  0  0  0  0
 14 19  1  0  0  0  0
 15 16  2  0  0  0  0
 16 17  1  0  0  0  0
 17 18  1  0  0  0  0
 17 20  1  0  0  0  0
 18 19  2  0  0  0  0
 20 21  2  0  0  0  0
 20 24  1  0  0  0  0
 21 22  1  0  0  0  0
 22 23  1  0  0  0  0
 22 25  1  0  0  0  0
 23 24  2  0  0  0  0
 26 27  1  0  0  0  0
 27 28  1  0  0  0  0
 27 29  1  0  0  0  0
 27 30  1  0  0  0  0
  2 31  1  0  0  0  0
  3 32  1  0  0  0  0
  4 33  1  0  0  0  0
 10 34  1  0  0  0  0
 13 35  1  0  0  0  0
 15 36  1  0  0  0  0
 16 37  1  0  0  0  0
 17 38  1  0  0  0  0
 18 39  1  0  0  0  0
 19 40  1  0  0  0  0
 21 41  1  0  0  0  0
 24 42  1  0  0  0  0
 25 43  1  0  0  0  0
 25 44  1  0  0  0  0
 25 45  1  0  0  0  0
 26 46  1  0  0  0  0
 26 47  1  0  0  0  0
 28 48  1  0  0  0  0
 28 49  1  0  0  0  0
M  END
> <Name>
34

> <IC50[uM]>
0.007

$$$$
34
  -OEChem-05192314333D
 Structure written by MMmdl.
 49 53  0     0  0  0  0  0  0999 V2000
   -6.4024   12.3461  -12.0147 C   0  0  0  0  0  0  0  0  0  0  0  0
   -6.5825   11.7781  -10.7426 C   0  0  0  0  0  0  0  0  0  0  0  0
   -7.7347   10.5660  -13.0395 C   0  0  0  0  0  0  0  0  0  0  0  0
   -6.9966   11.7550  -13.1361 C   0  0  0  0  0  0  0  0  0  0  0  0
   -7.8265    9.9936  -11.7632 C   0  0  0  0  0  0  0  0  0  0  0  0
   -7.2675   10.6024  -10.6199 C   0  0  0  0  0  0  0  0  0  0  0  0
   -7.6234    9.7358   -9.5255 C   0  0  0  0  0  0  0  0  0  0  0  0
   -8.2741    8.7136   -9.9910 N   0  0  0  0  0  0  0  0  0  0  0  0
   -8.4130    8.8453  -11.3044 N   0  0  0  0  0  0  0  0  0  0  0  0
   -7.3406    9.8933   -8.0338 C   0  0  0  0  0  0  0  0  0  0  0  0
   -4.5538   13.8407  -11.3379 N   0  0  0  0  0  0  0  0  0  0  0  0
   -5.6005   13.6490  -12.1765 C   0  0  0  0  0  0  0  0  0  0  0  0
   -5.9196   14.4808  -13.0199 O   0  0  0  0  0  0  0  0  0  0  0  0
   -5.9590   10.4855   -7.7382 C   0  0  0  0  0  0  0  0  0  0  0  0
   -4.8075    9.7636   -8.0570 C   0  0  0  0  0  0  0  0  0  0  0  0
   -3.5513   10.3099   -7.8070 C   0  0  0  0  0  0  0  0  0  0  0  0
   -3.4406   11.5840   -7.2355 C   0  0  0  0  0  0  0  0  0  0  0  0
   -4.5915   12.3007   -6.9126 C   0  0  0  0  0  0  0  0  0  0  0  0
   -5.8470   11.7538   -7.1581 C   0  0  0  0  0  0  0  0  0  0  0  0
   -2.0979   12.1738   -6.9691 C   0  0  0  0  0  0  0  0  0  0  0  0
   -1.7666   13.4166   -6.4372 C   0  0  0  0  0  0  0  0  0  0  0  0
   -0.4273   13.4768   -6.3903 N   0  0  0  0  0  0  0  0  0  0  0  0
    0.1744   12.4049   -6.8247 N   0  0  0  0  0  0  0  0  0  0  0  0
   -0.8040   11.5944   -7.2012 C   0  0  0  0  0  0  0  0  0  0  0  0
    0.3946   14.5874   -5.9129 C   0  0  0  0  0  0  0  0  0  0  0  0
   -4.1104   13.1199  -10.1564 C   0  0  0  0  0  0  0  0  0  0  0  0
   -3.1547   14.2611   -9.9254 C   0  0  0  0  0  0  0  0  0  0  0  0
   -3.7686   15.0454  -11.0979 C   0  0  0  0  0  0  0  0  0  0  0  0
   -3.3454   14.7999   -8.7258 F   0  0  0  0  0  0  0  0  0  0  0  0
   -1.8808   13.9286  -10.0717 F   0  0  0  0  0  0  0  0  0  0  0  0
   -6.1820   12.2677   -9.8672 H   0  0  0  0  0  0  0  0  0  0  0  0
   -8.2062   10.1164  -13.9009 H   0  0  0  0  0  0  0  0  0  0  0  0
   -6.8838   12.2269  -14.1010 H   0  0  0  0  0  0  0  0  0  0  0  0
   -8.0445    9.6149   -7.2634 H   0  0  0  0  0  0  0  0  0  0  0  0
   -5.3206   15.2172  -12.9815 H   0  0  0  0  0  0  0  0  0  0  0  0
   -4.8910    8.7811   -8.4977 H   0  0  0  0  0  0  0  0  0  0  0  0
   -2.6611    9.7505   -8.0541 H   0  0  0  0  0  0  0  0  0  0  0  0
   -4.5085   13.2827   -6.4709 H   0  0  0  0  0  0  0  0  0  0  0  0
   -6.3733   12.4542   -7.8233 H   0  0  0  0  0  0  0  0  0  0  0  0
   -6.3670   11.7066   -6.1899 H   0  0  0  0  0  0  0  0  0  0  0  0
   -2.4562   14.1858   -6.1223 H   0  0  0  0  0  0  0  0  0  0  0  0
   -0.6475   10.6160   -7.6308 H   0  0  0  0  0  0  0  0  0  0  0  0
    1.4583   14.3222   -6.0031 H   0  0  0  0  0  0  0  0  0  0  0  0
    0.1876   15.4829   -6.5173 H   0  0  0  0  0  0  0  0  0  0  0  0
    0.1562   14.7932   -4.8589 H   0  0  0  0  0  0  0  0  0  0  0  0
   -4.8767   12.9944   -9.3773 H   0  0  0  0  0  0  0  0  0  0  0  0
   -3.6317   12.1505  -10.3594 H   0  0  0  0  0  0  0  0  0  0  0  0
   -3.0652   15.3118  -11.9005 H   0  0  0  0  0  0  0  0  0  0  0  0
   -4.3514   15.9332  -10.8114 H   0  0  0  0  0  0  0  0  0  0  0  0
  1  2  1  0  0  0  0
  1  4  1  0  0  0  0
  1 12  2  3  0  0  0
  2  6  2  0  0  0  0
  3  4  2  0  0  0  0
  3  5  1  0  0  0  0
  5  6  1  0  0  0  0
  5  9  2  0  0  0  0
  6  7  1  0  0  0  0
  7  8  2  0  0  0  0
  7 10  1  0  0  0  0
  8  9  1  0  0  0  0
 10 14  2  3  0  0  0
 11 12  1  0  0  0  0
 11 26  1  0  0  0  0
 11 28  1  0  0  0  0
 12 13  1  0  0  0  0
 14 15  1  0  0  0  0
 14 19  1  0  0  0  0
 15 16  2  0  0  0  0
 16 17  1  0  0  0  0
 17 18  2  0  0  0  0
 17 20  1  0  0  0  0
 18 19  1  0  0  0  0
 20 21  2  0  0  0  0
 20 24  1  0  0  0  0
 21 22  1  0  0  0  0
 22 23  1  0  0  0  0
 22 25  1  0  0  0  0
 23 24  2  0  0  0  0
 26 27  1  0  0  0  0
 27 28  1  0  0  0  0
 27 29  1  0  0  0  0
 27 30  1  0  0  0  0
  2 31  1  0  0  0  0
  3 32  1  0  0  0  0
  4 33  1  0  0  0  0
 10 34  1  0  0  0  0
 13 35  1  0  0  0  0
 15 36  1  0  0  0  0
 16 37  1  0  0  0  0
 18 38  1  0  0  0  0
 19 39  1  0  0  0  0
 19 40  1  0  0  0  0
 21 41  1  0  0  0  0
 24 42  1  0  0  0  0
 25 43  1  0  0  0  0
 25 44  1  0  0  0  0
 25 45  1  0  0  0  0
 26 46  1  0  0  0  0
 26 47  1  0  0  0  0
 28 48  1  0  0  0  0
 28 49  1  0  0  0  0
M  END
> <Name>
34

> <IC50[uM]>
0.007

$$$$
