26
  -OEChem-05192314333D
 Structure written by MMmdl.
 49 53  0     0  0  0  0  0  0999 V2000
   -6.3961   12.3155  -12.0234 C   0  0  0  0  0  0  0  0  0  0  0  0
   -6.5478   11.7864  -10.7392 C   0  0  0  0  0  0  0  0  0  0  0  0
   -7.7431   10.5278  -13.0269 C   0  0  0  0  0  0  0  0  0  0  0  0
   -7.0034   11.6993  -13.1368 C   0  0  0  0  0  0  0  0  0  0  0  0
   -7.8411    9.9886  -11.7443 C   0  0  0  0  0  0  0  0  0  0  0  0
   -7.2672   10.6062  -10.5986 C   0  0  0  0  0  0  0  0  0  0  0  0
   -7.6276    9.7408   -9.5022 C   0  0  0  0  0  0  0  0  0  0  0  0
   -8.2893    8.7195   -9.9713 N   0  0  0  0  0  0  0  0  0  0  0  0
   -8.4361    8.8492  -11.2847 N   0  0  0  0  0  0  0  0  0  0  0  0
   -7.3404    9.8857   -8.0208 C   0  0  0  0  0  0  0  0  0  0  0  0
   -5.4704   14.2158  -13.3316 C   0  0  0  0  0  0  0  0  0  0  0  0
   -4.5218   15.3458  -13.0035 C   0  0  0  0  0  0  0  0  0  0  0  0
   -5.5814   13.4696  -12.1774 N   0  0  0  0  0  0  0  0  0  0  0  0
   -5.9630   10.4847   -7.7359 C   0  0  0  0  0  0  0  0  0  0  0  0
   -5.8538   11.7563   -7.1621 C   0  0  0  0  0  0  0  0  0  0  0  0
   -4.5953   12.3060   -6.9160 C   0  0  0  0  0  0  0  0  0  0  0  0
   -3.4449   11.5852   -7.2379 C   0  0  0  0  0  0  0  0  0  0  0  0
   -3.5560   10.3115   -7.8043 C   0  0  0  0  0  0  0  0  0  0  0  0
   -4.8130    9.7655   -8.0531 C   0  0  0  0  0  0  0  0  0  0  0  0
   -2.0905   12.1634   -6.9778 C   0  0  0  0  0  0  0  0  0  0  0  0
   -1.7398   13.4211   -6.5005 C   0  0  0  0  0  0  0  0  0  0  0  0
   -0.4007   13.4556   -6.4362 N   0  0  0  0  0  0  0  0  0  0  0  0
    0.1858   12.3500   -6.8082 N   0  0  0  0  0  0  0  0  0  0  0  0
   -0.8018   11.5473   -7.1675 C   0  0  0  0  0  0  0  0  0  0  0  0
    0.4333   14.5672   -6.0053 C   0  0  0  0  0  0  0  0  0  0  0  0
   -6.0131   14.0330  -14.4162 O   0  0  0  0  0  0  0  0  0  0  0  0
   -4.6790   13.9767  -11.1295 C   0  0  0  0  0  0  0  0  0  0  0  0
   -4.0830   15.2556  -11.5883 C   0  0  0  0  0  0  0  0  0  0  0  0
   -6.1181   12.2807   -9.8804 H   0  0  0  0  0  0  0  0  0  0  0  0
   -8.2128   10.0638  -13.8816 H   0  0  0  0  0  0  0  0  0  0  0  0
   -6.8897   12.1539  -14.1098 H   0  0  0  0  0  0  0  0  0  0  0  0
   -8.6335    7.9556   -9.4254 H   0  0  0  0  0  0  0  0  0  0  0  0
   -8.1057   10.5398   -7.5776 H   0  0  0  0  0  0  0  0  0  0  0  0
   -7.3935    8.8909   -7.5544 H   0  0  0  0  0  0  0  0  0  0  0  0
   -3.6420   15.2835  -13.6609 H   0  0  0  0  0  0  0  0  0  0  0  0
   -5.0325   16.3067  -13.1645 H   0  0  0  0  0  0  0  0  0  0  0  0
   -6.7444   12.3126   -6.9096 H   0  0  0  0  0  0  0  0  0  0  0  0
   -4.5117   13.2890   -6.4765 H   0  0  0  0  0  0  0  0  0  0  0  0
   -2.6662    9.7505   -8.0491 H   0  0  0  0  0  0  0  0  0  0  0  0
   -4.8962    8.7826   -8.4928 H   0  0  0  0  0  0  0  0  0  0  0  0
   -2.4169   14.2186   -6.2325 H   0  0  0  0  0  0  0  0  0  0  0  0
   -0.6596   10.5498   -7.5564 H   0  0  0  0  0  0  0  0  0  0  0  0
    1.4925   14.2769   -6.0668 H   0  0  0  0  0  0  0  0  0  0  0  0
    0.2526   15.4350   -6.6567 H   0  0  0  0  0  0  0  0  0  0  0  0
    0.1851   14.8305   -4.9665 H   0  0  0  0  0  0  0  0  0  0  0  0
   -5.2469   14.1452  -10.2026 H   0  0  0  0  0  0  0  0  0  0  0  0
   -3.8809   13.2432  -10.9424 H   0  0  0  0  0  0  0  0  0  0  0  0
   -2.9857   15.2276  -11.5166 H   0  0  0  0  0  0  0  0  0  0  0  0
   -4.4673   16.1029  -11.0014 H   0  0  0  0  0  0  0  0  0  0  0  0
  1  2  2  0  0  0  0
  1  4  1  0  0  0  0
  1 13  1  0  0  0  0
  2  6  1  0  0  0  0
  3  4  2  0  0  0  0
  3  5  1  0  0  0  0
  5  6  1  0  0  0  0
  5  9  2  0  0  0  0
  6  7  2  0  0  0  0
  7  8  1  0  0  0  0
  7 10  1  0  0  0  0
  8  9  1  0  0  0  0
 10 14  1  0  0  0  0
 11 12  1  0  0  0  0
 11 13  1  0  0  0  0
 11 26  2  0  0  0  0
 12 28  1  0  0  0  0
 13 27  1  0  0  0  0
 14 15  2  0  0  0  0
 14 19  1  0  0  0  0
 15 16  1  0  0  0  0
 16 17  2  0  0  0  0
 17 18  1  0  0  0  0
 17 20  1  0  0  0  0
 18 19  2  0  0  0  0
 20 21  2  0  0  0  0
 20 24  1  0  0  0  0
 21 22  1  0  0  0  0
 22 23  1  0  0  0  0
 22 25  1  0  0  0  0
 23 24  2  0  0  0  0
 27 28  1  0  0  0  0
  2 29  1  0  0  0  0
  3 30  1  0  0  0  0
  4 31  1  0  0  0  0
  8 32  1  0  0  0  0
 10 33  1  0  0  0  0
 10 34  1  0  0  0  0
 12 35  1  0  0  0  0
 12 36  1  0  0  0  0
 15 37  1  0  0  0  0
 16 38  1  0  0  0  0
 18 39  1  0  0  0  0
 19 40  1  0  0  0  0
 21 41  1  0  0  0  0
 24 42  1  0  0  0  0
 25 43  1  0  0  0  0
 25 44  1  0  0  0  0
 25 45  1  0  0  0  0
 27 46  1  0  0  0  0
 27 47  1  0  0  0  0
 28 48  1  0  0  0  0
 28 49  1  0  0  0  0
M  END
> <Name>
26

> <IC50[uM]>
0.036

$$$$
26
  -OEChem-05192314333D
 Structure written by MMmdl.
 49 53  0     0  0  0  0  0  0999 V2000
   -6.3961   12.3155  -12.0234 C   0  0  0  0  0  0  0  0  0  0  0  0
   -6.5478   11.7864  -10.7392 C   0  0  0  0  0  0  0  0  0  0  0  0
   -7.7431   10.5278  -13.0269 C   0  0  0  0  0  0  0  0  0  0  0  0
   -7.0034   11.6993  -13.1368 C   0  0  0  0  0  0  0  0  0  0  0  0
   -7.8411    9.9886  -11.7443 C   0  0  0  0  0  0  0  0  0  0  0  0
   -7.2672   10.6062  -10.5986 C   0  0  0  0  0  0  0  0  0  0  0  0
   -7.6276    9.7408   -9.5022 C   0  0  0  0  0  0  0  0  0  0  0  0
   -8.2893    8.7195   -9.9713 N   0  0  0  0  0  0  0  0  0  0  0  0
   -8.4361    8.8492  -11.2847 N   0  0  0  0  0  0  0  0  0  0  0  0
   -7.3404    9.8857   -8.0208 C   0  0  0  0  0  0  0  0  0  0  0  0
   -5.4704   14.2158  -13.3316 C   0  0  0  0  0  0  0  0  0  0  0  0
   -4.5218   15.3458  -13.0035 C   0  0  0  0  0  0  0  0  0  0  0  0
   -5.5814   13.4696  -12.1774 N   0  0  0  0  0  0  0  0  0  0  0  0
   -5.9630   10.4847   -7.7359 C   0  0  0  0  0  0  0  0  0  0  0  0
   -5.8538   11.7563   -7.1621 C   0  0  0  0  0  0  0  0  0  0  0  0
   -4.5953   12.3060   -6.9160 C   0  0  0  0  0  0  0  0  0  0  0  0
   -3.4449   11.5852   -7.2379 C   0  0  0  0  0  0  0  0  0  0  0  0
   -3.5560   10.3115   -7.8043 C   0  0  0  0  0  0  0  0  0  0  0  0
   -4.8130    9.7655   -8.0531 C   0  0  0  0  0  0  0  0  0  0  0  0
   -2.0905   12.1634   -6.9778 C   0  0  0  0  0  0  0  0  0  0  0  0
   -1.7398   13.4211   -6.5005 C   0  0  0  0  0  0  0  0  0  0  0  0
   -0.4007   13.4556   -6.4362 N   0  0  0  0  0  0  0  0  0  0  0  0
    0.1858   12.3500   -6.8082 N   0  0  0  0  0  0  0  0  0  0  0  0
   -0.8018   11.5473   -7.1675 C   0  0  0  0  0  0  0  0  0  0  0  0
    0.4333   14.5672   -6.0053 C   0  0  0  0  0  0  0  0  0  0  0  0
   -6.0131   14.0330  -14.4162 O   0  0  0  0  0  0  0  0  0  0  0  0
   -4.6790   13.9767  -11.1295 C   0  0  0  0  0  0  0  0  0  0  0  0
   -4.0830   15.2556  -11.5883 C   0  0  0  0  0  0  0  0  0  0  0  0
   -6.1181   12.2807   -9.8804 H   0  0  0  0  0  0  0  0  0  0  0  0
   -8.2128   10.0638  -13.8816 H   0  0  0  0  0  0  0  0  0  0  0  0
   -6.8897   12.1539  -14.1098 H   0  0  0  0  0  0  0  0  0  0  0  0
   -8.9215    8.1945  -11.8642 H   0  0  0  0  0  0  0  0  0  0  0  0
   -8.1057   10.5398   -7.5776 H   0  0  0  0  0  0  0  0  0  0  0  0
   -7.3935    8.8909   -7.5544 H   0  0  0  0  0  0  0  0  0  0  0  0
   -3.6420   15.2835  -13.6609 H   0  0  0  0  0  0  0  0  0  0  0  0
   -5.0325   16.3067  -13.1645 H   0  0  0  0  0  0  0  0  0  0  0  0
   -6.7444   12.3126   -6.9096 H   0  0  0  0  0  0  0  0  0  0  0  0
   -4.5117   13.2890   -6.4765 H   0  0  0  0  0  0  0  0  0  0  0  0
   -2.6662    9.7505   -8.0491 H   0  0  0  0  0  0  0  0  0  0  0  0
   -4.8962    8.7826   -8.4928 H   0  0  0  0  0  0  0  0  0  0  0  0
   -2.4169   14.2186   -6.2325 H   0  0  0  0  0  0  0  0  0  0  0  0
   -0.6596   10.5498   -7.5564 H   0  0  0  0  0  0  0  0  0  0  0  0
    1.4925   14.2769   -6.0668 H   0  0  0  0  0  0  0  0  0  0  0  0
    0.2526   15.4350   -6.6567 H   0  0  0  0  0  0  0  0  0  0  0  0
    0.1851   14.8305   -4.9665 H   0  0  0  0  0  0  0  0  0  0  0  0
   -5.2469   14.1452  -10.2026 H   0  0  0  0  0  0  0  0  0  0  0  0
   -3.8809   13.2432  -10.9424 H   0  0  0  0  0  0  0  0  0  0  0  0
   -2.9857   15.2276  -11.5166 H   0  0  0  0  0  0  0  0  0  0  0  0
   -4.4673   16.1029  -11.0014 H   0  0  0  0  0  0  0  0  0  0  0  0
  1  2  2  0  0  0  0
  1  4  1  0  0  0  0
  1 13  1  0  0  0  0
  2  6  1  0  0  0  0
  3  4  2  0  0  0  0
  3  5  1  0  0  0  0
  5  6  2  0  0  0  0
  5  9  1  0  0  0  0
  6  7  1  0  0  0  0
  7  8  2  0  0  0  0
  7 10  1  0  0  0  0
  8  9  1  0  0  0  0
 10 14  1  0  0  0  0
 11 12  1  0  0  0  0
 11 13  1  0  0  0  0
 11 26  2  0  0  0  0
 12 28  1  0  0  0  0
 13 27  1  0  0  0  0
 14 15  2  0  0  0  0
 14 19  1  0  0  0  0
 15 16  1  0  0  0  0
 16 17  2  0  0  0  0
 17 18  1  0  0  0  0
 17 20  1  0  0  0  0
 18 19  2  0  0  0  0
 20 21  2  0  0  0  0
 20 24  1  0  0  0  0
 21 22  1  0  0  0  0
 22 23  1  0  0  0  0
 22 25  1  0  0  0  0
 23 24  2  0  0  0  0
 27 28  1  0  0  0  0
  2 29  1  0  0  0  0
  3 30  1  0  0  0  0
  4 31  1  0  0  0  0
  9 32  1  0  0  0  0
 10 33  1  0  0  0  0
 10 34  1  0  0  0  0
 12 35  1  0  0  0  0
 12 36  1  0  0  0  0
 15 37  1  0  0  0  0
 16 38  1  0  0  0  0
 18 39  1  0  0  0  0
 19 40  1  0  0  0  0
 21 41  1  0  0  0  0
 24 42  1  0  0  0  0
 25 43  1  0  0  0  0
 25 44  1  0  0  0  0
 25 45  1  0  0  0  0
 27 46  1  0  0  0  0
 27 47  1  0  0  0  0
 28 48  1  0  0  0  0
 28 49  1  0  0  0  0
M  END
> <Name>
26

> <IC50[uM]>
0.036

$$$$
26
  -OEChem-05192314333D
 Structure written by MMmdl.
 49 53  0     1  0  0  0  0  0999 V2000
   -6.3961   12.3155  -12.0234 C   0  0  0  0  0  0  0  0  0  0  0  0
   -6.5478   11.7864  -10.7392 C   0  0  0  0  0  0  0  0  0  0  0  0
   -7.7431   10.5278  -13.0269 C   0  0  0  0  0  0  0  0  0  0  0  0
   -7.0034   11.6993  -13.1368 C   0  0  0  0  0  0  0  0  0  0  0  0
   -7.8411    9.9886  -11.7443 C   0  0  0  0  0  0  0  0  0  0  0  0
   -7.2672   10.6062  -10.5986 C   0  0  0  0  0  0  0  0  0  0  0  0
   -7.6276    9.7408   -9.5022 C   0  0  3  0  0  0  0  0  0  0  0  0
   -8.2893    8.7195   -9.9713 N   0  0  0  0  0  0  0  0  0  0  0  0
   -8.4361    8.8492  -11.2847 N   0  0  0  0  0  0  0  0  0  0  0  0
   -7.3404    9.8857   -8.0208 C   0  0  0  0  0  0  0  0  0  0  0  0
   -5.4704   14.2158  -13.3316 C   0  0  0  0  0  0  0  0  0  0  0  0
   -4.5218   15.3458  -13.0035 C   0  0  0  0  0  0  0  0  0  0  0  0
   -5.5814   13.4696  -12.1774 N   0  0  0  0  0  0  0  0  0  0  0  0
   -5.9630   10.4847   -7.7359 C   0  0  0  0  0  0  0  0  0  0  0  0
   -5.8538   11.7563   -7.1621 C   0  0  0  0  0  0  0  0  0  0  0  0
   -4.5953   12.3060   -6.9160 C   0  0  0  0  0  0  0  0  0  0  0  0
   -3.4449   11.5852   -7.2379 C   0  0  0  0  0  0  0  0  0  0  0  0
   -3.5560   10.3115   -7.8043 C   0  0  0  0  0  0  0  0  0  0  0  0
   -4.8130    9.7655   -8.0531 C   0  0  0  0  0  0  0  0  0  0  0  0
   -2.0905   12.1634   -6.9778 C   0  0  0  0  0  0  0  0  0  0  0  0
   -1.7398   13.4211   -6.5005 C   0  0  0  0  0  0  0  0  0  0  0  0
   -0.4007   13.4556   -6.4362 N   0  0  0  0  0  0  0  0  0  0  0  0
    0.1858   12.3500   -6.8082 N   0  0  0  0  0  0  0  0  0  0  0  0
   -0.8018   11.5473   -7.1675 C   0  0  0  0  0  0  0  0  0  0  0  0
    0.4333   14.5672   -6.0053 C   0  0  0  0  0  0  0  0  0  0  0  0
   -6.0131   14.0330  -14.4162 O   0  0  0  0  0  0  0  0  0  0  0  0
   -4.6790   13.9767  -11.1295 C   0  0  0  0  0  0  0  0  0  0  0  0
   -4.0830   15.2556  -11.5883 C   0  0  0  0  0  0  0  0  0  0  0  0
   -6.1181   12.2807   -9.8804 H   0  0  0  0  0  0  0  0  0  0  0  0
   -8.2128   10.0638  -13.8816 H   0  0  0  0  0  0  0  0  0  0  0  0
   -6.8897   12.1539  -14.1098 H   0  0  0  0  0  0  0  0  0  0  0  0
   -8.5699   10.2938   -9.3744 H   0  0  0  0  0  0  0  0  0  0  0  0
   -8.1057   10.5398   -7.5776 H   0  0  0  0  0  0  0  0  0  0  0  0
   -7.3935    8.8909   -7.5544 H   0  0  0  0  0  0  0  0  0  0  0  0
   -3.6420   15.2835  -13.6609 H   0  0  0  0  0  0  0  0  0  0  0  0
   -5.0325   16.3067  -13.1645 H   0  0  0  0  0  0  0  0  0  0  0  0
   -6.7444   12.3126   -6.9096 H   0  0  0  0  0  0  0  0  0  0  0  0
   -4.5117   13.2890   -6.4765 H   0  0  0  0  0  0  0  0  0  0  0  0
   -2.6662    9.7505   -8.0491 H   0  0  0  0  0  0  0  0  0  0  0  0
   -4.8962    8.7826   -8.4928 H   0  0  0  0  0  0  0  0  0  0  0  0
   -2.4169   14.2186   -6.2325 H   0  0  0  0  0  0  0  0  0  0  0  0
   -0.6596   10.5498   -7.5564 H   0  0  0  0  0  0  0  0  0  0  0  0
    1.4925   14.2769   -6.0668 H   0  0  0  0  0  0  0  0  0  0  0  0
    0.2526   15.4350   -6.6567 H   0  0  0  0  0  0  0  0  0  0  0  0
    0.1851   14.8305   -4.9665 H   0  0  0  0  0  0  0  0  0  0  0  0
   -5.2469   14.1452  -10.2026 H   0  0  0  0  0  0  0  0  0  0  0  0
   -3.8809   13.2432  -10.9424 H   0  0  0  0  0  0  0  0  0  0  0  0
   -2.9857   15.2276  -11.5166 H   0  0  0  0  0  0  0  0  0  0  0  0
   -4.4673   16.1029  -11.0014 H   0  0  0  0  0  0  0  0  0  0  0  0
  1  2  2  0  0  0  0
  1  4  1  0  0  0  0
  1 13  1  0  0  0  0
  2  6  1  0  0  0  0
  3  4  2  0  0  0  0
  3  5  1  0  0  0  0
  5  6  2  0  0  0  0
  5  9  1  0  0  0  0
  6  7  1  0  0  0  0
  7  8  1  0  0  0  0
  7 10  1  0  0  0  0
  8  9  2  0  0  0  0
 10 14  1  0  0  0  0
 11 12  1  0  0  0  0
 11 13  1  0  0  0  0
 11 26  2  0  0  0  0
 12 28  1  0  0  0  0
 13 27  1  0  0  0  0
 14 15  2  0  0  0  0
 14 19  1  0  0  0  0
 15 16  1  0  0  0  0
 16 17  2  0  0  0  0
 17 18  1  0  0  0  0
 17 20  1  0  0  0  0
 18 19  2  0  0  0  0
 20 21  2  0  0  0  0
 20 24  1  0  0  0  0
 21 22  1  0  0  0  0
 22 23  1  0  0  0  0
 22 25  1  0  0  0  0
 23 24  2  0  0  0  0
 27 28  1  0  0  0  0
  2 29  1  0  0  0  0
  3 30  1  0  0  0  0
  4 31  1  0  0  0  0
  7 32  1  0  0  0  0
 10 33  1  0  0  0  0
 10 34  1  0  0  0  0
 12 35  1  0  0  0  0
 12 36  1  0  0  0  0
 15 37  1  0  0  0  0
 16 38  1  0  0  0  0
 18 39  1  0  0  0  0
 19 40  1  0  0  0  0
 21 41  1  0  0  0  0
 24 42  1  0  0  0  0
 25 43  1  0  0  0  0
 25 44  1  0  0  0  0
 25 45  1  0  0  0  0
 27 46  1  0  0  0  0
 27 47  1  0  0  0  0
 28 48  1  0  0  0  0
 28 49  1  0  0  0  0
M  END
> <Name>
26

> <IC50[uM]>
0.036

$$$$
26
  -OEChem-05192314333D
 Structure written by MMmdl.
 49 53  0     0  0  0  0  0  0999 V2000
   -6.3961   12.3155  -12.0234 C   0  0  0  0  0  0  0  0  0  0  0  0
   -6.5478   11.7864  -10.7392 C   0  0  0  0  0  0  0  0  0  0  0  0
   -7.7431   10.5278  -13.0269 C   0  0  0  0  0  0  0  0  0  0  0  0
   -7.0034   11.6993  -13.1368 C   0  0  0  0  0  0  0  0  0  0  0  0
   -7.8411    9.9886  -11.7443 C   0  0  0  0  0  0  0  0  0  0  0  0
   -7.2672   10.6062  -10.5986 C   0  0  0  0  0  0  0  0  0  0  0  0
   -7.6276    9.7408   -9.5022 C   0  0  0  0  0  0  0  0  0  0  0  0
   -8.2893    8.7195   -9.9713 N   0  0  0  0  0  0  0  0  0  0  0  0
   -8.4361    8.8492  -11.2847 N   0  0  0  0  0  0  0  0  0  0  0  0
   -7.3404    9.8857   -8.0208 C   0  0  0  0  0  0  0  0  0  0  0  0
   -5.4704   14.2158  -13.3316 C   0  0  0  0  0  0  0  0  0  0  0  0
   -4.5218   15.3458  -13.0035 C   0  0  0  0  0  0  0  0  0  0  0  0
   -5.5814   13.4696  -12.1774 N   0  0  0  0  0  0  0  0  0  0  0  0
   -5.9630   10.4847   -7.7359 C   0  0  0  0  0  0  0  0  0  0  0  0
   -5.8538   11.7563   -7.1621 C   0  0  0  0  0  0  0  0  0  0  0  0
   -4.5953   12.3060   -6.9160 C   0  0  0  0  0  0  0  0  0  0  0  0
   -3.4449   11.5852   -7.2379 C   0  0  0  0  0  0  0  0  0  0  0  0
   -3.5560   10.3115   -7.8043 C   0  0  0  0  0  0  0  0  0  0  0  0
   -4.8130    9.7655   -8.0531 C   0  0  0  0  0  0  0  0  0  0  0  0
   -2.0905   12.1634   -6.9778 C   0  0  0  0  0  0  0  0  0  0  0  0
   -1.7398   13.4211   -6.5005 C   0  0  0  0  0  0  0  0  0  0  0  0
   -0.4007   13.4556   -6.4362 N   0  0  0  0  0  0  0  0  0  0  0  0
    0.1858   12.3500   -6.8082 N   0  0  0  0  0  0  0  0  0  0  0  0
   -0.8018   11.5473   -7.1675 C   0  0  0  0  0  0  0  0  0  0  0  0
    0.4333   14.5672   -6.0053 C   0  0  0  0  0  0  0  0  0  0  0  0
   -6.0131   14.0330  -14.4162 O   0  0  0  0  0  0  0  0  0  0  0  0
   -4.6790   13.9767  -11.1295 C   0  0  0  0  0  0  0  0  0  0  0  0
   -4.0830   15.2556  -11.5883 C   0  0  0  0  0  0  0  0  0  0  0  0
   -6.1181   12.2807   -9.8804 H   0  0  0  0  0  0  0  0  0  0  0  0
   -8.2128   10.0638  -13.8816 H   0  0  0  0  0  0  0  0  0  0  0  0
   -6.8897   12.1539  -14.1098 H   0  0  0  0  0  0  0  0  0  0  0  0
   -7.7863    7.8780   -9.7741 H   0  0  0  0  0  0  0  0  0  0  0  0
   -9.4119    8.8822  -11.5010 H   0  0  0  0  0  0  0  0  0  0  0  0
   -8.0363    9.5960   -7.2473 H   0  0  0  0  0  0  0  0  0  0  0  0
   -3.6420   15.2835  -13.6609 H   0  0  0  0  0  0  0  0  0  0  0  0
   -5.0325   16.3067  -13.1645 H   0  0  0  0  0  0  0  0  0  0  0  0
   -6.7444   12.3126   -6.9096 H   0  0  0  0  0  0  0  0  0  0  0  0
   -4.5117   13.2890   -6.4765 H   0  0  0  0  0  0  0  0  0  0  0  0
   -2.6662    9.7505   -8.0491 H   0  0  0  0  0  0  0  0  0  0  0  0
   -4.8962    8.7826   -8.4928 H   0  0  0  0  0  0  0  0  0  0  0  0
   -2.4169   14.2186   -6.2325 H   0  0  0  0  0  0  0  0  0  0  0  0
   -0.6596   10.5498   -7.5564 H   0  0  0  0  0  0  0  0  0  0  0  0
    1.4925   14.2769   -6.0668 H   0  0  0  0  0  0  0  0  0  0  0  0
    0.2526   15.4350   -6.6567 H   0  0  0  0  0  0  0  0  0  0  0  0
    0.1851   14.8305   -4.9665 H   0  0  0  0  0  0  0  0  0  0  0  0
   -5.2469   14.1452  -10.2026 H   0  0  0  0  0  0  0  0  0  0  0  0
   -3.8809   13.2432  -10.9424 H   0  0  0  0  0  0  0  0  0  0  0  0
   -2.9857   15.2276  -11.5166 H   0  0  0  0  0  0  0  0  0  0  0  0
   -4.4673   16.1029  -11.0014 H   0  0  0  0  0  0  0  0  0  0  0  0
  1  2  2  0  0  0  0
  1  4  1  0  0  0  0
  1 13  1  0  0  0  0
  2  6  1  0  0  0  0
  3  4  2  0  0  0  0
  3  5  1  0  0  0  0
  5  6  2  0  0  0  0
  5  9  1  0  0  0  0
  6  7  1  0  0  0  0
  7  8  1  0  0  0  0
  7 10  2  3  0  0  0
  8  9  1  0  0  0  0
 10 14  1  0  0  0  0
 11 12  1  0  0  0  0
 11 13  1  0  0  0  0
 11 26  2  0  0  0  0
 12 28  1  0  0  0  0
 13 27  1  0  0  0  0
 14 15  2  0  0  0  0
 14 19  1  0  0  0  0
 15 16  1  0  0  0  0
 16 17  2  0  0  0  0
 17 18  1  0  0  0  0
 17 20  1  0  0  0  0
 18 19  2  0  0  0  0
 20 21  2  0  0  0  0
 20 24  1  0  0  0  0
 21 22  1  0  0  0  0
 22 23  1  0  0  0  0
 22 25  1  0  0  0  0
 23 24  2  0  0  0  0
 27 28  1  0  0  0  0
  2 29  1  0  0  0  0
  3 30  1  0  0  0  0
  4 31  1  0  0  0  0
  8 32  1  0  0  0  0
  9 33  1  0  0  0  0
 10 34  1  0  0  0  0
 12 35  1  0  0  0  0
 12 36  1  0  0  0  0
 15 37  1  0  0  0  0
 16 38  1  0  0  0  0
 18 39  1  0  0  0  0
 19 40  1  0  0  0  0
 21 41  1  0  0  0  0
 24 42  1  0  0  0  0
 25 43  1  0  0  0  0
 25 44  1  0  0  0  0
 25 45  1  0  0  0  0
 27 46  1  0  0  0  0
 27 47  1  0  0  0  0
 28 48  1  0  0  0  0
 28 49  1  0  0  0  0
M  END
> <Name>
26

> <IC50[uM]>
0.036

$$$$
26
  -OEChem-05192314333D
 Structure written by MMmdl.
 49 53  0     1  0  0  0  0  0999 V2000
   -6.3961   12.3155  -12.0234 C   0  0  3  0  0  0  0  0  0  0  0  0
   -6.5478   11.7864  -10.7392 C   0  0  0  0  0  0  0  0  0  0  0  0
   -7.7431   10.5278  -13.0269 C   0  0  0  0  0  0  0  0  0  0  0  0
   -7.0034   11.6993  -13.1368 C   0  0  0  0  0  0  0  0  0  0  0  0
   -7.8411    9.9886  -11.7443 C   0  0  0  0  0  0  0  0  0  0  0  0
   -7.2672   10.6062  -10.5986 C   0  0  0  0  0  0  0  0  0  0  0  0
   -7.6276    9.7408   -9.5022 C   0  0  0  0  0  0  0  0  0  0  0  0
   -8.2893    8.7195   -9.9713 N   0  0  0  0  0  0  0  0  0  0  0  0
   -8.4361    8.8492  -11.2847 N   0  0  0  0  0  0  0  0  0  0  0  0
   -7.3404    9.8857   -8.0208 C   0  0  0  0  0  0  0  0  0  0  0  0
   -5.4704   14.2158  -13.3316 C   0  0  0  0  0  0  0  0  0  0  0  0
   -4.5218   15.3458  -13.0035 C   0  0  0  0  0  0  0  0  0  0  0  0
   -5.5814   13.4696  -12.1774 N   0  0  0  0  0  0  0  0  0  0  0  0
   -5.9630   10.4847   -7.7359 C   0  0  0  0  0  0  0  0  0  0  0  0
   -5.8538   11.7563   -7.1621 C   0  0  0  0  0  0  0  0  0  0  0  0
   -4.5953   12.3060   -6.9160 C   0  0  0  0  0  0  0  0  0  0  0  0
   -3.4449   11.5852   -7.2379 C   0  0  0  0  0  0  0  0  0  0  0  0
   -3.5560   10.3115   -7.8043 C   0  0  0  0  0  0  0  0  0  0  0  0
   -4.8130    9.7655   -8.0531 C   0  0  0  0  0  0  0  0  0  0  0  0
   -2.0905   12.1634   -6.9778 C   0  0  0  0  0  0  0  0  0  0  0  0
   -1.7398   13.4211   -6.5005 C   0  0  0  0  0  0  0  0  0  0  0  0
   -0.4007   13.4556   -6.4362 N   0  0  0  0  0  0  0  0  0  0  0  0
    0.1858   12.3500   -6.8082 N   0  0  0  0  0  0  0  0  0  0  0  0
   -0.8018   11.5473   -7.1675 C   0  0  0  0  0  0  0  0  0  0  0  0
    0.4333   14.5672   -6.0053 C   0  0  0  0  0  0  0  0  0  0  0  0
   -6.0131   14.0330  -14.4162 O   0  0  0  0  0  0  0  0  0  0  0  0
   -4.6790   13.9767  -11.1295 C   0  0  0  0  0  0  0  0  0  0  0  0
   -4.0830   15.2556  -11.5883 C   0  0  0  0  0  0  0  0  0  0  0  0
   -7.2833   12.9493  -11.8778 H   0  0  0  0  0  0  0  0  0  0  0  0
   -6.1181   12.2807   -9.8804 H   0  0  0  0  0  0  0  0  0  0  0  0
   -8.2128   10.0638  -13.8816 H   0  0  0  0  0  0  0  0  0  0  0  0
   -6.8897   12.1539  -14.1098 H   0  0  0  0  0  0  0  0  0  0  0  0
   -8.6335    7.9556   -9.4254 H   0  0  0  0  0  0  0  0  0  0  0  0
   -8.0363    9.5960   -7.2473 H   0  0  0  0  0  0  0  0  0  0  0  0
   -3.6420   15.2835  -13.6609 H   0  0  0  0  0  0  0  0  0  0  0  0
   -5.0325   16.3067  -13.1645 H   0  0  0  0  0  0  0  0  0  0  0  0
   -6.7444   12.3126   -6.9096 H   0  0  0  0  0  0  0  0  0  0  0  0
   -4.5117   13.2890   -6.4765 H   0  0  0  0  0  0  0  0  0  0  0  0
   -2.6662    9.7505   -8.0491 H   0  0  0  0  0  0  0  0  0  0  0  0
   -4.8962    8.7826   -8.4928 H   0  0  0  0  0  0  0  0  0  0  0  0
   -2.4169   14.2186   -6.2325 H   0  0  0  0  0  0  0  0  0  0  0  0
   -0.6596   10.5498   -7.5564 H   0  0  0  0  0  0  0  0  0  0  0  0
    1.4925   14.2769   -6.0668 H   0  0  0  0  0  0  0  0  0  0  0  0
    0.2526   15.4350   -6.6567 H   0  0  0  0  0  0  0  0  0  0  0  0
    0.1851   14.8305   -4.9665 H   0  0  0  0  0  0  0  0  0  0  0  0
   -5.2469   14.1452  -10.2026 H   0  0  0  0  0  0  0  0  0  0  0  0
   -3.8809   13.2432  -10.9424 H   0  0  0  0  0  0  0  0  0  0  0  0
   -2.9857   15.2276  -11.5166 H   0  0  0  0  0  0  0  0  0  0  0  0
   -4.4673   16.1029  -11.0014 H   0  0  0  0  0  0  0  0  0  0  0  0
  1  2  1  0  0  0  0
  1  4  1  0  0  0  0
  1 13  1  0  0  0  0
  2  6  2  0  0  0  0
  3  4  2  0  0  0  0
  3  5  1  0  0  0  0
  5  6  1  0  0  0  0
  5  9  2  0  0  0  0
  6  7  1  0  0  0  0
  7  8  1  0  0  0  0
  7 10  2  3  0  0  0
  8  9  1  0  0  0  0
 10 14  1  0  0  0  0
 11 12  1  0  0  0  0
 11 13  1  0  0  0  0
 11 26  2  0  0  0  0
 12 28  1  0  0  0  0
 13 27  1  0  0  0  0
 14 15  2  0  0  0  0
 14 19  1  0  0  0  0
 15 16  1  0  0  0  0
 16 17  2  0  0  0  0
 17 18  1  0  0  0  0
 17 20  1  0  0  0  0
 18 19  2  0  0  0  0
 20 21  2  0  0  0  0
 20 24  1  0  0  0  0
 21 22  1  0  0  0  0
 22 23  1  0  0  0  0
 22 25  1  0  0  0  0
 23 24  2  0  0  0  0
 27 28  1  0  0  0  0
  1 29  1  0  0  0  0
  2 30  1  0  0  0  0
  3 31  1  0  0  0  0
  4 32  1  0  0  0  0
  8 33  1  0  0  0  0
 10 34  1  0  0  0  0
 12 35  1  0  0  0  0
 12 36  1  0  0  0  0
 15 37  1  0  0  0  0
 16 38  1  0  0  0  0
 18 39  1  0  0  0  0
 19 40  1  0  0  0  0
 21 41  1  0  0  0  0
 24 42  1  0  0  0  0
 25 43  1  0  0  0  0
 25 44  1  0  0  0  0
 25 45  1  0  0  0  0
 27 46  1  0  0  0  0
 27 47  1  0  0  0  0
 28 48  1  0  0  0  0
 28 49  1  0  0  0  0
M  END
> <Name>
26

> <IC50[uM]>
0.036

$$$$
26
  -OEChem-05192314333D
 Structure written by MMmdl.
 49 53  0     0  0  0  0  0  0999 V2000
   -6.3961   12.3155  -12.0234 C   0  0  0  0  0  0  0  0  0  0  0  0
   -6.5478   11.7864  -10.7392 C   0  0  0  0  0  0  0  0  0  0  0  0
   -7.7431   10.5278  -13.0269 C   0  0  0  0  0  0  0  0  0  0  0  0
   -7.0034   11.6993  -13.1368 C   0  0  0  0  0  0  0  0  0  0  0  0
   -7.8411    9.9886  -11.7443 C   0  0  0  0  0  0  0  0  0  0  0  0
   -7.2672   10.6062  -10.5986 C   0  0  0  0  0  0  0  0  0  0  0  0
   -7.6276    9.7408   -9.5022 C   0  0  0  0  0  0  0  0  0  0  0  0
   -8.2893    8.7195   -9.9713 N   0  0  0  0  0  0  0  0  0  0  0  0
   -8.4361    8.8492  -11.2847 N   0  0  0  0  0  0  0  0  0  0  0  0
   -7.3404    9.8857   -8.0208 C   0  0  0  0  0  0  0  0  0  0  0  0
   -5.4704   14.2158  -13.3316 C   0  0  0  0  0  0  0  0  0  0  0  0
   -4.5218   15.3458  -13.0035 C   0  0  0  0  0  0  0  0  0  0  0  0
   -5.5814   13.4696  -12.1774 N   0  0  0  0  0  0  0  0  0  0  0  0
   -5.9630   10.4847   -7.7359 C   0  0  0  0  0  0  0  0  0  0  0  0
   -5.8538   11.7563   -7.1621 C   0  0  0  0  0  0  0  0  0  0  0  0
   -4.5953   12.3060   -6.9160 C   0  0  0  0  0  0  0  0  0  0  0  0
   -3.4449   11.5852   -7.2379 C   0  0  0  0  0  0  0  0  0  0  0  0
   -3.5560   10.3115   -7.8043 C   0  0  0  0  0  0  0  0  0  0  0  0
   -4.8130    9.7655   -8.0531 C   0  0  0  0  0  0  0  0  0  0  0  0
   -2.0905   12.1634   -6.9778 C   0  0  0  0  0  0  0  0  0  0  0  0
   -1.7398   13.4211   -6.5005 C   0  0  0  0  0  0  0  0  0  0  0  0
   -0.4007   13.4556   -6.4362 N   0  0  0  0  0  0  0  0  0  0  0  0
    0.1858   12.3500   -6.8082 N   0  0  0  0  0  0  0  0  0  0  0  0
   -0.8018   11.5473   -7.1675 C   0  0  0  0  0  0  0  0  0  0  0  0
    0.4333   14.5672   -6.0053 C   0  0  0  0  0  0  0  0  0  0  0  0
   -6.0131   14.0330  -14.4162 O   0  0  0  0  0  0  0  0  0  0  0  0
   -4.6790   13.9767  -11.1295 C   0  0  0  0  0  0  0  0  0  0  0  0
   -4.0830   15.2556  -11.5883 C   0  0  0  0  0  0  0  0  0  0  0  0
   -6.1181   12.2807   -9.8804 H   0  0  0  0  0  0  0  0  0  0  0  0
   -8.7624   10.7378  -13.3832 H   0  0  0  0  0  0  0  0  0  0  0  0
   -7.2763    9.7721  -13.6757 H   0  0  0  0  0  0  0  0  0  0  0  0
   -6.8897   12.1539  -14.1098 H   0  0  0  0  0  0  0  0  0  0  0  0
   -8.6335    7.9556   -9.4254 H   0  0  0  0  0  0  0  0  0  0  0  0
   -8.0363    9.5960   -7.2473 H   0  0  0  0  0  0  0  0  0  0  0  0
   -3.6420   15.2835  -13.6609 H   0  0  0  0  0  0  0  0  0  0  0  0
   -5.0325   16.3067  -13.1645 H   0  0  0  0  0  0  0  0  0  0  0  0
   -6.7444   12.3126   -6.9096 H   0  0  0  0  0  0  0  0  0  0  0  0
   -4.5117   13.2890   -6.4765 H   0  0  0  0  0  0  0  0  0  0  0  0
   -2.6662    9.7505   -8.0491 H   0  0  0  0  0  0  0  0  0  0  0  0
   -4.8962    8.7826   -8.4928 H   0  0  0  0  0  0  0  0  0  0  0  0
   -2.4169   14.2186   -6.2325 H   0  0  0  0  0  0  0  0  0  0  0  0
   -0.6596   10.5498   -7.5564 H   0  0  0  0  0  0  0  0  0  0  0  0
    1.4925   14.2769   -6.0668 H   0  0  0  0  0  0  0  0  0  0  0  0
    0.2526   15.4350   -6.6567 H   0  0  0  0  0  0  0  0  0  0  0  0
    0.1851   14.8305   -4.9665 H   0  0  0  0  0  0  0  0  0  0  0  0
   -5.2469   14.1452  -10.2026 H   0  0  0  0  0  0  0  0  0  0  0  0
   -3.8809   13.2432  -10.9424 H   0  0  0  0  0  0  0  0  0  0  0  0
   -2.9857   15.2276  -11.5166 H   0  0  0  0  0  0  0  0  0  0  0  0
   -4.4673   16.1029  -11.0014 H   0  0  0  0  0  0  0  0  0  0  0  0
  1  2  1  0  0  0  0
  1  4  2  0  0  0  0
  1 13  1  0  0  0  0
  2  6  2  0  0  0  0
  3  4  1  0  0  0  0
  3  5  1  0  0  0  0
  5  6  1  0  0  0  0
  5  9  2  0  0  0  0
  6  7  1  0  0  0  0
  7  8  1  0  0  0  0
  7 10  2  3  0  0  0
  8  9  1  0  0  0  0
 10 14  1  0  0  0  0
 11 12  1  0  0  0  0
 11 13  1  0  0  0  0
 11 26  2  0  0  0  0
 12 28  1  0  0  0  0
 13 27  1  0  0  0  0
 14 15  2  0  0  0  0
 14 19  1  0  0  0  0
 15 16  1  0  0  0  0
 16 17  2  0  0  0  0
 17 18  1  0  0  0  0
 17 20  1  0  0  0  0
 18 19  2  0  0  0  0
 20 21  2  0  0  0  0
 20 24  1  0  0  0  0
 21 22  1  0  0  0  0
 22 23  1  0  0  0  0
 22 25  1  0  0  0  0
 23 24  2  0  0  0  0
 27 28  1  0  0  0  0
  2 29  1  0  0  0  0
  3 30  1  0  0  0  0
  3 31  1  0  0  0  0
  4 32  1  0  0  0  0
  8 33  1  0  0  0  0
 10 34  1  0  0  0  0
 12 35  1  0  0  0  0
 12 36  1  0  0  0  0
 15 37  1  0  0  0  0
 16 38  1  0  0  0  0
 18 39  1  0  0  0  0
 19 40  1  0  0  0  0
 21 41  1  0  0  0  0
 24 42  1  0  0  0  0
 25 43  1  0  0  0  0
 25 44  1  0  0  0  0
 25 45  1  0  0  0  0
 27 46  1  0  0  0  0
 27 47  1  0  0  0  0
 28 48  1  0  0  0  0
 28 49  1  0  0  0  0
M  END
> <Name>
26

> <IC50[uM]>
0.036

$$$$
26
  -OEChem-05192314333D
 Structure written by MMmdl.
 49 53  0     1  0  0  0  0  0999 V2000
   -6.3961   12.3155  -12.0234 C   0  0  0  0  0  0  0  0  0  0  0  0
   -6.5478   11.7864  -10.7392 C   0  0  0  0  0  0  0  0  0  0  0  0
   -7.7431   10.5278  -13.0269 C   0  0  0  0  0  0  0  0  0  0  0  0
   -7.0034   11.6993  -13.1368 C   0  0  0  0  0  0  0  0  0  0  0  0
   -7.8411    9.9886  -11.7443 C   0  0  0  0  0  0  0  0  0  0  0  0
   -7.2672   10.6062  -10.5986 C   0  0  0  0  0  0  0  0  0  0  0  0
   -7.6276    9.7408   -9.5022 C   0  0  0  0  0  0  0  0  0  0  0  0
   -8.2893    8.7195   -9.9713 N   0  0  0  0  0  0  0  0  0  0  0  0
   -8.4361    8.8492  -11.2847 N   0  0  0  0  0  0  0  0  0  0  0  0
   -7.3404    9.8857   -8.0208 C   0  0  0  0  0  0  0  0  0  0  0  0
   -5.4704   14.2158  -13.3316 C   0  0  0  0  0  0  0  0  0  0  0  0
   -4.5218   15.3458  -13.0035 C   0  0  0  0  0  0  0  0  0  0  0  0
   -5.5814   13.4696  -12.1774 N   0  0  0  0  0  0  0  0  0  0  0  0
   -5.9630   10.4847   -7.7359 C   0  0  0  0  0  0  0  0  0  0  0  0
   -5.8538   11.7563   -7.1621 C   0  0  0  0  0  0  0  0  0  0  0  0
   -4.5953   12.3060   -6.9160 C   0  0  0  0  0  0  0  0  0  0  0  0
   -3.4449   11.5852   -7.2379 C   0  0  0  0  0  0  0  0  0  0  0  0
   -3.5560   10.3115   -7.8043 C   0  0  0  0  0  0  0  0  0  0  0  0
   -4.8130    9.7655   -8.0531 C   0  0  0  0  0  0  0  0  0  0  0  0
   -2.0905   12.1634   -6.9778 C   0  0  0  0  0  0  0  0  0  0  0  0
   -1.7398   13.4211   -6.5005 C   0  0  0  0  0  0  0  0  0  0  0  0
   -0.4007   13.4556   -6.4362 N   0  0  3  0  0  0  0  0  0  0  0  0
    0.1858   12.3500   -6.8082 N   0  0  0  0  0  0  0  0  0  0  0  0
   -0.8018   11.5473   -7.1675 C   0  0  0  0  0  0  0  0  0  0  0  0
    0.4333   14.5672   -6.0053 C   0  0  0  0  0  0  0  0  0  0  0  0
   -6.0131   14.0330  -14.4162 O   0  0  0  0  0  0  0  0  0  0  0  0
   -4.6790   13.9767  -11.1295 C   0  0  0  0  0  0  0  0  0  0  0  0
   -4.0830   15.2556  -11.5883 C   0  0  0  0  0  0  0  0  0  0  0  0
   -6.1181   12.2807   -9.8804 H   0  0  0  0  0  0  0  0  0  0  0  0
   -8.2128   10.0638  -13.8816 H   0  0  0  0  0  0  0  0  0  0  0  0
   -6.8897   12.1539  -14.1098 H   0  0  0  0  0  0  0  0  0  0  0  0
   -8.6335    7.9556   -9.4254 H   0  0  0  0  0  0  0  0  0  0  0  0
   -8.0363    9.5960   -7.2473 H   0  0  0  0  0  0  0  0  0  0  0  0
   -3.6420   15.2835  -13.6609 H   0  0  0  0  0  0  0  0  0  0  0  0
   -5.0325   16.3067  -13.1645 H   0  0  0  0  0  0  0  0  0  0  0  0
   -6.7444   12.3126   -6.9096 H   0  0  0  0  0  0  0  0  0  0  0  0
   -4.5117   13.2890   -6.4765 H   0  0  0  0  0  0  0  0  0  0  0  0
   -2.6662    9.7505   -8.0491 H   0  0  0  0  0  0  0  0  0  0  0  0
   -4.8962    8.7826   -8.4928 H   0  0  0  0  0  0  0  0  0  0  0  0
   -2.1055   14.2006   -7.1850 H   0  0  0  0  0  0  0  0  0  0  0  0
   -2.1704   13.5795   -5.5008 H   0  0  0  0  0  0  0  0  0  0  0  0
   -0.6596   10.5498   -7.5564 H   0  0  0  0  0  0  0  0  0  0  0  0
    1.4925   14.2769   -6.0668 H   0  0  0  0  0  0  0  0  0  0  0  0
    0.2526   15.4350   -6.6567 H   0  0  0  0  0  0  0  0  0  0  0  0
    0.1851   14.8305   -4.9665 H   0  0  0  0  0  0  0  0  0  0  0  0
   -5.2469   14.1452  -10.2026 H   0  0  0  0  0  0  0  0  0  0  0  0
   -3.8809   13.2432  -10.9424 H   0  0  0  0  0  0  0  0  0  0  0  0
   -2.9857   15.2276  -11.5166 H   0  0  0  0  0  0  0  0  0  0  0  0
   -4.4673   16.1029  -11.0014 H   0  0  0  0  0  0  0  0  0  0  0  0
  1  2  2  0  0  0  0
  1  4  1  0  0  0  0
  1 13  1  0  0  0  0
  2  6  1  0  0  0  0
  3  4  2  0  0  0  0
  3  5  1  0  0  0  0
  5  6  1  0  0  0  0
  5  9  2  0  0  0  0
  6  7  2  0  0  0  0
  7  8  1  0  0  0  0
  7 10  1  0  0  0  0
  8  9  1  0  0  0  0
 10 14  2  0  0  0  0
 11 12  1  0  0  0  0
 11 13  1  0  0  0  0
 11 26  2  0  0  0  0
 12 28  1  0  0  0  0
 13 27  1  0  0  0  0
 14 15  1  0  0  0  0
 14 19  1  0  0  0  0
 15 16  2  0  0  0  0
 16 17  1  0  0  0  0
 17 18  1  0  0  0  0
 17 20  2  0  0  0  0
 18 19  2  0  0  0  0
 20 21  1  0  0  0  0
 20 24  1  0  0  0  0
 21 22  1  0  0  0  0
 22 23  1  0  0  0  0
 22 25  1  0  0  0  0
 23 24  2  0  0  0  0
 27 28  1  0  0  0  0
  2 29  1  0  0  0  0
  3 30  1  0  0  0  0
  4 31  1  0  0  0  0
  8 32  1  0  0  0  0
 10 33  1  0  0  0  0
 12 34  1  0  0  0  0
 12 35  1  0  0  0  0
 15 36  1  0  0  0  0
 16 37  1  0  0  0  0
 18 38  1  0  0  0  0
 19 39  1  0  0  0  0
 21 40  1  0  0  0  0
 21 41  1  0  0  0  0
 24 42  1  0  0  0  0
 25 43  1  0  0  0  0
 25 44  1  0  0  0  0
 25 45  1  0  0  0  0
 27 46  1  0  0  0  0
 27 47  1  0  0  0  0
 28 48  1  0  0  0  0
 28 49  1  0  0  0  0
M  END
> <Name>
26

> <IC50[uM]>
0.036

$$$$
26
  -OEChem-05192314333D
 Structure written by MMmdl.
 49 53  0     1  0  0  0  0  0999 V2000
   -6.3961   12.3155  -12.0234 C   0  0  0  0  0  0  0  0  0  0  0  0
   -6.5478   11.7864  -10.7392 C   0  0  0  0  0  0  0  0  0  0  0  0
   -7.7431   10.5278  -13.0269 C   0  0  0  0  0  0  0  0  0  0  0  0
   -7.0034   11.6993  -13.1368 C   0  0  0  0  0  0  0  0  0  0  0  0
   -7.8411    9.9886  -11.7443 C   0  0  0  0  0  0  0  0  0  0  0  0
   -7.2672   10.6062  -10.5986 C   0  0  0  0  0  0  0  0  0  0  0  0
   -7.6276    9.7408   -9.5022 C   0  0  0  0  0  0  0  0  0  0  0  0
   -8.2893    8.7195   -9.9713 N   0  0  0  0  0  0  0  0  0  0  0  0
   -8.4361    8.8492  -11.2847 N   0  0  0  0  0  0  0  0  0  0  0  0
   -7.3404    9.8857   -8.0208 C   0  0  0  0  0  0  0  0  0  0  0  0
   -5.4704   14.2158  -13.3316 C   0  0  0  0  0  0  0  0  0  0  0  0
   -4.5218   15.3458  -13.0035 C   0  0  0  0  0  0  0  0  0  0  0  0
   -5.5814   13.4696  -12.1774 N   0  0  0  0  0  0  0  0  0  0  0  0
   -5.9630   10.4847   -7.7359 C   0  0  0  0  0  0  0  0  0  0  0  0
   -5.8538   11.7563   -7.1621 C   0  0  0  0  0  0  0  0  0  0  0  0
   -4.5953   12.3060   -6.9160 C   0  0  0  0  0  0  0  0  0  0  0  0
   -3.4449   11.5852   -7.2379 C   0  0  0  0  0  0  0  0  0  0  0  0
   -3.5560   10.3115   -7.8043 C   0  0  0  0  0  0  0  0  0  0  0  0
   -4.8130    9.7655   -8.0531 C   0  0  0  0  0  0  0  0  0  0  0  0
   -2.0905   12.1634   -6.9778 C   0  0  0  0  0  0  0  0  0  0  0  0
   -1.7398   13.4211   -6.5005 C   0  0  0  0  0  0  0  0  0  0  0  0
   -0.4007   13.4556   -6.4362 N   0  0  3  0  0  0  0  0  0  0  0  0
    0.1858   12.3500   -6.8082 N   0  0  0  0  0  0  0  0  0  0  0  0
   -0.8018   11.5473   -7.1675 C   0  0  0  0  0  0  0  0  0  0  0  0
    0.4333   14.5672   -6.0053 C   0  0  0  0  0  0  0  0  0  0  0  0
   -6.0131   14.0330  -14.4162 O   0  0  0  0  0  0  0  0  0  0  0  0
   -4.6790   13.9767  -11.1295 C   0  0  0  0  0  0  0  0  0  0  0  0
   -4.0830   15.2556  -11.5883 C   0  0  0  0  0  0  0  0  0  0  0  0
   -6.1181   12.2807   -9.8804 H   0  0  0  0  0  0  0  0  0  0  0  0
   -8.2128   10.0638  -13.8816 H   0  0  0  0  0  0  0  0  0  0  0  0
   -6.8897   12.1539  -14.1098 H   0  0  0  0  0  0  0  0  0  0  0  0
   -8.9215    8.1945  -11.8642 H   0  0  0  0  0  0  0  0  0  0  0  0
   -8.0363    9.5960   -7.2473 H   0  0  0  0  0  0  0  0  0  0  0  0
   -3.6420   15.2835  -13.6609 H   0  0  0  0  0  0  0  0  0  0  0  0
   -5.0325   16.3067  -13.1645 H   0  0  0  0  0  0  0  0  0  0  0  0
   -6.7444   12.3126   -6.9096 H   0  0  0  0  0  0  0  0  0  0  0  0
   -4.5117   13.2890   -6.4765 H   0  0  0  0  0  0  0  0  0  0  0  0
   -2.6662    9.7505   -8.0491 H   0  0  0  0  0  0  0  0  0  0  0  0
   -4.8962    8.7826   -8.4928 H   0  0  0  0  0  0  0  0  0  0  0  0
   -2.1055   14.2006   -7.1850 H   0  0  0  0  0  0  0  0  0  0  0  0
   -2.1704   13.5795   -5.5008 H   0  0  0  0  0  0  0  0  0  0  0  0
   -0.6596   10.5498   -7.5564 H   0  0  0  0  0  0  0  0  0  0  0  0
    1.4925   14.2769   -6.0668 H   0  0  0  0  0  0  0  0  0  0  0  0
    0.2526   15.4350   -6.6567 H   0  0  0  0  0  0  0  0  0  0  0  0
    0.1851   14.8305   -4.9665 H   0  0  0  0  0  0  0  0  0  0  0  0
   -5.2469   14.1452  -10.2026 H   0  0  0  0  0  0  0  0  0  0  0  0
   -3.8809   13.2432  -10.9424 H   0  0  0  0  0  0  0  0  0  0  0  0
   -2.9857   15.2276  -11.5166 H   0  0  0  0  0  0  0  0  0  0  0  0
   -4.4673   16.1029  -11.0014 H   0  0  0  0  0  0  0  0  0  0  0  0
  1  2  2  0  0  0  0
  1  4  1  0  0  0  0
  1 13  1  0  0  0  0
  2  6  1  0  0  0  0
  3  4  2  0  0  0  0
  3  5  1  0  0  0  0
  5  6  2  0  0  0  0
  5  9  1  0  0  0  0
  6  7  1  0  0  0  0
  7  8  2  0  0  0  0
  7 10  1  0  0  0  0
  8  9  1  0  0  0  0
 10 14  2  0  0  0  0
 11 12  1  0  0  0  0
 11 13  1  0  0  0  0
 11 26  2  0  0  0  0
 12 28  1  0  0  0  0
 13 27  1  0  0  0  0
 14 15  1  0  0  0  0
 14 19  1  0  0  0  0
 15 16  2  0  0  0  0
 16 17  1  0  0  0  0
 17 18  1  0  0  0  0
 17 20  2  0  0  0  0
 18 19  2  0  0  0  0
 20 21  1  0  0  0  0
 20 24  1  0  0  0  0
 21 22  1  0  0  0  0
 22 23  1  0  0  0  0
 22 25  1  0  0  0  0
 23 24  2  0  0  0  0
 27 28  1  0  0  0  0
  2 29  1  0  0  0  0
  3 30  1  0  0  0  0
  4 31  1  0  0  0  0
  9 32  1  0  0  0  0
 10 33  1  0  0  0  0
 12 34  1  0  0  0  0
 12 35  1  0  0  0  0
 15 36  1  0  0  0  0
 16 37  1  0  0  0  0
 18 38  1  0  0  0  0
 19 39  1  0  0  0  0
 21 40  1  0  0  0  0
 21 41  1  0  0  0  0
 24 42  1  0  0  0  0
 25 43  1  0  0  0  0
 25 44  1  0  0  0  0
 25 45  1  0  0  0  0
 27 46  1  0  0  0  0
 27 47  1  0  0  0  0
 28 48  1  0  0  0  0
 28 49  1  0  0  0  0
M  END
> <Name>
26

> <IC50[uM]>
0.036

$$$$
26
  -OEChem-05192314333D
 Structure written by MMmdl.
 49 53  0     0  0  0  0  0  0999 V2000
   -6.3961   12.3155  -12.0234 C   0  0  0  0  0  0  0  0  0  0  0  0
   -6.5478   11.7864  -10.7392 C   0  0  0  0  0  0  0  0  0  0  0  0
   -7.7431   10.5278  -13.0269 C   0  0  0  0  0  0  0  0  0  0  0  0
   -7.0034   11.6993  -13.1368 C   0  0  0  0  0  0  0  0  0  0  0  0
   -7.8411    9.9886  -11.7443 C   0  0  0  0  0  0  0  0  0  0  0  0
   -7.2672   10.6062  -10.5986 C   0  0  0  0  0  0  0  0  0  0  0  0
   -7.6276    9.7408   -9.5022 C   0  0  0  0  0  0  0  0  0  0  0  0
   -8.2893    8.7195   -9.9713 N   0  0  0  0  0  0  0  0  0  0  0  0
   -8.4361    8.8492  -11.2847 N   0  0  0  0  0  0  0  0  0  0  0  0
   -7.3404    9.8857   -8.0208 C   0  0  0  0  0  0  0  0  0  0  0  0
   -5.4704   14.2158  -13.3316 C   0  0  0  0  0  0  0  0  0  0  0  0
   -4.5218   15.3458  -13.0035 C   0  0  0  0  0  0  0  0  0  0  0  0
   -5.5814   13.4696  -12.1774 N   0  0  0  0  0  0  0  0  0  0  0  0
   -5.9630   10.4847   -7.7359 C   0  0  0  0  0  0  0  0  0  0  0  0
   -5.8538   11.7563   -7.1621 C   0  0  0  0  0  0  0  0  0  0  0  0
   -4.5953   12.3060   -6.9160 C   0  0  0  0  0  0  0  0  0  0  0  0
   -3.4449   11.5852   -7.2379 C   0  0  0  0  0  0  0  0  0  0  0  0
   -3.5560   10.3115   -7.8043 C   0  0  0  0  0  0  0  0  0  0  0  0
   -4.8130    9.7655   -8.0531 C   0  0  0  0  0  0  0  0  0  0  0  0
   -2.0905   12.1634   -6.9778 C   0  0  0  0  0  0  0  0  0  0  0  0
   -1.7398   13.4211   -6.5005 C   0  0  0  0  0  0  0  0  0  0  0  0
   -0.4007   13.4556   -6.4362 N   0  0  0  0  0  0  0  0  0  0  0  0
    0.1858   12.3500   -6.8082 N   0  0  0  0  0  0  0  0  0  0  0  0
   -0.8018   11.5473   -7.1675 C   0  0  0  0  0  0  0  0  0  0  0  0
    0.4333   14.5672   -6.0053 C   0  0  0  0  0  0  0  0  0  0  0  0
   -6.0131   14.0330  -14.4162 O   0  0  0  0  0  0  0  0  0  0  0  0
   -4.6790   13.9767  -11.1295 C   0  0  0  0  0  0  0  0  0  0  0  0
   -4.0830   15.2556  -11.5883 C   0  0  0  0  0  0  0  0  0  0  0  0
   -6.1181   12.2807   -9.8804 H   0  0  0  0  0  0  0  0  0  0  0  0
   -8.2128   10.0638  -13.8816 H   0  0  0  0  0  0  0  0  0  0  0  0
   -6.8897   12.1539  -14.1098 H   0  0  0  0  0  0  0  0  0  0  0  0
   -8.6335    7.9556   -9.4254 H   0  0  0  0  0  0  0  0  0  0  0  0
   -8.0363    9.5960   -7.2473 H   0  0  0  0  0  0  0  0  0  0  0  0
   -3.6420   15.2835  -13.6609 H   0  0  0  0  0  0  0  0  0  0  0  0
   -5.0325   16.3067  -13.1645 H   0  0  0  0  0  0  0  0  0  0  0  0
   -6.7444   12.3126   -6.9096 H   0  0  0  0  0  0  0  0  0  0  0  0
   -4.5117   13.2890   -6.4765 H   0  0  0  0  0  0  0  0  0  0  0  0
   -3.4442   12.0330   -8.2426 H   0  0  0  0  0  0  0  0  0  0  0  0
   -2.6662    9.7505   -8.0491 H   0  0  0  0  0  0  0  0  0  0  0  0
   -4.8962    8.7826   -8.4928 H   0  0  0  0  0  0  0  0  0  0  0  0
   -2.4169   14.2186   -6.2325 H   0  0  0  0  0  0  0  0  0  0  0  0
   -0.6596   10.5498   -7.5564 H   0  0  0  0  0  0  0  0  0  0  0  0
    1.4925   14.2769   -6.0668 H   0  0  0  0  0  0  0  0  0  0  0  0
    0.2526   15.4350   -6.6567 H   0  0  0  0  0  0  0  0  0  0  0  0
    0.1851   14.8305   -4.9665 H   0  0  0  0  0  0  0  0  0  0  0  0
   -5.2469   14.1452  -10.2026 H   0  0  0  0  0  0  0  0  0  0  0  0
   -3.8809   13.2432  -10.9424 H   0  0  0  0  0  0  0  0  0  0  0  0
   -2.9857   15.2276  -11.5166 H   0  0  0  0  0  0  0  0  0  0  0  0
   -4.4673   16.1029  -11.0014 H   0  0  0  0  0  0  0  0  0  0  0  0
  1  2  2  0  0  0  0
  1  4  1  0  0  0  0
  1 13  1  0  0  0  0
  2  6  1  0  0  0  0
  3  4  2  0  0  0  0
  3  5  1  0  0  0  0
  5  6  1  0  0  0  0
  5  9  2  0  0  0  0
  6  7  2  0  0  0  0
  7  8  1  0  0  0  0
  7 10  1  0  0  0  0
  8  9  1  0  0  0  0
 10 14  2  0  0  0  0
 11 12  1  0  0  0  0
 11 13  1  0  0  0  0
 11 26  2  0  0  0  0
 12 28  1  0  0  0  0
 13 27  1  0  0  0  0
 14 15  1  0  0  0  0
 14 19  1  0  0  0  0
 15 16  2  0  0  0  0
 16 17  1  0  0  0  0
 17 18  1  0  0  0  0
 17 20  1  0  0  0  0
 18 19  2  0  0  0  0
 20 21  2  0  0  0  0
 20 24  1  0  0  0  0
 21 22  1  0  0  0  0
 22 23  1  0  0  0  0
 22 25  1  0  0  0  0
 23 24  2  0  0  0  0
 27 28  1  0  0  0  0
  2 29  1  0  0  0  0
  3 30  1  0  0  0  0
  4 31  1  0  0  0  0
  8 32  1  0  0  0  0
 10 33  1  0  0  0  0
 12 34  1  0  0  0  0
 12 35  1  0  0  0  0
 15 36  1  0  0  0  0
 16 37  1  0  0  0  0
 17 38  1  0  0  0  0
 18 39  1  0  0  0  0
 19 40  1  0  0  0  0
 21 41  1  0  0  0  0
 24 42  1  0  0  0  0
 25 43  1  0  0  0  0
 25 44  1  0  0  0  0
 25 45  1  0  0  0  0
 27 46  1  0  0  0  0
 27 47  1  0  0  0  0
 28 48  1  0  0  0  0
 28 49  1  0  0  0  0
M  END
> <Name>
26

> <IC50[uM]>
0.036

$$$$
26
  -OEChem-05192314333D
 Structure written by MMmdl.
 49 53  0     0  0  0  0  0  0999 V2000
   -6.3961   12.3155  -12.0234 C   0  0  0  0  0  0  0  0  0  0  0  0
   -6.5478   11.7864  -10.7392 C   0  0  0  0  0  0  0  0  0  0  0  0
   -7.7431   10.5278  -13.0269 C   0  0  0  0  0  0  0  0  0  0  0  0
   -7.0034   11.6993  -13.1368 C   0  0  0  0  0  0  0  0  0  0  0  0
   -7.8411    9.9886  -11.7443 C   0  0  0  0  0  0  0  0  0  0  0  0
   -7.2672   10.6062  -10.5986 C   0  0  0  0  0  0  0  0  0  0  0  0
   -7.6276    9.7408   -9.5022 C   0  0  0  0  0  0  0  0  0  0  0  0
   -8.2893    8.7195   -9.9713 N   0  0  0  0  0  0  0  0  0  0  0  0
   -8.4361    8.8492  -11.2847 N   0  0  0  0  0  0  0  0  0  0  0  0
   -7.3404    9.8857   -8.0208 C   0  0  0  0  0  0  0  0  0  0  0  0
   -5.4704   14.2158  -13.3316 C   0  0  0  0  0  0  0  0  0  0  0  0
   -4.5218   15.3458  -13.0035 C   0  0  0  0  0  0  0  0  0  0  0  0
   -5.5814   13.4696  -12.1774 N   0  0  0  0  0  0  0  0  0  0  0  0
   -5.9630   10.4847   -7.7359 C   0  0  0  0  0  0  0  0  0  0  0  0
   -5.8538   11.7563   -7.1621 C   0  0  0  0  0  0  0  0  0  0  0  0
   -4.5953   12.3060   -6.9160 C   0  0  0  0  0  0  0  0  0  0  0  0
   -3.4449   11.5852   -7.2379 C   0  0  0  0  0  0  0  0  0  0  0  0
   -3.5560   10.3115   -7.8043 C   0  0  0  0  0  0  0  0  0  0  0  0
   -4.8130    9.7655   -8.0531 C   0  0  0  0  0  0  0  0  0  0  0  0
   -2.0905   12.1634   -6.9778 C   0  0  0  0  0  0  0  0  0  0  0  0
   -1.7398   13.4211   -6.5005 C   0  0  0  0  0  0  0  0  0  0  0  0
   -0.4007   13.4556   -6.4362 N   0  0  0  0  0  0  0  0  0  0  0  0
    0.1858   12.3500   -6.8082 N   0  0  0  0  0  0  0  0  0  0  0  0
   -0.8018   11.5473   -7.1675 C   0  0  0  0  0  0  0  0  0  0  0  0
    0.4333   14.5672   -6.0053 C   0  0  0  0  0  0  0  0  0  0  0  0
   -6.0131   14.0330  -14.4162 O   0  0  0  0  0  0  0  0  0  0  0  0
   -4.6790   13.9767  -11.1295 C   0  0  0  0  0  0  0  0  0  0  0  0
   -4.0830   15.2556  -11.5883 C   0  0  0  0  0  0  0  0  0  0  0  0
   -6.1181   12.2807   -9.8804 H   0  0  0  0  0  0  0  0  0  0  0  0
   -8.2128   10.0638  -13.8816 H   0  0  0  0  0  0  0  0  0  0  0  0
   -6.8897   12.1539  -14.1098 H   0  0  0  0  0  0  0  0  0  0  0  0
   -8.9215    8.1945  -11.8642 H   0  0  0  0  0  0  0  0  0  0  0  0
   -8.0363    9.5960   -7.2473 H   0  0  0  0  0  0  0  0  0  0  0  0
   -3.6420   15.2835  -13.6609 H   0  0  0  0  0  0  0  0  0  0  0  0
   -5.0325   16.3067  -13.1645 H   0  0  0  0  0  0  0  0  0  0  0  0
   -6.7444   12.3126   -6.9096 H   0  0  0  0  0  0  0  0  0  0  0  0
   -4.5117   13.2890   -6.4765 H   0  0  0  0  0  0  0  0  0  0  0  0
   -3.4442   12.0330   -8.2426 H   0  0  0  0  0  0  0  0  0  0  0  0
   -2.6662    9.7505   -8.0491 H   0  0  0  0  0  0  0  0  0  0  0  0
   -4.8962    8.7826   -8.4928 H   0  0  0  0  0  0  0  0  0  0  0  0
   -2.4169   14.2186   -6.2325 H   0  0  0  0  0  0  0  0  0  0  0  0
   -0.6596   10.5498   -7.5564 H   0  0  0  0  0  0  0  0  0  0  0  0
    1.4925   14.2769   -6.0668 H   0  0  0  0  0  0  0  0  0  0  0  0
    0.2526   15.4350   -6.6567 H   0  0  0  0  0  0  0  0  0  0  0  0
    0.1851   14.8305   -4.9665 H   0  0  0  0  0  0  0  0  0  0  0  0
   -5.2469   14.1452  -10.2026 H   0  0  0  0  0  0  0  0  0  0  0  0
   -3.8809   13.2432  -10.9424 H   0  0  0  0  0  0  0  0  0  0  0  0
   -2.9857   15.2276  -11.5166 H   0  0  0  0  0  0  0  0  0  0  0  0
   -4.4673   16.1029  -11.0014 H   0  0  0  0  0  0  0  0  0  0  0  0
  1  2  2  0  0  0  0
  1  4  1  0  0  0  0
  1 13  1  0  0  0  0
  2  6  1  0  0  0  0
  3  4  2  0  0  0  0
  3  5  1  0  0  0  0
  5  6  2  0  0  0  0
  5  9  1  0  0  0  0
  6  7  1  0  0  0  0
  7  8  2  0  0  0  0
  7 10  1  0  0  0  0
  8  9  1  0  0  0  0
 10 14  2  0  0  0  0
 11 12  1  0  0  0  0
 11 13  1  0  0  0  0
 11 26  2  0  0  0  0
 12 28  1  0  0  0  0
 13 27  1  0  0  0  0
 14 15  1  0  0  0  0
 14 19  1  0  0  0  0
 15 16  2  0  0  0  0
 16 17  1  0  0  0  0
 17 18  1  0  0  0  0
 17 20  1  0  0  0  0
 18 19  2  0  0  0  0
 20 21  2  0  0  0  0
 20 24  1  0  0  0  0
 21 22  1  0  0  0  0
 22 23  1  0  0  0  0
 22 25  1  0  0  0  0
 23 24  2  0  0  0  0
 27 28  1  0  0  0  0
  2 29  1  0  0  0  0
  3 30  1  0  0  0  0
  4 31  1  0  0  0  0
  9 32  1  0  0  0  0
 10 33  1  0  0  0  0
 12 34  1  0  0  0  0
 12 35  1  0  0  0  0
 15 36  1  0  0  0  0
 16 37  1  0  0  0  0
 17 38  1  0  0  0  0
 18 39  1  0  0  0  0
 19 40  1  0  0  0  0
 21 41  1  0  0  0  0
 24 42  1  0  0  0  0
 25 43  1  0  0  0  0
 25 44  1  0  0  0  0
 25 45  1  0  0  0  0
 27 46  1  0  0  0  0
 27 47  1  0  0  0  0
 28 48  1  0  0  0  0
 28 49  1  0  0  0  0
M  END
> <Name>
26

> <IC50[uM]>
0.036

$$$$
26
  -OEChem-05192314333D
 Structure written by MMmdl.
 49 53  0     0  0  0  0  0  0999 V2000
   -6.3961   12.3155  -12.0234 C   0  0  0  0  0  0  0  0  0  0  0  0
   -6.5478   11.7864  -10.7392 C   0  0  0  0  0  0  0  0  0  0  0  0
   -7.7431   10.5278  -13.0269 C   0  0  0  0  0  0  0  0  0  0  0  0
   -7.0034   11.6993  -13.1368 C   0  0  0  0  0  0  0  0  0  0  0  0
   -7.8411    9.9886  -11.7443 C   0  0  0  0  0  0  0  0  0  0  0  0
   -7.2672   10.6062  -10.5986 C   0  0  0  0  0  0  0  0  0  0  0  0
   -7.6276    9.7408   -9.5022 C   0  0  0  0  0  0  0  0  0  0  0  0
   -8.2893    8.7195   -9.9713 N   0  0  0  0  0  0  0  0  0  0  0  0
   -8.4361    8.8492  -11.2847 N   0  0  0  0  0  0  0  0  0  0  0  0
   -7.3404    9.8857   -8.0208 C   0  0  0  0  0  0  0  0  0  0  0  0
   -5.4704   14.2158  -13.3316 C   0  0  0  0  0  0  0  0  0  0  0  0
   -4.5218   15.3458  -13.0035 C   0  0  0  0  0  0  0  0  0  0  0  0
   -5.5814   13.4696  -12.1774 N   0  0  0  0  0  0  0  0  0  0  0  0
   -5.9630   10.4847   -7.7359 C   0  0  0  0  0  0  0  0  0  0  0  0
   -5.8538   11.7563   -7.1621 C   0  0  0  0  0  0  0  0  0  0  0  0
   -4.5953   12.3060   -6.9160 C   0  0  0  0  0  0  0  0  0  0  0  0
   -3.4449   11.5852   -7.2379 C   0  0  0  0  0  0  0  0  0  0  0  0
   -3.5560   10.3115   -7.8043 C   0  0  0  0  0  0  0  0  0  0  0  0
   -4.8130    9.7655   -8.0531 C   0  0  0  0  0  0  0  0  0  0  0  0
   -2.0905   12.1634   -6.9778 C   0  0  0  0  0  0  0  0  0  0  0  0
   -1.7398   13.4211   -6.5005 C   0  0  0  0  0  0  0  0  0  0  0  0
   -0.4007   13.4556   -6.4362 N   0  0  0  0  0  0  0  0  0  0  0  0
    0.1858   12.3500   -6.8082 N   0  0  0  0  0  0  0  0  0  0  0  0
   -0.8018   11.5473   -7.1675 C   0  0  0  0  0  0  0  0  0  0  0  0
    0.4333   14.5672   -6.0053 C   0  0  0  0  0  0  0  0  0  0  0  0
   -6.0131   14.0330  -14.4162 O   0  0  0  0  0  0  0  0  0  0  0  0
   -4.6790   13.9767  -11.1295 C   0  0  0  0  0  0  0  0  0  0  0  0
   -4.0830   15.2556  -11.5883 C   0  0  0  0  0  0  0  0  0  0  0  0
   -6.1181   12.2807   -9.8804 H   0  0  0  0  0  0  0  0  0  0  0  0
   -8.2128   10.0638  -13.8816 H   0  0  0  0  0  0  0  0  0  0  0  0
   -6.8897   12.1539  -14.1098 H   0  0  0  0  0  0  0  0  0  0  0  0
   -8.6335    7.9556   -9.4254 H   0  0  0  0  0  0  0  0  0  0  0  0
   -8.0363    9.5960   -7.2473 H   0  0  0  0  0  0  0  0  0  0  0  0
   -3.6420   15.2835  -13.6609 H   0  0  0  0  0  0  0  0  0  0  0  0
   -5.0325   16.3067  -13.1645 H   0  0  0  0  0  0  0  0  0  0  0  0
   -6.7444   12.3126   -6.9096 H   0  0  0  0  0  0  0  0  0  0  0  0
   -4.5117   13.2890   -6.4765 H   0  0  0  0  0  0  0  0  0  0  0  0
   -2.6662    9.7505   -8.0491 H   0  0  0  0  0  0  0  0  0  0  0  0
   -4.8650    8.8210   -7.4917 H   0  0  0  0  0  0  0  0  0  0  0  0
   -4.8588    9.5541   -9.1316 H   0  0  0  0  0  0  0  0  0  0  0  0
   -2.4169   14.2186   -6.2325 H   0  0  0  0  0  0  0  0  0  0  0  0
   -0.6596   10.5498   -7.5564 H   0  0  0  0  0  0  0  0  0  0  0  0
    1.4925   14.2769   -6.0668 H   0  0  0  0  0  0  0  0  0  0  0  0
    0.2526   15.4350   -6.6567 H   0  0  0  0  0  0  0  0  0  0  0  0
    0.1851   14.8305   -4.9665 H   0  0  0  0  0  0  0  0  0  0  0  0
   -5.2469   14.1452  -10.2026 H   0  0  0  0  0  0  0  0  0  0  0  0
   -3.8809   13.2432  -10.9424 H   0  0  0  0  0  0  0  0  0  0  0  0
   -2.9857   15.2276  -11.5166 H   0  0  0  0  0  0  0  0  0  0  0  0
   -4.4673   16.1029  -11.0014 H   0  0  0  0  0  0  0  0  0  0  0  0
  1  2  2  0  0  0  0
  1  4  1  0  0  0  0
  1 13  1  0  0  0  0
  2  6  1  0  0  0  0
  3  4  2  0  0  0  0
  3  5  1  0  0  0  0
  5  6  1  0  0  0  0
  5  9  2  0  0  0  0
  6  7  2  0  0  0  0
  7  8  1  0  0  0  0
  7 10  1  0  0  0  0
  8  9  1  0  0  0  0
 10 14  2  3  0  0  0
 11 12  1  0  0  0  0
 11 13  1  0  0  0  0
 11 26  2  0  0  0  0
 12 28  1  0  0  0  0
 13 27  1  0  0  0  0
 14 15  1  0  0  0  0
 14 19  1  0  0  0  0
 15 16  2  0  0  0  0
 16 17  1  0  0  0  0
 17 18  2  0  0  0  0
 17 20  1  0  0  0  0
 18 19  1  0  0  0  0
 20 21  2  0  0  0  0
 20 24  1  0  0  0  0
 21 22  1  0  0  0  0
 22 23  1  0  0  0  0
 22 25  1  0  0  0  0
 23 24  2  0  0  0  0
 27 28  1  0  0  0  0
  2 29  1  0  0  0  0
  3 30  1  0  0  0  0
  4 31  1  0  0  0  0
  8 32  1  0  0  0  0
 10 33  1  0  0  0  0
 12 34  1  0  0  0  0
 12 35  1  0  0  0  0
 15 36  1  0  0  0  0
 16 37  1  0  0  0  0
 18 38  1  0  0  0  0
 19 39  1  0  0  0  0
 19 40  1  0  0  0  0
 21 41  1  0  0  0  0
 24 42  1  0  0  0  0
 25 43  1  0  0  0  0
 25 44  1  0  0  0  0
 25 45  1  0  0  0  0
 27 46  1  0  0  0  0
 27 47  1  0  0  0  0
 28 48  1  0  0  0  0
 28 49  1  0  0  0  0
M  END
> <Name>
26

> <IC50[uM]>
0.036

$$$$
26
  -OEChem-05192314333D
 Structure written by MMmdl.
 49 53  0     0  0  0  0  0  0999 V2000
   -6.3961   12.3155  -12.0234 C   0  0  0  0  0  0  0  0  0  0  0  0
   -6.5478   11.7864  -10.7392 C   0  0  0  0  0  0  0  0  0  0  0  0
   -7.7431   10.5278  -13.0269 C   0  0  0  0  0  0  0  0  0  0  0  0
   -7.0034   11.6993  -13.1368 C   0  0  0  0  0  0  0  0  0  0  0  0
   -7.8411    9.9886  -11.7443 C   0  0  0  0  0  0  0  0  0  0  0  0
   -7.2672   10.6062  -10.5986 C   0  0  0  0  0  0  0  0  0  0  0  0
   -7.6276    9.7408   -9.5022 C   0  0  0  0  0  0  0  0  0  0  0  0
   -8.2893    8.7195   -9.9713 N   0  0  0  0  0  0  0  0  0  0  0  0
   -8.4361    8.8492  -11.2847 N   0  0  0  0  0  0  0  0  0  0  0  0
   -7.3404    9.8857   -8.0208 C   0  0  0  0  0  0  0  0  0  0  0  0
   -5.4704   14.2158  -13.3316 C   0  0  0  0  0  0  0  0  0  0  0  0
   -4.5218   15.3458  -13.0035 C   0  0  0  0  0  0  0  0  0  0  0  0
   -5.5814   13.4696  -12.1774 N   0  0  0  0  0  0  0  0  0  0  0  0
   -5.9630   10.4847   -7.7359 C   0  0  0  0  0  0  0  0  0  0  0  0
   -5.8538   11.7563   -7.1621 C   0  0  0  0  0  0  0  0  0  0  0  0
   -4.5953   12.3060   -6.9160 C   0  0  0  0  0  0  0  0  0  0  0  0
   -3.4449   11.5852   -7.2379 C   0  0  0  0  0  0  0  0  0  0  0  0
   -3.5560   10.3115   -7.8043 C   0  0  0  0  0  0  0  0  0  0  0  0
   -4.8130    9.7655   -8.0531 C   0  0  0  0  0  0  0  0  0  0  0  0
   -2.0905   12.1634   -6.9778 C   0  0  0  0  0  0  0  0  0  0  0  0
   -1.7398   13.4211   -6.5005 C   0  0  0  0  0  0  0  0  0  0  0  0
   -0.4007   13.4556   -6.4362 N   0  0  0  0  0  0  0  0  0  0  0  0
    0.1858   12.3500   -6.8082 N   0  0  0  0  0  0  0  0  0  0  0  0
   -0.8018   11.5473   -7.1675 C   0  0  0  0  0  0  0  0  0  0  0  0
    0.4333   14.5672   -6.0053 C   0  0  0  0  0  0  0  0  0  0  0  0
   -6.0131   14.0330  -14.4162 O   0  0  0  0  0  0  0  0  0  0  0  0
   -4.6790   13.9767  -11.1295 C   0  0  0  0  0  0  0  0  0  0  0  0
   -4.0830   15.2556  -11.5883 C   0  0  0  0  0  0  0  0  0  0  0  0
   -6.1181   12.2807   -9.8804 H   0  0  0  0  0  0  0  0  0  0  0  0
   -8.2128   10.0638  -13.8816 H   0  0  0  0  0  0  0  0  0  0  0  0
   -6.8897   12.1539  -14.1098 H   0  0  0  0  0  0  0  0  0  0  0  0
   -8.9215    8.1945  -11.8642 H   0  0  0  0  0  0  0  0  0  0  0  0
   -8.0363    9.5960   -7.2473 H   0  0  0  0  0  0  0  0  0  0  0  0
   -3.6420   15.2835  -13.6609 H   0  0  0  0  0  0  0  0  0  0  0  0
   -5.0325   16.3067  -13.1645 H   0  0  0  0  0  0  0  0  0  0  0  0
   -6.7444   12.3126   -6.9096 H   0  0  0  0  0  0  0  0  0  0  0  0
   -4.5117   13.2890   -6.4765 H   0  0  0  0  0  0  0  0  0  0  0  0
   -2.6662    9.7505   -8.0491 H   0  0  0  0  0  0  0  0  0  0  0  0
   -4.8650    8.8210   -7.4917 H   0  0  0  0  0  0  0  0  0  0  0  0
   -4.8588    9.5541   -9.1316 H   0  0  0  0  0  0  0  0  0  0  0  0
   -2.4169   14.2186   -6.2325 H   0  0  0  0  0  0  0  0  0  0  0  0
   -0.6596   10.5498   -7.5564 H   0  0  0  0  0  0  0  0  0  0  0  0
    1.4925   14.2769   -6.0668 H   0  0  0  0  0  0  0  0  0  0  0  0
    0.2526   15.4350   -6.6567 H   0  0  0  0  0  0  0  0  0  0  0  0
    0.1851   14.8305   -4.9665 H   0  0  0  0  0  0  0  0  0  0  0  0
   -5.2469   14.1452  -10.2026 H   0  0  0  0  0  0  0  0  0  0  0  0
   -3.8809   13.2432  -10.9424 H   0  0  0  0  0  0  0  0  0  0  0  0
   -2.9857   15.2276  -11.5166 H   0  0  0  0  0  0  0  0  0  0  0  0
   -4.4673   16.1029  -11.0014 H   0  0  0  0  0  0  0  0  0  0  0  0
  1  2  2  0  0  0  0
  1  4  1  0  0  0  0
  1 13  1  0  0  0  0
  2  6  1  0  0  0  0
  3  4  2  0  0  0  0
  3  5  1  0  0  0  0
  5  6  2  0  0  0  0
  5  9  1  0  0  0  0
  6  7  1  0  0  0  0
  7  8  2  0  0  0  0
  7 10  1  0  0  0  0
  8  9  1  0  0  0  0
 10 14  2  3  0  0  0
 11 12  1  0  0  0  0
 11 13  1  0  0  0  0
 11 26  2  0  0  0  0
 12 28  1  0  0  0  0
 13 27  1  0  0  0  0
 14 15  1  0  0  0  0
 14 19  1  0  0  0  0
 15 16  2  0  0  0  0
 16 17  1  0  0  0  0
 17 18  2  0  0  0  0
 17 20  1  0  0  0  0
 18 19  1  0  0  0  0
 20 21  2  0  0  0  0
 20 24  1  0  0  0  0
 21 22  1  0  0  0  0
 22 23  1  0  0  0  0
 22 25  1  0  0  0  0
 23 24  2  0  0  0  0
 27 28  1  0  0  0  0
  2 29  1  0  0  0  0
  3 30  1  0  0  0  0
  4 31  1  0  0  0  0
  9 32  1  0  0  0  0
 10 33  1  0  0  0  0
 12 34  1  0  0  0  0
 12 35  1  0  0  0  0
 15 36  1  0  0  0  0
 16 37  1  0  0  0  0
 18 38  1  0  0  0  0
 19 39  1  0  0  0  0
 19 40  1  0  0  0  0
 21 41  1  0  0  0  0
 24 42  1  0  0  0  0
 25 43  1  0  0  0  0
 25 44  1  0  0  0  0
 25 45  1  0  0  0  0
 27 46  1  0  0  0  0
 27 47  1  0  0  0  0
 28 48  1  0  0  0  0
 28 49  1  0  0  0  0
M  END
> <Name>
26

> <IC50[uM]>
0.036

$$$$
26
  -OEChem-05192314333D
 Structure written by MMmdl.
 49 53  0     1  0  0  0  0  0999 V2000
   -6.3961   12.3155  -12.0234 C   0  0  0  0  0  0  0  0  0  0  0  0
   -6.5478   11.7864  -10.7392 C   0  0  0  0  0  0  0  0  0  0  0  0
   -7.7431   10.5278  -13.0269 C   0  0  0  0  0  0  0  0  0  0  0  0
   -7.0034   11.6993  -13.1368 C   0  0  0  0  0  0  0  0  0  0  0  0
   -7.8411    9.9886  -11.7443 C   0  0  0  0  0  0  0  0  0  0  0  0
   -7.2672   10.6062  -10.5986 C   0  0  0  0  0  0  0  0  0  0  0  0
   -7.6276    9.7408   -9.5022 C   0  0  0  0  0  0  0  0  0  0  0  0
   -8.2893    8.7195   -9.9713 N   0  0  0  0  0  0  0  0  0  0  0  0
   -8.4361    8.8492  -11.2847 N   0  0  0  0  0  0  0  0  0  0  0  0
   -7.3404    9.8857   -8.0208 C   0  0  0  0  0  0  0  0  0  0  0  0
   -5.4704   14.2158  -13.3316 C   0  0  0  0  0  0  0  0  0  0  0  0
   -4.5218   15.3458  -13.0035 C   0  0  0  0  0  0  0  0  0  0  0  0
   -5.5814   13.4696  -12.1774 N   0  0  0  0  0  0  0  0  0  0  0  0
   -5.9630   10.4847   -7.7359 C   0  0  0  0  0  0  0  0  0  0  0  0
   -5.8538   11.7563   -7.1621 C   0  0  0  0  0  0  0  0  0  0  0  0
   -4.5953   12.3060   -6.9160 C   0  0  0  0  0  0  0  0  0  0  0  0
   -3.4449   11.5852   -7.2379 C   0  0  0  0  0  0  0  0  0  0  0  0
   -3.5560   10.3115   -7.8043 C   0  0  0  0  0  0  0  0  0  0  0  0
   -4.8130    9.7655   -8.0531 C   0  0  0  0  0  0  0  0  0  0  0  0
   -2.0905   12.1634   -6.9778 C   0  0  3  0  0  0  0  0  0  0  0  0
   -1.7398   13.4211   -6.5005 C   0  0  0  0  0  0  0  0  0  0  0  0
   -0.4007   13.4556   -6.4362 N   0  0  3  0  0  0  0  0  0  0  0  0
    0.1858   12.3500   -6.8082 N   0  0  0  0  0  0  0  0  0  0  0  0
   -0.8018   11.5473   -7.1675 C   0  0  0  0  0  0  0  0  0  0  0  0
    0.4333   14.5672   -6.0053 C   0  0  0  0  0  0  0  0  0  0  0  0
   -6.0131   14.0330  -14.4162 O   0  0  0  0  0  0  0  0  0  0  0  0
   -4.6790   13.9767  -11.1295 C   0  0  0  0  0  0  0  0  0  0  0  0
   -4.0830   15.2556  -11.5883 C   0  0  0  0  0  0  0  0  0  0  0  0
   -6.1181   12.2807   -9.8804 H   0  0  0  0  0  0  0  0  0  0  0  0
   -8.2128   10.0638  -13.8816 H   0  0  0  0  0  0  0  0  0  0  0  0
   -6.8897   12.1539  -14.1098 H   0  0  0  0  0  0  0  0  0  0  0  0
   -8.0363    9.5960   -7.2473 H   0  0  0  0  0  0  0  0  0  0  0  0
   -3.6420   15.2835  -13.6609 H   0  0  0  0  0  0  0  0  0  0  0  0
   -5.0325   16.3067  -13.1645 H   0  0  0  0  0  0  0  0  0  0  0  0
   -6.7444   12.3126   -6.9096 H   0  0  0  0  0  0  0  0  0  0  0  0
   -4.5117   13.2890   -6.4765 H   0  0  0  0  0  0  0  0  0  0  0  0
   -2.6662    9.7505   -8.0491 H   0  0  0  0  0  0  0  0  0  0  0  0
   -4.8962    8.7826   -8.4928 H   0  0  0  0  0  0  0  0  0  0  0  0
   -2.1234   11.7801   -5.9473 H   0  0  0  0  0  0  0  0  0  0  0  0
   -2.1055   14.2006   -7.1850 H   0  0  0  0  0  0  0  0  0  0  0  0
   -2.1704   13.5795   -5.5008 H   0  0  0  0  0  0  0  0  0  0  0  0
   -0.6596   10.5498   -7.5564 H   0  0  0  0  0  0  0  0  0  0  0  0
    1.4925   14.2769   -6.0668 H   0  0  0  0  0  0  0  0  0  0  0  0
    0.2526   15.4350   -6.6567 H   0  0  0  0  0  0  0  0  0  0  0  0
    0.1851   14.8305   -4.9665 H   0  0  0  0  0  0  0  0  0  0  0  0
   -5.2469   14.1452  -10.2026 H   0  0  0  0  0  0  0  0  0  0  0  0
   -3.8809   13.2432  -10.9424 H   0  0  0  0  0  0  0  0  0  0  0  0
   -2.9857   15.2276  -11.5166 H   0  0  0  0  0  0  0  0  0  0  0  0
   -4.4673   16.1029  -11.0014 H   0  0  0  0  0  0  0  0  0  0  0  0
  1  2  2  0  0  0  0
  1  4  1  0  0  0  0
  1 13  1  0  0  0  0
  2  6  1  0  0  0  0
  3  4  2  0  0  0  0
  3  5  1  0  0  0  0
  5  6  2  0  0  0  0
  5  9  1  0  0  0  0
  6  7  1  0  0  0  0
  7  8  1  0  0  0  0
  7 10  2  3  0  0  0
  8  9  2  0  0  0  0
 10 14  1  0  0  0  0
 11 12  1  0  0  0  0
 11 13  1  0  0  0  0
 11 26  2  0  0  0  0
 12 28  1  0  0  0  0
 13 27  1  0  0  0  0
 14 15  2  0  0  0  0
 14 19  1  0  0  0  0
 15 16  1  0  0  0  0
 16 17  2  0  0  0  0
 17 18  1  0  0  0  0
 17 20  1  0  0  0  0
 18 19  2  0  0  0  0
 20 21  1  0  0  0  0
 20 24  1  0  0  0  0
 21 22  1  0  0  0  0
 22 23  1  0  0  0  0
 22 25  1  0  0  0  0
 23 24  2  0  0  0  0
 27 28  1  0  0  0  0
  2 29  1  0  0  0  0
  3 30  1  0  0  0  0
  4 31  1  0  0  0  0
 10 32  1  0  0  0  0
 12 33  1  0  0  0  0
 12 34  1  0  0  0  0
 15 35  1  0  0  0  0
 16 36  1  0  0  0  0
 18 37  1  0  0  0  0
 19 38  1  0  0  0  0
 20 39  1  0  0  0  0
 21 40  1  0  0  0  0
 21 41  1  0  0  0  0
 24 42  1  0  0  0  0
 25 43  1  0  0  0  0
 25 44  1  0  0  0  0
 25 45  1  0  0  0  0
 27 46  1  0  0  0  0
 27 47  1  0  0  0  0
 28 48  1  0  0  0  0
 28 49  1  0  0  0  0
M  END
> <Name>
26

> <IC50[uM]>
0.036

$$$$
26
  -OEChem-05192314333D
 Structure written by MMmdl.
 49 53  0     1  0  0  0  0  0999 V2000
   -6.3961   12.3155  -12.0234 C   0  0  0  0  0  0  0  0  0  0  0  0
   -6.5478   11.7864  -10.7392 C   0  0  0  0  0  0  0  0  0  0  0  0
   -7.7431   10.5278  -13.0269 C   0  0  0  0  0  0  0  0  0  0  0  0
   -7.0034   11.6993  -13.1368 C   0  0  0  0  0  0  0  0  0  0  0  0
   -7.8411    9.9886  -11.7443 C   0  0  0  0  0  0  0  0  0  0  0  0
   -7.2672   10.6062  -10.5986 C   0  0  0  0  0  0  0  0  0  0  0  0
   -7.6276    9.7408   -9.5022 C   0  0  0  0  0  0  0  0  0  0  0  0
   -8.2893    8.7195   -9.9713 N   0  0  0  0  0  0  0  0  0  0  0  0
   -8.4361    8.8492  -11.2847 N   0  0  0  0  0  0  0  0  0  0  0  0
   -7.3404    9.8857   -8.0208 C   0  0  0  0  0  0  0  0  0  0  0  0
   -5.4704   14.2158  -13.3316 C   0  0  0  0  0  0  0  0  0  0  0  0
   -4.5218   15.3458  -13.0035 C   0  0  0  0  0  0  0  0  0  0  0  0
   -5.5814   13.4696  -12.1774 N   0  0  0  0  0  0  0  0  0  0  0  0
   -5.9630   10.4847   -7.7359 C   0  0  0  0  0  0  0  0  0  0  0  0
   -5.8538   11.7563   -7.1621 C   0  0  0  0  0  0  0  0  0  0  0  0
   -4.5953   12.3060   -6.9160 C   0  0  0  0  0  0  0  0  0  0  0  0
   -3.4449   11.5852   -7.2379 C   0  0  0  0  0  0  0  0  0  0  0  0
   -3.5560   10.3115   -7.8043 C   0  0  0  0  0  0  0  0  0  0  0  0
   -4.8130    9.7655   -8.0531 C   0  0  0  0  0  0  0  0  0  0  0  0
   -2.0905   12.1634   -6.9778 C   0  0  0  0  0  0  0  0  0  0  0  0
   -1.7398   13.4211   -6.5005 C   0  0  0  0  0  0  0  0  0  0  0  0
   -0.4007   13.4556   -6.4362 N   0  0  3  0  0  0  0  0  0  0  0  0
    0.1858   12.3500   -6.8082 N   0  0  0  0  0  0  0  0  0  0  0  0
   -0.8018   11.5473   -7.1675 C   0  0  0  0  0  0  0  0  0  0  0  0
    0.4333   14.5672   -6.0053 C   0  0  0  0  0  0  0  0  0  0  0  0
   -6.0131   14.0330  -14.4162 O   0  0  0  0  0  0  0  0  0  0  0  0
   -4.6790   13.9767  -11.1295 C   0  0  0  0  0  0  0  0  0  0  0  0
   -4.0830   15.2556  -11.5883 C   0  0  0  0  0  0  0  0  0  0  0  0
   -6.1181   12.2807   -9.8804 H   0  0  0  0  0  0  0  0  0  0  0  0
   -8.2128   10.0638  -13.8816 H   0  0  0  0  0  0  0  0  0  0  0  0
   -6.8897   12.1539  -14.1098 H   0  0  0  0  0  0  0  0  0  0  0  0
   -8.0363    9.5960   -7.2473 H   0  0  0  0  0  0  0  0  0  0  0  0
   -3.6420   15.2835  -13.6609 H   0  0  0  0  0  0  0  0  0  0  0  0
   -5.0325   16.3067  -13.1645 H   0  0  0  0  0  0  0  0  0  0  0  0
   -6.7444   12.3126   -6.9096 H   0  0  0  0  0  0  0  0  0  0  0  0
   -4.5117   13.2890   -6.4765 H   0  0  0  0  0  0  0  0  0  0  0  0
   -2.6662    9.7505   -8.0491 H   0  0  0  0  0  0  0  0  0  0  0  0
   -4.8962    8.7826   -8.4928 H   0  0  0  0  0  0  0  0  0  0  0  0
   -2.4169   14.2186   -6.2325 H   0  0  0  0  0  0  0  0  0  0  0  0
    0.8001   12.5193   -7.5789 H   0  0  0  0  0  0  0  0  0  0  0  0
   -0.7533   10.6304   -6.5617 H   0  0  0  0  0  0  0  0  0  0  0  0
   -0.6831   11.2911   -8.2306 H   0  0  0  0  0  0  0  0  0  0  0  0
    1.4926   14.2774   -6.0681 H   0  0  0  0  0  0  0  0  0  0  0  0
    0.2516   15.4354   -6.6558 H   0  0  0  0  0  0  0  0  0  0  0  0
    0.1861   14.8296   -4.9660 H   0  0  0  0  0  0  0  0  0  0  0  0
   -5.2469   14.1452  -10.2026 H   0  0  0  0  0  0  0  0  0  0  0  0
   -3.8809   13.2432  -10.9424 H   0  0  0  0  0  0  0  0  0  0  0  0
   -2.9857   15.2276  -11.5166 H   0  0  0  0  0  0  0  0  0  0  0  0
   -4.4673   16.1029  -11.0014 H   0  0  0  0  0  0  0  0  0  0  0  0
  1  2  2  0  0  0  0
  1  4  1  0  0  0  0
  1 13  1  0  0  0  0
  2  6  1  0  0  0  0
  3  4  2  0  0  0  0
  3  5  1  0  0  0  0
  5  6  2  0  0  0  0
  5  9  1  0  0  0  0
  6  7  1  0  0  0  0
  7  8  1  0  0  0  0
  7 10  2  3  0  0  0
  8  9  2  0  0  0  0
 10 14  1  0  0  0  0
 11 12  1  0  0  0  0
 11 13  1  0  0  0  0
 11 26  2  0  0  0  0
 12 28  1  0  0  0  0
 13 27  1  0  0  0  0
 14 15  2  0  0  0  0
 14 19  1  0  0  0  0
 15 16  1  0  0  0  0
 16 17  2  0  0  0  0
 17 18  1  0  0  0  0
 17 20  1  0  0  0  0
 18 19  2  0  0  0  0
 20 21  2  0  0  0  0
 20 24  1  0  0  0  0
 21 22  1  0  0  0  0
 22 23  1  0  0  0  0
 22 25  1  0  0  0  0
 23 24  1  0  0  0  0
 27 28  1  0  0  0  0
  2 29  1  0  0  0  0
  3 30  1  0  0  0  0
  4 31  1  0  0  0  0
 10 32  1  0  0  0  0
 12 33  1  0  0  0  0
 12 34  1  0  0  0  0
 15 35  1  0  0  0  0
 16 36  1  0  0  0  0
 18 37  1  0  0  0  0
 19 38  1  0  0  0  0
 21 39  1  0  0  0  0
 23 40  1  0  0  0  0
 24 41  1  0  0  0  0
 24 42  1  0  0  0  0
 25 43  1  0  0  0  0
 25 44  1  0  0  0  0
 25 45  1  0  0  0  0
 27 46  1  0  0  0  0
 27 47  1  0  0  0  0
 28 48  1  0  0  0  0
 28 49  1  0  0  0  0
M  END
> <Name>
26

> <IC50[uM]>
0.036

$$$$
26
  -OEChem-05192314333D
 Structure written by MMmdl.
 49 53  0     1  0  0  0  0  0999 V2000
   -6.3961   12.3155  -12.0234 C   0  0  0  0  0  0  0  0  0  0  0  0
   -6.5478   11.7864  -10.7392 C   0  0  0  0  0  0  0  0  0  0  0  0
   -7.7431   10.5278  -13.0269 C   0  0  0  0  0  0  0  0  0  0  0  0
   -7.0034   11.6993  -13.1368 C   0  0  0  0  0  0  0  0  0  0  0  0
   -7.8411    9.9886  -11.7443 C   0  0  0  0  0  0  0  0  0  0  0  0
   -7.2672   10.6062  -10.5986 C   0  0  0  0  0  0  0  0  0  0  0  0
   -7.6276    9.7408   -9.5022 C   0  0  0  0  0  0  0  0  0  0  0  0
   -8.2893    8.7195   -9.9713 N   0  0  0  0  0  0  0  0  0  0  0  0
   -8.4361    8.8492  -11.2847 N   0  0  0  0  0  0  0  0  0  0  0  0
   -7.3404    9.8857   -8.0208 C   0  0  0  0  0  0  0  0  0  0  0  0
   -5.4704   14.2158  -13.3316 C   0  0  0  0  0  0  0  0  0  0  0  0
   -4.5218   15.3458  -13.0035 C   0  0  0  0  0  0  0  0  0  0  0  0
   -5.5814   13.4696  -12.1774 N   0  0  0  0  0  0  0  0  0  0  0  0
   -5.9630   10.4847   -7.7359 C   0  0  0  0  0  0  0  0  0  0  0  0
   -5.8538   11.7563   -7.1621 C   0  0  0  0  0  0  0  0  0  0  0  0
   -4.5953   12.3060   -6.9160 C   0  0  0  0  0  0  0  0  0  0  0  0
   -3.4449   11.5852   -7.2379 C   0  0  0  0  0  0  0  0  0  0  0  0
   -3.5560   10.3115   -7.8043 C   0  0  0  0  0  0  0  0  0  0  0  0
   -4.8130    9.7655   -8.0531 C   0  0  0  0  0  0  0  0  0  0  0  0
   -2.0905   12.1634   -6.9778 C   0  0  0  0  0  0  0  0  0  0  0  0
   -1.7398   13.4211   -6.5005 C   0  0  0  0  0  0  0  0  0  0  0  0
   -0.4007   13.4556   -6.4362 N   0  0  3  0  0  0  0  0  0  0  0  0
    0.1858   12.3500   -6.8082 N   0  0  0  0  0  0  0  0  0  0  0  0
   -0.8018   11.5473   -7.1675 C   0  0  0  0  0  0  0  0  0  0  0  0
    0.4333   14.5672   -6.0053 C   0  0  0  0  0  0  0  0  0  0  0  0
   -6.0131   14.0330  -14.4162 O   0  0  0  0  0  0  0  0  0  0  0  0
   -4.6790   13.9767  -11.1295 C   0  0  0  0  0  0  0  0  0  0  0  0
   -4.0830   15.2556  -11.5883 C   0  0  0  0  0  0  0  0  0  0  0  0
   -6.1181   12.2807   -9.8804 H   0  0  0  0  0  0  0  0  0  0  0  0
   -8.2128   10.0638  -13.8816 H   0  0  0  0  0  0  0  0  0  0  0  0
   -6.8897   12.1539  -14.1098 H   0  0  0  0  0  0  0  0  0  0  0  0
   -8.0363    9.5960   -7.2473 H   0  0  0  0  0  0  0  0  0  0  0  0
   -3.6420   15.2835  -13.6609 H   0  0  0  0  0  0  0  0  0  0  0  0
   -5.0325   16.3067  -13.1645 H   0  0  0  0  0  0  0  0  0  0  0  0
   -6.7444   12.3126   -6.9096 H   0  0  0  0  0  0  0  0  0  0  0  0
   -4.5117   13.2890   -6.4765 H   0  0  0  0  0  0  0  0  0  0  0  0
   -2.6662    9.7505   -8.0491 H   0  0  0  0  0  0  0  0  0  0  0  0
   -4.8962    8.7826   -8.4928 H   0  0  0  0  0  0  0  0  0  0  0  0
   -2.1055   14.2006   -7.1850 H   0  0  0  0  0  0  0  0  0  0  0  0
   -2.1704   13.5795   -5.5008 H   0  0  0  0  0  0  0  0  0  0  0  0
    0.8001   12.5193   -7.5789 H   0  0  0  0  0  0  0  0  0  0  0  0
   -0.6596   10.5498   -7.5564 H   0  0  0  0  0  0  0  0  0  0  0  0
    1.4926   14.2774   -6.0681 H   0  0  0  0  0  0  0  0  0  0  0  0
    0.2516   15.4354   -6.6558 H   0  0  0  0  0  0  0  0  0  0  0  0
    0.1861   14.8296   -4.9660 H   0  0  0  0  0  0  0  0  0  0  0  0
   -5.2469   14.1452  -10.2026 H   0  0  0  0  0  0  0  0  0  0  0  0
   -3.8809   13.2432  -10.9424 H   0  0  0  0  0  0  0  0  0  0  0  0
   -2.9857   15.2276  -11.5166 H   0  0  0  0  0  0  0  0  0  0  0  0
   -4.4673   16.1029  -11.0014 H   0  0  0  0  0  0  0  0  0  0  0  0
  1  2  2  0  0  0  0
  1  4  1  0  0  0  0
  1 13  1  0  0  0  0
  2  6  1  0  0  0  0
  3  4  2  0  0  0  0
  3  5  1  0  0  0  0
  5  6  2  0  0  0  0
  5  9  1  0  0  0  0
  6  7  1  0  0  0  0
  7  8  1  0  0  0  0
  7 10  2  3  0  0  0
  8  9  2  0  0  0  0
 10 14  1  0  0  0  0
 11 12  1  0  0  0  0
 11 13  1  0  0  0  0
 11 26  2  0  0  0  0
 12 28  1  0  0  0  0
 13 27  1  0  0  0  0
 14 15  2  0  0  0  0
 14 19  1  0  0  0  0
 15 16  1  0  0  0  0
 16 17  2  0  0  0  0
 17 18  1  0  0  0  0
 17 20  1  0  0  0  0
 18 19  2  0  0  0  0
 20 21  1  0  0  0  0
 20 24  2  0  0  0  0
 21 22  1  0  0  0  0
 22 23  1  0  0  0  0
 22 25  1  0  0  0  0
 23 24  1  0  0  0  0
 27 28  1  0  0  0  0
  2 29  1  0  0  0  0
  3 30  1  0  0  0  0
  4 31  1  0  0  0  0
 10 32  1  0  0  0  0
 12 33  1  0  0  0  0
 12 34  1  0  0  0  0
 15 35  1  0  0  0  0
 16 36  1  0  0  0  0
 18 37  1  0  0  0  0
 19 38  1  0  0  0  0
 21 39  1  0  0  0  0
 21 40  1  0  0  0  0
 23 41  1  0  0  0  0
 24 42  1  0  0  0  0
 25 43  1  0  0  0  0
 25 44  1  0  0  0  0
 25 45  1  0  0  0  0
 27 46  1  0  0  0  0
 27 47  1  0  0  0  0
 28 48  1  0  0  0  0
 28 49  1  0  0  0  0
M  END
> <Name>
26

> <IC50[uM]>
0.036

$$$$
26
  -OEChem-05192314333D
 Structure written by MMmdl.
 49 53  0     1  0  0  0  0  0999 V2000
   -6.3961   12.3155  -12.0234 C   0  0  0  0  0  0  0  0  0  0  0  0
   -6.5478   11.7864  -10.7392 C   0  0  0  0  0  0  0  0  0  0  0  0
   -7.7431   10.5278  -13.0269 C   0  0  0  0  0  0  0  0  0  0  0  0
   -7.0034   11.6993  -13.1368 C   0  0  0  0  0  0  0  0  0  0  0  0
   -7.8411    9.9886  -11.7443 C   0  0  0  0  0  0  0  0  0  0  0  0
   -7.2672   10.6062  -10.5986 C   0  0  0  0  0  0  0  0  0  0  0  0
   -7.6276    9.7408   -9.5022 C   0  0  3  0  0  0  0  0  0  0  0  0
   -8.2893    8.7195   -9.9713 N   0  0  0  0  0  0  0  0  0  0  0  0
   -8.4361    8.8492  -11.2847 N   0  0  0  0  0  0  0  0  0  0  0  0
   -7.3404    9.8857   -8.0208 C   0  0  0  0  0  0  0  0  0  0  0  0
   -5.4704   14.2158  -13.3316 C   0  0  0  0  0  0  0  0  0  0  0  0
   -4.5218   15.3458  -13.0035 C   0  0  0  0  0  0  0  0  0  0  0  0
   -5.5814   13.4696  -12.1774 N   0  0  0  0  0  0  0  0  0  0  0  0
   -5.9630   10.4847   -7.7359 C   0  0  0  0  0  0  0  0  0  0  0  0
   -5.8538   11.7563   -7.1621 C   0  0  0  0  0  0  0  0  0  0  0  0
   -4.5953   12.3060   -6.9160 C   0  0  0  0  0  0  0  0  0  0  0  0
   -3.4449   11.5852   -7.2379 C   0  0  0  0  0  0  0  0  0  0  0  0
   -3.5560   10.3115   -7.8043 C   0  0  0  0  0  0  0  0  0  0  0  0
   -4.8130    9.7655   -8.0531 C   0  0  0  0  0  0  0  0  0  0  0  0
   -2.0905   12.1634   -6.9778 C   0  0  0  0  0  0  0  0  0  0  0  0
   -1.7398   13.4211   -6.5005 C   0  0  0  0  0  0  0  0  0  0  0  0
   -0.4007   13.4556   -6.4362 N   0  0  3  0  0  0  0  0  0  0  0  0
    0.1858   12.3500   -6.8082 N   0  0  0  0  0  0  0  0  0  0  0  0
   -0.8018   11.5473   -7.1675 C   0  0  0  0  0  0  0  0  0  0  0  0
    0.4333   14.5672   -6.0053 C   0  0  0  0  0  0  0  0  0  0  0  0
   -6.0131   14.0330  -14.4162 O   0  0  0  0  0  0  0  0  0  0  0  0
   -4.6790   13.9767  -11.1295 C   0  0  0  0  0  0  0  0  0  0  0  0
   -4.0830   15.2556  -11.5883 C   0  0  0  0  0  0  0  0  0  0  0  0
   -6.1181   12.2807   -9.8804 H   0  0  0  0  0  0  0  0  0  0  0  0
   -8.2128   10.0638  -13.8816 H   0  0  0  0  0  0  0  0  0  0  0  0
   -6.8897   12.1539  -14.1098 H   0  0  0  0  0  0  0  0  0  0  0  0
   -8.5699   10.2938   -9.3744 H   0  0  0  0  0  0  0  0  0  0  0  0
   -8.0363    9.5960   -7.2473 H   0  0  0  0  0  0  0  0  0  0  0  0
   -3.6420   15.2835  -13.6609 H   0  0  0  0  0  0  0  0  0  0  0  0
   -5.0325   16.3067  -13.1645 H   0  0  0  0  0  0  0  0  0  0  0  0
   -6.7444   12.3126   -6.9096 H   0  0  0  0  0  0  0  0  0  0  0  0
   -4.5117   13.2890   -6.4765 H   0  0  0  0  0  0  0  0  0  0  0  0
   -2.6662    9.7505   -8.0491 H   0  0  0  0  0  0  0  0  0  0  0  0
   -4.8962    8.7826   -8.4928 H   0  0  0  0  0  0  0  0  0  0  0  0
   -2.1055   14.2006   -7.1850 H   0  0  0  0  0  0  0  0  0  0  0  0
   -2.1704   13.5795   -5.5008 H   0  0  0  0  0  0  0  0  0  0  0  0
   -0.6596   10.5498   -7.5564 H   0  0  0  0  0  0  0  0  0  0  0  0
    1.4925   14.2769   -6.0668 H   0  0  0  0  0  0  0  0  0  0  0  0
    0.2526   15.4350   -6.6567 H   0  0  0  0  0  0  0  0  0  0  0  0
    0.1851   14.8305   -4.9665 H   0  0  0  0  0  0  0  0  0  0  0  0
   -5.2469   14.1452  -10.2026 H   0  0  0  0  0  0  0  0  0  0  0  0
   -3.8809   13.2432  -10.9424 H   0  0  0  0  0  0  0  0  0  0  0  0
   -2.9857   15.2276  -11.5166 H   0  0  0  0  0  0  0  0  0  0  0  0
   -4.4673   16.1029  -11.0014 H   0  0  0  0  0  0  0  0  0  0  0  0
  1  2  2  0  0  0  0
  1  4  1  0  0  0  0
  1 13  1  0  0  0  0
  2  6  1  0  0  0  0
  3  4  2  0  0  0  0
  3  5  1  0  0  0  0
  5  6  2  0  0  0  0
  5  9  1  0  0  0  0
  6  7  1  0  0  0  0
  7  8  1  0  0  0  0
  7 10  1  0  0  0  0
  8  9  2  0  0  0  0
 10 14  2  0  0  0  0
 11 12  1  0  0  0  0
 11 13  1  0  0  0  0
 11 26  2  0  0  0  0
 12 28  1  0  0  0  0
 13 27  1  0  0  0  0
 14 15  1  0  0  0  0
 14 19  1  0  0  0  0
 15 16  2  0  0  0  0
 16 17  1  0  0  0  0
 17 18  1  0  0  0  0
 17 20  2  0  0  0  0
 18 19  2  0  0  0  0
 20 21  1  0  0  0  0
 20 24  1  0  0  0  0
 21 22  1  0  0  0  0
 22 23  1  0  0  0  0
 22 25  1  0  0  0  0
 23 24  2  0  0  0  0
 27 28  1  0  0  0  0
  2 29  1  0  0  0  0
  3 30  1  0  0  0  0
  4 31  1  0  0  0  0
  7 32  1  0  0  0  0
 10 33  1  0  0  0  0
 12 34  1  0  0  0  0
 12 35  1  0  0  0  0
 15 36  1  0  0  0  0
 16 37  1  0  0  0  0
 18 38  1  0  0  0  0
 19 39  1  0  0  0  0
 21 40  1  0  0  0  0
 21 41  1  0  0  0  0
 24 42  1  0  0  0  0
 25 43  1  0  0  0  0
 25 44  1  0  0  0  0
 25 45  1  0  0  0  0
 27 46  1  0  0  0  0
 27 47  1  0  0  0  0
 28 48  1  0  0  0  0
 28 49  1  0  0  0  0
M  END
> <Name>
26

> <IC50[uM]>
0.036

$$$$
26
  -OEChem-05192314333D
 Structure written by MMmdl.
 49 53  0     1  0  0  0  0  0999 V2000
   -6.3961   12.3155  -12.0234 C   0  0  0  0  0  0  0  0  0  0  0  0
   -6.5478   11.7864  -10.7392 C   0  0  0  0  0  0  0  0  0  0  0  0
   -7.7431   10.5278  -13.0269 C   0  0  0  0  0  0  0  0  0  0  0  0
   -7.0034   11.6993  -13.1368 C   0  0  0  0  0  0  0  0  0  0  0  0
   -7.8411    9.9886  -11.7443 C   0  0  0  0  0  0  0  0  0  0  0  0
   -7.2672   10.6062  -10.5986 C   0  0  3  0  0  0  0  0  0  0  0  0
   -7.6276    9.7408   -9.5022 C   0  0  0  0  0  0  0  0  0  0  0  0
   -8.2893    8.7195   -9.9713 N   0  0  0  0  0  0  0  0  0  0  0  0
   -8.4361    8.8492  -11.2847 N   0  0  0  0  0  0  0  0  0  0  0  0
   -7.3404    9.8857   -8.0208 C   0  0  0  0  0  0  0  0  0  0  0  0
   -5.4704   14.2158  -13.3316 C   0  0  0  0  0  0  0  0  0  0  0  0
   -4.5218   15.3458  -13.0035 C   0  0  0  0  0  0  0  0  0  0  0  0
   -5.5814   13.4696  -12.1774 N   0  0  0  0  0  0  0  0  0  0  0  0
   -5.9630   10.4847   -7.7359 C   0  0  0  0  0  0  0  0  0  0  0  0
   -5.8538   11.7563   -7.1621 C   0  0  0  0  0  0  0  0  0  0  0  0
   -4.5953   12.3060   -6.9160 C   0  0  0  0  0  0  0  0  0  0  0  0
   -3.4449   11.5852   -7.2379 C   0  0  0  0  0  0  0  0  0  0  0  0
   -3.5560   10.3115   -7.8043 C   0  0  0  0  0  0  0  0  0  0  0  0
   -4.8130    9.7655   -8.0531 C   0  0  0  0  0  0  0  0  0  0  0  0
   -2.0905   12.1634   -6.9778 C   0  0  0  0  0  0  0  0  0  0  0  0
   -1.7398   13.4211   -6.5005 C   0  0  0  0  0  0  0  0  0  0  0  0
   -0.4007   13.4556   -6.4362 N   0  0  0  0  0  0  0  0  0  0  0  0
    0.1858   12.3500   -6.8082 N   0  0  0  0  0  0  0  0  0  0  0  0
   -0.8018   11.5473   -7.1675 C   0  0  0  0  0  0  0  0  0  0  0  0
    0.4333   14.5672   -6.0053 C   0  0  0  0  0  0  0  0  0  0  0  0
   -6.0131   14.0330  -14.4162 O   0  0  0  0  0  0  0  0  0  0  0  0
   -4.6790   13.9767  -11.1295 C   0  0  0  0  0  0  0  0  0  0  0  0
   -4.0830   15.2556  -11.5883 C   0  0  0  0  0  0  0  0  0  0  0  0
   -6.1181   12.2807   -9.8804 H   0  0  0  0  0  0  0  0  0  0  0  0
   -8.2128   10.0638  -13.8816 H   0  0  0  0  0  0  0  0  0  0  0  0
   -6.8897   12.1539  -14.1098 H   0  0  0  0  0  0  0  0  0  0  0  0
   -8.1901   11.1852  -10.4467 H   0  0  0  0  0  0  0  0  0  0  0  0
   -8.1057   10.5398   -7.5776 H   0  0  0  0  0  0  0  0  0  0  0  0
   -7.3935    8.8909   -7.5544 H   0  0  0  0  0  0  0  0  0  0  0  0
   -3.6420   15.2835  -13.6609 H   0  0  0  0  0  0  0  0  0  0  0  0
   -5.0325   16.3067  -13.1645 H   0  0  0  0  0  0  0  0  0  0  0  0
   -6.7444   12.3126   -6.9096 H   0  0  0  0  0  0  0  0  0  0  0  0
   -4.5117   13.2890   -6.4765 H   0  0  0  0  0  0  0  0  0  0  0  0
   -2.6662    9.7505   -8.0491 H   0  0  0  0  0  0  0  0  0  0  0  0
   -4.8962    8.7826   -8.4928 H   0  0  0  0  0  0  0  0  0  0  0  0
   -2.4169   14.2186   -6.2325 H   0  0  0  0  0  0  0  0  0  0  0  0
   -0.6596   10.5498   -7.5564 H   0  0  0  0  0  0  0  0  0  0  0  0
    1.4925   14.2769   -6.0668 H   0  0  0  0  0  0  0  0  0  0  0  0
    0.2526   15.4350   -6.6567 H   0  0  0  0  0  0  0  0  0  0  0  0
    0.1851   14.8305   -4.9665 H   0  0  0  0  0  0  0  0  0  0  0  0
   -5.2469   14.1452  -10.2026 H   0  0  0  0  0  0  0  0  0  0  0  0
   -3.8809   13.2432  -10.9424 H   0  0  0  0  0  0  0  0  0  0  0  0
   -2.9857   15.2276  -11.5166 H   0  0  0  0  0  0  0  0  0  0  0  0
   -4.4673   16.1029  -11.0014 H   0  0  0  0  0  0  0  0  0  0  0  0
  1  2  2  0  0  0  0
  1  4  1  0  0  0  0
  1 13  1  0  0  0  0
  2  6  1  0  0  0  0
  3  4  2  0  0  0  0
  3  5  1  0  0  0  0
  5  6  1  0  0  0  0
  5  9  2  0  0  0  0
  6  7  1  0  0  0  0
  7  8  2  0  0  0  0
  7 10  1  0  0  0  0
  8  9  1  0  0  0  0
 10 14  1  0  0  0  0
 11 12  1  0  0  0  0
 11 13  1  0  0  0  0
 11 26  2  0  0  0  0
 12 28  1  0  0  0  0
 13 27  1  0  0  0  0
 14 15  2  0  0  0  0
 14 19  1  0  0  0  0
 15 16  1  0  0  0  0
 16 17  2  0  0  0  0
 17 18  1  0  0  0  0
 17 20  1  0  0  0  0
 18 19  2  0  0  0  0
 20 21  2  0  0  0  0
 20 24  1  0  0  0  0
 21 22  1  0  0  0  0
 22 23  1  0  0  0  0
 22 25  1  0  0  0  0
 23 24  2  0  0  0  0
 27 28  1  0  0  0  0
  2 29  1  0  0  0  0
  3 30  1  0  0  0  0
  4 31  1  0  0  0  0
  6 32  1  0  0  0  0
 10 33  1  0  0  0  0
 10 34  1  0  0  0  0
 12 35  1  0  0  0  0
 12 36  1  0  0  0  0
 15 37  1  0  0  0  0
 16 38  1  0  0  0  0
 18 39  1  0  0  0  0
 19 40  1  0  0  0  0
 21 41  1  0  0  0  0
 24 42  1  0  0  0  0
 25 43  1  0  0  0  0
 25 44  1  0  0  0  0
 25 45  1  0  0  0  0
 27 46  1  0  0  0  0
 27 47  1  0  0  0  0
 28 48  1  0  0  0  0
 28 49  1  0  0  0  0
M  END
> <Name>
26

> <IC50[uM]>
0.036

$$$$
26
  -OEChem-05192314333D
 Structure written by MMmdl.
 49 53  0     1  0  0  0  0  0999 V2000
   -6.3961   12.3155  -12.0234 C   0  0  3  0  0  0  0  0  0  0  0  0
   -6.5478   11.7864  -10.7392 C   0  0  0  0  0  0  0  0  0  0  0  0
   -7.7431   10.5278  -13.0269 C   0  0  0  0  0  0  0  0  0  0  0  0
   -7.0034   11.6993  -13.1368 C   0  0  0  0  0  0  0  0  0  0  0  0
   -7.8411    9.9886  -11.7443 C   0  0  0  0  0  0  0  0  0  0  0  0
   -7.2672   10.6062  -10.5986 C   0  0  0  0  0  0  0  0  0  0  0  0
   -7.6276    9.7408   -9.5022 C   0  0  0  0  0  0  0  0  0  0  0  0
   -8.2893    8.7195   -9.9713 N   0  0  0  0  0  0  0  0  0  0  0  0
   -8.4361    8.8492  -11.2847 N   0  0  0  0  0  0  0  0  0  0  0  0
   -7.3404    9.8857   -8.0208 C   0  0  0  0  0  0  0  0  0  0  0  0
   -5.4704   14.2158  -13.3316 C   0  0  0  0  0  0  0  0  0  0  0  0
   -4.5218   15.3458  -13.0035 C   0  0  0  0  0  0  0  0  0  0  0  0
   -5.5814   13.4696  -12.1774 N   0  0  0  0  0  0  0  0  0  0  0  0
   -5.9630   10.4847   -7.7359 C   0  0  0  0  0  0  0  0  0  0  0  0
   -5.8538   11.7563   -7.1621 C   0  0  0  0  0  0  0  0  0  0  0  0
   -4.5953   12.3060   -6.9160 C   0  0  0  0  0  0  0  0  0  0  0  0
   -3.4449   11.5852   -7.2379 C   0  0  0  0  0  0  0  0  0  0  0  0
   -3.5560   10.3115   -7.8043 C   0  0  0  0  0  0  0  0  0  0  0  0
   -4.8130    9.7655   -8.0531 C   0  0  0  0  0  0  0  0  0  0  0  0
   -2.0905   12.1634   -6.9778 C   0  0  0  0  0  0  0  0  0  0  0  0
   -1.7398   13.4211   -6.5005 C   0  0  0  0  0  0  0  0  0  0  0  0
   -0.4007   13.4556   -6.4362 N   0  0  0  0  0  0  0  0  0  0  0  0
    0.1858   12.3500   -6.8082 N   0  0  0  0  0  0  0  0  0  0  0  0
   -0.8018   11.5473   -7.1675 C   0  0  0  0  0  0  0  0  0  0  0  0
    0.4333   14.5672   -6.0053 C   0  0  0  0  0  0  0  0  0  0  0  0
   -6.0131   14.0330  -14.4162 O   0  0  0  0  0  0  0  0  0  0  0  0
   -4.6790   13.9767  -11.1295 C   0  0  0  0  0  0  0  0  0  0  0  0
   -4.0830   15.2556  -11.5883 C   0  0  0  0  0  0  0  0  0  0  0  0
   -7.2833   12.9493  -11.8778 H   0  0  0  0  0  0  0  0  0  0  0  0
   -6.1181   12.2807   -9.8804 H   0  0  0  0  0  0  0  0  0  0  0  0
   -8.2128   10.0638  -13.8816 H   0  0  0  0  0  0  0  0  0  0  0  0
   -6.8897   12.1539  -14.1098 H   0  0  0  0  0  0  0  0  0  0  0  0
   -8.1057   10.5398   -7.5776 H   0  0  0  0  0  0  0  0  0  0  0  0
   -7.3935    8.8909   -7.5544 H   0  0  0  0  0  0  0  0  0  0  0  0
   -3.6420   15.2835  -13.6609 H   0  0  0  0  0  0  0  0  0  0  0  0
   -5.0325   16.3067  -13.1645 H   0  0  0  0  0  0  0  0  0  0  0  0
   -6.7444   12.3126   -6.9096 H   0  0  0  0  0  0  0  0  0  0  0  0
   -4.5117   13.2890   -6.4765 H   0  0  0  0  0  0  0  0  0  0  0  0
   -2.6662    9.7505   -8.0491 H   0  0  0  0  0  0  0  0  0  0  0  0
   -4.8962    8.7826   -8.4928 H   0  0  0  0  0  0  0  0  0  0  0  0
   -2.4169   14.2186   -6.2325 H   0  0  0  0  0  0  0  0  0  0  0  0
   -0.6596   10.5498   -7.5564 H   0  0  0  0  0  0  0  0  0  0  0  0
    1.4925   14.2769   -6.0668 H   0  0  0  0  0  0  0  0  0  0  0  0
    0.2526   15.4350   -6.6567 H   0  0  0  0  0  0  0  0  0  0  0  0
    0.1851   14.8305   -4.9665 H   0  0  0  0  0  0  0  0  0  0  0  0
   -5.2469   14.1452  -10.2026 H   0  0  0  0  0  0  0  0  0  0  0  0
   -3.8809   13.2432  -10.9424 H   0  0  0  0  0  0  0  0  0  0  0  0
   -2.9857   15.2276  -11.5166 H   0  0  0  0  0  0  0  0  0  0  0  0
   -4.4673   16.1029  -11.0014 H   0  0  0  0  0  0  0  0  0  0  0  0
  1  2  1  0  0  0  0
  1  4  1  0  0  0  0
  1 13  1  0  0  0  0
  2  6  2  0  0  0  0
  3  4  2  0  0  0  0
  3  5  1  0  0  0  0
  5  6  1  0  0  0  0
  5  9  2  0  0  0  0
  6  7  1  0  0  0  0
  7  8  2  0  0  0  0
  7 10  1  0  0  0  0
  8  9  1  0  0  0  0
 10 14  1  0  0  0  0
 11 12  1  0  0  0  0
 11 13  1  0  0  0  0
 11 26  2  0  0  0  0
 12 28  1  0  0  0  0
 13 27  1  0  0  0  0
 14 15  2  0  0  0  0
 14 19  1  0  0  0  0
 15 16  1  0  0  0  0
 16 17  2  0  0  0  0
 17 18  1  0  0  0  0
 17 20  1  0  0  0  0
 18 19  2  0  0  0  0
 20 21  2  0  0  0  0
 20 24  1  0  0  0  0
 21 22  1  0  0  0  0
 22 23  1  0  0  0  0
 22 25  1  0  0  0  0
 23 24  2  0  0  0  0
 27 28  1  0  0  0  0
  1 29  1  0  0  0  0
  2 30  1  0  0  0  0
  3 31  1  0  0  0  0
  4 32  1  0  0  0  0
 10 33  1  0  0  0  0
 10 34  1  0  0  0  0
 12 35  1  0  0  0  0
 12 36  1  0  0  0  0
 15 37  1  0  0  0  0
 16 38  1  0  0  0  0
 18 39  1  0  0  0  0
 19 40  1  0  0  0  0
 21 41  1  0  0  0  0
 24 42  1  0  0  0  0
 25 43  1  0  0  0  0
 25 44  1  0  0  0  0
 25 45  1  0  0  0  0
 27 46  1  0  0  0  0
 27 47  1  0  0  0  0
 28 48  1  0  0  0  0
 28 49  1  0  0  0  0
M  END
> <Name>
26

> <IC50[uM]>
0.036

$$$$
26
  -OEChem-05192314333D
 Structure written by MMmdl.
 49 53  0     0  0  0  0  0  0999 V2000
   -6.3961   12.3155  -12.0234 C   0  0  0  0  0  0  0  0  0  0  0  0
   -6.5478   11.7864  -10.7392 C   0  0  0  0  0  0  0  0  0  0  0  0
   -7.7431   10.5278  -13.0269 C   0  0  0  0  0  0  0  0  0  0  0  0
   -7.0034   11.6993  -13.1368 C   0  0  0  0  0  0  0  0  0  0  0  0
   -7.8411    9.9886  -11.7443 C   0  0  0  0  0  0  0  0  0  0  0  0
   -7.2672   10.6062  -10.5986 C   0  0  0  0  0  0  0  0  0  0  0  0
   -7.6276    9.7408   -9.5022 C   0  0  0  0  0  0  0  0  0  0  0  0
   -8.2893    8.7195   -9.9713 N   0  0  0  0  0  0  0  0  0  0  0  0
   -8.4361    8.8492  -11.2847 N   0  0  0  0  0  0  0  0  0  0  0  0
   -7.3404    9.8857   -8.0208 C   0  0  0  0  0  0  0  0  0  0  0  0
   -5.4704   14.2158  -13.3316 C   0  0  0  0  0  0  0  0  0  0  0  0
   -4.5218   15.3458  -13.0035 C   0  0  0  0  0  0  0  0  0  0  0  0
   -5.5814   13.4696  -12.1774 N   0  0  0  0  0  0  0  0  0  0  0  0
   -5.9630   10.4847   -7.7359 C   0  0  0  0  0  0  0  0  0  0  0  0
   -5.8538   11.7563   -7.1621 C   0  0  0  0  0  0  0  0  0  0  0  0
   -4.5953   12.3060   -6.9160 C   0  0  0  0  0  0  0  0  0  0  0  0
   -3.4449   11.5852   -7.2379 C   0  0  0  0  0  0  0  0  0  0  0  0
   -3.5560   10.3115   -7.8043 C   0  0  0  0  0  0  0  0  0  0  0  0
   -4.8130    9.7655   -8.0531 C   0  0  0  0  0  0  0  0  0  0  0  0
   -2.0905   12.1634   -6.9778 C   0  0  0  0  0  0  0  0  0  0  0  0
   -1.7398   13.4211   -6.5005 C   0  0  0  0  0  0  0  0  0  0  0  0
   -0.4007   13.4556   -6.4362 N   0  0  0  0  0  0  0  0  0  0  0  0
    0.1858   12.3500   -6.8082 N   0  0  0  0  0  0  0  0  0  0  0  0
   -0.8018   11.5473   -7.1675 C   0  0  0  0  0  0  0  0  0  0  0  0
    0.4333   14.5672   -6.0053 C   0  0  0  0  0  0  0  0  0  0  0  0
   -6.0131   14.0330  -14.4162 O   0  0  0  0  0  0  0  0  0  0  0  0
   -4.6790   13.9767  -11.1295 C   0  0  0  0  0  0  0  0  0  0  0  0
   -4.0830   15.2556  -11.5883 C   0  0  0  0  0  0  0  0  0  0  0  0
   -6.1181   12.2807   -9.8804 H   0  0  0  0  0  0  0  0  0  0  0  0
   -8.7624   10.7378  -13.3832 H   0  0  0  0  0  0  0  0  0  0  0  0
   -7.2763    9.7721  -13.6757 H   0  0  0  0  0  0  0  0  0  0  0  0
   -6.8897   12.1539  -14.1098 H   0  0  0  0  0  0  0  0  0  0  0  0
   -8.1057   10.5398   -7.5776 H   0  0  0  0  0  0  0  0  0  0  0  0
   -7.3935    8.8909   -7.5544 H   0  0  0  0  0  0  0  0  0  0  0  0
   -3.6420   15.2835  -13.6609 H   0  0  0  0  0  0  0  0  0  0  0  0
   -5.0325   16.3067  -13.1645 H   0  0  0  0  0  0  0  0  0  0  0  0
   -6.7444   12.3126   -6.9096 H   0  0  0  0  0  0  0  0  0  0  0  0
   -4.5117   13.2890   -6.4765 H   0  0  0  0  0  0  0  0  0  0  0  0
   -2.6662    9.7505   -8.0491 H   0  0  0  0  0  0  0  0  0  0  0  0
   -4.8962    8.7826   -8.4928 H   0  0  0  0  0  0  0  0  0  0  0  0
   -2.4169   14.2186   -6.2325 H   0  0  0  0  0  0  0  0  0  0  0  0
   -0.6596   10.5498   -7.5564 H   0  0  0  0  0  0  0  0  0  0  0  0
    1.4925   14.2769   -6.0668 H   0  0  0  0  0  0  0  0  0  0  0  0
    0.2526   15.4350   -6.6567 H   0  0  0  0  0  0  0  0  0  0  0  0
    0.1851   14.8305   -4.9665 H   0  0  0  0  0  0  0  0  0  0  0  0
   -5.2469   14.1452  -10.2026 H   0  0  0  0  0  0  0  0  0  0  0  0
   -3.8809   13.2432  -10.9424 H   0  0  0  0  0  0  0  0  0  0  0  0
   -2.9857   15.2276  -11.5166 H   0  0  0  0  0  0  0  0  0  0  0  0
   -4.4673   16.1029  -11.0014 H   0  0  0  0  0  0  0  0  0  0  0  0
  1  2  1  0  0  0  0
  1  4  2  0  0  0  0
  1 13  1  0  0  0  0
  2  6  2  0  0  0  0
  3  4  1  0  0  0  0
  3  5  1  0  0  0  0
  5  6  1  0  0  0  0
  5  9  2  0  0  0  0
  6  7  1  0  0  0  0
  7  8  2  0  0  0  0
  7 10  1  0  0  0  0
  8  9  1  0  0  0  0
 10 14  1  0  0  0  0
 11 12  1  0  0  0  0
 11 13  1  0  0  0  0
 11 26  2  0  0  0  0
 12 28  1  0  0  0  0
 13 27  1  0  0  0  0
 14 15  2  0  0  0  0
 14 19  1  0  0  0  0
 15 16  1  0  0  0  0
 16 17  2  0  0  0  0
 17 18  1  0  0  0  0
 17 20  1  0  0  0  0
 18 19  2  0  0  0  0
 20 21  2  0  0  0  0
 20 24  1  0  0  0  0
 21 22  1  0  0  0  0
 22 23  1  0  0  0  0
 22 25  1  0  0  0  0
 23 24  2  0  0  0  0
 27 28  1  0  0  0  0
  2 29  1  0  0  0  0
  3 30  1  0  0  0  0
  3 31  1  0  0  0  0
  4 32  1  0  0  0  0
 10 33  1  0  0  0  0
 10 34  1  0  0  0  0
 12 35  1  0  0  0  0
 12 36  1  0  0  0  0
 15 37  1  0  0  0  0
 16 38  1  0  0  0  0
 18 39  1  0  0  0  0
 19 40  1  0  0  0  0
 21 41  1  0  0  0  0
 24 42  1  0  0  0  0
 25 43  1  0  0  0  0
 25 44  1  0  0  0  0
 25 45  1  0  0  0  0
 27 46  1  0  0  0  0
 27 47  1  0  0  0  0
 28 48  1  0  0  0  0
 28 49  1  0  0  0  0
M  END
> <Name>
26

> <IC50[uM]>
0.036

$$$$
26
  -OEChem-05192314333D
 Structure written by MMmdl.
 49 53  0     0  0  0  0  0  0999 V2000
   -6.3961   12.3155  -12.0234 C   0  0  0  0  0  0  0  0  0  0  0  0
   -6.5478   11.7864  -10.7392 C   0  0  0  0  0  0  0  0  0  0  0  0
   -7.7431   10.5278  -13.0269 C   0  0  0  0  0  0  0  0  0  0  0  0
   -7.0034   11.6993  -13.1368 C   0  0  0  0  0  0  0  0  0  0  0  0
   -7.8411    9.9886  -11.7443 C   0  0  0  0  0  0  0  0  0  0  0  0
   -7.2672   10.6062  -10.5986 C   0  0  0  0  0  0  0  0  0  0  0  0
   -7.6276    9.7408   -9.5022 C   0  0  0  0  0  0  0  0  0  0  0  0
   -8.2893    8.7195   -9.9713 N   0  0  0  0  0  0  0  0  0  0  0  0
   -8.4361    8.8492  -11.2847 N   0  0  0  0  0  0  0  0  0  0  0  0
   -7.3404    9.8857   -8.0208 C   0  0  0  0  0  0  0  0  0  0  0  0
   -5.4704   14.2158  -13.3316 C   0  0  0  0  0  0  0  0  0  0  0  0
   -4.5218   15.3458  -13.0035 C   0  0  0  0  0  0  0  0  0  0  0  0
   -5.5814   13.4696  -12.1774 N   0  0  0  0  0  0  0  0  0  0  0  0
   -5.9630   10.4847   -7.7359 C   0  0  0  0  0  0  0  0  0  0  0  0
   -5.8538   11.7563   -7.1621 C   0  0  0  0  0  0  0  0  0  0  0  0
   -4.5953   12.3060   -6.9160 C   0  0  0  0  0  0  0  0  0  0  0  0
   -3.4449   11.5852   -7.2379 C   0  0  0  0  0  0  0  0  0  0  0  0
   -3.5560   10.3115   -7.8043 C   0  0  0  0  0  0  0  0  0  0  0  0
   -4.8130    9.7655   -8.0531 C   0  0  0  0  0  0  0  0  0  0  0  0
   -2.0905   12.1634   -6.9778 C   0  0  0  0  0  0  0  0  0  0  0  0
   -1.7398   13.4211   -6.5005 C   0  0  0  0  0  0  0  0  0  0  0  0
   -0.4007   13.4556   -6.4362 N   0  0  0  0  0  0  0  0  0  0  0  0
    0.1858   12.3500   -6.8082 N   0  0  0  0  0  0  0  0  0  0  0  0
   -0.8018   11.5473   -7.1675 C   0  0  0  0  0  0  0  0  0  0  0  0
    0.4333   14.5672   -6.0053 C   0  0  0  0  0  0  0  0  0  0  0  0
   -6.0131   14.0330  -14.4162 O   0  0  0  0  0  0  0  0  0  0  0  0
   -4.6790   13.9767  -11.1295 C   0  0  0  0  0  0  0  0  0  0  0  0
   -4.0830   15.2556  -11.5883 C   0  0  0  0  0  0  0  0  0  0  0  0
   -6.1181   12.2807   -9.8804 H   0  0  0  0  0  0  0  0  0  0  0  0
   -8.2128   10.0638  -13.8816 H   0  0  0  0  0  0  0  0  0  0  0  0
   -6.8897   12.1539  -14.1098 H   0  0  0  0  0  0  0  0  0  0  0  0
   -8.0363    9.5960   -7.2473 H   0  0  0  0  0  0  0  0  0  0  0  0
   -3.6420   15.2835  -13.6609 H   0  0  0  0  0  0  0  0  0  0  0  0
   -5.0325   16.3067  -13.1645 H   0  0  0  0  0  0  0  0  0  0  0  0
   -5.9717   10.0315   -6.7336 H   0  0  0  0  0  0  0  0  0  0  0  0
   -6.7444   12.3126   -6.9096 H   0  0  0  0  0  0  0  0  0  0  0  0
   -4.5117   13.2890   -6.4765 H   0  0  0  0  0  0  0  0  0  0  0  0
   -3.4442   12.0330   -8.2426 H   0  0  0  0  0  0  0  0  0  0  0  0
   -2.6662    9.7505   -8.0491 H   0  0  0  0  0  0  0  0  0  0  0  0
   -4.8962    8.7826   -8.4928 H   0  0  0  0  0  0  0  0  0  0  0  0
   -2.4169   14.2186   -6.2325 H   0  0  0  0  0  0  0  0  0  0  0  0
   -0.6596   10.5498   -7.5564 H   0  0  0  0  0  0  0  0  0  0  0  0
    1.4925   14.2769   -6.0668 H   0  0  0  0  0  0  0  0  0  0  0  0
    0.2526   15.4350   -6.6567 H   0  0  0  0  0  0  0  0  0  0  0  0
    0.1851   14.8305   -4.9665 H   0  0  0  0  0  0  0  0  0  0  0  0
   -5.2469   14.1452  -10.2026 H   0  0  0  0  0  0  0  0  0  0  0  0
   -3.8809   13.2432  -10.9424 H   0  0  0  0  0  0  0  0  0  0  0  0
   -2.9857   15.2276  -11.5166 H   0  0  0  0  0  0  0  0  0  0  0  0
   -4.4673   16.1029  -11.0014 H   0  0  0  0  0  0  0  0  0  0  0  0
  1  2  2  0  0  0  0
  1  4  1  0  0  0  0
  1 13  1  0  0  0  0
  2  6  1  0  0  0  0
  3  4  2  0  0  0  0
  3  5  1  0  0  0  0
  5  6  2  0  0  0  0
  5  9  1  0  0  0  0
  6  7  1  0  0  0  0
  7  8  1  0  0  0  0
  7 10  2  3  0  0  0
  8  9  2  0  0  0  0
 10 14  1  0  0  0  0
 11 12  1  0  0  0  0
 11 13  1  0  0  0  0
 11 26  2  0  0  0  0
 12 28  1  0  0  0  0
 13 27  1  0  0  0  0
 14 15  1  0  0  0  0
 14 19  1  0  0  0  0
 15 16  2  0  0  0  0
 16 17  1  0  0  0  0
 17 18  1  0  0  0  0
 17 20  1  0  0  0  0
 18 19  2  0  0  0  0
 20 21  2  0  0  0  0
 20 24  1  0  0  0  0
 21 22  1  0  0  0  0
 22 23  1  0  0  0  0
 22 25  1  0  0  0  0
 23 24  2  0  0  0  0
 27 28  1  0  0  0  0
  2 29  1  0  0  0  0
  3 30  1  0  0  0  0
  4 31  1  0  0  0  0
 10 32  1  0  0  0  0
 12 33  1  0  0  0  0
 12 34  1  0  0  0  0
 14 35  1  0  0  0  0
 15 36  1  0  0  0  0
 16 37  1  0  0  0  0
 17 38  1  0  0  0  0
 18 39  1  0  0  0  0
 19 40  1  0  0  0  0
 21 41  1  0  0  0  0
 24 42  1  0  0  0  0
 25 43  1  0  0  0  0
 25 44  1  0  0  0  0
 25 45  1  0  0  0  0
 27 46  1  0  0  0  0
 27 47  1  0  0  0  0
 28 48  1  0  0  0  0
 28 49  1  0  0  0  0
M  END
> <Name>
26

> <IC50[uM]>
0.036

$$$$
26
  -OEChem-05192314333D
 Structure written by MMmdl.
 49 53  0     1  0  0  0  0  0999 V2000
   -6.3961   12.3155  -12.0234 C   0  0  0  0  0  0  0  0  0  0  0  0
   -6.5478   11.7864  -10.7392 C   0  0  0  0  0  0  0  0  0  0  0  0
   -7.7431   10.5278  -13.0269 C   0  0  0  0  0  0  0  0  0  0  0  0
   -7.0034   11.6993  -13.1368 C   0  0  0  0  0  0  0  0  0  0  0  0
   -7.8411    9.9886  -11.7443 C   0  0  0  0  0  0  0  0  0  0  0  0
   -7.2672   10.6062  -10.5986 C   0  0  0  0  0  0  0  0  0  0  0  0
   -7.6276    9.7408   -9.5022 C   0  0  3  0  0  0  0  0  0  0  0  0
   -8.2893    8.7195   -9.9713 N   0  0  0  0  0  0  0  0  0  0  0  0
   -8.4361    8.8492  -11.2847 N   0  0  0  0  0  0  0  0  0  0  0  0
   -7.3404    9.8857   -8.0208 C   0  0  0  0  0  0  0  0  0  0  0  0
   -5.4704   14.2158  -13.3316 C   0  0  0  0  0  0  0  0  0  0  0  0
   -4.5218   15.3458  -13.0035 C   0  0  0  0  0  0  0  0  0  0  0  0
   -5.5814   13.4696  -12.1774 N   0  0  0  0  0  0  0  0  0  0  0  0
   -5.9630   10.4847   -7.7359 C   0  0  0  0  0  0  0  0  0  0  0  0
   -5.8538   11.7563   -7.1621 C   0  0  0  0  0  0  0  0  0  0  0  0
   -4.5953   12.3060   -6.9160 C   0  0  0  0  0  0  0  0  0  0  0  0
   -3.4449   11.5852   -7.2379 C   0  0  0  0  0  0  0  0  0  0  0  0
   -3.5560   10.3115   -7.8043 C   0  0  0  0  0  0  0  0  0  0  0  0
   -4.8130    9.7655   -8.0531 C   0  0  0  0  0  0  0  0  0  0  0  0
   -2.0905   12.1634   -6.9778 C   0  0  0  0  0  0  0  0  0  0  0  0
   -1.7398   13.4211   -6.5005 C   0  0  0  0  0  0  0  0  0  0  0  0
   -0.4007   13.4556   -6.4362 N   0  0  0  0  0  0  0  0  0  0  0  0
    0.1858   12.3500   -6.8082 N   0  0  0  0  0  0  0  0  0  0  0  0
   -0.8018   11.5473   -7.1675 C   0  0  0  0  0  0  0  0  0  0  0  0
    0.4333   14.5672   -6.0053 C   0  0  0  0  0  0  0  0  0  0  0  0
   -6.0131   14.0330  -14.4162 O   0  0  0  0  0  0  0  0  0  0  0  0
   -4.6790   13.9767  -11.1295 C   0  0  0  0  0  0  0  0  0  0  0  0
   -4.0830   15.2556  -11.5883 C   0  0  0  0  0  0  0  0  0  0  0  0
   -6.1181   12.2807   -9.8804 H   0  0  0  0  0  0  0  0  0  0  0  0
   -8.2128   10.0638  -13.8816 H   0  0  0  0  0  0  0  0  0  0  0  0
   -6.8897   12.1539  -14.1098 H   0  0  0  0  0  0  0  0  0  0  0  0
   -8.5699   10.2938   -9.3744 H   0  0  0  0  0  0  0  0  0  0  0  0
   -8.0363    9.5960   -7.2473 H   0  0  0  0  0  0  0  0  0  0  0  0
   -3.6420   15.2835  -13.6609 H   0  0  0  0  0  0  0  0  0  0  0  0
   -5.0325   16.3067  -13.1645 H   0  0  0  0  0  0  0  0  0  0  0  0
   -6.7444   12.3126   -6.9096 H   0  0  0  0  0  0  0  0  0  0  0  0
   -4.5117   13.2890   -6.4765 H   0  0  0  0  0  0  0  0  0  0  0  0
   -3.4442   12.0330   -8.2426 H   0  0  0  0  0  0  0  0  0  0  0  0
   -2.6662    9.7505   -8.0491 H   0  0  0  0  0  0  0  0  0  0  0  0
   -4.8962    8.7826   -8.4928 H   0  0  0  0  0  0  0  0  0  0  0  0
   -2.4169   14.2186   -6.2325 H   0  0  0  0  0  0  0  0  0  0  0  0
   -0.6596   10.5498   -7.5564 H   0  0  0  0  0  0  0  0  0  0  0  0
    1.4925   14.2769   -6.0668 H   0  0  0  0  0  0  0  0  0  0  0  0
    0.2526   15.4350   -6.6567 H   0  0  0  0  0  0  0  0  0  0  0  0
    0.1851   14.8305   -4.9665 H   0  0  0  0  0  0  0  0  0  0  0  0
   -5.2469   14.1452  -10.2026 H   0  0  0  0  0  0  0  0  0  0  0  0
   -3.8809   13.2432  -10.9424 H   0  0  0  0  0  0  0  0  0  0  0  0
   -2.9857   15.2276  -11.5166 H   0  0  0  0  0  0  0  0  0  0  0  0
   -4.4673   16.1029  -11.0014 H   0  0  0  0  0  0  0  0  0  0  0  0
  1  2  2  0  0  0  0
  1  4  1  0  0  0  0
  1 13  1  0  0  0  0
  2  6  1  0  0  0  0
  3  4  2  0  0  0  0
  3  5  1  0  0  0  0
  5  6  2  0  0  0  0
  5  9  1  0  0  0  0
  6  7  1  0  0  0  0
  7  8  1  0  0  0  0
  7 10  1  0  0  0  0
  8  9  2  0  0  0  0
 10 14  2  0  0  0  0
 11 12  1  0  0  0  0
 11 13  1  0  0  0  0
 11 26  2  0  0  0  0
 12 28  1  0  0  0  0
 13 27  1  0  0  0  0
 14 15  1  0  0  0  0
 14 19  1  0  0  0  0
 15 16  2  0  0  0  0
 16 17  1  0  0  0  0
 17 18  1  0  0  0  0
 17 20  1  0  0  0  0
 18 19  2  0  0  0  0
 20 21  2  0  0  0  0
 20 24  1  0  0  0  0
 21 22  1  0  0  0  0
 22 23  1  0  0  0  0
 22 25  1  0  0  0  0
 23 24  2  0  0  0  0
 27 28  1  0  0  0  0
  2 29  1  0  0  0  0
  3 30  1  0  0  0  0
  4 31  1  0  0  0  0
  7 32  1  0  0  0  0
 10 33  1  0  0  0  0
 12 34  1  0  0  0  0
 12 35  1  0  0  0  0
 15 36  1  0  0  0  0
 16 37  1  0  0  0  0
 17 38  1  0  0  0  0
 18 39  1  0  0  0  0
 19 40  1  0  0  0  0
 21 41  1  0  0  0  0
 24 42  1  0  0  0  0
 25 43  1  0  0  0  0
 25 44  1  0  0  0  0
 25 45  1  0  0  0  0
 27 46  1  0  0  0  0
 27 47  1  0  0  0  0
 28 48  1  0  0  0  0
 28 49  1  0  0  0  0
M  END
> <Name>
26

> <IC50[uM]>
0.036

$$$$
26
  -OEChem-05192314333D
 Structure written by MMmdl.
 49 53  0     1  0  0  0  0  0999 V2000
   -6.3961   12.3155  -12.0234 C   0  0  0  0  0  0  0  0  0  0  0  0
   -6.5478   11.7864  -10.7392 C   0  0  0  0  0  0  0  0  0  0  0  0
   -7.7431   10.5278  -13.0269 C   0  0  0  0  0  0  0  0  0  0  0  0
   -7.0034   11.6993  -13.1368 C   0  0  0  0  0  0  0  0  0  0  0  0
   -7.8411    9.9886  -11.7443 C   0  0  3  0  0  0  0  0  0  0  0  0
   -7.2672   10.6062  -10.5986 C   0  0  3  0  0  0  0  0  0  0  0  0
   -7.6276    9.7408   -9.5022 C   0  0  0  0  0  0  0  0  0  0  0  0
   -8.2893    8.7195   -9.9713 N   0  0  0  0  0  0  0  0  0  0  0  0
   -8.4361    8.8492  -11.2847 N   0  0  0  0  0  0  0  0  0  0  0  0
   -7.3404    9.8857   -8.0208 C   0  0  0  0  0  0  0  0  0  0  0  0
   -5.4704   14.2158  -13.3316 C   0  0  0  0  0  0  0  0  0  0  0  0
   -4.5218   15.3458  -13.0035 C   0  0  0  0  0  0  0  0  0  0  0  0
   -5.5814   13.4696  -12.1774 N   0  0  0  0  0  0  0  0  0  0  0  0
   -5.9630   10.4847   -7.7359 C   0  0  0  0  0  0  0  0  0  0  0  0
   -5.8538   11.7563   -7.1621 C   0  0  0  0  0  0  0  0  0  0  0  0
   -4.5953   12.3060   -6.9160 C   0  0  0  0  0  0  0  0  0  0  0  0
   -3.4449   11.5852   -7.2379 C   0  0  0  0  0  0  0  0  0  0  0  0
   -3.5560   10.3115   -7.8043 C   0  0  0  0  0  0  0  0  0  0  0  0
   -4.8130    9.7655   -8.0531 C   0  0  0  0  0  0  0  0  0  0  0  0
   -2.0905   12.1634   -6.9778 C   0  0  0  0  0  0  0  0  0  0  0  0
   -1.7398   13.4211   -6.5005 C   0  0  0  0  0  0  0  0  0  0  0  0
   -0.4007   13.4556   -6.4362 N   0  0  0  0  0  0  0  0  0  0  0  0
    0.1858   12.3500   -6.8082 N   0  0  0  0  0  0  0  0  0  0  0  0
   -0.8018   11.5473   -7.1675 C   0  0  0  0  0  0  0  0  0  0  0  0
    0.4333   14.5672   -6.0053 C   0  0  0  0  0  0  0  0  0  0  0  0
   -6.0131   14.0330  -14.4162 O   0  0  0  0  0  0  0  0  0  0  0  0
   -4.6790   13.9767  -11.1295 C   0  0  0  0  0  0  0  0  0  0  0  0
   -4.0830   15.2556  -11.5883 C   0  0  0  0  0  0  0  0  0  0  0  0
   -6.1181   12.2807   -9.8804 H   0  0  0  0  0  0  0  0  0  0  0  0
   -8.2128   10.0638  -13.8816 H   0  0  0  0  0  0  0  0  0  0  0  0
   -6.8897   12.1539  -14.1098 H   0  0  0  0  0  0  0  0  0  0  0  0
   -8.7752   10.5456  -11.5792 H   0  0  0  0  0  0  0  0  0  0  0  0
   -8.1901   11.1852  -10.4467 H   0  0  0  0  0  0  0  0  0  0  0  0
   -8.0363    9.5960   -7.2473 H   0  0  0  0  0  0  0  0  0  0  0  0
   -3.6420   15.2835  -13.6609 H   0  0  0  0  0  0  0  0  0  0  0  0
   -5.0325   16.3067  -13.1645 H   0  0  0  0  0  0  0  0  0  0  0  0
   -6.7444   12.3126   -6.9096 H   0  0  0  0  0  0  0  0  0  0  0  0
   -4.5117   13.2890   -6.4765 H   0  0  0  0  0  0  0  0  0  0  0  0
   -2.6662    9.7505   -8.0491 H   0  0  0  0  0  0  0  0  0  0  0  0
   -4.8962    8.7826   -8.4928 H   0  0  0  0  0  0  0  0  0  0  0  0
   -2.4169   14.2186   -6.2325 H   0  0  0  0  0  0  0  0  0  0  0  0
   -0.6596   10.5498   -7.5564 H   0  0  0  0  0  0  0  0  0  0  0  0
    1.4925   14.2769   -6.0668 H   0  0  0  0  0  0  0  0  0  0  0  0
    0.2526   15.4350   -6.6567 H   0  0  0  0  0  0  0  0  0  0  0  0
    0.1851   14.8305   -4.9665 H   0  0  0  0  0  0  0  0  0  0  0  0
   -5.2469   14.1452  -10.2026 H   0  0  0  0  0  0  0  0  0  0  0  0
   -3.8809   13.2432  -10.9424 H   0  0  0  0  0  0  0  0  0  0  0  0
   -2.9857   15.2276  -11.5166 H   0  0  0  0  0  0  0  0  0  0  0  0
   -4.4673   16.1029  -11.0014 H   0  0  0  0  0  0  0  0  0  0  0  0
  1  2  2  0  0  0  0
  1  4  1  0  0  0  0
  1 13  1  0  0  0  0
  2  6  1  0  0  0  0
  3  4  2  0  0  0  0
  3  5  1  0  0  0  0
  5  6  1  0  0  0  0
  5  9  1  0  0  0  0
  6  7  1  0  0  0  0
  7  8  1  0  0  0  0
  7 10  2  3  0  0  0
  8  9  2  0  0  0  0
 10 14  1  0  0  0  0
 11 12  1  0  0  0  0
 11 13  1  0  0  0  0
 11 26  2  0  0  0  0
 12 28  1  0  0  0  0
 13 27  1  0  0  0  0
 14 15  2  0  0  0  0
 14 19  1  0  0  0  0
 15 16  1  0  0  0  0
 16 17  2  0  0  0  0
 17 18  1  0  0  0  0
 17 20  1  0  0  0  0
 18 19  2  0  0  0  0
 20 21  2  0  0  0  0
 20 24  1  0  0  0  0
 21 22  1  0  0  0  0
 22 23  1  0  0  0  0
 22 25  1  0  0  0  0
 23 24  2  0  0  0  0
 27 28  1  0  0  0  0
  2 29  1  0  0  0  0
  3 30  1  0  0  0  0
  4 31  1  0  0  0  0
  5 32  1  0  0  0  0
  6 33  1  0  0  0  0
 10 34  1  0  0  0  0
 12 35  1  0  0  0  0
 12 36  1  0  0  0  0
 15 37  1  0  0  0  0
 16 38  1  0  0  0  0
 18 39  1  0  0  0  0
 19 40  1  0  0  0  0
 21 41  1  0  0  0  0
 24 42  1  0  0  0  0
 25 43  1  0  0  0  0
 25 44  1  0  0  0  0
 25 45  1  0  0  0  0
 27 46  1  0  0  0  0
 27 47  1  0  0  0  0
 28 48  1  0  0  0  0
 28 49  1  0  0  0  0
M  END
> <Name>
26

> <IC50[uM]>
0.036

$$$$
26
  -OEChem-05192314333D
 Structure written by MMmdl.
 49 53  0     1  0  0  0  0  0999 V2000
   -6.3961   12.3155  -12.0234 C   0  0  3  0  0  0  0  0  0  0  0  0
   -6.5478   11.7864  -10.7392 C   0  0  0  0  0  0  0  0  0  0  0  0
   -7.7431   10.5278  -13.0269 C   0  0  0  0  0  0  0  0  0  0  0  0
   -7.0034   11.6993  -13.1368 C   0  0  0  0  0  0  0  0  0  0  0  0
   -7.8411    9.9886  -11.7443 C   0  0  3  0  0  0  0  0  0  0  0  0
   -7.2672   10.6062  -10.5986 C   0  0  0  0  0  0  0  0  0  0  0  0
   -7.6276    9.7408   -9.5022 C   0  0  0  0  0  0  0  0  0  0  0  0
   -8.2893    8.7195   -9.9713 N   0  0  0  0  0  0  0  0  0  0  0  0
   -8.4361    8.8492  -11.2847 N   0  0  0  0  0  0  0  0  0  0  0  0
   -7.3404    9.8857   -8.0208 C   0  0  0  0  0  0  0  0  0  0  0  0
   -5.4704   14.2158  -13.3316 C   0  0  0  0  0  0  0  0  0  0  0  0
   -4.5218   15.3458  -13.0035 C   0  0  0  0  0  0  0  0  0  0  0  0
   -5.5814   13.4696  -12.1774 N   0  0  0  0  0  0  0  0  0  0  0  0
   -5.9630   10.4847   -7.7359 C   0  0  0  0  0  0  0  0  0  0  0  0
   -5.8538   11.7563   -7.1621 C   0  0  0  0  0  0  0  0  0  0  0  0
   -4.5953   12.3060   -6.9160 C   0  0  0  0  0  0  0  0  0  0  0  0
   -3.4449   11.5852   -7.2379 C   0  0  0  0  0  0  0  0  0  0  0  0
   -3.5560   10.3115   -7.8043 C   0  0  0  0  0  0  0  0  0  0  0  0
   -4.8130    9.7655   -8.0531 C   0  0  0  0  0  0  0  0  0  0  0  0
   -2.0905   12.1634   -6.9778 C   0  0  0  0  0  0  0  0  0  0  0  0
   -1.7398   13.4211   -6.5005 C   0  0  0  0  0  0  0  0  0  0  0  0
   -0.4007   13.4556   -6.4362 N   0  0  0  0  0  0  0  0  0  0  0  0
    0.1858   12.3500   -6.8082 N   0  0  0  0  0  0  0  0  0  0  0  0
   -0.8018   11.5473   -7.1675 C   0  0  0  0  0  0  0  0  0  0  0  0
    0.4333   14.5672   -6.0053 C   0  0  0  0  0  0  0  0  0  0  0  0
   -6.0131   14.0330  -14.4162 O   0  0  0  0  0  0  0  0  0  0  0  0
   -4.6790   13.9767  -11.1295 C   0  0  0  0  0  0  0  0  0  0  0  0
   -4.0830   15.2556  -11.5883 C   0  0  0  0  0  0  0  0  0  0  0  0
   -7.2833   12.9493  -11.8778 H   0  0  0  0  0  0  0  0  0  0  0  0
   -6.1181   12.2807   -9.8804 H   0  0  0  0  0  0  0  0  0  0  0  0
   -8.2128   10.0638  -13.8816 H   0  0  0  0  0  0  0  0  0  0  0  0
   -6.8897   12.1539  -14.1098 H   0  0  0  0  0  0  0  0  0  0  0  0
   -8.7752   10.5456  -11.5792 H   0  0  0  0  0  0  0  0  0  0  0  0
   -8.0363    9.5960   -7.2473 H   0  0  0  0  0  0  0  0  0  0  0  0
   -3.6420   15.2835  -13.6609 H   0  0  0  0  0  0  0  0  0  0  0  0
   -5.0325   16.3067  -13.1645 H   0  0  0  0  0  0  0  0  0  0  0  0
   -6.7444   12.3126   -6.9096 H   0  0  0  0  0  0  0  0  0  0  0  0
   -4.5117   13.2890   -6.4765 H   0  0  0  0  0  0  0  0  0  0  0  0
   -2.6662    9.7505   -8.0491 H   0  0  0  0  0  0  0  0  0  0  0  0
   -4.8962    8.7826   -8.4928 H   0  0  0  0  0  0  0  0  0  0  0  0
   -2.4169   14.2186   -6.2325 H   0  0  0  0  0  0  0  0  0  0  0  0
   -0.6596   10.5498   -7.5564 H   0  0  0  0  0  0  0  0  0  0  0  0
    1.4925   14.2769   -6.0668 H   0  0  0  0  0  0  0  0  0  0  0  0
    0.2526   15.4350   -6.6567 H   0  0  0  0  0  0  0  0  0  0  0  0
    0.1851   14.8305   -4.9665 H   0  0  0  0  0  0  0  0  0  0  0  0
   -5.2469   14.1452  -10.2026 H   0  0  0  0  0  0  0  0  0  0  0  0
   -3.8809   13.2432  -10.9424 H   0  0  0  0  0  0  0  0  0  0  0  0
   -2.9857   15.2276  -11.5166 H   0  0  0  0  0  0  0  0  0  0  0  0
   -4.4673   16.1029  -11.0014 H   0  0  0  0  0  0  0  0  0  0  0  0
  1  2  1  0  0  0  0
  1  4  1  0  0  0  0
  1 13  1  0  0  0  0
  2  6  2  0  0  0  0
  3  4  2  0  0  0  0
  3  5  1  0  0  0  0
  5  6  1  0  0  0  0
  5  9  1  0  0  0  0
  6  7  1  0  0  0  0
  7  8  1  0  0  0  0
  7 10  2  3  0  0  0
  8  9  2  0  0  0  0
 10 14  1  0  0  0  0
 11 12  1  0  0  0  0
 11 13  1  0  0  0  0
 11 26  2  0  0  0  0
 12 28  1  0  0  0  0
 13 27  1  0  0  0  0
 14 15  2  0  0  0  0
 14 19  1  0  0  0  0
 15 16  1  0  0  0  0
 16 17  2  0  0  0  0
 17 18  1  0  0  0  0
 17 20  1  0  0  0  0
 18 19  2  0  0  0  0
 20 21  2  0  0  0  0
 20 24  1  0  0  0  0
 21 22  1  0  0  0  0
 22 23  1  0  0  0  0
 22 25  1  0  0  0  0
 23 24  2  0  0  0  0
 27 28  1  0  0  0  0
  1 29  1  0  0  0  0
  2 30  1  0  0  0  0
  3 31  1  0  0  0  0
  4 32  1  0  0  0  0
  5 33  1  0  0  0  0
 10 34  1  0  0  0  0
 12 35  1  0  0  0  0
 12 36  1  0  0  0  0
 15 37  1  0  0  0  0
 16 38  1  0  0  0  0
 18 39  1  0  0  0  0
 19 40  1  0  0  0  0
 21 41  1  0  0  0  0
 24 42  1  0  0  0  0
 25 43  1  0  0  0  0
 25 44  1  0  0  0  0
 25 45  1  0  0  0  0
 27 46  1  0  0  0  0
 27 47  1  0  0  0  0
 28 48  1  0  0  0  0
 28 49  1  0  0  0  0
M  END
> <Name>
26

> <IC50[uM]>
0.036

$$$$
26
  -OEChem-05192314333D
 Structure written by MMmdl.
 49 53  0     1  0  0  0  0  0999 V2000
   -6.3961   12.3155  -12.0234 C   0  0  0  0  0  0  0  0  0  0  0  0
   -6.5478   11.7864  -10.7392 C   0  0  0  0  0  0  0  0  0  0  0  0
   -7.7431   10.5278  -13.0269 C   0  0  0  0  0  0  0  0  0  0  0  0
   -7.0034   11.6993  -13.1368 C   0  0  0  0  0  0  0  0  0  0  0  0
   -7.8411    9.9886  -11.7443 C   0  0  0  0  0  0  0  0  0  0  0  0
   -7.2672   10.6062  -10.5986 C   0  0  3  0  0  0  0  0  0  0  0  0
   -7.6276    9.7408   -9.5022 C   0  0  0  0  0  0  0  0  0  0  0  0
   -8.2893    8.7195   -9.9713 N   0  0  0  0  0  0  0  0  0  0  0  0
   -8.4361    8.8492  -11.2847 N   0  0  0  0  0  0  0  0  0  0  0  0
   -7.3404    9.8857   -8.0208 C   0  0  0  0  0  0  0  0  0  0  0  0
   -5.4704   14.2158  -13.3316 C   0  0  0  0  0  0  0  0  0  0  0  0
   -4.5218   15.3458  -13.0035 C   0  0  0  0  0  0  0  0  0  0  0  0
   -5.5814   13.4696  -12.1774 N   0  0  0  0  0  0  0  0  0  0  0  0
   -5.9630   10.4847   -7.7359 C   0  0  0  0  0  0  0  0  0  0  0  0
   -5.8538   11.7563   -7.1621 C   0  0  0  0  0  0  0  0  0  0  0  0
   -4.5953   12.3060   -6.9160 C   0  0  0  0  0  0  0  0  0  0  0  0
   -3.4449   11.5852   -7.2379 C   0  0  0  0  0  0  0  0  0  0  0  0
   -3.5560   10.3115   -7.8043 C   0  0  0  0  0  0  0  0  0  0  0  0
   -4.8130    9.7655   -8.0531 C   0  0  0  0  0  0  0  0  0  0  0  0
   -2.0905   12.1634   -6.9778 C   0  0  0  0  0  0  0  0  0  0  0  0
   -1.7398   13.4211   -6.5005 C   0  0  0  0  0  0  0  0  0  0  0  0
   -0.4007   13.4556   -6.4362 N   0  0  0  0  0  0  0  0  0  0  0  0
    0.1858   12.3500   -6.8082 N   0  0  0  0  0  0  0  0  0  0  0  0
   -0.8018   11.5473   -7.1675 C   0  0  0  0  0  0  0  0  0  0  0  0
    0.4333   14.5672   -6.0053 C   0  0  0  0  0  0  0  0  0  0  0  0
   -6.0131   14.0330  -14.4162 O   0  0  0  0  0  0  0  0  0  0  0  0
   -4.6790   13.9767  -11.1295 C   0  0  0  0  0  0  0  0  0  0  0  0
   -4.0830   15.2556  -11.5883 C   0  0  0  0  0  0  0  0  0  0  0  0
   -6.1181   12.2807   -9.8804 H   0  0  0  0  0  0  0  0  0  0  0  0
   -8.2128   10.0638  -13.8816 H   0  0  0  0  0  0  0  0  0  0  0  0
   -7.6809   12.4497  -13.5703 H   0  0  0  0  0  0  0  0  0  0  0  0
   -6.1921   11.4836  -13.8477 H   0  0  0  0  0  0  0  0  0  0  0  0
   -8.1901   11.1852  -10.4467 H   0  0  0  0  0  0  0  0  0  0  0  0
   -8.0363    9.5960   -7.2473 H   0  0  0  0  0  0  0  0  0  0  0  0
   -3.6420   15.2835  -13.6609 H   0  0  0  0  0  0  0  0  0  0  0  0
   -5.0325   16.3067  -13.1645 H   0  0  0  0  0  0  0  0  0  0  0  0
   -6.7444   12.3126   -6.9096 H   0  0  0  0  0  0  0  0  0  0  0  0
   -4.5117   13.2890   -6.4765 H   0  0  0  0  0  0  0  0  0  0  0  0
   -2.6662    9.7505   -8.0491 H   0  0  0  0  0  0  0  0  0  0  0  0
   -4.8962    8.7826   -8.4928 H   0  0  0  0  0  0  0  0  0  0  0  0
   -2.4169   14.2186   -6.2325 H   0  0  0  0  0  0  0  0  0  0  0  0
   -0.6596   10.5498   -7.5564 H   0  0  0  0  0  0  0  0  0  0  0  0
    1.4925   14.2769   -6.0668 H   0  0  0  0  0  0  0  0  0  0  0  0
    0.2526   15.4350   -6.6567 H   0  0  0  0  0  0  0  0  0  0  0  0
    0.1851   14.8305   -4.9665 H   0  0  0  0  0  0  0  0  0  0  0  0
   -5.2469   14.1452  -10.2026 H   0  0  0  0  0  0  0  0  0  0  0  0
   -3.8809   13.2432  -10.9424 H   0  0  0  0  0  0  0  0  0  0  0  0
   -2.9857   15.2276  -11.5166 H   0  0  0  0  0  0  0  0  0  0  0  0
   -4.4673   16.1029  -11.0014 H   0  0  0  0  0  0  0  0  0  0  0  0
  1  2  2  0  0  0  0
  1  4  1  0  0  0  0
  1 13  1  0  0  0  0
  2  6  1  0  0  0  0
  3  4  1  0  0  0  0
  3  5  2  0  0  0  0
  5  6  1  0  0  0  0
  5  9  1  0  0  0  0
  6  7  1  0  0  0  0
  7  8  1  0  0  0  0
  7 10  2  3  0  0  0
  8  9  2  0  0  0  0
 10 14  1  0  0  0  0
 11 12  1  0  0  0  0
 11 13  1  0  0  0  0
 11 26  2  0  0  0  0
 12 28  1  0  0  0  0
 13 27  1  0  0  0  0
 14 15  2  0  0  0  0
 14 19  1  0  0  0  0
 15 16  1  0  0  0  0
 16 17  2  0  0  0  0
 17 18  1  0  0  0  0
 17 20  1  0  0  0  0
 18 19  2  0  0  0  0
 20 21  2  0  0  0  0
 20 24  1  0  0  0  0
 21 22  1  0  0  0  0
 22 23  1  0  0  0  0
 22 25  1  0  0  0  0
 23 24  2  0  0  0  0
 27 28  1  0  0  0  0
  2 29  1  0  0  0  0
  3 30  1  0  0  0  0
  4 31  1  0  0  0  0
  4 32  1  0  0  0  0
  6 33  1  0  0  0  0
 10 34  1  0  0  0  0
 12 35  1  0  0  0  0
 12 36  1  0  0  0  0
 15 37  1  0  0  0  0
 16 38  1  0  0  0  0
 18 39  1  0  0  0  0
 19 40  1  0  0  0  0
 21 41  1  0  0  0  0
 24 42  1  0  0  0  0
 25 43  1  0  0  0  0
 25 44  1  0  0  0  0
 25 45  1  0  0  0  0
 27 46  1  0  0  0  0
 27 47  1  0  0  0  0
 28 48  1  0  0  0  0
 28 49  1  0  0  0  0
M  END
> <Name>
26

> <IC50[uM]>
0.036

$$$$
26
  -OEChem-05192314333D
 Structure written by MMmdl.
 49 53  0     1  0  0  0  0  0999 V2000
   -6.3961   12.3155  -12.0234 C   0  0  3  0  0  0  0  0  0  0  0  0
   -6.5478   11.7864  -10.7392 C   0  0  0  0  0  0  0  0  0  0  0  0
   -7.7431   10.5278  -13.0269 C   0  0  0  0  0  0  0  0  0  0  0  0
   -7.0034   11.6993  -13.1368 C   0  0  0  0  0  0  0  0  0  0  0  0
   -7.8411    9.9886  -11.7443 C   0  0  0  0  0  0  0  0  0  0  0  0
   -7.2672   10.6062  -10.5986 C   0  0  0  0  0  0  0  0  0  0  0  0
   -7.6276    9.7408   -9.5022 C   0  0  0  0  0  0  0  0  0  0  0  0
   -8.2893    8.7195   -9.9713 N   0  0  0  0  0  0  0  0  0  0  0  0
   -8.4361    8.8492  -11.2847 N   0  0  0  0  0  0  0  0  0  0  0  0
   -7.3404    9.8857   -8.0208 C   0  0  0  0  0  0  0  0  0  0  0  0
   -5.4704   14.2158  -13.3316 C   0  0  0  0  0  0  0  0  0  0  0  0
   -4.5218   15.3458  -13.0035 C   0  0  0  0  0  0  0  0  0  0  0  0
   -5.5814   13.4696  -12.1774 N   0  0  0  0  0  0  0  0  0  0  0  0
   -5.9630   10.4847   -7.7359 C   0  0  0  0  0  0  0  0  0  0  0  0
   -5.8538   11.7563   -7.1621 C   0  0  0  0  0  0  0  0  0  0  0  0
   -4.5953   12.3060   -6.9160 C   0  0  0  0  0  0  0  0  0  0  0  0
   -3.4449   11.5852   -7.2379 C   0  0  0  0  0  0  0  0  0  0  0  0
   -3.5560   10.3115   -7.8043 C   0  0  0  0  0  0  0  0  0  0  0  0
   -4.8130    9.7655   -8.0531 C   0  0  0  0  0  0  0  0  0  0  0  0
   -2.0905   12.1634   -6.9778 C   0  0  0  0  0  0  0  0  0  0  0  0
   -1.7398   13.4211   -6.5005 C   0  0  0  0  0  0  0  0  0  0  0  0
   -0.4007   13.4556   -6.4362 N   0  0  0  0  0  0  0  0  0  0  0  0
    0.1858   12.3500   -6.8082 N   0  0  0  0  0  0  0  0  0  0  0  0
   -0.8018   11.5473   -7.1675 C   0  0  0  0  0  0  0  0  0  0  0  0
    0.4333   14.5672   -6.0053 C   0  0  0  0  0  0  0  0  0  0  0  0
   -6.0131   14.0330  -14.4162 O   0  0  0  0  0  0  0  0  0  0  0  0
   -4.6790   13.9767  -11.1295 C   0  0  0  0  0  0  0  0  0  0  0  0
   -4.0830   15.2556  -11.5883 C   0  0  0  0  0  0  0  0  0  0  0  0
   -7.2833   12.9493  -11.8778 H   0  0  0  0  0  0  0  0  0  0  0  0
   -6.1181   12.2807   -9.8804 H   0  0  0  0  0  0  0  0  0  0  0  0
   -8.2128   10.0638  -13.8816 H   0  0  0  0  0  0  0  0  0  0  0  0
   -7.6809   12.4497  -13.5703 H   0  0  0  0  0  0  0  0  0  0  0  0
   -6.1921   11.4836  -13.8477 H   0  0  0  0  0  0  0  0  0  0  0  0
   -8.0363    9.5960   -7.2473 H   0  0  0  0  0  0  0  0  0  0  0  0
   -3.6420   15.2835  -13.6609 H   0  0  0  0  0  0  0  0  0  0  0  0
   -5.0325   16.3067  -13.1645 H   0  0  0  0  0  0  0  0  0  0  0  0
   -6.7444   12.3126   -6.9096 H   0  0  0  0  0  0  0  0  0  0  0  0
   -4.5117   13.2890   -6.4765 H   0  0  0  0  0  0  0  0  0  0  0  0
   -2.6662    9.7505   -8.0491 H   0  0  0  0  0  0  0  0  0  0  0  0
   -4.8962    8.7826   -8.4928 H   0  0  0  0  0  0  0  0  0  0  0  0
   -2.4169   14.2186   -6.2325 H   0  0  0  0  0  0  0  0  0  0  0  0
   -0.6596   10.5498   -7.5564 H   0  0  0  0  0  0  0  0  0  0  0  0
    1.4925   14.2769   -6.0668 H   0  0  0  0  0  0  0  0  0  0  0  0
    0.2526   15.4350   -6.6567 H   0  0  0  0  0  0  0  0  0  0  0  0
    0.1851   14.8305   -4.9665 H   0  0  0  0  0  0  0  0  0  0  0  0
   -5.2469   14.1452  -10.2026 H   0  0  0  0  0  0  0  0  0  0  0  0
   -3.8809   13.2432  -10.9424 H   0  0  0  0  0  0  0  0  0  0  0  0
   -2.9857   15.2276  -11.5166 H   0  0  0  0  0  0  0  0  0  0  0  0
   -4.4673   16.1029  -11.0014 H   0  0  0  0  0  0  0  0  0  0  0  0
  1  2  1  0  0  0  0
  1  4  1  0  0  0  0
  1 13  1  0  0  0  0
  2  6  2  0  0  0  0
  3  4  1  0  0  0  0
  3  5  2  0  0  0  0
  5  6  1  0  0  0  0
  5  9  1  0  0  0  0
  6  7  1  0  0  0  0
  7  8  1  0  0  0  0
  7 10  2  3  0  0  0
  8  9  2  0  0  0  0
 10 14  1  0  0  0  0
 11 12  1  0  0  0  0
 11 13  1  0  0  0  0
 11 26  2  0  0  0  0
 12 28  1  0  0  0  0
 13 27  1  0  0  0  0
 14 15  2  0  0  0  0
 14 19  1  0  0  0  0
 15 16  1  0  0  0  0
 16 17  2  0  0  0  0
 17 18  1  0  0  0  0
 17 20  1  0  0  0  0
 18 19  2  0  0  0  0
 20 21  2  0  0  0  0
 20 24  1  0  0  0  0
 21 22  1  0  0  0  0
 22 23  1  0  0  0  0
 22 25  1  0  0  0  0
 23 24  2  0  0  0  0
 27 28  1  0  0  0  0
  1 29  1  0  0  0  0
  2 30  1  0  0  0  0
  3 31  1  0  0  0  0
  4 32  1  0  0  0  0
  4 33  1  0  0  0  0
 10 34  1  0  0  0  0
 12 35  1  0  0  0  0
 12 36  1  0  0  0  0
 15 37  1  0  0  0  0
 16 38  1  0  0  0  0
 18 39  1  0  0  0  0
 19 40  1  0  0  0  0
 21 41  1  0  0  0  0
 24 42  1  0  0  0  0
 25 43  1  0  0  0  0
 25 44  1  0  0  0  0
 25 45  1  0  0  0  0
 27 46  1  0  0  0  0
 27 47  1  0  0  0  0
 28 48  1  0  0  0  0
 28 49  1  0  0  0  0
M  END
> <Name>
26

> <IC50[uM]>
0.036

$$$$
26
  -OEChem-05192314333D
 Structure written by MMmdl.
 49 53  0     1  0  0  0  0  0999 V2000
   -6.3961   12.3155  -12.0234 C   0  0  0  0  0  0  0  0  0  0  0  0
   -6.5478   11.7864  -10.7392 C   0  0  0  0  0  0  0  0  0  0  0  0
   -7.7431   10.5278  -13.0269 C   0  0  0  0  0  0  0  0  0  0  0  0
   -7.0034   11.6993  -13.1368 C   0  0  0  0  0  0  0  0  0  0  0  0
   -7.8411    9.9886  -11.7443 C   0  0  3  0  0  0  0  0  0  0  0  0
   -7.2672   10.6062  -10.5986 C   0  0  0  0  0  0  0  0  0  0  0  0
   -7.6276    9.7408   -9.5022 C   0  0  0  0  0  0  0  0  0  0  0  0
   -8.2893    8.7195   -9.9713 N   0  0  0  0  0  0  0  0  0  0  0  0
   -8.4361    8.8492  -11.2847 N   0  0  0  0  0  0  0  0  0  0  0  0
   -7.3404    9.8857   -8.0208 C   0  0  0  0  0  0  0  0  0  0  0  0
   -5.4704   14.2158  -13.3316 C   0  0  0  0  0  0  0  0  0  0  0  0
   -4.5218   15.3458  -13.0035 C   0  0  0  0  0  0  0  0  0  0  0  0
   -5.5814   13.4696  -12.1774 N   0  0  0  0  0  0  0  0  0  0  0  0
   -5.9630   10.4847   -7.7359 C   0  0  0  0  0  0  0  0  0  0  0  0
   -5.8538   11.7563   -7.1621 C   0  0  0  0  0  0  0  0  0  0  0  0
   -4.5953   12.3060   -6.9160 C   0  0  0  0  0  0  0  0  0  0  0  0
   -3.4449   11.5852   -7.2379 C   0  0  0  0  0  0  0  0  0  0  0  0
   -3.5560   10.3115   -7.8043 C   0  0  0  0  0  0  0  0  0  0  0  0
   -4.8130    9.7655   -8.0531 C   0  0  0  0  0  0  0  0  0  0  0  0
   -2.0905   12.1634   -6.9778 C   0  0  0  0  0  0  0  0  0  0  0  0
   -1.7398   13.4211   -6.5005 C   0  0  0  0  0  0  0  0  0  0  0  0
   -0.4007   13.4556   -6.4362 N   0  0  0  0  0  0  0  0  0  0  0  0
    0.1858   12.3500   -6.8082 N   0  0  0  0  0  0  0  0  0  0  0  0
   -0.8018   11.5473   -7.1675 C   0  0  0  0  0  0  0  0  0  0  0  0
    0.4333   14.5672   -6.0053 C   0  0  0  0  0  0  0  0  0  0  0  0
   -6.0131   14.0330  -14.4162 O   0  0  0  0  0  0  0  0  0  0  0  0
   -4.6790   13.9767  -11.1295 C   0  0  0  0  0  0  0  0  0  0  0  0
   -4.0830   15.2556  -11.5883 C   0  0  0  0  0  0  0  0  0  0  0  0
   -6.1181   12.2807   -9.8804 H   0  0  0  0  0  0  0  0  0  0  0  0
   -8.7624   10.7378  -13.3832 H   0  0  0  0  0  0  0  0  0  0  0  0
   -7.2763    9.7721  -13.6757 H   0  0  0  0  0  0  0  0  0  0  0  0
   -6.8897   12.1539  -14.1098 H   0  0  0  0  0  0  0  0  0  0  0  0
   -8.7752   10.5456  -11.5792 H   0  0  0  0  0  0  0  0  0  0  0  0
   -8.0363    9.5960   -7.2473 H   0  0  0  0  0  0  0  0  0  0  0  0
   -3.6420   15.2835  -13.6609 H   0  0  0  0  0  0  0  0  0  0  0  0
   -5.0325   16.3067  -13.1645 H   0  0  0  0  0  0  0  0  0  0  0  0
   -6.7444   12.3126   -6.9096 H   0  0  0  0  0  0  0  0  0  0  0  0
   -4.5117   13.2890   -6.4765 H   0  0  0  0  0  0  0  0  0  0  0  0
   -2.6662    9.7505   -8.0491 H   0  0  0  0  0  0  0  0  0  0  0  0
   -4.8962    8.7826   -8.4928 H   0  0  0  0  0  0  0  0  0  0  0  0
   -2.4169   14.2186   -6.2325 H   0  0  0  0  0  0  0  0  0  0  0  0
   -0.6596   10.5498   -7.5564 H   0  0  0  0  0  0  0  0  0  0  0  0
    1.4925   14.2769   -6.0668 H   0  0  0  0  0  0  0  0  0  0  0  0
    0.2526   15.4350   -6.6567 H   0  0  0  0  0  0  0  0  0  0  0  0
    0.1851   14.8305   -4.9665 H   0  0  0  0  0  0  0  0  0  0  0  0
   -5.2469   14.1452  -10.2026 H   0  0  0  0  0  0  0  0  0  0  0  0
   -3.8809   13.2432  -10.9424 H   0  0  0  0  0  0  0  0  0  0  0  0
   -2.9857   15.2276  -11.5166 H   0  0  0  0  0  0  0  0  0  0  0  0
   -4.4673   16.1029  -11.0014 H   0  0  0  0  0  0  0  0  0  0  0  0
  1  2  1  0  0  0  0
  1  4  2  0  0  0  0
  1 13  1  0  0  0  0
  2  6  2  0  0  0  0
  3  4  1  0  0  0  0
  3  5  1  0  0  0  0
  5  6  1  0  0  0  0
  5  9  1  0  0  0  0
  6  7  1  0  0  0  0
  7  8  1  0  0  0  0
  7 10  2  3  0  0  0
  8  9  2  0  0  0  0
 10 14  1  0  0  0  0
 11 12  1  0  0  0  0
 11 13  1  0  0  0  0
 11 26  2  0  0  0  0
 12 28  1  0  0  0  0
 13 27  1  0  0  0  0
 14 15  2  0  0  0  0
 14 19  1  0  0  0  0
 15 16  1  0  0  0  0
 16 17  2  0  0  0  0
 17 18  1  0  0  0  0
 17 20  1  0  0  0  0
 18 19  2  0  0  0  0
 20 21  2  0  0  0  0
 20 24  1  0  0  0  0
 21 22  1  0  0  0  0
 22 23  1  0  0  0  0
 22 25  1  0  0  0  0
 23 24  2  0  0  0  0
 27 28  1  0  0  0  0
  2 29  1  0  0  0  0
  3 30  1  0  0  0  0
  3 31  1  0  0  0  0
  4 32  1  0  0  0  0
  5 33  1  0  0  0  0
 10 34  1  0  0  0  0
 12 35  1  0  0  0  0
 12 36  1  0  0  0  0
 15 37  1  0  0  0  0
 16 38  1  0  0  0  0
 18 39  1  0  0  0  0
 19 40  1  0  0  0  0
 21 41  1  0  0  0  0
 24 42  1  0  0  0  0
 25 43  1  0  0  0  0
 25 44  1  0  0  0  0
 25 45  1  0  0  0  0
 27 46  1  0  0  0  0
 27 47  1  0  0  0  0
 28 48  1  0  0  0  0
 28 49  1  0  0  0  0
M  END
> <Name>
26

> <IC50[uM]>
0.036

$$$$
26
  -OEChem-05192314333D
 Structure written by MMmdl.
 49 53  0     0  0  0  0  0  0999 V2000
   -6.3961   12.3155  -12.0234 C   0  0  0  0  0  0  0  0  0  0  0  0
   -6.5478   11.7864  -10.7392 C   0  0  0  0  0  0  0  0  0  0  0  0
   -7.7431   10.5278  -13.0269 C   0  0  0  0  0  0  0  0  0  0  0  0
   -7.0034   11.6993  -13.1368 C   0  0  0  0  0  0  0  0  0  0  0  0
   -7.8411    9.9886  -11.7443 C   0  0  0  0  0  0  0  0  0  0  0  0
   -7.2672   10.6062  -10.5986 C   0  0  0  0  0  0  0  0  0  0  0  0
   -7.6276    9.7408   -9.5022 C   0  0  0  0  0  0  0  0  0  0  0  0
   -8.2893    8.7195   -9.9713 N   0  0  0  0  0  0  0  0  0  0  0  0
   -8.4361    8.8492  -11.2847 N   0  0  0  0  0  0  0  0  0  0  0  0
   -7.3404    9.8857   -8.0208 C   0  0  0  0  0  0  0  0  0  0  0  0
   -5.4704   14.2158  -13.3316 C   0  0  0  0  0  0  0  0  0  0  0  0
   -4.5218   15.3458  -13.0035 C   0  0  0  0  0  0  0  0  0  0  0  0
   -5.5814   13.4696  -12.1774 N   0  0  0  0  0  0  0  0  0  0  0  0
   -5.9630   10.4847   -7.7359 C   0  0  0  0  0  0  0  0  0  0  0  0
   -5.8538   11.7563   -7.1621 C   0  0  0  0  0  0  0  0  0  0  0  0
   -4.5953   12.3060   -6.9160 C   0  0  0  0  0  0  0  0  0  0  0  0
   -3.4449   11.5852   -7.2379 C   0  0  0  0  0  0  0  0  0  0  0  0
   -3.5560   10.3115   -7.8043 C   0  0  0  0  0  0  0  0  0  0  0  0
   -4.8130    9.7655   -8.0531 C   0  0  0  0  0  0  0  0  0  0  0  0
   -2.0905   12.1634   -6.9778 C   0  0  0  0  0  0  0  0  0  0  0  0
   -1.7398   13.4211   -6.5005 C   0  0  0  0  0  0  0  0  0  0  0  0
   -0.4007   13.4556   -6.4362 N   0  0  0  0  0  0  0  0  0  0  0  0
    0.1858   12.3500   -6.8082 N   0  0  0  0  0  0  0  0  0  0  0  0
   -0.8018   11.5473   -7.1675 C   0  0  0  0  0  0  0  0  0  0  0  0
    0.4333   14.5672   -6.0053 C   0  0  0  0  0  0  0  0  0  0  0  0
   -6.0131   14.0330  -14.4162 O   0  0  0  0  0  0  0  0  0  0  0  0
   -4.6790   13.9767  -11.1295 C   0  0  0  0  0  0  0  0  0  0  0  0
   -4.0830   15.2556  -11.5883 C   0  0  0  0  0  0  0  0  0  0  0  0
   -6.1181   12.2807   -9.8804 H   0  0  0  0  0  0  0  0  0  0  0  0
   -8.7624   10.7378  -13.3832 H   0  0  0  0  0  0  0  0  0  0  0  0
   -7.2763    9.7721  -13.6757 H   0  0  0  0  0  0  0  0  0  0  0  0
   -7.6809   12.4497  -13.5703 H   0  0  0  0  0  0  0  0  0  0  0  0
   -6.1921   11.4836  -13.8477 H   0  0  0  0  0  0  0  0  0  0  0  0
   -8.0363    9.5960   -7.2473 H   0  0  0  0  0  0  0  0  0  0  0  0
   -3.6420   15.2835  -13.6609 H   0  0  0  0  0  0  0  0  0  0  0  0
   -5.0325   16.3067  -13.1645 H   0  0  0  0  0  0  0  0  0  0  0  0
   -6.7444   12.3126   -6.9096 H   0  0  0  0  0  0  0  0  0  0  0  0
   -4.5117   13.2890   -6.4765 H   0  0  0  0  0  0  0  0  0  0  0  0
   -2.6662    9.7505   -8.0491 H   0  0  0  0  0  0  0  0  0  0  0  0
   -4.8962    8.7826   -8.4928 H   0  0  0  0  0  0  0  0  0  0  0  0
   -2.4169   14.2186   -6.2325 H   0  0  0  0  0  0  0  0  0  0  0  0
   -0.6596   10.5498   -7.5564 H   0  0  0  0  0  0  0  0  0  0  0  0
    1.4925   14.2769   -6.0668 H   0  0  0  0  0  0  0  0  0  0  0  0
    0.2526   15.4350   -6.6567 H   0  0  0  0  0  0  0  0  0  0  0  0
    0.1851   14.8305   -4.9665 H   0  0  0  0  0  0  0  0  0  0  0  0
   -5.2469   14.1452  -10.2026 H   0  0  0  0  0  0  0  0  0  0  0  0
   -3.8809   13.2432  -10.9424 H   0  0  0  0  0  0  0  0  0  0  0  0
   -2.9857   15.2276  -11.5166 H   0  0  0  0  0  0  0  0  0  0  0  0
   -4.4673   16.1029  -11.0014 H   0  0  0  0  0  0  0  0  0  0  0  0
  1  2  2  0  0  0  0
  1  4  1  0  0  0  0
  1 13  1  0  0  0  0
  2  6  1  0  0  0  0
  3  4  1  0  0  0  0
  3  5  1  0  0  0  0
  5  6  2  0  0  0  0
  5  9  1  0  0  0  0
  6  7  1  0  0  0  0
  7  8  1  0  0  0  0
  7 10  2  3  0  0  0
  8  9  2  0  0  0  0
 10 14  1  0  0  0  0
 11 12  1  0  0  0  0
 11 13  1  0  0  0  0
 11 26  2  0  0  0  0
 12 28  1  0  0  0  0
 13 27  1  0  0  0  0
 14 15  2  0  0  0  0
 14 19  1  0  0  0  0
 15 16  1  0  0  0  0
 16 17  2  0  0  0  0
 17 18  1  0  0  0  0
 17 20  1  0  0  0  0
 18 19  2  0  0  0  0
 20 21  2  0  0  0  0
 20 24  1  0  0  0  0
 21 22  1  0  0  0  0
 22 23  1  0  0  0  0
 22 25  1  0  0  0  0
 23 24  2  0  0  0  0
 27 28  1  0  0  0  0
  2 29  1  0  0  0  0
  3 30  1  0  0  0  0
  3 31  1  0  0  0  0
  4 32  1  0  0  0  0
  4 33  1  0  0  0  0
 10 34  1  0  0  0  0
 12 35  1  0  0  0  0
 12 36  1  0  0  0  0
 15 37  1  0  0  0  0
 16 38  1  0  0  0  0
 18 39  1  0  0  0  0
 19 40  1  0  0  0  0
 21 41  1  0  0  0  0
 24 42  1  0  0  0  0
 25 43  1  0  0  0  0
 25 44  1  0  0  0  0
 25 45  1  0  0  0  0
 27 46  1  0  0  0  0
 27 47  1  0  0  0  0
 28 48  1  0  0  0  0
 28 49  1  0  0  0  0
M  END
> <Name>
26

> <IC50[uM]>
0.036

$$$$
26
  -OEChem-05192314333D
 Structure written by MMmdl.
 49 53  0     1  0  0  0  0  0999 V2000
   -6.3961   12.3155  -12.0234 C   0  0  0  0  0  0  0  0  0  0  0  0
   -6.5478   11.7864  -10.7392 C   0  0  0  0  0  0  0  0  0  0  0  0
   -7.7431   10.5278  -13.0269 C   0  0  0  0  0  0  0  0  0  0  0  0
   -7.0034   11.6993  -13.1368 C   0  0  0  0  0  0  0  0  0  0  0  0
   -7.8411    9.9886  -11.7443 C   0  0  0  0  0  0  0  0  0  0  0  0
   -7.2672   10.6062  -10.5986 C   0  0  0  0  0  0  0  0  0  0  0  0
   -7.6276    9.7408   -9.5022 C   0  0  0  0  0  0  0  0  0  0  0  0
   -8.2893    8.7195   -9.9713 N   0  0  0  0  0  0  0  0  0  0  0  0
   -8.4361    8.8492  -11.2847 N   0  0  0  0  0  0  0  0  0  0  0  0
   -7.3404    9.8857   -8.0208 C   0  0  0  0  0  0  0  0  0  0  0  0
   -5.4704   14.2158  -13.3316 C   0  0  0  0  0  0  0  0  0  0  0  0
   -4.5218   15.3458  -13.0035 C   0  0  0  0  0  0  0  0  0  0  0  0
   -5.5814   13.4696  -12.1774 N   0  0  0  0  0  0  0  0  0  0  0  0
   -5.9630   10.4847   -7.7359 C   0  0  0  0  0  0  0  0  0  0  0  0
   -5.8538   11.7563   -7.1621 C   0  0  0  0  0  0  0  0  0  0  0  0
   -4.5953   12.3060   -6.9160 C   0  0  0  0  0  0  0  0  0  0  0  0
   -3.4449   11.5852   -7.2379 C   0  0  3  0  0  0  0  0  0  0  0  0
   -3.5560   10.3115   -7.8043 C   0  0  0  0  0  0  0  0  0  0  0  0
   -4.8130    9.7655   -8.0531 C   0  0  0  0  0  0  0  0  0  0  0  0
   -2.0905   12.1634   -6.9778 C   0  0  0  0  0  0  0  0  0  0  0  0
   -1.7398   13.4211   -6.5005 C   0  0  0  0  0  0  0  0  0  0  0  0
   -0.4007   13.4556   -6.4362 N   0  0  0  0  0  0  0  0  0  0  0  0
    0.1858   12.3500   -6.8082 N   0  0  0  0  0  0  0  0  0  0  0  0
   -0.8018   11.5473   -7.1675 C   0  0  0  0  0  0  0  0  0  0  0  0
    0.4333   14.5672   -6.0053 C   0  0  0  0  0  0  0  0  0  0  0  0
   -6.0131   14.0330  -14.4162 O   0  0  0  0  0  0  0  0  0  0  0  0
   -4.6790   13.9767  -11.1295 C   0  0  0  0  0  0  0  0  0  0  0  0
   -4.0830   15.2556  -11.5883 C   0  0  0  0  0  0  0  0  0  0  0  0
   -6.1181   12.2807   -9.8804 H   0  0  0  0  0  0  0  0  0  0  0  0
   -8.2128   10.0638  -13.8816 H   0  0  0  0  0  0  0  0  0  0  0  0
   -6.8897   12.1539  -14.1098 H   0  0  0  0  0  0  0  0  0  0  0  0
   -8.0363    9.5960   -7.2473 H   0  0  0  0  0  0  0  0  0  0  0  0
   -3.6420   15.2835  -13.6609 H   0  0  0  0  0  0  0  0  0  0  0  0
   -5.0325   16.3067  -13.1645 H   0  0  0  0  0  0  0  0  0  0  0  0
   -6.7444   12.3126   -6.9096 H   0  0  0  0  0  0  0  0  0  0  0  0
   -4.5459   13.2506   -7.4775 H   0  0  0  0  0  0  0  0  0  0  0  0
   -4.5463   12.5175   -5.8376 H   0  0  0  0  0  0  0  0  0  0  0  0
   -3.4442   12.0330   -8.2426 H   0  0  0  0  0  0  0  0  0  0  0  0
   -2.6662    9.7505   -8.0491 H   0  0  0  0  0  0  0  0  0  0  0  0
   -4.8962    8.7826   -8.4928 H   0  0  0  0  0  0  0  0  0  0  0  0
   -2.4169   14.2186   -6.2325 H   0  0  0  0  0  0  0  0  0  0  0  0
   -0.6596   10.5498   -7.5564 H   0  0  0  0  0  0  0  0  0  0  0  0
    1.4925   14.2769   -6.0668 H   0  0  0  0  0  0  0  0  0  0  0  0
    0.2526   15.4350   -6.6567 H   0  0  0  0  0  0  0  0  0  0  0  0
    0.1851   14.8305   -4.9665 H   0  0  0  0  0  0  0  0  0  0  0  0
   -5.2469   14.1452  -10.2026 H   0  0  0  0  0  0  0  0  0  0  0  0
   -3.8809   13.2432  -10.9424 H   0  0  0  0  0  0  0  0  0  0  0  0
   -2.9857   15.2276  -11.5166 H   0  0  0  0  0  0  0  0  0  0  0  0
   -4.4673   16.1029  -11.0014 H   0  0  0  0  0  0  0  0  0  0  0  0
  1  2  2  0  0  0  0
  1  4  1  0  0  0  0
  1 13  1  0  0  0  0
  2  6  1  0  0  0  0
  3  4  2  0  0  0  0
  3  5  1  0  0  0  0
  5  6  2  0  0  0  0
  5  9  1  0  0  0  0
  6  7  1  0  0  0  0
  7  8  1  0  0  0  0
  7 10  2  3  0  0  0
  8  9  2  0  0  0  0
 10 14  1  0  0  0  0
 11 12  1  0  0  0  0
 11 13  1  0  0  0  0
 11 26  2  0  0  0  0
 12 28  1  0  0  0  0
 13 27  1  0  0  0  0
 14 15  2  0  0  0  0
 14 19  1  0  0  0  0
 15 16  1  0  0  0  0
 16 17  1  0  0  0  0
 17 18  1  0  0  0  0
 17 20  1  0  0  0  0
 18 19  2  0  0  0  0
 20 21  2  0  0  0  0
 20 24  1  0  0  0  0
 21 22  1  0  0  0  0
 22 23  1  0  0  0  0
 22 25  1  0  0  0  0
 23 24  2  0  0  0  0
 27 28  1  0  0  0  0
  2 29  1  0  0  0  0
  3 30  1  0  0  0  0
  4 31  1  0  0  0  0
 10 32  1  0  0  0  0
 12 33  1  0  0  0  0
 12 34  1  0  0  0  0
 15 35  1  0  0  0  0
 16 36  1  0  0  0  0
 16 37  1  0  0  0  0
 17 38  1  0  0  0  0
 18 39  1  0  0  0  0
 19 40  1  0  0  0  0
 21 41  1  0  0  0  0
 24 42  1  0  0  0  0
 25 43  1  0  0  0  0
 25 44  1  0  0  0  0
 25 45  1  0  0  0  0
 27 46  1  0  0  0  0
 27 47  1  0  0  0  0
 28 48  1  0  0  0  0
 28 49  1  0  0  0  0
M  END
> <Name>
26

> <IC50[uM]>
0.036

$$$$
26
  -OEChem-05192314333D
 Structure written by MMmdl.
 49 53  0     1  0  0  0  0  0999 V2000
   -6.3961   12.3155  -12.0234 C   0  0  0  0  0  0  0  0  0  0  0  0
   -6.5478   11.7864  -10.7392 C   0  0  0  0  0  0  0  0  0  0  0  0
   -7.7431   10.5278  -13.0269 C   0  0  0  0  0  0  0  0  0  0  0  0
   -7.0034   11.6993  -13.1368 C   0  0  0  0  0  0  0  0  0  0  0  0
   -7.8411    9.9886  -11.7443 C   0  0  0  0  0  0  0  0  0  0  0  0
   -7.2672   10.6062  -10.5986 C   0  0  0  0  0  0  0  0  0  0  0  0
   -7.6276    9.7408   -9.5022 C   0  0  0  0  0  0  0  0  0  0  0  0
   -8.2893    8.7195   -9.9713 N   0  0  0  0  0  0  0  0  0  0  0  0
   -8.4361    8.8492  -11.2847 N   0  0  0  0  0  0  0  0  0  0  0  0
   -7.3404    9.8857   -8.0208 C   0  0  0  0  0  0  0  0  0  0  0  0
   -5.4704   14.2158  -13.3316 C   0  0  0  0  0  0  0  0  0  0  0  0
   -4.5218   15.3458  -13.0035 C   0  0  0  0  0  0  0  0  0  0  0  0
   -5.5814   13.4696  -12.1774 N   0  0  0  0  0  0  0  0  0  0  0  0
   -5.9630   10.4847   -7.7359 C   0  0  3  0  0  0  0  0  0  0  0  0
   -5.8538   11.7563   -7.1621 C   0  0  0  0  0  0  0  0  0  0  0  0
   -4.5953   12.3060   -6.9160 C   0  0  0  0  0  0  0  0  0  0  0  0
   -3.4449   11.5852   -7.2379 C   0  0  0  0  0  0  0  0  0  0  0  0
   -3.5560   10.3115   -7.8043 C   0  0  0  0  0  0  0  0  0  0  0  0
   -4.8130    9.7655   -8.0531 C   0  0  0  0  0  0  0  0  0  0  0  0
   -2.0905   12.1634   -6.9778 C   0  0  0  0  0  0  0  0  0  0  0  0
   -1.7398   13.4211   -6.5005 C   0  0  0  0  0  0  0  0  0  0  0  0
   -0.4007   13.4556   -6.4362 N   0  0  0  0  0  0  0  0  0  0  0  0
    0.1858   12.3500   -6.8082 N   0  0  0  0  0  0  0  0  0  0  0  0
   -0.8018   11.5473   -7.1675 C   0  0  0  0  0  0  0  0  0  0  0  0
    0.4333   14.5672   -6.0053 C   0  0  0  0  0  0  0  0  0  0  0  0
   -6.0131   14.0330  -14.4162 O   0  0  0  0  0  0  0  0  0  0  0  0
   -4.6790   13.9767  -11.1295 C   0  0  0  0  0  0  0  0  0  0  0  0
   -4.0830   15.2556  -11.5883 C   0  0  0  0  0  0  0  0  0  0  0  0
   -6.1181   12.2807   -9.8804 H   0  0  0  0  0  0  0  0  0  0  0  0
   -8.2128   10.0638  -13.8816 H   0  0  0  0  0  0  0  0  0  0  0  0
   -6.8897   12.1539  -14.1098 H   0  0  0  0  0  0  0  0  0  0  0  0
   -8.0363    9.5960   -7.2473 H   0  0  0  0  0  0  0  0  0  0  0  0
   -3.6420   15.2835  -13.6609 H   0  0  0  0  0  0  0  0  0  0  0  0
   -5.0325   16.3067  -13.1645 H   0  0  0  0  0  0  0  0  0  0  0  0
   -5.9717   10.0315   -6.7336 H   0  0  0  0  0  0  0  0  0  0  0  0
   -6.7444   12.3126   -6.9096 H   0  0  0  0  0  0  0  0  0  0  0  0
   -4.5117   13.2890   -6.4765 H   0  0  0  0  0  0  0  0  0  0  0  0
   -2.6662    9.7505   -8.0491 H   0  0  0  0  0  0  0  0  0  0  0  0
   -4.8650    8.8210   -7.4917 H   0  0  0  0  0  0  0  0  0  0  0  0
   -4.8588    9.5541   -9.1316 H   0  0  0  0  0  0  0  0  0  0  0  0
   -2.4169   14.2186   -6.2325 H   0  0  0  0  0  0  0  0  0  0  0  0
   -0.6596   10.5498   -7.5564 H   0  0  0  0  0  0  0  0  0  0  0  0
    1.4925   14.2769   -6.0668 H   0  0  0  0  0  0  0  0  0  0  0  0
    0.2526   15.4350   -6.6567 H   0  0  0  0  0  0  0  0  0  0  0  0
    0.1851   14.8305   -4.9665 H   0  0  0  0  0  0  0  0  0  0  0  0
   -5.2469   14.1452  -10.2026 H   0  0  0  0  0  0  0  0  0  0  0  0
   -3.8809   13.2432  -10.9424 H   0  0  0  0  0  0  0  0  0  0  0  0
   -2.9857   15.2276  -11.5166 H   0  0  0  0  0  0  0  0  0  0  0  0
   -4.4673   16.1029  -11.0014 H   0  0  0  0  0  0  0  0  0  0  0  0
  1  2  2  0  0  0  0
  1  4  1  0  0  0  0
  1 13  1  0  0  0  0
  2  6  1  0  0  0  0
  3  4  2  0  0  0  0
  3  5  1  0  0  0  0
  5  6  2  0  0  0  0
  5  9  1  0  0  0  0
  6  7  1  0  0  0  0
  7  8  1  0  0  0  0
  7 10  2  3  0  0  0
  8  9  2  0  0  0  0
 10 14  1  0  0  0  0
 11 12  1  0  0  0  0
 11 13  1  0  0  0  0
 11 26  2  0  0  0  0
 12 28  1  0  0  0  0
 13 27  1  0  0  0  0
 14 15  1  0  0  0  0
 14 19  1  0  0  0  0
 15 16  2  0  0  0  0
 16 17  1  0  0  0  0
 17 18  2  0  0  0  0
 17 20  1  0  0  0  0
 18 19  1  0  0  0  0
 20 21  2  0  0  0  0
 20 24  1  0  0  0  0
 21 22  1  0  0  0  0
 22 23  1  0  0  0  0
 22 25  1  0  0  0  0
 23 24  2  0  0  0  0
 27 28  1  0  0  0  0
  2 29  1  0  0  0  0
  3 30  1  0  0  0  0
  4 31  1  0  0  0  0
 10 32  1  0  0  0  0
 12 33  1  0  0  0  0
 12 34  1  0  0  0  0
 14 35  1  0  0  0  0
 15 36  1  0  0  0  0
 16 37  1  0  0  0  0
 18 38  1  0  0  0  0
 19 39  1  0  0  0  0
 19 40  1  0  0  0  0
 21 41  1  0  0  0  0
 24 42  1  0  0  0  0
 25 43  1  0  0  0  0
 25 44  1  0  0  0  0
 25 45  1  0  0  0  0
 27 46  1  0  0  0  0
 27 47  1  0  0  0  0
 28 48  1  0  0  0  0
 28 49  1  0  0  0  0
M  END
> <Name>
26

> <IC50[uM]>
0.036

$$$$
26
  -OEChem-05192314333D
 Structure written by MMmdl.
 49 53  0     1  0  0  0  0  0999 V2000
   -6.3961   12.3155  -12.0234 C   0  0  0  0  0  0  0  0  0  0  0  0
   -6.5478   11.7864  -10.7392 C   0  0  0  0  0  0  0  0  0  0  0  0
   -7.7431   10.5278  -13.0269 C   0  0  0  0  0  0  0  0  0  0  0  0
   -7.0034   11.6993  -13.1368 C   0  0  0  0  0  0  0  0  0  0  0  0
   -7.8411    9.9886  -11.7443 C   0  0  0  0  0  0  0  0  0  0  0  0
   -7.2672   10.6062  -10.5986 C   0  0  0  0  0  0  0  0  0  0  0  0
   -7.6276    9.7408   -9.5022 C   0  0  3  0  0  0  0  0  0  0  0  0
   -8.2893    8.7195   -9.9713 N   0  0  0  0  0  0  0  0  0  0  0  0
   -8.4361    8.8492  -11.2847 N   0  0  0  0  0  0  0  0  0  0  0  0
   -7.3404    9.8857   -8.0208 C   0  0  0  0  0  0  0  0  0  0  0  0
   -5.4704   14.2158  -13.3316 C   0  0  0  0  0  0  0  0  0  0  0  0
   -4.5218   15.3458  -13.0035 C   0  0  0  0  0  0  0  0  0  0  0  0
   -5.5814   13.4696  -12.1774 N   0  0  0  0  0  0  0  0  0  0  0  0
   -5.9630   10.4847   -7.7359 C   0  0  0  0  0  0  0  0  0  0  0  0
   -5.8538   11.7563   -7.1621 C   0  0  0  0  0  0  0  0  0  0  0  0
   -4.5953   12.3060   -6.9160 C   0  0  0  0  0  0  0  0  0  0  0  0
   -3.4449   11.5852   -7.2379 C   0  0  0  0  0  0  0  0  0  0  0  0
   -3.5560   10.3115   -7.8043 C   0  0  0  0  0  0  0  0  0  0  0  0
   -4.8130    9.7655   -8.0531 C   0  0  0  0  0  0  0  0  0  0  0  0
   -2.0905   12.1634   -6.9778 C   0  0  0  0  0  0  0  0  0  0  0  0
   -1.7398   13.4211   -6.5005 C   0  0  0  0  0  0  0  0  0  0  0  0
   -0.4007   13.4556   -6.4362 N   0  0  0  0  0  0  0  0  0  0  0  0
    0.1858   12.3500   -6.8082 N   0  0  0  0  0  0  0  0  0  0  0  0
   -0.8018   11.5473   -7.1675 C   0  0  0  0  0  0  0  0  0  0  0  0
    0.4333   14.5672   -6.0053 C   0  0  0  0  0  0  0  0  0  0  0  0
   -6.0131   14.0330  -14.4162 O   0  0  0  0  0  0  0  0  0  0  0  0
   -4.6790   13.9767  -11.1295 C   0  0  0  0  0  0  0  0  0  0  0  0
   -4.0830   15.2556  -11.5883 C   0  0  0  0  0  0  0  0  0  0  0  0
   -6.1181   12.2807   -9.8804 H   0  0  0  0  0  0  0  0  0  0  0  0
   -8.2128   10.0638  -13.8816 H   0  0  0  0  0  0  0  0  0  0  0  0
   -6.8897   12.1539  -14.1098 H   0  0  0  0  0  0  0  0  0  0  0  0
   -8.5699   10.2938   -9.3744 H   0  0  0  0  0  0  0  0  0  0  0  0
   -8.0363    9.5960   -7.2473 H   0  0  0  0  0  0  0  0  0  0  0  0
   -3.6420   15.2835  -13.6609 H   0  0  0  0  0  0  0  0  0  0  0  0
   -5.0325   16.3067  -13.1645 H   0  0  0  0  0  0  0  0  0  0  0  0
   -6.7444   12.3126   -6.9096 H   0  0  0  0  0  0  0  0  0  0  0  0
   -4.5117   13.2890   -6.4765 H   0  0  0  0  0  0  0  0  0  0  0  0
   -2.6662    9.7505   -8.0491 H   0  0  0  0  0  0  0  0  0  0  0  0
   -4.8650    8.8210   -7.4917 H   0  0  0  0  0  0  0  0  0  0  0  0
   -4.8588    9.5541   -9.1316 H   0  0  0  0  0  0  0  0  0  0  0  0
   -2.4169   14.2186   -6.2325 H   0  0  0  0  0  0  0  0  0  0  0  0
   -0.6596   10.5498   -7.5564 H   0  0  0  0  0  0  0  0  0  0  0  0
    1.4925   14.2769   -6.0668 H   0  0  0  0  0  0  0  0  0  0  0  0
    0.2526   15.4350   -6.6567 H   0  0  0  0  0  0  0  0  0  0  0  0
    0.1851   14.8305   -4.9665 H   0  0  0  0  0  0  0  0  0  0  0  0
   -5.2469   14.1452  -10.2026 H   0  0  0  0  0  0  0  0  0  0  0  0
   -3.8809   13.2432  -10.9424 H   0  0  0  0  0  0  0  0  0  0  0  0
   -2.9857   15.2276  -11.5166 H   0  0  0  0  0  0  0  0  0  0  0  0
   -4.4673   16.1029  -11.0014 H   0  0  0  0  0  0  0  0  0  0  0  0
  1  2  2  0  0  0  0
  1  4  1  0  0  0  0
  1 13  1  0  0  0  0
  2  6  1  0  0  0  0
  3  4  2  0  0  0  0
  3  5  1  0  0  0  0
  5  6  2  0  0  0  0
  5  9  1  0  0  0  0
  6  7  1  0  0  0  0
  7  8  1  0  0  0  0
  7 10  1  0  0  0  0
  8  9  2  0  0  0  0
 10 14  2  3  0  0  0
 11 12  1  0  0  0  0
 11 13  1  0  0  0  0
 11 26  2  0  0  0  0
 12 28  1  0  0  0  0
 13 27  1  0  0  0  0
 14 15  1  0  0  0  0
 14 19  1  0  0  0  0
 15 16  2  0  0  0  0
 16 17  1  0  0  0  0
 17 18  2  0  0  0  0
 17 20  1  0  0  0  0
 18 19  1  0  0  0  0
 20 21  2  0  0  0  0
 20 24  1  0  0  0  0
 21 22  1  0  0  0  0
 22 23  1  0  0  0  0
 22 25  1  0  0  0  0
 23 24  2  0  0  0  0
 27 28  1  0  0  0  0
  2 29  1  0  0  0  0
  3 30  1  0  0  0  0
  4 31  1  0  0  0  0
  7 32  1  0  0  0  0
 10 33  1  0  0  0  0
 12 34  1  0  0  0  0
 12 35  1  0  0  0  0
 15 36  1  0  0  0  0
 16 37  1  0  0  0  0
 18 38  1  0  0  0  0
 19 39  1  0  0  0  0
 19 40  1  0  0  0  0
 21 41  1  0  0  0  0
 24 42  1  0  0  0  0
 25 43  1  0  0  0  0
 25 44  1  0  0  0  0
 25 45  1  0  0  0  0
 27 46  1  0  0  0  0
 27 47  1  0  0  0  0
 28 48  1  0  0  0  0
 28 49  1  0  0  0  0
M  END
> <Name>
26

> <IC50[uM]>
0.036

$$$$
26
  -OEChem-05192314333D
 Structure written by MMmdl.
 49 53  0     0  0  0  0  0  0999 V2000
   -6.3961   12.3155  -12.0234 C   0  0  0  0  0  0  0  0  0  0  0  0
   -6.5478   11.7864  -10.7392 C   0  0  0  0  0  0  0  0  0  0  0  0
   -7.7431   10.5278  -13.0269 C   0  0  0  0  0  0  0  0  0  0  0  0
   -7.0034   11.6993  -13.1368 C   0  0  0  0  0  0  0  0  0  0  0  0
   -7.8411    9.9886  -11.7443 C   0  0  0  0  0  0  0  0  0  0  0  0
   -7.2672   10.6062  -10.5986 C   0  0  0  0  0  0  0  0  0  0  0  0
   -7.6276    9.7408   -9.5022 C   0  0  0  0  0  0  0  0  0  0  0  0
   -8.2893    8.7195   -9.9713 N   0  0  0  0  0  0  0  0  0  0  0  0
   -8.4361    8.8492  -11.2847 N   0  0  0  0  0  0  0  0  0  0  0  0
   -7.3404    9.8857   -8.0208 C   0  0  0  0  0  0  0  0  0  0  0  0
   -5.4704   14.2158  -13.3316 C   0  0  0  0  0  0  0  0  0  0  0  0
   -4.5218   15.3458  -13.0035 C   0  0  0  0  0  0  0  0  0  0  0  0
   -5.5814   13.4696  -12.1774 N   0  0  0  0  0  0  0  0  0  0  0  0
   -5.9630   10.4847   -7.7359 C   0  0  0  0  0  0  0  0  0  0  0  0
   -5.8538   11.7563   -7.1621 C   0  0  0  0  0  0  0  0  0  0  0  0
   -4.5953   12.3060   -6.9160 C   0  0  0  0  0  0  0  0  0  0  0  0
   -3.4449   11.5852   -7.2379 C   0  0  0  0  0  0  0  0  0  0  0  0
   -3.5560   10.3115   -7.8043 C   0  0  0  0  0  0  0  0  0  0  0  0
   -4.8130    9.7655   -8.0531 C   0  0  0  0  0  0  0  0  0  0  0  0
   -2.0905   12.1634   -6.9778 C   0  0  0  0  0  0  0  0  0  0  0  0
   -1.7398   13.4211   -6.5005 C   0  0  0  0  0  0  0  0  0  0  0  0
   -0.4007   13.4556   -6.4362 N   0  0  0  0  0  0  0  0  0  0  0  0
    0.1858   12.3500   -6.8082 N   0  0  0  0  0  0  0  0  0  0  0  0
   -0.8018   11.5473   -7.1675 C   0  0  0  0  0  0  0  0  0  0  0  0
    0.4333   14.5672   -6.0053 C   0  0  0  0  0  0  0  0  0  0  0  0
   -6.0131   14.0330  -14.4162 O   0  0  0  0  0  0  0  0  0  0  0  0
   -4.6790   13.9767  -11.1295 C   0  0  0  0  0  0  0  0  0  0  0  0
   -4.0830   15.2556  -11.5883 C   0  0  0  0  0  0  0  0  0  0  0  0
   -6.1181   12.2807   -9.8804 H   0  0  0  0  0  0  0  0  0  0  0  0
   -8.2128   10.0638  -13.8816 H   0  0  0  0  0  0  0  0  0  0  0  0
   -6.8897   12.1539  -14.1098 H   0  0  0  0  0  0  0  0  0  0  0  0
   -8.0363    9.5960   -7.2473 H   0  0  0  0  0  0  0  0  0  0  0  0
   -3.6420   15.2835  -13.6609 H   0  0  0  0  0  0  0  0  0  0  0  0
   -5.0325   16.3067  -13.1645 H   0  0  0  0  0  0  0  0  0  0  0  0
   -6.7444   12.3126   -6.9096 H   0  0  0  0  0  0  0  0  0  0  0  0
   -4.5459   13.2506   -7.4775 H   0  0  0  0  0  0  0  0  0  0  0  0
   -4.5463   12.5175   -5.8376 H   0  0  0  0  0  0  0  0  0  0  0  0
   -2.6662    9.7505   -8.0491 H   0  0  0  0  0  0  0  0  0  0  0  0
   -4.8650    8.8210   -7.4917 H   0  0  0  0  0  0  0  0  0  0  0  0
   -4.8588    9.5541   -9.1316 H   0  0  0  0  0  0  0  0  0  0  0  0
   -2.4169   14.2186   -6.2325 H   0  0  0  0  0  0  0  0  0  0  0  0
   -0.6596   10.5498   -7.5564 H   0  0  0  0  0  0  0  0  0  0  0  0
    1.4925   14.2769   -6.0668 H   0  0  0  0  0  0  0  0  0  0  0  0
    0.2526   15.4350   -6.6567 H   0  0  0  0  0  0  0  0  0  0  0  0
    0.1851   14.8305   -4.9665 H   0  0  0  0  0  0  0  0  0  0  0  0
   -5.2469   14.1452  -10.2026 H   0  0  0  0  0  0  0  0  0  0  0  0
   -3.8809   13.2432  -10.9424 H   0  0  0  0  0  0  0  0  0  0  0  0
   -2.9857   15.2276  -11.5166 H   0  0  0  0  0  0  0  0  0  0  0  0
   -4.4673   16.1029  -11.0014 H   0  0  0  0  0  0  0  0  0  0  0  0
  1  2  2  0  0  0  0
  1  4  1  0  0  0  0
  1 13  1  0  0  0  0
  2  6  1  0  0  0  0
  3  4  2  0  0  0  0
  3  5  1  0  0  0  0
  5  6  2  0  0  0  0
  5  9  1  0  0  0  0
  6  7  1  0  0  0  0
  7  8  1  0  0  0  0
  7 10  2  3  0  0  0
  8  9  2  0  0  0  0
 10 14  1  0  0  0  0
 11 12  1  0  0  0  0
 11 13  1  0  0  0  0
 11 26  2  0  0  0  0
 12 28  1  0  0  0  0
 13 27  1  0  0  0  0
 14 15  2  0  0  0  0
 14 19  1  0  0  0  0
 15 16  1  0  0  0  0
 16 17  1  0  0  0  0
 17 18  2  0  0  0  0
 17 20  1  0  0  0  0
 18 19  1  0  0  0  0
 20 21  2  0  0  0  0
 20 24  1  0  0  0  0
 21 22  1  0  0  0  0
 22 23  1  0  0  0  0
 22 25  1  0  0  0  0
 23 24  2  0  0  0  0
 27 28  1  0  0  0  0
  2 29  1  0  0  0  0
  3 30  1  0  0  0  0
  4 31  1  0  0  0  0
 10 32  1  0  0  0  0
 12 33  1  0  0  0  0
 12 34  1  0  0  0  0
 15 35  1  0  0  0  0
 16 36  1  0  0  0  0
 16 37  1  0  0  0  0
 18 38  1  0  0  0  0
 19 39  1  0  0  0  0
 19 40  1  0  0  0  0
 21 41  1  0  0  0  0
 24 42  1  0  0  0  0
 25 43  1  0  0  0  0
 25 44  1  0  0  0  0
 25 45  1  0  0  0  0
 27 46  1  0  0  0  0
 27 47  1  0  0  0  0
 28 48  1  0  0  0  0
 28 49  1  0  0  0  0
M  END
> <Name>
26

> <IC50[uM]>
0.036

$$$$
26
  -OEChem-05192314333D
 Structure written by MMmdl.
 49 53  0     0  0  0  0  0  0999 V2000
   -6.3961   12.3155  -12.0234 C   0  0  0  0  0  0  0  0  0  0  0  0
   -6.5478   11.7864  -10.7392 C   0  0  0  0  0  0  0  0  0  0  0  0
   -7.7431   10.5278  -13.0269 C   0  0  0  0  0  0  0  0  0  0  0  0
   -7.0034   11.6993  -13.1368 C   0  0  0  0  0  0  0  0  0  0  0  0
   -7.8411    9.9886  -11.7443 C   0  0  0  0  0  0  0  0  0  0  0  0
   -7.2672   10.6062  -10.5986 C   0  0  0  0  0  0  0  0  0  0  0  0
   -7.6276    9.7408   -9.5022 C   0  0  0  0  0  0  0  0  0  0  0  0
   -8.2893    8.7195   -9.9713 N   0  0  0  0  0  0  0  0  0  0  0  0
   -8.4361    8.8492  -11.2847 N   0  0  0  0  0  0  0  0  0  0  0  0
   -7.3404    9.8857   -8.0208 C   0  0  0  0  0  0  0  0  0  0  0  0
   -5.4704   14.2158  -13.3316 C   0  0  0  0  0  0  0  0  0  0  0  0
   -4.5218   15.3458  -13.0035 C   0  0  0  0  0  0  0  0  0  0  0  0
   -5.5814   13.4696  -12.1774 N   0  0  0  0  0  0  0  0  0  0  0  0
   -5.9630   10.4847   -7.7359 C   0  0  0  0  0  0  0  0  0  0  0  0
   -5.8538   11.7563   -7.1621 C   0  0  0  0  0  0  0  0  0  0  0  0
   -4.5953   12.3060   -6.9160 C   0  0  0  0  0  0  0  0  0  0  0  0
   -3.4449   11.5852   -7.2379 C   0  0  0  0  0  0  0  0  0  0  0  0
   -3.5560   10.3115   -7.8043 C   0  0  0  0  0  0  0  0  0  0  0  0
   -4.8130    9.7655   -8.0531 C   0  0  0  0  0  0  0  0  0  0  0  0
   -2.0905   12.1634   -6.9778 C   0  0  0  0  0  0  0  0  0  0  0  0
   -1.7398   13.4211   -6.5005 C   0  0  0  0  0  0  0  0  0  0  0  0
   -0.4007   13.4556   -6.4362 N   0  0  0  0  0  0  0  0  0  0  0  0
    0.1858   12.3500   -6.8082 N   0  0  0  0  0  0  0  0  0  0  0  0
   -0.8018   11.5473   -7.1675 C   0  0  0  0  0  0  0  0  0  0  0  0
    0.4333   14.5672   -6.0053 C   0  0  0  0  0  0  0  0  0  0  0  0
   -6.0131   14.0330  -14.4162 O   0  0  0  0  0  0  0  0  0  0  0  0
   -4.6790   13.9767  -11.1295 C   0  0  0  0  0  0  0  0  0  0  0  0
   -4.0830   15.2556  -11.5883 C   0  0  0  0  0  0  0  0  0  0  0  0
   -6.1181   12.2807   -9.8804 H   0  0  0  0  0  0  0  0  0  0  0  0
   -8.2128   10.0638  -13.8816 H   0  0  0  0  0  0  0  0  0  0  0  0
   -6.8897   12.1539  -14.1098 H   0  0  0  0  0  0  0  0  0  0  0  0
   -8.0363    9.5960   -7.2473 H   0  0  0  0  0  0  0  0  0  0  0  0
   -3.6420   15.2835  -13.6609 H   0  0  0  0  0  0  0  0  0  0  0  0
   -5.0325   16.3067  -13.1645 H   0  0  0  0  0  0  0  0  0  0  0  0
   -6.7444   12.3126   -6.9096 H   0  0  0  0  0  0  0  0  0  0  0  0
   -4.5117   13.2890   -6.4765 H   0  0  0  0  0  0  0  0  0  0  0  0
   -3.0287   10.3463   -8.7690 H   0  0  0  0  0  0  0  0  0  0  0  0
   -3.0368    9.6170   -7.1275 H   0  0  0  0  0  0  0  0  0  0  0  0
   -4.8650    8.8210   -7.4917 H   0  0  0  0  0  0  0  0  0  0  0  0
   -4.8588    9.5541   -9.1316 H   0  0  0  0  0  0  0  0  0  0  0  0
   -2.4169   14.2186   -6.2325 H   0  0  0  0  0  0  0  0  0  0  0  0
   -0.6596   10.5498   -7.5564 H   0  0  0  0  0  0  0  0  0  0  0  0
    1.4925   14.2769   -6.0668 H   0  0  0  0  0  0  0  0  0  0  0  0
    0.2526   15.4350   -6.6567 H   0  0  0  0  0  0  0  0  0  0  0  0
    0.1851   14.8305   -4.9665 H   0  0  0  0  0  0  0  0  0  0  0  0
   -5.2469   14.1452  -10.2026 H   0  0  0  0  0  0  0  0  0  0  0  0
   -3.8809   13.2432  -10.9424 H   0  0  0  0  0  0  0  0  0  0  0  0
   -2.9857   15.2276  -11.5166 H   0  0  0  0  0  0  0  0  0  0  0  0
   -4.4673   16.1029  -11.0014 H   0  0  0  0  0  0  0  0  0  0  0  0
  1  2  2  0  0  0  0
  1  4  1  0  0  0  0
  1 13  1  0  0  0  0
  2  6  1  0  0  0  0
  3  4  2  0  0  0  0
  3  5  1  0  0  0  0
  5  6  2  0  0  0  0
  5  9  1  0  0  0  0
  6  7  1  0  0  0  0
  7  8  1  0  0  0  0
  7 10  2  3  0  0  0
  8  9  2  0  0  0  0
 10 14  1  0  0  0  0
 11 12  1  0  0  0  0
 11 13  1  0  0  0  0
 11 26  2  0  0  0  0
 12 28  1  0  0  0  0
 13 27  1  0  0  0  0
 14 15  2  0  0  0  0
 14 19  1  0  0  0  0
 15 16  1  0  0  0  0
 16 17  2  0  0  0  0
 17 18  1  0  0  0  0
 17 20  1  0  0  0  0
 18 19  1  0  0  0  0
 20 21  2  0  0  0  0
 20 24  1  0  0  0  0
 21 22  1  0  0  0  0
 22 23  1  0  0  0  0
 22 25  1  0  0  0  0
 23 24  2  0  0  0  0
 27 28  1  0  0  0  0
  2 29  1  0  0  0  0
  3 30  1  0  0  0  0
  4 31  1  0  0  0  0
 10 32  1  0  0  0  0
 12 33  1  0  0  0  0
 12 34  1  0  0  0  0
 15 35  1  0  0  0  0
 16 36  1  0  0  0  0
 18 37  1  0  0  0  0
 18 38  1  0  0  0  0
 19 39  1  0  0  0  0
 19 40  1  0  0  0  0
 21 41  1  0  0  0  0
 24 42  1  0  0  0  0
 25 43  1  0  0  0  0
 25 44  1  0  0  0  0
 25 45  1  0  0  0  0
 27 46  1  0  0  0  0
 27 47  1  0  0  0  0
 28 48  1  0  0  0  0
 28 49  1  0  0  0  0
M  END
> <Name>
26

> <IC50[uM]>
0.036

$$$$
26
  -OEChem-05192314333D
 Structure written by MMmdl.
 49 53  0     1  0  0  0  0  0999 V2000
   -6.3961   12.3155  -12.0234 C   0  0  0  0  0  0  0  0  0  0  0  0
   -6.5478   11.7864  -10.7392 C   0  0  0  0  0  0  0  0  0  0  0  0
   -7.7431   10.5278  -13.0269 C   0  0  0  0  0  0  0  0  0  0  0  0
   -7.0034   11.6993  -13.1368 C   0  0  0  0  0  0  0  0  0  0  0  0
   -7.8411    9.9886  -11.7443 C   0  0  0  0  0  0  0  0  0  0  0  0
   -7.2672   10.6062  -10.5986 C   0  0  3  0  0  0  0  0  0  0  0  0
   -7.6276    9.7408   -9.5022 C   0  0  0  0  0  0  0  0  0  0  0  0
   -8.2893    8.7195   -9.9713 N   0  0  0  0  0  0  0  0  0  0  0  0
   -8.4361    8.8492  -11.2847 N   0  0  0  0  0  0  0  0  0  0  0  0
   -7.3404    9.8857   -8.0208 C   0  0  0  0  0  0  0  0  0  0  0  0
   -5.4704   14.2158  -13.3316 C   0  0  0  0  0  0  0  0  0  0  0  0
   -4.5218   15.3458  -13.0035 C   0  0  0  0  0  0  0  0  0  0  0  0
   -5.5814   13.4696  -12.1774 N   0  0  0  0  0  0  0  0  0  0  0  0
   -5.9630   10.4847   -7.7359 C   0  0  0  0  0  0  0  0  0  0  0  0
   -5.8538   11.7563   -7.1621 C   0  0  0  0  0  0  0  0  0  0  0  0
   -4.5953   12.3060   -6.9160 C   0  0  0  0  0  0  0  0  0  0  0  0
   -3.4449   11.5852   -7.2379 C   0  0  0  0  0  0  0  0  0  0  0  0
   -3.5560   10.3115   -7.8043 C   0  0  0  0  0  0  0  0  0  0  0  0
   -4.8130    9.7655   -8.0531 C   0  0  0  0  0  0  0  0  0  0  0  0
   -2.0905   12.1634   -6.9778 C   0  0  0  0  0  0  0  0  0  0  0  0
   -1.7398   13.4211   -6.5005 C   0  0  0  0  0  0  0  0  0  0  0  0
   -0.4007   13.4556   -6.4362 N   0  0  0  0  0  0  0  0  0  0  0  0
    0.1858   12.3500   -6.8082 N   0  0  0  0  0  0  0  0  0  0  0  0
   -0.8018   11.5473   -7.1675 C   0  0  0  0  0  0  0  0  0  0  0  0
    0.4333   14.5672   -6.0053 C   0  0  0  0  0  0  0  0  0  0  0  0
   -6.0131   14.0330  -14.4162 O   0  0  0  0  0  0  0  0  0  0  0  0
   -4.6790   13.9767  -11.1295 C   0  0  0  0  0  0  0  0  0  0  0  0
   -4.0830   15.2556  -11.5883 C   0  0  0  0  0  0  0  0  0  0  0  0
   -5.5392   11.6037  -10.3400 H   0  0  0  0  0  0  0  0  0  0  0  0
   -7.0511   12.5504  -10.1285 H   0  0  0  0  0  0  0  0  0  0  0  0
   -8.2128   10.0638  -13.8816 H   0  0  0  0  0  0  0  0  0  0  0  0
   -6.8897   12.1539  -14.1098 H   0  0  0  0  0  0  0  0  0  0  0  0
   -8.1901   11.1852  -10.4467 H   0  0  0  0  0  0  0  0  0  0  0  0
   -8.0363    9.5960   -7.2473 H   0  0  0  0  0  0  0  0  0  0  0  0
   -3.6420   15.2835  -13.6609 H   0  0  0  0  0  0  0  0  0  0  0  0
   -5.0325   16.3067  -13.1645 H   0  0  0  0  0  0  0  0  0  0  0  0
   -6.7444   12.3126   -6.9096 H   0  0  0  0  0  0  0  0  0  0  0  0
   -4.5117   13.2890   -6.4765 H   0  0  0  0  0  0  0  0  0  0  0  0
   -2.6662    9.7505   -8.0491 H   0  0  0  0  0  0  0  0  0  0  0  0
   -4.8962    8.7826   -8.4928 H   0  0  0  0  0  0  0  0  0  0  0  0
   -2.4169   14.2186   -6.2325 H   0  0  0  0  0  0  0  0  0  0  0  0
   -0.6596   10.5498   -7.5564 H   0  0  0  0  0  0  0  0  0  0  0  0
    1.4925   14.2769   -6.0668 H   0  0  0  0  0  0  0  0  0  0  0  0
    0.2526   15.4350   -6.6567 H   0  0  0  0  0  0  0  0  0  0  0  0
    0.1851   14.8305   -4.9665 H   0  0  0  0  0  0  0  0  0  0  0  0
   -5.2469   14.1452  -10.2026 H   0  0  0  0  0  0  0  0  0  0  0  0
   -3.8809   13.2432  -10.9424 H   0  0  0  0  0  0  0  0  0  0  0  0
   -2.9857   15.2276  -11.5166 H   0  0  0  0  0  0  0  0  0  0  0  0
   -4.4673   16.1029  -11.0014 H   0  0  0  0  0  0  0  0  0  0  0  0
  1  2  1  0  0  0  0
  1  4  2  0  0  0  0
  1 13  1  0  0  0  0
  2  6  1  0  0  0  0
  3  4  1  0  0  0  0
  3  5  2  0  0  0  0
  5  6  1  0  0  0  0
  5  9  1  0  0  0  0
  6  7  1  0  0  0  0
  7  8  1  0  0  0  0
  7 10  2  3  0  0  0
  8  9  2  0  0  0  0
 10 14  1  0  0  0  0
 11 12  1  0  0  0  0
 11 13  1  0  0  0  0
 11 26  2  0  0  0  0
 12 28  1  0  0  0  0
 13 27  1  0  0  0  0
 14 15  2  0  0  0  0
 14 19  1  0  0  0  0
 15 16  1  0  0  0  0
 16 17  2  0  0  0  0
 17 18  1  0  0  0  0
 17 20  1  0  0  0  0
 18 19  2  0  0  0  0
 20 21  2  0  0  0  0
 20 24  1  0  0  0  0
 21 22  1  0  0  0  0
 22 23  1  0  0  0  0
 22 25  1  0  0  0  0
 23 24  2  0  0  0  0
 27 28  1  0  0  0  0
  2 29  1  0  0  0  0
  2 30  1  0  0  0  0
  3 31  1  0  0  0  0
  4 32  1  0  0  0  0
  6 33  1  0  0  0  0
 10 34  1  0  0  0  0
 12 35  1  0  0  0  0
 12 36  1  0  0  0  0
 15 37  1  0  0  0  0
 16 38  1  0  0  0  0
 18 39  1  0  0  0  0
 19 40  1  0  0  0  0
 21 41  1  0  0  0  0
 24 42  1  0  0  0  0
 25 43  1  0  0  0  0
 25 44  1  0  0  0  0
 25 45  1  0  0  0  0
 27 46  1  0  0  0  0
 27 47  1  0  0  0  0
 28 48  1  0  0  0  0
 28 49  1  0  0  0  0
M  END
> <Name>
26

> <IC50[uM]>
0.036

$$$$
26
  -OEChem-05192314333D
 Structure written by MMmdl.
 49 53  0     1  0  0  0  0  0999 V2000
   -6.3961   12.3155  -12.0234 C   0  0  3  0  0  0  0  0  0  0  0  0
   -6.5478   11.7864  -10.7392 C   0  0  0  0  0  0  0  0  0  0  0  0
   -7.7431   10.5278  -13.0269 C   0  0  0  0  0  0  0  0  0  0  0  0
   -7.0034   11.6993  -13.1368 C   0  0  0  0  0  0  0  0  0  0  0  0
   -7.8411    9.9886  -11.7443 C   0  0  0  0  0  0  0  0  0  0  0  0
   -7.2672   10.6062  -10.5986 C   0  0  0  0  0  0  0  0  0  0  0  0
   -7.6276    9.7408   -9.5022 C   0  0  0  0  0  0  0  0  0  0  0  0
   -8.2893    8.7195   -9.9713 N   0  0  0  0  0  0  0  0  0  0  0  0
   -8.4361    8.8492  -11.2847 N   0  0  0  0  0  0  0  0  0  0  0  0
   -7.3404    9.8857   -8.0208 C   0  0  0  0  0  0  0  0  0  0  0  0
   -5.4704   14.2158  -13.3316 C   0  0  0  0  0  0  0  0  0  0  0  0
   -4.5218   15.3458  -13.0035 C   0  0  0  0  0  0  0  0  0  0  0  0
   -5.5814   13.4696  -12.1774 N   0  0  0  0  0  0  0  0  0  0  0  0
   -5.9630   10.4847   -7.7359 C   0  0  0  0  0  0  0  0  0  0  0  0
   -5.8538   11.7563   -7.1621 C   0  0  0  0  0  0  0  0  0  0  0  0
   -4.5953   12.3060   -6.9160 C   0  0  0  0  0  0  0  0  0  0  0  0
   -3.4449   11.5852   -7.2379 C   0  0  0  0  0  0  0  0  0  0  0  0
   -3.5560   10.3115   -7.8043 C   0  0  0  0  0  0  0  0  0  0  0  0
   -4.8130    9.7655   -8.0531 C   0  0  0  0  0  0  0  0  0  0  0  0
   -2.0905   12.1634   -6.9778 C   0  0  0  0  0  0  0  0  0  0  0  0
   -1.7398   13.4211   -6.5005 C   0  0  0  0  0  0  0  0  0  0  0  0
   -0.4007   13.4556   -6.4362 N   0  0  0  0  0  0  0  0  0  0  0  0
    0.1858   12.3500   -6.8082 N   0  0  0  0  0  0  0  0  0  0  0  0
   -0.8018   11.5473   -7.1675 C   0  0  0  0  0  0  0  0  0  0  0  0
    0.4333   14.5672   -6.0053 C   0  0  0  0  0  0  0  0  0  0  0  0
   -6.0131   14.0330  -14.4162 O   0  0  0  0  0  0  0  0  0  0  0  0
   -4.6790   13.9767  -11.1295 C   0  0  0  0  0  0  0  0  0  0  0  0
   -4.0830   15.2556  -11.5883 C   0  0  0  0  0  0  0  0  0  0  0  0
   -7.2833   12.9493  -11.8778 H   0  0  0  0  0  0  0  0  0  0  0  0
   -5.5392   11.6037  -10.3400 H   0  0  0  0  0  0  0  0  0  0  0  0
   -7.0511   12.5504  -10.1285 H   0  0  0  0  0  0  0  0  0  0  0  0
   -8.2128   10.0638  -13.8816 H   0  0  0  0  0  0  0  0  0  0  0  0
   -6.8897   12.1539  -14.1098 H   0  0  0  0  0  0  0  0  0  0  0  0
   -8.0363    9.5960   -7.2473 H   0  0  0  0  0  0  0  0  0  0  0  0
   -3.6420   15.2835  -13.6609 H   0  0  0  0  0  0  0  0  0  0  0  0
   -5.0325   16.3067  -13.1645 H   0  0  0  0  0  0  0  0  0  0  0  0
   -6.7444   12.3126   -6.9096 H   0  0  0  0  0  0  0  0  0  0  0  0
   -4.5117   13.2890   -6.4765 H   0  0  0  0  0  0  0  0  0  0  0  0
   -2.6662    9.7505   -8.0491 H   0  0  0  0  0  0  0  0  0  0  0  0
   -4.8962    8.7826   -8.4928 H   0  0  0  0  0  0  0  0  0  0  0  0
   -2.4169   14.2186   -6.2325 H   0  0  0  0  0  0  0  0  0  0  0  0
   -0.6596   10.5498   -7.5564 H   0  0  0  0  0  0  0  0  0  0  0  0
    1.4925   14.2769   -6.0668 H   0  0  0  0  0  0  0  0  0  0  0  0
    0.2526   15.4350   -6.6567 H   0  0  0  0  0  0  0  0  0  0  0  0
    0.1851   14.8305   -4.9665 H   0  0  0  0  0  0  0  0  0  0  0  0
   -5.2469   14.1452  -10.2026 H   0  0  0  0  0  0  0  0  0  0  0  0
   -3.8809   13.2432  -10.9424 H   0  0  0  0  0  0  0  0  0  0  0  0
   -2.9857   15.2276  -11.5166 H   0  0  0  0  0  0  0  0  0  0  0  0
   -4.4673   16.1029  -11.0014 H   0  0  0  0  0  0  0  0  0  0  0  0
  1  2  1  0  0  0  0
  1  4  1  0  0  0  0
  1 13  1  0  0  0  0
  2  6  1  0  0  0  0
  3  4  2  0  0  0  0
  3  5  1  0  0  0  0
  5  6  2  0  0  0  0
  5  9  1  0  0  0  0
  6  7  1  0  0  0  0
  7  8  1  0  0  0  0
  7 10  2  3  0  0  0
  8  9  2  0  0  0  0
 10 14  1  0  0  0  0
 11 12  1  0  0  0  0
 11 13  1  0  0  0  0
 11 26  2  0  0  0  0
 12 28  1  0  0  0  0
 13 27  1  0  0  0  0
 14 15  2  0  0  0  0
 14 19  1  0  0  0  0
 15 16  1  0  0  0  0
 16 17  2  0  0  0  0
 17 18  1  0  0  0  0
 17 20  1  0  0  0  0
 18 19  2  0  0  0  0
 20 21  2  0  0  0  0
 20 24  1  0  0  0  0
 21 22  1  0  0  0  0
 22 23  1  0  0  0  0
 22 25  1  0  0  0  0
 23 24  2  0  0  0  0
 27 28  1  0  0  0  0
  1 29  1  0  0  0  0
  2 30  1  0  0  0  0
  2 31  1  0  0  0  0
  3 32  1  0  0  0  0
  4 33  1  0  0  0  0
 10 34  1  0  0  0  0
 12 35  1  0  0  0  0
 12 36  1  0  0  0  0
 15 37  1  0  0  0  0
 16 38  1  0  0  0  0
 18 39  1  0  0  0  0
 19 40  1  0  0  0  0
 21 41  1  0  0  0  0
 24 42  1  0  0  0  0
 25 43  1  0  0  0  0
 25 44  1  0  0  0  0
 25 45  1  0  0  0  0
 27 46  1  0  0  0  0
 27 47  1  0  0  0  0
 28 48  1  0  0  0  0
 28 49  1  0  0  0  0
M  END
> <Name>
26

> <IC50[uM]>
0.036

$$$$
26
  -OEChem-05192314333D
 Structure written by MMmdl.
 49 53  0     0  0  0  0  0  0999 V2000
   -6.3961   12.3155  -12.0234 C   0  0  0  0  0  0  0  0  0  0  0  0
   -6.5478   11.7864  -10.7392 C   0  0  0  0  0  0  0  0  0  0  0  0
   -7.7431   10.5278  -13.0269 C   0  0  0  0  0  0  0  0  0  0  0  0
   -7.0034   11.6993  -13.1368 C   0  0  0  0  0  0  0  0  0  0  0  0
   -7.8411    9.9886  -11.7443 C   0  0  0  0  0  0  0  0  0  0  0  0
   -7.2672   10.6062  -10.5986 C   0  0  0  0  0  0  0  0  0  0  0  0
   -7.6276    9.7408   -9.5022 C   0  0  0  0  0  0  0  0  0  0  0  0
   -8.2893    8.7195   -9.9713 N   0  0  0  0  0  0  0  0  0  0  0  0
   -8.4361    8.8492  -11.2847 N   0  0  0  0  0  0  0  0  0  0  0  0
   -7.3404    9.8857   -8.0208 C   0  0  0  0  0  0  0  0  0  0  0  0
   -5.4704   14.2158  -13.3316 C   0  0  0  0  0  0  0  0  0  0  0  0
   -4.5218   15.3458  -13.0035 C   0  0  0  0  0  0  0  0  0  0  0  0
   -5.5814   13.4696  -12.1774 N   0  0  0  0  0  0  0  0  0  0  0  0
   -5.9630   10.4847   -7.7359 C   0  0  0  0  0  0  0  0  0  0  0  0
   -5.8538   11.7563   -7.1621 C   0  0  0  0  0  0  0  0  0  0  0  0
   -4.5953   12.3060   -6.9160 C   0  0  0  0  0  0  0  0  0  0  0  0
   -3.4449   11.5852   -7.2379 C   0  0  0  0  0  0  0  0  0  0  0  0
   -3.5560   10.3115   -7.8043 C   0  0  0  0  0  0  0  0  0  0  0  0
   -4.8130    9.7655   -8.0531 C   0  0  0  0  0  0  0  0  0  0  0  0
   -2.0905   12.1634   -6.9778 C   0  0  0  0  0  0  0  0  0  0  0  0
   -1.7398   13.4211   -6.5005 C   0  0  0  0  0  0  0  0  0  0  0  0
   -0.4007   13.4556   -6.4362 N   0  0  0  0  0  0  0  0  0  0  0  0
    0.1858   12.3500   -6.8082 N   0  0  0  0  0  0  0  0  0  0  0  0
   -0.8018   11.5473   -7.1675 C   0  0  0  0  0  0  0  0  0  0  0  0
    0.4333   14.5672   -6.0053 C   0  0  0  0  0  0  0  0  0  0  0  0
   -6.0131   14.0330  -14.4162 O   0  0  0  0  0  0  0  0  0  0  0  0
   -4.6790   13.9767  -11.1295 C   0  0  0  0  0  0  0  0  0  0  0  0
   -4.0830   15.2556  -11.5883 C   0  0  0  0  0  0  0  0  0  0  0  0
   -5.5392   11.6037  -10.3400 H   0  0  0  0  0  0  0  0  0  0  0  0
   -7.0511   12.5504  -10.1285 H   0  0  0  0  0  0  0  0  0  0  0  0
   -8.7624   10.7378  -13.3832 H   0  0  0  0  0  0  0  0  0  0  0  0
   -7.2763    9.7721  -13.6757 H   0  0  0  0  0  0  0  0  0  0  0  0
   -6.8897   12.1539  -14.1098 H   0  0  0  0  0  0  0  0  0  0  0  0
   -8.0363    9.5960   -7.2473 H   0  0  0  0  0  0  0  0  0  0  0  0
   -3.6420   15.2835  -13.6609 H   0  0  0  0  0  0  0  0  0  0  0  0
   -5.0325   16.3067  -13.1645 H   0  0  0  0  0  0  0  0  0  0  0  0
   -6.7444   12.3126   -6.9096 H   0  0  0  0  0  0  0  0  0  0  0  0
   -4.5117   13.2890   -6.4765 H   0  0  0  0  0  0  0  0  0  0  0  0
   -2.6662    9.7505   -8.0491 H   0  0  0  0  0  0  0  0  0  0  0  0
   -4.8962    8.7826   -8.4928 H   0  0  0  0  0  0  0  0  0  0  0  0
   -2.4169   14.2186   -6.2325 H   0  0  0  0  0  0  0  0  0  0  0  0
   -0.6596   10.5498   -7.5564 H   0  0  0  0  0  0  0  0  0  0  0  0
    1.4925   14.2769   -6.0668 H   0  0  0  0  0  0  0  0  0  0  0  0
    0.2526   15.4350   -6.6567 H   0  0  0  0  0  0  0  0  0  0  0  0
    0.1851   14.8305   -4.9665 H   0  0  0  0  0  0  0  0  0  0  0  0
   -5.2469   14.1452  -10.2026 H   0  0  0  0  0  0  0  0  0  0  0  0
   -3.8809   13.2432  -10.9424 H   0  0  0  0  0  0  0  0  0  0  0  0
   -2.9857   15.2276  -11.5166 H   0  0  0  0  0  0  0  0  0  0  0  0
   -4.4673   16.1029  -11.0014 H   0  0  0  0  0  0  0  0  0  0  0  0
  1  2  1  0  0  0  0
  1  4  2  0  0  0  0
  1 13  1  0  0  0  0
  2  6  1  0  0  0  0
  3  4  1  0  0  0  0
  3  5  1  0  0  0  0
  5  6  2  0  0  0  0
  5  9  1  0  0  0  0
  6  7  1  0  0  0  0
  7  8  1  0  0  0  0
  7 10  2  3  0  0  0
  8  9  2  0  0  0  0
 10 14  1  0  0  0  0
 11 12  1  0  0  0  0
 11 13  1  0  0  0  0
 11 26  2  0  0  0  0
 12 28  1  0  0  0  0
 13 27  1  0  0  0  0
 14 15  2  0  0  0  0
 14 19  1  0  0  0  0
 15 16  1  0  0  0  0
 16 17  2  0  0  0  0
 17 18  1  0  0  0  0
 17 20  1  0  0  0  0
 18 19  2  0  0  0  0
 20 21  2  0  0  0  0
 20 24  1  0  0  0  0
 21 22  1  0  0  0  0
 22 23  1  0  0  0  0
 22 25  1  0  0  0  0
 23 24  2  0  0  0  0
 27 28  1  0  0  0  0
  2 29  1  0  0  0  0
  2 30  1  0  0  0  0
  3 31  1  0  0  0  0
  3 32  1  0  0  0  0
  4 33  1  0  0  0  0
 10 34  1  0  0  0  0
 12 35  1  0  0  0  0
 12 36  1  0  0  0  0
 15 37  1  0  0  0  0
 16 38  1  0  0  0  0
 18 39  1  0  0  0  0
 19 40  1  0  0  0  0
 21 41  1  0  0  0  0
 24 42  1  0  0  0  0
 25 43  1  0  0  0  0
 25 44  1  0  0  0  0
 25 45  1  0  0  0  0
 27 46  1  0  0  0  0
 27 47  1  0  0  0  0
 28 48  1  0  0  0  0
 28 49  1  0  0  0  0
M  END
> <Name>
26

> <IC50[uM]>
0.036

$$$$
26
  -OEChem-05192314333D
 Structure written by MMmdl.
 49 53  0     1  0  0  0  0  0999 V2000
   -6.3961   12.3155  -12.0234 C   0  0  0  0  0  0  0  0  0  0  0  0
   -6.5478   11.7864  -10.7392 C   0  0  0  0  0  0  0  0  0  0  0  0
   -7.7431   10.5278  -13.0269 C   0  0  0  0  0  0  0  0  0  0  0  0
   -7.0034   11.6993  -13.1368 C   0  0  0  0  0  0  0  0  0  0  0  0
   -7.8411    9.9886  -11.7443 C   0  0  3  0  0  0  0  0  0  0  0  0
   -7.2672   10.6062  -10.5986 C   0  0  0  0  0  0  0  0  0  0  0  0
   -7.6276    9.7408   -9.5022 C   0  0  0  0  0  0  0  0  0  0  0  0
   -8.2893    8.7195   -9.9713 N   0  0  0  0  0  0  0  0  0  0  0  0
   -8.4361    8.8492  -11.2847 N   0  0  0  0  0  0  0  0  0  0  0  0
   -7.3404    9.8857   -8.0208 C   0  0  0  0  0  0  0  0  0  0  0  0
   -5.4704   14.2158  -13.3316 C   0  0  0  0  0  0  0  0  0  0  0  0
   -4.5218   15.3458  -13.0035 C   0  0  0  0  0  0  0  0  0  0  0  0
   -5.5814   13.4696  -12.1774 N   0  0  0  0  0  0  0  0  0  0  0  0
   -5.9630   10.4847   -7.7359 C   0  0  0  0  0  0  0  0  0  0  0  0
   -5.8538   11.7563   -7.1621 C   0  0  0  0  0  0  0  0  0  0  0  0
   -4.5953   12.3060   -6.9160 C   0  0  0  0  0  0  0  0  0  0  0  0
   -3.4449   11.5852   -7.2379 C   0  0  0  0  0  0  0  0  0  0  0  0
   -3.5560   10.3115   -7.8043 C   0  0  0  0  0  0  0  0  0  0  0  0
   -4.8130    9.7655   -8.0531 C   0  0  0  0  0  0  0  0  0  0  0  0
   -2.0905   12.1634   -6.9778 C   0  0  0  0  0  0  0  0  0  0  0  0
   -1.7398   13.4211   -6.5005 C   0  0  0  0  0  0  0  0  0  0  0  0
   -0.4007   13.4556   -6.4362 N   0  0  0  0  0  0  0  0  0  0  0  0
    0.1858   12.3500   -6.8082 N   0  0  0  0  0  0  0  0  0  0  0  0
   -0.8018   11.5473   -7.1675 C   0  0  0  0  0  0  0  0  0  0  0  0
    0.4333   14.5672   -6.0053 C   0  0  0  0  0  0  0  0  0  0  0  0
   -6.0131   14.0330  -14.4162 O   0  0  0  0  0  0  0  0  0  0  0  0
   -4.6790   13.9767  -11.1295 C   0  0  0  0  0  0  0  0  0  0  0  0
   -4.0830   15.2556  -11.5883 C   0  0  0  0  0  0  0  0  0  0  0  0
   -6.1181   12.2807   -9.8804 H   0  0  0  0  0  0  0  0  0  0  0  0
   -8.2128   10.0638  -13.8816 H   0  0  0  0  0  0  0  0  0  0  0  0
   -6.8897   12.1539  -14.1098 H   0  0  0  0  0  0  0  0  0  0  0  0
   -8.7752   10.5456  -11.5792 H   0  0  0  0  0  0  0  0  0  0  0  0
   -8.1057   10.5398   -7.5776 H   0  0  0  0  0  0  0  0  0  0  0  0
   -7.3935    8.8909   -7.5544 H   0  0  0  0  0  0  0  0  0  0  0  0
   -3.6420   15.2835  -13.6609 H   0  0  0  0  0  0  0  0  0  0  0  0
   -5.0325   16.3067  -13.1645 H   0  0  0  0  0  0  0  0  0  0  0  0
   -6.7444   12.3126   -6.9096 H   0  0  0  0  0  0  0  0  0  0  0  0
   -4.5117   13.2890   -6.4765 H   0  0  0  0  0  0  0  0  0  0  0  0
   -2.6662    9.7505   -8.0491 H   0  0  0  0  0  0  0  0  0  0  0  0
   -4.8962    8.7826   -8.4928 H   0  0  0  0  0  0  0  0  0  0  0  0
   -2.4169   14.2186   -6.2325 H   0  0  0  0  0  0  0  0  0  0  0  0
   -0.6596   10.5498   -7.5564 H   0  0  0  0  0  0  0  0  0  0  0  0
    1.4925   14.2769   -6.0668 H   0  0  0  0  0  0  0  0  0  0  0  0
    0.2526   15.4350   -6.6567 H   0  0  0  0  0  0  0  0  0  0  0  0
    0.1851   14.8305   -4.9665 H   0  0  0  0  0  0  0  0  0  0  0  0
   -5.2469   14.1452  -10.2026 H   0  0  0  0  0  0  0  0  0  0  0  0
   -3.8809   13.2432  -10.9424 H   0  0  0  0  0  0  0  0  0  0  0  0
   -2.9857   15.2276  -11.5166 H   0  0  0  0  0  0  0  0  0  0  0  0
   -4.4673   16.1029  -11.0014 H   0  0  0  0  0  0  0  0  0  0  0  0
  1  2  2  0  0  0  0
  1  4  1  0  0  0  0
  1 13  1  0  0  0  0
  2  6  1  0  0  0  0
  3  4  2  0  0  0  0
  3  5  1  0  0  0  0
  5  6  1  0  0  0  0
  5  9  1  0  0  0  0
  6  7  2  0  0  0  0
  7  8  1  0  0  0  0
  7 10  1  0  0  0  0
  8  9  2  0  0  0  0
 10 14  1  0  0  0  0
 11 12  1  0  0  0  0
 11 13  1  0  0  0  0
 11 26  2  0  0  0  0
 12 28  1  0  0  0  0
 13 27  1  0  0  0  0
 14 15  2  0  0  0  0
 14 19  1  0  0  0  0
 15 16  1  0  0  0  0
 16 17  2  0  0  0  0
 17 18  1  0  0  0  0
 17 20  1  0  0  0  0
 18 19  2  0  0  0  0
 20 21  2  0  0  0  0
 20 24  1  0  0  0  0
 21 22  1  0  0  0  0
 22 23  1  0  0  0  0
 22 25  1  0  0  0  0
 23 24  2  0  0  0  0
 27 28  1  0  0  0  0
  2 29  1  0  0  0  0
  3 30  1  0  0  0  0
  4 31  1  0  0  0  0
  5 32  1  0  0  0  0
 10 33  1  0  0  0  0
 10 34  1  0  0  0  0
 12 35  1  0  0  0  0
 12 36  1  0  0  0  0
 15 37  1  0  0  0  0
 16 38  1  0  0  0  0
 18 39  1  0  0  0  0
 19 40  1  0  0  0  0
 21 41  1  0  0  0  0
 24 42  1  0  0  0  0
 25 43  1  0  0  0  0
 25 44  1  0  0  0  0
 25 45  1  0  0  0  0
 27 46  1  0  0  0  0
 27 47  1  0  0  0  0
 28 48  1  0  0  0  0
 28 49  1  0  0  0  0
M  END
> <Name>
26

> <IC50[uM]>
0.036

$$$$
26
  -OEChem-05192314333D
 Structure written by MMmdl.
 49 53  0     0  0  0  0  0  0999 V2000
   -6.3961   12.3155  -12.0234 C   0  0  0  0  0  0  0  0  0  0  0  0
   -6.5478   11.7864  -10.7392 C   0  0  0  0  0  0  0  0  0  0  0  0
   -7.7431   10.5278  -13.0269 C   0  0  0  0  0  0  0  0  0  0  0  0
   -7.0034   11.6993  -13.1368 C   0  0  0  0  0  0  0  0  0  0  0  0
   -7.8411    9.9886  -11.7443 C   0  0  0  0  0  0  0  0  0  0  0  0
   -7.2672   10.6062  -10.5986 C   0  0  0  0  0  0  0  0  0  0  0  0
   -7.6276    9.7408   -9.5022 C   0  0  0  0  0  0  0  0  0  0  0  0
   -8.2893    8.7195   -9.9713 N   0  0  0  0  0  0  0  0  0  0  0  0
   -8.4361    8.8492  -11.2847 N   0  0  0  0  0  0  0  0  0  0  0  0
   -7.3404    9.8857   -8.0208 C   0  0  0  0  0  0  0  0  0  0  0  0
   -5.4704   14.2158  -13.3316 C   0  0  0  0  0  0  0  0  0  0  0  0
   -4.5218   15.3458  -13.0035 C   0  0  0  0  0  0  0  0  0  0  0  0
   -5.5814   13.4696  -12.1774 N   0  0  0  0  0  0  0  0  0  0  0  0
   -5.9630   10.4847   -7.7359 C   0  0  0  0  0  0  0  0  0  0  0  0
   -5.8538   11.7563   -7.1621 C   0  0  0  0  0  0  0  0  0  0  0  0
   -4.5953   12.3060   -6.9160 C   0  0  0  0  0  0  0  0  0  0  0  0
   -3.4449   11.5852   -7.2379 C   0  0  0  0  0  0  0  0  0  0  0  0
   -3.5560   10.3115   -7.8043 C   0  0  0  0  0  0  0  0  0  0  0  0
   -4.8130    9.7655   -8.0531 C   0  0  0  0  0  0  0  0  0  0  0  0
   -2.0905   12.1634   -6.9778 C   0  0  0  0  0  0  0  0  0  0  0  0
   -1.7398   13.4211   -6.5005 C   0  0  0  0  0  0  0  0  0  0  0  0
   -0.4007   13.4556   -6.4362 N   0  0  0  0  0  0  0  0  0  0  0  0
    0.1858   12.3500   -6.8082 N   0  0  0  0  0  0  0  0  0  0  0  0
   -0.8018   11.5473   -7.1675 C   0  0  0  0  0  0  0  0  0  0  0  0
    0.4333   14.5672   -6.0053 C   0  0  0  0  0  0  0  0  0  0  0  0
   -6.0131   14.0330  -14.4162 O   0  0  0  0  0  0  0  0  0  0  0  0
   -4.6790   13.9767  -11.1295 C   0  0  0  0  0  0  0  0  0  0  0  0
   -4.0830   15.2556  -11.5883 C   0  0  0  0  0  0  0  0  0  0  0  0
   -6.1181   12.2807   -9.8804 H   0  0  0  0  0  0  0  0  0  0  0  0
   -8.2128   10.0638  -13.8816 H   0  0  0  0  0  0  0  0  0  0  0  0
   -7.6809   12.4497  -13.5703 H   0  0  0  0  0  0  0  0  0  0  0  0
   -6.1921   11.4836  -13.8477 H   0  0  0  0  0  0  0  0  0  0  0  0
   -8.1057   10.5398   -7.5776 H   0  0  0  0  0  0  0  0  0  0  0  0
   -7.3935    8.8909   -7.5544 H   0  0  0  0  0  0  0  0  0  0  0  0
   -3.6420   15.2835  -13.6609 H   0  0  0  0  0  0  0  0  0  0  0  0
   -5.0325   16.3067  -13.1645 H   0  0  0  0  0  0  0  0  0  0  0  0
   -6.7444   12.3126   -6.9096 H   0  0  0  0  0  0  0  0  0  0  0  0
   -4.5117   13.2890   -6.4765 H   0  0  0  0  0  0  0  0  0  0  0  0
   -2.6662    9.7505   -8.0491 H   0  0  0  0  0  0  0  0  0  0  0  0
   -4.8962    8.7826   -8.4928 H   0  0  0  0  0  0  0  0  0  0  0  0
   -2.4169   14.2186   -6.2325 H   0  0  0  0  0  0  0  0  0  0  0  0
   -0.6596   10.5498   -7.5564 H   0  0  0  0  0  0  0  0  0  0  0  0
    1.4925   14.2769   -6.0668 H   0  0  0  0  0  0  0  0  0  0  0  0
    0.2526   15.4350   -6.6567 H   0  0  0  0  0  0  0  0  0  0  0  0
    0.1851   14.8305   -4.9665 H   0  0  0  0  0  0  0  0  0  0  0  0
   -5.2469   14.1452  -10.2026 H   0  0  0  0  0  0  0  0  0  0  0  0
   -3.8809   13.2432  -10.9424 H   0  0  0  0  0  0  0  0  0  0  0  0
   -2.9857   15.2276  -11.5166 H   0  0  0  0  0  0  0  0  0  0  0  0
   -4.4673   16.1029  -11.0014 H   0  0  0  0  0  0  0  0  0  0  0  0
  1  2  2  0  0  0  0
  1  4  1  0  0  0  0
  1 13  1  0  0  0  0
  2  6  1  0  0  0  0
  3  4  1  0  0  0  0
  3  5  2  0  0  0  0
  5  6  1  0  0  0  0
  5  9  1  0  0  0  0
  6  7  2  0  0  0  0
  7  8  1  0  0  0  0
  7 10  1  0  0  0  0
  8  9  2  0  0  0  0
 10 14  1  0  0  0  0
 11 12  1  0  0  0  0
 11 13  1  0  0  0  0
 11 26  2  0  0  0  0
 12 28  1  0  0  0  0
 13 27  1  0  0  0  0
 14 15  2  0  0  0  0
 14 19  1  0  0  0  0
 15 16  1  0  0  0  0
 16 17  2  0  0  0  0
 17 18  1  0  0  0  0
 17 20  1  0  0  0  0
 18 19  2  0  0  0  0
 20 21  2  0  0  0  0
 20 24  1  0  0  0  0
 21 22  1  0  0  0  0
 22 23  1  0  0  0  0
 22 25  1  0  0  0  0
 23 24  2  0  0  0  0
 27 28  1  0  0  0  0
  2 29  1  0  0  0  0
  3 30  1  0  0  0  0
  4 31  1  0  0  0  0
  4 32  1  0  0  0  0
 10 33  1  0  0  0  0
 10 34  1  0  0  0  0
 12 35  1  0  0  0  0
 12 36  1  0  0  0  0
 15 37  1  0  0  0  0
 16 38  1  0  0  0  0
 18 39  1  0  0  0  0
 19 40  1  0  0  0  0
 21 41  1  0  0  0  0
 24 42  1  0  0  0  0
 25 43  1  0  0  0  0
 25 44  1  0  0  0  0
 25 45  1  0  0  0  0
 27 46  1  0  0  0  0
 27 47  1  0  0  0  0
 28 48  1  0  0  0  0
 28 49  1  0  0  0  0
M  END
> <Name>
26

> <IC50[uM]>
0.036

$$$$
26
  -OEChem-05192314333D
 Structure written by MMmdl.
 49 53  0     0  0  0  0  0  0999 V2000
   -6.3961   12.3155  -12.0234 C   0  0  0  0  0  0  0  0  0  0  0  0
   -6.5478   11.7864  -10.7392 C   0  0  0  0  0  0  0  0  0  0  0  0
   -7.7431   10.5278  -13.0269 C   0  0  0  0  0  0  0  0  0  0  0  0
   -7.0034   11.6993  -13.1368 C   0  0  0  0  0  0  0  0  0  0  0  0
   -7.8411    9.9886  -11.7443 C   0  0  0  0  0  0  0  0  0  0  0  0
   -7.2672   10.6062  -10.5986 C   0  0  0  0  0  0  0  0  0  0  0  0
   -7.6276    9.7408   -9.5022 C   0  0  0  0  0  0  0  0  0  0  0  0
   -8.2893    8.7195   -9.9713 N   0  0  0  0  0  0  0  0  0  0  0  0
   -8.4361    8.8492  -11.2847 N   0  0  0  0  0  0  0  0  0  0  0  0
   -7.3404    9.8857   -8.0208 C   0  0  0  0  0  0  0  0  0  0  0  0
   -5.4704   14.2158  -13.3316 C   0  0  0  0  0  0  0  0  0  0  0  0
   -4.5218   15.3458  -13.0035 C   0  0  0  0  0  0  0  0  0  0  0  0
   -5.5814   13.4696  -12.1774 N   0  0  0  0  0  0  0  0  0  0  0  0
   -5.9630   10.4847   -7.7359 C   0  0  0  0  0  0  0  0  0  0  0  0
   -5.8538   11.7563   -7.1621 C   0  0  0  0  0  0  0  0  0  0  0  0
   -4.5953   12.3060   -6.9160 C   0  0  0  0  0  0  0  0  0  0  0  0
   -3.4449   11.5852   -7.2379 C   0  0  0  0  0  0  0  0  0  0  0  0
   -3.5560   10.3115   -7.8043 C   0  0  0  0  0  0  0  0  0  0  0  0
   -4.8130    9.7655   -8.0531 C   0  0  0  0  0  0  0  0  0  0  0  0
   -2.0905   12.1634   -6.9778 C   0  0  0  0  0  0  0  0  0  0  0  0
   -1.7398   13.4211   -6.5005 C   0  0  0  0  0  0  0  0  0  0  0  0
   -0.4007   13.4556   -6.4362 N   0  0  0  0  0  0  0  0  0  0  0  0
    0.1858   12.3500   -6.8082 N   0  0  0  0  0  0  0  0  0  0  0  0
   -0.8018   11.5473   -7.1675 C   0  0  0  0  0  0  0  0  0  0  0  0
    0.4333   14.5672   -6.0053 C   0  0  0  0  0  0  0  0  0  0  0  0
   -6.0131   14.0330  -14.4162 O   0  0  0  0  0  0  0  0  0  0  0  0
   -4.6790   13.9767  -11.1295 C   0  0  0  0  0  0  0  0  0  0  0  0
   -4.0830   15.2556  -11.5883 C   0  0  0  0  0  0  0  0  0  0  0  0
   -5.5392   11.6037  -10.3400 H   0  0  0  0  0  0  0  0  0  0  0  0
   -7.0511   12.5504  -10.1285 H   0  0  0  0  0  0  0  0  0  0  0  0
   -8.2128   10.0638  -13.8816 H   0  0  0  0  0  0  0  0  0  0  0  0
   -6.8897   12.1539  -14.1098 H   0  0  0  0  0  0  0  0  0  0  0  0
   -8.1057   10.5398   -7.5776 H   0  0  0  0  0  0  0  0  0  0  0  0
   -7.3935    8.8909   -7.5544 H   0  0  0  0  0  0  0  0  0  0  0  0
   -3.6420   15.2835  -13.6609 H   0  0  0  0  0  0  0  0  0  0  0  0
   -5.0325   16.3067  -13.1645 H   0  0  0  0  0  0  0  0  0  0  0  0
   -6.7444   12.3126   -6.9096 H   0  0  0  0  0  0  0  0  0  0  0  0
   -4.5117   13.2890   -6.4765 H   0  0  0  0  0  0  0  0  0  0  0  0
   -2.6662    9.7505   -8.0491 H   0  0  0  0  0  0  0  0  0  0  0  0
   -4.8962    8.7826   -8.4928 H   0  0  0  0  0  0  0  0  0  0  0  0
   -2.4169   14.2186   -6.2325 H   0  0  0  0  0  0  0  0  0  0  0  0
   -0.6596   10.5498   -7.5564 H   0  0  0  0  0  0  0  0  0  0  0  0
    1.4925   14.2769   -6.0668 H   0  0  0  0  0  0  0  0  0  0  0  0
    0.2526   15.4350   -6.6567 H   0  0  0  0  0  0  0  0  0  0  0  0
    0.1851   14.8305   -4.9665 H   0  0  0  0  0  0  0  0  0  0  0  0
   -5.2469   14.1452  -10.2026 H   0  0  0  0  0  0  0  0  0  0  0  0
   -3.8809   13.2432  -10.9424 H   0  0  0  0  0  0  0  0  0  0  0  0
   -2.9857   15.2276  -11.5166 H   0  0  0  0  0  0  0  0  0  0  0  0
   -4.4673   16.1029  -11.0014 H   0  0  0  0  0  0  0  0  0  0  0  0
  1  2  1  0  0  0  0
  1  4  2  0  0  0  0
  1 13  1  0  0  0  0
  2  6  1  0  0  0  0
  3  4  1  0  0  0  0
  3  5  2  0  0  0  0
  5  6  1  0  0  0  0
  5  9  1  0  0  0  0
  6  7  2  0  0  0  0
  7  8  1  0  0  0  0
  7 10  1  0  0  0  0
  8  9  2  0  0  0  0
 10 14  1  0  0  0  0
 11 12  1  0  0  0  0
 11 13  1  0  0  0  0
 11 26  2  0  0  0  0
 12 28  1  0  0  0  0
 13 27  1  0  0  0  0
 14 15  2  0  0  0  0
 14 19  1  0  0  0  0
 15 16  1  0  0  0  0
 16 17  2  0  0  0  0
 17 18  1  0  0  0  0
 17 20  1  0  0  0  0
 18 19  2  0  0  0  0
 20 21  2  0  0  0  0
 20 24  1  0  0  0  0
 21 22  1  0  0  0  0
 22 23  1  0  0  0  0
 22 25  1  0  0  0  0
 23 24  2  0  0  0  0
 27 28  1  0  0  0  0
  2 29  1  0  0  0  0
  2 30  1  0  0  0  0
  3 31  1  0  0  0  0
  4 32  1  0  0  0  0
 10 33  1  0  0  0  0
 10 34  1  0  0  0  0
 12 35  1  0  0  0  0
 12 36  1  0  0  0  0
 15 37  1  0  0  0  0
 16 38  1  0  0  0  0
 18 39  1  0  0  0  0
 19 40  1  0  0  0  0
 21 41  1  0  0  0  0
 24 42  1  0  0  0  0
 25 43  1  0  0  0  0
 25 44  1  0  0  0  0
 25 45  1  0  0  0  0
 27 46  1  0  0  0  0
 27 47  1  0  0  0  0
 28 48  1  0  0  0  0
 28 49  1  0  0  0  0
M  END
> <Name>
26

> <IC50[uM]>
0.036

$$$$
26
  -OEChem-05192314333D
 Structure written by MMmdl.
 49 53  0     1  0  0  0  0  0999 V2000
   -6.3961   12.3155  -12.0234 C   0  0  0  0  0  0  0  0  0  0  0  0
   -6.5478   11.7864  -10.7392 C   0  0  0  0  0  0  0  0  0  0  0  0
   -7.7431   10.5278  -13.0269 C   0  0  0  0  0  0  0  0  0  0  0  0
   -7.0034   11.6993  -13.1368 C   0  0  0  0  0  0  0  0  0  0  0  0
   -7.8411    9.9886  -11.7443 C   0  0  0  0  0  0  0  0  0  0  0  0
   -7.2672   10.6062  -10.5986 C   0  0  3  0  0  0  0  0  0  0  0  0
   -7.6276    9.7408   -9.5022 C   0  0  0  0  0  0  0  0  0  0  0  0
   -8.2893    8.7195   -9.9713 N   0  0  0  0  0  0  0  0  0  0  0  0
   -8.4361    8.8492  -11.2847 N   0  0  0  0  0  0  0  0  0  0  0  0
   -7.3404    9.8857   -8.0208 C   0  0  0  0  0  0  0  0  0  0  0  0
   -5.4704   14.2158  -13.3316 C   0  0  0  0  0  0  0  0  0  0  0  0
   -4.5218   15.3458  -13.0035 C   0  0  0  0  0  0  0  0  0  0  0  0
   -5.5814   13.4696  -12.1774 N   0  0  0  0  0  0  0  0  0  0  0  0
   -5.9630   10.4847   -7.7359 C   0  0  0  0  0  0  0  0  0  0  0  0
   -5.8538   11.7563   -7.1621 C   0  0  0  0  0  0  0  0  0  0  0  0
   -4.5953   12.3060   -6.9160 C   0  0  0  0  0  0  0  0  0  0  0  0
   -3.4449   11.5852   -7.2379 C   0  0  0  0  0  0  0  0  0  0  0  0
   -3.5560   10.3115   -7.8043 C   0  0  0  0  0  0  0  0  0  0  0  0
   -4.8130    9.7655   -8.0531 C   0  0  0  0  0  0  0  0  0  0  0  0
   -2.0905   12.1634   -6.9778 C   0  0  0  0  0  0  0  0  0  0  0  0
   -1.7398   13.4211   -6.5005 C   0  0  0  0  0  0  0  0  0  0  0  0
   -0.4007   13.4556   -6.4362 N   0  0  0  0  0  0  0  0  0  0  0  0
    0.1858   12.3500   -6.8082 N   0  0  0  0  0  0  0  0  0  0  0  0
   -0.8018   11.5473   -7.1675 C   0  0  0  0  0  0  0  0  0  0  0  0
    0.4333   14.5672   -6.0053 C   0  0  0  0  0  0  0  0  0  0  0  0
   -6.0131   14.0330  -14.4162 O   0  0  0  0  0  0  0  0  0  0  0  0
   -4.6790   13.9767  -11.1295 C   0  0  0  0  0  0  0  0  0  0  0  0
   -4.0830   15.2556  -11.5883 C   0  0  0  0  0  0  0  0  0  0  0  0
   -6.1181   12.2807   -9.8804 H   0  0  0  0  0  0  0  0  0  0  0  0
   -8.2128   10.0638  -13.8816 H   0  0  0  0  0  0  0  0  0  0  0  0
   -6.8897   12.1539  -14.1098 H   0  0  0  0  0  0  0  0  0  0  0  0
   -8.1901   11.1852  -10.4467 H   0  0  0  0  0  0  0  0  0  0  0  0
   -8.6335    7.9556   -9.4254 H   0  0  0  0  0  0  0  0  0  0  0  0
   -8.0363    9.5960   -7.2473 H   0  0  0  0  0  0  0  0  0  0  0  0
   -3.6420   15.2835  -13.6609 H   0  0  0  0  0  0  0  0  0  0  0  0
   -5.0325   16.3067  -13.1645 H   0  0  0  0  0  0  0  0  0  0  0  0
   -6.7444   12.3126   -6.9096 H   0  0  0  0  0  0  0  0  0  0  0  0
   -4.5117   13.2890   -6.4765 H   0  0  0  0  0  0  0  0  0  0  0  0
   -2.6662    9.7505   -8.0491 H   0  0  0  0  0  0  0  0  0  0  0  0
   -4.8962    8.7826   -8.4928 H   0  0  0  0  0  0  0  0  0  0  0  0
   -2.4169   14.2186   -6.2325 H   0  0  0  0  0  0  0  0  0  0  0  0
   -0.6596   10.5498   -7.5564 H   0  0  0  0  0  0  0  0  0  0  0  0
    1.4925   14.2769   -6.0668 H   0  0  0  0  0  0  0  0  0  0  0  0
    0.2526   15.4350   -6.6567 H   0  0  0  0  0  0  0  0  0  0  0  0
    0.1851   14.8305   -4.9665 H   0  0  0  0  0  0  0  0  0  0  0  0
   -5.2469   14.1452  -10.2026 H   0  0  0  0  0  0  0  0  0  0  0  0
   -3.8809   13.2432  -10.9424 H   0  0  0  0  0  0  0  0  0  0  0  0
   -2.9857   15.2276  -11.5166 H   0  0  0  0  0  0  0  0  0  0  0  0
   -4.4673   16.1029  -11.0014 H   0  0  0  0  0  0  0  0  0  0  0  0
  1  2  2  0  0  0  0
  1  4  1  0  0  0  0
  1 13  1  0  0  0  0
  2  6  1  0  0  0  0
  3  4  2  0  0  0  0
  3  5  1  0  0  0  0
  5  6  1  0  0  0  0
  5  9  2  0  0  0  0
  6  7  1  0  0  0  0
  7  8  1  0  0  0  0
  7 10  2  3  0  0  0
  8  9  1  0  0  0  0
 10 14  1  0  0  0  0
 11 12  1  0  0  0  0
 11 13  1  0  0  0  0
 11 26  2  0  0  0  0
 12 28  1  0  0  0  0
 13 27  1  0  0  0  0
 14 15  2  0  0  0  0
 14 19  1  0  0  0  0
 15 16  1  0  0  0  0
 16 17  2  0  0  0  0
 17 18  1  0  0  0  0
 17 20  1  0  0  0  0
 18 19  2  0  0  0  0
 20 21  2  0  0  0  0
 20 24  1  0  0  0  0
 21 22  1  0  0  0  0
 22 23  1  0  0  0  0
 22 25  1  0  0  0  0
 23 24  2  0  0  0  0
 27 28  1  0  0  0  0
  2 29  1  0  0  0  0
  3 30  1  0  0  0  0
  4 31  1  0  0  0  0
  6 32  1  0  0  0  0
  8 33  1  0  0  0  0
 10 34  1  0  0  0  0
 12 35  1  0  0  0  0
 12 36  1  0  0  0  0
 15 37  1  0  0  0  0
 16 38  1  0  0  0  0
 18 39  1  0  0  0  0
 19 40  1  0  0  0  0
 21 41  1  0  0  0  0
 24 42  1  0  0  0  0
 25 43  1  0  0  0  0
 25 44  1  0  0  0  0
 25 45  1  0  0  0  0
 27 46  1  0  0  0  0
 27 47  1  0  0  0  0
 28 48  1  0  0  0  0
 28 49  1  0  0  0  0
M  END
> <Name>
26

> <IC50[uM]>
0.036

$$$$
26
  -OEChem-05192314333D
 Structure written by MMmdl.
 49 53  0     1  0  0  0  0  0999 V2000
   -6.3961   12.3155  -12.0234 C   0  0  0  0  0  0  0  0  0  0  0  0
   -6.5478   11.7864  -10.7392 C   0  0  0  0  0  0  0  0  0  0  0  0
   -7.7431   10.5278  -13.0269 C   0  0  0  0  0  0  0  0  0  0  0  0
   -7.0034   11.6993  -13.1368 C   0  0  0  0  0  0  0  0  0  0  0  0
   -7.8411    9.9886  -11.7443 C   0  0  0  0  0  0  0  0  0  0  0  0
   -7.2672   10.6062  -10.5986 C   0  0  0  0  0  0  0  0  0  0  0  0
   -7.6276    9.7408   -9.5022 C   0  0  0  0  0  0  0  0  0  0  0  0
   -8.2893    8.7195   -9.9713 N   0  0  0  0  0  0  0  0  0  0  0  0
   -8.4361    8.8492  -11.2847 N   0  0  0  0  0  0  0  0  0  0  0  0
   -7.3404    9.8857   -8.0208 C   0  0  0  0  0  0  0  0  0  0  0  0
   -5.4704   14.2158  -13.3316 C   0  0  0  0  0  0  0  0  0  0  0  0
   -4.5218   15.3458  -13.0035 C   0  0  0  0  0  0  0  0  0  0  0  0
   -5.5814   13.4696  -12.1774 N   0  0  0  0  0  0  0  0  0  0  0  0
   -5.9630   10.4847   -7.7359 C   0  0  0  0  0  0  0  0  0  0  0  0
   -5.8538   11.7563   -7.1621 C   0  0  0  0  0  0  0  0  0  0  0  0
   -4.5953   12.3060   -6.9160 C   0  0  0  0  0  0  0  0  0  0  0  0
   -3.4449   11.5852   -7.2379 C   0  0  0  0  0  0  0  0  0  0  0  0
   -3.5560   10.3115   -7.8043 C   0  0  0  0  0  0  0  0  0  0  0  0
   -4.8130    9.7655   -8.0531 C   0  0  0  0  0  0  0  0  0  0  0  0
   -2.0905   12.1634   -6.9778 C   0  0  0  0  0  0  0  0  0  0  0  0
   -1.7398   13.4211   -6.5005 C   0  0  0  0  0  0  0  0  0  0  0  0
   -0.4007   13.4556   -6.4362 N   0  0  3  0  0  0  0  0  0  0  0  0
    0.1858   12.3500   -6.8082 N   0  0  0  0  0  0  0  0  0  0  0  0
   -0.8018   11.5473   -7.1675 C   0  0  0  0  0  0  0  0  0  0  0  0
    0.4333   14.5672   -6.0053 C   0  0  0  0  0  0  0  0  0  0  0  0
   -6.0131   14.0330  -14.4162 O   0  0  0  0  0  0  0  0  0  0  0  0
   -4.6790   13.9767  -11.1295 C   0  0  0  0  0  0  0  0  0  0  0  0
   -4.0830   15.2556  -11.5883 C   0  0  0  0  0  0  0  0  0  0  0  0
   -6.1181   12.2807   -9.8804 H   0  0  0  0  0  0  0  0  0  0  0  0
   -8.2128   10.0638  -13.8816 H   0  0  0  0  0  0  0  0  0  0  0  0
   -6.8897   12.1539  -14.1098 H   0  0  0  0  0  0  0  0  0  0  0  0
   -8.0363    9.5960   -7.2473 H   0  0  0  0  0  0  0  0  0  0  0  0
   -3.6420   15.2835  -13.6609 H   0  0  0  0  0  0  0  0  0  0  0  0
   -5.0325   16.3067  -13.1645 H   0  0  0  0  0  0  0  0  0  0  0  0
   -5.9717   10.0315   -6.7336 H   0  0  0  0  0  0  0  0  0  0  0  0
   -6.7444   12.3126   -6.9096 H   0  0  0  0  0  0  0  0  0  0  0  0
   -4.5117   13.2890   -6.4765 H   0  0  0  0  0  0  0  0  0  0  0  0
   -2.6662    9.7505   -8.0491 H   0  0  0  0  0  0  0  0  0  0  0  0
   -4.8962    8.7826   -8.4928 H   0  0  0  0  0  0  0  0  0  0  0  0
   -2.1055   14.2006   -7.1850 H   0  0  0  0  0  0  0  0  0  0  0  0
   -2.1704   13.5795   -5.5008 H   0  0  0  0  0  0  0  0  0  0  0  0
   -0.6596   10.5498   -7.5564 H   0  0  0  0  0  0  0  0  0  0  0  0
    1.4925   14.2769   -6.0668 H   0  0  0  0  0  0  0  0  0  0  0  0
    0.2526   15.4350   -6.6567 H   0  0  0  0  0  0  0  0  0  0  0  0
    0.1851   14.8305   -4.9665 H   0  0  0  0  0  0  0  0  0  0  0  0
   -5.2469   14.1452  -10.2026 H   0  0  0  0  0  0  0  0  0  0  0  0
   -3.8809   13.2432  -10.9424 H   0  0  0  0  0  0  0  0  0  0  0  0
   -2.9857   15.2276  -11.5166 H   0  0  0  0  0  0  0  0  0  0  0  0
   -4.4673   16.1029  -11.0014 H   0  0  0  0  0  0  0  0  0  0  0  0
  1  2  2  0  0  0  0
  1  4  1  0  0  0  0
  1 13  1  0  0  0  0
  2  6  1  0  0  0  0
  3  4  2  0  0  0  0
  3  5  1  0  0  0  0
  5  6  2  0  0  0  0
  5  9  1  0  0  0  0
  6  7  1  0  0  0  0
  7  8  1  0  0  0  0
  7 10  2  3  0  0  0
  8  9  2  0  0  0  0
 10 14  1  0  0  0  0
 11 12  1  0  0  0  0
 11 13  1  0  0  0  0
 11 26  2  0  0  0  0
 12 28  1  0  0  0  0
 13 27  1  0  0  0  0
 14 15  1  0  0  0  0
 14 19  1  0  0  0  0
 15 16  2  0  0  0  0
 16 17  1  0  0  0  0
 17 18  1  0  0  0  0
 17 20  2  0  0  0  0
 18 19  2  0  0  0  0
 20 21  1  0  0  0  0
 20 24  1  0  0  0  0
 21 22  1  0  0  0  0
 22 23  1  0  0  0  0
 22 25  1  0  0  0  0
 23 24  2  0  0  0  0
 27 28  1  0  0  0  0
  2 29  1  0  0  0  0
  3 30  1  0  0  0  0
  4 31  1  0  0  0  0
 10 32  1  0  0  0  0
 12 33  1  0  0  0  0
 12 34  1  0  0  0  0
 14 35  1  0  0  0  0
 15 36  1  0  0  0  0
 16 37  1  0  0  0  0
 18 38  1  0  0  0  0
 19 39  1  0  0  0  0
 21 40  1  0  0  0  0
 21 41  1  0  0  0  0
 24 42  1  0  0  0  0
 25 43  1  0  0  0  0
 25 44  1  0  0  0  0
 25 45  1  0  0  0  0
 27 46  1  0  0  0  0
 27 47  1  0  0  0  0
 28 48  1  0  0  0  0
 28 49  1  0  0  0  0
M  END
> <Name>
26

> <IC50[uM]>
0.036

$$$$
26
  -OEChem-05192314333D
 Structure written by MMmdl.
 49 53  0     1  0  0  0  0  0999 V2000
   -6.3961   12.3155  -12.0234 C   0  0  0  0  0  0  0  0  0  0  0  0
   -6.5478   11.7864  -10.7392 C   0  0  0  0  0  0  0  0  0  0  0  0
   -7.7431   10.5278  -13.0269 C   0  0  0  0  0  0  0  0  0  0  0  0
   -7.0034   11.6993  -13.1368 C   0  0  0  0  0  0  0  0  0  0  0  0
   -7.8411    9.9886  -11.7443 C   0  0  0  0  0  0  0  0  0  0  0  0
   -7.2672   10.6062  -10.5986 C   0  0  0  0  0  0  0  0  0  0  0  0
   -7.6276    9.7408   -9.5022 C   0  0  0  0  0  0  0  0  0  0  0  0
   -8.2893    8.7195   -9.9713 N   0  0  0  0  0  0  0  0  0  0  0  0
   -8.4361    8.8492  -11.2847 N   0  0  0  0  0  0  0  0  0  0  0  0
   -7.3404    9.8857   -8.0208 C   0  0  0  0  0  0  0  0  0  0  0  0
   -5.4704   14.2158  -13.3316 C   0  0  0  0  0  0  0  0  0  0  0  0
   -4.5218   15.3458  -13.0035 C   0  0  0  0  0  0  0  0  0  0  0  0
   -5.5814   13.4696  -12.1774 N   0  0  0  0  0  0  0  0  0  0  0  0
   -5.9630   10.4847   -7.7359 C   0  0  0  0  0  0  0  0  0  0  0  0
   -5.8538   11.7563   -7.1621 C   0  0  0  0  0  0  0  0  0  0  0  0
   -4.5953   12.3060   -6.9160 C   0  0  0  0  0  0  0  0  0  0  0  0
   -3.4449   11.5852   -7.2379 C   0  0  0  0  0  0  0  0  0  0  0  0
   -3.5560   10.3115   -7.8043 C   0  0  0  0  0  0  0  0  0  0  0  0
   -4.8130    9.7655   -8.0531 C   0  0  0  0  0  0  0  0  0  0  0  0
   -2.0905   12.1634   -6.9778 C   0  0  0  0  0  0  0  0  0  0  0  0
   -1.7398   13.4211   -6.5005 C   0  0  0  0  0  0  0  0  0  0  0  0
   -0.4007   13.4556   -6.4362 N   0  0  3  0  0  0  0  0  0  0  0  0
    0.1858   12.3500   -6.8082 N   0  0  0  0  0  0  0  0  0  0  0  0
   -0.8018   11.5473   -7.1675 C   0  0  0  0  0  0  0  0  0  0  0  0
    0.4333   14.5672   -6.0053 C   0  0  0  0  0  0  0  0  0  0  0  0
   -6.0131   14.0330  -14.4162 O   0  0  0  0  0  0  0  0  0  0  0  0
   -4.6790   13.9767  -11.1295 C   0  0  0  0  0  0  0  0  0  0  0  0
   -4.0830   15.2556  -11.5883 C   0  0  0  0  0  0  0  0  0  0  0  0
   -6.1181   12.2807   -9.8804 H   0  0  0  0  0  0  0  0  0  0  0  0
   -8.2128   10.0638  -13.8816 H   0  0  0  0  0  0  0  0  0  0  0  0
   -6.8897   12.1539  -14.1098 H   0  0  0  0  0  0  0  0  0  0  0  0
   -8.0363    9.5960   -7.2473 H   0  0  0  0  0  0  0  0  0  0  0  0
   -3.6420   15.2835  -13.6609 H   0  0  0  0  0  0  0  0  0  0  0  0
   -5.0325   16.3067  -13.1645 H   0  0  0  0  0  0  0  0  0  0  0  0
   -6.7444   12.3126   -6.9096 H   0  0  0  0  0  0  0  0  0  0  0  0
   -4.5459   13.2506   -7.4775 H   0  0  0  0  0  0  0  0  0  0  0  0
   -4.5463   12.5175   -5.8376 H   0  0  0  0  0  0  0  0  0  0  0  0
   -2.6662    9.7505   -8.0491 H   0  0  0  0  0  0  0  0  0  0  0  0
   -4.8962    8.7826   -8.4928 H   0  0  0  0  0  0  0  0  0  0  0  0
   -2.1055   14.2006   -7.1850 H   0  0  0  0  0  0  0  0  0  0  0  0
   -2.1704   13.5795   -5.5008 H   0  0  0  0  0  0  0  0  0  0  0  0
   -0.6596   10.5498   -7.5564 H   0  0  0  0  0  0  0  0  0  0  0  0
    1.4925   14.2769   -6.0668 H   0  0  0  0  0  0  0  0  0  0  0  0
    0.2526   15.4350   -6.6567 H   0  0  0  0  0  0  0  0  0  0  0  0
    0.1851   14.8305   -4.9665 H   0  0  0  0  0  0  0  0  0  0  0  0
   -5.2469   14.1452  -10.2026 H   0  0  0  0  0  0  0  0  0  0  0  0
   -3.8809   13.2432  -10.9424 H   0  0  0  0  0  0  0  0  0  0  0  0
   -2.9857   15.2276  -11.5166 H   0  0  0  0  0  0  0  0  0  0  0  0
   -4.4673   16.1029  -11.0014 H   0  0  0  0  0  0  0  0  0  0  0  0
  1  2  2  0  0  0  0
  1  4  1  0  0  0  0
  1 13  1  0  0  0  0
  2  6  1  0  0  0  0
  3  4  2  0  0  0  0
  3  5  1  0  0  0  0
  5  6  2  0  0  0  0
  5  9  1  0  0  0  0
  6  7  1  0  0  0  0
  7  8  1  0  0  0  0
  7 10  2  3  0  0  0
  8  9  2  0  0  0  0
 10 14  1  0  0  0  0
 11 12  1  0  0  0  0
 11 13  1  0  0  0  0
 11 26  2  0  0  0  0
 12 28  1  0  0  0  0
 13 27  1  0  0  0  0
 14 15  2  0  0  0  0
 14 19  1  0  0  0  0
 15 16  1  0  0  0  0
 16 17  1  0  0  0  0
 17 18  1  0  0  0  0
 17 20  2  0  0  0  0
 18 19  2  0  0  0  0
 20 21  1  0  0  0  0
 20 24  1  0  0  0  0
 21 22  1  0  0  0  0
 22 23  1  0  0  0  0
 22 25  1  0  0  0  0
 23 24  2  0  0  0  0
 27 28  1  0  0  0  0
  2 29  1  0  0  0  0
  3 30  1  0  0  0  0
  4 31  1  0  0  0  0
 10 32  1  0  0  0  0
 12 33  1  0  0  0  0
 12 34  1  0  0  0  0
 15 35  1  0  0  0  0
 16 36  1  0  0  0  0
 16 37  1  0  0  0  0
 18 38  1  0  0  0  0
 19 39  1  0  0  0  0
 21 40  1  0  0  0  0
 21 41  1  0  0  0  0
 24 42  1  0  0  0  0
 25 43  1  0  0  0  0
 25 44  1  0  0  0  0
 25 45  1  0  0  0  0
 27 46  1  0  0  0  0
 27 47  1  0  0  0  0
 28 48  1  0  0  0  0
 28 49  1  0  0  0  0
M  END
> <Name>
26

> <IC50[uM]>
0.036

$$$$
26
  -OEChem-05192314333D
 Structure written by MMmdl.
 49 53  0     1  0  0  0  0  0999 V2000
   -6.3961   12.3155  -12.0234 C   0  0  0  0  0  0  0  0  0  0  0  0
   -6.5478   11.7864  -10.7392 C   0  0  0  0  0  0  0  0  0  0  0  0
   -7.7431   10.5278  -13.0269 C   0  0  0  0  0  0  0  0  0  0  0  0
   -7.0034   11.6993  -13.1368 C   0  0  0  0  0  0  0  0  0  0  0  0
   -7.8411    9.9886  -11.7443 C   0  0  0  0  0  0  0  0  0  0  0  0
   -7.2672   10.6062  -10.5986 C   0  0  3  0  0  0  0  0  0  0  0  0
   -7.6276    9.7408   -9.5022 C   0  0  0  0  0  0  0  0  0  0  0  0
   -8.2893    8.7195   -9.9713 N   0  0  0  0  0  0  0  0  0  0  0  0
   -8.4361    8.8492  -11.2847 N   0  0  0  0  0  0  0  0  0  0  0  0
   -7.3404    9.8857   -8.0208 C   0  0  0  0  0  0  0  0  0  0  0  0
   -5.4704   14.2158  -13.3316 C   0  0  0  0  0  0  0  0  0  0  0  0
   -4.5218   15.3458  -13.0035 C   0  0  0  0  0  0  0  0  0  0  0  0
   -5.5814   13.4696  -12.1774 N   0  0  0  0  0  0  0  0  0  0  0  0
   -5.9630   10.4847   -7.7359 C   0  0  0  0  0  0  0  0  0  0  0  0
   -5.8538   11.7563   -7.1621 C   0  0  0  0  0  0  0  0  0  0  0  0
   -4.5953   12.3060   -6.9160 C   0  0  0  0  0  0  0  0  0  0  0  0
   -3.4449   11.5852   -7.2379 C   0  0  0  0  0  0  0  0  0  0  0  0
   -3.5560   10.3115   -7.8043 C   0  0  0  0  0  0  0  0  0  0  0  0
   -4.8130    9.7655   -8.0531 C   0  0  0  0  0  0  0  0  0  0  0  0
   -2.0905   12.1634   -6.9778 C   0  0  0  0  0  0  0  0  0  0  0  0
   -1.7398   13.4211   -6.5005 C   0  0  0  0  0  0  0  0  0  0  0  0
   -0.4007   13.4556   -6.4362 N   0  0  3  0  0  0  0  0  0  0  0  0
    0.1858   12.3500   -6.8082 N   0  0  0  0  0  0  0  0  0  0  0  0
   -0.8018   11.5473   -7.1675 C   0  0  0  0  0  0  0  0  0  0  0  0
    0.4333   14.5672   -6.0053 C   0  0  0  0  0  0  0  0  0  0  0  0
   -6.0131   14.0330  -14.4162 O   0  0  0  0  0  0  0  0  0  0  0  0
   -4.6790   13.9767  -11.1295 C   0  0  0  0  0  0  0  0  0  0  0  0
   -4.0830   15.2556  -11.5883 C   0  0  0  0  0  0  0  0  0  0  0  0
   -6.1181   12.2807   -9.8804 H   0  0  0  0  0  0  0  0  0  0  0  0
   -8.2128   10.0638  -13.8816 H   0  0  0  0  0  0  0  0  0  0  0  0
   -6.8897   12.1539  -14.1098 H   0  0  0  0  0  0  0  0  0  0  0  0
   -8.1901   11.1852  -10.4467 H   0  0  0  0  0  0  0  0  0  0  0  0
   -8.0363    9.5960   -7.2473 H   0  0  0  0  0  0  0  0  0  0  0  0
   -3.6420   15.2835  -13.6609 H   0  0  0  0  0  0  0  0  0  0  0  0
   -5.0325   16.3067  -13.1645 H   0  0  0  0  0  0  0  0  0  0  0  0
   -6.7444   12.3126   -6.9096 H   0  0  0  0  0  0  0  0  0  0  0  0
   -4.5117   13.2890   -6.4765 H   0  0  0  0  0  0  0  0  0  0  0  0
   -2.6662    9.7505   -8.0491 H   0  0  0  0  0  0  0  0  0  0  0  0
   -4.8962    8.7826   -8.4928 H   0  0  0  0  0  0  0  0  0  0  0  0
   -2.1055   14.2006   -7.1850 H   0  0  0  0  0  0  0  0  0  0  0  0
   -2.1704   13.5795   -5.5008 H   0  0  0  0  0  0  0  0  0  0  0  0
   -0.6596   10.5498   -7.5564 H   0  0  0  0  0  0  0  0  0  0  0  0
    1.4925   14.2769   -6.0668 H   0  0  0  0  0  0  0  0  0  0  0  0
    0.2526   15.4350   -6.6567 H   0  0  0  0  0  0  0  0  0  0  0  0
    0.1851   14.8305   -4.9665 H   0  0  0  0  0  0  0  0  0  0  0  0
   -5.2469   14.1452  -10.2026 H   0  0  0  0  0  0  0  0  0  0  0  0
   -3.8809   13.2432  -10.9424 H   0  0  0  0  0  0  0  0  0  0  0  0
   -2.9857   15.2276  -11.5166 H   0  0  0  0  0  0  0  0  0  0  0  0
   -4.4673   16.1029  -11.0014 H   0  0  0  0  0  0  0  0  0  0  0  0
  1  2  2  0  0  0  0
  1  4  1  0  0  0  0
  1 13  1  0  0  0  0
  2  6  1  0  0  0  0
  3  4  2  0  0  0  0
  3  5  1  0  0  0  0
  5  6  1  0  0  0  0
  5  9  2  0  0  0  0
  6  7  1  0  0  0  0
  7  8  2  0  0  0  0
  7 10  1  0  0  0  0
  8  9  1  0  0  0  0
 10 14  2  0  0  0  0
 11 12  1  0  0  0  0
 11 13  1  0  0  0  0
 11 26  2  0  0  0  0
 12 28  1  0  0  0  0
 13 27  1  0  0  0  0
 14 15  1  0  0  0  0
 14 19  1  0  0  0  0
 15 16  2  0  0  0  0
 16 17  1  0  0  0  0
 17 18  1  0  0  0  0
 17 20  2  0  0  0  0
 18 19  2  0  0  0  0
 20 21  1  0  0  0  0
 20 24  1  0  0  0  0
 21 22  1  0  0  0  0
 22 23  1  0  0  0  0
 22 25  1  0  0  0  0
 23 24  2  0  0  0  0
 27 28  1  0  0  0  0
  2 29  1  0  0  0  0
  3 30  1  0  0  0  0
  4 31  1  0  0  0  0
  6 32  1  0  0  0  0
 10 33  1  0  0  0  0
 12 34  1  0  0  0  0
 12 35  1  0  0  0  0
 15 36  1  0  0  0  0
 16 37  1  0  0  0  0
 18 38  1  0  0  0  0
 19 39  1  0  0  0  0
 21 40  1  0  0  0  0
 21 41  1  0  0  0  0
 24 42  1  0  0  0  0
 25 43  1  0  0  0  0
 25 44  1  0  0  0  0
 25 45  1  0  0  0  0
 27 46  1  0  0  0  0
 27 47  1  0  0  0  0
 28 48  1  0  0  0  0
 28 49  1  0  0  0  0
M  END
> <Name>
26

> <IC50[uM]>
0.036

$$$$
26
  -OEChem-05192314333D
 Structure written by MMmdl.
 49 53  0     1  0  0  0  0  0999 V2000
   -6.3961   12.3155  -12.0234 C   0  0  3  0  0  0  0  0  0  0  0  0
   -6.5478   11.7864  -10.7392 C   0  0  0  0  0  0  0  0  0  0  0  0
   -7.7431   10.5278  -13.0269 C   0  0  0  0  0  0  0  0  0  0  0  0
   -7.0034   11.6993  -13.1368 C   0  0  0  0  0  0  0  0  0  0  0  0
   -7.8411    9.9886  -11.7443 C   0  0  0  0  0  0  0  0  0  0  0  0
   -7.2672   10.6062  -10.5986 C   0  0  0  0  0  0  0  0  0  0  0  0
   -7.6276    9.7408   -9.5022 C   0  0  0  0  0  0  0  0  0  0  0  0
   -8.2893    8.7195   -9.9713 N   0  0  0  0  0  0  0  0  0  0  0  0
   -8.4361    8.8492  -11.2847 N   0  0  0  0  0  0  0  0  0  0  0  0
   -7.3404    9.8857   -8.0208 C   0  0  0  0  0  0  0  0  0  0  0  0
   -5.4704   14.2158  -13.3316 C   0  0  0  0  0  0  0  0  0  0  0  0
   -4.5218   15.3458  -13.0035 C   0  0  0  0  0  0  0  0  0  0  0  0
   -5.5814   13.4696  -12.1774 N   0  0  0  0  0  0  0  0  0  0  0  0
   -5.9630   10.4847   -7.7359 C   0  0  0  0  0  0  0  0  0  0  0  0
   -5.8538   11.7563   -7.1621 C   0  0  0  0  0  0  0  0  0  0  0  0
   -4.5953   12.3060   -6.9160 C   0  0  0  0  0  0  0  0  0  0  0  0
   -3.4449   11.5852   -7.2379 C   0  0  0  0  0  0  0  0  0  0  0  0
   -3.5560   10.3115   -7.8043 C   0  0  0  0  0  0  0  0  0  0  0  0
   -4.8130    9.7655   -8.0531 C   0  0  0  0  0  0  0  0  0  0  0  0
   -2.0905   12.1634   -6.9778 C   0  0  0  0  0  0  0  0  0  0  0  0
   -1.7398   13.4211   -6.5005 C   0  0  0  0  0  0  0  0  0  0  0  0
   -0.4007   13.4556   -6.4362 N   0  0  3  0  0  0  0  0  0  0  0  0
    0.1858   12.3500   -6.8082 N   0  0  0  0  0  0  0  0  0  0  0  0
   -0.8018   11.5473   -7.1675 C   0  0  0  0  0  0  0  0  0  0  0  0
    0.4333   14.5672   -6.0053 C   0  0  0  0  0  0  0  0  0  0  0  0
   -6.0131   14.0330  -14.4162 O   0  0  0  0  0  0  0  0  0  0  0  0
   -4.6790   13.9767  -11.1295 C   0  0  0  0  0  0  0  0  0  0  0  0
   -4.0830   15.2556  -11.5883 C   0  0  0  0  0  0  0  0  0  0  0  0
   -7.2833   12.9493  -11.8778 H   0  0  0  0  0  0  0  0  0  0  0  0
   -6.1181   12.2807   -9.8804 H   0  0  0  0  0  0  0  0  0  0  0  0
   -8.2128   10.0638  -13.8816 H   0  0  0  0  0  0  0  0  0  0  0  0
   -6.8897   12.1539  -14.1098 H   0  0  0  0  0  0  0  0  0  0  0  0
   -8.0363    9.5960   -7.2473 H   0  0  0  0  0  0  0  0  0  0  0  0
   -3.6420   15.2835  -13.6609 H   0  0  0  0  0  0  0  0  0  0  0  0
   -5.0325   16.3067  -13.1645 H   0  0  0  0  0  0  0  0  0  0  0  0
   -6.7444   12.3126   -6.9096 H   0  0  0  0  0  0  0  0  0  0  0  0
   -4.5117   13.2890   -6.4765 H   0  0  0  0  0  0  0  0  0  0  0  0
   -2.6662    9.7505   -8.0491 H   0  0  0  0  0  0  0  0  0  0  0  0
   -4.8962    8.7826   -8.4928 H   0  0  0  0  0  0  0  0  0  0  0  0
   -2.1055   14.2006   -7.1850 H   0  0  0  0  0  0  0  0  0  0  0  0
   -2.1704   13.5795   -5.5008 H   0  0  0  0  0  0  0  0  0  0  0  0
   -0.6596   10.5498   -7.5564 H   0  0  0  0  0  0  0  0  0  0  0  0
    1.4925   14.2769   -6.0668 H   0  0  0  0  0  0  0  0  0  0  0  0
    0.2526   15.4350   -6.6567 H   0  0  0  0  0  0  0  0  0  0  0  0
    0.1851   14.8305   -4.9665 H   0  0  0  0  0  0  0  0  0  0  0  0
   -5.2469   14.1452  -10.2026 H   0  0  0  0  0  0  0  0  0  0  0  0
   -3.8809   13.2432  -10.9424 H   0  0  0  0  0  0  0  0  0  0  0  0
   -2.9857   15.2276  -11.5166 H   0  0  0  0  0  0  0  0  0  0  0  0
   -4.4673   16.1029  -11.0014 H   0  0  0  0  0  0  0  0  0  0  0  0
  1  2  1  0  0  0  0
  1  4  1  0  0  0  0
  1 13  1  0  0  0  0
  2  6  2  0  0  0  0
  3  4  2  0  0  0  0
  3  5  1  0  0  0  0
  5  6  1  0  0  0  0
  5  9  2  0  0  0  0
  6  7  1  0  0  0  0
  7  8  2  0  0  0  0
  7 10  1  0  0  0  0
  8  9  1  0  0  0  0
 10 14  2  0  0  0  0
 11 12  1  0  0  0  0
 11 13  1  0  0  0  0
 11 26  2  0  0  0  0
 12 28  1  0  0  0  0
 13 27  1  0  0  0  0
 14 15  1  0  0  0  0
 14 19  1  0  0  0  0
 15 16  2  0  0  0  0
 16 17  1  0  0  0  0
 17 18  1  0  0  0  0
 17 20  2  0  0  0  0
 18 19  2  0  0  0  0
 20 21  1  0  0  0  0
 20 24  1  0  0  0  0
 21 22  1  0  0  0  0
 22 23  1  0  0  0  0
 22 25  1  0  0  0  0
 23 24  2  0  0  0  0
 27 28  1  0  0  0  0
  1 29  1  0  0  0  0
  2 30  1  0  0  0  0
  3 31  1  0  0  0  0
  4 32  1  0  0  0  0
 10 33  1  0  0  0  0
 12 34  1  0  0  0  0
 12 35  1  0  0  0  0
 15 36  1  0  0  0  0
 16 37  1  0  0  0  0
 18 38  1  0  0  0  0
 19 39  1  0  0  0  0
 21 40  1  0  0  0  0
 21 41  1  0  0  0  0
 24 42  1  0  0  0  0
 25 43  1  0  0  0  0
 25 44  1  0  0  0  0
 25 45  1  0  0  0  0
 27 46  1  0  0  0  0
 27 47  1  0  0  0  0
 28 48  1  0  0  0  0
 28 49  1  0  0  0  0
M  END
> <Name>
26

> <IC50[uM]>
0.036

$$$$
26
  -OEChem-05192314333D
 Structure written by MMmdl.
 49 53  0     1  0  0  0  0  0999 V2000
   -6.3961   12.3155  -12.0234 C   0  0  0  0  0  0  0  0  0  0  0  0
   -6.5478   11.7864  -10.7392 C   0  0  0  0  0  0  0  0  0  0  0  0
   -7.7431   10.5278  -13.0269 C   0  0  0  0  0  0  0  0  0  0  0  0
   -7.0034   11.6993  -13.1368 C   0  0  0  0  0  0  0  0  0  0  0  0
   -7.8411    9.9886  -11.7443 C   0  0  0  0  0  0  0  0  0  0  0  0
   -7.2672   10.6062  -10.5986 C   0  0  0  0  0  0  0  0  0  0  0  0
   -7.6276    9.7408   -9.5022 C   0  0  0  0  0  0  0  0  0  0  0  0
   -8.2893    8.7195   -9.9713 N   0  0  0  0  0  0  0  0  0  0  0  0
   -8.4361    8.8492  -11.2847 N   0  0  0  0  0  0  0  0  0  0  0  0
   -7.3404    9.8857   -8.0208 C   0  0  0  0  0  0  0  0  0  0  0  0
   -5.4704   14.2158  -13.3316 C   0  0  0  0  0  0  0  0  0  0  0  0
   -4.5218   15.3458  -13.0035 C   0  0  0  0  0  0  0  0  0  0  0  0
   -5.5814   13.4696  -12.1774 N   0  0  0  0  0  0  0  0  0  0  0  0
   -5.9630   10.4847   -7.7359 C   0  0  0  0  0  0  0  0  0  0  0  0
   -5.8538   11.7563   -7.1621 C   0  0  0  0  0  0  0  0  0  0  0  0
   -4.5953   12.3060   -6.9160 C   0  0  0  0  0  0  0  0  0  0  0  0
   -3.4449   11.5852   -7.2379 C   0  0  0  0  0  0  0  0  0  0  0  0
   -3.5560   10.3115   -7.8043 C   0  0  0  0  0  0  0  0  0  0  0  0
   -4.8130    9.7655   -8.0531 C   0  0  0  0  0  0  0  0  0  0  0  0
   -2.0905   12.1634   -6.9778 C   0  0  0  0  0  0  0  0  0  0  0  0
   -1.7398   13.4211   -6.5005 C   0  0  0  0  0  0  0  0  0  0  0  0
   -0.4007   13.4556   -6.4362 N   0  0  3  0  0  0  0  0  0  0  0  0
    0.1858   12.3500   -6.8082 N   0  0  0  0  0  0  0  0  0  0  0  0
   -0.8018   11.5473   -7.1675 C   0  0  0  0  0  0  0  0  0  0  0  0
    0.4333   14.5672   -6.0053 C   0  0  0  0  0  0  0  0  0  0  0  0
   -6.0131   14.0330  -14.4162 O   0  0  0  0  0  0  0  0  0  0  0  0
   -4.6790   13.9767  -11.1295 C   0  0  0  0  0  0  0  0  0  0  0  0
   -4.0830   15.2556  -11.5883 C   0  0  0  0  0  0  0  0  0  0  0  0
   -6.1181   12.2807   -9.8804 H   0  0  0  0  0  0  0  0  0  0  0  0
   -8.7624   10.7378  -13.3832 H   0  0  0  0  0  0  0  0  0  0  0  0
   -7.2763    9.7721  -13.6757 H   0  0  0  0  0  0  0  0  0  0  0  0
   -6.8897   12.1539  -14.1098 H   0  0  0  0  0  0  0  0  0  0  0  0
   -8.0363    9.5960   -7.2473 H   0  0  0  0  0  0  0  0  0  0  0  0
   -3.6420   15.2835  -13.6609 H   0  0  0  0  0  0  0  0  0  0  0  0
   -5.0325   16.3067  -13.1645 H   0  0  0  0  0  0  0  0  0  0  0  0
   -6.7444   12.3126   -6.9096 H   0  0  0  0  0  0  0  0  0  0  0  0
   -4.5117   13.2890   -6.4765 H   0  0  0  0  0  0  0  0  0  0  0  0
   -2.6662    9.7505   -8.0491 H   0  0  0  0  0  0  0  0  0  0  0  0
   -4.8962    8.7826   -8.4928 H   0  0  0  0  0  0  0  0  0  0  0  0
   -2.1055   14.2006   -7.1850 H   0  0  0  0  0  0  0  0  0  0  0  0
   -2.1704   13.5795   -5.5008 H   0  0  0  0  0  0  0  0  0  0  0  0
   -0.6596   10.5498   -7.5564 H   0  0  0  0  0  0  0  0  0  0  0  0
    1.4925   14.2769   -6.0668 H   0  0  0  0  0  0  0  0  0  0  0  0
    0.2526   15.4350   -6.6567 H   0  0  0  0  0  0  0  0  0  0  0  0
    0.1851   14.8305   -4.9665 H   0  0  0  0  0  0  0  0  0  0  0  0
   -5.2469   14.1452  -10.2026 H   0  0  0  0  0  0  0  0  0  0  0  0
   -3.8809   13.2432  -10.9424 H   0  0  0  0  0  0  0  0  0  0  0  0
   -2.9857   15.2276  -11.5166 H   0  0  0  0  0  0  0  0  0  0  0  0
   -4.4673   16.1029  -11.0014 H   0  0  0  0  0  0  0  0  0  0  0  0
  1  2  1  0  0  0  0
  1  4  2  0  0  0  0
  1 13  1  0  0  0  0
  2  6  2  0  0  0  0
  3  4  1  0  0  0  0
  3  5  1  0  0  0  0
  5  6  1  0  0  0  0
  5  9  2  0  0  0  0
  6  7  1  0  0  0  0
  7  8  2  0  0  0  0
  7 10  1  0  0  0  0
  8  9  1  0  0  0  0
 10 14  2  0  0  0  0
 11 12  1  0  0  0  0
 11 13  1  0  0  0  0
 11 26  2  0  0  0  0
 12 28  1  0  0  0  0
 13 27  1  0  0  0  0
 14 15  1  0  0  0  0
 14 19  1  0  0  0  0
 15 16  2  0  0  0  0
 16 17  1  0  0  0  0
 17 18  1  0  0  0  0
 17 20  2  0  0  0  0
 18 19  2  0  0  0  0
 20 21  1  0  0  0  0
 20 24  1  0  0  0  0
 21 22  1  0  0  0  0
 22 23  1  0  0  0  0
 22 25  1  0  0  0  0
 23 24  2  0  0  0  0
 27 28  1  0  0  0  0
  2 29  1  0  0  0  0
  3 30  1  0  0  0  0
  3 31  1  0  0  0  0
  4 32  1  0  0  0  0
 10 33  1  0  0  0  0
 12 34  1  0  0  0  0
 12 35  1  0  0  0  0
 15 36  1  0  0  0  0
 16 37  1  0  0  0  0
 18 38  1  0  0  0  0
 19 39  1  0  0  0  0
 21 40  1  0  0  0  0
 21 41  1  0  0  0  0
 24 42  1  0  0  0  0
 25 43  1  0  0  0  0
 25 44  1  0  0  0  0
 25 45  1  0  0  0  0
 27 46  1  0  0  0  0
 27 47  1  0  0  0  0
 28 48  1  0  0  0  0
 28 49  1  0  0  0  0
M  END
> <Name>
26

> <IC50[uM]>
0.036

$$$$
26
  -OEChem-05192314333D
 Structure written by MMmdl.
 49 53  0     1  0  0  0  0  0999 V2000
   -6.3961   12.3155  -12.0234 C   0  0  0  0  0  0  0  0  0  0  0  0
   -6.5478   11.7864  -10.7392 C   0  0  0  0  0  0  0  0  0  0  0  0
   -7.7431   10.5278  -13.0269 C   0  0  0  0  0  0  0  0  0  0  0  0
   -7.0034   11.6993  -13.1368 C   0  0  0  0  0  0  0  0  0  0  0  0
   -7.8411    9.9886  -11.7443 C   0  0  3  0  0  0  0  0  0  0  0  0
   -7.2672   10.6062  -10.5986 C   0  0  0  0  0  0  0  0  0  0  0  0
   -7.6276    9.7408   -9.5022 C   0  0  0  0  0  0  0  0  0  0  0  0
   -8.2893    8.7195   -9.9713 N   0  0  0  0  0  0  0  0  0  0  0  0
   -8.4361    8.8492  -11.2847 N   0  0  0  0  0  0  0  0  0  0  0  0
   -7.3404    9.8857   -8.0208 C   0  0  0  0  0  0  0  0  0  0  0  0
   -5.4704   14.2158  -13.3316 C   0  0  0  0  0  0  0  0  0  0  0  0
   -4.5218   15.3458  -13.0035 C   0  0  0  0  0  0  0  0  0  0  0  0
   -5.5814   13.4696  -12.1774 N   0  0  0  0  0  0  0  0  0  0  0  0
   -5.9630   10.4847   -7.7359 C   0  0  0  0  0  0  0  0  0  0  0  0
   -5.8538   11.7563   -7.1621 C   0  0  0  0  0  0  0  0  0  0  0  0
   -4.5953   12.3060   -6.9160 C   0  0  0  0  0  0  0  0  0  0  0  0
   -3.4449   11.5852   -7.2379 C   0  0  0  0  0  0  0  0  0  0  0  0
   -3.5560   10.3115   -7.8043 C   0  0  0  0  0  0  0  0  0  0  0  0
   -4.8130    9.7655   -8.0531 C   0  0  0  0  0  0  0  0  0  0  0  0
   -2.0905   12.1634   -6.9778 C   0  0  0  0  0  0  0  0  0  0  0  0
   -1.7398   13.4211   -6.5005 C   0  0  0  0  0  0  0  0  0  0  0  0
   -0.4007   13.4556   -6.4362 N   0  0  3  0  0  0  0  0  0  0  0  0
    0.1858   12.3500   -6.8082 N   0  0  0  0  0  0  0  0  0  0  0  0
   -0.8018   11.5473   -7.1675 C   0  0  0  0  0  0  0  0  0  0  0  0
    0.4333   14.5672   -6.0053 C   0  0  0  0  0  0  0  0  0  0  0  0
   -6.0131   14.0330  -14.4162 O   0  0  0  0  0  0  0  0  0  0  0  0
   -4.6790   13.9767  -11.1295 C   0  0  0  0  0  0  0  0  0  0  0  0
   -4.0830   15.2556  -11.5883 C   0  0  0  0  0  0  0  0  0  0  0  0
   -6.1181   12.2807   -9.8804 H   0  0  0  0  0  0  0  0  0  0  0  0
   -8.2128   10.0638  -13.8816 H   0  0  0  0  0  0  0  0  0  0  0  0
   -6.8897   12.1539  -14.1098 H   0  0  0  0  0  0  0  0  0  0  0  0
   -8.7752   10.5456  -11.5792 H   0  0  0  0  0  0  0  0  0  0  0  0
   -8.0363    9.5960   -7.2473 H   0  0  0  0  0  0  0  0  0  0  0  0
   -3.6420   15.2835  -13.6609 H   0  0  0  0  0  0  0  0  0  0  0  0
   -5.0325   16.3067  -13.1645 H   0  0  0  0  0  0  0  0  0  0  0  0
   -6.7444   12.3126   -6.9096 H   0  0  0  0  0  0  0  0  0  0  0  0
   -4.5117   13.2890   -6.4765 H   0  0  0  0  0  0  0  0  0  0  0  0
   -2.6662    9.7505   -8.0491 H   0  0  0  0  0  0  0  0  0  0  0  0
   -4.8962    8.7826   -8.4928 H   0  0  0  0  0  0  0  0  0  0  0  0
   -2.1055   14.2006   -7.1850 H   0  0  0  0  0  0  0  0  0  0  0  0
   -2.1704   13.5795   -5.5008 H   0  0  0  0  0  0  0  0  0  0  0  0
   -0.6596   10.5498   -7.5564 H   0  0  0  0  0  0  0  0  0  0  0  0
    1.4925   14.2769   -6.0668 H   0  0  0  0  0  0  0  0  0  0  0  0
    0.2526   15.4350   -6.6567 H   0  0  0  0  0  0  0  0  0  0  0  0
    0.1851   14.8305   -4.9665 H   0  0  0  0  0  0  0  0  0  0  0  0
   -5.2469   14.1452  -10.2026 H   0  0  0  0  0  0  0  0  0  0  0  0
   -3.8809   13.2432  -10.9424 H   0  0  0  0  0  0  0  0  0  0  0  0
   -2.9857   15.2276  -11.5166 H   0  0  0  0  0  0  0  0  0  0  0  0
   -4.4673   16.1029  -11.0014 H   0  0  0  0  0  0  0  0  0  0  0  0
  1  2  2  0  0  0  0
  1  4  1  0  0  0  0
  1 13  1  0  0  0  0
  2  6  1  0  0  0  0
  3  4  2  0  0  0  0
  3  5  1  0  0  0  0
  5  6  1  0  0  0  0
  5  9  1  0  0  0  0
  6  7  2  0  0  0  0
  7  8  1  0  0  0  0
  7 10  1  0  0  0  0
  8  9  2  0  0  0  0
 10 14  2  0  0  0  0
 11 12  1  0  0  0  0
 11 13  1  0  0  0  0
 11 26  2  0  0  0  0
 12 28  1  0  0  0  0
 13 27  1  0  0  0  0
 14 15  1  0  0  0  0
 14 19  1  0  0  0  0
 15 16  2  0  0  0  0
 16 17  1  0  0  0  0
 17 18  1  0  0  0  0
 17 20  2  0  0  0  0
 18 19  2  0  0  0  0
 20 21  1  0  0  0  0
 20 24  1  0  0  0  0
 21 22  1  0  0  0  0
 22 23  1  0  0  0  0
 22 25  1  0  0  0  0
 23 24  2  0  0  0  0
 27 28  1  0  0  0  0
  2 29  1  0  0  0  0
  3 30  1  0  0  0  0
  4 31  1  0  0  0  0
  5 32  1  0  0  0  0
 10 33  1  0  0  0  0
 12 34  1  0  0  0  0
 12 35  1  0  0  0  0
 15 36  1  0  0  0  0
 16 37  1  0  0  0  0
 18 38  1  0  0  0  0
 19 39  1  0  0  0  0
 21 40  1  0  0  0  0
 21 41  1  0  0  0  0
 24 42  1  0  0  0  0
 25 43  1  0  0  0  0
 25 44  1  0  0  0  0
 25 45  1  0  0  0  0
 27 46  1  0  0  0  0
 27 47  1  0  0  0  0
 28 48  1  0  0  0  0
 28 49  1  0  0  0  0
M  END
> <Name>
26

> <IC50[uM]>
0.036

$$$$
26
  -OEChem-05192314333D
 Structure written by MMmdl.
 49 53  0     1  0  0  0  0  0999 V2000
   -6.3961   12.3155  -12.0234 C   0  0  0  0  0  0  0  0  0  0  0  0
   -6.5478   11.7864  -10.7392 C   0  0  0  0  0  0  0  0  0  0  0  0
   -7.7431   10.5278  -13.0269 C   0  0  0  0  0  0  0  0  0  0  0  0
   -7.0034   11.6993  -13.1368 C   0  0  0  0  0  0  0  0  0  0  0  0
   -7.8411    9.9886  -11.7443 C   0  0  0  0  0  0  0  0  0  0  0  0
   -7.2672   10.6062  -10.5986 C   0  0  0  0  0  0  0  0  0  0  0  0
   -7.6276    9.7408   -9.5022 C   0  0  0  0  0  0  0  0  0  0  0  0
   -8.2893    8.7195   -9.9713 N   0  0  0  0  0  0  0  0  0  0  0  0
   -8.4361    8.8492  -11.2847 N   0  0  0  0  0  0  0  0  0  0  0  0
   -7.3404    9.8857   -8.0208 C   0  0  0  0  0  0  0  0  0  0  0  0
   -5.4704   14.2158  -13.3316 C   0  0  0  0  0  0  0  0  0  0  0  0
   -4.5218   15.3458  -13.0035 C   0  0  0  0  0  0  0  0  0  0  0  0
   -5.5814   13.4696  -12.1774 N   0  0  0  0  0  0  0  0  0  0  0  0
   -5.9630   10.4847   -7.7359 C   0  0  0  0  0  0  0  0  0  0  0  0
   -5.8538   11.7563   -7.1621 C   0  0  0  0  0  0  0  0  0  0  0  0
   -4.5953   12.3060   -6.9160 C   0  0  0  0  0  0  0  0  0  0  0  0
   -3.4449   11.5852   -7.2379 C   0  0  0  0  0  0  0  0  0  0  0  0
   -3.5560   10.3115   -7.8043 C   0  0  0  0  0  0  0  0  0  0  0  0
   -4.8130    9.7655   -8.0531 C   0  0  0  0  0  0  0  0  0  0  0  0
   -2.0905   12.1634   -6.9778 C   0  0  0  0  0  0  0  0  0  0  0  0
   -1.7398   13.4211   -6.5005 C   0  0  0  0  0  0  0  0  0  0  0  0
   -0.4007   13.4556   -6.4362 N   0  0  3  0  0  0  0  0  0  0  0  0
    0.1858   12.3500   -6.8082 N   0  0  0  0  0  0  0  0  0  0  0  0
   -0.8018   11.5473   -7.1675 C   0  0  0  0  0  0  0  0  0  0  0  0
    0.4333   14.5672   -6.0053 C   0  0  0  0  0  0  0  0  0  0  0  0
   -6.0131   14.0330  -14.4162 O   0  0  0  0  0  0  0  0  0  0  0  0
   -4.6790   13.9767  -11.1295 C   0  0  0  0  0  0  0  0  0  0  0  0
   -4.0830   15.2556  -11.5883 C   0  0  0  0  0  0  0  0  0  0  0  0
   -6.1181   12.2807   -9.8804 H   0  0  0  0  0  0  0  0  0  0  0  0
   -8.2128   10.0638  -13.8816 H   0  0  0  0  0  0  0  0  0  0  0  0
   -7.6809   12.4497  -13.5703 H   0  0  0  0  0  0  0  0  0  0  0  0
   -6.1921   11.4836  -13.8477 H   0  0  0  0  0  0  0  0  0  0  0  0
   -8.0363    9.5960   -7.2473 H   0  0  0  0  0  0  0  0  0  0  0  0
   -3.6420   15.2835  -13.6609 H   0  0  0  0  0  0  0  0  0  0  0  0
   -5.0325   16.3067  -13.1645 H   0  0  0  0  0  0  0  0  0  0  0  0
   -6.7444   12.3126   -6.9096 H   0  0  0  0  0  0  0  0  0  0  0  0
   -4.5117   13.2890   -6.4765 H   0  0  0  0  0  0  0  0  0  0  0  0
   -2.6662    9.7505   -8.0491 H   0  0  0  0  0  0  0  0  0  0  0  0
   -4.8962    8.7826   -8.4928 H   0  0  0  0  0  0  0  0  0  0  0  0
   -2.1055   14.2006   -7.1850 H   0  0  0  0  0  0  0  0  0  0  0  0
   -2.1704   13.5795   -5.5008 H   0  0  0  0  0  0  0  0  0  0  0  0
   -0.6596   10.5498   -7.5564 H   0  0  0  0  0  0  0  0  0  0  0  0
    1.4925   14.2769   -6.0668 H   0  0  0  0  0  0  0  0  0  0  0  0
    0.2526   15.4350   -6.6567 H   0  0  0  0  0  0  0  0  0  0  0  0
    0.1851   14.8305   -4.9665 H   0  0  0  0  0  0  0  0  0  0  0  0
   -5.2469   14.1452  -10.2026 H   0  0  0  0  0  0  0  0  0  0  0  0
   -3.8809   13.2432  -10.9424 H   0  0  0  0  0  0  0  0  0  0  0  0
   -2.9857   15.2276  -11.5166 H   0  0  0  0  0  0  0  0  0  0  0  0
   -4.4673   16.1029  -11.0014 H   0  0  0  0  0  0  0  0  0  0  0  0
  1  2  2  0  0  0  0
  1  4  1  0  0  0  0
  1 13  1  0  0  0  0
  2  6  1  0  0  0  0
  3  4  1  0  0  0  0
  3  5  2  0  0  0  0
  5  6  1  0  0  0  0
  5  9  1  0  0  0  0
  6  7  2  0  0  0  0
  7  8  1  0  0  0  0
  7 10  1  0  0  0  0
  8  9  2  0  0  0  0
 10 14  2  0  0  0  0
 11 12  1  0  0  0  0
 11 13  1  0  0  0  0
 11 26  2  0  0  0  0
 12 28  1  0  0  0  0
 13 27  1  0  0  0  0
 14 15  1  0  0  0  0
 14 19  1  0  0  0  0
 15 16  2  0  0  0  0
 16 17  1  0  0  0  0
 17 18  1  0  0  0  0
 17 20  2  0  0  0  0
 18 19  2  0  0  0  0
 20 21  1  0  0  0  0
 20 24  1  0  0  0  0
 21 22  1  0  0  0  0
 22 23  1  0  0  0  0
 22 25  1  0  0  0  0
 23 24  2  0  0  0  0
 27 28  1  0  0  0  0
  2 29  1  0  0  0  0
  3 30  1  0  0  0  0
  4 31  1  0  0  0  0
  4 32  1  0  0  0  0
 10 33  1  0  0  0  0
 12 34  1  0  0  0  0
 12 35  1  0  0  0  0
 15 36  1  0  0  0  0
 16 37  1  0  0  0  0
 18 38  1  0  0  0  0
 19 39  1  0  0  0  0
 21 40  1  0  0  0  0
 21 41  1  0  0  0  0
 24 42  1  0  0  0  0
 25 43  1  0  0  0  0
 25 44  1  0  0  0  0
 25 45  1  0  0  0  0
 27 46  1  0  0  0  0
 27 47  1  0  0  0  0
 28 48  1  0  0  0  0
 28 49  1  0  0  0  0
M  END
> <Name>
26

> <IC50[uM]>
0.036

$$$$
26
  -OEChem-05192314333D
 Structure written by MMmdl.
 49 53  0     1  0  0  0  0  0999 V2000
   -6.3961   12.3155  -12.0234 C   0  0  0  0  0  0  0  0  0  0  0  0
   -6.5478   11.7864  -10.7392 C   0  0  0  0  0  0  0  0  0  0  0  0
   -7.7431   10.5278  -13.0269 C   0  0  0  0  0  0  0  0  0  0  0  0
   -7.0034   11.6993  -13.1368 C   0  0  0  0  0  0  0  0  0  0  0  0
   -7.8411    9.9886  -11.7443 C   0  0  0  0  0  0  0  0  0  0  0  0
   -7.2672   10.6062  -10.5986 C   0  0  0  0  0  0  0  0  0  0  0  0
   -7.6276    9.7408   -9.5022 C   0  0  0  0  0  0  0  0  0  0  0  0
   -8.2893    8.7195   -9.9713 N   0  0  0  0  0  0  0  0  0  0  0  0
   -8.4361    8.8492  -11.2847 N   0  0  0  0  0  0  0  0  0  0  0  0
   -7.3404    9.8857   -8.0208 C   0  0  0  0  0  0  0  0  0  0  0  0
   -5.4704   14.2158  -13.3316 C   0  0  0  0  0  0  0  0  0  0  0  0
   -4.5218   15.3458  -13.0035 C   0  0  0  0  0  0  0  0  0  0  0  0
   -5.5814   13.4696  -12.1774 N   0  0  0  0  0  0  0  0  0  0  0  0
   -5.9630   10.4847   -7.7359 C   0  0  0  0  0  0  0  0  0  0  0  0
   -5.8538   11.7563   -7.1621 C   0  0  0  0  0  0  0  0  0  0  0  0
   -4.5953   12.3060   -6.9160 C   0  0  0  0  0  0  0  0  0  0  0  0
   -3.4449   11.5852   -7.2379 C   0  0  0  0  0  0  0  0  0  0  0  0
   -3.5560   10.3115   -7.8043 C   0  0  0  0  0  0  0  0  0  0  0  0
   -4.8130    9.7655   -8.0531 C   0  0  0  0  0  0  0  0  0  0  0  0
   -2.0905   12.1634   -6.9778 C   0  0  0  0  0  0  0  0  0  0  0  0
   -1.7398   13.4211   -6.5005 C   0  0  0  0  0  0  0  0  0  0  0  0
   -0.4007   13.4556   -6.4362 N   0  0  3  0  0  0  0  0  0  0  0  0
    0.1858   12.3500   -6.8082 N   0  0  0  0  0  0  0  0  0  0  0  0
   -0.8018   11.5473   -7.1675 C   0  0  0  0  0  0  0  0  0  0  0  0
    0.4333   14.5672   -6.0053 C   0  0  0  0  0  0  0  0  0  0  0  0
   -6.0131   14.0330  -14.4162 O   0  0  0  0  0  0  0  0  0  0  0  0
   -4.6790   13.9767  -11.1295 C   0  0  0  0  0  0  0  0  0  0  0  0
   -4.0830   15.2556  -11.5883 C   0  0  0  0  0  0  0  0  0  0  0  0
   -5.5392   11.6037  -10.3400 H   0  0  0  0  0  0  0  0  0  0  0  0
   -7.0511   12.5504  -10.1285 H   0  0  0  0  0  0  0  0  0  0  0  0
   -8.2128   10.0638  -13.8816 H   0  0  0  0  0  0  0  0  0  0  0  0
   -6.8897   12.1539  -14.1098 H   0  0  0  0  0  0  0  0  0  0  0  0
   -8.0363    9.5960   -7.2473 H   0  0  0  0  0  0  0  0  0  0  0  0
   -3.6420   15.2835  -13.6609 H   0  0  0  0  0  0  0  0  0  0  0  0
   -5.0325   16.3067  -13.1645 H   0  0  0  0  0  0  0  0  0  0  0  0
   -6.7444   12.3126   -6.9096 H   0  0  0  0  0  0  0  0  0  0  0  0
   -4.5117   13.2890   -6.4765 H   0  0  0  0  0  0  0  0  0  0  0  0
   -2.6662    9.7505   -8.0491 H   0  0  0  0  0  0  0  0  0  0  0  0
   -4.8962    8.7826   -8.4928 H   0  0  0  0  0  0  0  0  0  0  0  0
   -2.1055   14.2006   -7.1850 H   0  0  0  0  0  0  0  0  0  0  0  0
   -2.1704   13.5795   -5.5008 H   0  0  0  0  0  0  0  0  0  0  0  0
   -0.6596   10.5498   -7.5564 H   0  0  0  0  0  0  0  0  0  0  0  0
    1.4925   14.2769   -6.0668 H   0  0  0  0  0  0  0  0  0  0  0  0
    0.2526   15.4350   -6.6567 H   0  0  0  0  0  0  0  0  0  0  0  0
    0.1851   14.8305   -4.9665 H   0  0  0  0  0  0  0  0  0  0  0  0
   -5.2469   14.1452  -10.2026 H   0  0  0  0  0  0  0  0  0  0  0  0
   -3.8809   13.2432  -10.9424 H   0  0  0  0  0  0  0  0  0  0  0  0
   -2.9857   15.2276  -11.5166 H   0  0  0  0  0  0  0  0  0  0  0  0
   -4.4673   16.1029  -11.0014 H   0  0  0  0  0  0  0  0  0  0  0  0
  1  2  1  0  0  0  0
  1  4  2  0  0  0  0
  1 13  1  0  0  0  0
  2  6  1  0  0  0  0
  3  4  1  0  0  0  0
  3  5  2  0  0  0  0
  5  6  1  0  0  0  0
  5  9  1  0  0  0  0
  6  7  2  0  0  0  0
  7  8  1  0  0  0  0
  7 10  1  0  0  0  0
  8  9  2  0  0  0  0
 10 14  2  0  0  0  0
 11 12  1  0  0  0  0
 11 13  1  0  0  0  0
 11 26  2  0  0  0  0
 12 28  1  0  0  0  0
 13 27  1  0  0  0  0
 14 15  1  0  0  0  0
 14 19  1  0  0  0  0
 15 16  2  0  0  0  0
 16 17  1  0  0  0  0
 17 18  1  0  0  0  0
 17 20  2  0  0  0  0
 18 19  2  0  0  0  0
 20 21  1  0  0  0  0
 20 24  1  0  0  0  0
 21 22  1  0  0  0  0
 22 23  1  0  0  0  0
 22 25  1  0  0  0  0
 23 24  2  0  0  0  0
 27 28  1  0  0  0  0
  2 29  1  0  0  0  0
  2 30  1  0  0  0  0
  3 31  1  0  0  0  0
  4 32  1  0  0  0  0
 10 33  1  0  0  0  0
 12 34  1  0  0  0  0
 12 35  1  0  0  0  0
 15 36  1  0  0  0  0
 16 37  1  0  0  0  0
 18 38  1  0  0  0  0
 19 39  1  0  0  0  0
 21 40  1  0  0  0  0
 21 41  1  0  0  0  0
 24 42  1  0  0  0  0
 25 43  1  0  0  0  0
 25 44  1  0  0  0  0
 25 45  1  0  0  0  0
 27 46  1  0  0  0  0
 27 47  1  0  0  0  0
 28 48  1  0  0  0  0
 28 49  1  0  0  0  0
M  END
> <Name>
26

> <IC50[uM]>
0.036

$$$$
26
  -OEChem-05192314333D
 Structure written by MMmdl.
 49 53  0     1  0  0  0  0  0999 V2000
   -6.3961   12.3155  -12.0234 C   0  0  0  0  0  0  0  0  0  0  0  0
   -6.5478   11.7864  -10.7392 C   0  0  0  0  0  0  0  0  0  0  0  0
   -7.7431   10.5278  -13.0269 C   0  0  0  0  0  0  0  0  0  0  0  0
   -7.0034   11.6993  -13.1368 C   0  0  0  0  0  0  0  0  0  0  0  0
   -7.8411    9.9886  -11.7443 C   0  0  0  0  0  0  0  0  0  0  0  0
   -7.2672   10.6062  -10.5986 C   0  0  3  0  0  0  0  0  0  0  0  0
   -7.6276    9.7408   -9.5022 C   0  0  0  0  0  0  0  0  0  0  0  0
   -8.2893    8.7195   -9.9713 N   0  0  0  0  0  0  0  0  0  0  0  0
   -8.4361    8.8492  -11.2847 N   0  0  0  0  0  0  0  0  0  0  0  0
   -7.3404    9.8857   -8.0208 C   0  0  0  0  0  0  0  0  0  0  0  0
   -5.4704   14.2158  -13.3316 C   0  0  0  0  0  0  0  0  0  0  0  0
   -4.5218   15.3458  -13.0035 C   0  0  0  0  0  0  0  0  0  0  0  0
   -5.5814   13.4696  -12.1774 N   0  0  0  0  0  0  0  0  0  0  0  0
   -5.9630   10.4847   -7.7359 C   0  0  0  0  0  0  0  0  0  0  0  0
   -5.8538   11.7563   -7.1621 C   0  0  0  0  0  0  0  0  0  0  0  0
   -4.5953   12.3060   -6.9160 C   0  0  0  0  0  0  0  0  0  0  0  0
   -3.4449   11.5852   -7.2379 C   0  0  0  0  0  0  0  0  0  0  0  0
   -3.5560   10.3115   -7.8043 C   0  0  0  0  0  0  0  0  0  0  0  0
   -4.8130    9.7655   -8.0531 C   0  0  0  0  0  0  0  0  0  0  0  0
   -2.0905   12.1634   -6.9778 C   0  0  0  0  0  0  0  0  0  0  0  0
   -1.7398   13.4211   -6.5005 C   0  0  0  0  0  0  0  0  0  0  0  0
   -0.4007   13.4556   -6.4362 N   0  0  0  0  0  0  0  0  0  0  0  0
    0.1858   12.3500   -6.8082 N   0  0  0  0  0  0  0  0  0  0  0  0
   -0.8018   11.5473   -7.1675 C   0  0  0  0  0  0  0  0  0  0  0  0
    0.4333   14.5672   -6.0053 C   0  0  0  0  0  0  0  0  0  0  0  0
   -6.0131   14.0330  -14.4162 O   0  0  0  0  0  0  0  0  0  0  0  0
   -4.6790   13.9767  -11.1295 C   0  0  0  0  0  0  0  0  0  0  0  0
   -4.0830   15.2556  -11.5883 C   0  0  0  0  0  0  0  0  0  0  0  0
   -6.1181   12.2807   -9.8804 H   0  0  0  0  0  0  0  0  0  0  0  0
   -8.2128   10.0638  -13.8816 H   0  0  0  0  0  0  0  0  0  0  0  0
   -6.8897   12.1539  -14.1098 H   0  0  0  0  0  0  0  0  0  0  0  0
   -8.1901   11.1852  -10.4467 H   0  0  0  0  0  0  0  0  0  0  0  0
   -8.0363    9.5960   -7.2473 H   0  0  0  0  0  0  0  0  0  0  0  0
   -3.6420   15.2835  -13.6609 H   0  0  0  0  0  0  0  0  0  0  0  0
   -5.0325   16.3067  -13.1645 H   0  0  0  0  0  0  0  0  0  0  0  0
   -6.7444   12.3126   -6.9096 H   0  0  0  0  0  0  0  0  0  0  0  0
   -4.5117   13.2890   -6.4765 H   0  0  0  0  0  0  0  0  0  0  0  0
   -3.4442   12.0330   -8.2426 H   0  0  0  0  0  0  0  0  0  0  0  0
   -2.6662    9.7505   -8.0491 H   0  0  0  0  0  0  0  0  0  0  0  0
   -4.8962    8.7826   -8.4928 H   0  0  0  0  0  0  0  0  0  0  0  0
   -2.4169   14.2186   -6.2325 H   0  0  0  0  0  0  0  0  0  0  0  0
   -0.6596   10.5498   -7.5564 H   0  0  0  0  0  0  0  0  0  0  0  0
    1.4925   14.2769   -6.0668 H   0  0  0  0  0  0  0  0  0  0  0  0
    0.2526   15.4350   -6.6567 H   0  0  0  0  0  0  0  0  0  0  0  0
    0.1851   14.8305   -4.9665 H   0  0  0  0  0  0  0  0  0  0  0  0
   -5.2469   14.1452  -10.2026 H   0  0  0  0  0  0  0  0  0  0  0  0
   -3.8809   13.2432  -10.9424 H   0  0  0  0  0  0  0  0  0  0  0  0
   -2.9857   15.2276  -11.5166 H   0  0  0  0  0  0  0  0  0  0  0  0
   -4.4673   16.1029  -11.0014 H   0  0  0  0  0  0  0  0  0  0  0  0
  1  2  2  0  0  0  0
  1  4  1  0  0  0  0
  1 13  1  0  0  0  0
  2  6  1  0  0  0  0
  3  4  2  0  0  0  0
  3  5  1  0  0  0  0
  5  6  1  0  0  0  0
  5  9  2  0  0  0  0
  6  7  1  0  0  0  0
  7  8  2  0  0  0  0
  7 10  1  0  0  0  0
  8  9  1  0  0  0  0
 10 14  2  0  0  0  0
 11 12  1  0  0  0  0
 11 13  1  0  0  0  0
 11 26  2  0  0  0  0
 12 28  1  0  0  0  0
 13 27  1  0  0  0  0
 14 15  1  0  0  0  0
 14 19  1  0  0  0  0
 15 16  2  0  0  0  0
 16 17  1  0  0  0  0
 17 18  1  0  0  0  0
 17 20  1  0  0  0  0
 18 19  2  0  0  0  0
 20 21  2  0  0  0  0
 20 24  1  0  0  0  0
 21 22  1  0  0  0  0
 22 23  1  0  0  0  0
 22 25  1  0  0  0  0
 23 24  2  0  0  0  0
 27 28  1  0  0  0  0
  2 29  1  0  0  0  0
  3 30  1  0  0  0  0
  4 31  1  0  0  0  0
  6 32  1  0  0  0  0
 10 33  1  0  0  0  0
 12 34  1  0  0  0  0
 12 35  1  0  0  0  0
 15 36  1  0  0  0  0
 16 37  1  0  0  0  0
 17 38  1  0  0  0  0
 18 39  1  0  0  0  0
 19 40  1  0  0  0  0
 21 41  1  0  0  0  0
 24 42  1  0  0  0  0
 25 43  1  0  0  0  0
 25 44  1  0  0  0  0
 25 45  1  0  0  0  0
 27 46  1  0  0  0  0
 27 47  1  0  0  0  0
 28 48  1  0  0  0  0
 28 49  1  0  0  0  0
M  END
> <Name>
26

> <IC50[uM]>
0.036

$$$$
26
  -OEChem-05192314333D
 Structure written by MMmdl.
 49 53  0     1  0  0  0  0  0999 V2000
   -6.3961   12.3155  -12.0234 C   0  0  3  0  0  0  0  0  0  0  0  0
   -6.5478   11.7864  -10.7392 C   0  0  0  0  0  0  0  0  0  0  0  0
   -7.7431   10.5278  -13.0269 C   0  0  0  0  0  0  0  0  0  0  0  0
   -7.0034   11.6993  -13.1368 C   0  0  0  0  0  0  0  0  0  0  0  0
   -7.8411    9.9886  -11.7443 C   0  0  0  0  0  0  0  0  0  0  0  0
   -7.2672   10.6062  -10.5986 C   0  0  0  0  0  0  0  0  0  0  0  0
   -7.6276    9.7408   -9.5022 C   0  0  0  0  0  0  0  0  0  0  0  0
   -8.2893    8.7195   -9.9713 N   0  0  0  0  0  0  0  0  0  0  0  0
   -8.4361    8.8492  -11.2847 N   0  0  0  0  0  0  0  0  0  0  0  0
   -7.3404    9.8857   -8.0208 C   0  0  0  0  0  0  0  0  0  0  0  0
   -5.4704   14.2158  -13.3316 C   0  0  0  0  0  0  0  0  0  0  0  0
   -4.5218   15.3458  -13.0035 C   0  0  0  0  0  0  0  0  0  0  0  0
   -5.5814   13.4696  -12.1774 N   0  0  0  0  0  0  0  0  0  0  0  0
   -5.9630   10.4847   -7.7359 C   0  0  0  0  0  0  0  0  0  0  0  0
   -5.8538   11.7563   -7.1621 C   0  0  0  0  0  0  0  0  0  0  0  0
   -4.5953   12.3060   -6.9160 C   0  0  0  0  0  0  0  0  0  0  0  0
   -3.4449   11.5852   -7.2379 C   0  0  0  0  0  0  0  0  0  0  0  0
   -3.5560   10.3115   -7.8043 C   0  0  0  0  0  0  0  0  0  0  0  0
   -4.8130    9.7655   -8.0531 C   0  0  0  0  0  0  0  0  0  0  0  0
   -2.0905   12.1634   -6.9778 C   0  0  0  0  0  0  0  0  0  0  0  0
   -1.7398   13.4211   -6.5005 C   0  0  0  0  0  0  0  0  0  0  0  0
   -0.4007   13.4556   -6.4362 N   0  0  0  0  0  0  0  0  0  0  0  0
    0.1858   12.3500   -6.8082 N   0  0  0  0  0  0  0  0  0  0  0  0
   -0.8018   11.5473   -7.1675 C   0  0  0  0  0  0  0  0  0  0  0  0
    0.4333   14.5672   -6.0053 C   0  0  0  0  0  0  0  0  0  0  0  0
   -6.0131   14.0330  -14.4162 O   0  0  0  0  0  0  0  0  0  0  0  0
   -4.6790   13.9767  -11.1295 C   0  0  0  0  0  0  0  0  0  0  0  0
   -4.0830   15.2556  -11.5883 C   0  0  0  0  0  0  0  0  0  0  0  0
   -7.2833   12.9493  -11.8778 H   0  0  0  0  0  0  0  0  0  0  0  0
   -6.1181   12.2807   -9.8804 H   0  0  0  0  0  0  0  0  0  0  0  0
   -8.2128   10.0638  -13.8816 H   0  0  0  0  0  0  0  0  0  0  0  0
   -6.8897   12.1539  -14.1098 H   0  0  0  0  0  0  0  0  0  0  0  0
   -8.0363    9.5960   -7.2473 H   0  0  0  0  0  0  0  0  0  0  0  0
   -3.6420   15.2835  -13.6609 H   0  0  0  0  0  0  0  0  0  0  0  0
   -5.0325   16.3067  -13.1645 H   0  0  0  0  0  0  0  0  0  0  0  0
   -6.7444   12.3126   -6.9096 H   0  0  0  0  0  0  0  0  0  0  0  0
   -4.5117   13.2890   -6.4765 H   0  0  0  0  0  0  0  0  0  0  0  0
   -3.4442   12.0330   -8.2426 H   0  0  0  0  0  0  0  0  0  0  0  0
   -2.6662    9.7505   -8.0491 H   0  0  0  0  0  0  0  0  0  0  0  0
   -4.8962    8.7826   -8.4928 H   0  0  0  0  0  0  0  0  0  0  0  0
   -2.4169   14.2186   -6.2325 H   0  0  0  0  0  0  0  0  0  0  0  0
   -0.6596   10.5498   -7.5564 H   0  0  0  0  0  0  0  0  0  0  0  0
    1.4925   14.2769   -6.0668 H   0  0  0  0  0  0  0  0  0  0  0  0
    0.2526   15.4350   -6.6567 H   0  0  0  0  0  0  0  0  0  0  0  0
    0.1851   14.8305   -4.9665 H   0  0  0  0  0  0  0  0  0  0  0  0
   -5.2469   14.1452  -10.2026 H   0  0  0  0  0  0  0  0  0  0  0  0
   -3.8809   13.2432  -10.9424 H   0  0  0  0  0  0  0  0  0  0  0  0
   -2.9857   15.2276  -11.5166 H   0  0  0  0  0  0  0  0  0  0  0  0
   -4.4673   16.1029  -11.0014 H   0  0  0  0  0  0  0  0  0  0  0  0
  1  2  1  0  0  0  0
  1  4  1  0  0  0  0
  1 13  1  0  0  0  0
  2  6  2  0  0  0  0
  3  4  2  0  0  0  0
  3  5  1  0  0  0  0
  5  6  1  0  0  0  0
  5  9  2  0  0  0  0
  6  7  1  0  0  0  0
  7  8  2  0  0  0  0
  7 10  1  0  0  0  0
  8  9  1  0  0  0  0
 10 14  2  0  0  0  0
 11 12  1  0  0  0  0
 11 13  1  0  0  0  0
 11 26  2  0  0  0  0
 12 28  1  0  0  0  0
 13 27  1  0  0  0  0
 14 15  1  0  0  0  0
 14 19  1  0  0  0  0
 15 16  2  0  0  0  0
 16 17  1  0  0  0  0
 17 18  1  0  0  0  0
 17 20  1  0  0  0  0
 18 19  2  0  0  0  0
 20 21  2  0  0  0  0
 20 24  1  0  0  0  0
 21 22  1  0  0  0  0
 22 23  1  0  0  0  0
 22 25  1  0  0  0  0
 23 24  2  0  0  0  0
 27 28  1  0  0  0  0
  1 29  1  0  0  0  0
  2 30  1  0  0  0  0
  3 31  1  0  0  0  0
  4 32  1  0  0  0  0
 10 33  1  0  0  0  0
 12 34  1  0  0  0  0
 12 35  1  0  0  0  0
 15 36  1  0  0  0  0
 16 37  1  0  0  0  0
 17 38  1  0  0  0  0
 18 39  1  0  0  0  0
 19 40  1  0  0  0  0
 21 41  1  0  0  0  0
 24 42  1  0  0  0  0
 25 43  1  0  0  0  0
 25 44  1  0  0  0  0
 25 45  1  0  0  0  0
 27 46  1  0  0  0  0
 27 47  1  0  0  0  0
 28 48  1  0  0  0  0
 28 49  1  0  0  0  0
M  END
> <Name>
26

> <IC50[uM]>
0.036

$$$$
26
  -OEChem-05192314333D
 Structure written by MMmdl.
 49 53  0     0  0  0  0  0  0999 V2000
   -6.3961   12.3155  -12.0234 C   0  0  0  0  0  0  0  0  0  0  0  0
   -6.5478   11.7864  -10.7392 C   0  0  0  0  0  0  0  0  0  0  0  0
   -7.7431   10.5278  -13.0269 C   0  0  0  0  0  0  0  0  0  0  0  0
   -7.0034   11.6993  -13.1368 C   0  0  0  0  0  0  0  0  0  0  0  0
   -7.8411    9.9886  -11.7443 C   0  0  0  0  0  0  0  0  0  0  0  0
   -7.2672   10.6062  -10.5986 C   0  0  0  0  0  0  0  0  0  0  0  0
   -7.6276    9.7408   -9.5022 C   0  0  0  0  0  0  0  0  0  0  0  0
   -8.2893    8.7195   -9.9713 N   0  0  0  0  0  0  0  0  0  0  0  0
   -8.4361    8.8492  -11.2847 N   0  0  0  0  0  0  0  0  0  0  0  0
   -7.3404    9.8857   -8.0208 C   0  0  0  0  0  0  0  0  0  0  0  0
   -5.4704   14.2158  -13.3316 C   0  0  0  0  0  0  0  0  0  0  0  0
   -4.5218   15.3458  -13.0035 C   0  0  0  0  0  0  0  0  0  0  0  0
   -5.5814   13.4696  -12.1774 N   0  0  0  0  0  0  0  0  0  0  0  0
   -5.9630   10.4847   -7.7359 C   0  0  0  0  0  0  0  0  0  0  0  0
   -5.8538   11.7563   -7.1621 C   0  0  0  0  0  0  0  0  0  0  0  0
   -4.5953   12.3060   -6.9160 C   0  0  0  0  0  0  0  0  0  0  0  0
   -3.4449   11.5852   -7.2379 C   0  0  0  0  0  0  0  0  0  0  0  0
   -3.5560   10.3115   -7.8043 C   0  0  0  0  0  0  0  0  0  0  0  0
   -4.8130    9.7655   -8.0531 C   0  0  0  0  0  0  0  0  0  0  0  0
   -2.0905   12.1634   -6.9778 C   0  0  0  0  0  0  0  0  0  0  0  0
   -1.7398   13.4211   -6.5005 C   0  0  0  0  0  0  0  0  0  0  0  0
   -0.4007   13.4556   -6.4362 N   0  0  0  0  0  0  0  0  0  0  0  0
    0.1858   12.3500   -6.8082 N   0  0  0  0  0  0  0  0  0  0  0  0
   -0.8018   11.5473   -7.1675 C   0  0  0  0  0  0  0  0  0  0  0  0
    0.4333   14.5672   -6.0053 C   0  0  0  0  0  0  0  0  0  0  0  0
   -6.0131   14.0330  -14.4162 O   0  0  0  0  0  0  0  0  0  0  0  0
   -4.6790   13.9767  -11.1295 C   0  0  0  0  0  0  0  0  0  0  0  0
   -4.0830   15.2556  -11.5883 C   0  0  0  0  0  0  0  0  0  0  0  0
   -6.1181   12.2807   -9.8804 H   0  0  0  0  0  0  0  0  0  0  0  0
   -8.7624   10.7378  -13.3832 H   0  0  0  0  0  0  0  0  0  0  0  0
   -7.2763    9.7721  -13.6757 H   0  0  0  0  0  0  0  0  0  0  0  0
   -6.8897   12.1539  -14.1098 H   0  0  0  0  0  0  0  0  0  0  0  0
   -8.0363    9.5960   -7.2473 H   0  0  0  0  0  0  0  0  0  0  0  0
   -3.6420   15.2835  -13.6609 H   0  0  0  0  0  0  0  0  0  0  0  0
   -5.0325   16.3067  -13.1645 H   0  0  0  0  0  0  0  0  0  0  0  0
   -6.7444   12.3126   -6.9096 H   0  0  0  0  0  0  0  0  0  0  0  0
   -4.5117   13.2890   -6.4765 H   0  0  0  0  0  0  0  0  0  0  0  0
   -3.4442   12.0330   -8.2426 H   0  0  0  0  0  0  0  0  0  0  0  0
   -2.6662    9.7505   -8.0491 H   0  0  0  0  0  0  0  0  0  0  0  0
   -4.8962    8.7826   -8.4928 H   0  0  0  0  0  0  0  0  0  0  0  0
   -2.4169   14.2186   -6.2325 H   0  0  0  0  0  0  0  0  0  0  0  0
   -0.6596   10.5498   -7.5564 H   0  0  0  0  0  0  0  0  0  0  0  0
    1.4925   14.2769   -6.0668 H   0  0  0  0  0  0  0  0  0  0  0  0
    0.2526   15.4350   -6.6567 H   0  0  0  0  0  0  0  0  0  0  0  0
    0.1851   14.8305   -4.9665 H   0  0  0  0  0  0  0  0  0  0  0  0
   -5.2469   14.1452  -10.2026 H   0  0  0  0  0  0  0  0  0  0  0  0
   -3.8809   13.2432  -10.9424 H   0  0  0  0  0  0  0  0  0  0  0  0
   -2.9857   15.2276  -11.5166 H   0  0  0  0  0  0  0  0  0  0  0  0
   -4.4673   16.1029  -11.0014 H   0  0  0  0  0  0  0  0  0  0  0  0
  1  2  1  0  0  0  0
  1  4  2  0  0  0  0
  1 13  1  0  0  0  0
  2  6  2  0  0  0  0
  3  4  1  0  0  0  0
  3  5  1  0  0  0  0
  5  6  1  0  0  0  0
  5  9  2  0  0  0  0
  6  7  1  0  0  0  0
  7  8  2  0  0  0  0
  7 10  1  0  0  0  0
  8  9  1  0  0  0  0
 10 14  2  0  0  0  0
 11 12  1  0  0  0  0
 11 13  1  0  0  0  0
 11 26  2  0  0  0  0
 12 28  1  0  0  0  0
 13 27  1  0  0  0  0
 14 15  1  0  0  0  0
 14 19  1  0  0  0  0
 15 16  2  0  0  0  0
 16 17  1  0  0  0  0
 17 18  1  0  0  0  0
 17 20  1  0  0  0  0
 18 19  2  0  0  0  0
 20 21  2  0  0  0  0
 20 24  1  0  0  0  0
 21 22  1  0  0  0  0
 22 23  1  0  0  0  0
 22 25  1  0  0  0  0
 23 24  2  0  0  0  0
 27 28  1  0  0  0  0
  2 29  1  0  0  0  0
  3 30  1  0  0  0  0
  3 31  1  0  0  0  0
  4 32  1  0  0  0  0
 10 33  1  0  0  0  0
 12 34  1  0  0  0  0
 12 35  1  0  0  0  0
 15 36  1  0  0  0  0
 16 37  1  0  0  0  0
 17 38  1  0  0  0  0
 18 39  1  0  0  0  0
 19 40  1  0  0  0  0
 21 41  1  0  0  0  0
 24 42  1  0  0  0  0
 25 43  1  0  0  0  0
 25 44  1  0  0  0  0
 25 45  1  0  0  0  0
 27 46  1  0  0  0  0
 27 47  1  0  0  0  0
 28 48  1  0  0  0  0
 28 49  1  0  0  0  0
M  END
> <Name>
26

> <IC50[uM]>
0.036

$$$$
26
  -OEChem-05192314333D
 Structure written by MMmdl.
 49 53  0     1  0  0  0  0  0999 V2000
   -6.3961   12.3155  -12.0234 C   0  0  0  0  0  0  0  0  0  0  0  0
   -6.5478   11.7864  -10.7392 C   0  0  0  0  0  0  0  0  0  0  0  0
   -7.7431   10.5278  -13.0269 C   0  0  0  0  0  0  0  0  0  0  0  0
   -7.0034   11.6993  -13.1368 C   0  0  0  0  0  0  0  0  0  0  0  0
   -7.8411    9.9886  -11.7443 C   0  0  0  0  0  0  0  0  0  0  0  0
   -7.2672   10.6062  -10.5986 C   0  0  3  0  0  0  0  0  0  0  0  0
   -7.6276    9.7408   -9.5022 C   0  0  0  0  0  0  0  0  0  0  0  0
   -8.2893    8.7195   -9.9713 N   0  0  0  0  0  0  0  0  0  0  0  0
   -8.4361    8.8492  -11.2847 N   0  0  0  0  0  0  0  0  0  0  0  0
   -7.3404    9.8857   -8.0208 C   0  0  0  0  0  0  0  0  0  0  0  0
   -5.4704   14.2158  -13.3316 C   0  0  0  0  0  0  0  0  0  0  0  0
   -4.5218   15.3458  -13.0035 C   0  0  0  0  0  0  0  0  0  0  0  0
   -5.5814   13.4696  -12.1774 N   0  0  0  0  0  0  0  0  0  0  0  0
   -5.9630   10.4847   -7.7359 C   0  0  0  0  0  0  0  0  0  0  0  0
   -5.8538   11.7563   -7.1621 C   0  0  0  0  0  0  0  0  0  0  0  0
   -4.5953   12.3060   -6.9160 C   0  0  0  0  0  0  0  0  0  0  0  0
   -3.4449   11.5852   -7.2379 C   0  0  0  0  0  0  0  0  0  0  0  0
   -3.5560   10.3115   -7.8043 C   0  0  0  0  0  0  0  0  0  0  0  0
   -4.8130    9.7655   -8.0531 C   0  0  0  0  0  0  0  0  0  0  0  0
   -2.0905   12.1634   -6.9778 C   0  0  0  0  0  0  0  0  0  0  0  0
   -1.7398   13.4211   -6.5005 C   0  0  0  0  0  0  0  0  0  0  0  0
   -0.4007   13.4556   -6.4362 N   0  0  0  0  0  0  0  0  0  0  0  0
    0.1858   12.3500   -6.8082 N   0  0  0  0  0  0  0  0  0  0  0  0
   -0.8018   11.5473   -7.1675 C   0  0  0  0  0  0  0  0  0  0  0  0
    0.4333   14.5672   -6.0053 C   0  0  0  0  0  0  0  0  0  0  0  0
   -6.0131   14.0330  -14.4162 O   0  0  0  0  0  0  0  0  0  0  0  0
   -4.6790   13.9767  -11.1295 C   0  0  0  0  0  0  0  0  0  0  0  0
   -4.0830   15.2556  -11.5883 C   0  0  0  0  0  0  0  0  0  0  0  0
   -6.1181   12.2807   -9.8804 H   0  0  0  0  0  0  0  0  0  0  0  0
   -8.2128   10.0638  -13.8816 H   0  0  0  0  0  0  0  0  0  0  0  0
   -6.8897   12.1539  -14.1098 H   0  0  0  0  0  0  0  0  0  0  0  0
   -8.1901   11.1852  -10.4467 H   0  0  0  0  0  0  0  0  0  0  0  0
   -8.0363    9.5960   -7.2473 H   0  0  0  0  0  0  0  0  0  0  0  0
   -3.6420   15.2835  -13.6609 H   0  0  0  0  0  0  0  0  0  0  0  0
   -5.0325   16.3067  -13.1645 H   0  0  0  0  0  0  0  0  0  0  0  0
   -6.7444   12.3126   -6.9096 H   0  0  0  0  0  0  0  0  0  0  0  0
   -4.5117   13.2890   -6.4765 H   0  0  0  0  0  0  0  0  0  0  0  0
   -2.6662    9.7505   -8.0491 H   0  0  0  0  0  0  0  0  0  0  0  0
   -4.8650    8.8210   -7.4917 H   0  0  0  0  0  0  0  0  0  0  0  0
   -4.8588    9.5541   -9.1316 H   0  0  0  0  0  0  0  0  0  0  0  0
   -2.4169   14.2186   -6.2325 H   0  0  0  0  0  0  0  0  0  0  0  0
   -0.6596   10.5498   -7.5564 H   0  0  0  0  0  0  0  0  0  0  0  0
    1.4925   14.2769   -6.0668 H   0  0  0  0  0  0  0  0  0  0  0  0
    0.2526   15.4350   -6.6567 H   0  0  0  0  0  0  0  0  0  0  0  0
    0.1851   14.8305   -4.9665 H   0  0  0  0  0  0  0  0  0  0  0  0
   -5.2469   14.1452  -10.2026 H   0  0  0  0  0  0  0  0  0  0  0  0
   -3.8809   13.2432  -10.9424 H   0  0  0  0  0  0  0  0  0  0  0  0
   -2.9857   15.2276  -11.5166 H   0  0  0  0  0  0  0  0  0  0  0  0
   -4.4673   16.1029  -11.0014 H   0  0  0  0  0  0  0  0  0  0  0  0
  1  2  2  0  0  0  0
  1  4  1  0  0  0  0
  1 13  1  0  0  0  0
  2  6  1  0  0  0  0
  3  4  2  0  0  0  0
  3  5  1  0  0  0  0
  5  6  1  0  0  0  0
  5  9  2  0  0  0  0
  6  7  1  0  0  0  0
  7  8  2  0  0  0  0
  7 10  1  0  0  0  0
  8  9  1  0  0  0  0
 10 14  2  3  0  0  0
 11 12  1  0  0  0  0
 11 13  1  0  0  0  0
 11 26  2  0  0  0  0
 12 28  1  0  0  0  0
 13 27  1  0  0  0  0
 14 15  1  0  0  0  0
 14 19  1  0  0  0  0
 15 16  2  0  0  0  0
 16 17  1  0  0  0  0
 17 18  2  0  0  0  0
 17 20  1  0  0  0  0
 18 19  1  0  0  0  0
 20 21  2  0  0  0  0
 20 24  1  0  0  0  0
 21 22  1  0  0  0  0
 22 23  1  0  0  0  0
 22 25  1  0  0  0  0
 23 24  2  0  0  0  0
 27 28  1  0  0  0  0
  2 29  1  0  0  0  0
  3 30  1  0  0  0  0
  4 31  1  0  0  0  0
  6 32  1  0  0  0  0
 10 33  1  0  0  0  0
 12 34  1  0  0  0  0
 12 35  1  0  0  0  0
 15 36  1  0  0  0  0
 16 37  1  0  0  0  0
 18 38  1  0  0  0  0
 19 39  1  0  0  0  0
 19 40  1  0  0  0  0
 21 41  1  0  0  0  0
 24 42  1  0  0  0  0
 25 43  1  0  0  0  0
 25 44  1  0  0  0  0
 25 45  1  0  0  0  0
 27 46  1  0  0  0  0
 27 47  1  0  0  0  0
 28 48  1  0  0  0  0
 28 49  1  0  0  0  0
M  END
> <Name>
26

> <IC50[uM]>
0.036

$$$$
26
  -OEChem-05192314333D
 Structure written by MMmdl.
 49 53  0     1  0  0  0  0  0999 V2000
   -6.3961   12.3155  -12.0234 C   0  0  3  0  0  0  0  0  0  0  0  0
   -6.5478   11.7864  -10.7392 C   0  0  0  0  0  0  0  0  0  0  0  0
   -7.7431   10.5278  -13.0269 C   0  0  0  0  0  0  0  0  0  0  0  0
   -7.0034   11.6993  -13.1368 C   0  0  0  0  0  0  0  0  0  0  0  0
   -7.8411    9.9886  -11.7443 C   0  0  0  0  0  0  0  0  0  0  0  0
   -7.2672   10.6062  -10.5986 C   0  0  0  0  0  0  0  0  0  0  0  0
   -7.6276    9.7408   -9.5022 C   0  0  0  0  0  0  0  0  0  0  0  0
   -8.2893    8.7195   -9.9713 N   0  0  0  0  0  0  0  0  0  0  0  0
   -8.4361    8.8492  -11.2847 N   0  0  0  0  0  0  0  0  0  0  0  0
   -7.3404    9.8857   -8.0208 C   0  0  0  0  0  0  0  0  0  0  0  0
   -5.4704   14.2158  -13.3316 C   0  0  0  0  0  0  0  0  0  0  0  0
   -4.5218   15.3458  -13.0035 C   0  0  0  0  0  0  0  0  0  0  0  0
   -5.5814   13.4696  -12.1774 N   0  0  0  0  0  0  0  0  0  0  0  0
   -5.9630   10.4847   -7.7359 C   0  0  0  0  0  0  0  0  0  0  0  0
   -5.8538   11.7563   -7.1621 C   0  0  0  0  0  0  0  0  0  0  0  0
   -4.5953   12.3060   -6.9160 C   0  0  0  0  0  0  0  0  0  0  0  0
   -3.4449   11.5852   -7.2379 C   0  0  0  0  0  0  0  0  0  0  0  0
   -3.5560   10.3115   -7.8043 C   0  0  0  0  0  0  0  0  0  0  0  0
   -4.8130    9.7655   -8.0531 C   0  0  0  0  0  0  0  0  0  0  0  0
   -2.0905   12.1634   -6.9778 C   0  0  0  0  0  0  0  0  0  0  0  0
   -1.7398   13.4211   -6.5005 C   0  0  0  0  0  0  0  0  0  0  0  0
   -0.4007   13.4556   -6.4362 N   0  0  0  0  0  0  0  0  0  0  0  0
    0.1858   12.3500   -6.8082 N   0  0  0  0  0  0  0  0  0  0  0  0
   -0.8018   11.5473   -7.1675 C   0  0  0  0  0  0  0  0  0  0  0  0
    0.4333   14.5672   -6.0053 C   0  0  0  0  0  0  0  0  0  0  0  0
   -6.0131   14.0330  -14.4162 O   0  0  0  0  0  0  0  0  0  0  0  0
   -4.6790   13.9767  -11.1295 C   0  0  0  0  0  0  0  0  0  0  0  0
   -4.0830   15.2556  -11.5883 C   0  0  0  0  0  0  0  0  0  0  0  0
   -7.2833   12.9493  -11.8778 H   0  0  0  0  0  0  0  0  0  0  0  0
   -6.1181   12.2807   -9.8804 H   0  0  0  0  0  0  0  0  0  0  0  0
   -8.2128   10.0638  -13.8816 H   0  0  0  0  0  0  0  0  0  0  0  0
   -6.8897   12.1539  -14.1098 H   0  0  0  0  0  0  0  0  0  0  0  0
   -8.0363    9.5960   -7.2473 H   0  0  0  0  0  0  0  0  0  0  0  0
   -3.6420   15.2835  -13.6609 H   0  0  0  0  0  0  0  0  0  0  0  0
   -5.0325   16.3067  -13.1645 H   0  0  0  0  0  0  0  0  0  0  0  0
   -6.7444   12.3126   -6.9096 H   0  0  0  0  0  0  0  0  0  0  0  0
   -4.5117   13.2890   -6.4765 H   0  0  0  0  0  0  0  0  0  0  0  0
   -2.6662    9.7505   -8.0491 H   0  0  0  0  0  0  0  0  0  0  0  0
   -4.8650    8.8210   -7.4917 H   0  0  0  0  0  0  0  0  0  0  0  0
   -4.8588    9.5541   -9.1316 H   0  0  0  0  0  0  0  0  0  0  0  0
   -2.4169   14.2186   -6.2325 H   0  0  0  0  0  0  0  0  0  0  0  0
   -0.6596   10.5498   -7.5564 H   0  0  0  0  0  0  0  0  0  0  0  0
    1.4925   14.2769   -6.0668 H   0  0  0  0  0  0  0  0  0  0  0  0
    0.2526   15.4350   -6.6567 H   0  0  0  0  0  0  0  0  0  0  0  0
    0.1851   14.8305   -4.9665 H   0  0  0  0  0  0  0  0  0  0  0  0
   -5.2469   14.1452  -10.2026 H   0  0  0  0  0  0  0  0  0  0  0  0
   -3.8809   13.2432  -10.9424 H   0  0  0  0  0  0  0  0  0  0  0  0
   -2.9857   15.2276  -11.5166 H   0  0  0  0  0  0  0  0  0  0  0  0
   -4.4673   16.1029  -11.0014 H   0  0  0  0  0  0  0  0  0  0  0  0
  1  2  1  0  0  0  0
  1  4  1  0  0  0  0
  1 13  1  0  0  0  0
  2  6  2  0  0  0  0
  3  4  2  0  0  0  0
  3  5  1  0  0  0  0
  5  6  1  0  0  0  0
  5  9  2  0  0  0  0
  6  7  1  0  0  0  0
  7  8  2  0  0  0  0
  7 10  1  0  0  0  0
  8  9  1  0  0  0  0
 10 14  2  3  0  0  0
 11 12  1  0  0  0  0
 11 13  1  0  0  0  0
 11 26  2  0  0  0  0
 12 28  1  0  0  0  0
 13 27  1  0  0  0  0
 14 15  1  0  0  0  0
 14 19  1  0  0  0  0
 15 16  2  0  0  0  0
 16 17  1  0  0  0  0
 17 18  2  0  0  0  0
 17 20  1  0  0  0  0
 18 19  1  0  0  0  0
 20 21  2  0  0  0  0
 20 24  1  0  0  0  0
 21 22  1  0  0  0  0
 22 23  1  0  0  0  0
 22 25  1  0  0  0  0
 23 24  2  0  0  0  0
 27 28  1  0  0  0  0
  1 29  1  0  0  0  0
  2 30  1  0  0  0  0
  3 31  1  0  0  0  0
  4 32  1  0  0  0  0
 10 33  1  0  0  0  0
 12 34  1  0  0  0  0
 12 35  1  0  0  0  0
 15 36  1  0  0  0  0
 16 37  1  0  0  0  0
 18 38  1  0  0  0  0
 19 39  1  0  0  0  0
 19 40  1  0  0  0  0
 21 41  1  0  0  0  0
 24 42  1  0  0  0  0
 25 43  1  0  0  0  0
 25 44  1  0  0  0  0
 25 45  1  0  0  0  0
 27 46  1  0  0  0  0
 27 47  1  0  0  0  0
 28 48  1  0  0  0  0
 28 49  1  0  0  0  0
M  END
> <Name>
26

> <IC50[uM]>
0.036

$$$$
26
  -OEChem-05192314333D
 Structure written by MMmdl.
 49 53  0     0  0  0  0  0  0999 V2000
   -6.3961   12.3155  -12.0234 C   0  0  0  0  0  0  0  0  0  0  0  0
   -6.5478   11.7864  -10.7392 C   0  0  0  0  0  0  0  0  0  0  0  0
   -7.7431   10.5278  -13.0269 C   0  0  0  0  0  0  0  0  0  0  0  0
   -7.0034   11.6993  -13.1368 C   0  0  0  0  0  0  0  0  0  0  0  0
   -7.8411    9.9886  -11.7443 C   0  0  0  0  0  0  0  0  0  0  0  0
   -7.2672   10.6062  -10.5986 C   0  0  0  0  0  0  0  0  0  0  0  0
   -7.6276    9.7408   -9.5022 C   0  0  0  0  0  0  0  0  0  0  0  0
   -8.2893    8.7195   -9.9713 N   0  0  0  0  0  0  0  0  0  0  0  0
   -8.4361    8.8492  -11.2847 N   0  0  0  0  0  0  0  0  0  0  0  0
   -7.3404    9.8857   -8.0208 C   0  0  0  0  0  0  0  0  0  0  0  0
   -5.4704   14.2158  -13.3316 C   0  0  0  0  0  0  0  0  0  0  0  0
   -4.5218   15.3458  -13.0035 C   0  0  0  0  0  0  0  0  0  0  0  0
   -5.5814   13.4696  -12.1774 N   0  0  0  0  0  0  0  0  0  0  0  0
   -5.9630   10.4847   -7.7359 C   0  0  0  0  0  0  0  0  0  0  0  0
   -5.8538   11.7563   -7.1621 C   0  0  0  0  0  0  0  0  0  0  0  0
   -4.5953   12.3060   -6.9160 C   0  0  0  0  0  0  0  0  0  0  0  0
   -3.4449   11.5852   -7.2379 C   0  0  0  0  0  0  0  0  0  0  0  0
   -3.5560   10.3115   -7.8043 C   0  0  0  0  0  0  0  0  0  0  0  0
   -4.8130    9.7655   -8.0531 C   0  0  0  0  0  0  0  0  0  0  0  0
   -2.0905   12.1634   -6.9778 C   0  0  0  0  0  0  0  0  0  0  0  0
   -1.7398   13.4211   -6.5005 C   0  0  0  0  0  0  0  0  0  0  0  0
   -0.4007   13.4556   -6.4362 N   0  0  0  0  0  0  0  0  0  0  0  0
    0.1858   12.3500   -6.8082 N   0  0  0  0  0  0  0  0  0  0  0  0
   -0.8018   11.5473   -7.1675 C   0  0  0  0  0  0  0  0  0  0  0  0
    0.4333   14.5672   -6.0053 C   0  0  0  0  0  0  0  0  0  0  0  0
   -6.0131   14.0330  -14.4162 O   0  0  0  0  0  0  0  0  0  0  0  0
   -4.6790   13.9767  -11.1295 C   0  0  0  0  0  0  0  0  0  0  0  0
   -4.0830   15.2556  -11.5883 C   0  0  0  0  0  0  0  0  0  0  0  0
   -6.1181   12.2807   -9.8804 H   0  0  0  0  0  0  0  0  0  0  0  0
   -8.7624   10.7378  -13.3832 H   0  0  0  0  0  0  0  0  0  0  0  0
   -7.2763    9.7721  -13.6757 H   0  0  0  0  0  0  0  0  0  0  0  0
   -6.8897   12.1539  -14.1098 H   0  0  0  0  0  0  0  0  0  0  0  0
   -8.0363    9.5960   -7.2473 H   0  0  0  0  0  0  0  0  0  0  0  0
   -3.6420   15.2835  -13.6609 H   0  0  0  0  0  0  0  0  0  0  0  0
   -5.0325   16.3067  -13.1645 H   0  0  0  0  0  0  0  0  0  0  0  0
   -6.7444   12.3126   -6.9096 H   0  0  0  0  0  0  0  0  0  0  0  0
   -4.5117   13.2890   -6.4765 H   0  0  0  0  0  0  0  0  0  0  0  0
   -2.6662    9.7505   -8.0491 H   0  0  0  0  0  0  0  0  0  0  0  0
   -4.8650    8.8210   -7.4917 H   0  0  0  0  0  0  0  0  0  0  0  0
   -4.8588    9.5541   -9.1316 H   0  0  0  0  0  0  0  0  0  0  0  0
   -2.4169   14.2186   -6.2325 H   0  0  0  0  0  0  0  0  0  0  0  0
   -0.6596   10.5498   -7.5564 H   0  0  0  0  0  0  0  0  0  0  0  0
    1.4925   14.2769   -6.0668 H   0  0  0  0  0  0  0  0  0  0  0  0
    0.2526   15.4350   -6.6567 H   0  0  0  0  0  0  0  0  0  0  0  0
    0.1851   14.8305   -4.9665 H   0  0  0  0  0  0  0  0  0  0  0  0
   -5.2469   14.1452  -10.2026 H   0  0  0  0  0  0  0  0  0  0  0  0
   -3.8809   13.2432  -10.9424 H   0  0  0  0  0  0  0  0  0  0  0  0
   -2.9857   15.2276  -11.5166 H   0  0  0  0  0  0  0  0  0  0  0  0
   -4.4673   16.1029  -11.0014 H   0  0  0  0  0  0  0  0  0  0  0  0
  1  2  1  0  0  0  0
  1  4  2  0  0  0  0
  1 13  1  0  0  0  0
  2  6  2  0  0  0  0
  3  4  1  0  0  0  0
  3  5  1  0  0  0  0
  5  6  1  0  0  0  0
  5  9  2  0  0  0  0
  6  7  1  0  0  0  0
  7  8  2  0  0  0  0
  7 10  1  0  0  0  0
  8  9  1  0  0  0  0
 10 14  2  3  0  0  0
 11 12  1  0  0  0  0
 11 13  1  0  0  0  0
 11 26  2  0  0  0  0
 12 28  1  0  0  0  0
 13 27  1  0  0  0  0
 14 15  1  0  0  0  0
 14 19  1  0  0  0  0
 15 16  2  0  0  0  0
 16 17  1  0  0  0  0
 17 18  2  0  0  0  0
 17 20  1  0  0  0  0
 18 19  1  0  0  0  0
 20 21  2  0  0  0  0
 20 24  1  0  0  0  0
 21 22  1  0  0  0  0
 22 23  1  0  0  0  0
 22 25  1  0  0  0  0
 23 24  2  0  0  0  0
 27 28  1  0  0  0  0
  2 29  1  0  0  0  0
  3 30  1  0  0  0  0
  3 31  1  0  0  0  0
  4 32  1  0  0  0  0
 10 33  1  0  0  0  0
 12 34  1  0  0  0  0
 12 35  1  0  0  0  0
 15 36  1  0  0  0  0
 16 37  1  0  0  0  0
 18 38  1  0  0  0  0
 19 39  1  0  0  0  0
 19 40  1  0  0  0  0
 21 41  1  0  0  0  0
 24 42  1  0  0  0  0
 25 43  1  0  0  0  0
 25 44  1  0  0  0  0
 25 45  1  0  0  0  0
 27 46  1  0  0  0  0
 27 47  1  0  0  0  0
 28 48  1  0  0  0  0
 28 49  1  0  0  0  0
M  END
> <Name>
26

> <IC50[uM]>
0.036

$$$$
26
  -OEChem-05192314333D
 Structure written by MMmdl.
 49 53  0     1  0  0  0  0  0999 V2000
   -6.3961   12.3155  -12.0234 C   0  0  0  0  0  0  0  0  0  0  0  0
   -6.5478   11.7864  -10.7392 C   0  0  0  0  0  0  0  0  0  0  0  0
   -7.7431   10.5278  -13.0269 C   0  0  0  0  0  0  0  0  0  0  0  0
   -7.0034   11.6993  -13.1368 C   0  0  0  0  0  0  0  0  0  0  0  0
   -7.8411    9.9886  -11.7443 C   0  0  3  0  0  0  0  0  0  0  0  0
   -7.2672   10.6062  -10.5986 C   0  0  0  0  0  0  0  0  0  0  0  0
   -7.6276    9.7408   -9.5022 C   0  0  0  0  0  0  0  0  0  0  0  0
   -8.2893    8.7195   -9.9713 N   0  0  0  0  0  0  0  0  0  0  0  0
   -8.4361    8.8492  -11.2847 N   0  0  0  0  0  0  0  0  0  0  0  0
   -7.3404    9.8857   -8.0208 C   0  0  0  0  0  0  0  0  0  0  0  0
   -5.4704   14.2158  -13.3316 C   0  0  0  0  0  0  0  0  0  0  0  0
   -4.5218   15.3458  -13.0035 C   0  0  0  0  0  0  0  0  0  0  0  0
   -5.5814   13.4696  -12.1774 N   0  0  0  0  0  0  0  0  0  0  0  0
   -5.9630   10.4847   -7.7359 C   0  0  0  0  0  0  0  0  0  0  0  0
   -5.8538   11.7563   -7.1621 C   0  0  0  0  0  0  0  0  0  0  0  0
   -4.5953   12.3060   -6.9160 C   0  0  0  0  0  0  0  0  0  0  0  0
   -3.4449   11.5852   -7.2379 C   0  0  0  0  0  0  0  0  0  0  0  0
   -3.5560   10.3115   -7.8043 C   0  0  0  0  0  0  0  0  0  0  0  0
   -4.8130    9.7655   -8.0531 C   0  0  0  0  0  0  0  0  0  0  0  0
   -2.0905   12.1634   -6.9778 C   0  0  0  0  0  0  0  0  0  0  0  0
   -1.7398   13.4211   -6.5005 C   0  0  0  0  0  0  0  0  0  0  0  0
   -0.4007   13.4556   -6.4362 N   0  0  0  0  0  0  0  0  0  0  0  0
    0.1858   12.3500   -6.8082 N   0  0  0  0  0  0  0  0  0  0  0  0
   -0.8018   11.5473   -7.1675 C   0  0  0  0  0  0  0  0  0  0  0  0
    0.4333   14.5672   -6.0053 C   0  0  0  0  0  0  0  0  0  0  0  0
   -6.0131   14.0330  -14.4162 O   0  0  0  0  0  0  0  0  0  0  0  0
   -4.6790   13.9767  -11.1295 C   0  0  0  0  0  0  0  0  0  0  0  0
   -4.0830   15.2556  -11.5883 C   0  0  0  0  0  0  0  0  0  0  0  0
   -6.1181   12.2807   -9.8804 H   0  0  0  0  0  0  0  0  0  0  0  0
   -8.2128   10.0638  -13.8816 H   0  0  0  0  0  0  0  0  0  0  0  0
   -6.8897   12.1539  -14.1098 H   0  0  0  0  0  0  0  0  0  0  0  0
   -8.7752   10.5456  -11.5792 H   0  0  0  0  0  0  0  0  0  0  0  0
   -8.0363    9.5960   -7.2473 H   0  0  0  0  0  0  0  0  0  0  0  0
   -3.6420   15.2835  -13.6609 H   0  0  0  0  0  0  0  0  0  0  0  0
   -5.0325   16.3067  -13.1645 H   0  0  0  0  0  0  0  0  0  0  0  0
   -6.7444   12.3126   -6.9096 H   0  0  0  0  0  0  0  0  0  0  0  0
   -4.5117   13.2890   -6.4765 H   0  0  0  0  0  0  0  0  0  0  0  0
   -3.4442   12.0330   -8.2426 H   0  0  0  0  0  0  0  0  0  0  0  0
   -2.6662    9.7505   -8.0491 H   0  0  0  0  0  0  0  0  0  0  0  0
   -4.8962    8.7826   -8.4928 H   0  0  0  0  0  0  0  0  0  0  0  0
   -2.4169   14.2186   -6.2325 H   0  0  0  0  0  0  0  0  0  0  0  0
   -0.6596   10.5498   -7.5564 H   0  0  0  0  0  0  0  0  0  0  0  0
    1.4925   14.2769   -6.0668 H   0  0  0  0  0  0  0  0  0  0  0  0
    0.2526   15.4350   -6.6567 H   0  0  0  0  0  0  0  0  0  0  0  0
    0.1851   14.8305   -4.9665 H   0  0  0  0  0  0  0  0  0  0  0  0
   -5.2469   14.1452  -10.2026 H   0  0  0  0  0  0  0  0  0  0  0  0
   -3.8809   13.2432  -10.9424 H   0  0  0  0  0  0  0  0  0  0  0  0
   -2.9857   15.2276  -11.5166 H   0  0  0  0  0  0  0  0  0  0  0  0
   -4.4673   16.1029  -11.0014 H   0  0  0  0  0  0  0  0  0  0  0  0
  1  2  2  0  0  0  0
  1  4  1  0  0  0  0
  1 13  1  0  0  0  0
  2  6  1  0  0  0  0
  3  4  2  0  0  0  0
  3  5  1  0  0  0  0
  5  6  1  0  0  0  0
  5  9  1  0  0  0  0
  6  7  2  0  0  0  0
  7  8  1  0  0  0  0
  7 10  1  0  0  0  0
  8  9  2  0  0  0  0
 10 14  2  0  0  0  0
 11 12  1  0  0  0  0
 11 13  1  0  0  0  0
 11 26  2  0  0  0  0
 12 28  1  0  0  0  0
 13 27  1  0  0  0  0
 14 15  1  0  0  0  0
 14 19  1  0  0  0  0
 15 16  2  0  0  0  0
 16 17  1  0  0  0  0
 17 18  1  0  0  0  0
 17 20  1  0  0  0  0
 18 19  2  0  0  0  0
 20 21  2  0  0  0  0
 20 24  1  0  0  0  0
 21 22  1  0  0  0  0
 22 23  1  0  0  0  0
 22 25  1  0  0  0  0
 23 24  2  0  0  0  0
 27 28  1  0  0  0  0
  2 29  1  0  0  0  0
  3 30  1  0  0  0  0
  4 31  1  0  0  0  0
  5 32  1  0  0  0  0
 10 33  1  0  0  0  0
 12 34  1  0  0  0  0
 12 35  1  0  0  0  0
 15 36  1  0  0  0  0
 16 37  1  0  0  0  0
 17 38  1  0  0  0  0
 18 39  1  0  0  0  0
 19 40  1  0  0  0  0
 21 41  1  0  0  0  0
 24 42  1  0  0  0  0
 25 43  1  0  0  0  0
 25 44  1  0  0  0  0
 25 45  1  0  0  0  0
 27 46  1  0  0  0  0
 27 47  1  0  0  0  0
 28 48  1  0  0  0  0
 28 49  1  0  0  0  0
M  END
> <Name>
26

> <IC50[uM]>
0.036

$$$$
26
  -OEChem-05192314333D
 Structure written by MMmdl.
 49 53  0     0  0  0  0  0  0999 V2000
   -6.3961   12.3155  -12.0234 C   0  0  0  0  0  0  0  0  0  0  0  0
   -6.5478   11.7864  -10.7392 C   0  0  0  0  0  0  0  0  0  0  0  0
   -7.7431   10.5278  -13.0269 C   0  0  0  0  0  0  0  0  0  0  0  0
   -7.0034   11.6993  -13.1368 C   0  0  0  0  0  0  0  0  0  0  0  0
   -7.8411    9.9886  -11.7443 C   0  0  0  0  0  0  0  0  0  0  0  0
   -7.2672   10.6062  -10.5986 C   0  0  0  0  0  0  0  0  0  0  0  0
   -7.6276    9.7408   -9.5022 C   0  0  0  0  0  0  0  0  0  0  0  0
   -8.2893    8.7195   -9.9713 N   0  0  0  0  0  0  0  0  0  0  0  0
   -8.4361    8.8492  -11.2847 N   0  0  0  0  0  0  0  0  0  0  0  0
   -7.3404    9.8857   -8.0208 C   0  0  0  0  0  0  0  0  0  0  0  0
   -5.4704   14.2158  -13.3316 C   0  0  0  0  0  0  0  0  0  0  0  0
   -4.5218   15.3458  -13.0035 C   0  0  0  0  0  0  0  0  0  0  0  0
   -5.5814   13.4696  -12.1774 N   0  0  0  0  0  0  0  0  0  0  0  0
   -5.9630   10.4847   -7.7359 C   0  0  0  0  0  0  0  0  0  0  0  0
   -5.8538   11.7563   -7.1621 C   0  0  0  0  0  0  0  0  0  0  0  0
   -4.5953   12.3060   -6.9160 C   0  0  0  0  0  0  0  0  0  0  0  0
   -3.4449   11.5852   -7.2379 C   0  0  0  0  0  0  0  0  0  0  0  0
   -3.5560   10.3115   -7.8043 C   0  0  0  0  0  0  0  0  0  0  0  0
   -4.8130    9.7655   -8.0531 C   0  0  0  0  0  0  0  0  0  0  0  0
   -2.0905   12.1634   -6.9778 C   0  0  0  0  0  0  0  0  0  0  0  0
   -1.7398   13.4211   -6.5005 C   0  0  0  0  0  0  0  0  0  0  0  0
   -0.4007   13.4556   -6.4362 N   0  0  0  0  0  0  0  0  0  0  0  0
    0.1858   12.3500   -6.8082 N   0  0  0  0  0  0  0  0  0  0  0  0
   -0.8018   11.5473   -7.1675 C   0  0  0  0  0  0  0  0  0  0  0  0
    0.4333   14.5672   -6.0053 C   0  0  0  0  0  0  0  0  0  0  0  0
   -6.0131   14.0330  -14.4162 O   0  0  0  0  0  0  0  0  0  0  0  0
   -4.6790   13.9767  -11.1295 C   0  0  0  0  0  0  0  0  0  0  0  0
   -4.0830   15.2556  -11.5883 C   0  0  0  0  0  0  0  0  0  0  0  0
   -6.1181   12.2807   -9.8804 H   0  0  0  0  0  0  0  0  0  0  0  0
   -8.2128   10.0638  -13.8816 H   0  0  0  0  0  0  0  0  0  0  0  0
   -7.6809   12.4497  -13.5703 H   0  0  0  0  0  0  0  0  0  0  0  0
   -6.1921   11.4836  -13.8477 H   0  0  0  0  0  0  0  0  0  0  0  0
   -8.0363    9.5960   -7.2473 H   0  0  0  0  0  0  0  0  0  0  0  0
   -3.6420   15.2835  -13.6609 H   0  0  0  0  0  0  0  0  0  0  0  0
   -5.0325   16.3067  -13.1645 H   0  0  0  0  0  0  0  0  0  0  0  0
   -6.7444   12.3126   -6.9096 H   0  0  0  0  0  0  0  0  0  0  0  0
   -4.5117   13.2890   -6.4765 H   0  0  0  0  0  0  0  0  0  0  0  0
   -3.4442   12.0330   -8.2426 H   0  0  0  0  0  0  0  0  0  0  0  0
   -2.6662    9.7505   -8.0491 H   0  0  0  0  0  0  0  0  0  0  0  0
   -4.8962    8.7826   -8.4928 H   0  0  0  0  0  0  0  0  0  0  0  0
   -2.4169   14.2186   -6.2325 H   0  0  0  0  0  0  0  0  0  0  0  0
   -0.6596   10.5498   -7.5564 H   0  0  0  0  0  0  0  0  0  0  0  0
    1.4925   14.2769   -6.0668 H   0  0  0  0  0  0  0  0  0  0  0  0
    0.2526   15.4350   -6.6567 H   0  0  0  0  0  0  0  0  0  0  0  0
    0.1851   14.8305   -4.9665 H   0  0  0  0  0  0  0  0  0  0  0  0
   -5.2469   14.1452  -10.2026 H   0  0  0  0  0  0  0  0  0  0  0  0
   -3.8809   13.2432  -10.9424 H   0  0  0  0  0  0  0  0  0  0  0  0
   -2.9857   15.2276  -11.5166 H   0  0  0  0  0  0  0  0  0  0  0  0
   -4.4673   16.1029  -11.0014 H   0  0  0  0  0  0  0  0  0  0  0  0
  1  2  2  0  0  0  0
  1  4  1  0  0  0  0
  1 13  1  0  0  0  0
  2  6  1  0  0  0  0
  3  4  1  0  0  0  0
  3  5  2  0  0  0  0
  5  6  1  0  0  0  0
  5  9  1  0  0  0  0
  6  7  2  0  0  0  0
  7  8  1  0  0  0  0
  7 10  1  0  0  0  0
  8  9  2  0  0  0  0
 10 14  2  0  0  0  0
 11 12  1  0  0  0  0
 11 13  1  0  0  0  0
 11 26  2  0  0  0  0
 12 28  1  0  0  0  0
 13 27  1  0  0  0  0
 14 15  1  0  0  0  0
 14 19  1  0  0  0  0
 15 16  2  0  0  0  0
 16 17  1  0  0  0  0
 17 18  1  0  0  0  0
 17 20  1  0  0  0  0
 18 19  2  0  0  0  0
 20 21  2  0  0  0  0
 20 24  1  0  0  0  0
 21 22  1  0  0  0  0
 22 23  1  0  0  0  0
 22 25  1  0  0  0  0
 23 24  2  0  0  0  0
 27 28  1  0  0  0  0
  2 29  1  0  0  0  0
  3 30  1  0  0  0  0
  4 31  1  0  0  0  0
  4 32  1  0  0  0  0
 10 33  1  0  0  0  0
 12 34  1  0  0  0  0
 12 35  1  0  0  0  0
 15 36  1  0  0  0  0
 16 37  1  0  0  0  0
 17 38  1  0  0  0  0
 18 39  1  0  0  0  0
 19 40  1  0  0  0  0
 21 41  1  0  0  0  0
 24 42  1  0  0  0  0
 25 43  1  0  0  0  0
 25 44  1  0  0  0  0
 25 45  1  0  0  0  0
 27 46  1  0  0  0  0
 27 47  1  0  0  0  0
 28 48  1  0  0  0  0
 28 49  1  0  0  0  0
M  END
> <Name>
26

> <IC50[uM]>
0.036

$$$$
26
  -OEChem-05192314333D
 Structure written by MMmdl.
 49 53  0     1  0  0  0  0  0999 V2000
   -6.3961   12.3155  -12.0234 C   0  0  0  0  0  0  0  0  0  0  0  0
   -6.5478   11.7864  -10.7392 C   0  0  0  0  0  0  0  0  0  0  0  0
   -7.7431   10.5278  -13.0269 C   0  0  0  0  0  0  0  0  0  0  0  0
   -7.0034   11.6993  -13.1368 C   0  0  0  0  0  0  0  0  0  0  0  0
   -7.8411    9.9886  -11.7443 C   0  0  3  0  0  0  0  0  0  0  0  0
   -7.2672   10.6062  -10.5986 C   0  0  0  0  0  0  0  0  0  0  0  0
   -7.6276    9.7408   -9.5022 C   0  0  0  0  0  0  0  0  0  0  0  0
   -8.2893    8.7195   -9.9713 N   0  0  0  0  0  0  0  0  0  0  0  0
   -8.4361    8.8492  -11.2847 N   0  0  0  0  0  0  0  0  0  0  0  0
   -7.3404    9.8857   -8.0208 C   0  0  0  0  0  0  0  0  0  0  0  0
   -5.4704   14.2158  -13.3316 C   0  0  0  0  0  0  0  0  0  0  0  0
   -4.5218   15.3458  -13.0035 C   0  0  0  0  0  0  0  0  0  0  0  0
   -5.5814   13.4696  -12.1774 N   0  0  0  0  0  0  0  0  0  0  0  0
   -5.9630   10.4847   -7.7359 C   0  0  0  0  0  0  0  0  0  0  0  0
   -5.8538   11.7563   -7.1621 C   0  0  0  0  0  0  0  0  0  0  0  0
   -4.5953   12.3060   -6.9160 C   0  0  0  0  0  0  0  0  0  0  0  0
   -3.4449   11.5852   -7.2379 C   0  0  0  0  0  0  0  0  0  0  0  0
   -3.5560   10.3115   -7.8043 C   0  0  0  0  0  0  0  0  0  0  0  0
   -4.8130    9.7655   -8.0531 C   0  0  0  0  0  0  0  0  0  0  0  0
   -2.0905   12.1634   -6.9778 C   0  0  0  0  0  0  0  0  0  0  0  0
   -1.7398   13.4211   -6.5005 C   0  0  0  0  0  0  0  0  0  0  0  0
   -0.4007   13.4556   -6.4362 N   0  0  0  0  0  0  0  0  0  0  0  0
    0.1858   12.3500   -6.8082 N   0  0  0  0  0  0  0  0  0  0  0  0
   -0.8018   11.5473   -7.1675 C   0  0  0  0  0  0  0  0  0  0  0  0
    0.4333   14.5672   -6.0053 C   0  0  0  0  0  0  0  0  0  0  0  0
   -6.0131   14.0330  -14.4162 O   0  0  0  0  0  0  0  0  0  0  0  0
   -4.6790   13.9767  -11.1295 C   0  0  0  0  0  0  0  0  0  0  0  0
   -4.0830   15.2556  -11.5883 C   0  0  0  0  0  0  0  0  0  0  0  0
   -6.1181   12.2807   -9.8804 H   0  0  0  0  0  0  0  0  0  0  0  0
   -8.2128   10.0638  -13.8816 H   0  0  0  0  0  0  0  0  0  0  0  0
   -6.8897   12.1539  -14.1098 H   0  0  0  0  0  0  0  0  0  0  0  0
   -8.7752   10.5456  -11.5792 H   0  0  0  0  0  0  0  0  0  0  0  0
   -8.0363    9.5960   -7.2473 H   0  0  0  0  0  0  0  0  0  0  0  0
   -3.6420   15.2835  -13.6609 H   0  0  0  0  0  0  0  0  0  0  0  0
   -5.0325   16.3067  -13.1645 H   0  0  0  0  0  0  0  0  0  0  0  0
   -6.7444   12.3126   -6.9096 H   0  0  0  0  0  0  0  0  0  0  0  0
   -4.5117   13.2890   -6.4765 H   0  0  0  0  0  0  0  0  0  0  0  0
   -2.6662    9.7505   -8.0491 H   0  0  0  0  0  0  0  0  0  0  0  0
   -4.8650    8.8210   -7.4917 H   0  0  0  0  0  0  0  0  0  0  0  0
   -4.8588    9.5541   -9.1316 H   0  0  0  0  0  0  0  0  0  0  0  0
   -2.4169   14.2186   -6.2325 H   0  0  0  0  0  0  0  0  0  0  0  0
   -0.6596   10.5498   -7.5564 H   0  0  0  0  0  0  0  0  0  0  0  0
    1.4925   14.2769   -6.0668 H   0  0  0  0  0  0  0  0  0  0  0  0
    0.2526   15.4350   -6.6567 H   0  0  0  0  0  0  0  0  0  0  0  0
    0.1851   14.8305   -4.9665 H   0  0  0  0  0  0  0  0  0  0  0  0
   -5.2469   14.1452  -10.2026 H   0  0  0  0  0  0  0  0  0  0  0  0
   -3.8809   13.2432  -10.9424 H   0  0  0  0  0  0  0  0  0  0  0  0
   -2.9857   15.2276  -11.5166 H   0  0  0  0  0  0  0  0  0  0  0  0
   -4.4673   16.1029  -11.0014 H   0  0  0  0  0  0  0  0  0  0  0  0
  1  2  2  0  0  0  0
  1  4  1  0  0  0  0
  1 13  1  0  0  0  0
  2  6  1  0  0  0  0
  3  4  2  0  0  0  0
  3  5  1  0  0  0  0
  5  6  1  0  0  0  0
  5  9  1  0  0  0  0
  6  7  2  0  0  0  0
  7  8  1  0  0  0  0
  7 10  1  0  0  0  0
  8  9  2  0  0  0  0
 10 14  2  3  0  0  0
 11 12  1  0  0  0  0
 11 13  1  0  0  0  0
 11 26  2  0  0  0  0
 12 28  1  0  0  0  0
 13 27  1  0  0  0  0
 14 15  1  0  0  0  0
 14 19  1  0  0  0  0
 15 16  2  0  0  0  0
 16 17  1  0  0  0  0
 17 18  2  0  0  0  0
 17 20  1  0  0  0  0
 18 19  1  0  0  0  0
 20 21  2  0  0  0  0
 20 24  1  0  0  0  0
 21 22  1  0  0  0  0
 22 23  1  0  0  0  0
 22 25  1  0  0  0  0
 23 24  2  0  0  0  0
 27 28  1  0  0  0  0
  2 29  1  0  0  0  0
  3 30  1  0  0  0  0
  4 31  1  0  0  0  0
  5 32  1  0  0  0  0
 10 33  1  0  0  0  0
 12 34  1  0  0  0  0
 12 35  1  0  0  0  0
 15 36  1  0  0  0  0
 16 37  1  0  0  0  0
 18 38  1  0  0  0  0
 19 39  1  0  0  0  0
 19 40  1  0  0  0  0
 21 41  1  0  0  0  0
 24 42  1  0  0  0  0
 25 43  1  0  0  0  0
 25 44  1  0  0  0  0
 25 45  1  0  0  0  0
 27 46  1  0  0  0  0
 27 47  1  0  0  0  0
 28 48  1  0  0  0  0
 28 49  1  0  0  0  0
M  END
> <Name>
26

> <IC50[uM]>
0.036

$$$$
26
  -OEChem-05192314333D
 Structure written by MMmdl.
 49 53  0     0  0  0  0  0  0999 V2000
   -6.3961   12.3155  -12.0234 C   0  0  0  0  0  0  0  0  0  0  0  0
   -6.5478   11.7864  -10.7392 C   0  0  0  0  0  0  0  0  0  0  0  0
   -7.7431   10.5278  -13.0269 C   0  0  0  0  0  0  0  0  0  0  0  0
   -7.0034   11.6993  -13.1368 C   0  0  0  0  0  0  0  0  0  0  0  0
   -7.8411    9.9886  -11.7443 C   0  0  0  0  0  0  0  0  0  0  0  0
   -7.2672   10.6062  -10.5986 C   0  0  0  0  0  0  0  0  0  0  0  0
   -7.6276    9.7408   -9.5022 C   0  0  0  0  0  0  0  0  0  0  0  0
   -8.2893    8.7195   -9.9713 N   0  0  0  0  0  0  0  0  0  0  0  0
   -8.4361    8.8492  -11.2847 N   0  0  0  0  0  0  0  0  0  0  0  0
   -7.3404    9.8857   -8.0208 C   0  0  0  0  0  0  0  0  0  0  0  0
   -5.4704   14.2158  -13.3316 C   0  0  0  0  0  0  0  0  0  0  0  0
   -4.5218   15.3458  -13.0035 C   0  0  0  0  0  0  0  0  0  0  0  0
   -5.5814   13.4696  -12.1774 N   0  0  0  0  0  0  0  0  0  0  0  0
   -5.9630   10.4847   -7.7359 C   0  0  0  0  0  0  0  0  0  0  0  0
   -5.8538   11.7563   -7.1621 C   0  0  0  0  0  0  0  0  0  0  0  0
   -4.5953   12.3060   -6.9160 C   0  0  0  0  0  0  0  0  0  0  0  0
   -3.4449   11.5852   -7.2379 C   0  0  0  0  0  0  0  0  0  0  0  0
   -3.5560   10.3115   -7.8043 C   0  0  0  0  0  0  0  0  0  0  0  0
   -4.8130    9.7655   -8.0531 C   0  0  0  0  0  0  0  0  0  0  0  0
   -2.0905   12.1634   -6.9778 C   0  0  0  0  0  0  0  0  0  0  0  0
   -1.7398   13.4211   -6.5005 C   0  0  0  0  0  0  0  0  0  0  0  0
   -0.4007   13.4556   -6.4362 N   0  0  0  0  0  0  0  0  0  0  0  0
    0.1858   12.3500   -6.8082 N   0  0  0  0  0  0  0  0  0  0  0  0
   -0.8018   11.5473   -7.1675 C   0  0  0  0  0  0  0  0  0  0  0  0
    0.4333   14.5672   -6.0053 C   0  0  0  0  0  0  0  0  0  0  0  0
   -6.0131   14.0330  -14.4162 O   0  0  0  0  0  0  0  0  0  0  0  0
   -4.6790   13.9767  -11.1295 C   0  0  0  0  0  0  0  0  0  0  0  0
   -4.0830   15.2556  -11.5883 C   0  0  0  0  0  0  0  0  0  0  0  0
   -6.1181   12.2807   -9.8804 H   0  0  0  0  0  0  0  0  0  0  0  0
   -8.2128   10.0638  -13.8816 H   0  0  0  0  0  0  0  0  0  0  0  0
   -7.6809   12.4497  -13.5703 H   0  0  0  0  0  0  0  0  0  0  0  0
   -6.1921   11.4836  -13.8477 H   0  0  0  0  0  0  0  0  0  0  0  0
   -8.0363    9.5960   -7.2473 H   0  0  0  0  0  0  0  0  0  0  0  0
   -3.6420   15.2835  -13.6609 H   0  0  0  0  0  0  0  0  0  0  0  0
   -5.0325   16.3067  -13.1645 H   0  0  0  0  0  0  0  0  0  0  0  0
   -6.7444   12.3126   -6.9096 H   0  0  0  0  0  0  0  0  0  0  0  0
   -4.5117   13.2890   -6.4765 H   0  0  0  0  0  0  0  0  0  0  0  0
   -2.6662    9.7505   -8.0491 H   0  0  0  0  0  0  0  0  0  0  0  0
   -4.8650    8.8210   -7.4917 H   0  0  0  0  0  0  0  0  0  0  0  0
   -4.8588    9.5541   -9.1316 H   0  0  0  0  0  0  0  0  0  0  0  0
   -2.4169   14.2186   -6.2325 H   0  0  0  0  0  0  0  0  0  0  0  0
   -0.6596   10.5498   -7.5564 H   0  0  0  0  0  0  0  0  0  0  0  0
    1.4925   14.2769   -6.0668 H   0  0  0  0  0  0  0  0  0  0  0  0
    0.2526   15.4350   -6.6567 H   0  0  0  0  0  0  0  0  0  0  0  0
    0.1851   14.8305   -4.9665 H   0  0  0  0  0  0  0  0  0  0  0  0
   -5.2469   14.1452  -10.2026 H   0  0  0  0  0  0  0  0  0  0  0  0
   -3.8809   13.2432  -10.9424 H   0  0  0  0  0  0  0  0  0  0  0  0
   -2.9857   15.2276  -11.5166 H   0  0  0  0  0  0  0  0  0  0  0  0
   -4.4673   16.1029  -11.0014 H   0  0  0  0  0  0  0  0  0  0  0  0
  1  2  2  0  0  0  0
  1  4  1  0  0  0  0
  1 13  1  0  0  0  0
  2  6  1  0  0  0  0
  3  4  1  0  0  0  0
  3  5  2  0  0  0  0
  5  6  1  0  0  0  0
  5  9  1  0  0  0  0
  6  7  2  0  0  0  0
  7  8  1  0  0  0  0
  7 10  1  0  0  0  0
  8  9  2  0  0  0  0
 10 14  2  3  0  0  0
 11 12  1  0  0  0  0
 11 13  1  0  0  0  0
 11 26  2  0  0  0  0
 12 28  1  0  0  0  0
 13 27  1  0  0  0  0
 14 15  1  0  0  0  0
 14 19  1  0  0  0  0
 15 16  2  0  0  0  0
 16 17  1  0  0  0  0
 17 18  2  0  0  0  0
 17 20  1  0  0  0  0
 18 19  1  0  0  0  0
 20 21  2  0  0  0  0
 20 24  1  0  0  0  0
 21 22  1  0  0  0  0
 22 23  1  0  0  0  0
 22 25  1  0  0  0  0
 23 24  2  0  0  0  0
 27 28  1  0  0  0  0
  2 29  1  0  0  0  0
  3 30  1  0  0  0  0
  4 31  1  0  0  0  0
  4 32  1  0  0  0  0
 10 33  1  0  0  0  0
 12 34  1  0  0  0  0
 12 35  1  0  0  0  0
 15 36  1  0  0  0  0
 16 37  1  0  0  0  0
 18 38  1  0  0  0  0
 19 39  1  0  0  0  0
 19 40  1  0  0  0  0
 21 41  1  0  0  0  0
 24 42  1  0  0  0  0
 25 43  1  0  0  0  0
 25 44  1  0  0  0  0
 25 45  1  0  0  0  0
 27 46  1  0  0  0  0
 27 47  1  0  0  0  0
 28 48  1  0  0  0  0
 28 49  1  0  0  0  0
M  END
> <Name>
26

> <IC50[uM]>
0.036

$$$$
26
  -OEChem-05192314333D
 Structure written by MMmdl.
 49 53  0     0  0  0  0  0  0999 V2000
   -6.3961   12.3155  -12.0234 C   0  0  0  0  0  0  0  0  0  0  0  0
   -6.5478   11.7864  -10.7392 C   0  0  0  0  0  0  0  0  0  0  0  0
   -7.7431   10.5278  -13.0269 C   0  0  0  0  0  0  0  0  0  0  0  0
   -7.0034   11.6993  -13.1368 C   0  0  0  0  0  0  0  0  0  0  0  0
   -7.8411    9.9886  -11.7443 C   0  0  0  0  0  0  0  0  0  0  0  0
   -7.2672   10.6062  -10.5986 C   0  0  0  0  0  0  0  0  0  0  0  0
   -7.6276    9.7408   -9.5022 C   0  0  0  0  0  0  0  0  0  0  0  0
   -8.2893    8.7195   -9.9713 N   0  0  0  0  0  0  0  0  0  0  0  0
   -8.4361    8.8492  -11.2847 N   0  0  0  0  0  0  0  0  0  0  0  0
   -7.3404    9.8857   -8.0208 C   0  0  0  0  0  0  0  0  0  0  0  0
   -5.4704   14.2158  -13.3316 C   0  0  0  0  0  0  0  0  0  0  0  0
   -4.5218   15.3458  -13.0035 C   0  0  0  0  0  0  0  0  0  0  0  0
   -5.5814   13.4696  -12.1774 N   0  0  0  0  0  0  0  0  0  0  0  0
   -5.9630   10.4847   -7.7359 C   0  0  0  0  0  0  0  0  0  0  0  0
   -5.8538   11.7563   -7.1621 C   0  0  0  0  0  0  0  0  0  0  0  0
   -4.5953   12.3060   -6.9160 C   0  0  0  0  0  0  0  0  0  0  0  0
   -3.4449   11.5852   -7.2379 C   0  0  0  0  0  0  0  0  0  0  0  0
   -3.5560   10.3115   -7.8043 C   0  0  0  0  0  0  0  0  0  0  0  0
   -4.8130    9.7655   -8.0531 C   0  0  0  0  0  0  0  0  0  0  0  0
   -2.0905   12.1634   -6.9778 C   0  0  0  0  0  0  0  0  0  0  0  0
   -1.7398   13.4211   -6.5005 C   0  0  0  0  0  0  0  0  0  0  0  0
   -0.4007   13.4556   -6.4362 N   0  0  0  0  0  0  0  0  0  0  0  0
    0.1858   12.3500   -6.8082 N   0  0  0  0  0  0  0  0  0  0  0  0
   -0.8018   11.5473   -7.1675 C   0  0  0  0  0  0  0  0  0  0  0  0
    0.4333   14.5672   -6.0053 C   0  0  0  0  0  0  0  0  0  0  0  0
   -6.0131   14.0330  -14.4162 O   0  0  0  0  0  0  0  0  0  0  0  0
   -4.6790   13.9767  -11.1295 C   0  0  0  0  0  0  0  0  0  0  0  0
   -4.0830   15.2556  -11.5883 C   0  0  0  0  0  0  0  0  0  0  0  0
   -5.5392   11.6037  -10.3400 H   0  0  0  0  0  0  0  0  0  0  0  0
   -7.0511   12.5504  -10.1285 H   0  0  0  0  0  0  0  0  0  0  0  0
   -8.2128   10.0638  -13.8816 H   0  0  0  0  0  0  0  0  0  0  0  0
   -6.8897   12.1539  -14.1098 H   0  0  0  0  0  0  0  0  0  0  0  0
   -8.0363    9.5960   -7.2473 H   0  0  0  0  0  0  0  0  0  0  0  0
   -3.6420   15.2835  -13.6609 H   0  0  0  0  0  0  0  0  0  0  0  0
   -5.0325   16.3067  -13.1645 H   0  0  0  0  0  0  0  0  0  0  0  0
   -6.7444   12.3126   -6.9096 H   0  0  0  0  0  0  0  0  0  0  0  0
   -4.5117   13.2890   -6.4765 H   0  0  0  0  0  0  0  0  0  0  0  0
   -3.4442   12.0330   -8.2426 H   0  0  0  0  0  0  0  0  0  0  0  0
   -2.6662    9.7505   -8.0491 H   0  0  0  0  0  0  0  0  0  0  0  0
   -4.8962    8.7826   -8.4928 H   0  0  0  0  0  0  0  0  0  0  0  0
   -2.4169   14.2186   -6.2325 H   0  0  0  0  0  0  0  0  0  0  0  0
   -0.6596   10.5498   -7.5564 H   0  0  0  0  0  0  0  0  0  0  0  0
    1.4925   14.2769   -6.0668 H   0  0  0  0  0  0  0  0  0  0  0  0
    0.2526   15.4350   -6.6567 H   0  0  0  0  0  0  0  0  0  0  0  0
    0.1851   14.8305   -4.9665 H   0  0  0  0  0  0  0  0  0  0  0  0
   -5.2469   14.1452  -10.2026 H   0  0  0  0  0  0  0  0  0  0  0  0
   -3.8809   13.2432  -10.9424 H   0  0  0  0  0  0  0  0  0  0  0  0
   -2.9857   15.2276  -11.5166 H   0  0  0  0  0  0  0  0  0  0  0  0
   -4.4673   16.1029  -11.0014 H   0  0  0  0  0  0  0  0  0  0  0  0
  1  2  1  0  0  0  0
  1  4  2  0  0  0  0
  1 13  1  0  0  0  0
  2  6  1  0  0  0  0
  3  4  1  0  0  0  0
  3  5  2  0  0  0  0
  5  6  1  0  0  0  0
  5  9  1  0  0  0  0
  6  7  2  0  0  0  0
  7  8  1  0  0  0  0
  7 10  1  0  0  0  0
  8  9  2  0  0  0  0
 10 14  2  0  0  0  0
 11 12  1  0  0  0  0
 11 13  1  0  0  0  0
 11 26  2  0  0  0  0
 12 28  1  0  0  0  0
 13 27  1  0  0  0  0
 14 15  1  0  0  0  0
 14 19  1  0  0  0  0
 15 16  2  0  0  0  0
 16 17  1  0  0  0  0
 17 18  1  0  0  0  0
 17 20  1  0  0  0  0
 18 19  2  0  0  0  0
 20 21  2  0  0  0  0
 20 24  1  0  0  0  0
 21 22  1  0  0  0  0
 22 23  1  0  0  0  0
 22 25  1  0  0  0  0
 23 24  2  0  0  0  0
 27 28  1  0  0  0  0
  2 29  1  0  0  0  0
  2 30  1  0  0  0  0
  3 31  1  0  0  0  0
  4 32  1  0  0  0  0
 10 33  1  0  0  0  0
 12 34  1  0  0  0  0
 12 35  1  0  0  0  0
 15 36  1  0  0  0  0
 16 37  1  0  0  0  0
 17 38  1  0  0  0  0
 18 39  1  0  0  0  0
 19 40  1  0  0  0  0
 21 41  1  0  0  0  0
 24 42  1  0  0  0  0
 25 43  1  0  0  0  0
 25 44  1  0  0  0  0
 25 45  1  0  0  0  0
 27 46  1  0  0  0  0
 27 47  1  0  0  0  0
 28 48  1  0  0  0  0
 28 49  1  0  0  0  0
M  END
> <Name>
26

> <IC50[uM]>
0.036

$$$$
26
  -OEChem-05192314333D
 Structure written by MMmdl.
 49 53  0     0  0  0  0  0  0999 V2000
   -6.3961   12.3155  -12.0234 C   0  0  0  0  0  0  0  0  0  0  0  0
   -6.5478   11.7864  -10.7392 C   0  0  0  0  0  0  0  0  0  0  0  0
   -7.7431   10.5278  -13.0269 C   0  0  0  0  0  0  0  0  0  0  0  0
   -7.0034   11.6993  -13.1368 C   0  0  0  0  0  0  0  0  0  0  0  0
   -7.8411    9.9886  -11.7443 C   0  0  0  0  0  0  0  0  0  0  0  0
   -7.2672   10.6062  -10.5986 C   0  0  0  0  0  0  0  0  0  0  0  0
   -7.6276    9.7408   -9.5022 C   0  0  0  0  0  0  0  0  0  0  0  0
   -8.2893    8.7195   -9.9713 N   0  0  0  0  0  0  0  0  0  0  0  0
   -8.4361    8.8492  -11.2847 N   0  0  0  0  0  0  0  0  0  0  0  0
   -7.3404    9.8857   -8.0208 C   0  0  0  0  0  0  0  0  0  0  0  0
   -5.4704   14.2158  -13.3316 C   0  0  0  0  0  0  0  0  0  0  0  0
   -4.5218   15.3458  -13.0035 C   0  0  0  0  0  0  0  0  0  0  0  0
   -5.5814   13.4696  -12.1774 N   0  0  0  0  0  0  0  0  0  0  0  0
   -5.9630   10.4847   -7.7359 C   0  0  0  0  0  0  0  0  0  0  0  0
   -5.8538   11.7563   -7.1621 C   0  0  0  0  0  0  0  0  0  0  0  0
   -4.5953   12.3060   -6.9160 C   0  0  0  0  0  0  0  0  0  0  0  0
   -3.4449   11.5852   -7.2379 C   0  0  0  0  0  0  0  0  0  0  0  0
   -3.5560   10.3115   -7.8043 C   0  0  0  0  0  0  0  0  0  0  0  0
   -4.8130    9.7655   -8.0531 C   0  0  0  0  0  0  0  0  0  0  0  0
   -2.0905   12.1634   -6.9778 C   0  0  0  0  0  0  0  0  0  0  0  0
   -1.7398   13.4211   -6.5005 C   0  0  0  0  0  0  0  0  0  0  0  0
   -0.4007   13.4556   -6.4362 N   0  0  0  0  0  0  0  0  0  0  0  0
    0.1858   12.3500   -6.8082 N   0  0  0  0  0  0  0  0  0  0  0  0
   -0.8018   11.5473   -7.1675 C   0  0  0  0  0  0  0  0  0  0  0  0
    0.4333   14.5672   -6.0053 C   0  0  0  0  0  0  0  0  0  0  0  0
   -6.0131   14.0330  -14.4162 O   0  0  0  0  0  0  0  0  0  0  0  0
   -4.6790   13.9767  -11.1295 C   0  0  0  0  0  0  0  0  0  0  0  0
   -4.0830   15.2556  -11.5883 C   0  0  0  0  0  0  0  0  0  0  0  0
   -5.5392   11.6037  -10.3400 H   0  0  0  0  0  0  0  0  0  0  0  0
   -7.0511   12.5504  -10.1285 H   0  0  0  0  0  0  0  0  0  0  0  0
   -8.2128   10.0638  -13.8816 H   0  0  0  0  0  0  0  0  0  0  0  0
   -6.8897   12.1539  -14.1098 H   0  0  0  0  0  0  0  0  0  0  0  0
   -8.0363    9.5960   -7.2473 H   0  0  0  0  0  0  0  0  0  0  0  0
   -3.6420   15.2835  -13.6609 H   0  0  0  0  0  0  0  0  0  0  0  0
   -5.0325   16.3067  -13.1645 H   0  0  0  0  0  0  0  0  0  0  0  0
   -6.7444   12.3126   -6.9096 H   0  0  0  0  0  0  0  0  0  0  0  0
   -4.5117   13.2890   -6.4765 H   0  0  0  0  0  0  0  0  0  0  0  0
   -2.6662    9.7505   -8.0491 H   0  0  0  0  0  0  0  0  0  0  0  0
   -4.8650    8.8210   -7.4917 H   0  0  0  0  0  0  0  0  0  0  0  0
   -4.8588    9.5541   -9.1316 H   0  0  0  0  0  0  0  0  0  0  0  0
   -2.4169   14.2186   -6.2325 H   0  0  0  0  0  0  0  0  0  0  0  0
   -0.6596   10.5498   -7.5564 H   0  0  0  0  0  0  0  0  0  0  0  0
    1.4925   14.2769   -6.0668 H   0  0  0  0  0  0  0  0  0  0  0  0
    0.2526   15.4350   -6.6567 H   0  0  0  0  0  0  0  0  0  0  0  0
    0.1851   14.8305   -4.9665 H   0  0  0  0  0  0  0  0  0  0  0  0
   -5.2469   14.1452  -10.2026 H   0  0  0  0  0  0  0  0  0  0  0  0
   -3.8809   13.2432  -10.9424 H   0  0  0  0  0  0  0  0  0  0  0  0
   -2.9857   15.2276  -11.5166 H   0  0  0  0  0  0  0  0  0  0  0  0
   -4.4673   16.1029  -11.0014 H   0  0  0  0  0  0  0  0  0  0  0  0
  1  2  1  0  0  0  0
  1  4  2  0  0  0  0
  1 13  1  0  0  0  0
  2  6  1  0  0  0  0
  3  4  1  0  0  0  0
  3  5  2  0  0  0  0
  5  6  1  0  0  0  0
  5  9  1  0  0  0  0
  6  7  2  0  0  0  0
  7  8  1  0  0  0  0
  7 10  1  0  0  0  0
  8  9  2  0  0  0  0
 10 14  2  3  0  0  0
 11 12  1  0  0  0  0
 11 13  1  0  0  0  0
 11 26  2  0  0  0  0
 12 28  1  0  0  0  0
 13 27  1  0  0  0  0
 14 15  1  0  0  0  0
 14 19  1  0  0  0  0
 15 16  2  0  0  0  0
 16 17  1  0  0  0  0
 17 18  2  0  0  0  0
 17 20  1  0  0  0  0
 18 19  1  0  0  0  0
 20 21  2  0  0  0  0
 20 24  1  0  0  0  0
 21 22  1  0  0  0  0
 22 23  1  0  0  0  0
 22 25  1  0  0  0  0
 23 24  2  0  0  0  0
 27 28  1  0  0  0  0
  2 29  1  0  0  0  0
  2 30  1  0  0  0  0
  3 31  1  0  0  0  0
  4 32  1  0  0  0  0
 10 33  1  0  0  0  0
 12 34  1  0  0  0  0
 12 35  1  0  0  0  0
 15 36  1  0  0  0  0
 16 37  1  0  0  0  0
 18 38  1  0  0  0  0
 19 39  1  0  0  0  0
 19 40  1  0  0  0  0
 21 41  1  0  0  0  0
 24 42  1  0  0  0  0
 25 43  1  0  0  0  0
 25 44  1  0  0  0  0
 25 45  1  0  0  0  0
 27 46  1  0  0  0  0
 27 47  1  0  0  0  0
 28 48  1  0  0  0  0
 28 49  1  0  0  0  0
M  END
> <Name>
26

> <IC50[uM]>
0.036

$$$$
26
  -OEChem-05192314333D
 Structure written by MMmdl.
 49 53  0     0  0  0  0  0  0999 V2000
   -6.3961   12.3155  -12.0234 C   0  0  0  0  0  0  0  0  0  0  0  0
   -6.5478   11.7864  -10.7392 C   0  0  0  0  0  0  0  0  0  0  0  0
   -7.7431   10.5278  -13.0269 C   0  0  0  0  0  0  0  0  0  0  0  0
   -7.0034   11.6993  -13.1368 C   0  0  0  0  0  0  0  0  0  0  0  0
   -7.8411    9.9886  -11.7443 C   0  0  0  0  0  0  0  0  0  0  0  0
   -7.2672   10.6062  -10.5986 C   0  0  0  0  0  0  0  0  0  0  0  0
   -7.6276    9.7408   -9.5022 C   0  0  0  0  0  0  0  0  0  0  0  0
   -8.2893    8.7195   -9.9713 N   0  0  0  0  0  0  0  0  0  0  0  0
   -8.4361    8.8492  -11.2847 N   0  0  0  0  0  0  0  0  0  0  0  0
   -7.3404    9.8857   -8.0208 C   0  0  0  0  0  0  0  0  0  0  0  0
   -5.4704   14.2158  -13.3316 C   0  0  0  0  0  0  0  0  0  0  0  0
   -4.5218   15.3458  -13.0035 C   0  0  0  0  0  0  0  0  0  0  0  0
   -5.5814   13.4696  -12.1774 N   0  0  0  0  0  0  0  0  0  0  0  0
   -5.9630   10.4847   -7.7359 C   0  0  0  0  0  0  0  0  0  0  0  0
   -5.8538   11.7563   -7.1621 C   0  0  0  0  0  0  0  0  0  0  0  0
   -4.5953   12.3060   -6.9160 C   0  0  0  0  0  0  0  0  0  0  0  0
   -3.4449   11.5852   -7.2379 C   0  0  0  0  0  0  0  0  0  0  0  0
   -3.5560   10.3115   -7.8043 C   0  0  0  0  0  0  0  0  0  0  0  0
   -4.8130    9.7655   -8.0531 C   0  0  0  0  0  0  0  0  0  0  0  0
   -2.0905   12.1634   -6.9778 C   0  0  0  0  0  0  0  0  0  0  0  0
   -1.7398   13.4211   -6.5005 C   0  0  0  0  0  0  0  0  0  0  0  0
   -0.4007   13.4556   -6.4362 N   0  0  0  0  0  0  0  0  0  0  0  0
    0.1858   12.3500   -6.8082 N   0  0  0  0  0  0  0  0  0  0  0  0
   -0.8018   11.5473   -7.1675 C   0  0  0  0  0  0  0  0  0  0  0  0
    0.4333   14.5672   -6.0053 C   0  0  0  0  0  0  0  0  0  0  0  0
   -6.0131   14.0330  -14.4162 O   0  0  0  0  0  0  0  0  0  0  0  0
   -4.6790   13.9767  -11.1295 C   0  0  0  0  0  0  0  0  0  0  0  0
   -4.0830   15.2556  -11.5883 C   0  0  0  0  0  0  0  0  0  0  0  0
   -6.1181   12.2807   -9.8804 H   0  0  0  0  0  0  0  0  0  0  0  0
   -8.2128   10.0638  -13.8816 H   0  0  0  0  0  0  0  0  0  0  0  0
   -6.8897   12.1539  -14.1098 H   0  0  0  0  0  0  0  0  0  0  0  0
   -8.6335    7.9556   -9.4254 H   0  0  0  0  0  0  0  0  0  0  0  0
   -8.1057   10.5398   -7.5776 H   0  0  0  0  0  0  0  0  0  0  0  0
   -7.3935    8.8909   -7.5544 H   0  0  0  0  0  0  0  0  0  0  0  0
   -4.2080   16.1098  -13.6994 H   0  0  0  0  0  0  0  0  0  0  0  0
   -6.7444   12.3126   -6.9096 H   0  0  0  0  0  0  0  0  0  0  0  0
   -4.5117   13.2890   -6.4765 H   0  0  0  0  0  0  0  0  0  0  0  0
   -2.6662    9.7505   -8.0491 H   0  0  0  0  0  0  0  0  0  0  0  0
   -4.8962    8.7826   -8.4928 H   0  0  0  0  0  0  0  0  0  0  0  0
   -2.4169   14.2186   -6.2325 H   0  0  0  0  0  0  0  0  0  0  0  0
   -0.6596   10.5498   -7.5564 H   0  0  0  0  0  0  0  0  0  0  0  0
    1.4925   14.2769   -6.0668 H   0  0  0  0  0  0  0  0  0  0  0  0
    0.2526   15.4350   -6.6567 H   0  0  0  0  0  0  0  0  0  0  0  0
    0.1851   14.8305   -4.9665 H   0  0  0  0  0  0  0  0  0  0  0  0
   -6.5611   13.2584  -14.3700 H   0  0  0  0  0  0  0  0  0  0  0  0
   -5.2469   14.1452  -10.2026 H   0  0  0  0  0  0  0  0  0  0  0  0
   -3.8809   13.2432  -10.9424 H   0  0  0  0  0  0  0  0  0  0  0  0
   -2.9857   15.2276  -11.5166 H   0  0  0  0  0  0  0  0  0  0  0  0
   -4.4673   16.1029  -11.0014 H   0  0  0  0  0  0  0  0  0  0  0  0
  1  2  2  0  0  0  0
  1  4  1  0  0  0  0
  1 13  1  0  0  0  0
  2  6  1  0  0  0  0
  3  4  2  0  0  0  0
  3  5  1  0  0  0  0
  5  6  1  0  0  0  0
  5  9  2  0  0  0  0
  6  7  2  0  0  0  0
  7  8  1  0  0  0  0
  7 10  1  0  0  0  0
  8  9  1  0  0  0  0
 10 14  1  0  0  0  0
 11 12  2  0  0  0  0
 11 13  1  0  0  0  0
 11 26  1  0  0  0  0
 12 28  1  0  0  0  0
 13 27  1  0  0  0  0
 14 15  2  0  0  0  0
 14 19  1  0  0  0  0
 15 16  1  0  0  0  0
 16 17  2  0  0  0  0
 17 18  1  0  0  0  0
 17 20  1  0  0  0  0
 18 19  2  0  0  0  0
 20 21  2  0  0  0  0
 20 24  1  0  0  0  0
 21 22  1  0  0  0  0
 22 23  1  0  0  0  0
 22 25  1  0  0  0  0
 23 24  2  0  0  0  0
 27 28  1  0  0  0  0
  2 29  1  0  0  0  0
  3 30  1  0  0  0  0
  4 31  1  0  0  0  0
  8 32  1  0  0  0  0
 10 33  1  0  0  0  0
 10 34  1  0  0  0  0
 12 35  1  0  0  0  0
 15 36  1  0  0  0  0
 16 37  1  0  0  0  0
 18 38  1  0  0  0  0
 19 39  1  0  0  0  0
 21 40  1  0  0  0  0
 24 41  1  0  0  0  0
 25 42  1  0  0  0  0
 25 43  1  0  0  0  0
 25 44  1  0  0  0  0
 26 45  1  0  0  0  0
 27 46  1  0  0  0  0
 27 47  1  0  0  0  0
 28 48  1  0  0  0  0
 28 49  1  0  0  0  0
M  END
> <Name>
26

> <IC50[uM]>
0.036

$$$$
26
  -OEChem-05192314333D
 Structure written by MMmdl.
 49 53  0     0  0  0  0  0  0999 V2000
   -6.3961   12.3155  -12.0234 C   0  0  0  0  0  0  0  0  0  0  0  0
   -6.5478   11.7864  -10.7392 C   0  0  0  0  0  0  0  0  0  0  0  0
   -7.7431   10.5278  -13.0269 C   0  0  0  0  0  0  0  0  0  0  0  0
   -7.0034   11.6993  -13.1368 C   0  0  0  0  0  0  0  0  0  0  0  0
   -7.8411    9.9886  -11.7443 C   0  0  0  0  0  0  0  0  0  0  0  0
   -7.2672   10.6062  -10.5986 C   0  0  0  0  0  0  0  0  0  0  0  0
   -7.6276    9.7408   -9.5022 C   0  0  0  0  0  0  0  0  0  0  0  0
   -8.2893    8.7195   -9.9713 N   0  0  0  0  0  0  0  0  0  0  0  0
   -8.4361    8.8492  -11.2847 N   0  0  0  0  0  0  0  0  0  0  0  0
   -7.3404    9.8857   -8.0208 C   0  0  0  0  0  0  0  0  0  0  0  0
   -5.4704   14.2158  -13.3316 C   0  0  0  0  0  0  0  0  0  0  0  0
   -4.5218   15.3458  -13.0035 C   0  0  0  0  0  0  0  0  0  0  0  0
   -5.5814   13.4696  -12.1774 N   0  0  0  0  0  0  0  0  0  0  0  0
   -5.9630   10.4847   -7.7359 C   0  0  0  0  0  0  0  0  0  0  0  0
   -5.8538   11.7563   -7.1621 C   0  0  0  0  0  0  0  0  0  0  0  0
   -4.5953   12.3060   -6.9160 C   0  0  0  0  0  0  0  0  0  0  0  0
   -3.4449   11.5852   -7.2379 C   0  0  0  0  0  0  0  0  0  0  0  0
   -3.5560   10.3115   -7.8043 C   0  0  0  0  0  0  0  0  0  0  0  0
   -4.8130    9.7655   -8.0531 C   0  0  0  0  0  0  0  0  0  0  0  0
   -2.0905   12.1634   -6.9778 C   0  0  0  0  0  0  0  0  0  0  0  0
   -1.7398   13.4211   -6.5005 C   0  0  0  0  0  0  0  0  0  0  0  0
   -0.4007   13.4556   -6.4362 N   0  0  0  0  0  0  0  0  0  0  0  0
    0.1858   12.3500   -6.8082 N   0  0  0  0  0  0  0  0  0  0  0  0
   -0.8018   11.5473   -7.1675 C   0  0  0  0  0  0  0  0  0  0  0  0
    0.4333   14.5672   -6.0053 C   0  0  0  0  0  0  0  0  0  0  0  0
   -6.0131   14.0330  -14.4162 O   0  0  0  0  0  0  0  0  0  0  0  0
   -4.6790   13.9767  -11.1295 C   0  0  0  0  0  0  0  0  0  0  0  0
   -4.0830   15.2556  -11.5883 C   0  0  0  0  0  0  0  0  0  0  0  0
   -6.1181   12.2807   -9.8804 H   0  0  0  0  0  0  0  0  0  0  0  0
   -8.2128   10.0638  -13.8816 H   0  0  0  0  0  0  0  0  0  0  0  0
   -6.8897   12.1539  -14.1098 H   0  0  0  0  0  0  0  0  0  0  0  0
   -8.9215    8.1945  -11.8642 H   0  0  0  0  0  0  0  0  0  0  0  0
   -8.1057   10.5398   -7.5776 H   0  0  0  0  0  0  0  0  0  0  0  0
   -7.3935    8.8909   -7.5544 H   0  0  0  0  0  0  0  0  0  0  0  0
   -4.2080   16.1098  -13.6994 H   0  0  0  0  0  0  0  0  0  0  0  0
   -6.7444   12.3126   -6.9096 H   0  0  0  0  0  0  0  0  0  0  0  0
   -4.5117   13.2890   -6.4765 H   0  0  0  0  0  0  0  0  0  0  0  0
   -2.6662    9.7505   -8.0491 H   0  0  0  0  0  0  0  0  0  0  0  0
   -4.8962    8.7826   -8.4928 H   0  0  0  0  0  0  0  0  0  0  0  0
   -2.4169   14.2186   -6.2325 H   0  0  0  0  0  0  0  0  0  0  0  0
   -0.6596   10.5498   -7.5564 H   0  0  0  0  0  0  0  0  0  0  0  0
    1.4925   14.2769   -6.0668 H   0  0  0  0  0  0  0  0  0  0  0  0
    0.2526   15.4350   -6.6567 H   0  0  0  0  0  0  0  0  0  0  0  0
    0.1851   14.8305   -4.9665 H   0  0  0  0  0  0  0  0  0  0  0  0
   -6.5611   13.2584  -14.3700 H   0  0  0  0  0  0  0  0  0  0  0  0
   -5.2469   14.1452  -10.2026 H   0  0  0  0  0  0  0  0  0  0  0  0
   -3.8809   13.2432  -10.9424 H   0  0  0  0  0  0  0  0  0  0  0  0
   -2.9857   15.2276  -11.5166 H   0  0  0  0  0  0  0  0  0  0  0  0
   -4.4673   16.1029  -11.0014 H   0  0  0  0  0  0  0  0  0  0  0  0
  1  2  2  0  0  0  0
  1  4  1  0  0  0  0
  1 13  1  0  0  0  0
  2  6  1  0  0  0  0
  3  4  2  0  0  0  0
  3  5  1  0  0  0  0
  5  6  2  0  0  0  0
  5  9  1  0  0  0  0
  6  7  1  0  0  0  0
  7  8  2  0  0  0  0
  7 10  1  0  0  0  0
  8  9  1  0  0  0  0
 10 14  1  0  0  0  0
 11 12  2  0  0  0  0
 11 13  1  0  0  0  0
 11 26  1  0  0  0  0
 12 28  1  0  0  0  0
 13 27  1  0  0  0  0
 14 15  2  0  0  0  0
 14 19  1  0  0  0  0
 15 16  1  0  0  0  0
 16 17  2  0  0  0  0
 17 18  1  0  0  0  0
 17 20  1  0  0  0  0
 18 19  2  0  0  0  0
 20 21  2  0  0  0  0
 20 24  1  0  0  0  0
 21 22  1  0  0  0  0
 22 23  1  0  0  0  0
 22 25  1  0  0  0  0
 23 24  2  0  0  0  0
 27 28  1  0  0  0  0
  2 29  1  0  0  0  0
  3 30  1  0  0  0  0
  4 31  1  0  0  0  0
  9 32  1  0  0  0  0
 10 33  1  0  0  0  0
 10 34  1  0  0  0  0
 12 35  1  0  0  0  0
 15 36  1  0  0  0  0
 16 37  1  0  0  0  0
 18 38  1  0  0  0  0
 19 39  1  0  0  0  0
 21 40  1  0  0  0  0
 24 41  1  0  0  0  0
 25 42  1  0  0  0  0
 25 43  1  0  0  0  0
 25 44  1  0  0  0  0
 26 45  1  0  0  0  0
 27 46  1  0  0  0  0
 27 47  1  0  0  0  0
 28 48  1  0  0  0  0
 28 49  1  0  0  0  0
M  END
> <Name>
26

> <IC50[uM]>
0.036

$$$$
26
  -OEChem-05192314333D
 Structure written by MMmdl.
 49 53  0     1  0  0  0  0  0999 V2000
   -6.3961   12.3155  -12.0234 C   0  0  0  0  0  0  0  0  0  0  0  0
   -6.5478   11.7864  -10.7392 C   0  0  0  0  0  0  0  0  0  0  0  0
   -7.7431   10.5278  -13.0269 C   0  0  0  0  0  0  0  0  0  0  0  0
   -7.0034   11.6993  -13.1368 C   0  0  0  0  0  0  0  0  0  0  0  0
   -7.8411    9.9886  -11.7443 C   0  0  0  0  0  0  0  0  0  0  0  0
   -7.2672   10.6062  -10.5986 C   0  0  0  0  0  0  0  0  0  0  0  0
   -7.6276    9.7408   -9.5022 C   0  0  0  0  0  0  0  0  0  0  0  0
   -8.2893    8.7195   -9.9713 N   0  0  0  0  0  0  0  0  0  0  0  0
   -8.4361    8.8492  -11.2847 N   0  0  0  0  0  0  0  0  0  0  0  0
   -7.3404    9.8857   -8.0208 C   0  0  0  0  0  0  0  0  0  0  0  0
   -5.4704   14.2158  -13.3316 C   0  0  3  0  0  0  0  0  0  0  0  0
   -4.5218   15.3458  -13.0035 C   0  0  0  0  0  0  0  0  0  0  0  0
   -5.5814   13.4696  -12.1774 N   0  0  3  0  0  0  0  0  0  0  0  0
   -5.9630   10.4847   -7.7359 C   0  0  0  0  0  0  0  0  0  0  0  0
   -5.8538   11.7563   -7.1621 C   0  0  0  0  0  0  0  0  0  0  0  0
   -4.5953   12.3060   -6.9160 C   0  0  0  0  0  0  0  0  0  0  0  0
   -3.4449   11.5852   -7.2379 C   0  0  0  0  0  0  0  0  0  0  0  0
   -3.5560   10.3115   -7.8043 C   0  0  0  0  0  0  0  0  0  0  0  0
   -4.8130    9.7655   -8.0531 C   0  0  0  0  0  0  0  0  0  0  0  0
   -2.0905   12.1634   -6.9778 C   0  0  0  0  0  0  0  0  0  0  0  0
   -1.7398   13.4211   -6.5005 C   0  0  0  0  0  0  0  0  0  0  0  0
   -0.4007   13.4556   -6.4362 N   0  0  0  0  0  0  0  0  0  0  0  0
    0.1858   12.3500   -6.8082 N   0  0  0  0  0  0  0  0  0  0  0  0
   -0.8018   11.5473   -7.1675 C   0  0  0  0  0  0  0  0  0  0  0  0
    0.4333   14.5672   -6.0053 C   0  0  0  0  0  0  0  0  0  0  0  0
   -6.0131   14.0330  -14.4162 O   0  0  0  0  0  0  0  0  0  0  0  0
   -4.6790   13.9767  -11.1295 C   0  0  0  0  0  0  0  0  0  0  0  0
   -4.0830   15.2556  -11.5883 C   0  0  0  0  0  0  0  0  0  0  0  0
   -6.1181   12.2807   -9.8804 H   0  0  0  0  0  0  0  0  0  0  0  0
   -8.2128   10.0638  -13.8816 H   0  0  0  0  0  0  0  0  0  0  0  0
   -6.8897   12.1539  -14.1098 H   0  0  0  0  0  0  0  0  0  0  0  0
   -8.0363    9.5960   -7.2473 H   0  0  0  0  0  0  0  0  0  0  0  0
   -4.6206   13.5950  -13.6517 H   0  0  0  0  0  0  0  0  0  0  0  0
   -3.6420   15.2835  -13.6609 H   0  0  0  0  0  0  0  0  0  0  0  0
   -5.0325   16.3067  -13.1645 H   0  0  0  0  0  0  0  0  0  0  0  0
   -6.7444   12.3126   -6.9096 H   0  0  0  0  0  0  0  0  0  0  0  0
   -4.5117   13.2890   -6.4765 H   0  0  0  0  0  0  0  0  0  0  0  0
   -2.6662    9.7505   -8.0491 H   0  0  0  0  0  0  0  0  0  0  0  0
   -4.8962    8.7826   -8.4928 H   0  0  0  0  0  0  0  0  0  0  0  0
   -2.4169   14.2186   -6.2325 H   0  0  0  0  0  0  0  0  0  0  0  0
   -0.6596   10.5498   -7.5564 H   0  0  0  0  0  0  0  0  0  0  0  0
    1.4925   14.2769   -6.0668 H   0  0  0  0  0  0  0  0  0  0  0  0
    0.2526   15.4350   -6.6567 H   0  0  0  0  0  0  0  0  0  0  0  0
    0.1851   14.8305   -4.9665 H   0  0  0  0  0  0  0  0  0  0  0  0
   -6.5611   13.2584  -14.3700 H   0  0  0  0  0  0  0  0  0  0  0  0
   -5.2469   14.1452  -10.2026 H   0  0  0  0  0  0  0  0  0  0  0  0
   -3.8809   13.2432  -10.9424 H   0  0  0  0  0  0  0  0  0  0  0  0
   -2.9857   15.2276  -11.5166 H   0  0  0  0  0  0  0  0  0  0  0  0
   -4.4673   16.1029  -11.0014 H   0  0  0  0  0  0  0  0  0  0  0  0
  1  2  2  0  0  0  0
  1  4  1  0  0  0  0
  1 13  1  0  0  0  0
  2  6  1  0  0  0  0
  3  4  2  0  0  0  0
  3  5  1  0  0  0  0
  5  6  2  0  0  0  0
  5  9  1  0  0  0  0
  6  7  1  0  0  0  0
  7  8  1  0  0  0  0
  7 10  2  3  0  0  0
  8  9  2  0  0  0  0
 10 14  1  0  0  0  0
 11 12  1  0  0  0  0
 11 13  1  0  0  0  0
 11 26  1  0  0  0  0
 12 28  1  0  0  0  0
 13 27  1  0  0  0  0
 14 15  2  0  0  0  0
 14 19  1  0  0  0  0
 15 16  1  0  0  0  0
 16 17  2  0  0  0  0
 17 18  1  0  0  0  0
 17 20  1  0  0  0  0
 18 19  2  0  0  0  0
 20 21  2  0  0  0  0
 20 24  1  0  0  0  0
 21 22  1  0  0  0  0
 22 23  1  0  0  0  0
 22 25  1  0  0  0  0
 23 24  2  0  0  0  0
 27 28  1  0  0  0  0
  2 29  1  0  0  0  0
  3 30  1  0  0  0  0
  4 31  1  0  0  0  0
 10 32  1  0  0  0  0
 11 33  1  0  0  0  0
 12 34  1  0  0  0  0
 12 35  1  0  0  0  0
 15 36  1  0  0  0  0
 16 37  1  0  0  0  0
 18 38  1  0  0  0  0
 19 39  1  0  0  0  0
 21 40  1  0  0  0  0
 24 41  1  0  0  0  0
 25 42  1  0  0  0  0
 25 43  1  0  0  0  0
 25 44  1  0  0  0  0
 26 45  1  0  0  0  0
 27 46  1  0  0  0  0
 27 47  1  0  0  0  0
 28 48  1  0  0  0  0
 28 49  1  0  0  0  0
M  END
> <Name>
26

> <IC50[uM]>
0.036

$$$$
26
  -OEChem-05192314333D
 Structure written by MMmdl.
 49 53  0     1  0  0  0  0  0999 V2000
   -6.3961   12.3155  -12.0234 C   0  0  0  0  0  0  0  0  0  0  0  0
   -6.5478   11.7864  -10.7392 C   0  0  0  0  0  0  0  0  0  0  0  0
   -7.7431   10.5278  -13.0269 C   0  0  0  0  0  0  0  0  0  0  0  0
   -7.0034   11.6993  -13.1368 C   0  0  0  0  0  0  0  0  0  0  0  0
   -7.8411    9.9886  -11.7443 C   0  0  0  0  0  0  0  0  0  0  0  0
   -7.2672   10.6062  -10.5986 C   0  0  0  0  0  0  0  0  0  0  0  0
   -7.6276    9.7408   -9.5022 C   0  0  3  0  0  0  0  0  0  0  0  0
   -8.2893    8.7195   -9.9713 N   0  0  0  0  0  0  0  0  0  0  0  0
   -8.4361    8.8492  -11.2847 N   0  0  0  0  0  0  0  0  0  0  0  0
   -7.3404    9.8857   -8.0208 C   0  0  0  0  0  0  0  0  0  0  0  0
   -5.4704   14.2158  -13.3316 C   0  0  0  0  0  0  0  0  0  0  0  0
   -4.5218   15.3458  -13.0035 C   0  0  0  0  0  0  0  0  0  0  0  0
   -5.5814   13.4696  -12.1774 N   0  0  0  0  0  0  0  0  0  0  0  0
   -5.9630   10.4847   -7.7359 C   0  0  0  0  0  0  0  0  0  0  0  0
   -5.8538   11.7563   -7.1621 C   0  0  0  0  0  0  0  0  0  0  0  0
   -4.5953   12.3060   -6.9160 C   0  0  0  0  0  0  0  0  0  0  0  0
   -3.4449   11.5852   -7.2379 C   0  0  0  0  0  0  0  0  0  0  0  0
   -3.5560   10.3115   -7.8043 C   0  0  0  0  0  0  0  0  0  0  0  0
   -4.8130    9.7655   -8.0531 C   0  0  0  0  0  0  0  0  0  0  0  0
   -2.0905   12.1634   -6.9778 C   0  0  0  0  0  0  0  0  0  0  0  0
   -1.7398   13.4211   -6.5005 C   0  0  0  0  0  0  0  0  0  0  0  0
   -0.4007   13.4556   -6.4362 N   0  0  0  0  0  0  0  0  0  0  0  0
    0.1858   12.3500   -6.8082 N   0  0  0  0  0  0  0  0  0  0  0  0
   -0.8018   11.5473   -7.1675 C   0  0  0  0  0  0  0  0  0  0  0  0
    0.4333   14.5672   -6.0053 C   0  0  0  0  0  0  0  0  0  0  0  0
   -6.0131   14.0330  -14.4162 O   0  0  0  0  0  0  0  0  0  0  0  0
   -4.6790   13.9767  -11.1295 C   0  0  0  0  0  0  0  0  0  0  0  0
   -4.0830   15.2556  -11.5883 C   0  0  0  0  0  0  0  0  0  0  0  0
   -6.1181   12.2807   -9.8804 H   0  0  0  0  0  0  0  0  0  0  0  0
   -8.2128   10.0638  -13.8816 H   0  0  0  0  0  0  0  0  0  0  0  0
   -6.8897   12.1539  -14.1098 H   0  0  0  0  0  0  0  0  0  0  0  0
   -8.5699   10.2938   -9.3744 H   0  0  0  0  0  0  0  0  0  0  0  0
   -8.1057   10.5398   -7.5776 H   0  0  0  0  0  0  0  0  0  0  0  0
   -7.3935    8.8909   -7.5544 H   0  0  0  0  0  0  0  0  0  0  0  0
   -4.2080   16.1098  -13.6994 H   0  0  0  0  0  0  0  0  0  0  0  0
   -6.7444   12.3126   -6.9096 H   0  0  0  0  0  0  0  0  0  0  0  0
   -4.5117   13.2890   -6.4765 H   0  0  0  0  0  0  0  0  0  0  0  0
   -2.6662    9.7505   -8.0491 H   0  0  0  0  0  0  0  0  0  0  0  0
   -4.8962    8.7826   -8.4928 H   0  0  0  0  0  0  0  0  0  0  0  0
   -2.4169   14.2186   -6.2325 H   0  0  0  0  0  0  0  0  0  0  0  0
   -0.6596   10.5498   -7.5564 H   0  0  0  0  0  0  0  0  0  0  0  0
    1.4925   14.2769   -6.0668 H   0  0  0  0  0  0  0  0  0  0  0  0
    0.2526   15.4350   -6.6567 H   0  0  0  0  0  0  0  0  0  0  0  0
    0.1851   14.8305   -4.9665 H   0  0  0  0  0  0  0  0  0  0  0  0
   -6.5611   13.2584  -14.3700 H   0  0  0  0  0  0  0  0  0  0  0  0
   -5.2469   14.1452  -10.2026 H   0  0  0  0  0  0  0  0  0  0  0  0
   -3.8809   13.2432  -10.9424 H   0  0  0  0  0  0  0  0  0  0  0  0
   -2.9857   15.2276  -11.5166 H   0  0  0  0  0  0  0  0  0  0  0  0
   -4.4673   16.1029  -11.0014 H   0  0  0  0  0  0  0  0  0  0  0  0
  1  2  2  0  0  0  0
  1  4  1  0  0  0  0
  1 13  1  0  0  0  0
  2  6  1  0  0  0  0
  3  4  2  0  0  0  0
  3  5  1  0  0  0  0
  5  6  2  0  0  0  0
  5  9  1  0  0  0  0
  6  7  1  0  0  0  0
  7  8  1  0  0  0  0
  7 10  1  0  0  0  0
  8  9  2  0  0  0  0
 10 14  1  0  0  0  0
 11 12  2  0  0  0  0
 11 13  1  0  0  0  0
 11 26  1  0  0  0  0
 12 28  1  0  0  0  0
 13 27  1  0  0  0  0
 14 15  2  0  0  0  0
 14 19  1  0  0  0  0
 15 16  1  0  0  0  0
 16 17  2  0  0  0  0
 17 18  1  0  0  0  0
 17 20  1  0  0  0  0
 18 19  2  0  0  0  0
 20 21  2  0  0  0  0
 20 24  1  0  0  0  0
 21 22  1  0  0  0  0
 22 23  1  0  0  0  0
 22 25  1  0  0  0  0
 23 24  2  0  0  0  0
 27 28  1  0  0  0  0
  2 29  1  0  0  0  0
  3 30  1  0  0  0  0
  4 31  1  0  0  0  0
  7 32  1  0  0  0  0
 10 33  1  0  0  0  0
 10 34  1  0  0  0  0
 12 35  1  0  0  0  0
 15 36  1  0  0  0  0
 16 37  1  0  0  0  0
 18 38  1  0  0  0  0
 19 39  1  0  0  0  0
 21 40  1  0  0  0  0
 24 41  1  0  0  0  0
 25 42  1  0  0  0  0
 25 43  1  0  0  0  0
 25 44  1  0  0  0  0
 26 45  1  0  0  0  0
 27 46  1  0  0  0  0
 27 47  1  0  0  0  0
 28 48  1  0  0  0  0
 28 49  1  0  0  0  0
M  END
> <Name>
26

> <IC50[uM]>
0.036

$$$$
26
  -OEChem-05192314333D
 Structure written by MMmdl.
 49 53  0     0  0  0  0  0  0999 V2000
   -6.3961   12.3155  -12.0234 C   0  0  0  0  0  0  0  0  0  0  0  0
   -6.5478   11.7864  -10.7392 C   0  0  0  0  0  0  0  0  0  0  0  0
   -7.7431   10.5278  -13.0269 C   0  0  0  0  0  0  0  0  0  0  0  0
   -7.0034   11.6993  -13.1368 C   0  0  0  0  0  0  0  0  0  0  0  0
   -7.8411    9.9886  -11.7443 C   0  0  0  0  0  0  0  0  0  0  0  0
   -7.2672   10.6062  -10.5986 C   0  0  0  0  0  0  0  0  0  0  0  0
   -7.6276    9.7408   -9.5022 C   0  0  0  0  0  0  0  0  0  0  0  0
   -8.2893    8.7195   -9.9713 N   0  0  0  0  0  0  0  0  0  0  0  0
   -8.4361    8.8492  -11.2847 N   0  0  0  0  0  0  0  0  0  0  0  0
   -7.3404    9.8857   -8.0208 C   0  0  0  0  0  0  0  0  0  0  0  0
   -5.4704   14.2158  -13.3316 C   0  0  0  0  0  0  0  0  0  0  0  0
   -4.5218   15.3458  -13.0035 C   0  0  0  0  0  0  0  0  0  0  0  0
   -5.5814   13.4696  -12.1774 N   0  0  0  0  0  0  0  0  0  0  0  0
   -5.9630   10.4847   -7.7359 C   0  0  0  0  0  0  0  0  0  0  0  0
   -5.8538   11.7563   -7.1621 C   0  0  0  0  0  0  0  0  0  0  0  0
   -4.5953   12.3060   -6.9160 C   0  0  0  0  0  0  0  0  0  0  0  0
   -3.4449   11.5852   -7.2379 C   0  0  0  0  0  0  0  0  0  0  0  0
   -3.5560   10.3115   -7.8043 C   0  0  0  0  0  0  0  0  0  0  0  0
   -4.8130    9.7655   -8.0531 C   0  0  0  0  0  0  0  0  0  0  0  0
   -2.0905   12.1634   -6.9778 C   0  0  0  0  0  0  0  0  0  0  0  0
   -1.7398   13.4211   -6.5005 C   0  0  0  0  0  0  0  0  0  0  0  0
   -0.4007   13.4556   -6.4362 N   0  0  0  0  0  0  0  0  0  0  0  0
    0.1858   12.3500   -6.8082 N   0  0  0  0  0  0  0  0  0  0  0  0
   -0.8018   11.5473   -7.1675 C   0  0  0  0  0  0  0  0  0  0  0  0
    0.4333   14.5672   -6.0053 C   0  0  0  0  0  0  0  0  0  0  0  0
   -6.0131   14.0330  -14.4162 O   0  0  0  0  0  0  0  0  0  0  0  0
   -4.6790   13.9767  -11.1295 C   0  0  0  0  0  0  0  0  0  0  0  0
   -4.0830   15.2556  -11.5883 C   0  0  0  0  0  0  0  0  0  0  0  0
   -6.1181   12.2807   -9.8804 H   0  0  0  0  0  0  0  0  0  0  0  0
   -8.2128   10.0638  -13.8816 H   0  0  0  0  0  0  0  0  0  0  0  0
   -6.8897   12.1539  -14.1098 H   0  0  0  0  0  0  0  0  0  0  0  0
   -7.7863    7.8780   -9.7741 H   0  0  0  0  0  0  0  0  0  0  0  0
   -9.4119    8.8822  -11.5010 H   0  0  0  0  0  0  0  0  0  0  0  0
   -8.0363    9.5960   -7.2473 H   0  0  0  0  0  0  0  0  0  0  0  0
   -4.2080   16.1098  -13.6994 H   0  0  0  0  0  0  0  0  0  0  0  0
   -6.7444   12.3126   -6.9096 H   0  0  0  0  0  0  0  0  0  0  0  0
   -4.5117   13.2890   -6.4765 H   0  0  0  0  0  0  0  0  0  0  0  0
   -2.6662    9.7505   -8.0491 H   0  0  0  0  0  0  0  0  0  0  0  0
   -4.8962    8.7826   -8.4928 H   0  0  0  0  0  0  0  0  0  0  0  0
   -2.4169   14.2186   -6.2325 H   0  0  0  0  0  0  0  0  0  0  0  0
   -0.6596   10.5498   -7.5564 H   0  0  0  0  0  0  0  0  0  0  0  0
    1.4925   14.2769   -6.0668 H   0  0  0  0  0  0  0  0  0  0  0  0
    0.2526   15.4350   -6.6567 H   0  0  0  0  0  0  0  0  0  0  0  0
    0.1851   14.8305   -4.9665 H   0  0  0  0  0  0  0  0  0  0  0  0
   -6.5611   13.2584  -14.3700 H   0  0  0  0  0  0  0  0  0  0  0  0
   -5.2469   14.1452  -10.2026 H   0  0  0  0  0  0  0  0  0  0  0  0
   -3.8809   13.2432  -10.9424 H   0  0  0  0  0  0  0  0  0  0  0  0
   -2.9857   15.2276  -11.5166 H   0  0  0  0  0  0  0  0  0  0  0  0
   -4.4673   16.1029  -11.0014 H   0  0  0  0  0  0  0  0  0  0  0  0
  1  2  2  0  0  0  0
  1  4  1  0  0  0  0
  1 13  1  0  0  0  0
  2  6  1  0  0  0  0
  3  4  2  0  0  0  0
  3  5  1  0  0  0  0
  5  6  2  0  0  0  0
  5  9  1  0  0  0  0
  6  7  1  0  0  0  0
  7  8  1  0  0  0  0
  7 10  2  3  0  0  0
  8  9  1  0  0  0  0
 10 14  1  0  0  0  0
 11 12  2  0  0  0  0
 11 13  1  0  0  0  0
 11 26  1  0  0  0  0
 12 28  1  0  0  0  0
 13 27  1  0  0  0  0
 14 15  2  0  0  0  0
 14 19  1  0  0  0  0
 15 16  1  0  0  0  0
 16 17  2  0  0  0  0
 17 18  1  0  0  0  0
 17 20  1  0  0  0  0
 18 19  2  0  0  0  0
 20 21  2  0  0  0  0
 20 24  1  0  0  0  0
 21 22  1  0  0  0  0
 22 23  1  0  0  0  0
 22 25  1  0  0  0  0
 23 24  2  0  0  0  0
 27 28  1  0  0  0  0
  2 29  1  0  0  0  0
  3 30  1  0  0  0  0
  4 31  1  0  0  0  0
  8 32  1  0  0  0  0
  9 33  1  0  0  0  0
 10 34  1  0  0  0  0
 12 35  1  0  0  0  0
 15 36  1  0  0  0  0
 16 37  1  0  0  0  0
 18 38  1  0  0  0  0
 19 39  1  0  0  0  0
 21 40  1  0  0  0  0
 24 41  1  0  0  0  0
 25 42  1  0  0  0  0
 25 43  1  0  0  0  0
 25 44  1  0  0  0  0
 26 45  1  0  0  0  0
 27 46  1  0  0  0  0
 27 47  1  0  0  0  0
 28 48  1  0  0  0  0
 28 49  1  0  0  0  0
M  END
> <Name>
26

> <IC50[uM]>
0.036

$$$$
26
  -OEChem-05192314333D
 Structure written by MMmdl.
 49 53  0     1  0  0  0  0  0999 V2000
   -6.3961   12.3155  -12.0234 C   0  0  3  0  0  0  0  0  0  0  0  0
   -6.5478   11.7864  -10.7392 C   0  0  0  0  0  0  0  0  0  0  0  0
   -7.7431   10.5278  -13.0269 C   0  0  0  0  0  0  0  0  0  0  0  0
   -7.0034   11.6993  -13.1368 C   0  0  0  0  0  0  0  0  0  0  0  0
   -7.8411    9.9886  -11.7443 C   0  0  0  0  0  0  0  0  0  0  0  0
   -7.2672   10.6062  -10.5986 C   0  0  0  0  0  0  0  0  0  0  0  0
   -7.6276    9.7408   -9.5022 C   0  0  0  0  0  0  0  0  0  0  0  0
   -8.2893    8.7195   -9.9713 N   0  0  0  0  0  0  0  0  0  0  0  0
   -8.4361    8.8492  -11.2847 N   0  0  0  0  0  0  0  0  0  0  0  0
   -7.3404    9.8857   -8.0208 C   0  0  0  0  0  0  0  0  0  0  0  0
   -5.4704   14.2158  -13.3316 C   0  0  0  0  0  0  0  0  0  0  0  0
   -4.5218   15.3458  -13.0035 C   0  0  0  0  0  0  0  0  0  0  0  0
   -5.5814   13.4696  -12.1774 N   0  0  3  0  0  0  0  0  0  0  0  0
   -5.9630   10.4847   -7.7359 C   0  0  0  0  0  0  0  0  0  0  0  0
   -5.8538   11.7563   -7.1621 C   0  0  0  0  0  0  0  0  0  0  0  0
   -4.5953   12.3060   -6.9160 C   0  0  0  0  0  0  0  0  0  0  0  0
   -3.4449   11.5852   -7.2379 C   0  0  0  0  0  0  0  0  0  0  0  0
   -3.5560   10.3115   -7.8043 C   0  0  0  0  0  0  0  0  0  0  0  0
   -4.8130    9.7655   -8.0531 C   0  0  0  0  0  0  0  0  0  0  0  0
   -2.0905   12.1634   -6.9778 C   0  0  0  0  0  0  0  0  0  0  0  0
   -1.7398   13.4211   -6.5005 C   0  0  0  0  0  0  0  0  0  0  0  0
   -0.4007   13.4556   -6.4362 N   0  0  0  0  0  0  0  0  0  0  0  0
    0.1858   12.3500   -6.8082 N   0  0  0  0  0  0  0  0  0  0  0  0
   -0.8018   11.5473   -7.1675 C   0  0  0  0  0  0  0  0  0  0  0  0
    0.4333   14.5672   -6.0053 C   0  0  0  0  0  0  0  0  0  0  0  0
   -6.0131   14.0330  -14.4162 O   0  0  0  0  0  0  0  0  0  0  0  0
   -4.6790   13.9767  -11.1295 C   0  0  0  0  0  0  0  0  0  0  0  0
   -4.0830   15.2556  -11.5883 C   0  0  0  0  0  0  0  0  0  0  0  0
   -7.2833   12.9493  -11.8778 H   0  0  0  0  0  0  0  0  0  0  0  0
   -6.1181   12.2807   -9.8804 H   0  0  0  0  0  0  0  0  0  0  0  0
   -8.2128   10.0638  -13.8816 H   0  0  0  0  0  0  0  0  0  0  0  0
   -6.8897   12.1539  -14.1098 H   0  0  0  0  0  0  0  0  0  0  0  0
   -8.6335    7.9556   -9.4254 H   0  0  0  0  0  0  0  0  0  0  0  0
   -8.0363    9.5960   -7.2473 H   0  0  0  0  0  0  0  0  0  0  0  0
   -4.2080   16.1098  -13.6994 H   0  0  0  0  0  0  0  0  0  0  0  0
   -6.7444   12.3126   -6.9096 H   0  0  0  0  0  0  0  0  0  0  0  0
   -4.5117   13.2890   -6.4765 H   0  0  0  0  0  0  0  0  0  0  0  0
   -2.6662    9.7505   -8.0491 H   0  0  0  0  0  0  0  0  0  0  0  0
   -4.8962    8.7826   -8.4928 H   0  0  0  0  0  0  0  0  0  0  0  0
   -2.4169   14.2186   -6.2325 H   0  0  0  0  0  0  0  0  0  0  0  0
   -0.6596   10.5498   -7.5564 H   0  0  0  0  0  0  0  0  0  0  0  0
    1.4925   14.2769   -6.0668 H   0  0  0  0  0  0  0  0  0  0  0  0
    0.2526   15.4350   -6.6567 H   0  0  0  0  0  0  0  0  0  0  0  0
    0.1851   14.8305   -4.9665 H   0  0  0  0  0  0  0  0  0  0  0  0
   -6.5611   13.2584  -14.3700 H   0  0  0  0  0  0  0  0  0  0  0  0
   -5.2469   14.1452  -10.2026 H   0  0  0  0  0  0  0  0  0  0  0  0
   -3.8809   13.2432  -10.9424 H   0  0  0  0  0  0  0  0  0  0  0  0
   -2.9857   15.2276  -11.5166 H   0  0  0  0  0  0  0  0  0  0  0  0
   -4.4673   16.1029  -11.0014 H   0  0  0  0  0  0  0  0  0  0  0  0
  1  2  1  0  0  0  0
  1  4  1  0  0  0  0
  1 13  1  0  0  0  0
  2  6  2  0  0  0  0
  3  4  2  0  0  0  0
  3  5  1  0  0  0  0
  5  6  1  0  0  0  0
  5  9  2  0  0  0  0
  6  7  1  0  0  0  0
  7  8  1  0  0  0  0
  7 10  2  3  0  0  0
  8  9  1  0  0  0  0
 10 14  1  0  0  0  0
 11 12  2  0  0  0  0
 11 13  1  0  0  0  0
 11 26  1  0  0  0  0
 12 28  1  0  0  0  0
 13 27  1  0  0  0  0
 14 15  2  0  0  0  0
 14 19  1  0  0  0  0
 15 16  1  0  0  0  0
 16 17  2  0  0  0  0
 17 18  1  0  0  0  0
 17 20  1  0  0  0  0
 18 19  2  0  0  0  0
 20 21  2  0  0  0  0
 20 24  1  0  0  0  0
 21 22  1  0  0  0  0
 22 23  1  0  0  0  0
 22 25  1  0  0  0  0
 23 24  2  0  0  0  0
 27 28  1  0  0  0  0
  1 29  1  0  0  0  0
  2 30  1  0  0  0  0
  3 31  1  0  0  0  0
  4 32  1  0  0  0  0
  8 33  1  0  0  0  0
 10 34  1  0  0  0  0
 12 35  1  0  0  0  0
 15 36  1  0  0  0  0
 16 37  1  0  0  0  0
 18 38  1  0  0  0  0
 19 39  1  0  0  0  0
 21 40  1  0  0  0  0
 24 41  1  0  0  0  0
 25 42  1  0  0  0  0
 25 43  1  0  0  0  0
 25 44  1  0  0  0  0
 26 45  1  0  0  0  0
 27 46  1  0  0  0  0
 27 47  1  0  0  0  0
 28 48  1  0  0  0  0
 28 49  1  0  0  0  0
M  END
> <Name>
26

> <IC50[uM]>
0.036

$$$$
26
  -OEChem-05192314333D
 Structure written by MMmdl.
 49 53  0     0  0  0  0  0  0999 V2000
   -6.3961   12.3155  -12.0234 C   0  0  0  0  0  0  0  0  0  0  0  0
   -6.5478   11.7864  -10.7392 C   0  0  0  0  0  0  0  0  0  0  0  0
   -7.7431   10.5278  -13.0269 C   0  0  0  0  0  0  0  0  0  0  0  0
   -7.0034   11.6993  -13.1368 C   0  0  0  0  0  0  0  0  0  0  0  0
   -7.8411    9.9886  -11.7443 C   0  0  0  0  0  0  0  0  0  0  0  0
   -7.2672   10.6062  -10.5986 C   0  0  0  0  0  0  0  0  0  0  0  0
   -7.6276    9.7408   -9.5022 C   0  0  0  0  0  0  0  0  0  0  0  0
   -8.2893    8.7195   -9.9713 N   0  0  0  0  0  0  0  0  0  0  0  0
   -8.4361    8.8492  -11.2847 N   0  0  0  0  0  0  0  0  0  0  0  0
   -7.3404    9.8857   -8.0208 C   0  0  0  0  0  0  0  0  0  0  0  0
   -5.4704   14.2158  -13.3316 C   0  0  0  0  0  0  0  0  0  0  0  0
   -4.5218   15.3458  -13.0035 C   0  0  0  0  0  0  0  0  0  0  0  0
   -5.5814   13.4696  -12.1774 N   0  0  0  0  0  0  0  0  0  0  0  0
   -5.9630   10.4847   -7.7359 C   0  0  0  0  0  0  0  0  0  0  0  0
   -5.8538   11.7563   -7.1621 C   0  0  0  0  0  0  0  0  0  0  0  0
   -4.5953   12.3060   -6.9160 C   0  0  0  0  0  0  0  0  0  0  0  0
   -3.4449   11.5852   -7.2379 C   0  0  0  0  0  0  0  0  0  0  0  0
   -3.5560   10.3115   -7.8043 C   0  0  0  0  0  0  0  0  0  0  0  0
   -4.8130    9.7655   -8.0531 C   0  0  0  0  0  0  0  0  0  0  0  0
   -2.0905   12.1634   -6.9778 C   0  0  0  0  0  0  0  0  0  0  0  0
   -1.7398   13.4211   -6.5005 C   0  0  0  0  0  0  0  0  0  0  0  0
   -0.4007   13.4556   -6.4362 N   0  0  0  0  0  0  0  0  0  0  0  0
    0.1858   12.3500   -6.8082 N   0  0  0  0  0  0  0  0  0  0  0  0
   -0.8018   11.5473   -7.1675 C   0  0  0  0  0  0  0  0  0  0  0  0
    0.4333   14.5672   -6.0053 C   0  0  0  0  0  0  0  0  0  0  0  0
   -6.0131   14.0330  -14.4162 O   0  0  0  0  0  0  0  0  0  0  0  0
   -4.6790   13.9767  -11.1295 C   0  0  0  0  0  0  0  0  0  0  0  0
   -4.0830   15.2556  -11.5883 C   0  0  0  0  0  0  0  0  0  0  0  0
   -6.1181   12.2807   -9.8804 H   0  0  0  0  0  0  0  0  0  0  0  0
   -8.7624   10.7378  -13.3832 H   0  0  0  0  0  0  0  0  0  0  0  0
   -7.2763    9.7721  -13.6757 H   0  0  0  0  0  0  0  0  0  0  0  0
   -6.8897   12.1539  -14.1098 H   0  0  0  0  0  0  0  0  0  0  0  0
   -8.6335    7.9556   -9.4254 H   0  0  0  0  0  0  0  0  0  0  0  0
   -8.0363    9.5960   -7.2473 H   0  0  0  0  0  0  0  0  0  0  0  0
   -4.2080   16.1098  -13.6994 H   0  0  0  0  0  0  0  0  0  0  0  0
   -6.7444   12.3126   -6.9096 H   0  0  0  0  0  0  0  0  0  0  0  0
   -4.5117   13.2890   -6.4765 H   0  0  0  0  0  0  0  0  0  0  0  0
   -2.6662    9.7505   -8.0491 H   0  0  0  0  0  0  0  0  0  0  0  0
   -4.8962    8.7826   -8.4928 H   0  0  0  0  0  0  0  0  0  0  0  0
   -2.4169   14.2186   -6.2325 H   0  0  0  0  0  0  0  0  0  0  0  0
   -0.6596   10.5498   -7.5564 H   0  0  0  0  0  0  0  0  0  0  0  0
    1.4925   14.2769   -6.0668 H   0  0  0  0  0  0  0  0  0  0  0  0
    0.2526   15.4350   -6.6567 H   0  0  0  0  0  0  0  0  0  0  0  0
    0.1851   14.8305   -4.9665 H   0  0  0  0  0  0  0  0  0  0  0  0
   -6.5611   13.2584  -14.3700 H   0  0  0  0  0  0  0  0  0  0  0  0
   -5.2469   14.1452  -10.2026 H   0  0  0  0  0  0  0  0  0  0  0  0
   -3.8809   13.2432  -10.9424 H   0  0  0  0  0  0  0  0  0  0  0  0
   -2.9857   15.2276  -11.5166 H   0  0  0  0  0  0  0  0  0  0  0  0
   -4.4673   16.1029  -11.0014 H   0  0  0  0  0  0  0  0  0  0  0  0
  1  2  1  0  0  0  0
  1  4  2  0  0  0  0
  1 13  1  0  0  0  0
  2  6  2  0  0  0  0
  3  4  1  0  0  0  0
  3  5  1  0  0  0  0
  5  6  1  0  0  0  0
  5  9  2  0  0  0  0
  6  7  1  0  0  0  0
  7  8  1  0  0  0  0
  7 10  2  3  0  0  0
  8  9  1  0  0  0  0
 10 14  1  0  0  0  0
 11 12  2  0  0  0  0
 11 13  1  0  0  0  0
 11 26  1  0  0  0  0
 12 28  1  0  0  0  0
 13 27  1  0  0  0  0
 14 15  2  0  0  0  0
 14 19  1  0  0  0  0
 15 16  1  0  0  0  0
 16 17  2  0  0  0  0
 17 18  1  0  0  0  0
 17 20  1  0  0  0  0
 18 19  2  0  0  0  0
 20 21  2  0  0  0  0
 20 24  1  0  0  0  0
 21 22  1  0  0  0  0
 22 23  1  0  0  0  0
 22 25  1  0  0  0  0
 23 24  2  0  0  0  0
 27 28  1  0  0  0  0
  2 29  1  0  0  0  0
  3 30  1  0  0  0  0
  3 31  1  0  0  0  0
  4 32  1  0  0  0  0
  8 33  1  0  0  0  0
 10 34  1  0  0  0  0
 12 35  1  0  0  0  0
 15 36  1  0  0  0  0
 16 37  1  0  0  0  0
 18 38  1  0  0  0  0
 19 39  1  0  0  0  0
 21 40  1  0  0  0  0
 24 41  1  0  0  0  0
 25 42  1  0  0  0  0
 25 43  1  0  0  0  0
 25 44  1  0  0  0  0
 26 45  1  0  0  0  0
 27 46  1  0  0  0  0
 27 47  1  0  0  0  0
 28 48  1  0  0  0  0
 28 49  1  0  0  0  0
M  END
> <Name>
26

> <IC50[uM]>
0.036

$$$$
26
  -OEChem-05192314333D
 Structure written by MMmdl.
 49 53  0     1  0  0  0  0  0999 V2000
   -6.3961   12.3155  -12.0234 C   0  0  0  0  0  0  0  0  0  0  0  0
   -6.5478   11.7864  -10.7392 C   0  0  0  0  0  0  0  0  0  0  0  0
   -7.7431   10.5278  -13.0269 C   0  0  0  0  0  0  0  0  0  0  0  0
   -7.0034   11.6993  -13.1368 C   0  0  0  0  0  0  0  0  0  0  0  0
   -7.8411    9.9886  -11.7443 C   0  0  0  0  0  0  0  0  0  0  0  0
   -7.2672   10.6062  -10.5986 C   0  0  0  0  0  0  0  0  0  0  0  0
   -7.6276    9.7408   -9.5022 C   0  0  0  0  0  0  0  0  0  0  0  0
   -8.2893    8.7195   -9.9713 N   0  0  0  0  0  0  0  0  0  0  0  0
   -8.4361    8.8492  -11.2847 N   0  0  0  0  0  0  0  0  0  0  0  0
   -7.3404    9.8857   -8.0208 C   0  0  0  0  0  0  0  0  0  0  0  0
   -5.4704   14.2158  -13.3316 C   0  0  0  0  0  0  0  0  0  0  0  0
   -4.5218   15.3458  -13.0035 C   0  0  0  0  0  0  0  0  0  0  0  0
   -5.5814   13.4696  -12.1774 N   0  0  0  0  0  0  0  0  0  0  0  0
   -5.9630   10.4847   -7.7359 C   0  0  0  0  0  0  0  0  0  0  0  0
   -5.8538   11.7563   -7.1621 C   0  0  0  0  0  0  0  0  0  0  0  0
   -4.5953   12.3060   -6.9160 C   0  0  0  0  0  0  0  0  0  0  0  0
   -3.4449   11.5852   -7.2379 C   0  0  0  0  0  0  0  0  0  0  0  0
   -3.5560   10.3115   -7.8043 C   0  0  0  0  0  0  0  0  0  0  0  0
   -4.8130    9.7655   -8.0531 C   0  0  0  0  0  0  0  0  0  0  0  0
   -2.0905   12.1634   -6.9778 C   0  0  0  0  0  0  0  0  0  0  0  0
   -1.7398   13.4211   -6.5005 C   0  0  0  0  0  0  0  0  0  0  0  0
   -0.4007   13.4556   -6.4362 N   0  0  3  0  0  0  0  0  0  0  0  0
    0.1858   12.3500   -6.8082 N   0  0  0  0  0  0  0  0  0  0  0  0
   -0.8018   11.5473   -7.1675 C   0  0  0  0  0  0  0  0  0  0  0  0
    0.4333   14.5672   -6.0053 C   0  0  0  0  0  0  0  0  0  0  0  0
   -6.0131   14.0330  -14.4162 O   0  0  0  0  0  0  0  0  0  0  0  0
   -4.6790   13.9767  -11.1295 C   0  0  0  0  0  0  0  0  0  0  0  0
   -4.0830   15.2556  -11.5883 C   0  0  0  0  0  0  0  0  0  0  0  0
   -6.1181   12.2807   -9.8804 H   0  0  0  0  0  0  0  0  0  0  0  0
   -8.2128   10.0638  -13.8816 H   0  0  0  0  0  0  0  0  0  0  0  0
   -6.8897   12.1539  -14.1098 H   0  0  0  0  0  0  0  0  0  0  0  0
   -8.6335    7.9556   -9.4254 H   0  0  0  0  0  0  0  0  0  0  0  0
   -8.0363    9.5960   -7.2473 H   0  0  0  0  0  0  0  0  0  0  0  0
   -4.2080   16.1098  -13.6994 H   0  0  0  0  0  0  0  0  0  0  0  0
   -6.7444   12.3126   -6.9096 H   0  0  0  0  0  0  0  0  0  0  0  0
   -4.5117   13.2890   -6.4765 H   0  0  0  0  0  0  0  0  0  0  0  0
   -2.6662    9.7505   -8.0491 H   0  0  0  0  0  0  0  0  0  0  0  0
   -4.8962    8.7826   -8.4928 H   0  0  0  0  0  0  0  0  0  0  0  0
   -2.1055   14.2006   -7.1850 H   0  0  0  0  0  0  0  0  0  0  0  0
   -2.1704   13.5795   -5.5008 H   0  0  0  0  0  0  0  0  0  0  0  0
   -0.6596   10.5498   -7.5564 H   0  0  0  0  0  0  0  0  0  0  0  0
    1.4925   14.2769   -6.0668 H   0  0  0  0  0  0  0  0  0  0  0  0
    0.2526   15.4350   -6.6567 H   0  0  0  0  0  0  0  0  0  0  0  0
    0.1851   14.8305   -4.9665 H   0  0  0  0  0  0  0  0  0  0  0  0
   -6.5611   13.2584  -14.3700 H   0  0  0  0  0  0  0  0  0  0  0  0
   -5.2469   14.1452  -10.2026 H   0  0  0  0  0  0  0  0  0  0  0  0
   -3.8809   13.2432  -10.9424 H   0  0  0  0  0  0  0  0  0  0  0  0
   -2.9857   15.2276  -11.5166 H   0  0  0  0  0  0  0  0  0  0  0  0
   -4.4673   16.1029  -11.0014 H   0  0  0  0  0  0  0  0  0  0  0  0
  1  2  2  0  0  0  0
  1  4  1  0  0  0  0
  1 13  1  0  0  0  0
  2  6  1  0  0  0  0
  3  4  2  0  0  0  0
  3  5  1  0  0  0  0
  5  6  1  0  0  0  0
  5  9  2  0  0  0  0
  6  7  2  0  0  0  0
  7  8  1  0  0  0  0
  7 10  1  0  0  0  0
  8  9  1  0  0  0  0
 10 14  2  0  0  0  0
 11 12  2  0  0  0  0
 11 13  1  0  0  0  0
 11 26  1  0  0  0  0
 12 28  1  0  0  0  0
 13 27  1  0  0  0  0
 14 15  1  0  0  0  0
 14 19  1  0  0  0  0
 15 16  2  0  0  0  0
 16 17  1  0  0  0  0
 17 18  1  0  0  0  0
 17 20  2  0  0  0  0
 18 19  2  0  0  0  0
 20 21  1  0  0  0  0
 20 24  1  0  0  0  0
 21 22  1  0  0  0  0
 22 23  1  0  0  0  0
 22 25  1  0  0  0  0
 23 24  2  0  0  0  0
 27 28  1  0  0  0  0
  2 29  1  0  0  0  0
  3 30  1  0  0  0  0
  4 31  1  0  0  0  0
  8 32  1  0  0  0  0
 10 33  1  0  0  0  0
 12 34  1  0  0  0  0
 15 35  1  0  0  0  0
 16 36  1  0  0  0  0
 18 37  1  0  0  0  0
 19 38  1  0  0  0  0
 21 39  1  0  0  0  0
 21 40  1  0  0  0  0
 24 41  1  0  0  0  0
 25 42  1  0  0  0  0
 25 43  1  0  0  0  0
 25 44  1  0  0  0  0
 26 45  1  0  0  0  0
 27 46  1  0  0  0  0
 27 47  1  0  0  0  0
 28 48  1  0  0  0  0
 28 49  1  0  0  0  0
M  END
> <Name>
26

> <IC50[uM]>
0.036

$$$$
26
  -OEChem-05192314333D
 Structure written by MMmdl.
 49 53  0     1  0  0  0  0  0999 V2000
   -6.3961   12.3155  -12.0234 C   0  0  0  0  0  0  0  0  0  0  0  0
   -6.5478   11.7864  -10.7392 C   0  0  0  0  0  0  0  0  0  0  0  0
   -7.7431   10.5278  -13.0269 C   0  0  0  0  0  0  0  0  0  0  0  0
   -7.0034   11.6993  -13.1368 C   0  0  0  0  0  0  0  0  0  0  0  0
   -7.8411    9.9886  -11.7443 C   0  0  0  0  0  0  0  0  0  0  0  0
   -7.2672   10.6062  -10.5986 C   0  0  0  0  0  0  0  0  0  0  0  0
   -7.6276    9.7408   -9.5022 C   0  0  0  0  0  0  0  0  0  0  0  0
   -8.2893    8.7195   -9.9713 N   0  0  0  0  0  0  0  0  0  0  0  0
   -8.4361    8.8492  -11.2847 N   0  0  0  0  0  0  0  0  0  0  0  0
   -7.3404    9.8857   -8.0208 C   0  0  0  0  0  0  0  0  0  0  0  0
   -5.4704   14.2158  -13.3316 C   0  0  0  0  0  0  0  0  0  0  0  0
   -4.5218   15.3458  -13.0035 C   0  0  0  0  0  0  0  0  0  0  0  0
   -5.5814   13.4696  -12.1774 N   0  0  0  0  0  0  0  0  0  0  0  0
   -5.9630   10.4847   -7.7359 C   0  0  0  0  0  0  0  0  0  0  0  0
   -5.8538   11.7563   -7.1621 C   0  0  0  0  0  0  0  0  0  0  0  0
   -4.5953   12.3060   -6.9160 C   0  0  0  0  0  0  0  0  0  0  0  0
   -3.4449   11.5852   -7.2379 C   0  0  0  0  0  0  0  0  0  0  0  0
   -3.5560   10.3115   -7.8043 C   0  0  0  0  0  0  0  0  0  0  0  0
   -4.8130    9.7655   -8.0531 C   0  0  0  0  0  0  0  0  0  0  0  0
   -2.0905   12.1634   -6.9778 C   0  0  0  0  0  0  0  0  0  0  0  0
   -1.7398   13.4211   -6.5005 C   0  0  0  0  0  0  0  0  0  0  0  0
   -0.4007   13.4556   -6.4362 N   0  0  3  0  0  0  0  0  0  0  0  0
    0.1858   12.3500   -6.8082 N   0  0  0  0  0  0  0  0  0  0  0  0
   -0.8018   11.5473   -7.1675 C   0  0  0  0  0  0  0  0  0  0  0  0
    0.4333   14.5672   -6.0053 C   0  0  0  0  0  0  0  0  0  0  0  0
   -6.0131   14.0330  -14.4162 O   0  0  0  0  0  0  0  0  0  0  0  0
   -4.6790   13.9767  -11.1295 C   0  0  0  0  0  0  0  0  0  0  0  0
   -4.0830   15.2556  -11.5883 C   0  0  0  0  0  0  0  0  0  0  0  0
   -6.1181   12.2807   -9.8804 H   0  0  0  0  0  0  0  0  0  0  0  0
   -8.2128   10.0638  -13.8816 H   0  0  0  0  0  0  0  0  0  0  0  0
   -6.8897   12.1539  -14.1098 H   0  0  0  0  0  0  0  0  0  0  0  0
   -8.9215    8.1945  -11.8642 H   0  0  0  0  0  0  0  0  0  0  0  0
   -8.0363    9.5960   -7.2473 H   0  0  0  0  0  0  0  0  0  0  0  0
   -4.2080   16.1098  -13.6994 H   0  0  0  0  0  0  0  0  0  0  0  0
   -6.7444   12.3126   -6.9096 H   0  0  0  0  0  0  0  0  0  0  0  0
   -4.5117   13.2890   -6.4765 H   0  0  0  0  0  0  0  0  0  0  0  0
   -2.6662    9.7505   -8.0491 H   0  0  0  0  0  0  0  0  0  0  0  0
   -4.8962    8.7826   -8.4928 H   0  0  0  0  0  0  0  0  0  0  0  0
   -2.1055   14.2006   -7.1850 H   0  0  0  0  0  0  0  0  0  0  0  0
   -2.1704   13.5795   -5.5008 H   0  0  0  0  0  0  0  0  0  0  0  0
   -0.6596   10.5498   -7.5564 H   0  0  0  0  0  0  0  0  0  0  0  0
    1.4925   14.2769   -6.0668 H   0  0  0  0  0  0  0  0  0  0  0  0
    0.2526   15.4350   -6.6567 H   0  0  0  0  0  0  0  0  0  0  0  0
    0.1851   14.8305   -4.9665 H   0  0  0  0  0  0  0  0  0  0  0  0
   -6.5611   13.2584  -14.3700 H   0  0  0  0  0  0  0  0  0  0  0  0
   -5.2469   14.1452  -10.2026 H   0  0  0  0  0  0  0  0  0  0  0  0
   -3.8809   13.2432  -10.9424 H   0  0  0  0  0  0  0  0  0  0  0  0
   -2.9857   15.2276  -11.5166 H   0  0  0  0  0  0  0  0  0  0  0  0
   -4.4673   16.1029  -11.0014 H   0  0  0  0  0  0  0  0  0  0  0  0
  1  2  2  0  0  0  0
  1  4  1  0  0  0  0
  1 13  1  0  0  0  0
  2  6  1  0  0  0  0
  3  4  2  0  0  0  0
  3  5  1  0  0  0  0
  5  6  2  0  0  0  0
  5  9  1  0  0  0  0
  6  7  1  0  0  0  0
  7  8  2  0  0  0  0
  7 10  1  0  0  0  0
  8  9  1  0  0  0  0
 10 14  2  0  0  0  0
 11 12  2  0  0  0  0
 11 13  1  0  0  0  0
 11 26  1  0  0  0  0
 12 28  1  0  0  0  0
 13 27  1  0  0  0  0
 14 15  1  0  0  0  0
 14 19  1  0  0  0  0
 15 16  2  0  0  0  0
 16 17  1  0  0  0  0
 17 18  1  0  0  0  0
 17 20  2  0  0  0  0
 18 19  2  0  0  0  0
 20 21  1  0  0  0  0
 20 24  1  0  0  0  0
 21 22  1  0  0  0  0
 22 23  1  0  0  0  0
 22 25  1  0  0  0  0
 23 24  2  0  0  0  0
 27 28  1  0  0  0  0
  2 29  1  0  0  0  0
  3 30  1  0  0  0  0
  4 31  1  0  0  0  0
  9 32  1  0  0  0  0
 10 33  1  0  0  0  0
 12 34  1  0  0  0  0
 15 35  1  0  0  0  0
 16 36  1  0  0  0  0
 18 37  1  0  0  0  0
 19 38  1  0  0  0  0
 21 39  1  0  0  0  0
 21 40  1  0  0  0  0
 24 41  1  0  0  0  0
 25 42  1  0  0  0  0
 25 43  1  0  0  0  0
 25 44  1  0  0  0  0
 26 45  1  0  0  0  0
 27 46  1  0  0  0  0
 27 47  1  0  0  0  0
 28 48  1  0  0  0  0
 28 49  1  0  0  0  0
M  END
> <Name>
26

> <IC50[uM]>
0.036

$$$$
26
  -OEChem-05192314333D
 Structure written by MMmdl.
 49 53  0     0  0  0  0  0  0999 V2000
   -6.3961   12.3155  -12.0234 C   0  0  0  0  0  0  0  0  0  0  0  0
   -6.5478   11.7864  -10.7392 C   0  0  0  0  0  0  0  0  0  0  0  0
   -7.7431   10.5278  -13.0269 C   0  0  0  0  0  0  0  0  0  0  0  0
   -7.0034   11.6993  -13.1368 C   0  0  0  0  0  0  0  0  0  0  0  0
   -7.8411    9.9886  -11.7443 C   0  0  0  0  0  0  0  0  0  0  0  0
   -7.2672   10.6062  -10.5986 C   0  0  0  0  0  0  0  0  0  0  0  0
   -7.6276    9.7408   -9.5022 C   0  0  0  0  0  0  0  0  0  0  0  0
   -8.2893    8.7195   -9.9713 N   0  0  0  0  0  0  0  0  0  0  0  0
   -8.4361    8.8492  -11.2847 N   0  0  0  0  0  0  0  0  0  0  0  0
   -7.3404    9.8857   -8.0208 C   0  0  0  0  0  0  0  0  0  0  0  0
   -5.4704   14.2158  -13.3316 C   0  0  0  0  0  0  0  0  0  0  0  0
   -4.5218   15.3458  -13.0035 C   0  0  0  0  0  0  0  0  0  0  0  0
   -5.5814   13.4696  -12.1774 N   0  0  0  0  0  0  0  0  0  0  0  0
   -5.9630   10.4847   -7.7359 C   0  0  0  0  0  0  0  0  0  0  0  0
   -5.8538   11.7563   -7.1621 C   0  0  0  0  0  0  0  0  0  0  0  0
   -4.5953   12.3060   -6.9160 C   0  0  0  0  0  0  0  0  0  0  0  0
   -3.4449   11.5852   -7.2379 C   0  0  0  0  0  0  0  0  0  0  0  0
   -3.5560   10.3115   -7.8043 C   0  0  0  0  0  0  0  0  0  0  0  0
   -4.8130    9.7655   -8.0531 C   0  0  0  0  0  0  0  0  0  0  0  0
   -2.0905   12.1634   -6.9778 C   0  0  0  0  0  0  0  0  0  0  0  0
   -1.7398   13.4211   -6.5005 C   0  0  0  0  0  0  0  0  0  0  0  0
   -0.4007   13.4556   -6.4362 N   0  0  0  0  0  0  0  0  0  0  0  0
    0.1858   12.3500   -6.8082 N   0  0  0  0  0  0  0  0  0  0  0  0
   -0.8018   11.5473   -7.1675 C   0  0  0  0  0  0  0  0  0  0  0  0
    0.4333   14.5672   -6.0053 C   0  0  0  0  0  0  0  0  0  0  0  0
   -6.0131   14.0330  -14.4162 O   0  0  0  0  0  0  0  0  0  0  0  0
   -4.6790   13.9767  -11.1295 C   0  0  0  0  0  0  0  0  0  0  0  0
   -4.0830   15.2556  -11.5883 C   0  0  0  0  0  0  0  0  0  0  0  0
   -6.1181   12.2807   -9.8804 H   0  0  0  0  0  0  0  0  0  0  0  0
   -8.2128   10.0638  -13.8816 H   0  0  0  0  0  0  0  0  0  0  0  0
   -6.8897   12.1539  -14.1098 H   0  0  0  0  0  0  0  0  0  0  0  0
   -8.6335    7.9556   -9.4254 H   0  0  0  0  0  0  0  0  0  0  0  0
   -8.0363    9.5960   -7.2473 H   0  0  0  0  0  0  0  0  0  0  0  0
   -4.2080   16.1098  -13.6994 H   0  0  0  0  0  0  0  0  0  0  0  0
   -6.7444   12.3126   -6.9096 H   0  0  0  0  0  0  0  0  0  0  0  0
   -4.5117   13.2890   -6.4765 H   0  0  0  0  0  0  0  0  0  0  0  0
   -3.4442   12.0330   -8.2426 H   0  0  0  0  0  0  0  0  0  0  0  0
   -2.6662    9.7505   -8.0491 H   0  0  0  0  0  0  0  0  0  0  0  0
   -4.8962    8.7826   -8.4928 H   0  0  0  0  0  0  0  0  0  0  0  0
   -2.4169   14.2186   -6.2325 H   0  0  0  0  0  0  0  0  0  0  0  0
   -0.6596   10.5498   -7.5564 H   0  0  0  0  0  0  0  0  0  0  0  0
    1.4925   14.2769   -6.0668 H   0  0  0  0  0  0  0  0  0  0  0  0
    0.2526   15.4350   -6.6567 H   0  0  0  0  0  0  0  0  0  0  0  0
    0.1851   14.8305   -4.9665 H   0  0  0  0  0  0  0  0  0  0  0  0
   -6.5611   13.2584  -14.3700 H   0  0  0  0  0  0  0  0  0  0  0  0
   -5.2469   14.1452  -10.2026 H   0  0  0  0  0  0  0  0  0  0  0  0
   -3.8809   13.2432  -10.9424 H   0  0  0  0  0  0  0  0  0  0  0  0
   -2.9857   15.2276  -11.5166 H   0  0  0  0  0  0  0  0  0  0  0  0
   -4.4673   16.1029  -11.0014 H   0  0  0  0  0  0  0  0  0  0  0  0
  1  2  2  0  0  0  0
  1  4  1  0  0  0  0
  1 13  1  0  0  0  0
  2  6  1  0  0  0  0
  3  4  2  0  0  0  0
  3  5  1  0  0  0  0
  5  6  1  0  0  0  0
  5  9  2  0  0  0  0
  6  7  2  0  0  0  0
  7  8  1  0  0  0  0
  7 10  1  0  0  0  0
  8  9  1  0  0  0  0
 10 14  2  0  0  0  0
 11 12  2  0  0  0  0
 11 13  1  0  0  0  0
 11 26  1  0  0  0  0
 12 28  1  0  0  0  0
 13 27  1  0  0  0  0
 14 15  1  0  0  0  0
 14 19  1  0  0  0  0
 15 16  2  0  0  0  0
 16 17  1  0  0  0  0
 17 18  1  0  0  0  0
 17 20  1  0  0  0  0
 18 19  2  0  0  0  0
 20 21  2  0  0  0  0
 20 24  1  0  0  0  0
 21 22  1  0  0  0  0
 22 23  1  0  0  0  0
 22 25  1  0  0  0  0
 23 24  2  0  0  0  0
 27 28  1  0  0  0  0
  2 29  1  0  0  0  0
  3 30  1  0  0  0  0
  4 31  1  0  0  0  0
  8 32  1  0  0  0  0
 10 33  1  0  0  0  0
 12 34  1  0  0  0  0
 15 35  1  0  0  0  0
 16 36  1  0  0  0  0
 17 37  1  0  0  0  0
 18 38  1  0  0  0  0
 19 39  1  0  0  0  0
 21 40  1  0  0  0  0
 24 41  1  0  0  0  0
 25 42  1  0  0  0  0
 25 43  1  0  0  0  0
 25 44  1  0  0  0  0
 26 45  1  0  0  0  0
 27 46  1  0  0  0  0
 27 47  1  0  0  0  0
 28 48  1  0  0  0  0
 28 49  1  0  0  0  0
M  END
> <Name>
26

> <IC50[uM]>
0.036

$$$$
26
  -OEChem-05192314333D
 Structure written by MMmdl.
 49 53  0     0  0  0  0  0  0999 V2000
   -6.3961   12.3155  -12.0234 C   0  0  0  0  0  0  0  0  0  0  0  0
   -6.5478   11.7864  -10.7392 C   0  0  0  0  0  0  0  0  0  0  0  0
   -7.7431   10.5278  -13.0269 C   0  0  0  0  0  0  0  0  0  0  0  0
   -7.0034   11.6993  -13.1368 C   0  0  0  0  0  0  0  0  0  0  0  0
   -7.8411    9.9886  -11.7443 C   0  0  0  0  0  0  0  0  0  0  0  0
   -7.2672   10.6062  -10.5986 C   0  0  0  0  0  0  0  0  0  0  0  0
   -7.6276    9.7408   -9.5022 C   0  0  0  0  0  0  0  0  0  0  0  0
   -8.2893    8.7195   -9.9713 N   0  0  0  0  0  0  0  0  0  0  0  0
   -8.4361    8.8492  -11.2847 N   0  0  0  0  0  0  0  0  0  0  0  0
   -7.3404    9.8857   -8.0208 C   0  0  0  0  0  0  0  0  0  0  0  0
   -5.4704   14.2158  -13.3316 C   0  0  0  0  0  0  0  0  0  0  0  0
   -4.5218   15.3458  -13.0035 C   0  0  0  0  0  0  0  0  0  0  0  0
   -5.5814   13.4696  -12.1774 N   0  0  0  0  0  0  0  0  0  0  0  0
   -5.9630   10.4847   -7.7359 C   0  0  0  0  0  0  0  0  0  0  0  0
   -5.8538   11.7563   -7.1621 C   0  0  0  0  0  0  0  0  0  0  0  0
   -4.5953   12.3060   -6.9160 C   0  0  0  0  0  0  0  0  0  0  0  0
   -3.4449   11.5852   -7.2379 C   0  0  0  0  0  0  0  0  0  0  0  0
   -3.5560   10.3115   -7.8043 C   0  0  0  0  0  0  0  0  0  0  0  0
   -4.8130    9.7655   -8.0531 C   0  0  0  0  0  0  0  0  0  0  0  0
   -2.0905   12.1634   -6.9778 C   0  0  0  0  0  0  0  0  0  0  0  0
   -1.7398   13.4211   -6.5005 C   0  0  0  0  0  0  0  0  0  0  0  0
   -0.4007   13.4556   -6.4362 N   0  0  0  0  0  0  0  0  0  0  0  0
    0.1858   12.3500   -6.8082 N   0  0  0  0  0  0  0  0  0  0  0  0
   -0.8018   11.5473   -7.1675 C   0  0  0  0  0  0  0  0  0  0  0  0
    0.4333   14.5672   -6.0053 C   0  0  0  0  0  0  0  0  0  0  0  0
   -6.0131   14.0330  -14.4162 O   0  0  0  0  0  0  0  0  0  0  0  0
   -4.6790   13.9767  -11.1295 C   0  0  0  0  0  0  0  0  0  0  0  0
   -4.0830   15.2556  -11.5883 C   0  0  0  0  0  0  0  0  0  0  0  0
   -6.1181   12.2807   -9.8804 H   0  0  0  0  0  0  0  0  0  0  0  0
   -8.2128   10.0638  -13.8816 H   0  0  0  0  0  0  0  0  0  0  0  0
   -6.8897   12.1539  -14.1098 H   0  0  0  0  0  0  0  0  0  0  0  0
   -8.9215    8.1945  -11.8642 H   0  0  0  0  0  0  0  0  0  0  0  0
   -8.0363    9.5960   -7.2473 H   0  0  0  0  0  0  0  0  0  0  0  0
   -4.2080   16.1098  -13.6994 H   0  0  0  0  0  0  0  0  0  0  0  0
   -6.7444   12.3126   -6.9096 H   0  0  0  0  0  0  0  0  0  0  0  0
   -4.5117   13.2890   -6.4765 H   0  0  0  0  0  0  0  0  0  0  0  0
   -3.4442   12.0330   -8.2426 H   0  0  0  0  0  0  0  0  0  0  0  0
   -2.6662    9.7505   -8.0491 H   0  0  0  0  0  0  0  0  0  0  0  0
   -4.8962    8.7826   -8.4928 H   0  0  0  0  0  0  0  0  0  0  0  0
   -2.4169   14.2186   -6.2325 H   0  0  0  0  0  0  0  0  0  0  0  0
   -0.6596   10.5498   -7.5564 H   0  0  0  0  0  0  0  0  0  0  0  0
    1.4925   14.2769   -6.0668 H   0  0  0  0  0  0  0  0  0  0  0  0
    0.2526   15.4350   -6.6567 H   0  0  0  0  0  0  0  0  0  0  0  0
    0.1851   14.8305   -4.9665 H   0  0  0  0  0  0  0  0  0  0  0  0
   -6.5611   13.2584  -14.3700 H   0  0  0  0  0  0  0  0  0  0  0  0
   -5.2469   14.1452  -10.2026 H   0  0  0  0  0  0  0  0  0  0  0  0
   -3.8809   13.2432  -10.9424 H   0  0  0  0  0  0  0  0  0  0  0  0
   -2.9857   15.2276  -11.5166 H   0  0  0  0  0  0  0  0  0  0  0  0
   -4.4673   16.1029  -11.0014 H   0  0  0  0  0  0  0  0  0  0  0  0
  1  2  2  0  0  0  0
  1  4  1  0  0  0  0
  1 13  1  0  0  0  0
  2  6  1  0  0  0  0
  3  4  2  0  0  0  0
  3  5  1  0  0  0  0
  5  6  2  0  0  0  0
  5  9  1  0  0  0  0
  6  7  1  0  0  0  0
  7  8  2  0  0  0  0
  7 10  1  0  0  0  0
  8  9  1  0  0  0  0
 10 14  2  0  0  0  0
 11 12  2  0  0  0  0
 11 13  1  0  0  0  0
 11 26  1  0  0  0  0
 12 28  1  0  0  0  0
 13 27  1  0  0  0  0
 14 15  1  0  0  0  0
 14 19  1  0  0  0  0
 15 16  2  0  0  0  0
 16 17  1  0  0  0  0
 17 18  1  0  0  0  0
 17 20  1  0  0  0  0
 18 19  2  0  0  0  0
 20 21  2  0  0  0  0
 20 24  1  0  0  0  0
 21 22  1  0  0  0  0
 22 23  1  0  0  0  0
 22 25  1  0  0  0  0
 23 24  2  0  0  0  0
 27 28  1  0  0  0  0
  2 29  1  0  0  0  0
  3 30  1  0  0  0  0
  4 31  1  0  0  0  0
  9 32  1  0  0  0  0
 10 33  1  0  0  0  0
 12 34  1  0  0  0  0
 15 35  1  0  0  0  0
 16 36  1  0  0  0  0
 17 37  1  0  0  0  0
 18 38  1  0  0  0  0
 19 39  1  0  0  0  0
 21 40  1  0  0  0  0
 24 41  1  0  0  0  0
 25 42  1  0  0  0  0
 25 43  1  0  0  0  0
 25 44  1  0  0  0  0
 26 45  1  0  0  0  0
 27 46  1  0  0  0  0
 27 47  1  0  0  0  0
 28 48  1  0  0  0  0
 28 49  1  0  0  0  0
M  END
> <Name>
26

> <IC50[uM]>
0.036

$$$$
26
  -OEChem-05192314333D
 Structure written by MMmdl.
 49 53  0     0  0  0  0  0  0999 V2000
   -6.3961   12.3155  -12.0234 C   0  0  0  0  0  0  0  0  0  0  0  0
   -6.5478   11.7864  -10.7392 C   0  0  0  0  0  0  0  0  0  0  0  0
   -7.7431   10.5278  -13.0269 C   0  0  0  0  0  0  0  0  0  0  0  0
   -7.0034   11.6993  -13.1368 C   0  0  0  0  0  0  0  0  0  0  0  0
   -7.8411    9.9886  -11.7443 C   0  0  0  0  0  0  0  0  0  0  0  0
   -7.2672   10.6062  -10.5986 C   0  0  0  0  0  0  0  0  0  0  0  0
   -7.6276    9.7408   -9.5022 C   0  0  0  0  0  0  0  0  0  0  0  0
   -8.2893    8.7195   -9.9713 N   0  0  0  0  0  0  0  0  0  0  0  0
   -8.4361    8.8492  -11.2847 N   0  0  0  0  0  0  0  0  0  0  0  0
   -7.3404    9.8857   -8.0208 C   0  0  0  0  0  0  0  0  0  0  0  0
   -5.4704   14.2158  -13.3316 C   0  0  0  0  0  0  0  0  0  0  0  0
   -4.5218   15.3458  -13.0035 C   0  0  0  0  0  0  0  0  0  0  0  0
   -5.5814   13.4696  -12.1774 N   0  0  0  0  0  0  0  0  0  0  0  0
   -5.9630   10.4847   -7.7359 C   0  0  0  0  0  0  0  0  0  0  0  0
   -5.8538   11.7563   -7.1621 C   0  0  0  0  0  0  0  0  0  0  0  0
   -4.5953   12.3060   -6.9160 C   0  0  0  0  0  0  0  0  0  0  0  0
   -3.4449   11.5852   -7.2379 C   0  0  0  0  0  0  0  0  0  0  0  0
   -3.5560   10.3115   -7.8043 C   0  0  0  0  0  0  0  0  0  0  0  0
   -4.8130    9.7655   -8.0531 C   0  0  0  0  0  0  0  0  0  0  0  0
   -2.0905   12.1634   -6.9778 C   0  0  0  0  0  0  0  0  0  0  0  0
   -1.7398   13.4211   -6.5005 C   0  0  0  0  0  0  0  0  0  0  0  0
   -0.4007   13.4556   -6.4362 N   0  0  0  0  0  0  0  0  0  0  0  0
    0.1858   12.3500   -6.8082 N   0  0  0  0  0  0  0  0  0  0  0  0
   -0.8018   11.5473   -7.1675 C   0  0  0  0  0  0  0  0  0  0  0  0
    0.4333   14.5672   -6.0053 C   0  0  0  0  0  0  0  0  0  0  0  0
   -6.0131   14.0330  -14.4162 O   0  0  0  0  0  0  0  0  0  0  0  0
   -4.6790   13.9767  -11.1295 C   0  0  0  0  0  0  0  0  0  0  0  0
   -4.0830   15.2556  -11.5883 C   0  0  0  0  0  0  0  0  0  0  0  0
   -6.1181   12.2807   -9.8804 H   0  0  0  0  0  0  0  0  0  0  0  0
   -8.2128   10.0638  -13.8816 H   0  0  0  0  0  0  0  0  0  0  0  0
   -6.8897   12.1539  -14.1098 H   0  0  0  0  0  0  0  0  0  0  0  0
   -8.6335    7.9556   -9.4254 H   0  0  0  0  0  0  0  0  0  0  0  0
   -8.0363    9.5960   -7.2473 H   0  0  0  0  0  0  0  0  0  0  0  0
   -4.2080   16.1098  -13.6994 H   0  0  0  0  0  0  0  0  0  0  0  0
   -6.7444   12.3126   -6.9096 H   0  0  0  0  0  0  0  0  0  0  0  0
   -4.5117   13.2890   -6.4765 H   0  0  0  0  0  0  0  0  0  0  0  0
   -2.6662    9.7505   -8.0491 H   0  0  0  0  0  0  0  0  0  0  0  0
   -4.8650    8.8210   -7.4917 H   0  0  0  0  0  0  0  0  0  0  0  0
   -4.8588    9.5541   -9.1316 H   0  0  0  0  0  0  0  0  0  0  0  0
   -2.4169   14.2186   -6.2325 H   0  0  0  0  0  0  0  0  0  0  0  0
   -0.6596   10.5498   -7.5564 H   0  0  0  0  0  0  0  0  0  0  0  0
    1.4925   14.2769   -6.0668 H   0  0  0  0  0  0  0  0  0  0  0  0
    0.2526   15.4350   -6.6567 H   0  0  0  0  0  0  0  0  0  0  0  0
    0.1851   14.8305   -4.9665 H   0  0  0  0  0  0  0  0  0  0  0  0
   -6.5611   13.2584  -14.3700 H   0  0  0  0  0  0  0  0  0  0  0  0
   -5.2469   14.1452  -10.2026 H   0  0  0  0  0  0  0  0  0  0  0  0
   -3.8809   13.2432  -10.9424 H   0  0  0  0  0  0  0  0  0  0  0  0
   -2.9857   15.2276  -11.5166 H   0  0  0  0  0  0  0  0  0  0  0  0
   -4.4673   16.1029  -11.0014 H   0  0  0  0  0  0  0  0  0  0  0  0
  1  2  2  0  0  0  0
  1  4  1  0  0  0  0
  1 13  1  0  0  0  0
  2  6  1  0  0  0  0
  3  4  2  0  0  0  0
  3  5  1  0  0  0  0
  5  6  1  0  0  0  0
  5  9  2  0  0  0  0
  6  7  2  0  0  0  0
  7  8  1  0  0  0  0
  7 10  1  0  0  0  0
  8  9  1  0  0  0  0
 10 14  2  3  0  0  0
 11 12  2  0  0  0  0
 11 13  1  0  0  0  0
 11 26  1  0  0  0  0
 12 28  1  0  0  0  0
 13 27  1  0  0  0  0
 14 15  1  0  0  0  0
 14 19  1  0  0  0  0
 15 16  2  0  0  0  0
 16 17  1  0  0  0  0
 17 18  2  0  0  0  0
 17 20  1  0  0  0  0
 18 19  1  0  0  0  0
 20 21  2  0  0  0  0
 20 24  1  0  0  0  0
 21 22  1  0  0  0  0
 22 23  1  0  0  0  0
 22 25  1  0  0  0  0
 23 24  2  0  0  0  0
 27 28  1  0  0  0  0
  2 29  1  0  0  0  0
  3 30  1  0  0  0  0
  4 31  1  0  0  0  0
  8 32  1  0  0  0  0
 10 33  1  0  0  0  0
 12 34  1  0  0  0  0
 15 35  1  0  0  0  0
 16 36  1  0  0  0  0
 18 37  1  0  0  0  0
 19 38  1  0  0  0  0
 19 39  1  0  0  0  0
 21 40  1  0  0  0  0
 24 41  1  0  0  0  0
 25 42  1  0  0  0  0
 25 43  1  0  0  0  0
 25 44  1  0  0  0  0
 26 45  1  0  0  0  0
 27 46  1  0  0  0  0
 27 47  1  0  0  0  0
 28 48  1  0  0  0  0
 28 49  1  0  0  0  0
M  END
> <Name>
26

> <IC50[uM]>
0.036

$$$$
26
  -OEChem-05192314333D
 Structure written by MMmdl.
 49 53  0     0  0  0  0  0  0999 V2000
   -6.3961   12.3155  -12.0234 C   0  0  0  0  0  0  0  0  0  0  0  0
   -6.5478   11.7864  -10.7392 C   0  0  0  0  0  0  0  0  0  0  0  0
   -7.7431   10.5278  -13.0269 C   0  0  0  0  0  0  0  0  0  0  0  0
   -7.0034   11.6993  -13.1368 C   0  0  0  0  0  0  0  0  0  0  0  0
   -7.8411    9.9886  -11.7443 C   0  0  0  0  0  0  0  0  0  0  0  0
   -7.2672   10.6062  -10.5986 C   0  0  0  0  0  0  0  0  0  0  0  0
   -7.6276    9.7408   -9.5022 C   0  0  0  0  0  0  0  0  0  0  0  0
   -8.2893    8.7195   -9.9713 N   0  0  0  0  0  0  0  0  0  0  0  0
   -8.4361    8.8492  -11.2847 N   0  0  0  0  0  0  0  0  0  0  0  0
   -7.3404    9.8857   -8.0208 C   0  0  0  0  0  0  0  0  0  0  0  0
   -5.4704   14.2158  -13.3316 C   0  0  0  0  0  0  0  0  0  0  0  0
   -4.5218   15.3458  -13.0035 C   0  0  0  0  0  0  0  0  0  0  0  0
   -5.5814   13.4696  -12.1774 N   0  0  0  0  0  0  0  0  0  0  0  0
   -5.9630   10.4847   -7.7359 C   0  0  0  0  0  0  0  0  0  0  0  0
   -5.8538   11.7563   -7.1621 C   0  0  0  0  0  0  0  0  0  0  0  0
   -4.5953   12.3060   -6.9160 C   0  0  0  0  0  0  0  0  0  0  0  0
   -3.4449   11.5852   -7.2379 C   0  0  0  0  0  0  0  0  0  0  0  0
   -3.5560   10.3115   -7.8043 C   0  0  0  0  0  0  0  0  0  0  0  0
   -4.8130    9.7655   -8.0531 C   0  0  0  0  0  0  0  0  0  0  0  0
   -2.0905   12.1634   -6.9778 C   0  0  0  0  0  0  0  0  0  0  0  0
   -1.7398   13.4211   -6.5005 C   0  0  0  0  0  0  0  0  0  0  0  0
   -0.4007   13.4556   -6.4362 N   0  0  0  0  0  0  0  0  0  0  0  0
    0.1858   12.3500   -6.8082 N   0  0  0  0  0  0  0  0  0  0  0  0
   -0.8018   11.5473   -7.1675 C   0  0  0  0  0  0  0  0  0  0  0  0
    0.4333   14.5672   -6.0053 C   0  0  0  0  0  0  0  0  0  0  0  0
   -6.0131   14.0330  -14.4162 O   0  0  0  0  0  0  0  0  0  0  0  0
   -4.6790   13.9767  -11.1295 C   0  0  0  0  0  0  0  0  0  0  0  0
   -4.0830   15.2556  -11.5883 C   0  0  0  0  0  0  0  0  0  0  0  0
   -6.1181   12.2807   -9.8804 H   0  0  0  0  0  0  0  0  0  0  0  0
   -8.2128   10.0638  -13.8816 H   0  0  0  0  0  0  0  0  0  0  0  0
   -6.8897   12.1539  -14.1098 H   0  0  0  0  0  0  0  0  0  0  0  0
   -8.9215    8.1945  -11.8642 H   0  0  0  0  0  0  0  0  0  0  0  0
   -8.0363    9.5960   -7.2473 H   0  0  0  0  0  0  0  0  0  0  0  0
   -4.2080   16.1098  -13.6994 H   0  0  0  0  0  0  0  0  0  0  0  0
   -6.7444   12.3126   -6.9096 H   0  0  0  0  0  0  0  0  0  0  0  0
   -4.5117   13.2890   -6.4765 H   0  0  0  0  0  0  0  0  0  0  0  0
   -2.6662    9.7505   -8.0491 H   0  0  0  0  0  0  0  0  0  0  0  0
   -4.8650    8.8210   -7.4917 H   0  0  0  0  0  0  0  0  0  0  0  0
   -4.8588    9.5541   -9.1316 H   0  0  0  0  0  0  0  0  0  0  0  0
   -2.4169   14.2186   -6.2325 H   0  0  0  0  0  0  0  0  0  0  0  0
   -0.6596   10.5498   -7.5564 H   0  0  0  0  0  0  0  0  0  0  0  0
    1.4925   14.2769   -6.0668 H   0  0  0  0  0  0  0  0  0  0  0  0
    0.2526   15.4350   -6.6567 H   0  0  0  0  0  0  0  0  0  0  0  0
    0.1851   14.8305   -4.9665 H   0  0  0  0  0  0  0  0  0  0  0  0
   -6.5611   13.2584  -14.3700 H   0  0  0  0  0  0  0  0  0  0  0  0
   -5.2469   14.1452  -10.2026 H   0  0  0  0  0  0  0  0  0  0  0  0
   -3.8809   13.2432  -10.9424 H   0  0  0  0  0  0  0  0  0  0  0  0
   -2.9857   15.2276  -11.5166 H   0  0  0  0  0  0  0  0  0  0  0  0
   -4.4673   16.1029  -11.0014 H   0  0  0  0  0  0  0  0  0  0  0  0
  1  2  2  0  0  0  0
  1  4  1  0  0  0  0
  1 13  1  0  0  0  0
  2  6  1  0  0  0  0
  3  4  2  0  0  0  0
  3  5  1  0  0  0  0
  5  6  2  0  0  0  0
  5  9  1  0  0  0  0
  6  7  1  0  0  0  0
  7  8  2  0  0  0  0
  7 10  1  0  0  0  0
  8  9  1  0  0  0  0
 10 14  2  3  0  0  0
 11 12  2  0  0  0  0
 11 13  1  0  0  0  0
 11 26  1  0  0  0  0
 12 28  1  0  0  0  0
 13 27  1  0  0  0  0
 14 15  1  0  0  0  0
 14 19  1  0  0  0  0
 15 16  2  0  0  0  0
 16 17  1  0  0  0  0
 17 18  2  0  0  0  0
 17 20  1  0  0  0  0
 18 19  1  0  0  0  0
 20 21  2  0  0  0  0
 20 24  1  0  0  0  0
 21 22  1  0  0  0  0
 22 23  1  0  0  0  0
 22 25  1  0  0  0  0
 23 24  2  0  0  0  0
 27 28  1  0  0  0  0
  2 29  1  0  0  0  0
  3 30  1  0  0  0  0
  4 31  1  0  0  0  0
  9 32  1  0  0  0  0
 10 33  1  0  0  0  0
 12 34  1  0  0  0  0
 15 35  1  0  0  0  0
 16 36  1  0  0  0  0
 18 37  1  0  0  0  0
 19 38  1  0  0  0  0
 19 39  1  0  0  0  0
 21 40  1  0  0  0  0
 24 41  1  0  0  0  0
 25 42  1  0  0  0  0
 25 43  1  0  0  0  0
 25 44  1  0  0  0  0
 26 45  1  0  0  0  0
 27 46  1  0  0  0  0
 27 47  1  0  0  0  0
 28 48  1  0  0  0  0
 28 49  1  0  0  0  0
M  END
> <Name>
26

> <IC50[uM]>
0.036

$$$$
26
  -OEChem-05192314333D
 Structure written by MMmdl.
 49 53  0     1  0  0  0  0  0999 V2000
   -6.3961   12.3155  -12.0234 C   0  0  0  0  0  0  0  0  0  0  0  0
   -6.5478   11.7864  -10.7392 C   0  0  0  0  0  0  0  0  0  0  0  0
   -7.7431   10.5278  -13.0269 C   0  0  0  0  0  0  0  0  0  0  0  0
   -7.0034   11.6993  -13.1368 C   0  0  0  0  0  0  0  0  0  0  0  0
   -7.8411    9.9886  -11.7443 C   0  0  0  0  0  0  0  0  0  0  0  0
   -7.2672   10.6062  -10.5986 C   0  0  0  0  0  0  0  0  0  0  0  0
   -7.6276    9.7408   -9.5022 C   0  0  0  0  0  0  0  0  0  0  0  0
   -8.2893    8.7195   -9.9713 N   0  0  0  0  0  0  0  0  0  0  0  0
   -8.4361    8.8492  -11.2847 N   0  0  0  0  0  0  0  0  0  0  0  0
   -7.3404    9.8857   -8.0208 C   0  0  0  0  0  0  0  0  0  0  0  0
   -5.4704   14.2158  -13.3316 C   0  0  0  0  0  0  0  0  0  0  0  0
   -4.5218   15.3458  -13.0035 C   0  0  0  0  0  0  0  0  0  0  0  0
   -5.5814   13.4696  -12.1774 N   0  0  0  0  0  0  0  0  0  0  0  0
   -5.9630   10.4847   -7.7359 C   0  0  0  0  0  0  0  0  0  0  0  0
   -5.8538   11.7563   -7.1621 C   0  0  0  0  0  0  0  0  0  0  0  0
   -4.5953   12.3060   -6.9160 C   0  0  0  0  0  0  0  0  0  0  0  0
   -3.4449   11.5852   -7.2379 C   0  0  0  0  0  0  0  0  0  0  0  0
   -3.5560   10.3115   -7.8043 C   0  0  0  0  0  0  0  0  0  0  0  0
   -4.8130    9.7655   -8.0531 C   0  0  0  0  0  0  0  0  0  0  0  0
   -2.0905   12.1634   -6.9778 C   0  0  3  0  0  0  0  0  0  0  0  0
   -1.7398   13.4211   -6.5005 C   0  0  0  0  0  0  0  0  0  0  0  0
   -0.4007   13.4556   -6.4362 N   0  0  3  0  0  0  0  0  0  0  0  0
    0.1858   12.3500   -6.8082 N   0  0  0  0  0  0  0  0  0  0  0  0
   -0.8018   11.5473   -7.1675 C   0  0  0  0  0  0  0  0  0  0  0  0
    0.4333   14.5672   -6.0053 C   0  0  0  0  0  0  0  0  0  0  0  0
   -6.0131   14.0330  -14.4162 O   0  0  0  0  0  0  0  0  0  0  0  0
   -4.6790   13.9767  -11.1295 C   0  0  0  0  0  0  0  0  0  0  0  0
   -4.0830   15.2556  -11.5883 C   0  0  0  0  0  0  0  0  0  0  0  0
   -6.1181   12.2807   -9.8804 H   0  0  0  0  0  0  0  0  0  0  0  0
   -8.2128   10.0638  -13.8816 H   0  0  0  0  0  0  0  0  0  0  0  0
   -6.8897   12.1539  -14.1098 H   0  0  0  0  0  0  0  0  0  0  0  0
   -8.0363    9.5960   -7.2473 H   0  0  0  0  0  0  0  0  0  0  0  0
   -4.2080   16.1098  -13.6994 H   0  0  0  0  0  0  0  0  0  0  0  0
   -6.7444   12.3126   -6.9096 H   0  0  0  0  0  0  0  0  0  0  0  0
   -4.5117   13.2890   -6.4765 H   0  0  0  0  0  0  0  0  0  0  0  0
   -2.6662    9.7505   -8.0491 H   0  0  0  0  0  0  0  0  0  0  0  0
   -4.8962    8.7826   -8.4928 H   0  0  0  0  0  0  0  0  0  0  0  0
   -2.1234   11.7801   -5.9473 H   0  0  0  0  0  0  0  0  0  0  0  0
   -2.1055   14.2006   -7.1850 H   0  0  0  0  0  0  0  0  0  0  0  0
   -2.1704   13.5795   -5.5008 H   0  0  0  0  0  0  0  0  0  0  0  0
   -0.6596   10.5498   -7.5564 H   0  0  0  0  0  0  0  0  0  0  0  0
    1.4925   14.2769   -6.0668 H   0  0  0  0  0  0  0  0  0  0  0  0
    0.2526   15.4350   -6.6567 H   0  0  0  0  0  0  0  0  0  0  0  0
    0.1851   14.8305   -4.9665 H   0  0  0  0  0  0  0  0  0  0  0  0
   -6.5611   13.2584  -14.3700 H   0  0  0  0  0  0  0  0  0  0  0  0
   -5.2469   14.1452  -10.2026 H   0  0  0  0  0  0  0  0  0  0  0  0
   -3.8809   13.2432  -10.9424 H   0  0  0  0  0  0  0  0  0  0  0  0
   -2.9857   15.2276  -11.5166 H   0  0  0  0  0  0  0  0  0  0  0  0
   -4.4673   16.1029  -11.0014 H   0  0  0  0  0  0  0  0  0  0  0  0
  1  2  2  0  0  0  0
  1  4  1  0  0  0  0
  1 13  1  0  0  0  0
  2  6  1  0  0  0  0
  3  4  2  0  0  0  0
  3  5  1  0  0  0  0
  5  6  2  0  0  0  0
  5  9  1  0  0  0  0
  6  7  1  0  0  0  0
  7  8  1  0  0  0  0
  7 10  2  3  0  0  0
  8  9  2  0  0  0  0
 10 14  1  0  0  0  0
 11 12  2  0  0  0  0
 11 13  1  0  0  0  0
 11 26  1  0  0  0  0
 12 28  1  0  0  0  0
 13 27  1  0  0  0  0
 14 15  2  0  0  0  0
 14 19  1  0  0  0  0
 15 16  1  0  0  0  0
 16 17  2  0  0  0  0
 17 18  1  0  0  0  0
 17 20  1  0  0  0  0
 18 19  2  0  0  0  0
 20 21  1  0  0  0  0
 20 24  1  0  0  0  0
 21 22  1  0  0  0  0
 22 23  1  0  0  0  0
 22 25  1  0  0  0  0
 23 24  2  0  0  0  0
 27 28  1  0  0  0  0
  2 29  1  0  0  0  0
  3 30  1  0  0  0  0
  4 31  1  0  0  0  0
 10 32  1  0  0  0  0
 12 33  1  0  0  0  0
 15 34  1  0  0  0  0
 16 35  1  0  0  0  0
 18 36  1  0  0  0  0
 19 37  1  0  0  0  0
 20 38  1  0  0  0  0
 21 39  1  0  0  0  0
 21 40  1  0  0  0  0
 24 41  1  0  0  0  0
 25 42  1  0  0  0  0
 25 43  1  0  0  0  0
 25 44  1  0  0  0  0
 26 45  1  0  0  0  0
 27 46  1  0  0  0  0
 27 47  1  0  0  0  0
 28 48  1  0  0  0  0
 28 49  1  0  0  0  0
M  END
> <Name>
26

> <IC50[uM]>
0.036

$$$$
26
  -OEChem-05192314333D
 Structure written by MMmdl.
 49 53  0     1  0  0  0  0  0999 V2000
   -6.3961   12.3155  -12.0234 C   0  0  0  0  0  0  0  0  0  0  0  0
   -6.5478   11.7864  -10.7392 C   0  0  0  0  0  0  0  0  0  0  0  0
   -7.7431   10.5278  -13.0269 C   0  0  0  0  0  0  0  0  0  0  0  0
   -7.0034   11.6993  -13.1368 C   0  0  0  0  0  0  0  0  0  0  0  0
   -7.8411    9.9886  -11.7443 C   0  0  0  0  0  0  0  0  0  0  0  0
   -7.2672   10.6062  -10.5986 C   0  0  0  0  0  0  0  0  0  0  0  0
   -7.6276    9.7408   -9.5022 C   0  0  0  0  0  0  0  0  0  0  0  0
   -8.2893    8.7195   -9.9713 N   0  0  0  0  0  0  0  0  0  0  0  0
   -8.4361    8.8492  -11.2847 N   0  0  0  0  0  0  0  0  0  0  0  0
   -7.3404    9.8857   -8.0208 C   0  0  0  0  0  0  0  0  0  0  0  0
   -5.4704   14.2158  -13.3316 C   0  0  0  0  0  0  0  0  0  0  0  0
   -4.5218   15.3458  -13.0035 C   0  0  0  0  0  0  0  0  0  0  0  0
   -5.5814   13.4696  -12.1774 N   0  0  0  0  0  0  0  0  0  0  0  0
   -5.9630   10.4847   -7.7359 C   0  0  0  0  0  0  0  0  0  0  0  0
   -5.8538   11.7563   -7.1621 C   0  0  0  0  0  0  0  0  0  0  0  0
   -4.5953   12.3060   -6.9160 C   0  0  0  0  0  0  0  0  0  0  0  0
   -3.4449   11.5852   -7.2379 C   0  0  0  0  0  0  0  0  0  0  0  0
   -3.5560   10.3115   -7.8043 C   0  0  0  0  0  0  0  0  0  0  0  0
   -4.8130    9.7655   -8.0531 C   0  0  0  0  0  0  0  0  0  0  0  0
   -2.0905   12.1634   -6.9778 C   0  0  0  0  0  0  0  0  0  0  0  0
   -1.7398   13.4211   -6.5005 C   0  0  0  0  0  0  0  0  0  0  0  0
   -0.4007   13.4556   -6.4362 N   0  0  3  0  0  0  0  0  0  0  0  0
    0.1858   12.3500   -6.8082 N   0  0  0  0  0  0  0  0  0  0  0  0
   -0.8018   11.5473   -7.1675 C   0  0  0  0  0  0  0  0  0  0  0  0
    0.4333   14.5672   -6.0053 C   0  0  0  0  0  0  0  0  0  0  0  0
   -6.0131   14.0330  -14.4162 O   0  0  0  0  0  0  0  0  0  0  0  0
   -4.6790   13.9767  -11.1295 C   0  0  0  0  0  0  0  0  0  0  0  0
   -4.0830   15.2556  -11.5883 C   0  0  0  0  0  0  0  0  0  0  0  0
   -6.1181   12.2807   -9.8804 H   0  0  0  0  0  0  0  0  0  0  0  0
   -8.2128   10.0638  -13.8816 H   0  0  0  0  0  0  0  0  0  0  0  0
   -6.8897   12.1539  -14.1098 H   0  0  0  0  0  0  0  0  0  0  0  0
   -8.0363    9.5960   -7.2473 H   0  0  0  0  0  0  0  0  0  0  0  0
   -4.2080   16.1098  -13.6994 H   0  0  0  0  0  0  0  0  0  0  0  0
   -6.7444   12.3126   -6.9096 H   0  0  0  0  0  0  0  0  0  0  0  0
   -4.5117   13.2890   -6.4765 H   0  0  0  0  0  0  0  0  0  0  0  0
   -2.6662    9.7505   -8.0491 H   0  0  0  0  0  0  0  0  0  0  0  0
   -4.8962    8.7826   -8.4928 H   0  0  0  0  0  0  0  0  0  0  0  0
   -2.4169   14.2186   -6.2325 H   0  0  0  0  0  0  0  0  0  0  0  0
    0.8001   12.5193   -7.5789 H   0  0  0  0  0  0  0  0  0  0  0  0
   -0.7533   10.6304   -6.5617 H   0  0  0  0  0  0  0  0  0  0  0  0
   -0.6831   11.2911   -8.2306 H   0  0  0  0  0  0  0  0  0  0  0  0
    1.4926   14.2774   -6.0681 H   0  0  0  0  0  0  0  0  0  0  0  0
    0.2516   15.4354   -6.6558 H   0  0  0  0  0  0  0  0  0  0  0  0
    0.1861   14.8296   -4.9660 H   0  0  0  0  0  0  0  0  0  0  0  0
   -6.5611   13.2584  -14.3700 H   0  0  0  0  0  0  0  0  0  0  0  0
   -5.2469   14.1452  -10.2026 H   0  0  0  0  0  0  0  0  0  0  0  0
   -3.8809   13.2432  -10.9424 H   0  0  0  0  0  0  0  0  0  0  0  0
   -2.9857   15.2276  -11.5166 H   0  0  0  0  0  0  0  0  0  0  0  0
   -4.4673   16.1029  -11.0014 H   0  0  0  0  0  0  0  0  0  0  0  0
  1  2  2  0  0  0  0
  1  4  1  0  0  0  0
  1 13  1  0  0  0  0
  2  6  1  0  0  0  0
  3  4  2  0  0  0  0
  3  5  1  0  0  0  0
  5  6  2  0  0  0  0
  5  9  1  0  0  0  0
  6  7  1  0  0  0  0
  7  8  1  0  0  0  0
  7 10  2  3  0  0  0
  8  9  2  0  0  0  0
 10 14  1  0  0  0  0
 11 12  2  0  0  0  0
 11 13  1  0  0  0  0
 11 26  1  0  0  0  0
 12 28  1  0  0  0  0
 13 27  1  0  0  0  0
 14 15  2  0  0  0  0
 14 19  1  0  0  0  0
 15 16  1  0  0  0  0
 16 17  2  0  0  0  0
 17 18  1  0  0  0  0
 17 20  1  0  0  0  0
 18 19  2  0  0  0  0
 20 21  2  0  0  0  0
 20 24  1  0  0  0  0
 21 22  1  0  0  0  0
 22 23  1  0  0  0  0
 22 25  1  0  0  0  0
 23 24  1  0  0  0  0
 27 28  1  0  0  0  0
  2 29  1  0  0  0  0
  3 30  1  0  0  0  0
  4 31  1  0  0  0  0
 10 32  1  0  0  0  0
 12 33  1  0  0  0  0
 15 34  1  0  0  0  0
 16 35  1  0  0  0  0
 18 36  1  0  0  0  0
 19 37  1  0  0  0  0
 21 38  1  0  0  0  0
 23 39  1  0  0  0  0
 24 40  1  0  0  0  0
 24 41  1  0  0  0  0
 25 42  1  0  0  0  0
 25 43  1  0  0  0  0
 25 44  1  0  0  0  0
 26 45  1  0  0  0  0
 27 46  1  0  0  0  0
 27 47  1  0  0  0  0
 28 48  1  0  0  0  0
 28 49  1  0  0  0  0
M  END
> <Name>
26

> <IC50[uM]>
0.036

$$$$
26
  -OEChem-05192314333D
 Structure written by MMmdl.
 49 53  0     1  0  0  0  0  0999 V2000
   -6.3961   12.3155  -12.0234 C   0  0  0  0  0  0  0  0  0  0  0  0
   -6.5478   11.7864  -10.7392 C   0  0  0  0  0  0  0  0  0  0  0  0
   -7.7431   10.5278  -13.0269 C   0  0  0  0  0  0  0  0  0  0  0  0
   -7.0034   11.6993  -13.1368 C   0  0  0  0  0  0  0  0  0  0  0  0
   -7.8411    9.9886  -11.7443 C   0  0  0  0  0  0  0  0  0  0  0  0
   -7.2672   10.6062  -10.5986 C   0  0  0  0  0  0  0  0  0  0  0  0
   -7.6276    9.7408   -9.5022 C   0  0  0  0  0  0  0  0  0  0  0  0
   -8.2893    8.7195   -9.9713 N   0  0  0  0  0  0  0  0  0  0  0  0
   -8.4361    8.8492  -11.2847 N   0  0  0  0  0  0  0  0  0  0  0  0
   -7.3404    9.8857   -8.0208 C   0  0  0  0  0  0  0  0  0  0  0  0
   -5.4704   14.2158  -13.3316 C   0  0  0  0  0  0  0  0  0  0  0  0
   -4.5218   15.3458  -13.0035 C   0  0  0  0  0  0  0  0  0  0  0  0
   -5.5814   13.4696  -12.1774 N   0  0  0  0  0  0  0  0  0  0  0  0
   -5.9630   10.4847   -7.7359 C   0  0  0  0  0  0  0  0  0  0  0  0
   -5.8538   11.7563   -7.1621 C   0  0  0  0  0  0  0  0  0  0  0  0
   -4.5953   12.3060   -6.9160 C   0  0  0  0  0  0  0  0  0  0  0  0
   -3.4449   11.5852   -7.2379 C   0  0  0  0  0  0  0  0  0  0  0  0
   -3.5560   10.3115   -7.8043 C   0  0  0  0  0  0  0  0  0  0  0  0
   -4.8130    9.7655   -8.0531 C   0  0  0  0  0  0  0  0  0  0  0  0
   -2.0905   12.1634   -6.9778 C   0  0  0  0  0  0  0  0  0  0  0  0
   -1.7398   13.4211   -6.5005 C   0  0  0  0  0  0  0  0  0  0  0  0
   -0.4007   13.4556   -6.4362 N   0  0  3  0  0  0  0  0  0  0  0  0
    0.1858   12.3500   -6.8082 N   0  0  0  0  0  0  0  0  0  0  0  0
   -0.8018   11.5473   -7.1675 C   0  0  0  0  0  0  0  0  0  0  0  0
    0.4333   14.5672   -6.0053 C   0  0  0  0  0  0  0  0  0  0  0  0
   -6.0131   14.0330  -14.4162 O   0  0  0  0  0  0  0  0  0  0  0  0
   -4.6790   13.9767  -11.1295 C   0  0  0  0  0  0  0  0  0  0  0  0
   -4.0830   15.2556  -11.5883 C   0  0  0  0  0  0  0  0  0  0  0  0
   -6.1181   12.2807   -9.8804 H   0  0  0  0  0  0  0  0  0  0  0  0
   -8.2128   10.0638  -13.8816 H   0  0  0  0  0  0  0  0  0  0  0  0
   -6.8897   12.1539  -14.1098 H   0  0  0  0  0  0  0  0  0  0  0  0
   -8.0363    9.5960   -7.2473 H   0  0  0  0  0  0  0  0  0  0  0  0
   -4.2080   16.1098  -13.6994 H   0  0  0  0  0  0  0  0  0  0  0  0
   -6.7444   12.3126   -6.9096 H   0  0  0  0  0  0  0  0  0  0  0  0
   -4.5117   13.2890   -6.4765 H   0  0  0  0  0  0  0  0  0  0  0  0
   -2.6662    9.7505   -8.0491 H   0  0  0  0  0  0  0  0  0  0  0  0
   -4.8962    8.7826   -8.4928 H   0  0  0  0  0  0  0  0  0  0  0  0
   -2.1055   14.2006   -7.1850 H   0  0  0  0  0  0  0  0  0  0  0  0
   -2.1704   13.5795   -5.5008 H   0  0  0  0  0  0  0  0  0  0  0  0
    0.8001   12.5193   -7.5789 H   0  0  0  0  0  0  0  0  0  0  0  0
   -0.6596   10.5498   -7.5564 H   0  0  0  0  0  0  0  0  0  0  0  0
    1.4926   14.2774   -6.0681 H   0  0  0  0  0  0  0  0  0  0  0  0
    0.2516   15.4354   -6.6558 H   0  0  0  0  0  0  0  0  0  0  0  0
    0.1861   14.8296   -4.9660 H   0  0  0  0  0  0  0  0  0  0  0  0
   -6.5611   13.2584  -14.3700 H   0  0  0  0  0  0  0  0  0  0  0  0
   -5.2469   14.1452  -10.2026 H   0  0  0  0  0  0  0  0  0  0  0  0
   -3.8809   13.2432  -10.9424 H   0  0  0  0  0  0  0  0  0  0  0  0
   -2.9857   15.2276  -11.5166 H   0  0  0  0  0  0  0  0  0  0  0  0
   -4.4673   16.1029  -11.0014 H   0  0  0  0  0  0  0  0  0  0  0  0
  1  2  2  0  0  0  0
  1  4  1  0  0  0  0
  1 13  1  0  0  0  0
  2  6  1  0  0  0  0
  3  4  2  0  0  0  0
  3  5  1  0  0  0  0
  5  6  2  0  0  0  0
  5  9  1  0  0  0  0
  6  7  1  0  0  0  0
  7  8  1  0  0  0  0
  7 10  2  3  0  0  0
  8  9  2  0  0  0  0
 10 14  1  0  0  0  0
 11 12  2  0  0  0  0
 11 13  1  0  0  0  0
 11 26  1  0  0  0  0
 12 28  1  0  0  0  0
 13 27  1  0  0  0  0
 14 15  2  0  0  0  0
 14 19  1  0  0  0  0
 15 16  1  0  0  0  0
 16 17  2  0  0  0  0
 17 18  1  0  0  0  0
 17 20  1  0  0  0  0
 18 19  2  0  0  0  0
 20 21  1  0  0  0  0
 20 24  2  0  0  0  0
 21 22  1  0  0  0  0
 22 23  1  0  0  0  0
 22 25  1  0  0  0  0
 23 24  1  0  0  0  0
 27 28  1  0  0  0  0
  2 29  1  0  0  0  0
  3 30  1  0  0  0  0
  4 31  1  0  0  0  0
 10 32  1  0  0  0  0
 12 33  1  0  0  0  0
 15 34  1  0  0  0  0
 16 35  1  0  0  0  0
 18 36  1  0  0  0  0
 19 37  1  0  0  0  0
 21 38  1  0  0  0  0
 21 39  1  0  0  0  0
 23 40  1  0  0  0  0
 24 41  1  0  0  0  0
 25 42  1  0  0  0  0
 25 43  1  0  0  0  0
 25 44  1  0  0  0  0
 26 45  1  0  0  0  0
 27 46  1  0  0  0  0
 27 47  1  0  0  0  0
 28 48  1  0  0  0  0
 28 49  1  0  0  0  0
M  END
> <Name>
26

> <IC50[uM]>
0.036

$$$$
26
  -OEChem-05192314333D
 Structure written by MMmdl.
 49 53  0     1  0  0  0  0  0999 V2000
   -6.3961   12.3155  -12.0234 C   0  0  0  0  0  0  0  0  0  0  0  0
   -6.5478   11.7864  -10.7392 C   0  0  0  0  0  0  0  0  0  0  0  0
   -7.7431   10.5278  -13.0269 C   0  0  0  0  0  0  0  0  0  0  0  0
   -7.0034   11.6993  -13.1368 C   0  0  0  0  0  0  0  0  0  0  0  0
   -7.8411    9.9886  -11.7443 C   0  0  0  0  0  0  0  0  0  0  0  0
   -7.2672   10.6062  -10.5986 C   0  0  0  0  0  0  0  0  0  0  0  0
   -7.6276    9.7408   -9.5022 C   0  0  3  0  0  0  0  0  0  0  0  0
   -8.2893    8.7195   -9.9713 N   0  0  0  0  0  0  0  0  0  0  0  0
   -8.4361    8.8492  -11.2847 N   0  0  0  0  0  0  0  0  0  0  0  0
   -7.3404    9.8857   -8.0208 C   0  0  0  0  0  0  0  0  0  0  0  0
   -5.4704   14.2158  -13.3316 C   0  0  0  0  0  0  0  0  0  0  0  0
   -4.5218   15.3458  -13.0035 C   0  0  0  0  0  0  0  0  0  0  0  0
   -5.5814   13.4696  -12.1774 N   0  0  0  0  0  0  0  0  0  0  0  0
   -5.9630   10.4847   -7.7359 C   0  0  0  0  0  0  0  0  0  0  0  0
   -5.8538   11.7563   -7.1621 C   0  0  0  0  0  0  0  0  0  0  0  0
   -4.5953   12.3060   -6.9160 C   0  0  0  0  0  0  0  0  0  0  0  0
   -3.4449   11.5852   -7.2379 C   0  0  0  0  0  0  0  0  0  0  0  0
   -3.5560   10.3115   -7.8043 C   0  0  0  0  0  0  0  0  0  0  0  0
   -4.8130    9.7655   -8.0531 C   0  0  0  0  0  0  0  0  0  0  0  0
   -2.0905   12.1634   -6.9778 C   0  0  0  0  0  0  0  0  0  0  0  0
   -1.7398   13.4211   -6.5005 C   0  0  0  0  0  0  0  0  0  0  0  0
   -0.4007   13.4556   -6.4362 N   0  0  3  0  0  0  0  0  0  0  0  0
    0.1858   12.3500   -6.8082 N   0  0  0  0  0  0  0  0  0  0  0  0
   -0.8018   11.5473   -7.1675 C   0  0  0  0  0  0  0  0  0  0  0  0
    0.4333   14.5672   -6.0053 C   0  0  0  0  0  0  0  0  0  0  0  0
   -6.0131   14.0330  -14.4162 O   0  0  0  0  0  0  0  0  0  0  0  0
   -4.6790   13.9767  -11.1295 C   0  0  0  0  0  0  0  0  0  0  0  0
   -4.0830   15.2556  -11.5883 C   0  0  0  0  0  0  0  0  0  0  0  0
   -6.1181   12.2807   -9.8804 H   0  0  0  0  0  0  0  0  0  0  0  0
   -8.2128   10.0638  -13.8816 H   0  0  0  0  0  0  0  0  0  0  0  0
   -6.8897   12.1539  -14.1098 H   0  0  0  0  0  0  0  0  0  0  0  0
   -8.5699   10.2938   -9.3744 H   0  0  0  0  0  0  0  0  0  0  0  0
   -8.0363    9.5960   -7.2473 H   0  0  0  0  0  0  0  0  0  0  0  0
   -4.2080   16.1098  -13.6994 H   0  0  0  0  0  0  0  0  0  0  0  0
   -6.7444   12.3126   -6.9096 H   0  0  0  0  0  0  0  0  0  0  0  0
   -4.5117   13.2890   -6.4765 H   0  0  0  0  0  0  0  0  0  0  0  0
   -2.6662    9.7505   -8.0491 H   0  0  0  0  0  0  0  0  0  0  0  0
   -4.8962    8.7826   -8.4928 H   0  0  0  0  0  0  0  0  0  0  0  0
   -2.1055   14.2006   -7.1850 H   0  0  0  0  0  0  0  0  0  0  0  0
   -2.1704   13.5795   -5.5008 H   0  0  0  0  0  0  0  0  0  0  0  0
   -0.6596   10.5498   -7.5564 H   0  0  0  0  0  0  0  0  0  0  0  0
    1.4925   14.2769   -6.0668 H   0  0  0  0  0  0  0  0  0  0  0  0
    0.2526   15.4350   -6.6567 H   0  0  0  0  0  0  0  0  0  0  0  0
    0.1851   14.8305   -4.9665 H   0  0  0  0  0  0  0  0  0  0  0  0
   -6.5611   13.2584  -14.3700 H   0  0  0  0  0  0  0  0  0  0  0  0
   -5.2469   14.1452  -10.2026 H   0  0  0  0  0  0  0  0  0  0  0  0
   -3.8809   13.2432  -10.9424 H   0  0  0  0  0  0  0  0  0  0  0  0
   -2.9857   15.2276  -11.5166 H   0  0  0  0  0  0  0  0  0  0  0  0
   -4.4673   16.1029  -11.0014 H   0  0  0  0  0  0  0  0  0  0  0  0
  1  2  2  0  0  0  0
  1  4  1  0  0  0  0
  1 13  1  0  0  0  0
  2  6  1  0  0  0  0
  3  4  2  0  0  0  0
  3  5  1  0  0  0  0
  5  6  2  0  0  0  0
  5  9  1  0  0  0  0
  6  7  1  0  0  0  0
  7  8  1  0  0  0  0
  7 10  1  0  0  0  0
  8  9  2  0  0  0  0
 10 14  2  0  0  0  0
 11 12  2  0  0  0  0
 11 13  1  0  0  0  0
 11 26  1  0  0  0  0
 12 28  1  0  0  0  0
 13 27  1  0  0  0  0
 14 15  1  0  0  0  0
 14 19  1  0  0  0  0
 15 16  2  0  0  0  0
 16 17  1  0  0  0  0
 17 18  1  0  0  0  0
 17 20  2  0  0  0  0
 18 19  2  0  0  0  0
 20 21  1  0  0  0  0
 20 24  1  0  0  0  0
 21 22  1  0  0  0  0
 22 23  1  0  0  0  0
 22 25  1  0  0  0  0
 23 24  2  0  0  0  0
 27 28  1  0  0  0  0
  2 29  1  0  0  0  0
  3 30  1  0  0  0  0
  4 31  1  0  0  0  0
  7 32  1  0  0  0  0
 10 33  1  0  0  0  0
 12 34  1  0  0  0  0
 15 35  1  0  0  0  0
 16 36  1  0  0  0  0
 18 37  1  0  0  0  0
 19 38  1  0  0  0  0
 21 39  1  0  0  0  0
 21 40  1  0  0  0  0
 24 41  1  0  0  0  0
 25 42  1  0  0  0  0
 25 43  1  0  0  0  0
 25 44  1  0  0  0  0
 26 45  1  0  0  0  0
 27 46  1  0  0  0  0
 27 47  1  0  0  0  0
 28 48  1  0  0  0  0
 28 49  1  0  0  0  0
M  END
> <Name>
26

> <IC50[uM]>
0.036

$$$$
26
  -OEChem-05192314333D
 Structure written by MMmdl.
 49 53  0     1  0  0  0  0  0999 V2000
   -6.3961   12.3155  -12.0234 C   0  0  0  0  0  0  0  0  0  0  0  0
   -6.5478   11.7864  -10.7392 C   0  0  0  0  0  0  0  0  0  0  0  0
   -7.7431   10.5278  -13.0269 C   0  0  0  0  0  0  0  0  0  0  0  0
   -7.0034   11.6993  -13.1368 C   0  0  0  0  0  0  0  0  0  0  0  0
   -7.8411    9.9886  -11.7443 C   0  0  0  0  0  0  0  0  0  0  0  0
   -7.2672   10.6062  -10.5986 C   0  0  3  0  0  0  0  0  0  0  0  0
   -7.6276    9.7408   -9.5022 C   0  0  0  0  0  0  0  0  0  0  0  0
   -8.2893    8.7195   -9.9713 N   0  0  0  0  0  0  0  0  0  0  0  0
   -8.4361    8.8492  -11.2847 N   0  0  0  0  0  0  0  0  0  0  0  0
   -7.3404    9.8857   -8.0208 C   0  0  0  0  0  0  0  0  0  0  0  0
   -5.4704   14.2158  -13.3316 C   0  0  0  0  0  0  0  0  0  0  0  0
   -4.5218   15.3458  -13.0035 C   0  0  0  0  0  0  0  0  0  0  0  0
   -5.5814   13.4696  -12.1774 N   0  0  0  0  0  0  0  0  0  0  0  0
   -5.9630   10.4847   -7.7359 C   0  0  0  0  0  0  0  0  0  0  0  0
   -5.8538   11.7563   -7.1621 C   0  0  0  0  0  0  0  0  0  0  0  0
   -4.5953   12.3060   -6.9160 C   0  0  0  0  0  0  0  0  0  0  0  0
   -3.4449   11.5852   -7.2379 C   0  0  0  0  0  0  0  0  0  0  0  0
   -3.5560   10.3115   -7.8043 C   0  0  0  0  0  0  0  0  0  0  0  0
   -4.8130    9.7655   -8.0531 C   0  0  0  0  0  0  0  0  0  0  0  0
   -2.0905   12.1634   -6.9778 C   0  0  0  0  0  0  0  0  0  0  0  0
   -1.7398   13.4211   -6.5005 C   0  0  0  0  0  0  0  0  0  0  0  0
   -0.4007   13.4556   -6.4362 N   0  0  0  0  0  0  0  0  0  0  0  0
    0.1858   12.3500   -6.8082 N   0  0  0  0  0  0  0  0  0  0  0  0
   -0.8018   11.5473   -7.1675 C   0  0  0  0  0  0  0  0  0  0  0  0
    0.4333   14.5672   -6.0053 C   0  0  0  0  0  0  0  0  0  0  0  0
   -6.0131   14.0330  -14.4162 O   0  0  0  0  0  0  0  0  0  0  0  0
   -4.6790   13.9767  -11.1295 C   0  0  0  0  0  0  0  0  0  0  0  0
   -4.0830   15.2556  -11.5883 C   0  0  0  0  0  0  0  0  0  0  0  0
   -6.1181   12.2807   -9.8804 H   0  0  0  0  0  0  0  0  0  0  0  0
   -8.2128   10.0638  -13.8816 H   0  0  0  0  0  0  0  0  0  0  0  0
   -6.8897   12.1539  -14.1098 H   0  0  0  0  0  0  0  0  0  0  0  0
   -8.1901   11.1852  -10.4467 H   0  0  0  0  0  0  0  0  0  0  0  0
   -8.1057   10.5398   -7.5776 H   0  0  0  0  0  0  0  0  0  0  0  0
   -7.3935    8.8909   -7.5544 H   0  0  0  0  0  0  0  0  0  0  0  0
   -4.2080   16.1098  -13.6994 H   0  0  0  0  0  0  0  0  0  0  0  0
   -6.7444   12.3126   -6.9096 H   0  0  0  0  0  0  0  0  0  0  0  0
   -4.5117   13.2890   -6.4765 H   0  0  0  0  0  0  0  0  0  0  0  0
   -2.6662    9.7505   -8.0491 H   0  0  0  0  0  0  0  0  0  0  0  0
   -4.8962    8.7826   -8.4928 H   0  0  0  0  0  0  0  0  0  0  0  0
   -2.4169   14.2186   -6.2325 H   0  0  0  0  0  0  0  0  0  0  0  0
   -0.6596   10.5498   -7.5564 H   0  0  0  0  0  0  0  0  0  0  0  0
    1.4925   14.2769   -6.0668 H   0  0  0  0  0  0  0  0  0  0  0  0
    0.2526   15.4350   -6.6567 H   0  0  0  0  0  0  0  0  0  0  0  0
    0.1851   14.8305   -4.9665 H   0  0  0  0  0  0  0  0  0  0  0  0
   -6.5611   13.2584  -14.3700 H   0  0  0  0  0  0  0  0  0  0  0  0
   -5.2469   14.1452  -10.2026 H   0  0  0  0  0  0  0  0  0  0  0  0
   -3.8809   13.2432  -10.9424 H   0  0  0  0  0  0  0  0  0  0  0  0
   -2.9857   15.2276  -11.5166 H   0  0  0  0  0  0  0  0  0  0  0  0
   -4.4673   16.1029  -11.0014 H   0  0  0  0  0  0  0  0  0  0  0  0
  1  2  2  0  0  0  0
  1  4  1  0  0  0  0
  1 13  1  0  0  0  0
  2  6  1  0  0  0  0
  3  4  2  0  0  0  0
  3  5  1  0  0  0  0
  5  6  1  0  0  0  0
  5  9  2  0  0  0  0
  6  7  1  0  0  0  0
  7  8  2  0  0  0  0
  7 10  1  0  0  0  0
  8  9  1  0  0  0  0
 10 14  1  0  0  0  0
 11 12  2  0  0  0  0
 11 13  1  0  0  0  0
 11 26  1  0  0  0  0
 12 28  1  0  0  0  0
 13 27  1  0  0  0  0
 14 15  2  0  0  0  0
 14 19  1  0  0  0  0
 15 16  1  0  0  0  0
 16 17  2  0  0  0  0
 17 18  1  0  0  0  0
 17 20  1  0  0  0  0
 18 19  2  0  0  0  0
 20 21  2  0  0  0  0
 20 24  1  0  0  0  0
 21 22  1  0  0  0  0
 22 23  1  0  0  0  0
 22 25  1  0  0  0  0
 23 24  2  0  0  0  0
 27 28  1  0  0  0  0
  2 29  1  0  0  0  0
  3 30  1  0  0  0  0
  4 31  1  0  0  0  0
  6 32  1  0  0  0  0
 10 33  1  0  0  0  0
 10 34  1  0  0  0  0
 12 35  1  0  0  0  0
 15 36  1  0  0  0  0
 16 37  1  0  0  0  0
 18 38  1  0  0  0  0
 19 39  1  0  0  0  0
 21 40  1  0  0  0  0
 24 41  1  0  0  0  0
 25 42  1  0  0  0  0
 25 43  1  0  0  0  0
 25 44  1  0  0  0  0
 26 45  1  0  0  0  0
 27 46  1  0  0  0  0
 27 47  1  0  0  0  0
 28 48  1  0  0  0  0
 28 49  1  0  0  0  0
M  END
> <Name>
26

> <IC50[uM]>
0.036

$$$$
26
  -OEChem-05192314333D
 Structure written by MMmdl.
 49 53  0     1  0  0  0  0  0999 V2000
   -6.3961   12.3155  -12.0234 C   0  0  3  0  0  0  0  0  0  0  0  0
   -6.5478   11.7864  -10.7392 C   0  0  0  0  0  0  0  0  0  0  0  0
   -7.7431   10.5278  -13.0269 C   0  0  0  0  0  0  0  0  0  0  0  0
   -7.0034   11.6993  -13.1368 C   0  0  0  0  0  0  0  0  0  0  0  0
   -7.8411    9.9886  -11.7443 C   0  0  0  0  0  0  0  0  0  0  0  0
   -7.2672   10.6062  -10.5986 C   0  0  0  0  0  0  0  0  0  0  0  0
   -7.6276    9.7408   -9.5022 C   0  0  0  0  0  0  0  0  0  0  0  0
   -8.2893    8.7195   -9.9713 N   0  0  0  0  0  0  0  0  0  0  0  0
   -8.4361    8.8492  -11.2847 N   0  0  0  0  0  0  0  0  0  0  0  0
   -7.3404    9.8857   -8.0208 C   0  0  0  0  0  0  0  0  0  0  0  0
   -5.4704   14.2158  -13.3316 C   0  0  0  0  0  0  0  0  0  0  0  0
   -4.5218   15.3458  -13.0035 C   0  0  0  0  0  0  0  0  0  0  0  0
   -5.5814   13.4696  -12.1774 N   0  0  3  0  0  0  0  0  0  0  0  0
   -5.9630   10.4847   -7.7359 C   0  0  0  0  0  0  0  0  0  0  0  0
   -5.8538   11.7563   -7.1621 C   0  0  0  0  0  0  0  0  0  0  0  0
   -4.5953   12.3060   -6.9160 C   0  0  0  0  0  0  0  0  0  0  0  0
   -3.4449   11.5852   -7.2379 C   0  0  0  0  0  0  0  0  0  0  0  0
   -3.5560   10.3115   -7.8043 C   0  0  0  0  0  0  0  0  0  0  0  0
   -4.8130    9.7655   -8.0531 C   0  0  0  0  0  0  0  0  0  0  0  0
   -2.0905   12.1634   -6.9778 C   0  0  0  0  0  0  0  0  0  0  0  0
   -1.7398   13.4211   -6.5005 C   0  0  0  0  0  0  0  0  0  0  0  0
   -0.4007   13.4556   -6.4362 N   0  0  0  0  0  0  0  0  0  0  0  0
    0.1858   12.3500   -6.8082 N   0  0  0  0  0  0  0  0  0  0  0  0
   -0.8018   11.5473   -7.1675 C   0  0  0  0  0  0  0  0  0  0  0  0
    0.4333   14.5672   -6.0053 C   0  0  0  0  0  0  0  0  0  0  0  0
   -6.0131   14.0330  -14.4162 O   0  0  0  0  0  0  0  0  0  0  0  0
   -4.6790   13.9767  -11.1295 C   0  0  0  0  0  0  0  0  0  0  0  0
   -4.0830   15.2556  -11.5883 C   0  0  0  0  0  0  0  0  0  0  0  0
   -7.2833   12.9493  -11.8778 H   0  0  0  0  0  0  0  0  0  0  0  0
   -6.1181   12.2807   -9.8804 H   0  0  0  0  0  0  0  0  0  0  0  0
   -8.2128   10.0638  -13.8816 H   0  0  0  0  0  0  0  0  0  0  0  0
   -6.8897   12.1539  -14.1098 H   0  0  0  0  0  0  0  0  0  0  0  0
   -8.1057   10.5398   -7.5776 H   0  0  0  0  0  0  0  0  0  0  0  0
   -7.3935    8.8909   -7.5544 H   0  0  0  0  0  0  0  0  0  0  0  0
   -4.2080   16.1098  -13.6994 H   0  0  0  0  0  0  0  0  0  0  0  0
   -6.7444   12.3126   -6.9096 H   0  0  0  0  0  0  0  0  0  0  0  0
   -4.5117   13.2890   -6.4765 H   0  0  0  0  0  0  0  0  0  0  0  0
   -2.6662    9.7505   -8.0491 H   0  0  0  0  0  0  0  0  0  0  0  0
   -4.8962    8.7826   -8.4928 H   0  0  0  0  0  0  0  0  0  0  0  0
   -2.4169   14.2186   -6.2325 H   0  0  0  0  0  0  0  0  0  0  0  0
   -0.6596   10.5498   -7.5564 H   0  0  0  0  0  0  0  0  0  0  0  0
    1.4925   14.2769   -6.0668 H   0  0  0  0  0  0  0  0  0  0  0  0
    0.2526   15.4350   -6.6567 H   0  0  0  0  0  0  0  0  0  0  0  0
    0.1851   14.8305   -4.9665 H   0  0  0  0  0  0  0  0  0  0  0  0
   -6.5611   13.2584  -14.3700 H   0  0  0  0  0  0  0  0  0  0  0  0
   -5.2469   14.1452  -10.2026 H   0  0  0  0  0  0  0  0  0  0  0  0
   -3.8809   13.2432  -10.9424 H   0  0  0  0  0  0  0  0  0  0  0  0
   -2.9857   15.2276  -11.5166 H   0  0  0  0  0  0  0  0  0  0  0  0
   -4.4673   16.1029  -11.0014 H   0  0  0  0  0  0  0  0  0  0  0  0
  1  2  1  0  0  0  0
  1  4  1  0  0  0  0
  1 13  1  0  0  0  0
  2  6  2  0  0  0  0
  3  4  2  0  0  0  0
  3  5  1  0  0  0  0
  5  6  1  0  0  0  0
  5  9  2  0  0  0  0
  6  7  1  0  0  0  0
  7  8  2  0  0  0  0
  7 10  1  0  0  0  0
  8  9  1  0  0  0  0
 10 14  1  0  0  0  0
 11 12  2  0  0  0  0
 11 13  1  0  0  0  0
 11 26  1  0  0  0  0
 12 28  1  0  0  0  0
 13 27  1  0  0  0  0
 14 15  2  0  0  0  0
 14 19  1  0  0  0  0
 15 16  1  0  0  0  0
 16 17  2  0  0  0  0
 17 18  1  0  0  0  0
 17 20  1  0  0  0  0
 18 19  2  0  0  0  0
 20 21  2  0  0  0  0
 20 24  1  0  0  0  0
 21 22  1  0  0  0  0
 22 23  1  0  0  0  0
 22 25  1  0  0  0  0
 23 24  2  0  0  0  0
 27 28  1  0  0  0  0
  1 29  1  0  0  0  0
  2 30  1  0  0  0  0
  3 31  1  0  0  0  0
  4 32  1  0  0  0  0
 10 33  1  0  0  0  0
 10 34  1  0  0  0  0
 12 35  1  0  0  0  0
 15 36  1  0  0  0  0
 16 37  1  0  0  0  0
 18 38  1  0  0  0  0
 19 39  1  0  0  0  0
 21 40  1  0  0  0  0
 24 41  1  0  0  0  0
 25 42  1  0  0  0  0
 25 43  1  0  0  0  0
 25 44  1  0  0  0  0
 26 45  1  0  0  0  0
 27 46  1  0  0  0  0
 27 47  1  0  0  0  0
 28 48  1  0  0  0  0
 28 49  1  0  0  0  0
M  END
> <Name>
26

> <IC50[uM]>
0.036

$$$$
26
  -OEChem-05192314333D
 Structure written by MMmdl.
 49 53  0     0  0  0  0  0  0999 V2000
   -6.3961   12.3155  -12.0234 C   0  0  0  0  0  0  0  0  0  0  0  0
   -6.5478   11.7864  -10.7392 C   0  0  0  0  0  0  0  0  0  0  0  0
   -7.7431   10.5278  -13.0269 C   0  0  0  0  0  0  0  0  0  0  0  0
   -7.0034   11.6993  -13.1368 C   0  0  0  0  0  0  0  0  0  0  0  0
   -7.8411    9.9886  -11.7443 C   0  0  0  0  0  0  0  0  0  0  0  0
   -7.2672   10.6062  -10.5986 C   0  0  0  0  0  0  0  0  0  0  0  0
   -7.6276    9.7408   -9.5022 C   0  0  0  0  0  0  0  0  0  0  0  0
   -8.2893    8.7195   -9.9713 N   0  0  0  0  0  0  0  0  0  0  0  0
   -8.4361    8.8492  -11.2847 N   0  0  0  0  0  0  0  0  0  0  0  0
   -7.3404    9.8857   -8.0208 C   0  0  0  0  0  0  0  0  0  0  0  0
   -5.4704   14.2158  -13.3316 C   0  0  0  0  0  0  0  0  0  0  0  0
   -4.5218   15.3458  -13.0035 C   0  0  0  0  0  0  0  0  0  0  0  0
   -5.5814   13.4696  -12.1774 N   0  0  0  0  0  0  0  0  0  0  0  0
   -5.9630   10.4847   -7.7359 C   0  0  0  0  0  0  0  0  0  0  0  0
   -5.8538   11.7563   -7.1621 C   0  0  0  0  0  0  0  0  0  0  0  0
   -4.5953   12.3060   -6.9160 C   0  0  0  0  0  0  0  0  0  0  0  0
   -3.4449   11.5852   -7.2379 C   0  0  0  0  0  0  0  0  0  0  0  0
   -3.5560   10.3115   -7.8043 C   0  0  0  0  0  0  0  0  0  0  0  0
   -4.8130    9.7655   -8.0531 C   0  0  0  0  0  0  0  0  0  0  0  0
   -2.0905   12.1634   -6.9778 C   0  0  0  0  0  0  0  0  0  0  0  0
   -1.7398   13.4211   -6.5005 C   0  0  0  0  0  0  0  0  0  0  0  0
   -0.4007   13.4556   -6.4362 N   0  0  0  0  0  0  0  0  0  0  0  0
    0.1858   12.3500   -6.8082 N   0  0  0  0  0  0  0  0  0  0  0  0
   -0.8018   11.5473   -7.1675 C   0  0  0  0  0  0  0  0  0  0  0  0
    0.4333   14.5672   -6.0053 C   0  0  0  0  0  0  0  0  0  0  0  0
   -6.0131   14.0330  -14.4162 O   0  0  0  0  0  0  0  0  0  0  0  0
   -4.6790   13.9767  -11.1295 C   0  0  0  0  0  0  0  0  0  0  0  0
   -4.0830   15.2556  -11.5883 C   0  0  0  0  0  0  0  0  0  0  0  0
   -6.1181   12.2807   -9.8804 H   0  0  0  0  0  0  0  0  0  0  0  0
   -8.7624   10.7378  -13.3832 H   0  0  0  0  0  0  0  0  0  0  0  0
   -7.2763    9.7721  -13.6757 H   0  0  0  0  0  0  0  0  0  0  0  0
   -6.8897   12.1539  -14.1098 H   0  0  0  0  0  0  0  0  0  0  0  0
   -8.1057   10.5398   -7.5776 H   0  0  0  0  0  0  0  0  0  0  0  0
   -7.3935    8.8909   -7.5544 H   0  0  0  0  0  0  0  0  0  0  0  0
   -4.2080   16.1098  -13.6994 H   0  0  0  0  0  0  0  0  0  0  0  0
   -6.7444   12.3126   -6.9096 H   0  0  0  0  0  0  0  0  0  0  0  0
   -4.5117   13.2890   -6.4765 H   0  0  0  0  0  0  0  0  0  0  0  0
   -2.6662    9.7505   -8.0491 H   0  0  0  0  0  0  0  0  0  0  0  0
   -4.8962    8.7826   -8.4928 H   0  0  0  0  0  0  0  0  0  0  0  0
   -2.4169   14.2186   -6.2325 H   0  0  0  0  0  0  0  0  0  0  0  0
   -0.6596   10.5498   -7.5564 H   0  0  0  0  0  0  0  0  0  0  0  0
    1.4925   14.2769   -6.0668 H   0  0  0  0  0  0  0  0  0  0  0  0
    0.2526   15.4350   -6.6567 H   0  0  0  0  0  0  0  0  0  0  0  0
    0.1851   14.8305   -4.9665 H   0  0  0  0  0  0  0  0  0  0  0  0
   -6.5611   13.2584  -14.3700 H   0  0  0  0  0  0  0  0  0  0  0  0
   -5.2469   14.1452  -10.2026 H   0  0  0  0  0  0  0  0  0  0  0  0
   -3.8809   13.2432  -10.9424 H   0  0  0  0  0  0  0  0  0  0  0  0
   -2.9857   15.2276  -11.5166 H   0  0  0  0  0  0  0  0  0  0  0  0
   -4.4673   16.1029  -11.0014 H   0  0  0  0  0  0  0  0  0  0  0  0
  1  2  1  0  0  0  0
  1  4  2  0  0  0  0
  1 13  1  0  0  0  0
  2  6  2  0  0  0  0
  3  4  1  0  0  0  0
  3  5  1  0  0  0  0
  5  6  1  0  0  0  0
  5  9  2  0  0  0  0
  6  7  1  0  0  0  0
  7  8  2  0  0  0  0
  7 10  1  0  0  0  0
  8  9  1  0  0  0  0
 10 14  1  0  0  0  0
 11 12  2  0  0  0  0
 11 13  1  0  0  0  0
 11 26  1  0  0  0  0
 12 28  1  0  0  0  0
 13 27  1  0  0  0  0
 14 15  2  0  0  0  0
 14 19  1  0  0  0  0
 15 16  1  0  0  0  0
 16 17  2  0  0  0  0
 17 18  1  0  0  0  0
 17 20  1  0  0  0  0
 18 19  2  0  0  0  0
 20 21  2  0  0  0  0
 20 24  1  0  0  0  0
 21 22  1  0  0  0  0
 22 23  1  0  0  0  0
 22 25  1  0  0  0  0
 23 24  2  0  0  0  0
 27 28  1  0  0  0  0
  2 29  1  0  0  0  0
  3 30  1  0  0  0  0
  3 31  1  0  0  0  0
  4 32  1  0  0  0  0
 10 33  1  0  0  0  0
 10 34  1  0  0  0  0
 12 35  1  0  0  0  0
 15 36  1  0  0  0  0
 16 37  1  0  0  0  0
 18 38  1  0  0  0  0
 19 39  1  0  0  0  0
 21 40  1  0  0  0  0
 24 41  1  0  0  0  0
 25 42  1  0  0  0  0
 25 43  1  0  0  0  0
 25 44  1  0  0  0  0
 26 45  1  0  0  0  0
 27 46  1  0  0  0  0
 27 47  1  0  0  0  0
 28 48  1  0  0  0  0
 28 49  1  0  0  0  0
M  END
> <Name>
26

> <IC50[uM]>
0.036

$$$$
26
  -OEChem-05192314333D
 Structure written by MMmdl.
 49 53  0     0  0  0  0  0  0999 V2000
   -6.3961   12.3155  -12.0234 C   0  0  0  0  0  0  0  0  0  0  0  0
   -6.5478   11.7864  -10.7392 C   0  0  0  0  0  0  0  0  0  0  0  0
   -7.7431   10.5278  -13.0269 C   0  0  0  0  0  0  0  0  0  0  0  0
   -7.0034   11.6993  -13.1368 C   0  0  0  0  0  0  0  0  0  0  0  0
   -7.8411    9.9886  -11.7443 C   0  0  0  0  0  0  0  0  0  0  0  0
   -7.2672   10.6062  -10.5986 C   0  0  0  0  0  0  0  0  0  0  0  0
   -7.6276    9.7408   -9.5022 C   0  0  0  0  0  0  0  0  0  0  0  0
   -8.2893    8.7195   -9.9713 N   0  0  0  0  0  0  0  0  0  0  0  0
   -8.4361    8.8492  -11.2847 N   0  0  0  0  0  0  0  0  0  0  0  0
   -7.3404    9.8857   -8.0208 C   0  0  0  0  0  0  0  0  0  0  0  0
   -5.4704   14.2158  -13.3316 C   0  0  0  0  0  0  0  0  0  0  0  0
   -4.5218   15.3458  -13.0035 C   0  0  0  0  0  0  0  0  0  0  0  0
   -5.5814   13.4696  -12.1774 N   0  0  0  0  0  0  0  0  0  0  0  0
   -5.9630   10.4847   -7.7359 C   0  0  0  0  0  0  0  0  0  0  0  0
   -5.8538   11.7563   -7.1621 C   0  0  0  0  0  0  0  0  0  0  0  0
   -4.5953   12.3060   -6.9160 C   0  0  0  0  0  0  0  0  0  0  0  0
   -3.4449   11.5852   -7.2379 C   0  0  0  0  0  0  0  0  0  0  0  0
   -3.5560   10.3115   -7.8043 C   0  0  0  0  0  0  0  0  0  0  0  0
   -4.8130    9.7655   -8.0531 C   0  0  0  0  0  0  0  0  0  0  0  0
   -2.0905   12.1634   -6.9778 C   0  0  0  0  0  0  0  0  0  0  0  0
   -1.7398   13.4211   -6.5005 C   0  0  0  0  0  0  0  0  0  0  0  0
   -0.4007   13.4556   -6.4362 N   0  0  0  0  0  0  0  0  0  0  0  0
    0.1858   12.3500   -6.8082 N   0  0  0  0  0  0  0  0  0  0  0  0
   -0.8018   11.5473   -7.1675 C   0  0  0  0  0  0  0  0  0  0  0  0
    0.4333   14.5672   -6.0053 C   0  0  0  0  0  0  0  0  0  0  0  0
   -6.0131   14.0330  -14.4162 O   0  0  0  0  0  0  0  0  0  0  0  0
   -4.6790   13.9767  -11.1295 C   0  0  0  0  0  0  0  0  0  0  0  0
   -4.0830   15.2556  -11.5883 C   0  0  0  0  0  0  0  0  0  0  0  0
   -6.1181   12.2807   -9.8804 H   0  0  0  0  0  0  0  0  0  0  0  0
   -8.2128   10.0638  -13.8816 H   0  0  0  0  0  0  0  0  0  0  0  0
   -6.8897   12.1539  -14.1098 H   0  0  0  0  0  0  0  0  0  0  0  0
   -8.0363    9.5960   -7.2473 H   0  0  0  0  0  0  0  0  0  0  0  0
   -4.2080   16.1098  -13.6994 H   0  0  0  0  0  0  0  0  0  0  0  0
   -5.9717   10.0315   -6.7336 H   0  0  0  0  0  0  0  0  0  0  0  0
   -6.7444   12.3126   -6.9096 H   0  0  0  0  0  0  0  0  0  0  0  0
   -4.5117   13.2890   -6.4765 H   0  0  0  0  0  0  0  0  0  0  0  0
   -3.4442   12.0330   -8.2426 H   0  0  0  0  0  0  0  0  0  0  0  0
   -2.6662    9.7505   -8.0491 H   0  0  0  0  0  0  0  0  0  0  0  0
   -4.8962    8.7826   -8.4928 H   0  0  0  0  0  0  0  0  0  0  0  0
   -2.4169   14.2186   -6.2325 H   0  0  0  0  0  0  0  0  0  0  0  0
   -0.6596   10.5498   -7.5564 H   0  0  0  0  0  0  0  0  0  0  0  0
    1.4925   14.2769   -6.0668 H   0  0  0  0  0  0  0  0  0  0  0  0
    0.2526   15.4350   -6.6567 H   0  0  0  0  0  0  0  0  0  0  0  0
    0.1851   14.8305   -4.9665 H   0  0  0  0  0  0  0  0  0  0  0  0
   -6.5611   13.2584  -14.3700 H   0  0  0  0  0  0  0  0  0  0  0  0
   -5.2469   14.1452  -10.2026 H   0  0  0  0  0  0  0  0  0  0  0  0
   -3.8809   13.2432  -10.9424 H   0  0  0  0  0  0  0  0  0  0  0  0
   -2.9857   15.2276  -11.5166 H   0  0  0  0  0  0  0  0  0  0  0  0
   -4.4673   16.1029  -11.0014 H   0  0  0  0  0  0  0  0  0  0  0  0
  1  2  2  0  0  0  0
  1  4  1  0  0  0  0
  1 13  1  0  0  0  0
  2  6  1  0  0  0  0
  3  4  2  0  0  0  0
  3  5  1  0  0  0  0
  5  6  2  0  0  0  0
  5  9  1  0  0  0  0
  6  7  1  0  0  0  0
  7  8  1  0  0  0  0
  7 10  2  3  0  0  0
  8  9  2  0  0  0  0
 10 14  1  0  0  0  0
 11 12  2  0  0  0  0
 11 13  1  0  0  0  0
 11 26  1  0  0  0  0
 12 28  1  0  0  0  0
 13 27  1  0  0  0  0
 14 15  1  0  0  0  0
 14 19  1  0  0  0  0
 15 16  2  0  0  0  0
 16 17  1  0  0  0  0
 17 18  1  0  0  0  0
 17 20  1  0  0  0  0
 18 19  2  0  0  0  0
 20 21  2  0  0  0  0
 20 24  1  0  0  0  0
 21 22  1  0  0  0  0
 22 23  1  0  0  0  0
 22 25  1  0  0  0  0
 23 24  2  0  0  0  0
 27 28  1  0  0  0  0
  2 29  1  0  0  0  0
  3 30  1  0  0  0  0
  4 31  1  0  0  0  0
 10 32  1  0  0  0  0
 12 33  1  0  0  0  0
 14 34  1  0  0  0  0
 15 35  1  0  0  0  0
 16 36  1  0  0  0  0
 17 37  1  0  0  0  0
 18 38  1  0  0  0  0
 19 39  1  0  0  0  0
 21 40  1  0  0  0  0
 24 41  1  0  0  0  0
 25 42  1  0  0  0  0
 25 43  1  0  0  0  0
 25 44  1  0  0  0  0
 26 45  1  0  0  0  0
 27 46  1  0  0  0  0
 27 47  1  0  0  0  0
 28 48  1  0  0  0  0
 28 49  1  0  0  0  0
M  END
> <Name>
26

> <IC50[uM]>
0.036

$$$$
26
  -OEChem-05192314333D
 Structure written by MMmdl.
 49 53  0     1  0  0  0  0  0999 V2000
   -6.3961   12.3155  -12.0234 C   0  0  0  0  0  0  0  0  0  0  0  0
   -6.5478   11.7864  -10.7392 C   0  0  0  0  0  0  0  0  0  0  0  0
   -7.7431   10.5278  -13.0269 C   0  0  0  0  0  0  0  0  0  0  0  0
   -7.0034   11.6993  -13.1368 C   0  0  0  0  0  0  0  0  0  0  0  0
   -7.8411    9.9886  -11.7443 C   0  0  0  0  0  0  0  0  0  0  0  0
   -7.2672   10.6062  -10.5986 C   0  0  0  0  0  0  0  0  0  0  0  0
   -7.6276    9.7408   -9.5022 C   0  0  3  0  0  0  0  0  0  0  0  0
   -8.2893    8.7195   -9.9713 N   0  0  0  0  0  0  0  0  0  0  0  0
   -8.4361    8.8492  -11.2847 N   0  0  0  0  0  0  0  0  0  0  0  0
   -7.3404    9.8857   -8.0208 C   0  0  0  0  0  0  0  0  0  0  0  0
   -5.4704   14.2158  -13.3316 C   0  0  0  0  0  0  0  0  0  0  0  0
   -4.5218   15.3458  -13.0035 C   0  0  0  0  0  0  0  0  0  0  0  0
   -5.5814   13.4696  -12.1774 N   0  0  0  0  0  0  0  0  0  0  0  0
   -5.9630   10.4847   -7.7359 C   0  0  0  0  0  0  0  0  0  0  0  0
   -5.8538   11.7563   -7.1621 C   0  0  0  0  0  0  0  0  0  0  0  0
   -4.5953   12.3060   -6.9160 C   0  0  0  0  0  0  0  0  0  0  0  0
   -3.4449   11.5852   -7.2379 C   0  0  0  0  0  0  0  0  0  0  0  0
   -3.5560   10.3115   -7.8043 C   0  0  0  0  0  0  0  0  0  0  0  0
   -4.8130    9.7655   -8.0531 C   0  0  0  0  0  0  0  0  0  0  0  0
   -2.0905   12.1634   -6.9778 C   0  0  0  0  0  0  0  0  0  0  0  0
   -1.7398   13.4211   -6.5005 C   0  0  0  0  0  0  0  0  0  0  0  0
   -0.4007   13.4556   -6.4362 N   0  0  0  0  0  0  0  0  0  0  0  0
    0.1858   12.3500   -6.8082 N   0  0  0  0  0  0  0  0  0  0  0  0
   -0.8018   11.5473   -7.1675 C   0  0  0  0  0  0  0  0  0  0  0  0
    0.4333   14.5672   -6.0053 C   0  0  0  0  0  0  0  0  0  0  0  0
   -6.0131   14.0330  -14.4162 O   0  0  0  0  0  0  0  0  0  0  0  0
   -4.6790   13.9767  -11.1295 C   0  0  0  0  0  0  0  0  0  0  0  0
   -4.0830   15.2556  -11.5883 C   0  0  0  0  0  0  0  0  0  0  0  0
   -6.1181   12.2807   -9.8804 H   0  0  0  0  0  0  0  0  0  0  0  0
   -8.2128   10.0638  -13.8816 H   0  0  0  0  0  0  0  0  0  0  0  0
   -6.8897   12.1539  -14.1098 H   0  0  0  0  0  0  0  0  0  0  0  0
   -8.5699   10.2938   -9.3744 H   0  0  0  0  0  0  0  0  0  0  0  0
   -8.0363    9.5960   -7.2473 H   0  0  0  0  0  0  0  0  0  0  0  0
   -4.2080   16.1098  -13.6994 H   0  0  0  0  0  0  0  0  0  0  0  0
   -6.7444   12.3126   -6.9096 H   0  0  0  0  0  0  0  0  0  0  0  0
   -4.5117   13.2890   -6.4765 H   0  0  0  0  0  0  0  0  0  0  0  0
   -3.4442   12.0330   -8.2426 H   0  0  0  0  0  0  0  0  0  0  0  0
   -2.6662    9.7505   -8.0491 H   0  0  0  0  0  0  0  0  0  0  0  0
   -4.8962    8.7826   -8.4928 H   0  0  0  0  0  0  0  0  0  0  0  0
   -2.4169   14.2186   -6.2325 H   0  0  0  0  0  0  0  0  0  0  0  0
   -0.6596   10.5498   -7.5564 H   0  0  0  0  0  0  0  0  0  0  0  0
    1.4925   14.2769   -6.0668 H   0  0  0  0  0  0  0  0  0  0  0  0
    0.2526   15.4350   -6.6567 H   0  0  0  0  0  0  0  0  0  0  0  0
    0.1851   14.8305   -4.9665 H   0  0  0  0  0  0  0  0  0  0  0  0
   -6.5611   13.2584  -14.3700 H   0  0  0  0  0  0  0  0  0  0  0  0
   -5.2469   14.1452  -10.2026 H   0  0  0  0  0  0  0  0  0  0  0  0
   -3.8809   13.2432  -10.9424 H   0  0  0  0  0  0  0  0  0  0  0  0
   -2.9857   15.2276  -11.5166 H   0  0  0  0  0  0  0  0  0  0  0  0
   -4.4673   16.1029  -11.0014 H   0  0  0  0  0  0  0  0  0  0  0  0
  1  2  2  0  0  0  0
  1  4  1  0  0  0  0
  1 13  1  0  0  0  0
  2  6  1  0  0  0  0
  3  4  2  0  0  0  0
  3  5  1  0  0  0  0
  5  6  2  0  0  0  0
  5  9  1  0  0  0  0
  6  7  1  0  0  0  0
  7  8  1  0  0  0  0
  7 10  1  0  0  0  0
  8  9  2  0  0  0  0
 10 14  2  0  0  0  0
 11 12  2  0  0  0  0
 11 13  1  0  0  0  0
 11 26  1  0  0  0  0
 12 28  1  0  0  0  0
 13 27  1  0  0  0  0
 14 15  1  0  0  0  0
 14 19  1  0  0  0  0
 15 16  2  0  0  0  0
 16 17  1  0  0  0  0
 17 18  1  0  0  0  0
 17 20  1  0  0  0  0
 18 19  2  0  0  0  0
 20 21  2  0  0  0  0
 20 24  1  0  0  0  0
 21 22  1  0  0  0  0
 22 23  1  0  0  0  0
 22 25  1  0  0  0  0
 23 24  2  0  0  0  0
 27 28  1  0  0  0  0
  2 29  1  0  0  0  0
  3 30  1  0  0  0  0
  4 31  1  0  0  0  0
  7 32  1  0  0  0  0
 10 33  1  0  0  0  0
 12 34  1  0  0  0  0
 15 35  1  0  0  0  0
 16 36  1  0  0  0  0
 17 37  1  0  0  0  0
 18 38  1  0  0  0  0
 19 39  1  0  0  0  0
 21 40  1  0  0  0  0
 24 41  1  0  0  0  0
 25 42  1  0  0  0  0
 25 43  1  0  0  0  0
 25 44  1  0  0  0  0
 26 45  1  0  0  0  0
 27 46  1  0  0  0  0
 27 47  1  0  0  0  0
 28 48  1  0  0  0  0
 28 49  1  0  0  0  0
M  END
> <Name>
26

> <IC50[uM]>
0.036

$$$$
26
  -OEChem-05192314333D
 Structure written by MMmdl.
 49 53  0     1  0  0  0  0  0999 V2000
   -6.3961   12.3155  -12.0234 C   0  0  0  0  0  0  0  0  0  0  0  0
   -6.5478   11.7864  -10.7392 C   0  0  0  0  0  0  0  0  0  0  0  0
   -7.7431   10.5278  -13.0269 C   0  0  0  0  0  0  0  0  0  0  0  0
   -7.0034   11.6993  -13.1368 C   0  0  0  0  0  0  0  0  0  0  0  0
   -7.8411    9.9886  -11.7443 C   0  0  3  0  0  0  0  0  0  0  0  0
   -7.2672   10.6062  -10.5986 C   0  0  3  0  0  0  0  0  0  0  0  0
   -7.6276    9.7408   -9.5022 C   0  0  0  0  0  0  0  0  0  0  0  0
   -8.2893    8.7195   -9.9713 N   0  0  0  0  0  0  0  0  0  0  0  0
   -8.4361    8.8492  -11.2847 N   0  0  0  0  0  0  0  0  0  0  0  0
   -7.3404    9.8857   -8.0208 C   0  0  0  0  0  0  0  0  0  0  0  0
   -5.4704   14.2158  -13.3316 C   0  0  0  0  0  0  0  0  0  0  0  0
   -4.5218   15.3458  -13.0035 C   0  0  0  0  0  0  0  0  0  0  0  0
   -5.5814   13.4696  -12.1774 N   0  0  0  0  0  0  0  0  0  0  0  0
   -5.9630   10.4847   -7.7359 C   0  0  0  0  0  0  0  0  0  0  0  0
   -5.8538   11.7563   -7.1621 C   0  0  0  0  0  0  0  0  0  0  0  0
   -4.5953   12.3060   -6.9160 C   0  0  0  0  0  0  0  0  0  0  0  0
   -3.4449   11.5852   -7.2379 C   0  0  0  0  0  0  0  0  0  0  0  0
   -3.5560   10.3115   -7.8043 C   0  0  0  0  0  0  0  0  0  0  0  0
   -4.8130    9.7655   -8.0531 C   0  0  0  0  0  0  0  0  0  0  0  0
   -2.0905   12.1634   -6.9778 C   0  0  0  0  0  0  0  0  0  0  0  0
   -1.7398   13.4211   -6.5005 C   0  0  0  0  0  0  0  0  0  0  0  0
   -0.4007   13.4556   -6.4362 N   0  0  0  0  0  0  0  0  0  0  0  0
    0.1858   12.3500   -6.8082 N   0  0  0  0  0  0  0  0  0  0  0  0
   -0.8018   11.5473   -7.1675 C   0  0  0  0  0  0  0  0  0  0  0  0
    0.4333   14.5672   -6.0053 C   0  0  0  0  0  0  0  0  0  0  0  0
   -6.0131   14.0330  -14.4162 O   0  0  0  0  0  0  0  0  0  0  0  0
   -4.6790   13.9767  -11.1295 C   0  0  0  0  0  0  0  0  0  0  0  0
   -4.0830   15.2556  -11.5883 C   0  0  0  0  0  0  0  0  0  0  0  0
   -6.1181   12.2807   -9.8804 H   0  0  0  0  0  0  0  0  0  0  0  0
   -8.2128   10.0638  -13.8816 H   0  0  0  0  0  0  0  0  0  0  0  0
   -6.8897   12.1539  -14.1098 H   0  0  0  0  0  0  0  0  0  0  0  0
   -8.7752   10.5456  -11.5792 H   0  0  0  0  0  0  0  0  0  0  0  0
   -8.1901   11.1852  -10.4467 H   0  0  0  0  0  0  0  0  0  0  0  0
   -8.0363    9.5960   -7.2473 H   0  0  0  0  0  0  0  0  0  0  0  0
   -4.2080   16.1098  -13.6994 H   0  0  0  0  0  0  0  0  0  0  0  0
   -6.7444   12.3126   -6.9096 H   0  0  0  0  0  0  0  0  0  0  0  0
   -4.5117   13.2890   -6.4765 H   0  0  0  0  0  0  0  0  0  0  0  0
   -2.6662    9.7505   -8.0491 H   0  0  0  0  0  0  0  0  0  0  0  0
   -4.8962    8.7826   -8.4928 H   0  0  0  0  0  0  0  0  0  0  0  0
   -2.4169   14.2186   -6.2325 H   0  0  0  0  0  0  0  0  0  0  0  0
   -0.6596   10.5498   -7.5564 H   0  0  0  0  0  0  0  0  0  0  0  0
    1.4925   14.2769   -6.0668 H   0  0  0  0  0  0  0  0  0  0  0  0
    0.2526   15.4350   -6.6567 H   0  0  0  0  0  0  0  0  0  0  0  0
    0.1851   14.8305   -4.9665 H   0  0  0  0  0  0  0  0  0  0  0  0
   -6.5611   13.2584  -14.3700 H   0  0  0  0  0  0  0  0  0  0  0  0
   -5.2469   14.1452  -10.2026 H   0  0  0  0  0  0  0  0  0  0  0  0
   -3.8809   13.2432  -10.9424 H   0  0  0  0  0  0  0  0  0  0  0  0
   -2.9857   15.2276  -11.5166 H   0  0  0  0  0  0  0  0  0  0  0  0
   -4.4673   16.1029  -11.0014 H   0  0  0  0  0  0  0  0  0  0  0  0
  1  2  2  0  0  0  0
  1  4  1  0  0  0  0
  1 13  1  0  0  0  0
  2  6  1  0  0  0  0
  3  4  2  0  0  0  0
  3  5  1  0  0  0  0
  5  6  1  0  0  0  0
  5  9  1  0  0  0  0
  6  7  1  0  0  0  0
  7  8  1  0  0  0  0
  7 10  2  3  0  0  0
  8  9  2  0  0  0  0
 10 14  1  0  0  0  0
 11 12  2  0  0  0  0
 11 13  1  0  0  0  0
 11 26  1  0  0  0  0
 12 28  1  0  0  0  0
 13 27  1  0  0  0  0
 14 15  2  0  0  0  0
 14 19  1  0  0  0  0
 15 16  1  0  0  0  0
 16 17  2  0  0  0  0
 17 18  1  0  0  0  0
 17 20  1  0  0  0  0
 18 19  2  0  0  0  0
 20 21  2  0  0  0  0
 20 24  1  0  0  0  0
 21 22  1  0  0  0  0
 22 23  1  0  0  0  0
 22 25  1  0  0  0  0
 23 24  2  0  0  0  0
 27 28  1  0  0  0  0
  2 29  1  0  0  0  0
  3 30  1  0  0  0  0
  4 31  1  0  0  0  0
  5 32  1  0  0  0  0
  6 33  1  0  0  0  0
 10 34  1  0  0  0  0
 12 35  1  0  0  0  0
 15 36  1  0  0  0  0
 16 37  1  0  0  0  0
 18 38  1  0  0  0  0
 19 39  1  0  0  0  0
 21 40  1  0  0  0  0
 24 41  1  0  0  0  0
 25 42  1  0  0  0  0
 25 43  1  0  0  0  0
 25 44  1  0  0  0  0
 26 45  1  0  0  0  0
 27 46  1  0  0  0  0
 27 47  1  0  0  0  0
 28 48  1  0  0  0  0
 28 49  1  0  0  0  0
M  END
> <Name>
26

> <IC50[uM]>
0.036

$$$$
26
  -OEChem-05192314333D
 Structure written by MMmdl.
 49 53  0     1  0  0  0  0  0999 V2000
   -6.3961   12.3155  -12.0234 C   0  0  3  0  0  0  0  0  0  0  0  0
   -6.5478   11.7864  -10.7392 C   0  0  0  0  0  0  0  0  0  0  0  0
   -7.7431   10.5278  -13.0269 C   0  0  0  0  0  0  0  0  0  0  0  0
   -7.0034   11.6993  -13.1368 C   0  0  0  0  0  0  0  0  0  0  0  0
   -7.8411    9.9886  -11.7443 C   0  0  3  0  0  0  0  0  0  0  0  0
   -7.2672   10.6062  -10.5986 C   0  0  0  0  0  0  0  0  0  0  0  0
   -7.6276    9.7408   -9.5022 C   0  0  0  0  0  0  0  0  0  0  0  0
   -8.2893    8.7195   -9.9713 N   0  0  0  0  0  0  0  0  0  0  0  0
   -8.4361    8.8492  -11.2847 N   0  0  0  0  0  0  0  0  0  0  0  0
   -7.3404    9.8857   -8.0208 C   0  0  0  0  0  0  0  0  0  0  0  0
   -5.4704   14.2158  -13.3316 C   0  0  0  0  0  0  0  0  0  0  0  0
   -4.5218   15.3458  -13.0035 C   0  0  0  0  0  0  0  0  0  0  0  0
   -5.5814   13.4696  -12.1774 N   0  0  3  0  0  0  0  0  0  0  0  0
   -5.9630   10.4847   -7.7359 C   0  0  0  0  0  0  0  0  0  0  0  0
   -5.8538   11.7563   -7.1621 C   0  0  0  0  0  0  0  0  0  0  0  0
   -4.5953   12.3060   -6.9160 C   0  0  0  0  0  0  0  0  0  0  0  0
   -3.4449   11.5852   -7.2379 C   0  0  0  0  0  0  0  0  0  0  0  0
   -3.5560   10.3115   -7.8043 C   0  0  0  0  0  0  0  0  0  0  0  0
   -4.8130    9.7655   -8.0531 C   0  0  0  0  0  0  0  0  0  0  0  0
   -2.0905   12.1634   -6.9778 C   0  0  0  0  0  0  0  0  0  0  0  0
   -1.7398   13.4211   -6.5005 C   0  0  0  0  0  0  0  0  0  0  0  0
   -0.4007   13.4556   -6.4362 N   0  0  0  0  0  0  0  0  0  0  0  0
    0.1858   12.3500   -6.8082 N   0  0  0  0  0  0  0  0  0  0  0  0
   -0.8018   11.5473   -7.1675 C   0  0  0  0  0  0  0  0  0  0  0  0
    0.4333   14.5672   -6.0053 C   0  0  0  0  0  0  0  0  0  0  0  0
   -6.0131   14.0330  -14.4162 O   0  0  0  0  0  0  0  0  0  0  0  0
   -4.6790   13.9767  -11.1295 C   0  0  0  0  0  0  0  0  0  0  0  0
   -4.0830   15.2556  -11.5883 C   0  0  0  0  0  0  0  0  0  0  0  0
   -7.2833   12.9493  -11.8778 H   0  0  0  0  0  0  0  0  0  0  0  0
   -6.1181   12.2807   -9.8804 H   0  0  0  0  0  0  0  0  0  0  0  0
   -8.2128   10.0638  -13.8816 H   0  0  0  0  0  0  0  0  0  0  0  0
   -6.8897   12.1539  -14.1098 H   0  0  0  0  0  0  0  0  0  0  0  0
   -8.7752   10.5456  -11.5792 H   0  0  0  0  0  0  0  0  0  0  0  0
   -8.0363    9.5960   -7.2473 H   0  0  0  0  0  0  0  0  0  0  0  0
   -4.2080   16.1098  -13.6994 H   0  0  0  0  0  0  0  0  0  0  0  0
   -6.7444   12.3126   -6.9096 H   0  0  0  0  0  0  0  0  0  0  0  0
   -4.5117   13.2890   -6.4765 H   0  0  0  0  0  0  0  0  0  0  0  0
   -2.6662    9.7505   -8.0491 H   0  0  0  0  0  0  0  0  0  0  0  0
   -4.8962    8.7826   -8.4928 H   0  0  0  0  0  0  0  0  0  0  0  0
   -2.4169   14.2186   -6.2325 H   0  0  0  0  0  0  0  0  0  0  0  0
   -0.6596   10.5498   -7.5564 H   0  0  0  0  0  0  0  0  0  0  0  0
    1.4925   14.2769   -6.0668 H   0  0  0  0  0  0  0  0  0  0  0  0
    0.2526   15.4350   -6.6567 H   0  0  0  0  0  0  0  0  0  0  0  0
    0.1851   14.8305   -4.9665 H   0  0  0  0  0  0  0  0  0  0  0  0
   -6.5611   13.2584  -14.3700 H   0  0  0  0  0  0  0  0  0  0  0  0
   -5.2469   14.1452  -10.2026 H   0  0  0  0  0  0  0  0  0  0  0  0
   -3.8809   13.2432  -10.9424 H   0  0  0  0  0  0  0  0  0  0  0  0
   -2.9857   15.2276  -11.5166 H   0  0  0  0  0  0  0  0  0  0  0  0
   -4.4673   16.1029  -11.0014 H   0  0  0  0  0  0  0  0  0  0  0  0
  1  2  1  0  0  0  0
  1  4  1  0  0  0  0
  1 13  1  0  0  0  0
  2  6  2  0  0  0  0
  3  4  2  0  0  0  0
  3  5  1  0  0  0  0
  5  6  1  0  0  0  0
  5  9  1  0  0  0  0
  6  7  1  0  0  0  0
  7  8  1  0  0  0  0
  7 10  2  3  0  0  0
  8  9  2  0  0  0  0
 10 14  1  0  0  0  0
 11 12  2  0  0  0  0
 11 13  1  0  0  0  0
 11 26  1  0  0  0  0
 12 28  1  0  0  0  0
 13 27  1  0  0  0  0
 14 15  2  0  0  0  0
 14 19  1  0  0  0  0
 15 16  1  0  0  0  0
 16 17  2  0  0  0  0
 17 18  1  0  0  0  0
 17 20  1  0  0  0  0
 18 19  2  0  0  0  0
 20 21  2  0  0  0  0
 20 24  1  0  0  0  0
 21 22  1  0  0  0  0
 22 23  1  0  0  0  0
 22 25  1  0  0  0  0
 23 24  2  0  0  0  0
 27 28  1  0  0  0  0
  1 29  1  0  0  0  0
  2 30  1  0  0  0  0
  3 31  1  0  0  0  0
  4 32  1  0  0  0  0
  5 33  1  0  0  0  0
 10 34  1  0  0  0  0
 12 35  1  0  0  0  0
 15 36  1  0  0  0  0
 16 37  1  0  0  0  0
 18 38  1  0  0  0  0
 19 39  1  0  0  0  0
 21 40  1  0  0  0  0
 24 41  1  0  0  0  0
 25 42  1  0  0  0  0
 25 43  1  0  0  0  0
 25 44  1  0  0  0  0
 26 45  1  0  0  0  0
 27 46  1  0  0  0  0
 27 47  1  0  0  0  0
 28 48  1  0  0  0  0
 28 49  1  0  0  0  0
M  END
> <Name>
26

> <IC50[uM]>
0.036

$$$$
26
  -OEChem-05192314333D
 Structure written by MMmdl.
 49 53  0     1  0  0  0  0  0999 V2000
   -6.3961   12.3155  -12.0234 C   0  0  0  0  0  0  0  0  0  0  0  0
   -6.5478   11.7864  -10.7392 C   0  0  0  0  0  0  0  0  0  0  0  0
   -7.7431   10.5278  -13.0269 C   0  0  0  0  0  0  0  0  0  0  0  0
   -7.0034   11.6993  -13.1368 C   0  0  0  0  0  0  0  0  0  0  0  0
   -7.8411    9.9886  -11.7443 C   0  0  0  0  0  0  0  0  0  0  0  0
   -7.2672   10.6062  -10.5986 C   0  0  3  0  0  0  0  0  0  0  0  0
   -7.6276    9.7408   -9.5022 C   0  0  0  0  0  0  0  0  0  0  0  0
   -8.2893    8.7195   -9.9713 N   0  0  0  0  0  0  0  0  0  0  0  0
   -8.4361    8.8492  -11.2847 N   0  0  0  0  0  0  0  0  0  0  0  0
   -7.3404    9.8857   -8.0208 C   0  0  0  0  0  0  0  0  0  0  0  0
   -5.4704   14.2158  -13.3316 C   0  0  0  0  0  0  0  0  0  0  0  0
   -4.5218   15.3458  -13.0035 C   0  0  0  0  0  0  0  0  0  0  0  0
   -5.5814   13.4696  -12.1774 N   0  0  0  0  0  0  0  0  0  0  0  0
   -5.9630   10.4847   -7.7359 C   0  0  0  0  0  0  0  0  0  0  0  0
   -5.8538   11.7563   -7.1621 C   0  0  0  0  0  0  0  0  0  0  0  0
   -4.5953   12.3060   -6.9160 C   0  0  0  0  0  0  0  0  0  0  0  0
   -3.4449   11.5852   -7.2379 C   0  0  0  0  0  0  0  0  0  0  0  0
   -3.5560   10.3115   -7.8043 C   0  0  0  0  0  0  0  0  0  0  0  0
   -4.8130    9.7655   -8.0531 C   0  0  0  0  0  0  0  0  0  0  0  0
   -2.0905   12.1634   -6.9778 C   0  0  0  0  0  0  0  0  0  0  0  0
   -1.7398   13.4211   -6.5005 C   0  0  0  0  0  0  0  0  0  0  0  0
   -0.4007   13.4556   -6.4362 N   0  0  0  0  0  0  0  0  0  0  0  0
    0.1858   12.3500   -6.8082 N   0  0  0  0  0  0  0  0  0  0  0  0
   -0.8018   11.5473   -7.1675 C   0  0  0  0  0  0  0  0  0  0  0  0
    0.4333   14.5672   -6.0053 C   0  0  0  0  0  0  0  0  0  0  0  0
   -6.0131   14.0330  -14.4162 O   0  0  0  0  0  0  0  0  0  0  0  0
   -4.6790   13.9767  -11.1295 C   0  0  0  0  0  0  0  0  0  0  0  0
   -4.0830   15.2556  -11.5883 C   0  0  0  0  0  0  0  0  0  0  0  0
   -6.1181   12.2807   -9.8804 H   0  0  0  0  0  0  0  0  0  0  0  0
   -8.2128   10.0638  -13.8816 H   0  0  0  0  0  0  0  0  0  0  0  0
   -7.6809   12.4497  -13.5703 H   0  0  0  0  0  0  0  0  0  0  0  0
   -6.1921   11.4836  -13.8477 H   0  0  0  0  0  0  0  0  0  0  0  0
   -8.1901   11.1852  -10.4467 H   0  0  0  0  0  0  0  0  0  0  0  0
   -8.0363    9.5960   -7.2473 H   0  0  0  0  0  0  0  0  0  0  0  0
   -4.2080   16.1098  -13.6994 H   0  0  0  0  0  0  0  0  0  0  0  0
   -6.7444   12.3126   -6.9096 H   0  0  0  0  0  0  0  0  0  0  0  0
   -4.5117   13.2890   -6.4765 H   0  0  0  0  0  0  0  0  0  0  0  0
   -2.6662    9.7505   -8.0491 H   0  0  0  0  0  0  0  0  0  0  0  0
   -4.8962    8.7826   -8.4928 H   0  0  0  0  0  0  0  0  0  0  0  0
   -2.4169   14.2186   -6.2325 H   0  0  0  0  0  0  0  0  0  0  0  0
   -0.6596   10.5498   -7.5564 H   0  0  0  0  0  0  0  0  0  0  0  0
    1.4925   14.2769   -6.0668 H   0  0  0  0  0  0  0  0  0  0  0  0
    0.2526   15.4350   -6.6567 H   0  0  0  0  0  0  0  0  0  0  0  0
    0.1851   14.8305   -4.9665 H   0  0  0  0  0  0  0  0  0  0  0  0
   -6.5611   13.2584  -14.3700 H   0  0  0  0  0  0  0  0  0  0  0  0
   -5.2469   14.1452  -10.2026 H   0  0  0  0  0  0  0  0  0  0  0  0
   -3.8809   13.2432  -10.9424 H   0  0  0  0  0  0  0  0  0  0  0  0
   -2.9857   15.2276  -11.5166 H   0  0  0  0  0  0  0  0  0  0  0  0
   -4.4673   16.1029  -11.0014 H   0  0  0  0  0  0  0  0  0  0  0  0
  1  2  2  0  0  0  0
  1  4  1  0  0  0  0
  1 13  1  0  0  0  0
  2  6  1  0  0  0  0
  3  4  1  0  0  0  0
  3  5  2  0  0  0  0
  5  6  1  0  0  0  0
  5  9  1  0  0  0  0
  6  7  1  0  0  0  0
  7  8  1  0  0  0  0
  7 10  2  3  0  0  0
  8  9  2  0  0  0  0
 10 14  1  0  0  0  0
 11 12  2  0  0  0  0
 11 13  1  0  0  0  0
 11 26  1  0  0  0  0
 12 28  1  0  0  0  0
 13 27  1  0  0  0  0
 14 15  2  0  0  0  0
 14 19  1  0  0  0  0
 15 16  1  0  0  0  0
 16 17  2  0  0  0  0
 17 18  1  0  0  0  0
 17 20  1  0  0  0  0
 18 19  2  0  0  0  0
 20 21  2  0  0  0  0
 20 24  1  0  0  0  0
 21 22  1  0  0  0  0
 22 23  1  0  0  0  0
 22 25  1  0  0  0  0
 23 24  2  0  0  0  0
 27 28  1  0  0  0  0
  2 29  1  0  0  0  0
  3 30  1  0  0  0  0
  4 31  1  0  0  0  0
  4 32  1  0  0  0  0
  6 33  1  0  0  0  0
 10 34  1  0  0  0  0
 12 35  1  0  0  0  0
 15 36  1  0  0  0  0
 16 37  1  0  0  0  0
 18 38  1  0  0  0  0
 19 39  1  0  0  0  0
 21 40  1  0  0  0  0
 24 41  1  0  0  0  0
 25 42  1  0  0  0  0
 25 43  1  0  0  0  0
 25 44  1  0  0  0  0
 26 45  1  0  0  0  0
 27 46  1  0  0  0  0
 27 47  1  0  0  0  0
 28 48  1  0  0  0  0
 28 49  1  0  0  0  0
M  END
> <Name>
26

> <IC50[uM]>
0.036

$$$$
26
  -OEChem-05192314333D
 Structure written by MMmdl.
 49 53  0     1  0  0  0  0  0999 V2000
   -6.3961   12.3155  -12.0234 C   0  0  3  0  0  0  0  0  0  0  0  0
   -6.5478   11.7864  -10.7392 C   0  0  0  0  0  0  0  0  0  0  0  0
   -7.7431   10.5278  -13.0269 C   0  0  0  0  0  0  0  0  0  0  0  0
   -7.0034   11.6993  -13.1368 C   0  0  0  0  0  0  0  0  0  0  0  0
   -7.8411    9.9886  -11.7443 C   0  0  0  0  0  0  0  0  0  0  0  0
   -7.2672   10.6062  -10.5986 C   0  0  0  0  0  0  0  0  0  0  0  0
   -7.6276    9.7408   -9.5022 C   0  0  0  0  0  0  0  0  0  0  0  0
   -8.2893    8.7195   -9.9713 N   0  0  0  0  0  0  0  0  0  0  0  0
   -8.4361    8.8492  -11.2847 N   0  0  0  0  0  0  0  0  0  0  0  0
   -7.3404    9.8857   -8.0208 C   0  0  0  0  0  0  0  0  0  0  0  0
   -5.4704   14.2158  -13.3316 C   0  0  0  0  0  0  0  0  0  0  0  0
   -4.5218   15.3458  -13.0035 C   0  0  0  0  0  0  0  0  0  0  0  0
   -5.5814   13.4696  -12.1774 N   0  0  3  0  0  0  0  0  0  0  0  0
   -5.9630   10.4847   -7.7359 C   0  0  0  0  0  0  0  0  0  0  0  0
   -5.8538   11.7563   -7.1621 C   0  0  0  0  0  0  0  0  0  0  0  0
   -4.5953   12.3060   -6.9160 C   0  0  0  0  0  0  0  0  0  0  0  0
   -3.4449   11.5852   -7.2379 C   0  0  0  0  0  0  0  0  0  0  0  0
   -3.5560   10.3115   -7.8043 C   0  0  0  0  0  0  0  0  0  0  0  0
   -4.8130    9.7655   -8.0531 C   0  0  0  0  0  0  0  0  0  0  0  0
   -2.0905   12.1634   -6.9778 C   0  0  0  0  0  0  0  0  0  0  0  0
   -1.7398   13.4211   -6.5005 C   0  0  0  0  0  0  0  0  0  0  0  0
   -0.4007   13.4556   -6.4362 N   0  0  0  0  0  0  0  0  0  0  0  0
    0.1858   12.3500   -6.8082 N   0  0  0  0  0  0  0  0  0  0  0  0
   -0.8018   11.5473   -7.1675 C   0  0  0  0  0  0  0  0  0  0  0  0
    0.4333   14.5672   -6.0053 C   0  0  0  0  0  0  0  0  0  0  0  0
   -6.0131   14.0330  -14.4162 O   0  0  0  0  0  0  0  0  0  0  0  0
   -4.6790   13.9767  -11.1295 C   0  0  0  0  0  0  0  0  0  0  0  0
   -4.0830   15.2556  -11.5883 C   0  0  0  0  0  0  0  0  0  0  0  0
   -7.2833   12.9493  -11.8778 H   0  0  0  0  0  0  0  0  0  0  0  0
   -6.1181   12.2807   -9.8804 H   0  0  0  0  0  0  0  0  0  0  0  0
   -8.2128   10.0638  -13.8816 H   0  0  0  0  0  0  0  0  0  0  0  0
   -7.6809   12.4497  -13.5703 H   0  0  0  0  0  0  0  0  0  0  0  0
   -6.1921   11.4836  -13.8477 H   0  0  0  0  0  0  0  0  0  0  0  0
   -8.0363    9.5960   -7.2473 H   0  0  0  0  0  0  0  0  0  0  0  0
   -4.2080   16.1098  -13.6994 H   0  0  0  0  0  0  0  0  0  0  0  0
   -6.7444   12.3126   -6.9096 H   0  0  0  0  0  0  0  0  0  0  0  0
   -4.5117   13.2890   -6.4765 H   0  0  0  0  0  0  0  0  0  0  0  0
   -2.6662    9.7505   -8.0491 H   0  0  0  0  0  0  0  0  0  0  0  0
   -4.8962    8.7826   -8.4928 H   0  0  0  0  0  0  0  0  0  0  0  0
   -2.4169   14.2186   -6.2325 H   0  0  0  0  0  0  0  0  0  0  0  0
   -0.6596   10.5498   -7.5564 H   0  0  0  0  0  0  0  0  0  0  0  0
    1.4925   14.2769   -6.0668 H   0  0  0  0  0  0  0  0  0  0  0  0
    0.2526   15.4350   -6.6567 H   0  0  0  0  0  0  0  0  0  0  0  0
    0.1851   14.8305   -4.9665 H   0  0  0  0  0  0  0  0  0  0  0  0
   -6.5611   13.2584  -14.3700 H   0  0  0  0  0  0  0  0  0  0  0  0
   -5.2469   14.1452  -10.2026 H   0  0  0  0  0  0  0  0  0  0  0  0
   -3.8809   13.2432  -10.9424 H   0  0  0  0  0  0  0  0  0  0  0  0
   -2.9857   15.2276  -11.5166 H   0  0  0  0  0  0  0  0  0  0  0  0
   -4.4673   16.1029  -11.0014 H   0  0  0  0  0  0  0  0  0  0  0  0
  1  2  1  0  0  0  0
  1  4  1  0  0  0  0
  1 13  1  0  0  0  0
  2  6  2  0  0  0  0
  3  4  1  0  0  0  0
  3  5  2  0  0  0  0
  5  6  1  0  0  0  0
  5  9  1  0  0  0  0
  6  7  1  0  0  0  0
  7  8  1  0  0  0  0
  7 10  2  3  0  0  0
  8  9  2  0  0  0  0
 10 14  1  0  0  0  0
 11 12  2  0  0  0  0
 11 13  1  0  0  0  0
 11 26  1  0  0  0  0
 12 28  1  0  0  0  0
 13 27  1  0  0  0  0
 14 15  2  0  0  0  0
 14 19  1  0  0  0  0
 15 16  1  0  0  0  0
 16 17  2  0  0  0  0
 17 18  1  0  0  0  0
 17 20  1  0  0  0  0
 18 19  2  0  0  0  0
 20 21  2  0  0  0  0
 20 24  1  0  0  0  0
 21 22  1  0  0  0  0
 22 23  1  0  0  0  0
 22 25  1  0  0  0  0
 23 24  2  0  0  0  0
 27 28  1  0  0  0  0
  1 29  1  0  0  0  0
  2 30  1  0  0  0  0
  3 31  1  0  0  0  0
  4 32  1  0  0  0  0
  4 33  1  0  0  0  0
 10 34  1  0  0  0  0
 12 35  1  0  0  0  0
 15 36  1  0  0  0  0
 16 37  1  0  0  0  0
 18 38  1  0  0  0  0
 19 39  1  0  0  0  0
 21 40  1  0  0  0  0
 24 41  1  0  0  0  0
 25 42  1  0  0  0  0
 25 43  1  0  0  0  0
 25 44  1  0  0  0  0
 26 45  1  0  0  0  0
 27 46  1  0  0  0  0
 27 47  1  0  0  0  0
 28 48  1  0  0  0  0
 28 49  1  0  0  0  0
M  END
> <Name>
26

> <IC50[uM]>
0.036

$$$$
26
  -OEChem-05192314333D
 Structure written by MMmdl.
 49 53  0     1  0  0  0  0  0999 V2000
   -6.3961   12.3155  -12.0234 C   0  0  0  0  0  0  0  0  0  0  0  0
   -6.5478   11.7864  -10.7392 C   0  0  0  0  0  0  0  0  0  0  0  0
   -7.7431   10.5278  -13.0269 C   0  0  0  0  0  0  0  0  0  0  0  0
   -7.0034   11.6993  -13.1368 C   0  0  0  0  0  0  0  0  0  0  0  0
   -7.8411    9.9886  -11.7443 C   0  0  3  0  0  0  0  0  0  0  0  0
   -7.2672   10.6062  -10.5986 C   0  0  0  0  0  0  0  0  0  0  0  0
   -7.6276    9.7408   -9.5022 C   0  0  0  0  0  0  0  0  0  0  0  0
   -8.2893    8.7195   -9.9713 N   0  0  0  0  0  0  0  0  0  0  0  0
   -8.4361    8.8492  -11.2847 N   0  0  0  0  0  0  0  0  0  0  0  0
   -7.3404    9.8857   -8.0208 C   0  0  0  0  0  0  0  0  0  0  0  0
   -5.4704   14.2158  -13.3316 C   0  0  0  0  0  0  0  0  0  0  0  0
   -4.5218   15.3458  -13.0035 C   0  0  0  0  0  0  0  0  0  0  0  0
   -5.5814   13.4696  -12.1774 N   0  0  0  0  0  0  0  0  0  0  0  0
   -5.9630   10.4847   -7.7359 C   0  0  0  0  0  0  0  0  0  0  0  0
   -5.8538   11.7563   -7.1621 C   0  0  0  0  0  0  0  0  0  0  0  0
   -4.5953   12.3060   -6.9160 C   0  0  0  0  0  0  0  0  0  0  0  0
   -3.4449   11.5852   -7.2379 C   0  0  0  0  0  0  0  0  0  0  0  0
   -3.5560   10.3115   -7.8043 C   0  0  0  0  0  0  0  0  0  0  0  0
   -4.8130    9.7655   -8.0531 C   0  0  0  0  0  0  0  0  0  0  0  0
   -2.0905   12.1634   -6.9778 C   0  0  0  0  0  0  0  0  0  0  0  0
   -1.7398   13.4211   -6.5005 C   0  0  0  0  0  0  0  0  0  0  0  0
   -0.4007   13.4556   -6.4362 N   0  0  0  0  0  0  0  0  0  0  0  0
    0.1858   12.3500   -6.8082 N   0  0  0  0  0  0  0  0  0  0  0  0
   -0.8018   11.5473   -7.1675 C   0  0  0  0  0  0  0  0  0  0  0  0
    0.4333   14.5672   -6.0053 C   0  0  0  0  0  0  0  0  0  0  0  0
   -6.0131   14.0330  -14.4162 O   0  0  0  0  0  0  0  0  0  0  0  0
   -4.6790   13.9767  -11.1295 C   0  0  0  0  0  0  0  0  0  0  0  0
   -4.0830   15.2556  -11.5883 C   0  0  0  0  0  0  0  0  0  0  0  0
   -6.1181   12.2807   -9.8804 H   0  0  0  0  0  0  0  0  0  0  0  0
   -8.7624   10.7378  -13.3832 H   0  0  0  0  0  0  0  0  0  0  0  0
   -7.2763    9.7721  -13.6757 H   0  0  0  0  0  0  0  0  0  0  0  0
   -6.8897   12.1539  -14.1098 H   0  0  0  0  0  0  0  0  0  0  0  0
   -8.7752   10.5456  -11.5792 H   0  0  0  0  0  0  0  0  0  0  0  0
   -8.0363    9.5960   -7.2473 H   0  0  0  0  0  0  0  0  0  0  0  0
   -4.2080   16.1098  -13.6994 H   0  0  0  0  0  0  0  0  0  0  0  0
   -6.7444   12.3126   -6.9096 H   0  0  0  0  0  0  0  0  0  0  0  0
   -4.5117   13.2890   -6.4765 H   0  0  0  0  0  0  0  0  0  0  0  0
   -2.6662    9.7505   -8.0491 H   0  0  0  0  0  0  0  0  0  0  0  0
   -4.8962    8.7826   -8.4928 H   0  0  0  0  0  0  0  0  0  0  0  0
   -2.4169   14.2186   -6.2325 H   0  0  0  0  0  0  0  0  0  0  0  0
   -0.6596   10.5498   -7.5564 H   0  0  0  0  0  0  0  0  0  0  0  0
    1.4925   14.2769   -6.0668 H   0  0  0  0  0  0  0  0  0  0  0  0
    0.2526   15.4350   -6.6567 H   0  0  0  0  0  0  0  0  0  0  0  0
    0.1851   14.8305   -4.9665 H   0  0  0  0  0  0  0  0  0  0  0  0
   -6.5611   13.2584  -14.3700 H   0  0  0  0  0  0  0  0  0  0  0  0
   -5.2469   14.1452  -10.2026 H   0  0  0  0  0  0  0  0  0  0  0  0
   -3.8809   13.2432  -10.9424 H   0  0  0  0  0  0  0  0  0  0  0  0
   -2.9857   15.2276  -11.5166 H   0  0  0  0  0  0  0  0  0  0  0  0
   -4.4673   16.1029  -11.0014 H   0  0  0  0  0  0  0  0  0  0  0  0
  1  2  1  0  0  0  0
  1  4  2  0  0  0  0
  1 13  1  0  0  0  0
  2  6  2  0  0  0  0
  3  4  1  0  0  0  0
  3  5  1  0  0  0  0
  5  6  1  0  0  0  0
  5  9  1  0  0  0  0
  6  7  1  0  0  0  0
  7  8  1  0  0  0  0
  7 10  2  3  0  0  0
  8  9  2  0  0  0  0
 10 14  1  0  0  0  0
 11 12  2  0  0  0  0
 11 13  1  0  0  0  0
 11 26  1  0  0  0  0
 12 28  1  0  0  0  0
 13 27  1  0  0  0  0
 14 15  2  0  0  0  0
 14 19  1  0  0  0  0
 15 16  1  0  0  0  0
 16 17  2  0  0  0  0
 17 18  1  0  0  0  0
 17 20  1  0  0  0  0
 18 19  2  0  0  0  0
 20 21  2  0  0  0  0
 20 24  1  0  0  0  0
 21 22  1  0  0  0  0
 22 23  1  0  0  0  0
 22 25  1  0  0  0  0
 23 24  2  0  0  0  0
 27 28  1  0  0  0  0
  2 29  1  0  0  0  0
  3 30  1  0  0  0  0
  3 31  1  0  0  0  0
  4 32  1  0  0  0  0
  5 33  1  0  0  0  0
 10 34  1  0  0  0  0
 12 35  1  0  0  0  0
 15 36  1  0  0  0  0
 16 37  1  0  0  0  0
 18 38  1  0  0  0  0
 19 39  1  0  0  0  0
 21 40  1  0  0  0  0
 24 41  1  0  0  0  0
 25 42  1  0  0  0  0
 25 43  1  0  0  0  0
 25 44  1  0  0  0  0
 26 45  1  0  0  0  0
 27 46  1  0  0  0  0
 27 47  1  0  0  0  0
 28 48  1  0  0  0  0
 28 49  1  0  0  0  0
M  END
> <Name>
26

> <IC50[uM]>
0.036

$$$$
26
  -OEChem-05192314333D
 Structure written by MMmdl.
 49 53  0     0  0  0  0  0  0999 V2000
   -6.3961   12.3155  -12.0234 C   0  0  0  0  0  0  0  0  0  0  0  0
   -6.5478   11.7864  -10.7392 C   0  0  0  0  0  0  0  0  0  0  0  0
   -7.7431   10.5278  -13.0269 C   0  0  0  0  0  0  0  0  0  0  0  0
   -7.0034   11.6993  -13.1368 C   0  0  0  0  0  0  0  0  0  0  0  0
   -7.8411    9.9886  -11.7443 C   0  0  0  0  0  0  0  0  0  0  0  0
   -7.2672   10.6062  -10.5986 C   0  0  0  0  0  0  0  0  0  0  0  0
   -7.6276    9.7408   -9.5022 C   0  0  0  0  0  0  0  0  0  0  0  0
   -8.2893    8.7195   -9.9713 N   0  0  0  0  0  0  0  0  0  0  0  0
   -8.4361    8.8492  -11.2847 N   0  0  0  0  0  0  0  0  0  0  0  0
   -7.3404    9.8857   -8.0208 C   0  0  0  0  0  0  0  0  0  0  0  0
   -5.4704   14.2158  -13.3316 C   0  0  0  0  0  0  0  0  0  0  0  0
   -4.5218   15.3458  -13.0035 C   0  0  0  0  0  0  0  0  0  0  0  0
   -5.5814   13.4696  -12.1774 N   0  0  0  0  0  0  0  0  0  0  0  0
   -5.9630   10.4847   -7.7359 C   0  0  0  0  0  0  0  0  0  0  0  0
   -5.8538   11.7563   -7.1621 C   0  0  0  0  0  0  0  0  0  0  0  0
   -4.5953   12.3060   -6.9160 C   0  0  0  0  0  0  0  0  0  0  0  0
   -3.4449   11.5852   -7.2379 C   0  0  0  0  0  0  0  0  0  0  0  0
   -3.5560   10.3115   -7.8043 C   0  0  0  0  0  0  0  0  0  0  0  0
   -4.8130    9.7655   -8.0531 C   0  0  0  0  0  0  0  0  0  0  0  0
   -2.0905   12.1634   -6.9778 C   0  0  0  0  0  0  0  0  0  0  0  0
   -1.7398   13.4211   -6.5005 C   0  0  0  0  0  0  0  0  0  0  0  0
   -0.4007   13.4556   -6.4362 N   0  0  0  0  0  0  0  0  0  0  0  0
    0.1858   12.3500   -6.8082 N   0  0  0  0  0  0  0  0  0  0  0  0
   -0.8018   11.5473   -7.1675 C   0  0  0  0  0  0  0  0  0  0  0  0
    0.4333   14.5672   -6.0053 C   0  0  0  0  0  0  0  0  0  0  0  0
   -6.0131   14.0330  -14.4162 O   0  0  0  0  0  0  0  0  0  0  0  0
   -4.6790   13.9767  -11.1295 C   0  0  0  0  0  0  0  0  0  0  0  0
   -4.0830   15.2556  -11.5883 C   0  0  0  0  0  0  0  0  0  0  0  0
   -6.1181   12.2807   -9.8804 H   0  0  0  0  0  0  0  0  0  0  0  0
   -8.7624   10.7378  -13.3832 H   0  0  0  0  0  0  0  0  0  0  0  0
   -7.2763    9.7721  -13.6757 H   0  0  0  0  0  0  0  0  0  0  0  0
   -7.6809   12.4497  -13.5703 H   0  0  0  0  0  0  0  0  0  0  0  0
   -6.1921   11.4836  -13.8477 H   0  0  0  0  0  0  0  0  0  0  0  0
   -8.0363    9.5960   -7.2473 H   0  0  0  0  0  0  0  0  0  0  0  0
   -4.2080   16.1098  -13.6994 H   0  0  0  0  0  0  0  0  0  0  0  0
   -6.7444   12.3126   -6.9096 H   0  0  0  0  0  0  0  0  0  0  0  0
   -4.5117   13.2890   -6.4765 H   0  0  0  0  0  0  0  0  0  0  0  0
   -2.6662    9.7505   -8.0491 H   0  0  0  0  0  0  0  0  0  0  0  0
   -4.8962    8.7826   -8.4928 H   0  0  0  0  0  0  0  0  0  0  0  0
   -2.4169   14.2186   -6.2325 H   0  0  0  0  0  0  0  0  0  0  0  0
   -0.6596   10.5498   -7.5564 H   0  0  0  0  0  0  0  0  0  0  0  0
    1.4925   14.2769   -6.0668 H   0  0  0  0  0  0  0  0  0  0  0  0
    0.2526   15.4350   -6.6567 H   0  0  0  0  0  0  0  0  0  0  0  0
    0.1851   14.8305   -4.9665 H   0  0  0  0  0  0  0  0  0  0  0  0
   -6.5611   13.2584  -14.3700 H   0  0  0  0  0  0  0  0  0  0  0  0
   -5.2469   14.1452  -10.2026 H   0  0  0  0  0  0  0  0  0  0  0  0
   -3.8809   13.2432  -10.9424 H   0  0  0  0  0  0  0  0  0  0  0  0
   -2.9857   15.2276  -11.5166 H   0  0  0  0  0  0  0  0  0  0  0  0
   -4.4673   16.1029  -11.0014 H   0  0  0  0  0  0  0  0  0  0  0  0
  1  2  2  0  0  0  0
  1  4  1  0  0  0  0
  1 13  1  0  0  0  0
  2  6  1  0  0  0  0
  3  4  1  0  0  0  0
  3  5  1  0  0  0  0
  5  6  2  0  0  0  0
  5  9  1  0  0  0  0
  6  7  1  0  0  0  0
  7  8  1  0  0  0  0
  7 10  2  3  0  0  0
  8  9  2  0  0  0  0
 10 14  1  0  0  0  0
 11 12  2  0  0  0  0
 11 13  1  0  0  0  0
 11 26  1  0  0  0  0
 12 28  1  0  0  0  0
 13 27  1  0  0  0  0
 14 15  2  0  0  0  0
 14 19  1  0  0  0  0
 15 16  1  0  0  0  0
 16 17  2  0  0  0  0
 17 18  1  0  0  0  0
 17 20  1  0  0  0  0
 18 19  2  0  0  0  0
 20 21  2  0  0  0  0
 20 24  1  0  0  0  0
 21 22  1  0  0  0  0
 22 23  1  0  0  0  0
 22 25  1  0  0  0  0
 23 24  2  0  0  0  0
 27 28  1  0  0  0  0
  2 29  1  0  0  0  0
  3 30  1  0  0  0  0
  3 31  1  0  0  0  0
  4 32  1  0  0  0  0
  4 33  1  0  0  0  0
 10 34  1  0  0  0  0
 12 35  1  0  0  0  0
 15 36  1  0  0  0  0
 16 37  1  0  0  0  0
 18 38  1  0  0  0  0
 19 39  1  0  0  0  0
 21 40  1  0  0  0  0
 24 41  1  0  0  0  0
 25 42  1  0  0  0  0
 25 43  1  0  0  0  0
 25 44  1  0  0  0  0
 26 45  1  0  0  0  0
 27 46  1  0  0  0  0
 27 47  1  0  0  0  0
 28 48  1  0  0  0  0
 28 49  1  0  0  0  0
M  END
> <Name>
26

> <IC50[uM]>
0.036

$$$$
26
  -OEChem-05192314333D
 Structure written by MMmdl.
 49 53  0     1  0  0  0  0  0999 V2000
   -6.3961   12.3155  -12.0234 C   0  0  0  0  0  0  0  0  0  0  0  0
   -6.5478   11.7864  -10.7392 C   0  0  0  0  0  0  0  0  0  0  0  0
   -7.7431   10.5278  -13.0269 C   0  0  0  0  0  0  0  0  0  0  0  0
   -7.0034   11.6993  -13.1368 C   0  0  0  0  0  0  0  0  0  0  0  0
   -7.8411    9.9886  -11.7443 C   0  0  0  0  0  0  0  0  0  0  0  0
   -7.2672   10.6062  -10.5986 C   0  0  0  0  0  0  0  0  0  0  0  0
   -7.6276    9.7408   -9.5022 C   0  0  0  0  0  0  0  0  0  0  0  0
   -8.2893    8.7195   -9.9713 N   0  0  0  0  0  0  0  0  0  0  0  0
   -8.4361    8.8492  -11.2847 N   0  0  0  0  0  0  0  0  0  0  0  0
   -7.3404    9.8857   -8.0208 C   0  0  0  0  0  0  0  0  0  0  0  0
   -5.4704   14.2158  -13.3316 C   0  0  0  0  0  0  0  0  0  0  0  0
   -4.5218   15.3458  -13.0035 C   0  0  0  0  0  0  0  0  0  0  0  0
   -5.5814   13.4696  -12.1774 N   0  0  0  0  0  0  0  0  0  0  0  0
   -5.9630   10.4847   -7.7359 C   0  0  0  0  0  0  0  0  0  0  0  0
   -5.8538   11.7563   -7.1621 C   0  0  0  0  0  0  0  0  0  0  0  0
   -4.5953   12.3060   -6.9160 C   0  0  0  0  0  0  0  0  0  0  0  0
   -3.4449   11.5852   -7.2379 C   0  0  3  0  0  0  0  0  0  0  0  0
   -3.5560   10.3115   -7.8043 C   0  0  0  0  0  0  0  0  0  0  0  0
   -4.8130    9.7655   -8.0531 C   0  0  0  0  0  0  0  0  0  0  0  0
   -2.0905   12.1634   -6.9778 C   0  0  0  0  0  0  0  0  0  0  0  0
   -1.7398   13.4211   -6.5005 C   0  0  0  0  0  0  0  0  0  0  0  0
   -0.4007   13.4556   -6.4362 N   0  0  0  0  0  0  0  0  0  0  0  0
    0.1858   12.3500   -6.8082 N   0  0  0  0  0  0  0  0  0  0  0  0
   -0.8018   11.5473   -7.1675 C   0  0  0  0  0  0  0  0  0  0  0  0
    0.4333   14.5672   -6.0053 C   0  0  0  0  0  0  0  0  0  0  0  0
   -6.0131   14.0330  -14.4162 O   0  0  0  0  0  0  0  0  0  0  0  0
   -4.6790   13.9767  -11.1295 C   0  0  0  0  0  0  0  0  0  0  0  0
   -4.0830   15.2556  -11.5883 C   0  0  0  0  0  0  0  0  0  0  0  0
   -6.1181   12.2807   -9.8804 H   0  0  0  0  0  0  0  0  0  0  0  0
   -8.2128   10.0638  -13.8816 H   0  0  0  0  0  0  0  0  0  0  0  0
   -6.8897   12.1539  -14.1098 H   0  0  0  0  0  0  0  0  0  0  0  0
   -8.0363    9.5960   -7.2473 H   0  0  0  0  0  0  0  0  0  0  0  0
   -4.2080   16.1098  -13.6994 H   0  0  0  0  0  0  0  0  0  0  0  0
   -6.7444   12.3126   -6.9096 H   0  0  0  0  0  0  0  0  0  0  0  0
   -4.5459   13.2506   -7.4775 H   0  0  0  0  0  0  0  0  0  0  0  0
   -4.5463   12.5175   -5.8376 H   0  0  0  0  0  0  0  0  0  0  0  0
   -3.4442   12.0330   -8.2426 H   0  0  0  0  0  0  0  0  0  0  0  0
   -2.6662    9.7505   -8.0491 H   0  0  0  0  0  0  0  0  0  0  0  0
   -4.8962    8.7826   -8.4928 H   0  0  0  0  0  0  0  0  0  0  0  0
   -2.4169   14.2186   -6.2325 H   0  0  0  0  0  0  0  0  0  0  0  0
   -0.6596   10.5498   -7.5564 H   0  0  0  0  0  0  0  0  0  0  0  0
    1.4925   14.2769   -6.0668 H   0  0  0  0  0  0  0  0  0  0  0  0
    0.2526   15.4350   -6.6567 H   0  0  0  0  0  0  0  0  0  0  0  0
    0.1851   14.8305   -4.9665 H   0  0  0  0  0  0  0  0  0  0  0  0
   -6.5611   13.2584  -14.3700 H   0  0  0  0  0  0  0  0  0  0  0  0
   -5.2469   14.1452  -10.2026 H   0  0  0  0  0  0  0  0  0  0  0  0
   -3.8809   13.2432  -10.9424 H   0  0  0  0  0  0  0  0  0  0  0  0
   -2.9857   15.2276  -11.5166 H   0  0  0  0  0  0  0  0  0  0  0  0
   -4.4673   16.1029  -11.0014 H   0  0  0  0  0  0  0  0  0  0  0  0
  1  2  2  0  0  0  0
  1  4  1  0  0  0  0
  1 13  1  0  0  0  0
  2  6  1  0  0  0  0
  3  4  2  0  0  0  0
  3  5  1  0  0  0  0
  5  6  2  0  0  0  0
  5  9  1  0  0  0  0
  6  7  1  0  0  0  0
  7  8  1  0  0  0  0
  7 10  2  3  0  0  0
  8  9  2  0  0  0  0
 10 14  1  0  0  0  0
 11 12  2  0  0  0  0
 11 13  1  0  0  0  0
 11 26  1  0  0  0  0
 12 28  1  0  0  0  0
 13 27  1  0  0  0  0
 14 15  2  0  0  0  0
 14 19  1  0  0  0  0
 15 16  1  0  0  0  0
 16 17  1  0  0  0  0
 17 18  1  0  0  0  0
 17 20  1  0  0  0  0
 18 19  2  0  0  0  0
 20 21  2  0  0  0  0
 20 24  1  0  0  0  0
 21 22  1  0  0  0  0
 22 23  1  0  0  0  0
 22 25  1  0  0  0  0
 23 24  2  0  0  0  0
 27 28  1  0  0  0  0
  2 29  1  0  0  0  0
  3 30  1  0  0  0  0
  4 31  1  0  0  0  0
 10 32  1  0  0  0  0
 12 33  1  0  0  0  0
 15 34  1  0  0  0  0
 16 35  1  0  0  0  0
 16 36  1  0  0  0  0
 17 37  1  0  0  0  0
 18 38  1  0  0  0  0
 19 39  1  0  0  0  0
 21 40  1  0  0  0  0
 24 41  1  0  0  0  0
 25 42  1  0  0  0  0
 25 43  1  0  0  0  0
 25 44  1  0  0  0  0
 26 45  1  0  0  0  0
 27 46  1  0  0  0  0
 27 47  1  0  0  0  0
 28 48  1  0  0  0  0
 28 49  1  0  0  0  0
M  END
> <Name>
26

> <IC50[uM]>
0.036

$$$$
26
  -OEChem-05192314333D
 Structure written by MMmdl.
 49 53  0     1  0  0  0  0  0999 V2000
   -6.3961   12.3155  -12.0234 C   0  0  0  0  0  0  0  0  0  0  0  0
   -6.5478   11.7864  -10.7392 C   0  0  0  0  0  0  0  0  0  0  0  0
   -7.7431   10.5278  -13.0269 C   0  0  0  0  0  0  0  0  0  0  0  0
   -7.0034   11.6993  -13.1368 C   0  0  0  0  0  0  0  0  0  0  0  0
   -7.8411    9.9886  -11.7443 C   0  0  0  0  0  0  0  0  0  0  0  0
   -7.2672   10.6062  -10.5986 C   0  0  0  0  0  0  0  0  0  0  0  0
   -7.6276    9.7408   -9.5022 C   0  0  0  0  0  0  0  0  0  0  0  0
   -8.2893    8.7195   -9.9713 N   0  0  0  0  0  0  0  0  0  0  0  0
   -8.4361    8.8492  -11.2847 N   0  0  0  0  0  0  0  0  0  0  0  0
   -7.3404    9.8857   -8.0208 C   0  0  0  0  0  0  0  0  0  0  0  0
   -5.4704   14.2158  -13.3316 C   0  0  0  0  0  0  0  0  0  0  0  0
   -4.5218   15.3458  -13.0035 C   0  0  0  0  0  0  0  0  0  0  0  0
   -5.5814   13.4696  -12.1774 N   0  0  0  0  0  0  0  0  0  0  0  0
   -5.9630   10.4847   -7.7359 C   0  0  3  0  0  0  0  0  0  0  0  0
   -5.8538   11.7563   -7.1621 C   0  0  0  0  0  0  0  0  0  0  0  0
   -4.5953   12.3060   -6.9160 C   0  0  0  0  0  0  0  0  0  0  0  0
   -3.4449   11.5852   -7.2379 C   0  0  0  0  0  0  0  0  0  0  0  0
   -3.5560   10.3115   -7.8043 C   0  0  0  0  0  0  0  0  0  0  0  0
   -4.8130    9.7655   -8.0531 C   0  0  0  0  0  0  0  0  0  0  0  0
   -2.0905   12.1634   -6.9778 C   0  0  0  0  0  0  0  0  0  0  0  0
   -1.7398   13.4211   -6.5005 C   0  0  0  0  0  0  0  0  0  0  0  0
   -0.4007   13.4556   -6.4362 N   0  0  0  0  0  0  0  0  0  0  0  0
    0.1858   12.3500   -6.8082 N   0  0  0  0  0  0  0  0  0  0  0  0
   -0.8018   11.5473   -7.1675 C   0  0  0  0  0  0  0  0  0  0  0  0
    0.4333   14.5672   -6.0053 C   0  0  0  0  0  0  0  0  0  0  0  0
   -6.0131   14.0330  -14.4162 O   0  0  0  0  0  0  0  0  0  0  0  0
   -4.6790   13.9767  -11.1295 C   0  0  0  0  0  0  0  0  0  0  0  0
   -4.0830   15.2556  -11.5883 C   0  0  0  0  0  0  0  0  0  0  0  0
   -6.1181   12.2807   -9.8804 H   0  0  0  0  0  0  0  0  0  0  0  0
   -8.2128   10.0638  -13.8816 H   0  0  0  0  0  0  0  0  0  0  0  0
   -6.8897   12.1539  -14.1098 H   0  0  0  0  0  0  0  0  0  0  0  0
   -8.0363    9.5960   -7.2473 H   0  0  0  0  0  0  0  0  0  0  0  0
   -4.2080   16.1098  -13.6994 H   0  0  0  0  0  0  0  0  0  0  0  0
   -5.9717   10.0315   -6.7336 H   0  0  0  0  0  0  0  0  0  0  0  0
   -6.7444   12.3126   -6.9096 H   0  0  0  0  0  0  0  0  0  0  0  0
   -4.5117   13.2890   -6.4765 H   0  0  0  0  0  0  0  0  0  0  0  0
   -2.6662    9.7505   -8.0491 H   0  0  0  0  0  0  0  0  0  0  0  0
   -4.8650    8.8210   -7.4917 H   0  0  0  0  0  0  0  0  0  0  0  0
   -4.8588    9.5541   -9.1316 H   0  0  0  0  0  0  0  0  0  0  0  0
   -2.4169   14.2186   -6.2325 H   0  0  0  0  0  0  0  0  0  0  0  0
   -0.6596   10.5498   -7.5564 H   0  0  0  0  0  0  0  0  0  0  0  0
    1.4925   14.2769   -6.0668 H   0  0  0  0  0  0  0  0  0  0  0  0
    0.2526   15.4350   -6.6567 H   0  0  0  0  0  0  0  0  0  0  0  0
    0.1851   14.8305   -4.9665 H   0  0  0  0  0  0  0  0  0  0  0  0
   -6.5611   13.2584  -14.3700 H   0  0  0  0  0  0  0  0  0  0  0  0
   -5.2469   14.1452  -10.2026 H   0  0  0  0  0  0  0  0  0  0  0  0
   -3.8809   13.2432  -10.9424 H   0  0  0  0  0  0  0  0  0  0  0  0
   -2.9857   15.2276  -11.5166 H   0  0  0  0  0  0  0  0  0  0  0  0
   -4.4673   16.1029  -11.0014 H   0  0  0  0  0  0  0  0  0  0  0  0
  1  2  2  0  0  0  0
  1  4  1  0  0  0  0
  1 13  1  0  0  0  0
  2  6  1  0  0  0  0
  3  4  2  0  0  0  0
  3  5  1  0  0  0  0
  5  6  2  0  0  0  0
  5  9  1  0  0  0  0
  6  7  1  0  0  0  0
  7  8  1  0  0  0  0
  7 10  2  3  0  0  0
  8  9  2  0  0  0  0
 10 14  1  0  0  0  0
 11 12  2  0  0  0  0
 11 13  1  0  0  0  0
 11 26  1  0  0  0  0
 12 28  1  0  0  0  0
 13 27  1  0  0  0  0
 14 15  1  0  0  0  0
 14 19  1  0  0  0  0
 15 16  2  0  0  0  0
 16 17  1  0  0  0  0
 17 18  2  0  0  0  0
 17 20  1  0  0  0  0
 18 19  1  0  0  0  0
 20 21  2  0  0  0  0
 20 24  1  0  0  0  0
 21 22  1  0  0  0  0
 22 23  1  0  0  0  0
 22 25  1  0  0  0  0
 23 24  2  0  0  0  0
 27 28  1  0  0  0  0
  2 29  1  0  0  0  0
  3 30  1  0  0  0  0
  4 31  1  0  0  0  0
 10 32  1  0  0  0  0
 12 33  1  0  0  0  0
 14 34  1  0  0  0  0
 15 35  1  0  0  0  0
 16 36  1  0  0  0  0
 18 37  1  0  0  0  0
 19 38  1  0  0  0  0
 19 39  1  0  0  0  0
 21 40  1  0  0  0  0
 24 41  1  0  0  0  0
 25 42  1  0  0  0  0
 25 43  1  0  0  0  0
 25 44  1  0  0  0  0
 26 45  1  0  0  0  0
 27 46  1  0  0  0  0
 27 47  1  0  0  0  0
 28 48  1  0  0  0  0
 28 49  1  0  0  0  0
M  END
> <Name>
26

> <IC50[uM]>
0.036

$$$$
26
  -OEChem-05192314333D
 Structure written by MMmdl.
 49 53  0     1  0  0  0  0  0999 V2000
   -6.3961   12.3155  -12.0234 C   0  0  0  0  0  0  0  0  0  0  0  0
   -6.5478   11.7864  -10.7392 C   0  0  0  0  0  0  0  0  0  0  0  0
   -7.7431   10.5278  -13.0269 C   0  0  0  0  0  0  0  0  0  0  0  0
   -7.0034   11.6993  -13.1368 C   0  0  0  0  0  0  0  0  0  0  0  0
   -7.8411    9.9886  -11.7443 C   0  0  0  0  0  0  0  0  0  0  0  0
   -7.2672   10.6062  -10.5986 C   0  0  0  0  0  0  0  0  0  0  0  0
   -7.6276    9.7408   -9.5022 C   0  0  3  0  0  0  0  0  0  0  0  0
   -8.2893    8.7195   -9.9713 N   0  0  0  0  0  0  0  0  0  0  0  0
   -8.4361    8.8492  -11.2847 N   0  0  0  0  0  0  0  0  0  0  0  0
   -7.3404    9.8857   -8.0208 C   0  0  0  0  0  0  0  0  0  0  0  0
   -5.4704   14.2158  -13.3316 C   0  0  0  0  0  0  0  0  0  0  0  0
   -4.5218   15.3458  -13.0035 C   0  0  0  0  0  0  0  0  0  0  0  0
   -5.5814   13.4696  -12.1774 N   0  0  0  0  0  0  0  0  0  0  0  0
   -5.9630   10.4847   -7.7359 C   0  0  0  0  0  0  0  0  0  0  0  0
   -5.8538   11.7563   -7.1621 C   0  0  0  0  0  0  0  0  0  0  0  0
   -4.5953   12.3060   -6.9160 C   0  0  0  0  0  0  0  0  0  0  0  0
   -3.4449   11.5852   -7.2379 C   0  0  0  0  0  0  0  0  0  0  0  0
   -3.5560   10.3115   -7.8043 C   0  0  0  0  0  0  0  0  0  0  0  0
   -4.8130    9.7655   -8.0531 C   0  0  0  0  0  0  0  0  0  0  0  0
   -2.0905   12.1634   -6.9778 C   0  0  0  0  0  0  0  0  0  0  0  0
   -1.7398   13.4211   -6.5005 C   0  0  0  0  0  0  0  0  0  0  0  0
   -0.4007   13.4556   -6.4362 N   0  0  0  0  0  0  0  0  0  0  0  0
    0.1858   12.3500   -6.8082 N   0  0  0  0  0  0  0  0  0  0  0  0
   -0.8018   11.5473   -7.1675 C   0  0  0  0  0  0  0  0  0  0  0  0
    0.4333   14.5672   -6.0053 C   0  0  0  0  0  0  0  0  0  0  0  0
   -6.0131   14.0330  -14.4162 O   0  0  0  0  0  0  0  0  0  0  0  0
   -4.6790   13.9767  -11.1295 C   0  0  0  0  0  0  0  0  0  0  0  0
   -4.0830   15.2556  -11.5883 C   0  0  0  0  0  0  0  0  0  0  0  0
   -6.1181   12.2807   -9.8804 H   0  0  0  0  0  0  0  0  0  0  0  0
   -8.2128   10.0638  -13.8816 H   0  0  0  0  0  0  0  0  0  0  0  0
   -6.8897   12.1539  -14.1098 H   0  0  0  0  0  0  0  0  0  0  0  0
   -8.5699   10.2938   -9.3744 H   0  0  0  0  0  0  0  0  0  0  0  0
   -8.0363    9.5960   -7.2473 H   0  0  0  0  0  0  0  0  0  0  0  0
   -4.2080   16.1098  -13.6994 H   0  0  0  0  0  0  0  0  0  0  0  0
   -6.7444   12.3126   -6.9096 H   0  0  0  0  0  0  0  0  0  0  0  0
   -4.5117   13.2890   -6.4765 H   0  0  0  0  0  0  0  0  0  0  0  0
   -2.6662    9.7505   -8.0491 H   0  0  0  0  0  0  0  0  0  0  0  0
   -4.8650    8.8210   -7.4917 H   0  0  0  0  0  0  0  0  0  0  0  0
   -4.8588    9.5541   -9.1316 H   0  0  0  0  0  0  0  0  0  0  0  0
   -2.4169   14.2186   -6.2325 H   0  0  0  0  0  0  0  0  0  0  0  0
   -0.6596   10.5498   -7.5564 H   0  0  0  0  0  0  0  0  0  0  0  0
    1.4925   14.2769   -6.0668 H   0  0  0  0  0  0  0  0  0  0  0  0
    0.2526   15.4350   -6.6567 H   0  0  0  0  0  0  0  0  0  0  0  0
    0.1851   14.8305   -4.9665 H   0  0  0  0  0  0  0  0  0  0  0  0
   -6.5611   13.2584  -14.3700 H   0  0  0  0  0  0  0  0  0  0  0  0
   -5.2469   14.1452  -10.2026 H   0  0  0  0  0  0  0  0  0  0  0  0
   -3.8809   13.2432  -10.9424 H   0  0  0  0  0  0  0  0  0  0  0  0
   -2.9857   15.2276  -11.5166 H   0  0  0  0  0  0  0  0  0  0  0  0
   -4.4673   16.1029  -11.0014 H   0  0  0  0  0  0  0  0  0  0  0  0
  1  2  2  0  0  0  0
  1  4  1  0  0  0  0
  1 13  1  0  0  0  0
  2  6  1  0  0  0  0
  3  4  2  0  0  0  0
  3  5  1  0  0  0  0
  5  6  2  0  0  0  0
  5  9  1  0  0  0  0
  6  7  1  0  0  0  0
  7  8  1  0  0  0  0
  7 10  1  0  0  0  0
  8  9  2  0  0  0  0
 10 14  2  3  0  0  0
 11 12  2  0  0  0  0
 11 13  1  0  0  0  0
 11 26  1  0  0  0  0
 12 28  1  0  0  0  0
 13 27  1  0  0  0  0
 14 15  1  0  0  0  0
 14 19  1  0  0  0  0
 15 16  2  0  0  0  0
 16 17  1  0  0  0  0
 17 18  2  0  0  0  0
 17 20  1  0  0  0  0
 18 19  1  0  0  0  0
 20 21  2  0  0  0  0
 20 24  1  0  0  0  0
 21 22  1  0  0  0  0
 22 23  1  0  0  0  0
 22 25  1  0  0  0  0
 23 24  2  0  0  0  0
 27 28  1  0  0  0  0
  2 29  1  0  0  0  0
  3 30  1  0  0  0  0
  4 31  1  0  0  0  0
  7 32  1  0  0  0  0
 10 33  1  0  0  0  0
 12 34  1  0  0  0  0
 15 35  1  0  0  0  0
 16 36  1  0  0  0  0
 18 37  1  0  0  0  0
 19 38  1  0  0  0  0
 19 39  1  0  0  0  0
 21 40  1  0  0  0  0
 24 41  1  0  0  0  0
 25 42  1  0  0  0  0
 25 43  1  0  0  0  0
 25 44  1  0  0  0  0
 26 45  1  0  0  0  0
 27 46  1  0  0  0  0
 27 47  1  0  0  0  0
 28 48  1  0  0  0  0
 28 49  1  0  0  0  0
M  END
> <Name>
26

> <IC50[uM]>
0.036

$$$$
26
  -OEChem-05192314333D
 Structure written by MMmdl.
 49 53  0     0  0  0  0  0  0999 V2000
   -6.3961   12.3155  -12.0234 C   0  0  0  0  0  0  0  0  0  0  0  0
   -6.5478   11.7864  -10.7392 C   0  0  0  0  0  0  0  0  0  0  0  0
   -7.7431   10.5278  -13.0269 C   0  0  0  0  0  0  0  0  0  0  0  0
   -7.0034   11.6993  -13.1368 C   0  0  0  0  0  0  0  0  0  0  0  0
   -7.8411    9.9886  -11.7443 C   0  0  0  0  0  0  0  0  0  0  0  0
   -7.2672   10.6062  -10.5986 C   0  0  0  0  0  0  0  0  0  0  0  0
   -7.6276    9.7408   -9.5022 C   0  0  0  0  0  0  0  0  0  0  0  0
   -8.2893    8.7195   -9.9713 N   0  0  0  0  0  0  0  0  0  0  0  0
   -8.4361    8.8492  -11.2847 N   0  0  0  0  0  0  0  0  0  0  0  0
   -7.3404    9.8857   -8.0208 C   0  0  0  0  0  0  0  0  0  0  0  0
   -5.4704   14.2158  -13.3316 C   0  0  0  0  0  0  0  0  0  0  0  0
   -4.5218   15.3458  -13.0035 C   0  0  0  0  0  0  0  0  0  0  0  0
   -5.5814   13.4696  -12.1774 N   0  0  0  0  0  0  0  0  0  0  0  0
   -5.9630   10.4847   -7.7359 C   0  0  0  0  0  0  0  0  0  0  0  0
   -5.8538   11.7563   -7.1621 C   0  0  0  0  0  0  0  0  0  0  0  0
   -4.5953   12.3060   -6.9160 C   0  0  0  0  0  0  0  0  0  0  0  0
   -3.4449   11.5852   -7.2379 C   0  0  0  0  0  0  0  0  0  0  0  0
   -3.5560   10.3115   -7.8043 C   0  0  0  0  0  0  0  0  0  0  0  0
   -4.8130    9.7655   -8.0531 C   0  0  0  0  0  0  0  0  0  0  0  0
   -2.0905   12.1634   -6.9778 C   0  0  0  0  0  0  0  0  0  0  0  0
   -1.7398   13.4211   -6.5005 C   0  0  0  0  0  0  0  0  0  0  0  0
   -0.4007   13.4556   -6.4362 N   0  0  0  0  0  0  0  0  0  0  0  0
    0.1858   12.3500   -6.8082 N   0  0  0  0  0  0  0  0  0  0  0  0
   -0.8018   11.5473   -7.1675 C   0  0  0  0  0  0  0  0  0  0  0  0
    0.4333   14.5672   -6.0053 C   0  0  0  0  0  0  0  0  0  0  0  0
   -6.0131   14.0330  -14.4162 O   0  0  0  0  0  0  0  0  0  0  0  0
   -4.6790   13.9767  -11.1295 C   0  0  0  0  0  0  0  0  0  0  0  0
   -4.0830   15.2556  -11.5883 C   0  0  0  0  0  0  0  0  0  0  0  0
   -6.1181   12.2807   -9.8804 H   0  0  0  0  0  0  0  0  0  0  0  0
   -8.2128   10.0638  -13.8816 H   0  0  0  0  0  0  0  0  0  0  0  0
   -6.8897   12.1539  -14.1098 H   0  0  0  0  0  0  0  0  0  0  0  0
   -8.0363    9.5960   -7.2473 H   0  0  0  0  0  0  0  0  0  0  0  0
   -4.2080   16.1098  -13.6994 H   0  0  0  0  0  0  0  0  0  0  0  0
   -6.7444   12.3126   -6.9096 H   0  0  0  0  0  0  0  0  0  0  0  0
   -4.5459   13.2506   -7.4775 H   0  0  0  0  0  0  0  0  0  0  0  0
   -4.5463   12.5175   -5.8376 H   0  0  0  0  0  0  0  0  0  0  0  0
   -2.6662    9.7505   -8.0491 H   0  0  0  0  0  0  0  0  0  0  0  0
   -4.8650    8.8210   -7.4917 H   0  0  0  0  0  0  0  0  0  0  0  0
   -4.8588    9.5541   -9.1316 H   0  0  0  0  0  0  0  0  0  0  0  0
   -2.4169   14.2186   -6.2325 H   0  0  0  0  0  0  0  0  0  0  0  0
   -0.6596   10.5498   -7.5564 H   0  0  0  0  0  0  0  0  0  0  0  0
    1.4925   14.2769   -6.0668 H   0  0  0  0  0  0  0  0  0  0  0  0
    0.2526   15.4350   -6.6567 H   0  0  0  0  0  0  0  0  0  0  0  0
    0.1851   14.8305   -4.9665 H   0  0  0  0  0  0  0  0  0  0  0  0
   -6.5611   13.2584  -14.3700 H   0  0  0  0  0  0  0  0  0  0  0  0
   -5.2469   14.1452  -10.2026 H   0  0  0  0  0  0  0  0  0  0  0  0
   -3.8809   13.2432  -10.9424 H   0  0  0  0  0  0  0  0  0  0  0  0
   -2.9857   15.2276  -11.5166 H   0  0  0  0  0  0  0  0  0  0  0  0
   -4.4673   16.1029  -11.0014 H   0  0  0  0  0  0  0  0  0  0  0  0
  1  2  2  0  0  0  0
  1  4  1  0  0  0  0
  1 13  1  0  0  0  0
  2  6  1  0  0  0  0
  3  4  2  0  0  0  0
  3  5  1  0  0  0  0
  5  6  2  0  0  0  0
  5  9  1  0  0  0  0
  6  7  1  0  0  0  0
  7  8  1  0  0  0  0
  7 10  2  3  0  0  0
  8  9  2  0  0  0  0
 10 14  1  0  0  0  0
 11 12  2  0  0  0  0
 11 13  1  0  0  0  0
 11 26  1  0  0  0  0
 12 28  1  0  0  0  0
 13 27  1  0  0  0  0
 14 15  2  0  0  0  0
 14 19  1  0  0  0  0
 15 16  1  0  0  0  0
 16 17  1  0  0  0  0
 17 18  2  0  0  0  0
 17 20  1  0  0  0  0
 18 19  1  0  0  0  0
 20 21  2  0  0  0  0
 20 24  1  0  0  0  0
 21 22  1  0  0  0  0
 22 23  1  0  0  0  0
 22 25  1  0  0  0  0
 23 24  2  0  0  0  0
 27 28  1  0  0  0  0
  2 29  1  0  0  0  0
  3 30  1  0  0  0  0
  4 31  1  0  0  0  0
 10 32  1  0  0  0  0
 12 33  1  0  0  0  0
 15 34  1  0  0  0  0
 16 35  1  0  0  0  0
 16 36  1  0  0  0  0
 18 37  1  0  0  0  0
 19 38  1  0  0  0  0
 19 39  1  0  0  0  0
 21 40  1  0  0  0  0
 24 41  1  0  0  0  0
 25 42  1  0  0  0  0
 25 43  1  0  0  0  0
 25 44  1  0  0  0  0
 26 45  1  0  0  0  0
 27 46  1  0  0  0  0
 27 47  1  0  0  0  0
 28 48  1  0  0  0  0
 28 49  1  0  0  0  0
M  END
> <Name>
26

> <IC50[uM]>
0.036

$$$$
26
  -OEChem-05192314333D
 Structure written by MMmdl.
 49 53  0     0  0  0  0  0  0999 V2000
   -6.3961   12.3155  -12.0234 C   0  0  0  0  0  0  0  0  0  0  0  0
   -6.5478   11.7864  -10.7392 C   0  0  0  0  0  0  0  0  0  0  0  0
   -7.7431   10.5278  -13.0269 C   0  0  0  0  0  0  0  0  0  0  0  0
   -7.0034   11.6993  -13.1368 C   0  0  0  0  0  0  0  0  0  0  0  0
   -7.8411    9.9886  -11.7443 C   0  0  0  0  0  0  0  0  0  0  0  0
   -7.2672   10.6062  -10.5986 C   0  0  0  0  0  0  0  0  0  0  0  0
   -7.6276    9.7408   -9.5022 C   0  0  0  0  0  0  0  0  0  0  0  0
   -8.2893    8.7195   -9.9713 N   0  0  0  0  0  0  0  0  0  0  0  0
   -8.4361    8.8492  -11.2847 N   0  0  0  0  0  0  0  0  0  0  0  0
   -7.3404    9.8857   -8.0208 C   0  0  0  0  0  0  0  0  0  0  0  0
   -5.4704   14.2158  -13.3316 C   0  0  0  0  0  0  0  0  0  0  0  0
   -4.5218   15.3458  -13.0035 C   0  0  0  0  0  0  0  0  0  0  0  0
   -5.5814   13.4696  -12.1774 N   0  0  0  0  0  0  0  0  0  0  0  0
   -5.9630   10.4847   -7.7359 C   0  0  0  0  0  0  0  0  0  0  0  0
   -5.8538   11.7563   -7.1621 C   0  0  0  0  0  0  0  0  0  0  0  0
   -4.5953   12.3060   -6.9160 C   0  0  0  0  0  0  0  0  0  0  0  0
   -3.4449   11.5852   -7.2379 C   0  0  0  0  0  0  0  0  0  0  0  0
   -3.5560   10.3115   -7.8043 C   0  0  0  0  0  0  0  0  0  0  0  0
   -4.8130    9.7655   -8.0531 C   0  0  0  0  0  0  0  0  0  0  0  0
   -2.0905   12.1634   -6.9778 C   0  0  0  0  0  0  0  0  0  0  0  0
   -1.7398   13.4211   -6.5005 C   0  0  0  0  0  0  0  0  0  0  0  0
   -0.4007   13.4556   -6.4362 N   0  0  0  0  0  0  0  0  0  0  0  0
    0.1858   12.3500   -6.8082 N   0  0  0  0  0  0  0  0  0  0  0  0
   -0.8018   11.5473   -7.1675 C   0  0  0  0  0  0  0  0  0  0  0  0
    0.4333   14.5672   -6.0053 C   0  0  0  0  0  0  0  0  0  0  0  0
   -6.0131   14.0330  -14.4162 O   0  0  0  0  0  0  0  0  0  0  0  0
   -4.6790   13.9767  -11.1295 C   0  0  0  0  0  0  0  0  0  0  0  0
   -4.0830   15.2556  -11.5883 C   0  0  0  0  0  0  0  0  0  0  0  0
   -6.1181   12.2807   -9.8804 H   0  0  0  0  0  0  0  0  0  0  0  0
   -8.2128   10.0638  -13.8816 H   0  0  0  0  0  0  0  0  0  0  0  0
   -6.8897   12.1539  -14.1098 H   0  0  0  0  0  0  0  0  0  0  0  0
   -8.0363    9.5960   -7.2473 H   0  0  0  0  0  0  0  0  0  0  0  0
   -4.2080   16.1098  -13.6994 H   0  0  0  0  0  0  0  0  0  0  0  0
   -6.7444   12.3126   -6.9096 H   0  0  0  0  0  0  0  0  0  0  0  0
   -4.5117   13.2890   -6.4765 H   0  0  0  0  0  0  0  0  0  0  0  0
   -3.0287   10.3463   -8.7690 H   0  0  0  0  0  0  0  0  0  0  0  0
   -3.0368    9.6170   -7.1275 H   0  0  0  0  0  0  0  0  0  0  0  0
   -4.8650    8.8210   -7.4917 H   0  0  0  0  0  0  0  0  0  0  0  0
   -4.8588    9.5541   -9.1316 H   0  0  0  0  0  0  0  0  0  0  0  0
   -2.4169   14.2186   -6.2325 H   0  0  0  0  0  0  0  0  0  0  0  0
   -0.6596   10.5498   -7.5564 H   0  0  0  0  0  0  0  0  0  0  0  0
    1.4925   14.2769   -6.0668 H   0  0  0  0  0  0  0  0  0  0  0  0
    0.2526   15.4350   -6.6567 H   0  0  0  0  0  0  0  0  0  0  0  0
    0.1851   14.8305   -4.9665 H   0  0  0  0  0  0  0  0  0  0  0  0
   -6.5611   13.2584  -14.3700 H   0  0  0  0  0  0  0  0  0  0  0  0
   -5.2469   14.1452  -10.2026 H   0  0  0  0  0  0  0  0  0  0  0  0
   -3.8809   13.2432  -10.9424 H   0  0  0  0  0  0  0  0  0  0  0  0
   -2.9857   15.2276  -11.5166 H   0  0  0  0  0  0  0  0  0  0  0  0
   -4.4673   16.1029  -11.0014 H   0  0  0  0  0  0  0  0  0  0  0  0
  1  2  2  0  0  0  0
  1  4  1  0  0  0  0
  1 13  1  0  0  0  0
  2  6  1  0  0  0  0
  3  4  2  0  0  0  0
  3  5  1  0  0  0  0
  5  6  2  0  0  0  0
  5  9  1  0  0  0  0
  6  7  1  0  0  0  0
  7  8  1  0  0  0  0
  7 10  2  3  0  0  0
  8  9  2  0  0  0  0
 10 14  1  0  0  0  0
 11 12  2  0  0  0  0
 11 13  1  0  0  0  0
 11 26  1  0  0  0  0
 12 28  1  0  0  0  0
 13 27  1  0  0  0  0
 14 15  2  0  0  0  0
 14 19  1  0  0  0  0
 15 16  1  0  0  0  0
 16 17  2  0  0  0  0
 17 18  1  0  0  0  0
 17 20  1  0  0  0  0
 18 19  1  0  0  0  0
 20 21  2  0  0  0  0
 20 24  1  0  0  0  0
 21 22  1  0  0  0  0
 22 23  1  0  0  0  0
 22 25  1  0  0  0  0
 23 24  2  0  0  0  0
 27 28  1  0  0  0  0
  2 29  1  0  0  0  0
  3 30  1  0  0  0  0
  4 31  1  0  0  0  0
 10 32  1  0  0  0  0
 12 33  1  0  0  0  0
 15 34  1  0  0  0  0
 16 35  1  0  0  0  0
 18 36  1  0  0  0  0
 18 37  1  0  0  0  0
 19 38  1  0  0  0  0
 19 39  1  0  0  0  0
 21 40  1  0  0  0  0
 24 41  1  0  0  0  0
 25 42  1  0  0  0  0
 25 43  1  0  0  0  0
 25 44  1  0  0  0  0
 26 45  1  0  0  0  0
 27 46  1  0  0  0  0
 27 47  1  0  0  0  0
 28 48  1  0  0  0  0
 28 49  1  0  0  0  0
M  END
> <Name>
26

> <IC50[uM]>
0.036

$$$$
26
  -OEChem-05192314333D
 Structure written by MMmdl.
 49 53  0     1  0  0  0  0  0999 V2000
   -6.3961   12.3155  -12.0234 C   0  0  0  0  0  0  0  0  0  0  0  0
   -6.5478   11.7864  -10.7392 C   0  0  0  0  0  0  0  0  0  0  0  0
   -7.7431   10.5278  -13.0269 C   0  0  0  0  0  0  0  0  0  0  0  0
   -7.0034   11.6993  -13.1368 C   0  0  0  0  0  0  0  0  0  0  0  0
   -7.8411    9.9886  -11.7443 C   0  0  0  0  0  0  0  0  0  0  0  0
   -7.2672   10.6062  -10.5986 C   0  0  3  0  0  0  0  0  0  0  0  0
   -7.6276    9.7408   -9.5022 C   0  0  0  0  0  0  0  0  0  0  0  0
   -8.2893    8.7195   -9.9713 N   0  0  0  0  0  0  0  0  0  0  0  0
   -8.4361    8.8492  -11.2847 N   0  0  0  0  0  0  0  0  0  0  0  0
   -7.3404    9.8857   -8.0208 C   0  0  0  0  0  0  0  0  0  0  0  0
   -5.4704   14.2158  -13.3316 C   0  0  0  0  0  0  0  0  0  0  0  0
   -4.5218   15.3458  -13.0035 C   0  0  0  0  0  0  0  0  0  0  0  0
   -5.5814   13.4696  -12.1774 N   0  0  0  0  0  0  0  0  0  0  0  0
   -5.9630   10.4847   -7.7359 C   0  0  0  0  0  0  0  0  0  0  0  0
   -5.8538   11.7563   -7.1621 C   0  0  0  0  0  0  0  0  0  0  0  0
   -4.5953   12.3060   -6.9160 C   0  0  0  0  0  0  0  0  0  0  0  0
   -3.4449   11.5852   -7.2379 C   0  0  0  0  0  0  0  0  0  0  0  0
   -3.5560   10.3115   -7.8043 C   0  0  0  0  0  0  0  0  0  0  0  0
   -4.8130    9.7655   -8.0531 C   0  0  0  0  0  0  0  0  0  0  0  0
   -2.0905   12.1634   -6.9778 C   0  0  0  0  0  0  0  0  0  0  0  0
   -1.7398   13.4211   -6.5005 C   0  0  0  0  0  0  0  0  0  0  0  0
   -0.4007   13.4556   -6.4362 N   0  0  0  0  0  0  0  0  0  0  0  0
    0.1858   12.3500   -6.8082 N   0  0  0  0  0  0  0  0  0  0  0  0
   -0.8018   11.5473   -7.1675 C   0  0  0  0  0  0  0  0  0  0  0  0
    0.4333   14.5672   -6.0053 C   0  0  0  0  0  0  0  0  0  0  0  0
   -6.0131   14.0330  -14.4162 O   0  0  0  0  0  0  0  0  0  0  0  0
   -4.6790   13.9767  -11.1295 C   0  0  0  0  0  0  0  0  0  0  0  0
   -4.0830   15.2556  -11.5883 C   0  0  0  0  0  0  0  0  0  0  0  0
   -5.5392   11.6037  -10.3400 H   0  0  0  0  0  0  0  0  0  0  0  0
   -7.0511   12.5504  -10.1285 H   0  0  0  0  0  0  0  0  0  0  0  0
   -8.2128   10.0638  -13.8816 H   0  0  0  0  0  0  0  0  0  0  0  0
   -6.8897   12.1539  -14.1098 H   0  0  0  0  0  0  0  0  0  0  0  0
   -8.1901   11.1852  -10.4467 H   0  0  0  0  0  0  0  0  0  0  0  0
   -8.0363    9.5960   -7.2473 H   0  0  0  0  0  0  0  0  0  0  0  0
   -4.2080   16.1098  -13.6994 H   0  0  0  0  0  0  0  0  0  0  0  0
   -6.7444   12.3126   -6.9096 H   0  0  0  0  0  0  0  0  0  0  0  0
   -4.5117   13.2890   -6.4765 H   0  0  0  0  0  0  0  0  0  0  0  0
   -2.6662    9.7505   -8.0491 H   0  0  0  0  0  0  0  0  0  0  0  0
   -4.8962    8.7826   -8.4928 H   0  0  0  0  0  0  0  0  0  0  0  0
   -2.4169   14.2186   -6.2325 H   0  0  0  0  0  0  0  0  0  0  0  0
   -0.6596   10.5498   -7.5564 H   0  0  0  0  0  0  0  0  0  0  0  0
    1.4925   14.2769   -6.0668 H   0  0  0  0  0  0  0  0  0  0  0  0
    0.2526   15.4350   -6.6567 H   0  0  0  0  0  0  0  0  0  0  0  0
    0.1851   14.8305   -4.9665 H   0  0  0  0  0  0  0  0  0  0  0  0
   -6.5611   13.2584  -14.3700 H   0  0  0  0  0  0  0  0  0  0  0  0
   -5.2469   14.1452  -10.2026 H   0  0  0  0  0  0  0  0  0  0  0  0
   -3.8809   13.2432  -10.9424 H   0  0  0  0  0  0  0  0  0  0  0  0
   -2.9857   15.2276  -11.5166 H   0  0  0  0  0  0  0  0  0  0  0  0
   -4.4673   16.1029  -11.0014 H   0  0  0  0  0  0  0  0  0  0  0  0
  1  2  1  0  0  0  0
  1  4  2  0  0  0  0
  1 13  1  0  0  0  0
  2  6  1  0  0  0  0
  3  4  1  0  0  0  0
  3  5  2  0  0  0  0
  5  6  1  0  0  0  0
  5  9  1  0  0  0  0
  6  7  1  0  0  0  0
  7  8  1  0  0  0  0
  7 10  2  3  0  0  0
  8  9  2  0  0  0  0
 10 14  1  0  0  0  0
 11 12  2  0  0  0  0
 11 13  1  0  0  0  0
 11 26  1  0  0  0  0
 12 28  1  0  0  0  0
 13 27  1  0  0  0  0
 14 15  2  0  0  0  0
 14 19  1  0  0  0  0
 15 16  1  0  0  0  0
 16 17  2  0  0  0  0
 17 18  1  0  0  0  0
 17 20  1  0  0  0  0
 18 19  2  0  0  0  0
 20 21  2  0  0  0  0
 20 24  1  0  0  0  0
 21 22  1  0  0  0  0
 22 23  1  0  0  0  0
 22 25  1  0  0  0  0
 23 24  2  0  0  0  0
 27 28  1  0  0  0  0
  2 29  1  0  0  0  0
  2 30  1  0  0  0  0
  3 31  1  0  0  0  0
  4 32  1  0  0  0  0
  6 33  1  0  0  0  0
 10 34  1  0  0  0  0
 12 35  1  0  0  0  0
 15 36  1  0  0  0  0
 16 37  1  0  0  0  0
 18 38  1  0  0  0  0
 19 39  1  0  0  0  0
 21 40  1  0  0  0  0
 24 41  1  0  0  0  0
 25 42  1  0  0  0  0
 25 43  1  0  0  0  0
 25 44  1  0  0  0  0
 26 45  1  0  0  0  0
 27 46  1  0  0  0  0
 27 47  1  0  0  0  0
 28 48  1  0  0  0  0
 28 49  1  0  0  0  0
M  END
> <Name>
26

> <IC50[uM]>
0.036

$$$$
26
  -OEChem-05192314333D
 Structure written by MMmdl.
 49 53  0     1  0  0  0  0  0999 V2000
   -6.3961   12.3155  -12.0234 C   0  0  3  0  0  0  0  0  0  0  0  0
   -6.5478   11.7864  -10.7392 C   0  0  0  0  0  0  0  0  0  0  0  0
   -7.7431   10.5278  -13.0269 C   0  0  0  0  0  0  0  0  0  0  0  0
   -7.0034   11.6993  -13.1368 C   0  0  0  0  0  0  0  0  0  0  0  0
   -7.8411    9.9886  -11.7443 C   0  0  0  0  0  0  0  0  0  0  0  0
   -7.2672   10.6062  -10.5986 C   0  0  0  0  0  0  0  0  0  0  0  0
   -7.6276    9.7408   -9.5022 C   0  0  0  0  0  0  0  0  0  0  0  0
   -8.2893    8.7195   -9.9713 N   0  0  0  0  0  0  0  0  0  0  0  0
   -8.4361    8.8492  -11.2847 N   0  0  0  0  0  0  0  0  0  0  0  0
   -7.3404    9.8857   -8.0208 C   0  0  0  0  0  0  0  0  0  0  0  0
   -5.4704   14.2158  -13.3316 C   0  0  0  0  0  0  0  0  0  0  0  0
   -4.5218   15.3458  -13.0035 C   0  0  0  0  0  0  0  0  0  0  0  0
   -5.5814   13.4696  -12.1774 N   0  0  3  0  0  0  0  0  0  0  0  0
   -5.9630   10.4847   -7.7359 C   0  0  0  0  0  0  0  0  0  0  0  0
   -5.8538   11.7563   -7.1621 C   0  0  0  0  0  0  0  0  0  0  0  0
   -4.5953   12.3060   -6.9160 C   0  0  0  0  0  0  0  0  0  0  0  0
   -3.4449   11.5852   -7.2379 C   0  0  0  0  0  0  0  0  0  0  0  0
   -3.5560   10.3115   -7.8043 C   0  0  0  0  0  0  0  0  0  0  0  0
   -4.8130    9.7655   -8.0531 C   0  0  0  0  0  0  0  0  0  0  0  0
   -2.0905   12.1634   -6.9778 C   0  0  0  0  0  0  0  0  0  0  0  0
   -1.7398   13.4211   -6.5005 C   0  0  0  0  0  0  0  0  0  0  0  0
   -0.4007   13.4556   -6.4362 N   0  0  0  0  0  0  0  0  0  0  0  0
    0.1858   12.3500   -6.8082 N   0  0  0  0  0  0  0  0  0  0  0  0
   -0.8018   11.5473   -7.1675 C   0  0  0  0  0  0  0  0  0  0  0  0
    0.4333   14.5672   -6.0053 C   0  0  0  0  0  0  0  0  0  0  0  0
   -6.0131   14.0330  -14.4162 O   0  0  0  0  0  0  0  0  0  0  0  0
   -4.6790   13.9767  -11.1295 C   0  0  0  0  0  0  0  0  0  0  0  0
   -4.0830   15.2556  -11.5883 C   0  0  0  0  0  0  0  0  0  0  0  0
   -7.2833   12.9493  -11.8778 H   0  0  0  0  0  0  0  0  0  0  0  0
   -5.5392   11.6037  -10.3400 H   0  0  0  0  0  0  0  0  0  0  0  0
   -7.0511   12.5504  -10.1285 H   0  0  0  0  0  0  0  0  0  0  0  0
   -8.2128   10.0638  -13.8816 H   0  0  0  0  0  0  0  0  0  0  0  0
   -6.8897   12.1539  -14.1098 H   0  0  0  0  0  0  0  0  0  0  0  0
   -8.0363    9.5960   -7.2473 H   0  0  0  0  0  0  0  0  0  0  0  0
   -4.2080   16.1098  -13.6994 H   0  0  0  0  0  0  0  0  0  0  0  0
   -6.7444   12.3126   -6.9096 H   0  0  0  0  0  0  0  0  0  0  0  0
   -4.5117   13.2890   -6.4765 H   0  0  0  0  0  0  0  0  0  0  0  0
   -2.6662    9.7505   -8.0491 H   0  0  0  0  0  0  0  0  0  0  0  0
   -4.8962    8.7826   -8.4928 H   0  0  0  0  0  0  0  0  0  0  0  0
   -2.4169   14.2186   -6.2325 H   0  0  0  0  0  0  0  0  0  0  0  0
   -0.6596   10.5498   -7.5564 H   0  0  0  0  0  0  0  0  0  0  0  0
    1.4925   14.2769   -6.0668 H   0  0  0  0  0  0  0  0  0  0  0  0
    0.2526   15.4350   -6.6567 H   0  0  0  0  0  0  0  0  0  0  0  0
    0.1851   14.8305   -4.9665 H   0  0  0  0  0  0  0  0  0  0  0  0
   -6.5611   13.2584  -14.3700 H   0  0  0  0  0  0  0  0  0  0  0  0
   -5.2469   14.1452  -10.2026 H   0  0  0  0  0  0  0  0  0  0  0  0
   -3.8809   13.2432  -10.9424 H   0  0  0  0  0  0  0  0  0  0  0  0
   -2.9857   15.2276  -11.5166 H   0  0  0  0  0  0  0  0  0  0  0  0
   -4.4673   16.1029  -11.0014 H   0  0  0  0  0  0  0  0  0  0  0  0
  1  2  1  0  0  0  0
  1  4  1  0  0  0  0
  1 13  1  0  0  0  0
  2  6  1  0  0  0  0
  3  4  2  0  0  0  0
  3  5  1  0  0  0  0
  5  6  2  0  0  0  0
  5  9  1  0  0  0  0
  6  7  1  0  0  0  0
  7  8  1  0  0  0  0
  7 10  2  3  0  0  0
  8  9  2  0  0  0  0
 10 14  1  0  0  0  0
 11 12  2  0  0  0  0
 11 13  1  0  0  0  0
 11 26  1  0  0  0  0
 12 28  1  0  0  0  0
 13 27  1  0  0  0  0
 14 15  2  0  0  0  0
 14 19  1  0  0  0  0
 15 16  1  0  0  0  0
 16 17  2  0  0  0  0
 17 18  1  0  0  0  0
 17 20  1  0  0  0  0
 18 19  2  0  0  0  0
 20 21  2  0  0  0  0
 20 24  1  0  0  0  0
 21 22  1  0  0  0  0
 22 23  1  0  0  0  0
 22 25  1  0  0  0  0
 23 24  2  0  0  0  0
 27 28  1  0  0  0  0
  1 29  1  0  0  0  0
  2 30  1  0  0  0  0
  2 31  1  0  0  0  0
  3 32  1  0  0  0  0
  4 33  1  0  0  0  0
 10 34  1  0  0  0  0
 12 35  1  0  0  0  0
 15 36  1  0  0  0  0
 16 37  1  0  0  0  0
 18 38  1  0  0  0  0
 19 39  1  0  0  0  0
 21 40  1  0  0  0  0
 24 41  1  0  0  0  0
 25 42  1  0  0  0  0
 25 43  1  0  0  0  0
 25 44  1  0  0  0  0
 26 45  1  0  0  0  0
 27 46  1  0  0  0  0
 27 47  1  0  0  0  0
 28 48  1  0  0  0  0
 28 49  1  0  0  0  0
M  END
> <Name>
26

> <IC50[uM]>
0.036

$$$$
26
  -OEChem-05192314333D
 Structure written by MMmdl.
 49 53  0     0  0  0  0  0  0999 V2000
   -6.3961   12.3155  -12.0234 C   0  0  0  0  0  0  0  0  0  0  0  0
   -6.5478   11.7864  -10.7392 C   0  0  0  0  0  0  0  0  0  0  0  0
   -7.7431   10.5278  -13.0269 C   0  0  0  0  0  0  0  0  0  0  0  0
   -7.0034   11.6993  -13.1368 C   0  0  0  0  0  0  0  0  0  0  0  0
   -7.8411    9.9886  -11.7443 C   0  0  0  0  0  0  0  0  0  0  0  0
   -7.2672   10.6062  -10.5986 C   0  0  0  0  0  0  0  0  0  0  0  0
   -7.6276    9.7408   -9.5022 C   0  0  0  0  0  0  0  0  0  0  0  0
   -8.2893    8.7195   -9.9713 N   0  0  0  0  0  0  0  0  0  0  0  0
   -8.4361    8.8492  -11.2847 N   0  0  0  0  0  0  0  0  0  0  0  0
   -7.3404    9.8857   -8.0208 C   0  0  0  0  0  0  0  0  0  0  0  0
   -5.4704   14.2158  -13.3316 C   0  0  0  0  0  0  0  0  0  0  0  0
   -4.5218   15.3458  -13.0035 C   0  0  0  0  0  0  0  0  0  0  0  0
   -5.5814   13.4696  -12.1774 N   0  0  0  0  0  0  0  0  0  0  0  0
   -5.9630   10.4847   -7.7359 C   0  0  0  0  0  0  0  0  0  0  0  0
   -5.8538   11.7563   -7.1621 C   0  0  0  0  0  0  0  0  0  0  0  0
   -4.5953   12.3060   -6.9160 C   0  0  0  0  0  0  0  0  0  0  0  0
   -3.4449   11.5852   -7.2379 C   0  0  0  0  0  0  0  0  0  0  0  0
   -3.5560   10.3115   -7.8043 C   0  0  0  0  0  0  0  0  0  0  0  0
   -4.8130    9.7655   -8.0531 C   0  0  0  0  0  0  0  0  0  0  0  0
   -2.0905   12.1634   -6.9778 C   0  0  0  0  0  0  0  0  0  0  0  0
   -1.7398   13.4211   -6.5005 C   0  0  0  0  0  0  0  0  0  0  0  0
   -0.4007   13.4556   -6.4362 N   0  0  0  0  0  0  0  0  0  0  0  0
    0.1858   12.3500   -6.8082 N   0  0  0  0  0  0  0  0  0  0  0  0
   -0.8018   11.5473   -7.1675 C   0  0  0  0  0  0  0  0  0  0  0  0
    0.4333   14.5672   -6.0053 C   0  0  0  0  0  0  0  0  0  0  0  0
   -6.0131   14.0330  -14.4162 O   0  0  0  0  0  0  0  0  0  0  0  0
   -4.6790   13.9767  -11.1295 C   0  0  0  0  0  0  0  0  0  0  0  0
   -4.0830   15.2556  -11.5883 C   0  0  0  0  0  0  0  0  0  0  0  0
   -5.5392   11.6037  -10.3400 H   0  0  0  0  0  0  0  0  0  0  0  0
   -7.0511   12.5504  -10.1285 H   0  0  0  0  0  0  0  0  0  0  0  0
   -8.7624   10.7378  -13.3832 H   0  0  0  0  0  0  0  0  0  0  0  0
   -7.2763    9.7721  -13.6757 H   0  0  0  0  0  0  0  0  0  0  0  0
   -6.8897   12.1539  -14.1098 H   0  0  0  0  0  0  0  0  0  0  0  0
   -8.0363    9.5960   -7.2473 H   0  0  0  0  0  0  0  0  0  0  0  0
   -4.2080   16.1098  -13.6994 H   0  0  0  0  0  0  0  0  0  0  0  0
   -6.7444   12.3126   -6.9096 H   0  0  0  0  0  0  0  0  0  0  0  0
   -4.5117   13.2890   -6.4765 H   0  0  0  0  0  0  0  0  0  0  0  0
   -2.6662    9.7505   -8.0491 H   0  0  0  0  0  0  0  0  0  0  0  0
   -4.8962    8.7826   -8.4928 H   0  0  0  0  0  0  0  0  0  0  0  0
   -2.4169   14.2186   -6.2325 H   0  0  0  0  0  0  0  0  0  0  0  0
   -0.6596   10.5498   -7.5564 H   0  0  0  0  0  0  0  0  0  0  0  0
    1.4925   14.2769   -6.0668 H   0  0  0  0  0  0  0  0  0  0  0  0
    0.2526   15.4350   -6.6567 H   0  0  0  0  0  0  0  0  0  0  0  0
    0.1851   14.8305   -4.9665 H   0  0  0  0  0  0  0  0  0  0  0  0
   -6.5611   13.2584  -14.3700 H   0  0  0  0  0  0  0  0  0  0  0  0
   -5.2469   14.1452  -10.2026 H   0  0  0  0  0  0  0  0  0  0  0  0
   -3.8809   13.2432  -10.9424 H   0  0  0  0  0  0  0  0  0  0  0  0
   -2.9857   15.2276  -11.5166 H   0  0  0  0  0  0  0  0  0  0  0  0
   -4.4673   16.1029  -11.0014 H   0  0  0  0  0  0  0  0  0  0  0  0
  1  2  1  0  0  0  0
  1  4  2  0  0  0  0
  1 13  1  0  0  0  0
  2  6  1  0  0  0  0
  3  4  1  0  0  0  0
  3  5  1  0  0  0  0
  5  6  2  0  0  0  0
  5  9  1  0  0  0  0
  6  7  1  0  0  0  0
  7  8  1  0  0  0  0
  7 10  2  3  0  0  0
  8  9  2  0  0  0  0
 10 14  1  0  0  0  0
 11 12  2  0  0  0  0
 11 13  1  0  0  0  0
 11 26  1  0  0  0  0
 12 28  1  0  0  0  0
 13 27  1  0  0  0  0
 14 15  2  0  0  0  0
 14 19  1  0  0  0  0
 15 16  1  0  0  0  0
 16 17  2  0  0  0  0
 17 18  1  0  0  0  0
 17 20  1  0  0  0  0
 18 19  2  0  0  0  0
 20 21  2  0  0  0  0
 20 24  1  0  0  0  0
 21 22  1  0  0  0  0
 22 23  1  0  0  0  0
 22 25  1  0  0  0  0
 23 24  2  0  0  0  0
 27 28  1  0  0  0  0
  2 29  1  0  0  0  0
  2 30  1  0  0  0  0
  3 31  1  0  0  0  0
  3 32  1  0  0  0  0
  4 33  1  0  0  0  0
 10 34  1  0  0  0  0
 12 35  1  0  0  0  0
 15 36  1  0  0  0  0
 16 37  1  0  0  0  0
 18 38  1  0  0  0  0
 19 39  1  0  0  0  0
 21 40  1  0  0  0  0
 24 41  1  0  0  0  0
 25 42  1  0  0  0  0
 25 43  1  0  0  0  0
 25 44  1  0  0  0  0
 26 45  1  0  0  0  0
 27 46  1  0  0  0  0
 27 47  1  0  0  0  0
 28 48  1  0  0  0  0
 28 49  1  0  0  0  0
M  END
> <Name>
26

> <IC50[uM]>
0.036

$$$$
26
  -OEChem-05192314333D
 Structure written by MMmdl.
 49 53  0     1  0  0  0  0  0999 V2000
   -6.3961   12.3155  -12.0234 C   0  0  0  0  0  0  0  0  0  0  0  0
   -6.5478   11.7864  -10.7392 C   0  0  0  0  0  0  0  0  0  0  0  0
   -7.7431   10.5278  -13.0269 C   0  0  0  0  0  0  0  0  0  0  0  0
   -7.0034   11.6993  -13.1368 C   0  0  0  0  0  0  0  0  0  0  0  0
   -7.8411    9.9886  -11.7443 C   0  0  3  0  0  0  0  0  0  0  0  0
   -7.2672   10.6062  -10.5986 C   0  0  0  0  0  0  0  0  0  0  0  0
   -7.6276    9.7408   -9.5022 C   0  0  0  0  0  0  0  0  0  0  0  0
   -8.2893    8.7195   -9.9713 N   0  0  0  0  0  0  0  0  0  0  0  0
   -8.4361    8.8492  -11.2847 N   0  0  0  0  0  0  0  0  0  0  0  0
   -7.3404    9.8857   -8.0208 C   0  0  0  0  0  0  0  0  0  0  0  0
   -5.4704   14.2158  -13.3316 C   0  0  0  0  0  0  0  0  0  0  0  0
   -4.5218   15.3458  -13.0035 C   0  0  0  0  0  0  0  0  0  0  0  0
   -5.5814   13.4696  -12.1774 N   0  0  0  0  0  0  0  0  0  0  0  0
   -5.9630   10.4847   -7.7359 C   0  0  0  0  0  0  0  0  0  0  0  0
   -5.8538   11.7563   -7.1621 C   0  0  0  0  0  0  0  0  0  0  0  0
   -4.5953   12.3060   -6.9160 C   0  0  0  0  0  0  0  0  0  0  0  0
   -3.4449   11.5852   -7.2379 C   0  0  0  0  0  0  0  0  0  0  0  0
   -3.5560   10.3115   -7.8043 C   0  0  0  0  0  0  0  0  0  0  0  0
   -4.8130    9.7655   -8.0531 C   0  0  0  0  0  0  0  0  0  0  0  0
   -2.0905   12.1634   -6.9778 C   0  0  0  0  0  0  0  0  0  0  0  0
   -1.7398   13.4211   -6.5005 C   0  0  0  0  0  0  0  0  0  0  0  0
   -0.4007   13.4556   -6.4362 N   0  0  0  0  0  0  0  0  0  0  0  0
    0.1858   12.3500   -6.8082 N   0  0  0  0  0  0  0  0  0  0  0  0
   -0.8018   11.5473   -7.1675 C   0  0  0  0  0  0  0  0  0  0  0  0
    0.4333   14.5672   -6.0053 C   0  0  0  0  0  0  0  0  0  0  0  0
   -6.0131   14.0330  -14.4162 O   0  0  0  0  0  0  0  0  0  0  0  0
   -4.6790   13.9767  -11.1295 C   0  0  0  0  0  0  0  0  0  0  0  0
   -4.0830   15.2556  -11.5883 C   0  0  0  0  0  0  0  0  0  0  0  0
   -6.1181   12.2807   -9.8804 H   0  0  0  0  0  0  0  0  0  0  0  0
   -8.2128   10.0638  -13.8816 H   0  0  0  0  0  0  0  0  0  0  0  0
   -6.8897   12.1539  -14.1098 H   0  0  0  0  0  0  0  0  0  0  0  0
   -8.7752   10.5456  -11.5792 H   0  0  0  0  0  0  0  0  0  0  0  0
   -8.1057   10.5398   -7.5776 H   0  0  0  0  0  0  0  0  0  0  0  0
   -7.3935    8.8909   -7.5544 H   0  0  0  0  0  0  0  0  0  0  0  0
   -4.2080   16.1098  -13.6994 H   0  0  0  0  0  0  0  0  0  0  0  0
   -6.7444   12.3126   -6.9096 H   0  0  0  0  0  0  0  0  0  0  0  0
   -4.5117   13.2890   -6.4765 H   0  0  0  0  0  0  0  0  0  0  0  0
   -2.6662    9.7505   -8.0491 H   0  0  0  0  0  0  0  0  0  0  0  0
   -4.8962    8.7826   -8.4928 H   0  0  0  0  0  0  0  0  0  0  0  0
   -2.4169   14.2186   -6.2325 H   0  0  0  0  0  0  0  0  0  0  0  0
   -0.6596   10.5498   -7.5564 H   0  0  0  0  0  0  0  0  0  0  0  0
    1.4925   14.2769   -6.0668 H   0  0  0  0  0  0  0  0  0  0  0  0
    0.2526   15.4350   -6.6567 H   0  0  0  0  0  0  0  0  0  0  0  0
    0.1851   14.8305   -4.9665 H   0  0  0  0  0  0  0  0  0  0  0  0
   -6.5611   13.2584  -14.3700 H   0  0  0  0  0  0  0  0  0  0  0  0
   -5.2469   14.1452  -10.2026 H   0  0  0  0  0  0  0  0  0  0  0  0
   -3.8809   13.2432  -10.9424 H   0  0  0  0  0  0  0  0  0  0  0  0
   -2.9857   15.2276  -11.5166 H   0  0  0  0  0  0  0  0  0  0  0  0
   -4.4673   16.1029  -11.0014 H   0  0  0  0  0  0  0  0  0  0  0  0
  1  2  2  0  0  0  0
  1  4  1  0  0  0  0
  1 13  1  0  0  0  0
  2  6  1  0  0  0  0
  3  4  2  0  0  0  0
  3  5  1  0  0  0  0
  5  6  1  0  0  0  0
  5  9  1  0  0  0  0
  6  7  2  0  0  0  0
  7  8  1  0  0  0  0
  7 10  1  0  0  0  0
  8  9  2  0  0  0  0
 10 14  1  0  0  0  0
 11 12  2  0  0  0  0
 11 13  1  0  0  0  0
 11 26  1  0  0  0  0
 12 28  1  0  0  0  0
 13 27  1  0  0  0  0
 14 15  2  0  0  0  0
 14 19  1  0  0  0  0
 15 16  1  0  0  0  0
 16 17  2  0  0  0  0
 17 18  1  0  0  0  0
 17 20  1  0  0  0  0
 18 19  2  0  0  0  0
 20 21  2  0  0  0  0
 20 24  1  0  0  0  0
 21 22  1  0  0  0  0
 22 23  1  0  0  0  0
 22 25  1  0  0  0  0
 23 24  2  0  0  0  0
 27 28  1  0  0  0  0
  2 29  1  0  0  0  0
  3 30  1  0  0  0  0
  4 31  1  0  0  0  0
  5 32  1  0  0  0  0
 10 33  1  0  0  0  0
 10 34  1  0  0  0  0
 12 35  1  0  0  0  0
 15 36  1  0  0  0  0
 16 37  1  0  0  0  0
 18 38  1  0  0  0  0
 19 39  1  0  0  0  0
 21 40  1  0  0  0  0
 24 41  1  0  0  0  0
 25 42  1  0  0  0  0
 25 43  1  0  0  0  0
 25 44  1  0  0  0  0
 26 45  1  0  0  0  0
 27 46  1  0  0  0  0
 27 47  1  0  0  0  0
 28 48  1  0  0  0  0
 28 49  1  0  0  0  0
M  END
> <Name>
26

> <IC50[uM]>
0.036

$$$$
26
  -OEChem-05192314333D
 Structure written by MMmdl.
 49 53  0     0  0  0  0  0  0999 V2000
   -6.3961   12.3155  -12.0234 C   0  0  0  0  0  0  0  0  0  0  0  0
   -6.5478   11.7864  -10.7392 C   0  0  0  0  0  0  0  0  0  0  0  0
   -7.7431   10.5278  -13.0269 C   0  0  0  0  0  0  0  0  0  0  0  0
   -7.0034   11.6993  -13.1368 C   0  0  0  0  0  0  0  0  0  0  0  0
   -7.8411    9.9886  -11.7443 C   0  0  0  0  0  0  0  0  0  0  0  0
   -7.2672   10.6062  -10.5986 C   0  0  0  0  0  0  0  0  0  0  0  0
   -7.6276    9.7408   -9.5022 C   0  0  0  0  0  0  0  0  0  0  0  0
   -8.2893    8.7195   -9.9713 N   0  0  0  0  0  0  0  0  0  0  0  0
   -8.4361    8.8492  -11.2847 N   0  0  0  0  0  0  0  0  0  0  0  0
   -7.3404    9.8857   -8.0208 C   0  0  0  0  0  0  0  0  0  0  0  0
   -5.4704   14.2158  -13.3316 C   0  0  0  0  0  0  0  0  0  0  0  0
   -4.5218   15.3458  -13.0035 C   0  0  0  0  0  0  0  0  0  0  0  0
   -5.5814   13.4696  -12.1774 N   0  0  0  0  0  0  0  0  0  0  0  0
   -5.9630   10.4847   -7.7359 C   0  0  0  0  0  0  0  0  0  0  0  0
   -5.8538   11.7563   -7.1621 C   0  0  0  0  0  0  0  0  0  0  0  0
   -4.5953   12.3060   -6.9160 C   0  0  0  0  0  0  0  0  0  0  0  0
   -3.4449   11.5852   -7.2379 C   0  0  0  0  0  0  0  0  0  0  0  0
   -3.5560   10.3115   -7.8043 C   0  0  0  0  0  0  0  0  0  0  0  0
   -4.8130    9.7655   -8.0531 C   0  0  0  0  0  0  0  0  0  0  0  0
   -2.0905   12.1634   -6.9778 C   0  0  0  0  0  0  0  0  0  0  0  0
   -1.7398   13.4211   -6.5005 C   0  0  0  0  0  0  0  0  0  0  0  0
   -0.4007   13.4556   -6.4362 N   0  0  0  0  0  0  0  0  0  0  0  0
    0.1858   12.3500   -6.8082 N   0  0  0  0  0  0  0  0  0  0  0  0
   -0.8018   11.5473   -7.1675 C   0  0  0  0  0  0  0  0  0  0  0  0
    0.4333   14.5672   -6.0053 C   0  0  0  0  0  0  0  0  0  0  0  0
   -6.0131   14.0330  -14.4162 O   0  0  0  0  0  0  0  0  0  0  0  0
   -4.6790   13.9767  -11.1295 C   0  0  0  0  0  0  0  0  0  0  0  0
   -4.0830   15.2556  -11.5883 C   0  0  0  0  0  0  0  0  0  0  0  0
   -6.1181   12.2807   -9.8804 H   0  0  0  0  0  0  0  0  0  0  0  0
   -8.2128   10.0638  -13.8816 H   0  0  0  0  0  0  0  0  0  0  0  0
   -7.6809   12.4497  -13.5703 H   0  0  0  0  0  0  0  0  0  0  0  0
   -6.1921   11.4836  -13.8477 H   0  0  0  0  0  0  0  0  0  0  0  0
   -8.1057   10.5398   -7.5776 H   0  0  0  0  0  0  0  0  0  0  0  0
   -7.3935    8.8909   -7.5544 H   0  0  0  0  0  0  0  0  0  0  0  0
   -4.2080   16.1098  -13.6994 H   0  0  0  0  0  0  0  0  0  0  0  0
   -6.7444   12.3126   -6.9096 H   0  0  0  0  0  0  0  0  0  0  0  0
   -4.5117   13.2890   -6.4765 H   0  0  0  0  0  0  0  0  0  0  0  0
   -2.6662    9.7505   -8.0491 H   0  0  0  0  0  0  0  0  0  0  0  0
   -4.8962    8.7826   -8.4928 H   0  0  0  0  0  0  0  0  0  0  0  0
   -2.4169   14.2186   -6.2325 H   0  0  0  0  0  0  0  0  0  0  0  0
   -0.6596   10.5498   -7.5564 H   0  0  0  0  0  0  0  0  0  0  0  0
    1.4925   14.2769   -6.0668 H   0  0  0  0  0  0  0  0  0  0  0  0
    0.2526   15.4350   -6.6567 H   0  0  0  0  0  0  0  0  0  0  0  0
    0.1851   14.8305   -4.9665 H   0  0  0  0  0  0  0  0  0  0  0  0
   -6.5611   13.2584  -14.3700 H   0  0  0  0  0  0  0  0  0  0  0  0
   -5.2469   14.1452  -10.2026 H   0  0  0  0  0  0  0  0  0  0  0  0
   -3.8809   13.2432  -10.9424 H   0  0  0  0  0  0  0  0  0  0  0  0
   -2.9857   15.2276  -11.5166 H   0  0  0  0  0  0  0  0  0  0  0  0
   -4.4673   16.1029  -11.0014 H   0  0  0  0  0  0  0  0  0  0  0  0
  1  2  2  0  0  0  0
  1  4  1  0  0  0  0
  1 13  1  0  0  0  0
  2  6  1  0  0  0  0
  3  4  1  0  0  0  0
  3  5  2  0  0  0  0
  5  6  1  0  0  0  0
  5  9  1  0  0  0  0
  6  7  2  0  0  0  0
  7  8  1  0  0  0  0
  7 10  1  0  0  0  0
  8  9  2  0  0  0  0
 10 14  1  0  0  0  0
 11 12  2  0  0  0  0
 11 13  1  0  0  0  0
 11 26  1  0  0  0  0
 12 28  1  0  0  0  0
 13 27  1  0  0  0  0
 14 15  2  0  0  0  0
 14 19  1  0  0  0  0
 15 16  1  0  0  0  0
 16 17  2  0  0  0  0
 17 18  1  0  0  0  0
 17 20  1  0  0  0  0
 18 19  2  0  0  0  0
 20 21  2  0  0  0  0
 20 24  1  0  0  0  0
 21 22  1  0  0  0  0
 22 23  1  0  0  0  0
 22 25  1  0  0  0  0
 23 24  2  0  0  0  0
 27 28  1  0  0  0  0
  2 29  1  0  0  0  0
  3 30  1  0  0  0  0
  4 31  1  0  0  0  0
  4 32  1  0  0  0  0
 10 33  1  0  0  0  0
 10 34  1  0  0  0  0
 12 35  1  0  0  0  0
 15 36  1  0  0  0  0
 16 37  1  0  0  0  0
 18 38  1  0  0  0  0
 19 39  1  0  0  0  0
 21 40  1  0  0  0  0
 24 41  1  0  0  0  0
 25 42  1  0  0  0  0
 25 43  1  0  0  0  0
 25 44  1  0  0  0  0
 26 45  1  0  0  0  0
 27 46  1  0  0  0  0
 27 47  1  0  0  0  0
 28 48  1  0  0  0  0
 28 49  1  0  0  0  0
M  END
> <Name>
26

> <IC50[uM]>
0.036

$$$$
26
  -OEChem-05192314333D
 Structure written by MMmdl.
 49 53  0     0  0  0  0  0  0999 V2000
   -6.3961   12.3155  -12.0234 C   0  0  0  0  0  0  0  0  0  0  0  0
   -6.5478   11.7864  -10.7392 C   0  0  0  0  0  0  0  0  0  0  0  0
   -7.7431   10.5278  -13.0269 C   0  0  0  0  0  0  0  0  0  0  0  0
   -7.0034   11.6993  -13.1368 C   0  0  0  0  0  0  0  0  0  0  0  0
   -7.8411    9.9886  -11.7443 C   0  0  0  0  0  0  0  0  0  0  0  0
   -7.2672   10.6062  -10.5986 C   0  0  0  0  0  0  0  0  0  0  0  0
   -7.6276    9.7408   -9.5022 C   0  0  0  0  0  0  0  0  0  0  0  0
   -8.2893    8.7195   -9.9713 N   0  0  0  0  0  0  0  0  0  0  0  0
   -8.4361    8.8492  -11.2847 N   0  0  0  0  0  0  0  0  0  0  0  0
   -7.3404    9.8857   -8.0208 C   0  0  0  0  0  0  0  0  0  0  0  0
   -5.4704   14.2158  -13.3316 C   0  0  0  0  0  0  0  0  0  0  0  0
   -4.5218   15.3458  -13.0035 C   0  0  0  0  0  0  0  0  0  0  0  0
   -5.5814   13.4696  -12.1774 N   0  0  0  0  0  0  0  0  0  0  0  0
   -5.9630   10.4847   -7.7359 C   0  0  0  0  0  0  0  0  0  0  0  0
   -5.8538   11.7563   -7.1621 C   0  0  0  0  0  0  0  0  0  0  0  0
   -4.5953   12.3060   -6.9160 C   0  0  0  0  0  0  0  0  0  0  0  0
   -3.4449   11.5852   -7.2379 C   0  0  0  0  0  0  0  0  0  0  0  0
   -3.5560   10.3115   -7.8043 C   0  0  0  0  0  0  0  0  0  0  0  0
   -4.8130    9.7655   -8.0531 C   0  0  0  0  0  0  0  0  0  0  0  0
   -2.0905   12.1634   -6.9778 C   0  0  0  0  0  0  0  0  0  0  0  0
   -1.7398   13.4211   -6.5005 C   0  0  0  0  0  0  0  0  0  0  0  0
   -0.4007   13.4556   -6.4362 N   0  0  0  0  0  0  0  0  0  0  0  0
    0.1858   12.3500   -6.8082 N   0  0  0  0  0  0  0  0  0  0  0  0
   -0.8018   11.5473   -7.1675 C   0  0  0  0  0  0  0  0  0  0  0  0
    0.4333   14.5672   -6.0053 C   0  0  0  0  0  0  0  0  0  0  0  0
   -6.0131   14.0330  -14.4162 O   0  0  0  0  0  0  0  0  0  0  0  0
   -4.6790   13.9767  -11.1295 C   0  0  0  0  0  0  0  0  0  0  0  0
   -4.0830   15.2556  -11.5883 C   0  0  0  0  0  0  0  0  0  0  0  0
   -5.5392   11.6037  -10.3400 H   0  0  0  0  0  0  0  0  0  0  0  0
   -7.0511   12.5504  -10.1285 H   0  0  0  0  0  0  0  0  0  0  0  0
   -8.2128   10.0638  -13.8816 H   0  0  0  0  0  0  0  0  0  0  0  0
   -6.8897   12.1539  -14.1098 H   0  0  0  0  0  0  0  0  0  0  0  0
   -8.1057   10.5398   -7.5776 H   0  0  0  0  0  0  0  0  0  0  0  0
   -7.3935    8.8909   -7.5544 H   0  0  0  0  0  0  0  0  0  0  0  0
   -4.2080   16.1098  -13.6994 H   0  0  0  0  0  0  0  0  0  0  0  0
   -6.7444   12.3126   -6.9096 H   0  0  0  0  0  0  0  0  0  0  0  0
   -4.5117   13.2890   -6.4765 H   0  0  0  0  0  0  0  0  0  0  0  0
   -2.6662    9.7505   -8.0491 H   0  0  0  0  0  0  0  0  0  0  0  0
   -4.8962    8.7826   -8.4928 H   0  0  0  0  0  0  0  0  0  0  0  0
   -2.4169   14.2186   -6.2325 H   0  0  0  0  0  0  0  0  0  0  0  0
   -0.6596   10.5498   -7.5564 H   0  0  0  0  0  0  0  0  0  0  0  0
    1.4925   14.2769   -6.0668 H   0  0  0  0  0  0  0  0  0  0  0  0
    0.2526   15.4350   -6.6567 H   0  0  0  0  0  0  0  0  0  0  0  0
    0.1851   14.8305   -4.9665 H   0  0  0  0  0  0  0  0  0  0  0  0
   -6.5611   13.2584  -14.3700 H   0  0  0  0  0  0  0  0  0  0  0  0
   -5.2469   14.1452  -10.2026 H   0  0  0  0  0  0  0  0  0  0  0  0
   -3.8809   13.2432  -10.9424 H   0  0  0  0  0  0  0  0  0  0  0  0
   -2.9857   15.2276  -11.5166 H   0  0  0  0  0  0  0  0  0  0  0  0
   -4.4673   16.1029  -11.0014 H   0  0  0  0  0  0  0  0  0  0  0  0
  1  2  1  0  0  0  0
  1  4  2  0  0  0  0
  1 13  1  0  0  0  0
  2  6  1  0  0  0  0
  3  4  1  0  0  0  0
  3  5  2  0  0  0  0
  5  6  1  0  0  0  0
  5  9  1  0  0  0  0
  6  7  2  0  0  0  0
  7  8  1  0  0  0  0
  7 10  1  0  0  0  0
  8  9  2  0  0  0  0
 10 14  1  0  0  0  0
 11 12  2  0  0  0  0
 11 13  1  0  0  0  0
 11 26  1  0  0  0  0
 12 28  1  0  0  0  0
 13 27  1  0  0  0  0
 14 15  2  0  0  0  0
 14 19  1  0  0  0  0
 15 16  1  0  0  0  0
 16 17  2  0  0  0  0
 17 18  1  0  0  0  0
 17 20  1  0  0  0  0
 18 19  2  0  0  0  0
 20 21  2  0  0  0  0
 20 24  1  0  0  0  0
 21 22  1  0  0  0  0
 22 23  1  0  0  0  0
 22 25  1  0  0  0  0
 23 24  2  0  0  0  0
 27 28  1  0  0  0  0
  2 29  1  0  0  0  0
  2 30  1  0  0  0  0
  3 31  1  0  0  0  0
  4 32  1  0  0  0  0
 10 33  1  0  0  0  0
 10 34  1  0  0  0  0
 12 35  1  0  0  0  0
 15 36  1  0  0  0  0
 16 37  1  0  0  0  0
 18 38  1  0  0  0  0
 19 39  1  0  0  0  0
 21 40  1  0  0  0  0
 24 41  1  0  0  0  0
 25 42  1  0  0  0  0
 25 43  1  0  0  0  0
 25 44  1  0  0  0  0
 26 45  1  0  0  0  0
 27 46  1  0  0  0  0
 27 47  1  0  0  0  0
 28 48  1  0  0  0  0
 28 49  1  0  0  0  0
M  END
> <Name>
26

> <IC50[uM]>
0.036

$$$$
26
  -OEChem-05192314333D
 Structure written by MMmdl.
 49 53  0     1  0  0  0  0  0999 V2000
   -6.3961   12.3155  -12.0234 C   0  0  0  0  0  0  0  0  0  0  0  0
   -6.5478   11.7864  -10.7392 C   0  0  0  0  0  0  0  0  0  0  0  0
   -7.7431   10.5278  -13.0269 C   0  0  0  0  0  0  0  0  0  0  0  0
   -7.0034   11.6993  -13.1368 C   0  0  0  0  0  0  0  0  0  0  0  0
   -7.8411    9.9886  -11.7443 C   0  0  0  0  0  0  0  0  0  0  0  0
   -7.2672   10.6062  -10.5986 C   0  0  3  0  0  0  0  0  0  0  0  0
   -7.6276    9.7408   -9.5022 C   0  0  0  0  0  0  0  0  0  0  0  0
   -8.2893    8.7195   -9.9713 N   0  0  0  0  0  0  0  0  0  0  0  0
   -8.4361    8.8492  -11.2847 N   0  0  0  0  0  0  0  0  0  0  0  0
   -7.3404    9.8857   -8.0208 C   0  0  0  0  0  0  0  0  0  0  0  0
   -5.4704   14.2158  -13.3316 C   0  0  0  0  0  0  0  0  0  0  0  0
   -4.5218   15.3458  -13.0035 C   0  0  0  0  0  0  0  0  0  0  0  0
   -5.5814   13.4696  -12.1774 N   0  0  0  0  0  0  0  0  0  0  0  0
   -5.9630   10.4847   -7.7359 C   0  0  0  0  0  0  0  0  0  0  0  0
   -5.8538   11.7563   -7.1621 C   0  0  0  0  0  0  0  0  0  0  0  0
   -4.5953   12.3060   -6.9160 C   0  0  0  0  0  0  0  0  0  0  0  0
   -3.4449   11.5852   -7.2379 C   0  0  0  0  0  0  0  0  0  0  0  0
   -3.5560   10.3115   -7.8043 C   0  0  0  0  0  0  0  0  0  0  0  0
   -4.8130    9.7655   -8.0531 C   0  0  0  0  0  0  0  0  0  0  0  0
   -2.0905   12.1634   -6.9778 C   0  0  0  0  0  0  0  0  0  0  0  0
   -1.7398   13.4211   -6.5005 C   0  0  0  0  0  0  0  0  0  0  0  0
   -0.4007   13.4556   -6.4362 N   0  0  0  0  0  0  0  0  0  0  0  0
    0.1858   12.3500   -6.8082 N   0  0  0  0  0  0  0  0  0  0  0  0
   -0.8018   11.5473   -7.1675 C   0  0  0  0  0  0  0  0  0  0  0  0
    0.4333   14.5672   -6.0053 C   0  0  0  0  0  0  0  0  0  0  0  0
   -6.0131   14.0330  -14.4162 O   0  0  0  0  0  0  0  0  0  0  0  0
   -4.6790   13.9767  -11.1295 C   0  0  0  0  0  0  0  0  0  0  0  0
   -4.0830   15.2556  -11.5883 C   0  0  0  0  0  0  0  0  0  0  0  0
   -6.1181   12.2807   -9.8804 H   0  0  0  0  0  0  0  0  0  0  0  0
   -8.2128   10.0638  -13.8816 H   0  0  0  0  0  0  0  0  0  0  0  0
   -6.8897   12.1539  -14.1098 H   0  0  0  0  0  0  0  0  0  0  0  0
   -8.1901   11.1852  -10.4467 H   0  0  0  0  0  0  0  0  0  0  0  0
   -8.6335    7.9556   -9.4254 H   0  0  0  0  0  0  0  0  0  0  0  0
   -8.0363    9.5960   -7.2473 H   0  0  0  0  0  0  0  0  0  0  0  0
   -4.2080   16.1098  -13.6994 H   0  0  0  0  0  0  0  0  0  0  0  0
   -6.7444   12.3126   -6.9096 H   0  0  0  0  0  0  0  0  0  0  0  0
   -4.5117   13.2890   -6.4765 H   0  0  0  0  0  0  0  0  0  0  0  0
   -2.6662    9.7505   -8.0491 H   0  0  0  0  0  0  0  0  0  0  0  0
   -4.8962    8.7826   -8.4928 H   0  0  0  0  0  0  0  0  0  0  0  0
   -2.4169   14.2186   -6.2325 H   0  0  0  0  0  0  0  0  0  0  0  0
   -0.6596   10.5498   -7.5564 H   0  0  0  0  0  0  0  0  0  0  0  0
    1.4925   14.2769   -6.0668 H   0  0  0  0  0  0  0  0  0  0  0  0
    0.2526   15.4350   -6.6567 H   0  0  0  0  0  0  0  0  0  0  0  0
    0.1851   14.8305   -4.9665 H   0  0  0  0  0  0  0  0  0  0  0  0
   -6.5611   13.2584  -14.3700 H   0  0  0  0  0  0  0  0  0  0  0  0
   -5.2469   14.1452  -10.2026 H   0  0  0  0  0  0  0  0  0  0  0  0
   -3.8809   13.2432  -10.9424 H   0  0  0  0  0  0  0  0  0  0  0  0
   -2.9857   15.2276  -11.5166 H   0  0  0  0  0  0  0  0  0  0  0  0
   -4.4673   16.1029  -11.0014 H   0  0  0  0  0  0  0  0  0  0  0  0
  1  2  2  0  0  0  0
  1  4  1  0  0  0  0
  1 13  1  0  0  0  0
  2  6  1  0  0  0  0
  3  4  2  0  0  0  0
  3  5  1  0  0  0  0
  5  6  1  0  0  0  0
  5  9  2  0  0  0  0
  6  7  1  0  0  0  0
  7  8  1  0  0  0  0
  7 10  2  3  0  0  0
  8  9  1  0  0  0  0
 10 14  1  0  0  0  0
 11 12  2  0  0  0  0
 11 13  1  0  0  0  0
 11 26  1  0  0  0  0
 12 28  1  0  0  0  0
 13 27  1  0  0  0  0
 14 15  2  0  0  0  0
 14 19  1  0  0  0  0
 15 16  1  0  0  0  0
 16 17  2  0  0  0  0
 17 18  1  0  0  0  0
 17 20  1  0  0  0  0
 18 19  2  0  0  0  0
 20 21  2  0  0  0  0
 20 24  1  0  0  0  0
 21 22  1  0  0  0  0
 22 23  1  0  0  0  0
 22 25  1  0  0  0  0
 23 24  2  0  0  0  0
 27 28  1  0  0  0  0
  2 29  1  0  0  0  0
  3 30  1  0  0  0  0
  4 31  1  0  0  0  0
  6 32  1  0  0  0  0
  8 33  1  0  0  0  0
 10 34  1  0  0  0  0
 12 35  1  0  0  0  0
 15 36  1  0  0  0  0
 16 37  1  0  0  0  0
 18 38  1  0  0  0  0
 19 39  1  0  0  0  0
 21 40  1  0  0  0  0
 24 41  1  0  0  0  0
 25 42  1  0  0  0  0
 25 43  1  0  0  0  0
 25 44  1  0  0  0  0
 26 45  1  0  0  0  0
 27 46  1  0  0  0  0
 27 47  1  0  0  0  0
 28 48  1  0  0  0  0
 28 49  1  0  0  0  0
M  END
> <Name>
26

> <IC50[uM]>
0.036

$$$$
26
  -OEChem-05192314333D
 Structure written by MMmdl.
 49 53  0     1  0  0  0  0  0999 V2000
   -6.3961   12.3155  -12.0234 C   0  0  0  0  0  0  0  0  0  0  0  0
   -6.5478   11.7864  -10.7392 C   0  0  0  0  0  0  0  0  0  0  0  0
   -7.7431   10.5278  -13.0269 C   0  0  0  0  0  0  0  0  0  0  0  0
   -7.0034   11.6993  -13.1368 C   0  0  0  0  0  0  0  0  0  0  0  0
   -7.8411    9.9886  -11.7443 C   0  0  0  0  0  0  0  0  0  0  0  0
   -7.2672   10.6062  -10.5986 C   0  0  0  0  0  0  0  0  0  0  0  0
   -7.6276    9.7408   -9.5022 C   0  0  0  0  0  0  0  0  0  0  0  0
   -8.2893    8.7195   -9.9713 N   0  0  0  0  0  0  0  0  0  0  0  0
   -8.4361    8.8492  -11.2847 N   0  0  0  0  0  0  0  0  0  0  0  0
   -7.3404    9.8857   -8.0208 C   0  0  0  0  0  0  0  0  0  0  0  0
   -5.4704   14.2158  -13.3316 C   0  0  0  0  0  0  0  0  0  0  0  0
   -4.5218   15.3458  -13.0035 C   0  0  0  0  0  0  0  0  0  0  0  0
   -5.5814   13.4696  -12.1774 N   0  0  0  0  0  0  0  0  0  0  0  0
   -5.9630   10.4847   -7.7359 C   0  0  0  0  0  0  0  0  0  0  0  0
   -5.8538   11.7563   -7.1621 C   0  0  0  0  0  0  0  0  0  0  0  0
   -4.5953   12.3060   -6.9160 C   0  0  0  0  0  0  0  0  0  0  0  0
   -3.4449   11.5852   -7.2379 C   0  0  0  0  0  0  0  0  0  0  0  0
   -3.5560   10.3115   -7.8043 C   0  0  0  0  0  0  0  0  0  0  0  0
   -4.8130    9.7655   -8.0531 C   0  0  0  0  0  0  0  0  0  0  0  0
   -2.0905   12.1634   -6.9778 C   0  0  0  0  0  0  0  0  0  0  0  0
   -1.7398   13.4211   -6.5005 C   0  0  0  0  0  0  0  0  0  0  0  0
   -0.4007   13.4556   -6.4362 N   0  0  3  0  0  0  0  0  0  0  0  0
    0.1858   12.3500   -6.8082 N   0  0  0  0  0  0  0  0  0  0  0  0
   -0.8018   11.5473   -7.1675 C   0  0  0  0  0  0  0  0  0  0  0  0
    0.4333   14.5672   -6.0053 C   0  0  0  0  0  0  0  0  0  0  0  0
   -6.0131   14.0330  -14.4162 O   0  0  0  0  0  0  0  0  0  0  0  0
   -4.6790   13.9767  -11.1295 C   0  0  0  0  0  0  0  0  0  0  0  0
   -4.0830   15.2556  -11.5883 C   0  0  0  0  0  0  0  0  0  0  0  0
   -6.1181   12.2807   -9.8804 H   0  0  0  0  0  0  0  0  0  0  0  0
   -8.2128   10.0638  -13.8816 H   0  0  0  0  0  0  0  0  0  0  0  0
   -6.8897   12.1539  -14.1098 H   0  0  0  0  0  0  0  0  0  0  0  0
   -8.0363    9.5960   -7.2473 H   0  0  0  0  0  0  0  0  0  0  0  0
   -4.2080   16.1098  -13.6994 H   0  0  0  0  0  0  0  0  0  0  0  0
   -5.9717   10.0315   -6.7336 H   0  0  0  0  0  0  0  0  0  0  0  0
   -6.7444   12.3126   -6.9096 H   0  0  0  0  0  0  0  0  0  0  0  0
   -4.5117   13.2890   -6.4765 H   0  0  0  0  0  0  0  0  0  0  0  0
   -2.6662    9.7505   -8.0491 H   0  0  0  0  0  0  0  0  0  0  0  0
   -4.8962    8.7826   -8.4928 H   0  0  0  0  0  0  0  0  0  0  0  0
   -2.1055   14.2006   -7.1850 H   0  0  0  0  0  0  0  0  0  0  0  0
   -2.1704   13.5795   -5.5008 H   0  0  0  0  0  0  0  0  0  0  0  0
   -0.6596   10.5498   -7.5564 H   0  0  0  0  0  0  0  0  0  0  0  0
    1.4925   14.2769   -6.0668 H   0  0  0  0  0  0  0  0  0  0  0  0
    0.2526   15.4350   -6.6567 H   0  0  0  0  0  0  0  0  0  0  0  0
    0.1851   14.8305   -4.9665 H   0  0  0  0  0  0  0  0  0  0  0  0
   -6.5611   13.2584  -14.3700 H   0  0  0  0  0  0  0  0  0  0  0  0
   -5.2469   14.1452  -10.2026 H   0  0  0  0  0  0  0  0  0  0  0  0
   -3.8809   13.2432  -10.9424 H   0  0  0  0  0  0  0  0  0  0  0  0
   -2.9857   15.2276  -11.5166 H   0  0  0  0  0  0  0  0  0  0  0  0
   -4.4673   16.1029  -11.0014 H   0  0  0  0  0  0  0  0  0  0  0  0
  1  2  2  0  0  0  0
  1  4  1  0  0  0  0
  1 13  1  0  0  0  0
  2  6  1  0  0  0  0
  3  4  2  0  0  0  0
  3  5  1  0  0  0  0
  5  6  2  0  0  0  0
  5  9  1  0  0  0  0
  6  7  1  0  0  0  0
  7  8  1  0  0  0  0
  7 10  2  3  0  0  0
  8  9  2  0  0  0  0
 10 14  1  0  0  0  0
 11 12  2  0  0  0  0
 11 13  1  0  0  0  0
 11 26  1  0  0  0  0
 12 28  1  0  0  0  0
 13 27  1  0  0  0  0
 14 15  1  0  0  0  0
 14 19  1  0  0  0  0
 15 16  2  0  0  0  0
 16 17  1  0  0  0  0
 17 18  1  0  0  0  0
 17 20  2  0  0  0  0
 18 19  2  0  0  0  0
 20 21  1  0  0  0  0
 20 24  1  0  0  0  0
 21 22  1  0  0  0  0
 22 23  1  0  0  0  0
 22 25  1  0  0  0  0
 23 24  2  0  0  0  0
 27 28  1  0  0  0  0
  2 29  1  0  0  0  0
  3 30  1  0  0  0  0
  4 31  1  0  0  0  0
 10 32  1  0  0  0  0
 12 33  1  0  0  0  0
 14 34  1  0  0  0  0
 15 35  1  0  0  0  0
 16 36  1  0  0  0  0
 18 37  1  0  0  0  0
 19 38  1  0  0  0  0
 21 39  1  0  0  0  0
 21 40  1  0  0  0  0
 24 41  1  0  0  0  0
 25 42  1  0  0  0  0
 25 43  1  0  0  0  0
 25 44  1  0  0  0  0
 26 45  1  0  0  0  0
 27 46  1  0  0  0  0
 27 47  1  0  0  0  0
 28 48  1  0  0  0  0
 28 49  1  0  0  0  0
M  END
> <Name>
26

> <IC50[uM]>
0.036

$$$$
26
  -OEChem-05192314333D
 Structure written by MMmdl.
 49 53  0     1  0  0  0  0  0999 V2000
   -6.3961   12.3155  -12.0234 C   0  0  0  0  0  0  0  0  0  0  0  0
   -6.5478   11.7864  -10.7392 C   0  0  0  0  0  0  0  0  0  0  0  0
   -7.7431   10.5278  -13.0269 C   0  0  0  0  0  0  0  0  0  0  0  0
   -7.0034   11.6993  -13.1368 C   0  0  0  0  0  0  0  0  0  0  0  0
   -7.8411    9.9886  -11.7443 C   0  0  0  0  0  0  0  0  0  0  0  0
   -7.2672   10.6062  -10.5986 C   0  0  0  0  0  0  0  0  0  0  0  0
   -7.6276    9.7408   -9.5022 C   0  0  0  0  0  0  0  0  0  0  0  0
   -8.2893    8.7195   -9.9713 N   0  0  0  0  0  0  0  0  0  0  0  0
   -8.4361    8.8492  -11.2847 N   0  0  0  0  0  0  0  0  0  0  0  0
   -7.3404    9.8857   -8.0208 C   0  0  0  0  0  0  0  0  0  0  0  0
   -5.4704   14.2158  -13.3316 C   0  0  0  0  0  0  0  0  0  0  0  0
   -4.5218   15.3458  -13.0035 C   0  0  0  0  0  0  0  0  0  0  0  0
   -5.5814   13.4696  -12.1774 N   0  0  0  0  0  0  0  0  0  0  0  0
   -5.9630   10.4847   -7.7359 C   0  0  0  0  0  0  0  0  0  0  0  0
   -5.8538   11.7563   -7.1621 C   0  0  0  0  0  0  0  0  0  0  0  0
   -4.5953   12.3060   -6.9160 C   0  0  0  0  0  0  0  0  0  0  0  0
   -3.4449   11.5852   -7.2379 C   0  0  0  0  0  0  0  0  0  0  0  0
   -3.5560   10.3115   -7.8043 C   0  0  0  0  0  0  0  0  0  0  0  0
   -4.8130    9.7655   -8.0531 C   0  0  0  0  0  0  0  0  0  0  0  0
   -2.0905   12.1634   -6.9778 C   0  0  0  0  0  0  0  0  0  0  0  0
   -1.7398   13.4211   -6.5005 C   0  0  0  0  0  0  0  0  0  0  0  0
   -0.4007   13.4556   -6.4362 N   0  0  3  0  0  0  0  0  0  0  0  0
    0.1858   12.3500   -6.8082 N   0  0  0  0  0  0  0  0  0  0  0  0
   -0.8018   11.5473   -7.1675 C   0  0  0  0  0  0  0  0  0  0  0  0
    0.4333   14.5672   -6.0053 C   0  0  0  0  0  0  0  0  0  0  0  0
   -6.0131   14.0330  -14.4162 O   0  0  0  0  0  0  0  0  0  0  0  0
   -4.6790   13.9767  -11.1295 C   0  0  0  0  0  0  0  0  0  0  0  0
   -4.0830   15.2556  -11.5883 C   0  0  0  0  0  0  0  0  0  0  0  0
   -6.1181   12.2807   -9.8804 H   0  0  0  0  0  0  0  0  0  0  0  0
   -8.2128   10.0638  -13.8816 H   0  0  0  0  0  0  0  0  0  0  0  0
   -6.8897   12.1539  -14.1098 H   0  0  0  0  0  0  0  0  0  0  0  0
   -8.0363    9.5960   -7.2473 H   0  0  0  0  0  0  0  0  0  0  0  0
   -4.2080   16.1098  -13.6994 H   0  0  0  0  0  0  0  0  0  0  0  0
   -6.7444   12.3126   -6.9096 H   0  0  0  0  0  0  0  0  0  0  0  0
   -4.5459   13.2506   -7.4775 H   0  0  0  0  0  0  0  0  0  0  0  0
   -4.5463   12.5175   -5.8376 H   0  0  0  0  0  0  0  0  0  0  0  0
   -2.6662    9.7505   -8.0491 H   0  0  0  0  0  0  0  0  0  0  0  0
   -4.8962    8.7826   -8.4928 H   0  0  0  0  0  0  0  0  0  0  0  0
   -2.1055   14.2006   -7.1850 H   0  0  0  0  0  0  0  0  0  0  0  0
   -2.1704   13.5795   -5.5008 H   0  0  0  0  0  0  0  0  0  0  0  0
   -0.6596   10.5498   -7.5564 H   0  0  0  0  0  0  0  0  0  0  0  0
    1.4925   14.2769   -6.0668 H   0  0  0  0  0  0  0  0  0  0  0  0
    0.2526   15.4350   -6.6567 H   0  0  0  0  0  0  0  0  0  0  0  0
    0.1851   14.8305   -4.9665 H   0  0  0  0  0  0  0  0  0  0  0  0
   -6.5611   13.2584  -14.3700 H   0  0  0  0  0  0  0  0  0  0  0  0
   -5.2469   14.1452  -10.2026 H   0  0  0  0  0  0  0  0  0  0  0  0
   -3.8809   13.2432  -10.9424 H   0  0  0  0  0  0  0  0  0  0  0  0
   -2.9857   15.2276  -11.5166 H   0  0  0  0  0  0  0  0  0  0  0  0
   -4.4673   16.1029  -11.0014 H   0  0  0  0  0  0  0  0  0  0  0  0
  1  2  2  0  0  0  0
  1  4  1  0  0  0  0
  1 13  1  0  0  0  0
  2  6  1  0  0  0  0
  3  4  2  0  0  0  0
  3  5  1  0  0  0  0
  5  6  2  0  0  0  0
  5  9  1  0  0  0  0
  6  7  1  0  0  0  0
  7  8  1  0  0  0  0
  7 10  2  3  0  0  0
  8  9  2  0  0  0  0
 10 14  1  0  0  0  0
 11 12  2  0  0  0  0
 11 13  1  0  0  0  0
 11 26  1  0  0  0  0
 12 28  1  0  0  0  0
 13 27  1  0  0  0  0
 14 15  2  0  0  0  0
 14 19  1  0  0  0  0
 15 16  1  0  0  0  0
 16 17  1  0  0  0  0
 17 18  1  0  0  0  0
 17 20  2  0  0  0  0
 18 19  2  0  0  0  0
 20 21  1  0  0  0  0
 20 24  1  0  0  0  0
 21 22  1  0  0  0  0
 22 23  1  0  0  0  0
 22 25  1  0  0  0  0
 23 24  2  0  0  0  0
 27 28  1  0  0  0  0
  2 29  1  0  0  0  0
  3 30  1  0  0  0  0
  4 31  1  0  0  0  0
 10 32  1  0  0  0  0
 12 33  1  0  0  0  0
 15 34  1  0  0  0  0
 16 35  1  0  0  0  0
 16 36  1  0  0  0  0
 18 37  1  0  0  0  0
 19 38  1  0  0  0  0
 21 39  1  0  0  0  0
 21 40  1  0  0  0  0
 24 41  1  0  0  0  0
 25 42  1  0  0  0  0
 25 43  1  0  0  0  0
 25 44  1  0  0  0  0
 26 45  1  0  0  0  0
 27 46  1  0  0  0  0
 27 47  1  0  0  0  0
 28 48  1  0  0  0  0
 28 49  1  0  0  0  0
M  END
> <Name>
26

> <IC50[uM]>
0.036

$$$$
26
  -OEChem-05192314333D
 Structure written by MMmdl.
 49 53  0     1  0  0  0  0  0999 V2000
   -6.3961   12.3155  -12.0234 C   0  0  0  0  0  0  0  0  0  0  0  0
   -6.5478   11.7864  -10.7392 C   0  0  0  0  0  0  0  0  0  0  0  0
   -7.7431   10.5278  -13.0269 C   0  0  0  0  0  0  0  0  0  0  0  0
   -7.0034   11.6993  -13.1368 C   0  0  0  0  0  0  0  0  0  0  0  0
   -7.8411    9.9886  -11.7443 C   0  0  0  0  0  0  0  0  0  0  0  0
   -7.2672   10.6062  -10.5986 C   0  0  3  0  0  0  0  0  0  0  0  0
   -7.6276    9.7408   -9.5022 C   0  0  0  0  0  0  0  0  0  0  0  0
   -8.2893    8.7195   -9.9713 N   0  0  0  0  0  0  0  0  0  0  0  0
   -8.4361    8.8492  -11.2847 N   0  0  0  0  0  0  0  0  0  0  0  0
   -7.3404    9.8857   -8.0208 C   0  0  0  0  0  0  0  0  0  0  0  0
   -5.4704   14.2158  -13.3316 C   0  0  0  0  0  0  0  0  0  0  0  0
   -4.5218   15.3458  -13.0035 C   0  0  0  0  0  0  0  0  0  0  0  0
   -5.5814   13.4696  -12.1774 N   0  0  0  0  0  0  0  0  0  0  0  0
   -5.9630   10.4847   -7.7359 C   0  0  0  0  0  0  0  0  0  0  0  0
   -5.8538   11.7563   -7.1621 C   0  0  0  0  0  0  0  0  0  0  0  0
   -4.5953   12.3060   -6.9160 C   0  0  0  0  0  0  0  0  0  0  0  0
   -3.4449   11.5852   -7.2379 C   0  0  0  0  0  0  0  0  0  0  0  0
   -3.5560   10.3115   -7.8043 C   0  0  0  0  0  0  0  0  0  0  0  0
   -4.8130    9.7655   -8.0531 C   0  0  0  0  0  0  0  0  0  0  0  0
   -2.0905   12.1634   -6.9778 C   0  0  0  0  0  0  0  0  0  0  0  0
   -1.7398   13.4211   -6.5005 C   0  0  0  0  0  0  0  0  0  0  0  0
   -0.4007   13.4556   -6.4362 N   0  0  3  0  0  0  0  0  0  0  0  0
    0.1858   12.3500   -6.8082 N   0  0  0  0  0  0  0  0  0  0  0  0
   -0.8018   11.5473   -7.1675 C   0  0  0  0  0  0  0  0  0  0  0  0
    0.4333   14.5672   -6.0053 C   0  0  0  0  0  0  0  0  0  0  0  0
   -6.0131   14.0330  -14.4162 O   0  0  0  0  0  0  0  0  0  0  0  0
   -4.6790   13.9767  -11.1295 C   0  0  0  0  0  0  0  0  0  0  0  0
   -4.0830   15.2556  -11.5883 C   0  0  0  0  0  0  0  0  0  0  0  0
   -6.1181   12.2807   -9.8804 H   0  0  0  0  0  0  0  0  0  0  0  0
   -8.2128   10.0638  -13.8816 H   0  0  0  0  0  0  0  0  0  0  0  0
   -6.8897   12.1539  -14.1098 H   0  0  0  0  0  0  0  0  0  0  0  0
   -8.1901   11.1852  -10.4467 H   0  0  0  0  0  0  0  0  0  0  0  0
   -8.0363    9.5960   -7.2473 H   0  0  0  0  0  0  0  0  0  0  0  0
   -4.2080   16.1098  -13.6994 H   0  0  0  0  0  0  0  0  0  0  0  0
   -6.7444   12.3126   -6.9096 H   0  0  0  0  0  0  0  0  0  0  0  0
   -4.5117   13.2890   -6.4765 H   0  0  0  0  0  0  0  0  0  0  0  0
   -2.6662    9.7505   -8.0491 H   0  0  0  0  0  0  0  0  0  0  0  0
   -4.8962    8.7826   -8.4928 H   0  0  0  0  0  0  0  0  0  0  0  0
   -2.1055   14.2006   -7.1850 H   0  0  0  0  0  0  0  0  0  0  0  0
   -2.1704   13.5795   -5.5008 H   0  0  0  0  0  0  0  0  0  0  0  0
   -0.6596   10.5498   -7.5564 H   0  0  0  0  0  0  0  0  0  0  0  0
    1.4925   14.2769   -6.0668 H   0  0  0  0  0  0  0  0  0  0  0  0
    0.2526   15.4350   -6.6567 H   0  0  0  0  0  0  0  0  0  0  0  0
    0.1851   14.8305   -4.9665 H   0  0  0  0  0  0  0  0  0  0  0  0
   -6.5611   13.2584  -14.3700 H   0  0  0  0  0  0  0  0  0  0  0  0
   -5.2469   14.1452  -10.2026 H   0  0  0  0  0  0  0  0  0  0  0  0
   -3.8809   13.2432  -10.9424 H   0  0  0  0  0  0  0  0  0  0  0  0
   -2.9857   15.2276  -11.5166 H   0  0  0  0  0  0  0  0  0  0  0  0
   -4.4673   16.1029  -11.0014 H   0  0  0  0  0  0  0  0  0  0  0  0
  1  2  2  0  0  0  0
  1  4  1  0  0  0  0
  1 13  1  0  0  0  0
  2  6  1  0  0  0  0
  3  4  2  0  0  0  0
  3  5  1  0  0  0  0
  5  6  1  0  0  0  0
  5  9  2  0  0  0  0
  6  7  1  0  0  0  0
  7  8  2  0  0  0  0
  7 10  1  0  0  0  0
  8  9  1  0  0  0  0
 10 14  2  0  0  0  0
 11 12  2  0  0  0  0
 11 13  1  0  0  0  0
 11 26  1  0  0  0  0
 12 28  1  0  0  0  0
 13 27  1  0  0  0  0
 14 15  1  0  0  0  0
 14 19  1  0  0  0  0
 15 16  2  0  0  0  0
 16 17  1  0  0  0  0
 17 18  1  0  0  0  0
 17 20  2  0  0  0  0
 18 19  2  0  0  0  0
 20 21  1  0  0  0  0
 20 24  1  0  0  0  0
 21 22  1  0  0  0  0
 22 23  1  0  0  0  0
 22 25  1  0  0  0  0
 23 24  2  0  0  0  0
 27 28  1  0  0  0  0
  2 29  1  0  0  0  0
  3 30  1  0  0  0  0
  4 31  1  0  0  0  0
  6 32  1  0  0  0  0
 10 33  1  0  0  0  0
 12 34  1  0  0  0  0
 15 35  1  0  0  0  0
 16 36  1  0  0  0  0
 18 37  1  0  0  0  0
 19 38  1  0  0  0  0
 21 39  1  0  0  0  0
 21 40  1  0  0  0  0
 24 41  1  0  0  0  0
 25 42  1  0  0  0  0
 25 43  1  0  0  0  0
 25 44  1  0  0  0  0
 26 45  1  0  0  0  0
 27 46  1  0  0  0  0
 27 47  1  0  0  0  0
 28 48  1  0  0  0  0
 28 49  1  0  0  0  0
M  END
> <Name>
26

> <IC50[uM]>
0.036

$$$$
26
  -OEChem-05192314333D
 Structure written by MMmdl.
 49 53  0     1  0  0  0  0  0999 V2000
   -6.3961   12.3155  -12.0234 C   0  0  3  0  0  0  0  0  0  0  0  0
   -6.5478   11.7864  -10.7392 C   0  0  0  0  0  0  0  0  0  0  0  0
   -7.7431   10.5278  -13.0269 C   0  0  0  0  0  0  0  0  0  0  0  0
   -7.0034   11.6993  -13.1368 C   0  0  0  0  0  0  0  0  0  0  0  0
   -7.8411    9.9886  -11.7443 C   0  0  0  0  0  0  0  0  0  0  0  0
   -7.2672   10.6062  -10.5986 C   0  0  0  0  0  0  0  0  0  0  0  0
   -7.6276    9.7408   -9.5022 C   0  0  0  0  0  0  0  0  0  0  0  0
   -8.2893    8.7195   -9.9713 N   0  0  0  0  0  0  0  0  0  0  0  0
   -8.4361    8.8492  -11.2847 N   0  0  0  0  0  0  0  0  0  0  0  0
   -7.3404    9.8857   -8.0208 C   0  0  0  0  0  0  0  0  0  0  0  0
   -5.4704   14.2158  -13.3316 C   0  0  0  0  0  0  0  0  0  0  0  0
   -4.5218   15.3458  -13.0035 C   0  0  0  0  0  0  0  0  0  0  0  0
   -5.5814   13.4696  -12.1774 N   0  0  3  0  0  0  0  0  0  0  0  0
   -5.9630   10.4847   -7.7359 C   0  0  0  0  0  0  0  0  0  0  0  0
   -5.8538   11.7563   -7.1621 C   0  0  0  0  0  0  0  0  0  0  0  0
   -4.5953   12.3060   -6.9160 C   0  0  0  0  0  0  0  0  0  0  0  0
   -3.4449   11.5852   -7.2379 C   0  0  0  0  0  0  0  0  0  0  0  0
   -3.5560   10.3115   -7.8043 C   0  0  0  0  0  0  0  0  0  0  0  0
   -4.8130    9.7655   -8.0531 C   0  0  0  0  0  0  0  0  0  0  0  0
   -2.0905   12.1634   -6.9778 C   0  0  0  0  0  0  0  0  0  0  0  0
   -1.7398   13.4211   -6.5005 C   0  0  0  0  0  0  0  0  0  0  0  0
   -0.4007   13.4556   -6.4362 N   0  0  3  0  0  0  0  0  0  0  0  0
    0.1858   12.3500   -6.8082 N   0  0  0  0  0  0  0  0  0  0  0  0
   -0.8018   11.5473   -7.1675 C   0  0  0  0  0  0  0  0  0  0  0  0
    0.4333   14.5672   -6.0053 C   0  0  0  0  0  0  0  0  0  0  0  0
   -6.0131   14.0330  -14.4162 O   0  0  0  0  0  0  0  0  0  0  0  0
   -4.6790   13.9767  -11.1295 C   0  0  0  0  0  0  0  0  0  0  0  0
   -4.0830   15.2556  -11.5883 C   0  0  0  0  0  0  0  0  0  0  0  0
   -7.2833   12.9493  -11.8778 H   0  0  0  0  0  0  0  0  0  0  0  0
   -6.1181   12.2807   -9.8804 H   0  0  0  0  0  0  0  0  0  0  0  0
   -8.2128   10.0638  -13.8816 H   0  0  0  0  0  0  0  0  0  0  0  0
   -6.8897   12.1539  -14.1098 H   0  0  0  0  0  0  0  0  0  0  0  0
   -8.0363    9.5960   -7.2473 H   0  0  0  0  0  0  0  0  0  0  0  0
   -4.2080   16.1098  -13.6994 H   0  0  0  0  0  0  0  0  0  0  0  0
   -6.7444   12.3126   -6.9096 H   0  0  0  0  0  0  0  0  0  0  0  0
   -4.5117   13.2890   -6.4765 H   0  0  0  0  0  0  0  0  0  0  0  0
   -2.6662    9.7505   -8.0491 H   0  0  0  0  0  0  0  0  0  0  0  0
   -4.8962    8.7826   -8.4928 H   0  0  0  0  0  0  0  0  0  0  0  0
   -2.1055   14.2006   -7.1850 H   0  0  0  0  0  0  0  0  0  0  0  0
   -2.1704   13.5795   -5.5008 H   0  0  0  0  0  0  0  0  0  0  0  0
   -0.6596   10.5498   -7.5564 H   0  0  0  0  0  0  0  0  0  0  0  0
    1.4925   14.2769   -6.0668 H   0  0  0  0  0  0  0  0  0  0  0  0
    0.2526   15.4350   -6.6567 H   0  0  0  0  0  0  0  0  0  0  0  0
    0.1851   14.8305   -4.9665 H   0  0  0  0  0  0  0  0  0  0  0  0
   -6.5611   13.2584  -14.3700 H   0  0  0  0  0  0  0  0  0  0  0  0
   -5.2469   14.1452  -10.2026 H   0  0  0  0  0  0  0  0  0  0  0  0
   -3.8809   13.2432  -10.9424 H   0  0  0  0  0  0  0  0  0  0  0  0
   -2.9857   15.2276  -11.5166 H   0  0  0  0  0  0  0  0  0  0  0  0
   -4.4673   16.1029  -11.0014 H   0  0  0  0  0  0  0  0  0  0  0  0
  1  2  1  0  0  0  0
  1  4  1  0  0  0  0
  1 13  1  0  0  0  0
  2  6  2  0  0  0  0
  3  4  2  0  0  0  0
  3  5  1  0  0  0  0
  5  6  1  0  0  0  0
  5  9  2  0  0  0  0
  6  7  1  0  0  0  0
  7  8  2  0  0  0  0
  7 10  1  0  0  0  0
  8  9  1  0  0  0  0
 10 14  2  0  0  0  0
 11 12  2  0  0  0  0
 11 13  1  0  0  0  0
 11 26  1  0  0  0  0
 12 28  1  0  0  0  0
 13 27  1  0  0  0  0
 14 15  1  0  0  0  0
 14 19  1  0  0  0  0
 15 16  2  0  0  0  0
 16 17  1  0  0  0  0
 17 18  1  0  0  0  0
 17 20  2  0  0  0  0
 18 19  2  0  0  0  0
 20 21  1  0  0  0  0
 20 24  1  0  0  0  0
 21 22  1  0  0  0  0
 22 23  1  0  0  0  0
 22 25  1  0  0  0  0
 23 24  2  0  0  0  0
 27 28  1  0  0  0  0
  1 29  1  0  0  0  0
  2 30  1  0  0  0  0
  3 31  1  0  0  0  0
  4 32  1  0  0  0  0
 10 33  1  0  0  0  0
 12 34  1  0  0  0  0
 15 35  1  0  0  0  0
 16 36  1  0  0  0  0
 18 37  1  0  0  0  0
 19 38  1  0  0  0  0
 21 39  1  0  0  0  0
 21 40  1  0  0  0  0
 24 41  1  0  0  0  0
 25 42  1  0  0  0  0
 25 43  1  0  0  0  0
 25 44  1  0  0  0  0
 26 45  1  0  0  0  0
 27 46  1  0  0  0  0
 27 47  1  0  0  0  0
 28 48  1  0  0  0  0
 28 49  1  0  0  0  0
M  END
> <Name>
26

> <IC50[uM]>
0.036

$$$$
26
  -OEChem-05192314333D
 Structure written by MMmdl.
 49 53  0     1  0  0  0  0  0999 V2000
   -6.3961   12.3155  -12.0234 C   0  0  0  0  0  0  0  0  0  0  0  0
   -6.5478   11.7864  -10.7392 C   0  0  0  0  0  0  0  0  0  0  0  0
   -7.7431   10.5278  -13.0269 C   0  0  0  0  0  0  0  0  0  0  0  0
   -7.0034   11.6993  -13.1368 C   0  0  0  0  0  0  0  0  0  0  0  0
   -7.8411    9.9886  -11.7443 C   0  0  0  0  0  0  0  0  0  0  0  0
   -7.2672   10.6062  -10.5986 C   0  0  0  0  0  0  0  0  0  0  0  0
   -7.6276    9.7408   -9.5022 C   0  0  0  0  0  0  0  0  0  0  0  0
   -8.2893    8.7195   -9.9713 N   0  0  0  0  0  0  0  0  0  0  0  0
   -8.4361    8.8492  -11.2847 N   0  0  0  0  0  0  0  0  0  0  0  0
   -7.3404    9.8857   -8.0208 C   0  0  0  0  0  0  0  0  0  0  0  0
   -5.4704   14.2158  -13.3316 C   0  0  0  0  0  0  0  0  0  0  0  0
   -4.5218   15.3458  -13.0035 C   0  0  0  0  0  0  0  0  0  0  0  0
   -5.5814   13.4696  -12.1774 N   0  0  0  0  0  0  0  0  0  0  0  0
   -5.9630   10.4847   -7.7359 C   0  0  0  0  0  0  0  0  0  0  0  0
   -5.8538   11.7563   -7.1621 C   0  0  0  0  0  0  0  0  0  0  0  0
   -4.5953   12.3060   -6.9160 C   0  0  0  0  0  0  0  0  0  0  0  0
   -3.4449   11.5852   -7.2379 C   0  0  0  0  0  0  0  0  0  0  0  0
   -3.5560   10.3115   -7.8043 C   0  0  0  0  0  0  0  0  0  0  0  0
   -4.8130    9.7655   -8.0531 C   0  0  0  0  0  0  0  0  0  0  0  0
   -2.0905   12.1634   -6.9778 C   0  0  0  0  0  0  0  0  0  0  0  0
   -1.7398   13.4211   -6.5005 C   0  0  0  0  0  0  0  0  0  0  0  0
   -0.4007   13.4556   -6.4362 N   0  0  3  0  0  0  0  0  0  0  0  0
    0.1858   12.3500   -6.8082 N   0  0  0  0  0  0  0  0  0  0  0  0
   -0.8018   11.5473   -7.1675 C   0  0  0  0  0  0  0  0  0  0  0  0
    0.4333   14.5672   -6.0053 C   0  0  0  0  0  0  0  0  0  0  0  0
   -6.0131   14.0330  -14.4162 O   0  0  0  0  0  0  0  0  0  0  0  0
   -4.6790   13.9767  -11.1295 C   0  0  0  0  0  0  0  0  0  0  0  0
   -4.0830   15.2556  -11.5883 C   0  0  0  0  0  0  0  0  0  0  0  0
   -6.1181   12.2807   -9.8804 H   0  0  0  0  0  0  0  0  0  0  0  0
   -8.7624   10.7378  -13.3832 H   0  0  0  0  0  0  0  0  0  0  0  0
   -7.2763    9.7721  -13.6757 H   0  0  0  0  0  0  0  0  0  0  0  0
   -6.8897   12.1539  -14.1098 H   0  0  0  0  0  0  0  0  0  0  0  0
   -8.0363    9.5960   -7.2473 H   0  0  0  0  0  0  0  0  0  0  0  0
   -4.2080   16.1098  -13.6994 H   0  0  0  0  0  0  0  0  0  0  0  0
   -6.7444   12.3126   -6.9096 H   0  0  0  0  0  0  0  0  0  0  0  0
   -4.5117   13.2890   -6.4765 H   0  0  0  0  0  0  0  0  0  0  0  0
   -2.6662    9.7505   -8.0491 H   0  0  0  0  0  0  0  0  0  0  0  0
   -4.8962    8.7826   -8.4928 H   0  0  0  0  0  0  0  0  0  0  0  0
   -2.1055   14.2006   -7.1850 H   0  0  0  0  0  0  0  0  0  0  0  0
   -2.1704   13.5795   -5.5008 H   0  0  0  0  0  0  0  0  0  0  0  0
   -0.6596   10.5498   -7.5564 H   0  0  0  0  0  0  0  0  0  0  0  0
    1.4925   14.2769   -6.0668 H   0  0  0  0  0  0  0  0  0  0  0  0
    0.2526   15.4350   -6.6567 H   0  0  0  0  0  0  0  0  0  0  0  0
    0.1851   14.8305   -4.9665 H   0  0  0  0  0  0  0  0  0  0  0  0
   -6.5611   13.2584  -14.3700 H   0  0  0  0  0  0  0  0  0  0  0  0
   -5.2469   14.1452  -10.2026 H   0  0  0  0  0  0  0  0  0  0  0  0
   -3.8809   13.2432  -10.9424 H   0  0  0  0  0  0  0  0  0  0  0  0
   -2.9857   15.2276  -11.5166 H   0  0  0  0  0  0  0  0  0  0  0  0
   -4.4673   16.1029  -11.0014 H   0  0  0  0  0  0  0  0  0  0  0  0
  1  2  1  0  0  0  0
  1  4  2  0  0  0  0
  1 13  1  0  0  0  0
  2  6  2  0  0  0  0
  3  4  1  0  0  0  0
  3  5  1  0  0  0  0
  5  6  1  0  0  0  0
  5  9  2  0  0  0  0
  6  7  1  0  0  0  0
  7  8  2  0  0  0  0
  7 10  1  0  0  0  0
  8  9  1  0  0  0  0
 10 14  2  0  0  0  0
 11 12  2  0  0  0  0
 11 13  1  0  0  0  0
 11 26  1  0  0  0  0
 12 28  1  0  0  0  0
 13 27  1  0  0  0  0
 14 15  1  0  0  0  0
 14 19  1  0  0  0  0
 15 16  2  0  0  0  0
 16 17  1  0  0  0  0
 17 18  1  0  0  0  0
 17 20  2  0  0  0  0
 18 19  2  0  0  0  0
 20 21  1  0  0  0  0
 20 24  1  0  0  0  0
 21 22  1  0  0  0  0
 22 23  1  0  0  0  0
 22 25  1  0  0  0  0
 23 24  2  0  0  0  0
 27 28  1  0  0  0  0
  2 29  1  0  0  0  0
  3 30  1  0  0  0  0
  3 31  1  0  0  0  0
  4 32  1  0  0  0  0
 10 33  1  0  0  0  0
 12 34  1  0  0  0  0
 15 35  1  0  0  0  0
 16 36  1  0  0  0  0
 18 37  1  0  0  0  0
 19 38  1  0  0  0  0
 21 39  1  0  0  0  0
 21 40  1  0  0  0  0
 24 41  1  0  0  0  0
 25 42  1  0  0  0  0
 25 43  1  0  0  0  0
 25 44  1  0  0  0  0
 26 45  1  0  0  0  0
 27 46  1  0  0  0  0
 27 47  1  0  0  0  0
 28 48  1  0  0  0  0
 28 49  1  0  0  0  0
M  END
> <Name>
26

> <IC50[uM]>
0.036

$$$$
26
  -OEChem-05192314333D
 Structure written by MMmdl.
 49 53  0     1  0  0  0  0  0999 V2000
   -6.3961   12.3155  -12.0234 C   0  0  0  0  0  0  0  0  0  0  0  0
   -6.5478   11.7864  -10.7392 C   0  0  0  0  0  0  0  0  0  0  0  0
   -7.7431   10.5278  -13.0269 C   0  0  0  0  0  0  0  0  0  0  0  0
   -7.0034   11.6993  -13.1368 C   0  0  0  0  0  0  0  0  0  0  0  0
   -7.8411    9.9886  -11.7443 C   0  0  3  0  0  0  0  0  0  0  0  0
   -7.2672   10.6062  -10.5986 C   0  0  0  0  0  0  0  0  0  0  0  0
   -7.6276    9.7408   -9.5022 C   0  0  0  0  0  0  0  0  0  0  0  0
   -8.2893    8.7195   -9.9713 N   0  0  0  0  0  0  0  0  0  0  0  0
   -8.4361    8.8492  -11.2847 N   0  0  0  0  0  0  0  0  0  0  0  0
   -7.3404    9.8857   -8.0208 C   0  0  0  0  0  0  0  0  0  0  0  0
   -5.4704   14.2158  -13.3316 C   0  0  0  0  0  0  0  0  0  0  0  0
   -4.5218   15.3458  -13.0035 C   0  0  0  0  0  0  0  0  0  0  0  0
   -5.5814   13.4696  -12.1774 N   0  0  0  0  0  0  0  0  0  0  0  0
   -5.9630   10.4847   -7.7359 C   0  0  0  0  0  0  0  0  0  0  0  0
   -5.8538   11.7563   -7.1621 C   0  0  0  0  0  0  0  0  0  0  0  0
   -4.5953   12.3060   -6.9160 C   0  0  0  0  0  0  0  0  0  0  0  0
   -3.4449   11.5852   -7.2379 C   0  0  0  0  0  0  0  0  0  0  0  0
   -3.5560   10.3115   -7.8043 C   0  0  0  0  0  0  0  0  0  0  0  0
   -4.8130    9.7655   -8.0531 C   0  0  0  0  0  0  0  0  0  0  0  0
   -2.0905   12.1634   -6.9778 C   0  0  0  0  0  0  0  0  0  0  0  0
   -1.7398   13.4211   -6.5005 C   0  0  0  0  0  0  0  0  0  0  0  0
   -0.4007   13.4556   -6.4362 N   0  0  3  0  0  0  0  0  0  0  0  0
    0.1858   12.3500   -6.8082 N   0  0  0  0  0  0  0  0  0  0  0  0
   -0.8018   11.5473   -7.1675 C   0  0  0  0  0  0  0  0  0  0  0  0
    0.4333   14.5672   -6.0053 C   0  0  0  0  0  0  0  0  0  0  0  0
   -6.0131   14.0330  -14.4162 O   0  0  0  0  0  0  0  0  0  0  0  0
   -4.6790   13.9767  -11.1295 C   0  0  0  0  0  0  0  0  0  0  0  0
   -4.0830   15.2556  -11.5883 C   0  0  0  0  0  0  0  0  0  0  0  0
   -6.1181   12.2807   -9.8804 H   0  0  0  0  0  0  0  0  0  0  0  0
   -8.2128   10.0638  -13.8816 H   0  0  0  0  0  0  0  0  0  0  0  0
   -6.8897   12.1539  -14.1098 H   0  0  0  0  0  0  0  0  0  0  0  0
   -8.7752   10.5456  -11.5792 H   0  0  0  0  0  0  0  0  0  0  0  0
   -8.0363    9.5960   -7.2473 H   0  0  0  0  0  0  0  0  0  0  0  0
   -4.2080   16.1098  -13.6994 H   0  0  0  0  0  0  0  0  0  0  0  0
   -6.7444   12.3126   -6.9096 H   0  0  0  0  0  0  0  0  0  0  0  0
   -4.5117   13.2890   -6.4765 H   0  0  0  0  0  0  0  0  0  0  0  0
   -2.6662    9.7505   -8.0491 H   0  0  0  0  0  0  0  0  0  0  0  0
   -4.8962    8.7826   -8.4928 H   0  0  0  0  0  0  0  0  0  0  0  0
   -2.1055   14.2006   -7.1850 H   0  0  0  0  0  0  0  0  0  0  0  0
   -2.1704   13.5795   -5.5008 H   0  0  0  0  0  0  0  0  0  0  0  0
   -0.6596   10.5498   -7.5564 H   0  0  0  0  0  0  0  0  0  0  0  0
    1.4925   14.2769   -6.0668 H   0  0  0  0  0  0  0  0  0  0  0  0
    0.2526   15.4350   -6.6567 H   0  0  0  0  0  0  0  0  0  0  0  0
    0.1851   14.8305   -4.9665 H   0  0  0  0  0  0  0  0  0  0  0  0
   -6.5611   13.2584  -14.3700 H   0  0  0  0  0  0  0  0  0  0  0  0
   -5.2469   14.1452  -10.2026 H   0  0  0  0  0  0  0  0  0  0  0  0
   -3.8809   13.2432  -10.9424 H   0  0  0  0  0  0  0  0  0  0  0  0
   -2.9857   15.2276  -11.5166 H   0  0  0  0  0  0  0  0  0  0  0  0
   -4.4673   16.1029  -11.0014 H   0  0  0  0  0  0  0  0  0  0  0  0
  1  2  2  0  0  0  0
  1  4  1  0  0  0  0
  1 13  1  0  0  0  0
  2  6  1  0  0  0  0
  3  4  2  0  0  0  0
  3  5  1  0  0  0  0
  5  6  1  0  0  0  0
  5  9  1  0  0  0  0
  6  7  2  0  0  0  0
  7  8  1  0  0  0  0
  7 10  1  0  0  0  0
  8  9  2  0  0  0  0
 10 14  2  0  0  0  0
 11 12  2  0  0  0  0
 11 13  1  0  0  0  0
 11 26  1  0  0  0  0
 12 28  1  0  0  0  0
 13 27  1  0  0  0  0
 14 15  1  0  0  0  0
 14 19  1  0  0  0  0
 15 16  2  0  0  0  0
 16 17  1  0  0  0  0
 17 18  1  0  0  0  0
 17 20  2  0  0  0  0
 18 19  2  0  0  0  0
 20 21  1  0  0  0  0
 20 24  1  0  0  0  0
 21 22  1  0  0  0  0
 22 23  1  0  0  0  0
 22 25  1  0  0  0  0
 23 24  2  0  0  0  0
 27 28  1  0  0  0  0
  2 29  1  0  0  0  0
  3 30  1  0  0  0  0
  4 31  1  0  0  0  0
  5 32  1  0  0  0  0
 10 33  1  0  0  0  0
 12 34  1  0  0  0  0
 15 35  1  0  0  0  0
 16 36  1  0  0  0  0
 18 37  1  0  0  0  0
 19 38  1  0  0  0  0
 21 39  1  0  0  0  0
 21 40  1  0  0  0  0
 24 41  1  0  0  0  0
 25 42  1  0  0  0  0
 25 43  1  0  0  0  0
 25 44  1  0  0  0  0
 26 45  1  0  0  0  0
 27 46  1  0  0  0  0
 27 47  1  0  0  0  0
 28 48  1  0  0  0  0
 28 49  1  0  0  0  0
M  END
> <Name>
26

> <IC50[uM]>
0.036

$$$$
26
  -OEChem-05192314333D
 Structure written by MMmdl.
 49 53  0     1  0  0  0  0  0999 V2000
   -6.3961   12.3155  -12.0234 C   0  0  0  0  0  0  0  0  0  0  0  0
   -6.5478   11.7864  -10.7392 C   0  0  0  0  0  0  0  0  0  0  0  0
   -7.7431   10.5278  -13.0269 C   0  0  0  0  0  0  0  0  0  0  0  0
   -7.0034   11.6993  -13.1368 C   0  0  0  0  0  0  0  0  0  0  0  0
   -7.8411    9.9886  -11.7443 C   0  0  0  0  0  0  0  0  0  0  0  0
   -7.2672   10.6062  -10.5986 C   0  0  0  0  0  0  0  0  0  0  0  0
   -7.6276    9.7408   -9.5022 C   0  0  0  0  0  0  0  0  0  0  0  0
   -8.2893    8.7195   -9.9713 N   0  0  0  0  0  0  0  0  0  0  0  0
   -8.4361    8.8492  -11.2847 N   0  0  0  0  0  0  0  0  0  0  0  0
   -7.3404    9.8857   -8.0208 C   0  0  0  0  0  0  0  0  0  0  0  0
   -5.4704   14.2158  -13.3316 C   0  0  0  0  0  0  0  0  0  0  0  0
   -4.5218   15.3458  -13.0035 C   0  0  0  0  0  0  0  0  0  0  0  0
   -5.5814   13.4696  -12.1774 N   0  0  0  0  0  0  0  0  0  0  0  0
   -5.9630   10.4847   -7.7359 C   0  0  0  0  0  0  0  0  0  0  0  0
   -5.8538   11.7563   -7.1621 C   0  0  0  0  0  0  0  0  0  0  0  0
   -4.5953   12.3060   -6.9160 C   0  0  0  0  0  0  0  0  0  0  0  0
   -3.4449   11.5852   -7.2379 C   0  0  0  0  0  0  0  0  0  0  0  0
   -3.5560   10.3115   -7.8043 C   0  0  0  0  0  0  0  0  0  0  0  0
   -4.8130    9.7655   -8.0531 C   0  0  0  0  0  0  0  0  0  0  0  0
   -2.0905   12.1634   -6.9778 C   0  0  0  0  0  0  0  0  0  0  0  0
   -1.7398   13.4211   -6.5005 C   0  0  0  0  0  0  0  0  0  0  0  0
   -0.4007   13.4556   -6.4362 N   0  0  3  0  0  0  0  0  0  0  0  0
    0.1858   12.3500   -6.8082 N   0  0  0  0  0  0  0  0  0  0  0  0
   -0.8018   11.5473   -7.1675 C   0  0  0  0  0  0  0  0  0  0  0  0
    0.4333   14.5672   -6.0053 C   0  0  0  0  0  0  0  0  0  0  0  0
   -6.0131   14.0330  -14.4162 O   0  0  0  0  0  0  0  0  0  0  0  0
   -4.6790   13.9767  -11.1295 C   0  0  0  0  0  0  0  0  0  0  0  0
   -4.0830   15.2556  -11.5883 C   0  0  0  0  0  0  0  0  0  0  0  0
   -6.1181   12.2807   -9.8804 H   0  0  0  0  0  0  0  0  0  0  0  0
   -8.2128   10.0638  -13.8816 H   0  0  0  0  0  0  0  0  0  0  0  0
   -7.6809   12.4497  -13.5703 H   0  0  0  0  0  0  0  0  0  0  0  0
   -6.1921   11.4836  -13.8477 H   0  0  0  0  0  0  0  0  0  0  0  0
   -8.0363    9.5960   -7.2473 H   0  0  0  0  0  0  0  0  0  0  0  0
   -4.2080   16.1098  -13.6994 H   0  0  0  0  0  0  0  0  0  0  0  0
   -6.7444   12.3126   -6.9096 H   0  0  0  0  0  0  0  0  0  0  0  0
   -4.5117   13.2890   -6.4765 H   0  0  0  0  0  0  0  0  0  0  0  0
   -2.6662    9.7505   -8.0491 H   0  0  0  0  0  0  0  0  0  0  0  0
   -4.8962    8.7826   -8.4928 H   0  0  0  0  0  0  0  0  0  0  0  0
   -2.1055   14.2006   -7.1850 H   0  0  0  0  0  0  0  0  0  0  0  0
   -2.1704   13.5795   -5.5008 H   0  0  0  0  0  0  0  0  0  0  0  0
   -0.6596   10.5498   -7.5564 H   0  0  0  0  0  0  0  0  0  0  0  0
    1.4925   14.2769   -6.0668 H   0  0  0  0  0  0  0  0  0  0  0  0
    0.2526   15.4350   -6.6567 H   0  0  0  0  0  0  0  0  0  0  0  0
    0.1851   14.8305   -4.9665 H   0  0  0  0  0  0  0  0  0  0  0  0
   -6.5611   13.2584  -14.3700 H   0  0  0  0  0  0  0  0  0  0  0  0
   -5.2469   14.1452  -10.2026 H   0  0  0  0  0  0  0  0  0  0  0  0
   -3.8809   13.2432  -10.9424 H   0  0  0  0  0  0  0  0  0  0  0  0
   -2.9857   15.2276  -11.5166 H   0  0  0  0  0  0  0  0  0  0  0  0
   -4.4673   16.1029  -11.0014 H   0  0  0  0  0  0  0  0  0  0  0  0
  1  2  2  0  0  0  0
  1  4  1  0  0  0  0
  1 13  1  0  0  0  0
  2  6  1  0  0  0  0
  3  4  1  0  0  0  0
  3  5  2  0  0  0  0
  5  6  1  0  0  0  0
  5  9  1  0  0  0  0
  6  7  2  0  0  0  0
  7  8  1  0  0  0  0
  7 10  1  0  0  0  0
  8  9  2  0  0  0  0
 10 14  2  0  0  0  0
 11 12  2  0  0  0  0
 11 13  1  0  0  0  0
 11 26  1  0  0  0  0
 12 28  1  0  0  0  0
 13 27  1  0  0  0  0
 14 15  1  0  0  0  0
 14 19  1  0  0  0  0
 15 16  2  0  0  0  0
 16 17  1  0  0  0  0
 17 18  1  0  0  0  0
 17 20  2  0  0  0  0
 18 19  2  0  0  0  0
 20 21  1  0  0  0  0
 20 24  1  0  0  0  0
 21 22  1  0  0  0  0
 22 23  1  0  0  0  0
 22 25  1  0  0  0  0
 23 24  2  0  0  0  0
 27 28  1  0  0  0  0
  2 29  1  0  0  0  0
  3 30  1  0  0  0  0
  4 31  1  0  0  0  0
  4 32  1  0  0  0  0
 10 33  1  0  0  0  0
 12 34  1  0  0  0  0
 15 35  1  0  0  0  0
 16 36  1  0  0  0  0
 18 37  1  0  0  0  0
 19 38  1  0  0  0  0
 21 39  1  0  0  0  0
 21 40  1  0  0  0  0
 24 41  1  0  0  0  0
 25 42  1  0  0  0  0
 25 43  1  0  0  0  0
 25 44  1  0  0  0  0
 26 45  1  0  0  0  0
 27 46  1  0  0  0  0
 27 47  1  0  0  0  0
 28 48  1  0  0  0  0
 28 49  1  0  0  0  0
M  END
> <Name>
26

> <IC50[uM]>
0.036

$$$$
26
  -OEChem-05192314333D
 Structure written by MMmdl.
 49 53  0     1  0  0  0  0  0999 V2000
   -6.3961   12.3155  -12.0234 C   0  0  0  0  0  0  0  0  0  0  0  0
   -6.5478   11.7864  -10.7392 C   0  0  0  0  0  0  0  0  0  0  0  0
   -7.7431   10.5278  -13.0269 C   0  0  0  0  0  0  0  0  0  0  0  0
   -7.0034   11.6993  -13.1368 C   0  0  0  0  0  0  0  0  0  0  0  0
   -7.8411    9.9886  -11.7443 C   0  0  0  0  0  0  0  0  0  0  0  0
   -7.2672   10.6062  -10.5986 C   0  0  0  0  0  0  0  0  0  0  0  0
   -7.6276    9.7408   -9.5022 C   0  0  0  0  0  0  0  0  0  0  0  0
   -8.2893    8.7195   -9.9713 N   0  0  0  0  0  0  0  0  0  0  0  0
   -8.4361    8.8492  -11.2847 N   0  0  0  0  0  0  0  0  0  0  0  0
   -7.3404    9.8857   -8.0208 C   0  0  0  0  0  0  0  0  0  0  0  0
   -5.4704   14.2158  -13.3316 C   0  0  0  0  0  0  0  0  0  0  0  0
   -4.5218   15.3458  -13.0035 C   0  0  0  0  0  0  0  0  0  0  0  0
   -5.5814   13.4696  -12.1774 N   0  0  0  0  0  0  0  0  0  0  0  0
   -5.9630   10.4847   -7.7359 C   0  0  0  0  0  0  0  0  0  0  0  0
   -5.8538   11.7563   -7.1621 C   0  0  0  0  0  0  0  0  0  0  0  0
   -4.5953   12.3060   -6.9160 C   0  0  0  0  0  0  0  0  0  0  0  0
   -3.4449   11.5852   -7.2379 C   0  0  0  0  0  0  0  0  0  0  0  0
   -3.5560   10.3115   -7.8043 C   0  0  0  0  0  0  0  0  0  0  0  0
   -4.8130    9.7655   -8.0531 C   0  0  0  0  0  0  0  0  0  0  0  0
   -2.0905   12.1634   -6.9778 C   0  0  0  0  0  0  0  0  0  0  0  0
   -1.7398   13.4211   -6.5005 C   0  0  0  0  0  0  0  0  0  0  0  0
   -0.4007   13.4556   -6.4362 N   0  0  3  0  0  0  0  0  0  0  0  0
    0.1858   12.3500   -6.8082 N   0  0  0  0  0  0  0  0  0  0  0  0
   -0.8018   11.5473   -7.1675 C   0  0  0  0  0  0  0  0  0  0  0  0
    0.4333   14.5672   -6.0053 C   0  0  0  0  0  0  0  0  0  0  0  0
   -6.0131   14.0330  -14.4162 O   0  0  0  0  0  0  0  0  0  0  0  0
   -4.6790   13.9767  -11.1295 C   0  0  0  0  0  0  0  0  0  0  0  0
   -4.0830   15.2556  -11.5883 C   0  0  0  0  0  0  0  0  0  0  0  0
   -5.5392   11.6037  -10.3400 H   0  0  0  0  0  0  0  0  0  0  0  0
   -7.0511   12.5504  -10.1285 H   0  0  0  0  0  0  0  0  0  0  0  0
   -8.2128   10.0638  -13.8816 H   0  0  0  0  0  0  0  0  0  0  0  0
   -6.8897   12.1539  -14.1098 H   0  0  0  0  0  0  0  0  0  0  0  0
   -8.0363    9.5960   -7.2473 H   0  0  0  0  0  0  0  0  0  0  0  0
   -4.2080   16.1098  -13.6994 H   0  0  0  0  0  0  0  0  0  0  0  0
   -6.7444   12.3126   -6.9096 H   0  0  0  0  0  0  0  0  0  0  0  0
   -4.5117   13.2890   -6.4765 H   0  0  0  0  0  0  0  0  0  0  0  0
   -2.6662    9.7505   -8.0491 H   0  0  0  0  0  0  0  0  0  0  0  0
   -4.8962    8.7826   -8.4928 H   0  0  0  0  0  0  0  0  0  0  0  0
   -2.1055   14.2006   -7.1850 H   0  0  0  0  0  0  0  0  0  0  0  0
   -2.1704   13.5795   -5.5008 H   0  0  0  0  0  0  0  0  0  0  0  0
   -0.6596   10.5498   -7.5564 H   0  0  0  0  0  0  0  0  0  0  0  0
    1.4925   14.2769   -6.0668 H   0  0  0  0  0  0  0  0  0  0  0  0
    0.2526   15.4350   -6.6567 H   0  0  0  0  0  0  0  0  0  0  0  0
    0.1851   14.8305   -4.9665 H   0  0  0  0  0  0  0  0  0  0  0  0
   -6.5611   13.2584  -14.3700 H   0  0  0  0  0  0  0  0  0  0  0  0
   -5.2469   14.1452  -10.2026 H   0  0  0  0  0  0  0  0  0  0  0  0
   -3.8809   13.2432  -10.9424 H   0  0  0  0  0  0  0  0  0  0  0  0
   -2.9857   15.2276  -11.5166 H   0  0  0  0  0  0  0  0  0  0  0  0
   -4.4673   16.1029  -11.0014 H   0  0  0  0  0  0  0  0  0  0  0  0
  1  2  1  0  0  0  0
  1  4  2  0  0  0  0
  1 13  1  0  0  0  0
  2  6  1  0  0  0  0
  3  4  1  0  0  0  0
  3  5  2  0  0  0  0
  5  6  1  0  0  0  0
  5  9  1  0  0  0  0
  6  7  2  0  0  0  0
  7  8  1  0  0  0  0
  7 10  1  0  0  0  0
  8  9  2  0  0  0  0
 10 14  2  0  0  0  0
 11 12  2  0  0  0  0
 11 13  1  0  0  0  0
 11 26  1  0  0  0  0
 12 28  1  0  0  0  0
 13 27  1  0  0  0  0
 14 15  1  0  0  0  0
 14 19  1  0  0  0  0
 15 16  2  0  0  0  0
 16 17  1  0  0  0  0
 17 18  1  0  0  0  0
 17 20  2  0  0  0  0
 18 19  2  0  0  0  0
 20 21  1  0  0  0  0
 20 24  1  0  0  0  0
 21 22  1  0  0  0  0
 22 23  1  0  0  0  0
 22 25  1  0  0  0  0
 23 24  2  0  0  0  0
 27 28  1  0  0  0  0
  2 29  1  0  0  0  0
  2 30  1  0  0  0  0
  3 31  1  0  0  0  0
  4 32  1  0  0  0  0
 10 33  1  0  0  0  0
 12 34  1  0  0  0  0
 15 35  1  0  0  0  0
 16 36  1  0  0  0  0
 18 37  1  0  0  0  0
 19 38  1  0  0  0  0
 21 39  1  0  0  0  0
 21 40  1  0  0  0  0
 24 41  1  0  0  0  0
 25 42  1  0  0  0  0
 25 43  1  0  0  0  0
 25 44  1  0  0  0  0
 26 45  1  0  0  0  0
 27 46  1  0  0  0  0
 27 47  1  0  0  0  0
 28 48  1  0  0  0  0
 28 49  1  0  0  0  0
M  END
> <Name>
26

> <IC50[uM]>
0.036

$$$$
26
  -OEChem-05192314333D
 Structure written by MMmdl.
 49 53  0     1  0  0  0  0  0999 V2000
   -6.3961   12.3155  -12.0234 C   0  0  0  0  0  0  0  0  0  0  0  0
   -6.5478   11.7864  -10.7392 C   0  0  0  0  0  0  0  0  0  0  0  0
   -7.7431   10.5278  -13.0269 C   0  0  0  0  0  0  0  0  0  0  0  0
   -7.0034   11.6993  -13.1368 C   0  0  0  0  0  0  0  0  0  0  0  0
   -7.8411    9.9886  -11.7443 C   0  0  0  0  0  0  0  0  0  0  0  0
   -7.2672   10.6062  -10.5986 C   0  0  3  0  0  0  0  0  0  0  0  0
   -7.6276    9.7408   -9.5022 C   0  0  0  0  0  0  0  0  0  0  0  0
   -8.2893    8.7195   -9.9713 N   0  0  0  0  0  0  0  0  0  0  0  0
   -8.4361    8.8492  -11.2847 N   0  0  0  0  0  0  0  0  0  0  0  0
   -7.3404    9.8857   -8.0208 C   0  0  0  0  0  0  0  0  0  0  0  0
   -5.4704   14.2158  -13.3316 C   0  0  0  0  0  0  0  0  0  0  0  0
   -4.5218   15.3458  -13.0035 C   0  0  0  0  0  0  0  0  0  0  0  0
   -5.5814   13.4696  -12.1774 N   0  0  0  0  0  0  0  0  0  0  0  0
   -5.9630   10.4847   -7.7359 C   0  0  0  0  0  0  0  0  0  0  0  0
   -5.8538   11.7563   -7.1621 C   0  0  0  0  0  0  0  0  0  0  0  0
   -4.5953   12.3060   -6.9160 C   0  0  0  0  0  0  0  0  0  0  0  0
   -3.4449   11.5852   -7.2379 C   0  0  0  0  0  0  0  0  0  0  0  0
   -3.5560   10.3115   -7.8043 C   0  0  0  0  0  0  0  0  0  0  0  0
   -4.8130    9.7655   -8.0531 C   0  0  0  0  0  0  0  0  0  0  0  0
   -2.0905   12.1634   -6.9778 C   0  0  0  0  0  0  0  0  0  0  0  0
   -1.7398   13.4211   -6.5005 C   0  0  0  0  0  0  0  0  0  0  0  0
   -0.4007   13.4556   -6.4362 N   0  0  0  0  0  0  0  0  0  0  0  0
    0.1858   12.3500   -6.8082 N   0  0  0  0  0  0  0  0  0  0  0  0
   -0.8018   11.5473   -7.1675 C   0  0  0  0  0  0  0  0  0  0  0  0
    0.4333   14.5672   -6.0053 C   0  0  0  0  0  0  0  0  0  0  0  0
   -6.0131   14.0330  -14.4162 O   0  0  0  0  0  0  0  0  0  0  0  0
   -4.6790   13.9767  -11.1295 C   0  0  0  0  0  0  0  0  0  0  0  0
   -4.0830   15.2556  -11.5883 C   0  0  0  0  0  0  0  0  0  0  0  0
   -6.1181   12.2807   -9.8804 H   0  0  0  0  0  0  0  0  0  0  0  0
   -8.2128   10.0638  -13.8816 H   0  0  0  0  0  0  0  0  0  0  0  0
   -6.8897   12.1539  -14.1098 H   0  0  0  0  0  0  0  0  0  0  0  0
   -8.1901   11.1852  -10.4467 H   0  0  0  0  0  0  0  0  0  0  0  0
   -8.0363    9.5960   -7.2473 H   0  0  0  0  0  0  0  0  0  0  0  0
   -4.2080   16.1098  -13.6994 H   0  0  0  0  0  0  0  0  0  0  0  0
   -6.7444   12.3126   -6.9096 H   0  0  0  0  0  0  0  0  0  0  0  0
   -4.5117   13.2890   -6.4765 H   0  0  0  0  0  0  0  0  0  0  0  0
   -3.4442   12.0330   -8.2426 H   0  0  0  0  0  0  0  0  0  0  0  0
   -2.6662    9.7505   -8.0491 H   0  0  0  0  0  0  0  0  0  0  0  0
   -4.8962    8.7826   -8.4928 H   0  0  0  0  0  0  0  0  0  0  0  0
   -2.4169   14.2186   -6.2325 H   0  0  0  0  0  0  0  0  0  0  0  0
   -0.6596   10.5498   -7.5564 H   0  0  0  0  0  0  0  0  0  0  0  0
    1.4925   14.2769   -6.0668 H   0  0  0  0  0  0  0  0  0  0  0  0
    0.2526   15.4350   -6.6567 H   0  0  0  0  0  0  0  0  0  0  0  0
    0.1851   14.8305   -4.9665 H   0  0  0  0  0  0  0  0  0  0  0  0
   -6.5611   13.2584  -14.3700 H   0  0  0  0  0  0  0  0  0  0  0  0
   -5.2469   14.1452  -10.2026 H   0  0  0  0  0  0  0  0  0  0  0  0
   -3.8809   13.2432  -10.9424 H   0  0  0  0  0  0  0  0  0  0  0  0
   -2.9857   15.2276  -11.5166 H   0  0  0  0  0  0  0  0  0  0  0  0
   -4.4673   16.1029  -11.0014 H   0  0  0  0  0  0  0  0  0  0  0  0
  1  2  2  0  0  0  0
  1  4  1  0  0  0  0
  1 13  1  0  0  0  0
  2  6  1  0  0  0  0
  3  4  2  0  0  0  0
  3  5  1  0  0  0  0
  5  6  1  0  0  0  0
  5  9  2  0  0  0  0
  6  7  1  0  0  0  0
  7  8  2  0  0  0  0
  7 10  1  0  0  0  0
  8  9  1  0  0  0  0
 10 14  2  0  0  0  0
 11 12  2  0  0  0  0
 11 13  1  0  0  0  0
 11 26  1  0  0  0  0
 12 28  1  0  0  0  0
 13 27  1  0  0  0  0
 14 15  1  0  0  0  0
 14 19  1  0  0  0  0
 15 16  2  0  0  0  0
 16 17  1  0  0  0  0
 17 18  1  0  0  0  0
 17 20  1  0  0  0  0
 18 19  2  0  0  0  0
 20 21  2  0  0  0  0
 20 24  1  0  0  0  0
 21 22  1  0  0  0  0
 22 23  1  0  0  0  0
 22 25  1  0  0  0  0
 23 24  2  0  0  0  0
 27 28  1  0  0  0  0
  2 29  1  0  0  0  0
  3 30  1  0  0  0  0
  4 31  1  0  0  0  0
  6 32  1  0  0  0  0
 10 33  1  0  0  0  0
 12 34  1  0  0  0  0
 15 35  1  0  0  0  0
 16 36  1  0  0  0  0
 17 37  1  0  0  0  0
 18 38  1  0  0  0  0
 19 39  1  0  0  0  0
 21 40  1  0  0  0  0
 24 41  1  0  0  0  0
 25 42  1  0  0  0  0
 25 43  1  0  0  0  0
 25 44  1  0  0  0  0
 26 45  1  0  0  0  0
 27 46  1  0  0  0  0
 27 47  1  0  0  0  0
 28 48  1  0  0  0  0
 28 49  1  0  0  0  0
M  END
> <Name>
26

> <IC50[uM]>
0.036

$$$$
26
  -OEChem-05192314333D
 Structure written by MMmdl.
 49 53  0     1  0  0  0  0  0999 V2000
   -6.3961   12.3155  -12.0234 C   0  0  3  0  0  0  0  0  0  0  0  0
   -6.5478   11.7864  -10.7392 C   0  0  0  0  0  0  0  0  0  0  0  0
   -7.7431   10.5278  -13.0269 C   0  0  0  0  0  0  0  0  0  0  0  0
   -7.0034   11.6993  -13.1368 C   0  0  0  0  0  0  0  0  0  0  0  0
   -7.8411    9.9886  -11.7443 C   0  0  0  0  0  0  0  0  0  0  0  0
   -7.2672   10.6062  -10.5986 C   0  0  0  0  0  0  0  0  0  0  0  0
   -7.6276    9.7408   -9.5022 C   0  0  0  0  0  0  0  0  0  0  0  0
   -8.2893    8.7195   -9.9713 N   0  0  0  0  0  0  0  0  0  0  0  0
   -8.4361    8.8492  -11.2847 N   0  0  0  0  0  0  0  0  0  0  0  0
   -7.3404    9.8857   -8.0208 C   0  0  0  0  0  0  0  0  0  0  0  0
   -5.4704   14.2158  -13.3316 C   0  0  0  0  0  0  0  0  0  0  0  0
   -4.5218   15.3458  -13.0035 C   0  0  0  0  0  0  0  0  0  0  0  0
   -5.5814   13.4696  -12.1774 N   0  0  3  0  0  0  0  0  0  0  0  0
   -5.9630   10.4847   -7.7359 C   0  0  0  0  0  0  0  0  0  0  0  0
   -5.8538   11.7563   -7.1621 C   0  0  0  0  0  0  0  0  0  0  0  0
   -4.5953   12.3060   -6.9160 C   0  0  0  0  0  0  0  0  0  0  0  0
   -3.4449   11.5852   -7.2379 C   0  0  0  0  0  0  0  0  0  0  0  0
   -3.5560   10.3115   -7.8043 C   0  0  0  0  0  0  0  0  0  0  0  0
   -4.8130    9.7655   -8.0531 C   0  0  0  0  0  0  0  0  0  0  0  0
   -2.0905   12.1634   -6.9778 C   0  0  0  0  0  0  0  0  0  0  0  0
   -1.7398   13.4211   -6.5005 C   0  0  0  0  0  0  0  0  0  0  0  0
   -0.4007   13.4556   -6.4362 N   0  0  0  0  0  0  0  0  0  0  0  0
    0.1858   12.3500   -6.8082 N   0  0  0  0  0  0  0  0  0  0  0  0
   -0.8018   11.5473   -7.1675 C   0  0  0  0  0  0  0  0  0  0  0  0
    0.4333   14.5672   -6.0053 C   0  0  0  0  0  0  0  0  0  0  0  0
   -6.0131   14.0330  -14.4162 O   0  0  0  0  0  0  0  0  0  0  0  0
   -4.6790   13.9767  -11.1295 C   0  0  0  0  0  0  0  0  0  0  0  0
   -4.0830   15.2556  -11.5883 C   0  0  0  0  0  0  0  0  0  0  0  0
   -7.2833   12.9493  -11.8778 H   0  0  0  0  0  0  0  0  0  0  0  0
   -6.1181   12.2807   -9.8804 H   0  0  0  0  0  0  0  0  0  0  0  0
   -8.2128   10.0638  -13.8816 H   0  0  0  0  0  0  0  0  0  0  0  0
   -6.8897   12.1539  -14.1098 H   0  0  0  0  0  0  0  0  0  0  0  0
   -8.0363    9.5960   -7.2473 H   0  0  0  0  0  0  0  0  0  0  0  0
   -4.2080   16.1098  -13.6994 H   0  0  0  0  0  0  0  0  0  0  0  0
   -6.7444   12.3126   -6.9096 H   0  0  0  0  0  0  0  0  0  0  0  0
   -4.5117   13.2890   -6.4765 H   0  0  0  0  0  0  0  0  0  0  0  0
   -3.4442   12.0330   -8.2426 H   0  0  0  0  0  0  0  0  0  0  0  0
   -2.6662    9.7505   -8.0491 H   0  0  0  0  0  0  0  0  0  0  0  0
   -4.8962    8.7826   -8.4928 H   0  0  0  0  0  0  0  0  0  0  0  0
   -2.4169   14.2186   -6.2325 H   0  0  0  0  0  0  0  0  0  0  0  0
   -0.6596   10.5498   -7.5564 H   0  0  0  0  0  0  0  0  0  0  0  0
    1.4925   14.2769   -6.0668 H   0  0  0  0  0  0  0  0  0  0  0  0
    0.2526   15.4350   -6.6567 H   0  0  0  0  0  0  0  0  0  0  0  0
    0.1851   14.8305   -4.9665 H   0  0  0  0  0  0  0  0  0  0  0  0
   -6.5611   13.2584  -14.3700 H   0  0  0  0  0  0  0  0  0  0  0  0
   -5.2469   14.1452  -10.2026 H   0  0  0  0  0  0  0  0  0  0  0  0
   -3.8809   13.2432  -10.9424 H   0  0  0  0  0  0  0  0  0  0  0  0
   -2.9857   15.2276  -11.5166 H   0  0  0  0  0  0  0  0  0  0  0  0
   -4.4673   16.1029  -11.0014 H   0  0  0  0  0  0  0  0  0  0  0  0
  1  2  1  0  0  0  0
  1  4  1  0  0  0  0
  1 13  1  0  0  0  0
  2  6  2  0  0  0  0
  3  4  2  0  0  0  0
  3  5  1  0  0  0  0
  5  6  1  0  0  0  0
  5  9  2  0  0  0  0
  6  7  1  0  0  0  0
  7  8  2  0  0  0  0
  7 10  1  0  0  0  0
  8  9  1  0  0  0  0
 10 14  2  0  0  0  0
 11 12  2  0  0  0  0
 11 13  1  0  0  0  0
 11 26  1  0  0  0  0
 12 28  1  0  0  0  0
 13 27  1  0  0  0  0
 14 15  1  0  0  0  0
 14 19  1  0  0  0  0
 15 16  2  0  0  0  0
 16 17  1  0  0  0  0
 17 18  1  0  0  0  0
 17 20  1  0  0  0  0
 18 19  2  0  0  0  0
 20 21  2  0  0  0  0
 20 24  1  0  0  0  0
 21 22  1  0  0  0  0
 22 23  1  0  0  0  0
 22 25  1  0  0  0  0
 23 24  2  0  0  0  0
 27 28  1  0  0  0  0
  1 29  1  0  0  0  0
  2 30  1  0  0  0  0
  3 31  1  0  0  0  0
  4 32  1  0  0  0  0
 10 33  1  0  0  0  0
 12 34  1  0  0  0  0
 15 35  1  0  0  0  0
 16 36  1  0  0  0  0
 17 37  1  0  0  0  0
 18 38  1  0  0  0  0
 19 39  1  0  0  0  0
 21 40  1  0  0  0  0
 24 41  1  0  0  0  0
 25 42  1  0  0  0  0
 25 43  1  0  0  0  0
 25 44  1  0  0  0  0
 26 45  1  0  0  0  0
 27 46  1  0  0  0  0
 27 47  1  0  0  0  0
 28 48  1  0  0  0  0
 28 49  1  0  0  0  0
M  END
> <Name>
26

> <IC50[uM]>
0.036

$$$$
26
  -OEChem-05192314333D
 Structure written by MMmdl.
 49 53  0     0  0  0  0  0  0999 V2000
   -6.3961   12.3155  -12.0234 C   0  0  0  0  0  0  0  0  0  0  0  0
   -6.5478   11.7864  -10.7392 C   0  0  0  0  0  0  0  0  0  0  0  0
   -7.7431   10.5278  -13.0269 C   0  0  0  0  0  0  0  0  0  0  0  0
   -7.0034   11.6993  -13.1368 C   0  0  0  0  0  0  0  0  0  0  0  0
   -7.8411    9.9886  -11.7443 C   0  0  0  0  0  0  0  0  0  0  0  0
   -7.2672   10.6062  -10.5986 C   0  0  0  0  0  0  0  0  0  0  0  0
   -7.6276    9.7408   -9.5022 C   0  0  0  0  0  0  0  0  0  0  0  0
   -8.2893    8.7195   -9.9713 N   0  0  0  0  0  0  0  0  0  0  0  0
   -8.4361    8.8492  -11.2847 N   0  0  0  0  0  0  0  0  0  0  0  0
   -7.3404    9.8857   -8.0208 C   0  0  0  0  0  0  0  0  0  0  0  0
   -5.4704   14.2158  -13.3316 C   0  0  0  0  0  0  0  0  0  0  0  0
   -4.5218   15.3458  -13.0035 C   0  0  0  0  0  0  0  0  0  0  0  0
   -5.5814   13.4696  -12.1774 N   0  0  0  0  0  0  0  0  0  0  0  0
   -5.9630   10.4847   -7.7359 C   0  0  0  0  0  0  0  0  0  0  0  0
   -5.8538   11.7563   -7.1621 C   0  0  0  0  0  0  0  0  0  0  0  0
   -4.5953   12.3060   -6.9160 C   0  0  0  0  0  0  0  0  0  0  0  0
   -3.4449   11.5852   -7.2379 C   0  0  0  0  0  0  0  0  0  0  0  0
   -3.5560   10.3115   -7.8043 C   0  0  0  0  0  0  0  0  0  0  0  0
   -4.8130    9.7655   -8.0531 C   0  0  0  0  0  0  0  0  0  0  0  0
   -2.0905   12.1634   -6.9778 C   0  0  0  0  0  0  0  0  0  0  0  0
   -1.7398   13.4211   -6.5005 C   0  0  0  0  0  0  0  0  0  0  0  0
   -0.4007   13.4556   -6.4362 N   0  0  0  0  0  0  0  0  0  0  0  0
    0.1858   12.3500   -6.8082 N   0  0  0  0  0  0  0  0  0  0  0  0
   -0.8018   11.5473   -7.1675 C   0  0  0  0  0  0  0  0  0  0  0  0
    0.4333   14.5672   -6.0053 C   0  0  0  0  0  0  0  0  0  0  0  0
   -6.0131   14.0330  -14.4162 O   0  0  0  0  0  0  0  0  0  0  0  0
   -4.6790   13.9767  -11.1295 C   0  0  0  0  0  0  0  0  0  0  0  0
   -4.0830   15.2556  -11.5883 C   0  0  0  0  0  0  0  0  0  0  0  0
   -6.1181   12.2807   -9.8804 H   0  0  0  0  0  0  0  0  0  0  0  0
   -8.7624   10.7378  -13.3832 H   0  0  0  0  0  0  0  0  0  0  0  0
   -7.2763    9.7721  -13.6757 H   0  0  0  0  0  0  0  0  0  0  0  0
   -6.8897   12.1539  -14.1098 H   0  0  0  0  0  0  0  0  0  0  0  0
   -8.0363    9.5960   -7.2473 H   0  0  0  0  0  0  0  0  0  0  0  0
   -4.2080   16.1098  -13.6994 H   0  0  0  0  0  0  0  0  0  0  0  0
   -6.7444   12.3126   -6.9096 H   0  0  0  0  0  0  0  0  0  0  0  0
   -4.5117   13.2890   -6.4765 H   0  0  0  0  0  0  0  0  0  0  0  0
   -3.4442   12.0330   -8.2426 H   0  0  0  0  0  0  0  0  0  0  0  0
   -2.6662    9.7505   -8.0491 H   0  0  0  0  0  0  0  0  0  0  0  0
   -4.8962    8.7826   -8.4928 H   0  0  0  0  0  0  0  0  0  0  0  0
   -2.4169   14.2186   -6.2325 H   0  0  0  0  0  0  0  0  0  0  0  0
   -0.6596   10.5498   -7.5564 H   0  0  0  0  0  0  0  0  0  0  0  0
    1.4925   14.2769   -6.0668 H   0  0  0  0  0  0  0  0  0  0  0  0
    0.2526   15.4350   -6.6567 H   0  0  0  0  0  0  0  0  0  0  0  0
    0.1851   14.8305   -4.9665 H   0  0  0  0  0  0  0  0  0  0  0  0
   -6.5611   13.2584  -14.3700 H   0  0  0  0  0  0  0  0  0  0  0  0
   -5.2469   14.1452  -10.2026 H   0  0  0  0  0  0  0  0  0  0  0  0
   -3.8809   13.2432  -10.9424 H   0  0  0  0  0  0  0  0  0  0  0  0
   -2.9857   15.2276  -11.5166 H   0  0  0  0  0  0  0  0  0  0  0  0
   -4.4673   16.1029  -11.0014 H   0  0  0  0  0  0  0  0  0  0  0  0
  1  2  1  0  0  0  0
  1  4  2  0  0  0  0
  1 13  1  0  0  0  0
  2  6  2  0  0  0  0
  3  4  1  0  0  0  0
  3  5  1  0  0  0  0
  5  6  1  0  0  0  0
  5  9  2  0  0  0  0
  6  7  1  0  0  0  0
  7  8  2  0  0  0  0
  7 10  1  0  0  0  0
  8  9  1  0  0  0  0
 10 14  2  0  0  0  0
 11 12  2  0  0  0  0
 11 13  1  0  0  0  0
 11 26  1  0  0  0  0
 12 28  1  0  0  0  0
 13 27  1  0  0  0  0
 14 15  1  0  0  0  0
 14 19  1  0  0  0  0
 15 16  2  0  0  0  0
 16 17  1  0  0  0  0
 17 18  1  0  0  0  0
 17 20  1  0  0  0  0
 18 19  2  0  0  0  0
 20 21  2  0  0  0  0
 20 24  1  0  0  0  0
 21 22  1  0  0  0  0
 22 23  1  0  0  0  0
 22 25  1  0  0  0  0
 23 24  2  0  0  0  0
 27 28  1  0  0  0  0
  2 29  1  0  0  0  0
  3 30  1  0  0  0  0
  3 31  1  0  0  0  0
  4 32  1  0  0  0  0
 10 33  1  0  0  0  0
 12 34  1  0  0  0  0
 15 35  1  0  0  0  0
 16 36  1  0  0  0  0
 17 37  1  0  0  0  0
 18 38  1  0  0  0  0
 19 39  1  0  0  0  0
 21 40  1  0  0  0  0
 24 41  1  0  0  0  0
 25 42  1  0  0  0  0
 25 43  1  0  0  0  0
 25 44  1  0  0  0  0
 26 45  1  0  0  0  0
 27 46  1  0  0  0  0
 27 47  1  0  0  0  0
 28 48  1  0  0  0  0
 28 49  1  0  0  0  0
M  END
> <Name>
26

> <IC50[uM]>
0.036

$$$$
26
  -OEChem-05192314333D
 Structure written by MMmdl.
 49 53  0     1  0  0  0  0  0999 V2000
   -6.3961   12.3155  -12.0234 C   0  0  0  0  0  0  0  0  0  0  0  0
   -6.5478   11.7864  -10.7392 C   0  0  0  0  0  0  0  0  0  0  0  0
   -7.7431   10.5278  -13.0269 C   0  0  0  0  0  0  0  0  0  0  0  0
   -7.0034   11.6993  -13.1368 C   0  0  0  0  0  0  0  0  0  0  0  0
   -7.8411    9.9886  -11.7443 C   0  0  0  0  0  0  0  0  0  0  0  0
   -7.2672   10.6062  -10.5986 C   0  0  3  0  0  0  0  0  0  0  0  0
   -7.6276    9.7408   -9.5022 C   0  0  0  0  0  0  0  0  0  0  0  0
   -8.2893    8.7195   -9.9713 N   0  0  0  0  0  0  0  0  0  0  0  0
   -8.4361    8.8492  -11.2847 N   0  0  0  0  0  0  0  0  0  0  0  0
   -7.3404    9.8857   -8.0208 C   0  0  0  0  0  0  0  0  0  0  0  0
   -5.4704   14.2158  -13.3316 C   0  0  0  0  0  0  0  0  0  0  0  0
   -4.5218   15.3458  -13.0035 C   0  0  0  0  0  0  0  0  0  0  0  0
   -5.5814   13.4696  -12.1774 N   0  0  0  0  0  0  0  0  0  0  0  0
   -5.9630   10.4847   -7.7359 C   0  0  0  0  0  0  0  0  0  0  0  0
   -5.8538   11.7563   -7.1621 C   0  0  0  0  0  0  0  0  0  0  0  0
   -4.5953   12.3060   -6.9160 C   0  0  0  0  0  0  0  0  0  0  0  0
   -3.4449   11.5852   -7.2379 C   0  0  0  0  0  0  0  0  0  0  0  0
   -3.5560   10.3115   -7.8043 C   0  0  0  0  0  0  0  0  0  0  0  0
   -4.8130    9.7655   -8.0531 C   0  0  0  0  0  0  0  0  0  0  0  0
   -2.0905   12.1634   -6.9778 C   0  0  0  0  0  0  0  0  0  0  0  0
   -1.7398   13.4211   -6.5005 C   0  0  0  0  0  0  0  0  0  0  0  0
   -0.4007   13.4556   -6.4362 N   0  0  0  0  0  0  0  0  0  0  0  0
    0.1858   12.3500   -6.8082 N   0  0  0  0  0  0  0  0  0  0  0  0
   -0.8018   11.5473   -7.1675 C   0  0  0  0  0  0  0  0  0  0  0  0
    0.4333   14.5672   -6.0053 C   0  0  0  0  0  0  0  0  0  0  0  0
   -6.0131   14.0330  -14.4162 O   0  0  0  0  0  0  0  0  0  0  0  0
   -4.6790   13.9767  -11.1295 C   0  0  0  0  0  0  0  0  0  0  0  0
   -4.0830   15.2556  -11.5883 C   0  0  0  0  0  0  0  0  0  0  0  0
   -6.1181   12.2807   -9.8804 H   0  0  0  0  0  0  0  0  0  0  0  0
   -8.2128   10.0638  -13.8816 H   0  0  0  0  0  0  0  0  0  0  0  0
   -6.8897   12.1539  -14.1098 H   0  0  0  0  0  0  0  0  0  0  0  0
   -8.1901   11.1852  -10.4467 H   0  0  0  0  0  0  0  0  0  0  0  0
   -8.0363    9.5960   -7.2473 H   0  0  0  0  0  0  0  0  0  0  0  0
   -4.2080   16.1098  -13.6994 H   0  0  0  0  0  0  0  0  0  0  0  0
   -6.7444   12.3126   -6.9096 H   0  0  0  0  0  0  0  0  0  0  0  0
   -4.5117   13.2890   -6.4765 H   0  0  0  0  0  0  0  0  0  0  0  0
   -2.6662    9.7505   -8.0491 H   0  0  0  0  0  0  0  0  0  0  0  0
   -4.8650    8.8210   -7.4917 H   0  0  0  0  0  0  0  0  0  0  0  0
   -4.8588    9.5541   -9.1316 H   0  0  0  0  0  0  0  0  0  0  0  0
   -2.4169   14.2186   -6.2325 H   0  0  0  0  0  0  0  0  0  0  0  0
   -0.6596   10.5498   -7.5564 H   0  0  0  0  0  0  0  0  0  0  0  0
    1.4925   14.2769   -6.0668 H   0  0  0  0  0  0  0  0  0  0  0  0
    0.2526   15.4350   -6.6567 H   0  0  0  0  0  0  0  0  0  0  0  0
    0.1851   14.8305   -4.9665 H   0  0  0  0  0  0  0  0  0  0  0  0
   -6.5611   13.2584  -14.3700 H   0  0  0  0  0  0  0  0  0  0  0  0
   -5.2469   14.1452  -10.2026 H   0  0  0  0  0  0  0  0  0  0  0  0
   -3.8809   13.2432  -10.9424 H   0  0  0  0  0  0  0  0  0  0  0  0
   -2.9857   15.2276  -11.5166 H   0  0  0  0  0  0  0  0  0  0  0  0
   -4.4673   16.1029  -11.0014 H   0  0  0  0  0  0  0  0  0  0  0  0
  1  2  2  0  0  0  0
  1  4  1  0  0  0  0
  1 13  1  0  0  0  0
  2  6  1  0  0  0  0
  3  4  2  0  0  0  0
  3  5  1  0  0  0  0
  5  6  1  0  0  0  0
  5  9  2  0  0  0  0
  6  7  1  0  0  0  0
  7  8  2  0  0  0  0
  7 10  1  0  0  0  0
  8  9  1  0  0  0  0
 10 14  2  3  0  0  0
 11 12  2  0  0  0  0
 11 13  1  0  0  0  0
 11 26  1  0  0  0  0
 12 28  1  0  0  0  0
 13 27  1  0  0  0  0
 14 15  1  0  0  0  0
 14 19  1  0  0  0  0
 15 16  2  0  0  0  0
 16 17  1  0  0  0  0
 17 18  2  0  0  0  0
 17 20  1  0  0  0  0
 18 19  1  0  0  0  0
 20 21  2  0  0  0  0
 20 24  1  0  0  0  0
 21 22  1  0  0  0  0
 22 23  1  0  0  0  0
 22 25  1  0  0  0  0
 23 24  2  0  0  0  0
 27 28  1  0  0  0  0
  2 29  1  0  0  0  0
  3 30  1  0  0  0  0
  4 31  1  0  0  0  0
  6 32  1  0  0  0  0
 10 33  1  0  0  0  0
 12 34  1  0  0  0  0
 15 35  1  0  0  0  0
 16 36  1  0  0  0  0
 18 37  1  0  0  0  0
 19 38  1  0  0  0  0
 19 39  1  0  0  0  0
 21 40  1  0  0  0  0
 24 41  1  0  0  0  0
 25 42  1  0  0  0  0
 25 43  1  0  0  0  0
 25 44  1  0  0  0  0
 26 45  1  0  0  0  0
 27 46  1  0  0  0  0
 27 47  1  0  0  0  0
 28 48  1  0  0  0  0
 28 49  1  0  0  0  0
M  END
> <Name>
26

> <IC50[uM]>
0.036

$$$$
26
  -OEChem-05192314333D
 Structure written by MMmdl.
 49 53  0     1  0  0  0  0  0999 V2000
   -6.3961   12.3155  -12.0234 C   0  0  3  0  0  0  0  0  0  0  0  0
   -6.5478   11.7864  -10.7392 C   0  0  0  0  0  0  0  0  0  0  0  0
   -7.7431   10.5278  -13.0269 C   0  0  0  0  0  0  0  0  0  0  0  0
   -7.0034   11.6993  -13.1368 C   0  0  0  0  0  0  0  0  0  0  0  0
   -7.8411    9.9886  -11.7443 C   0  0  0  0  0  0  0  0  0  0  0  0
   -7.2672   10.6062  -10.5986 C   0  0  0  0  0  0  0  0  0  0  0  0
   -7.6276    9.7408   -9.5022 C   0  0  0  0  0  0  0  0  0  0  0  0
   -8.2893    8.7195   -9.9713 N   0  0  0  0  0  0  0  0  0  0  0  0
   -8.4361    8.8492  -11.2847 N   0  0  0  0  0  0  0  0  0  0  0  0
   -7.3404    9.8857   -8.0208 C   0  0  0  0  0  0  0  0  0  0  0  0
   -5.4704   14.2158  -13.3316 C   0  0  0  0  0  0  0  0  0  0  0  0
   -4.5218   15.3458  -13.0035 C   0  0  0  0  0  0  0  0  0  0  0  0
   -5.5814   13.4696  -12.1774 N   0  0  3  0  0  0  0  0  0  0  0  0
   -5.9630   10.4847   -7.7359 C   0  0  0  0  0  0  0  0  0  0  0  0
   -5.8538   11.7563   -7.1621 C   0  0  0  0  0  0  0  0  0  0  0  0
   -4.5953   12.3060   -6.9160 C   0  0  0  0  0  0  0  0  0  0  0  0
   -3.4449   11.5852   -7.2379 C   0  0  0  0  0  0  0  0  0  0  0  0
   -3.5560   10.3115   -7.8043 C   0  0  0  0  0  0  0  0  0  0  0  0
   -4.8130    9.7655   -8.0531 C   0  0  0  0  0  0  0  0  0  0  0  0
   -2.0905   12.1634   -6.9778 C   0  0  0  0  0  0  0  0  0  0  0  0
   -1.7398   13.4211   -6.5005 C   0  0  0  0  0  0  0  0  0  0  0  0
   -0.4007   13.4556   -6.4362 N   0  0  0  0  0  0  0  0  0  0  0  0
    0.1858   12.3500   -6.8082 N   0  0  0  0  0  0  0  0  0  0  0  0
   -0.8018   11.5473   -7.1675 C   0  0  0  0  0  0  0  0  0  0  0  0
    0.4333   14.5672   -6.0053 C   0  0  0  0  0  0  0  0  0  0  0  0
   -6.0131   14.0330  -14.4162 O   0  0  0  0  0  0  0  0  0  0  0  0
   -4.6790   13.9767  -11.1295 C   0  0  0  0  0  0  0  0  0  0  0  0
   -4.0830   15.2556  -11.5883 C   0  0  0  0  0  0  0  0  0  0  0  0
   -7.2833   12.9493  -11.8778 H   0  0  0  0  0  0  0  0  0  0  0  0
   -6.1181   12.2807   -9.8804 H   0  0  0  0  0  0  0  0  0  0  0  0
   -8.2128   10.0638  -13.8816 H   0  0  0  0  0  0  0  0  0  0  0  0
   -6.8897   12.1539  -14.1098 H   0  0  0  0  0  0  0  0  0  0  0  0
   -8.0363    9.5960   -7.2473 H   0  0  0  0  0  0  0  0  0  0  0  0
   -4.2080   16.1098  -13.6994 H   0  0  0  0  0  0  0  0  0  0  0  0
   -6.7444   12.3126   -6.9096 H   0  0  0  0  0  0  0  0  0  0  0  0
   -4.5117   13.2890   -6.4765 H   0  0  0  0  0  0  0  0  0  0  0  0
   -2.6662    9.7505   -8.0491 H   0  0  0  0  0  0  0  0  0  0  0  0
   -4.8650    8.8210   -7.4917 H   0  0  0  0  0  0  0  0  0  0  0  0
   -4.8588    9.5541   -9.1316 H   0  0  0  0  0  0  0  0  0  0  0  0
   -2.4169   14.2186   -6.2325 H   0  0  0  0  0  0  0  0  0  0  0  0
   -0.6596   10.5498   -7.5564 H   0  0  0  0  0  0  0  0  0  0  0  0
    1.4925   14.2769   -6.0668 H   0  0  0  0  0  0  0  0  0  0  0  0
    0.2526   15.4350   -6.6567 H   0  0  0  0  0  0  0  0  0  0  0  0
    0.1851   14.8305   -4.9665 H   0  0  0  0  0  0  0  0  0  0  0  0
   -6.5611   13.2584  -14.3700 H   0  0  0  0  0  0  0  0  0  0  0  0
   -5.2469   14.1452  -10.2026 H   0  0  0  0  0  0  0  0  0  0  0  0
   -3.8809   13.2432  -10.9424 H   0  0  0  0  0  0  0  0  0  0  0  0
   -2.9857   15.2276  -11.5166 H   0  0  0  0  0  0  0  0  0  0  0  0
   -4.4673   16.1029  -11.0014 H   0  0  0  0  0  0  0  0  0  0  0  0
  1  2  1  0  0  0  0
  1  4  1  0  0  0  0
  1 13  1  0  0  0  0
  2  6  2  0  0  0  0
  3  4  2  0  0  0  0
  3  5  1  0  0  0  0
  5  6  1  0  0  0  0
  5  9  2  0  0  0  0
  6  7  1  0  0  0  0
  7  8  2  0  0  0  0
  7 10  1  0  0  0  0
  8  9  1  0  0  0  0
 10 14  2  3  0  0  0
 11 12  2  0  0  0  0
 11 13  1  0  0  0  0
 11 26  1  0  0  0  0
 12 28  1  0  0  0  0
 13 27  1  0  0  0  0
 14 15  1  0  0  0  0
 14 19  1  0  0  0  0
 15 16  2  0  0  0  0
 16 17  1  0  0  0  0
 17 18  2  0  0  0  0
 17 20  1  0  0  0  0
 18 19  1  0  0  0  0
 20 21  2  0  0  0  0
 20 24  1  0  0  0  0
 21 22  1  0  0  0  0
 22 23  1  0  0  0  0
 22 25  1  0  0  0  0
 23 24  2  0  0  0  0
 27 28  1  0  0  0  0
  1 29  1  0  0  0  0
  2 30  1  0  0  0  0
  3 31  1  0  0  0  0
  4 32  1  0  0  0  0
 10 33  1  0  0  0  0
 12 34  1  0  0  0  0
 15 35  1  0  0  0  0
 16 36  1  0  0  0  0
 18 37  1  0  0  0  0
 19 38  1  0  0  0  0
 19 39  1  0  0  0  0
 21 40  1  0  0  0  0
 24 41  1  0  0  0  0
 25 42  1  0  0  0  0
 25 43  1  0  0  0  0
 25 44  1  0  0  0  0
 26 45  1  0  0  0  0
 27 46  1  0  0  0  0
 27 47  1  0  0  0  0
 28 48  1  0  0  0  0
 28 49  1  0  0  0  0
M  END
> <Name>
26

> <IC50[uM]>
0.036

$$$$
26
  -OEChem-05192314333D
 Structure written by MMmdl.
 49 53  0     0  0  0  0  0  0999 V2000
   -6.3961   12.3155  -12.0234 C   0  0  0  0  0  0  0  0  0  0  0  0
   -6.5478   11.7864  -10.7392 C   0  0  0  0  0  0  0  0  0  0  0  0
   -7.7431   10.5278  -13.0269 C   0  0  0  0  0  0  0  0  0  0  0  0
   -7.0034   11.6993  -13.1368 C   0  0  0  0  0  0  0  0  0  0  0  0
   -7.8411    9.9886  -11.7443 C   0  0  0  0  0  0  0  0  0  0  0  0
   -7.2672   10.6062  -10.5986 C   0  0  0  0  0  0  0  0  0  0  0  0
   -7.6276    9.7408   -9.5022 C   0  0  0  0  0  0  0  0  0  0  0  0
   -8.2893    8.7195   -9.9713 N   0  0  0  0  0  0  0  0  0  0  0  0
   -8.4361    8.8492  -11.2847 N   0  0  0  0  0  0  0  0  0  0  0  0
   -7.3404    9.8857   -8.0208 C   0  0  0  0  0  0  0  0  0  0  0  0
   -5.4704   14.2158  -13.3316 C   0  0  0  0  0  0  0  0  0  0  0  0
   -4.5218   15.3458  -13.0035 C   0  0  0  0  0  0  0  0  0  0  0  0
   -5.5814   13.4696  -12.1774 N   0  0  0  0  0  0  0  0  0  0  0  0
   -5.9630   10.4847   -7.7359 C   0  0  0  0  0  0  0  0  0  0  0  0
   -5.8538   11.7563   -7.1621 C   0  0  0  0  0  0  0  0  0  0  0  0
   -4.5953   12.3060   -6.9160 C   0  0  0  0  0  0  0  0  0  0  0  0
   -3.4449   11.5852   -7.2379 C   0  0  0  0  0  0  0  0  0  0  0  0
   -3.5560   10.3115   -7.8043 C   0  0  0  0  0  0  0  0  0  0  0  0
   -4.8130    9.7655   -8.0531 C   0  0  0  0  0  0  0  0  0  0  0  0
   -2.0905   12.1634   -6.9778 C   0  0  0  0  0  0  0  0  0  0  0  0
   -1.7398   13.4211   -6.5005 C   0  0  0  0  0  0  0  0  0  0  0  0
   -0.4007   13.4556   -6.4362 N   0  0  0  0  0  0  0  0  0  0  0  0
    0.1858   12.3500   -6.8082 N   0  0  0  0  0  0  0  0  0  0  0  0
   -0.8018   11.5473   -7.1675 C   0  0  0  0  0  0  0  0  0  0  0  0
    0.4333   14.5672   -6.0053 C   0  0  0  0  0  0  0  0  0  0  0  0
   -6.0131   14.0330  -14.4162 O   0  0  0  0  0  0  0  0  0  0  0  0
   -4.6790   13.9767  -11.1295 C   0  0  0  0  0  0  0  0  0  0  0  0
   -4.0830   15.2556  -11.5883 C   0  0  0  0  0  0  0  0  0  0  0  0
   -6.1181   12.2807   -9.8804 H   0  0  0  0  0  0  0  0  0  0  0  0
   -8.7624   10.7378  -13.3832 H   0  0  0  0  0  0  0  0  0  0  0  0
   -7.2763    9.7721  -13.6757 H   0  0  0  0  0  0  0  0  0  0  0  0
   -6.8897   12.1539  -14.1098 H   0  0  0  0  0  0  0  0  0  0  0  0
   -8.0363    9.5960   -7.2473 H   0  0  0  0  0  0  0  0  0  0  0  0
   -4.2080   16.1098  -13.6994 H   0  0  0  0  0  0  0  0  0  0  0  0
   -6.7444   12.3126   -6.9096 H   0  0  0  0  0  0  0  0  0  0  0  0
   -4.5117   13.2890   -6.4765 H   0  0  0  0  0  0  0  0  0  0  0  0
   -2.6662    9.7505   -8.0491 H   0  0  0  0  0  0  0  0  0  0  0  0
   -4.8650    8.8210   -7.4917 H   0  0  0  0  0  0  0  0  0  0  0  0
   -4.8588    9.5541   -9.1316 H   0  0  0  0  0  0  0  0  0  0  0  0
   -2.4169   14.2186   -6.2325 H   0  0  0  0  0  0  0  0  0  0  0  0
   -0.6596   10.5498   -7.5564 H   0  0  0  0  0  0  0  0  0  0  0  0
    1.4925   14.2769   -6.0668 H   0  0  0  0  0  0  0  0  0  0  0  0
    0.2526   15.4350   -6.6567 H   0  0  0  0  0  0  0  0  0  0  0  0
    0.1851   14.8305   -4.9665 H   0  0  0  0  0  0  0  0  0  0  0  0
   -6.5611   13.2584  -14.3700 H   0  0  0  0  0  0  0  0  0  0  0  0
   -5.2469   14.1452  -10.2026 H   0  0  0  0  0  0  0  0  0  0  0  0
   -3.8809   13.2432  -10.9424 H   0  0  0  0  0  0  0  0  0  0  0  0
   -2.9857   15.2276  -11.5166 H   0  0  0  0  0  0  0  0  0  0  0  0
   -4.4673   16.1029  -11.0014 H   0  0  0  0  0  0  0  0  0  0  0  0
  1  2  1  0  0  0  0
  1  4  2  0  0  0  0
  1 13  1  0  0  0  0
  2  6  2  0  0  0  0
  3  4  1  0  0  0  0
  3  5  1  0  0  0  0
  5  6  1  0  0  0  0
  5  9  2  0  0  0  0
  6  7  1  0  0  0  0
  7  8  2  0  0  0  0
  7 10  1  0  0  0  0
  8  9  1  0  0  0  0
 10 14  2  3  0  0  0
 11 12  2  0  0  0  0
 11 13  1  0  0  0  0
 11 26  1  0  0  0  0
 12 28  1  0  0  0  0
 13 27  1  0  0  0  0
 14 15  1  0  0  0  0
 14 19  1  0  0  0  0
 15 16  2  0  0  0  0
 16 17  1  0  0  0  0
 17 18  2  0  0  0  0
 17 20  1  0  0  0  0
 18 19  1  0  0  0  0
 20 21  2  0  0  0  0
 20 24  1  0  0  0  0
 21 22  1  0  0  0  0
 22 23  1  0  0  0  0
 22 25  1  0  0  0  0
 23 24  2  0  0  0  0
 27 28  1  0  0  0  0
  2 29  1  0  0  0  0
  3 30  1  0  0  0  0
  3 31  1  0  0  0  0
  4 32  1  0  0  0  0
 10 33  1  0  0  0  0
 12 34  1  0  0  0  0
 15 35  1  0  0  0  0
 16 36  1  0  0  0  0
 18 37  1  0  0  0  0
 19 38  1  0  0  0  0
 19 39  1  0  0  0  0
 21 40  1  0  0  0  0
 24 41  1  0  0  0  0
 25 42  1  0  0  0  0
 25 43  1  0  0  0  0
 25 44  1  0  0  0  0
 26 45  1  0  0  0  0
 27 46  1  0  0  0  0
 27 47  1  0  0  0  0
 28 48  1  0  0  0  0
 28 49  1  0  0  0  0
M  END
> <Name>
26

> <IC50[uM]>
0.036

$$$$
26
  -OEChem-05192314333D
 Structure written by MMmdl.
 49 53  0     1  0  0  0  0  0999 V2000
   -6.3961   12.3155  -12.0234 C   0  0  0  0  0  0  0  0  0  0  0  0
   -6.5478   11.7864  -10.7392 C   0  0  0  0  0  0  0  0  0  0  0  0
   -7.7431   10.5278  -13.0269 C   0  0  0  0  0  0  0  0  0  0  0  0
   -7.0034   11.6993  -13.1368 C   0  0  0  0  0  0  0  0  0  0  0  0
   -7.8411    9.9886  -11.7443 C   0  0  3  0  0  0  0  0  0  0  0  0
   -7.2672   10.6062  -10.5986 C   0  0  0  0  0  0  0  0  0  0  0  0
   -7.6276    9.7408   -9.5022 C   0  0  0  0  0  0  0  0  0  0  0  0
   -8.2893    8.7195   -9.9713 N   0  0  0  0  0  0  0  0  0  0  0  0
   -8.4361    8.8492  -11.2847 N   0  0  0  0  0  0  0  0  0  0  0  0
   -7.3404    9.8857   -8.0208 C   0  0  0  0  0  0  0  0  0  0  0  0
   -5.4704   14.2158  -13.3316 C   0  0  0  0  0  0  0  0  0  0  0  0
   -4.5218   15.3458  -13.0035 C   0  0  0  0  0  0  0  0  0  0  0  0
   -5.5814   13.4696  -12.1774 N   0  0  0  0  0  0  0  0  0  0  0  0
   -5.9630   10.4847   -7.7359 C   0  0  0  0  0  0  0  0  0  0  0  0
   -5.8538   11.7563   -7.1621 C   0  0  0  0  0  0  0  0  0  0  0  0
   -4.5953   12.3060   -6.9160 C   0  0  0  0  0  0  0  0  0  0  0  0
   -3.4449   11.5852   -7.2379 C   0  0  0  0  0  0  0  0  0  0  0  0
   -3.5560   10.3115   -7.8043 C   0  0  0  0  0  0  0  0  0  0  0  0
   -4.8130    9.7655   -8.0531 C   0  0  0  0  0  0  0  0  0  0  0  0
   -2.0905   12.1634   -6.9778 C   0  0  0  0  0  0  0  0  0  0  0  0
   -1.7398   13.4211   -6.5005 C   0  0  0  0  0  0  0  0  0  0  0  0
   -0.4007   13.4556   -6.4362 N   0  0  0  0  0  0  0  0  0  0  0  0
    0.1858   12.3500   -6.8082 N   0  0  0  0  0  0  0  0  0  0  0  0
   -0.8018   11.5473   -7.1675 C   0  0  0  0  0  0  0  0  0  0  0  0
    0.4333   14.5672   -6.0053 C   0  0  0  0  0  0  0  0  0  0  0  0
   -6.0131   14.0330  -14.4162 O   0  0  0  0  0  0  0  0  0  0  0  0
   -4.6790   13.9767  -11.1295 C   0  0  0  0  0  0  0  0  0  0  0  0
   -4.0830   15.2556  -11.5883 C   0  0  0  0  0  0  0  0  0  0  0  0
   -6.1181   12.2807   -9.8804 H   0  0  0  0  0  0  0  0  0  0  0  0
   -8.2128   10.0638  -13.8816 H   0  0  0  0  0  0  0  0  0  0  0  0
   -6.8897   12.1539  -14.1098 H   0  0  0  0  0  0  0  0  0  0  0  0
   -8.7752   10.5456  -11.5792 H   0  0  0  0  0  0  0  0  0  0  0  0
   -8.0363    9.5960   -7.2473 H   0  0  0  0  0  0  0  0  0  0  0  0
   -4.2080   16.1098  -13.6994 H   0  0  0  0  0  0  0  0  0  0  0  0
   -6.7444   12.3126   -6.9096 H   0  0  0  0  0  0  0  0  0  0  0  0
   -4.5117   13.2890   -6.4765 H   0  0  0  0  0  0  0  0  0  0  0  0
   -3.4442   12.0330   -8.2426 H   0  0  0  0  0  0  0  0  0  0  0  0
   -2.6662    9.7505   -8.0491 H   0  0  0  0  0  0  0  0  0  0  0  0
   -4.8962    8.7826   -8.4928 H   0  0  0  0  0  0  0  0  0  0  0  0
   -2.4169   14.2186   -6.2325 H   0  0  0  0  0  0  0  0  0  0  0  0
   -0.6596   10.5498   -7.5564 H   0  0  0  0  0  0  0  0  0  0  0  0
    1.4925   14.2769   -6.0668 H   0  0  0  0  0  0  0  0  0  0  0  0
    0.2526   15.4350   -6.6567 H   0  0  0  0  0  0  0  0  0  0  0  0
    0.1851   14.8305   -4.9665 H   0  0  0  0  0  0  0  0  0  0  0  0
   -6.5611   13.2584  -14.3700 H   0  0  0  0  0  0  0  0  0  0  0  0
   -5.2469   14.1452  -10.2026 H   0  0  0  0  0  0  0  0  0  0  0  0
   -3.8809   13.2432  -10.9424 H   0  0  0  0  0  0  0  0  0  0  0  0
   -2.9857   15.2276  -11.5166 H   0  0  0  0  0  0  0  0  0  0  0  0
   -4.4673   16.1029  -11.0014 H   0  0  0  0  0  0  0  0  0  0  0  0
  1  2  2  0  0  0  0
  1  4  1  0  0  0  0
  1 13  1  0  0  0  0
  2  6  1  0  0  0  0
  3  4  2  0  0  0  0
  3  5  1  0  0  0  0
  5  6  1  0  0  0  0
  5  9  1  0  0  0  0
  6  7  2  0  0  0  0
  7  8  1  0  0  0  0
  7 10  1  0  0  0  0
  8  9  2  0  0  0  0
 10 14  2  0  0  0  0
 11 12  2  0  0  0  0
 11 13  1  0  0  0  0
 11 26  1  0  0  0  0
 12 28  1  0  0  0  0
 13 27  1  0  0  0  0
 14 15  1  0  0  0  0
 14 19  1  0  0  0  0
 15 16  2  0  0  0  0
 16 17  1  0  0  0  0
 17 18  1  0  0  0  0
 17 20  1  0  0  0  0
 18 19  2  0  0  0  0
 20 21  2  0  0  0  0
 20 24  1  0  0  0  0
 21 22  1  0  0  0  0
 22 23  1  0  0  0  0
 22 25  1  0  0  0  0
 23 24  2  0  0  0  0
 27 28  1  0  0  0  0
  2 29  1  0  0  0  0
  3 30  1  0  0  0  0
  4 31  1  0  0  0  0
  5 32  1  0  0  0  0
 10 33  1  0  0  0  0
 12 34  1  0  0  0  0
 15 35  1  0  0  0  0
 16 36  1  0  0  0  0
 17 37  1  0  0  0  0
 18 38  1  0  0  0  0
 19 39  1  0  0  0  0
 21 40  1  0  0  0  0
 24 41  1  0  0  0  0
 25 42  1  0  0  0  0
 25 43  1  0  0  0  0
 25 44  1  0  0  0  0
 26 45  1  0  0  0  0
 27 46  1  0  0  0  0
 27 47  1  0  0  0  0
 28 48  1  0  0  0  0
 28 49  1  0  0  0  0
M  END
> <Name>
26

> <IC50[uM]>
0.036

$$$$
26
  -OEChem-05192314333D
 Structure written by MMmdl.
 49 53  0     0  0  0  0  0  0999 V2000
   -6.3961   12.3155  -12.0234 C   0  0  0  0  0  0  0  0  0  0  0  0
   -6.5478   11.7864  -10.7392 C   0  0  0  0  0  0  0  0  0  0  0  0
   -7.7431   10.5278  -13.0269 C   0  0  0  0  0  0  0  0  0  0  0  0
   -7.0034   11.6993  -13.1368 C   0  0  0  0  0  0  0  0  0  0  0  0
   -7.8411    9.9886  -11.7443 C   0  0  0  0  0  0  0  0  0  0  0  0
   -7.2672   10.6062  -10.5986 C   0  0  0  0  0  0  0  0  0  0  0  0
   -7.6276    9.7408   -9.5022 C   0  0  0  0  0  0  0  0  0  0  0  0
   -8.2893    8.7195   -9.9713 N   0  0  0  0  0  0  0  0  0  0  0  0
   -8.4361    8.8492  -11.2847 N   0  0  0  0  0  0  0  0  0  0  0  0
   -7.3404    9.8857   -8.0208 C   0  0  0  0  0  0  0  0  0  0  0  0
   -5.4704   14.2158  -13.3316 C   0  0  0  0  0  0  0  0  0  0  0  0
   -4.5218   15.3458  -13.0035 C   0  0  0  0  0  0  0  0  0  0  0  0
   -5.5814   13.4696  -12.1774 N   0  0  0  0  0  0  0  0  0  0  0  0
   -5.9630   10.4847   -7.7359 C   0  0  0  0  0  0  0  0  0  0  0  0
   -5.8538   11.7563   -7.1621 C   0  0  0  0  0  0  0  0  0  0  0  0
   -4.5953   12.3060   -6.9160 C   0  0  0  0  0  0  0  0  0  0  0  0
   -3.4449   11.5852   -7.2379 C   0  0  0  0  0  0  0  0  0  0  0  0
   -3.5560   10.3115   -7.8043 C   0  0  0  0  0  0  0  0  0  0  0  0
   -4.8130    9.7655   -8.0531 C   0  0  0  0  0  0  0  0  0  0  0  0
   -2.0905   12.1634   -6.9778 C   0  0  0  0  0  0  0  0  0  0  0  0
   -1.7398   13.4211   -6.5005 C   0  0  0  0  0  0  0  0  0  0  0  0
   -0.4007   13.4556   -6.4362 N   0  0  0  0  0  0  0  0  0  0  0  0
    0.1858   12.3500   -6.8082 N   0  0  0  0  0  0  0  0  0  0  0  0
   -0.8018   11.5473   -7.1675 C   0  0  0  0  0  0  0  0  0  0  0  0
    0.4333   14.5672   -6.0053 C   0  0  0  0  0  0  0  0  0  0  0  0
   -6.0131   14.0330  -14.4162 O   0  0  0  0  0  0  0  0  0  0  0  0
   -4.6790   13.9767  -11.1295 C   0  0  0  0  0  0  0  0  0  0  0  0
   -4.0830   15.2556  -11.5883 C   0  0  0  0  0  0  0  0  0  0  0  0
   -6.1181   12.2807   -9.8804 H   0  0  0  0  0  0  0  0  0  0  0  0
   -8.2128   10.0638  -13.8816 H   0  0  0  0  0  0  0  0  0  0  0  0
   -7.6809   12.4497  -13.5703 H   0  0  0  0  0  0  0  0  0  0  0  0
   -6.1921   11.4836  -13.8477 H   0  0  0  0  0  0  0  0  0  0  0  0
   -8.0363    9.5960   -7.2473 H   0  0  0  0  0  0  0  0  0  0  0  0
   -4.2080   16.1098  -13.6994 H   0  0  0  0  0  0  0  0  0  0  0  0
   -6.7444   12.3126   -6.9096 H   0  0  0  0  0  0  0  0  0  0  0  0
   -4.5117   13.2890   -6.4765 H   0  0  0  0  0  0  0  0  0  0  0  0
   -3.4442   12.0330   -8.2426 H   0  0  0  0  0  0  0  0  0  0  0  0
   -2.6662    9.7505   -8.0491 H   0  0  0  0  0  0  0  0  0  0  0  0
   -4.8962    8.7826   -8.4928 H   0  0  0  0  0  0  0  0  0  0  0  0
   -2.4169   14.2186   -6.2325 H   0  0  0  0  0  0  0  0  0  0  0  0
   -0.6596   10.5498   -7.5564 H   0  0  0  0  0  0  0  0  0  0  0  0
    1.4925   14.2769   -6.0668 H   0  0  0  0  0  0  0  0  0  0  0  0
    0.2526   15.4350   -6.6567 H   0  0  0  0  0  0  0  0  0  0  0  0
    0.1851   14.8305   -4.9665 H   0  0  0  0  0  0  0  0  0  0  0  0
   -6.5611   13.2584  -14.3700 H   0  0  0  0  0  0  0  0  0  0  0  0
   -5.2469   14.1452  -10.2026 H   0  0  0  0  0  0  0  0  0  0  0  0
   -3.8809   13.2432  -10.9424 H   0  0  0  0  0  0  0  0  0  0  0  0
   -2.9857   15.2276  -11.5166 H   0  0  0  0  0  0  0  0  0  0  0  0
   -4.4673   16.1029  -11.0014 H   0  0  0  0  0  0  0  0  0  0  0  0
  1  2  2  0  0  0  0
  1  4  1  0  0  0  0
  1 13  1  0  0  0  0
  2  6  1  0  0  0  0
  3  4  1  0  0  0  0
  3  5  2  0  0  0  0
  5  6  1  0  0  0  0
  5  9  1  0  0  0  0
  6  7  2  0  0  0  0
  7  8  1  0  0  0  0
  7 10  1  0  0  0  0
  8  9  2  0  0  0  0
 10 14  2  0  0  0  0
 11 12  2  0  0  0  0
 11 13  1  0  0  0  0
 11 26  1  0  0  0  0
 12 28  1  0  0  0  0
 13 27  1  0  0  0  0
 14 15  1  0  0  0  0
 14 19  1  0  0  0  0
 15 16  2  0  0  0  0
 16 17  1  0  0  0  0
 17 18  1  0  0  0  0
 17 20  1  0  0  0  0
 18 19  2  0  0  0  0
 20 21  2  0  0  0  0
 20 24  1  0  0  0  0
 21 22  1  0  0  0  0
 22 23  1  0  0  0  0
 22 25  1  0  0  0  0
 23 24  2  0  0  0  0
 27 28  1  0  0  0  0
  2 29  1  0  0  0  0
  3 30  1  0  0  0  0
  4 31  1  0  0  0  0
  4 32  1  0  0  0  0
 10 33  1  0  0  0  0
 12 34  1  0  0  0  0
 15 35  1  0  0  0  0
 16 36  1  0  0  0  0
 17 37  1  0  0  0  0
 18 38  1  0  0  0  0
 19 39  1  0  0  0  0
 21 40  1  0  0  0  0
 24 41  1  0  0  0  0
 25 42  1  0  0  0  0
 25 43  1  0  0  0  0
 25 44  1  0  0  0  0
 26 45  1  0  0  0  0
 27 46  1  0  0  0  0
 27 47  1  0  0  0  0
 28 48  1  0  0  0  0
 28 49  1  0  0  0  0
M  END
> <Name>
26

> <IC50[uM]>
0.036

$$$$
26
  -OEChem-05192314333D
 Structure written by MMmdl.
 49 53  0     1  0  0  0  0  0999 V2000
   -6.3961   12.3155  -12.0234 C   0  0  0  0  0  0  0  0  0  0  0  0
   -6.5478   11.7864  -10.7392 C   0  0  0  0  0  0  0  0  0  0  0  0
   -7.7431   10.5278  -13.0269 C   0  0  0  0  0  0  0  0  0  0  0  0
   -7.0034   11.6993  -13.1368 C   0  0  0  0  0  0  0  0  0  0  0  0
   -7.8411    9.9886  -11.7443 C   0  0  3  0  0  0  0  0  0  0  0  0
   -7.2672   10.6062  -10.5986 C   0  0  0  0  0  0  0  0  0  0  0  0
   -7.6276    9.7408   -9.5022 C   0  0  0  0  0  0  0  0  0  0  0  0
   -8.2893    8.7195   -9.9713 N   0  0  0  0  0  0  0  0  0  0  0  0
   -8.4361    8.8492  -11.2847 N   0  0  0  0  0  0  0  0  0  0  0  0
   -7.3404    9.8857   -8.0208 C   0  0  0  0  0  0  0  0  0  0  0  0
   -5.4704   14.2158  -13.3316 C   0  0  0  0  0  0  0  0  0  0  0  0
   -4.5218   15.3458  -13.0035 C   0  0  0  0  0  0  0  0  0  0  0  0
   -5.5814   13.4696  -12.1774 N   0  0  0  0  0  0  0  0  0  0  0  0
   -5.9630   10.4847   -7.7359 C   0  0  0  0  0  0  0  0  0  0  0  0
   -5.8538   11.7563   -7.1621 C   0  0  0  0  0  0  0  0  0  0  0  0
   -4.5953   12.3060   -6.9160 C   0  0  0  0  0  0  0  0  0  0  0  0
   -3.4449   11.5852   -7.2379 C   0  0  0  0  0  0  0  0  0  0  0  0
   -3.5560   10.3115   -7.8043 C   0  0  0  0  0  0  0  0  0  0  0  0
   -4.8130    9.7655   -8.0531 C   0  0  0  0  0  0  0  0  0  0  0  0
   -2.0905   12.1634   -6.9778 C   0  0  0  0  0  0  0  0  0  0  0  0
   -1.7398   13.4211   -6.5005 C   0  0  0  0  0  0  0  0  0  0  0  0
   -0.4007   13.4556   -6.4362 N   0  0  0  0  0  0  0  0  0  0  0  0
    0.1858   12.3500   -6.8082 N   0  0  0  0  0  0  0  0  0  0  0  0
   -0.8018   11.5473   -7.1675 C   0  0  0  0  0  0  0  0  0  0  0  0
    0.4333   14.5672   -6.0053 C   0  0  0  0  0  0  0  0  0  0  0  0
   -6.0131   14.0330  -14.4162 O   0  0  0  0  0  0  0  0  0  0  0  0
   -4.6790   13.9767  -11.1295 C   0  0  0  0  0  0  0  0  0  0  0  0
   -4.0830   15.2556  -11.5883 C   0  0  0  0  0  0  0  0  0  0  0  0
   -6.1181   12.2807   -9.8804 H   0  0  0  0  0  0  0  0  0  0  0  0
   -8.2128   10.0638  -13.8816 H   0  0  0  0  0  0  0  0  0  0  0  0
   -6.8897   12.1539  -14.1098 H   0  0  0  0  0  0  0  0  0  0  0  0
   -8.7752   10.5456  -11.5792 H   0  0  0  0  0  0  0  0  0  0  0  0
   -8.0363    9.5960   -7.2473 H   0  0  0  0  0  0  0  0  0  0  0  0
   -4.2080   16.1098  -13.6994 H   0  0  0  0  0  0  0  0  0  0  0  0
   -6.7444   12.3126   -6.9096 H   0  0  0  0  0  0  0  0  0  0  0  0
   -4.5117   13.2890   -6.4765 H   0  0  0  0  0  0  0  0  0  0  0  0
   -2.6662    9.7505   -8.0491 H   0  0  0  0  0  0  0  0  0  0  0  0
   -4.8650    8.8210   -7.4917 H   0  0  0  0  0  0  0  0  0  0  0  0
   -4.8588    9.5541   -9.1316 H   0  0  0  0  0  0  0  0  0  0  0  0
   -2.4169   14.2186   -6.2325 H   0  0  0  0  0  0  0  0  0  0  0  0
   -0.6596   10.5498   -7.5564 H   0  0  0  0  0  0  0  0  0  0  0  0
    1.4925   14.2769   -6.0668 H   0  0  0  0  0  0  0  0  0  0  0  0
    0.2526   15.4350   -6.6567 H   0  0  0  0  0  0  0  0  0  0  0  0
    0.1851   14.8305   -4.9665 H   0  0  0  0  0  0  0  0  0  0  0  0
   -6.5611   13.2584  -14.3700 H   0  0  0  0  0  0  0  0  0  0  0  0
   -5.2469   14.1452  -10.2026 H   0  0  0  0  0  0  0  0  0  0  0  0
   -3.8809   13.2432  -10.9424 H   0  0  0  0  0  0  0  0  0  0  0  0
   -2.9857   15.2276  -11.5166 H   0  0  0  0  0  0  0  0  0  0  0  0
   -4.4673   16.1029  -11.0014 H   0  0  0  0  0  0  0  0  0  0  0  0
  1  2  2  0  0  0  0
  1  4  1  0  0  0  0
  1 13  1  0  0  0  0
  2  6  1  0  0  0  0
  3  4  2  0  0  0  0
  3  5  1  0  0  0  0
  5  6  1  0  0  0  0
  5  9  1  0  0  0  0
  6  7  2  0  0  0  0
  7  8  1  0  0  0  0
  7 10  1  0  0  0  0
  8  9  2  0  0  0  0
 10 14  2  3  0  0  0
 11 12  2  0  0  0  0
 11 13  1  0  0  0  0
 11 26  1  0  0  0  0
 12 28  1  0  0  0  0
 13 27  1  0  0  0  0
 14 15  1  0  0  0  0
 14 19  1  0  0  0  0
 15 16  2  0  0  0  0
 16 17  1  0  0  0  0
 17 18  2  0  0  0  0
 17 20  1  0  0  0  0
 18 19  1  0  0  0  0
 20 21  2  0  0  0  0
 20 24  1  0  0  0  0
 21 22  1  0  0  0  0
 22 23  1  0  0  0  0
 22 25  1  0  0  0  0
 23 24  2  0  0  0  0
 27 28  1  0  0  0  0
  2 29  1  0  0  0  0
  3 30  1  0  0  0  0
  4 31  1  0  0  0  0
  5 32  1  0  0  0  0
 10 33  1  0  0  0  0
 12 34  1  0  0  0  0
 15 35  1  0  0  0  0
 16 36  1  0  0  0  0
 18 37  1  0  0  0  0
 19 38  1  0  0  0  0
 19 39  1  0  0  0  0
 21 40  1  0  0  0  0
 24 41  1  0  0  0  0
 25 42  1  0  0  0  0
 25 43  1  0  0  0  0
 25 44  1  0  0  0  0
 26 45  1  0  0  0  0
 27 46  1  0  0  0  0
 27 47  1  0  0  0  0
 28 48  1  0  0  0  0
 28 49  1  0  0  0  0
M  END
> <Name>
26

> <IC50[uM]>
0.036

$$$$
26
  -OEChem-05192314333D
 Structure written by MMmdl.
 49 53  0     0  0  0  0  0  0999 V2000
   -6.3961   12.3155  -12.0234 C   0  0  0  0  0  0  0  0  0  0  0  0
   -6.5478   11.7864  -10.7392 C   0  0  0  0  0  0  0  0  0  0  0  0
   -7.7431   10.5278  -13.0269 C   0  0  0  0  0  0  0  0  0  0  0  0
   -7.0034   11.6993  -13.1368 C   0  0  0  0  0  0  0  0  0  0  0  0
   -7.8411    9.9886  -11.7443 C   0  0  0  0  0  0  0  0  0  0  0  0
   -7.2672   10.6062  -10.5986 C   0  0  0  0  0  0  0  0  0  0  0  0
   -7.6276    9.7408   -9.5022 C   0  0  0  0  0  0  0  0  0  0  0  0
   -8.2893    8.7195   -9.9713 N   0  0  0  0  0  0  0  0  0  0  0  0
   -8.4361    8.8492  -11.2847 N   0  0  0  0  0  0  0  0  0  0  0  0
   -7.3404    9.8857   -8.0208 C   0  0  0  0  0  0  0  0  0  0  0  0
   -5.4704   14.2158  -13.3316 C   0  0  0  0  0  0  0  0  0  0  0  0
   -4.5218   15.3458  -13.0035 C   0  0  0  0  0  0  0  0  0  0  0  0
   -5.5814   13.4696  -12.1774 N   0  0  0  0  0  0  0  0  0  0  0  0
   -5.9630   10.4847   -7.7359 C   0  0  0  0  0  0  0  0  0  0  0  0
   -5.8538   11.7563   -7.1621 C   0  0  0  0  0  0  0  0  0  0  0  0
   -4.5953   12.3060   -6.9160 C   0  0  0  0  0  0  0  0  0  0  0  0
   -3.4449   11.5852   -7.2379 C   0  0  0  0  0  0  0  0  0  0  0  0
   -3.5560   10.3115   -7.8043 C   0  0  0  0  0  0  0  0  0  0  0  0
   -4.8130    9.7655   -8.0531 C   0  0  0  0  0  0  0  0  0  0  0  0
   -2.0905   12.1634   -6.9778 C   0  0  0  0  0  0  0  0  0  0  0  0
   -1.7398   13.4211   -6.5005 C   0  0  0  0  0  0  0  0  0  0  0  0
   -0.4007   13.4556   -6.4362 N   0  0  0  0  0  0  0  0  0  0  0  0
    0.1858   12.3500   -6.8082 N   0  0  0  0  0  0  0  0  0  0  0  0
   -0.8018   11.5473   -7.1675 C   0  0  0  0  0  0  0  0  0  0  0  0
    0.4333   14.5672   -6.0053 C   0  0  0  0  0  0  0  0  0  0  0  0
   -6.0131   14.0330  -14.4162 O   0  0  0  0  0  0  0  0  0  0  0  0
   -4.6790   13.9767  -11.1295 C   0  0  0  0  0  0  0  0  0  0  0  0
   -4.0830   15.2556  -11.5883 C   0  0  0  0  0  0  0  0  0  0  0  0
   -6.1181   12.2807   -9.8804 H   0  0  0  0  0  0  0  0  0  0  0  0
   -8.2128   10.0638  -13.8816 H   0  0  0  0  0  0  0  0  0  0  0  0
   -7.6809   12.4497  -13.5703 H   0  0  0  0  0  0  0  0  0  0  0  0
   -6.1921   11.4836  -13.8477 H   0  0  0  0  0  0  0  0  0  0  0  0
   -8.0363    9.5960   -7.2473 H   0  0  0  0  0  0  0  0  0  0  0  0
   -4.2080   16.1098  -13.6994 H   0  0  0  0  0  0  0  0  0  0  0  0
   -6.7444   12.3126   -6.9096 H   0  0  0  0  0  0  0  0  0  0  0  0
   -4.5117   13.2890   -6.4765 H   0  0  0  0  0  0  0  0  0  0  0  0
   -2.6662    9.7505   -8.0491 H   0  0  0  0  0  0  0  0  0  0  0  0
   -4.8650    8.8210   -7.4917 H   0  0  0  0  0  0  0  0  0  0  0  0
   -4.8588    9.5541   -9.1316 H   0  0  0  0  0  0  0  0  0  0  0  0
   -2.4169   14.2186   -6.2325 H   0  0  0  0  0  0  0  0  0  0  0  0
   -0.6596   10.5498   -7.5564 H   0  0  0  0  0  0  0  0  0  0  0  0
    1.4925   14.2769   -6.0668 H   0  0  0  0  0  0  0  0  0  0  0  0
    0.2526   15.4350   -6.6567 H   0  0  0  0  0  0  0  0  0  0  0  0
    0.1851   14.8305   -4.9665 H   0  0  0  0  0  0  0  0  0  0  0  0
   -6.5611   13.2584  -14.3700 H   0  0  0  0  0  0  0  0  0  0  0  0
   -5.2469   14.1452  -10.2026 H   0  0  0  0  0  0  0  0  0  0  0  0
   -3.8809   13.2432  -10.9424 H   0  0  0  0  0  0  0  0  0  0  0  0
   -2.9857   15.2276  -11.5166 H   0  0  0  0  0  0  0  0  0  0  0  0
   -4.4673   16.1029  -11.0014 H   0  0  0  0  0  0  0  0  0  0  0  0
  1  2  2  0  0  0  0
  1  4  1  0  0  0  0
  1 13  1  0  0  0  0
  2  6  1  0  0  0  0
  3  4  1  0  0  0  0
  3  5  2  0  0  0  0
  5  6  1  0  0  0  0
  5  9  1  0  0  0  0
  6  7  2  0  0  0  0
  7  8  1  0  0  0  0
  7 10  1  0  0  0  0
  8  9  2  0  0  0  0
 10 14  2  3  0  0  0
 11 12  2  0  0  0  0
 11 13  1  0  0  0  0
 11 26  1  0  0  0  0
 12 28  1  0  0  0  0
 13 27  1  0  0  0  0
 14 15  1  0  0  0  0
 14 19  1  0  0  0  0
 15 16  2  0  0  0  0
 16 17  1  0  0  0  0
 17 18  2  0  0  0  0
 17 20  1  0  0  0  0
 18 19  1  0  0  0  0
 20 21  2  0  0  0  0
 20 24  1  0  0  0  0
 21 22  1  0  0  0  0
 22 23  1  0  0  0  0
 22 25  1  0  0  0  0
 23 24  2  0  0  0  0
 27 28  1  0  0  0  0
  2 29  1  0  0  0  0
  3 30  1  0  0  0  0
  4 31  1  0  0  0  0
  4 32  1  0  0  0  0
 10 33  1  0  0  0  0
 12 34  1  0  0  0  0
 15 35  1  0  0  0  0
 16 36  1  0  0  0  0
 18 37  1  0  0  0  0
 19 38  1  0  0  0  0
 19 39  1  0  0  0  0
 21 40  1  0  0  0  0
 24 41  1  0  0  0  0
 25 42  1  0  0  0  0
 25 43  1  0  0  0  0
 25 44  1  0  0  0  0
 26 45  1  0  0  0  0
 27 46  1  0  0  0  0
 27 47  1  0  0  0  0
 28 48  1  0  0  0  0
 28 49  1  0  0  0  0
M  END
> <Name>
26

> <IC50[uM]>
0.036

$$$$
26
  -OEChem-05192314333D
 Structure written by MMmdl.
 49 53  0     0  0  0  0  0  0999 V2000
   -6.3961   12.3155  -12.0234 C   0  0  0  0  0  0  0  0  0  0  0  0
   -6.5478   11.7864  -10.7392 C   0  0  0  0  0  0  0  0  0  0  0  0
   -7.7431   10.5278  -13.0269 C   0  0  0  0  0  0  0  0  0  0  0  0
   -7.0034   11.6993  -13.1368 C   0  0  0  0  0  0  0  0  0  0  0  0
   -7.8411    9.9886  -11.7443 C   0  0  0  0  0  0  0  0  0  0  0  0
   -7.2672   10.6062  -10.5986 C   0  0  0  0  0  0  0  0  0  0  0  0
   -7.6276    9.7408   -9.5022 C   0  0  0  0  0  0  0  0  0  0  0  0
   -8.2893    8.7195   -9.9713 N   0  0  0  0  0  0  0  0  0  0  0  0
   -8.4361    8.8492  -11.2847 N   0  0  0  0  0  0  0  0  0  0  0  0
   -7.3404    9.8857   -8.0208 C   0  0  0  0  0  0  0  0  0  0  0  0
   -5.4704   14.2158  -13.3316 C   0  0  0  0  0  0  0  0  0  0  0  0
   -4.5218   15.3458  -13.0035 C   0  0  0  0  0  0  0  0  0  0  0  0
   -5.5814   13.4696  -12.1774 N   0  0  0  0  0  0  0  0  0  0  0  0
   -5.9630   10.4847   -7.7359 C   0  0  0  0  0  0  0  0  0  0  0  0
   -5.8538   11.7563   -7.1621 C   0  0  0  0  0  0  0  0  0  0  0  0
   -4.5953   12.3060   -6.9160 C   0  0  0  0  0  0  0  0  0  0  0  0
   -3.4449   11.5852   -7.2379 C   0  0  0  0  0  0  0  0  0  0  0  0
   -3.5560   10.3115   -7.8043 C   0  0  0  0  0  0  0  0  0  0  0  0
   -4.8130    9.7655   -8.0531 C   0  0  0  0  0  0  0  0  0  0  0  0
   -2.0905   12.1634   -6.9778 C   0  0  0  0  0  0  0  0  0  0  0  0
   -1.7398   13.4211   -6.5005 C   0  0  0  0  0  0  0  0  0  0  0  0
   -0.4007   13.4556   -6.4362 N   0  0  0  0  0  0  0  0  0  0  0  0
    0.1858   12.3500   -6.8082 N   0  0  0  0  0  0  0  0  0  0  0  0
   -0.8018   11.5473   -7.1675 C   0  0  0  0  0  0  0  0  0  0  0  0
    0.4333   14.5672   -6.0053 C   0  0  0  0  0  0  0  0  0  0  0  0
   -6.0131   14.0330  -14.4162 O   0  0  0  0  0  0  0  0  0  0  0  0
   -4.6790   13.9767  -11.1295 C   0  0  0  0  0  0  0  0  0  0  0  0
   -4.0830   15.2556  -11.5883 C   0  0  0  0  0  0  0  0  0  0  0  0
   -5.5392   11.6037  -10.3400 H   0  0  0  0  0  0  0  0  0  0  0  0
   -7.0511   12.5504  -10.1285 H   0  0  0  0  0  0  0  0  0  0  0  0
   -8.2128   10.0638  -13.8816 H   0  0  0  0  0  0  0  0  0  0  0  0
   -6.8897   12.1539  -14.1098 H   0  0  0  0  0  0  0  0  0  0  0  0
   -8.0363    9.5960   -7.2473 H   0  0  0  0  0  0  0  0  0  0  0  0
   -4.2080   16.1098  -13.6994 H   0  0  0  0  0  0  0  0  0  0  0  0
   -6.7444   12.3126   -6.9096 H   0  0  0  0  0  0  0  0  0  0  0  0
   -4.5117   13.2890   -6.4765 H   0  0  0  0  0  0  0  0  0  0  0  0
   -3.4442   12.0330   -8.2426 H   0  0  0  0  0  0  0  0  0  0  0  0
   -2.6662    9.7505   -8.0491 H   0  0  0  0  0  0  0  0  0  0  0  0
   -4.8962    8.7826   -8.4928 H   0  0  0  0  0  0  0  0  0  0  0  0
   -2.4169   14.2186   -6.2325 H   0  0  0  0  0  0  0  0  0  0  0  0
   -0.6596   10.5498   -7.5564 H   0  0  0  0  0  0  0  0  0  0  0  0
    1.4925   14.2769   -6.0668 H   0  0  0  0  0  0  0  0  0  0  0  0
    0.2526   15.4350   -6.6567 H   0  0  0  0  0  0  0  0  0  0  0  0
    0.1851   14.8305   -4.9665 H   0  0  0  0  0  0  0  0  0  0  0  0
   -6.5611   13.2584  -14.3700 H   0  0  0  0  0  0  0  0  0  0  0  0
   -5.2469   14.1452  -10.2026 H   0  0  0  0  0  0  0  0  0  0  0  0
   -3.8809   13.2432  -10.9424 H   0  0  0  0  0  0  0  0  0  0  0  0
   -2.9857   15.2276  -11.5166 H   0  0  0  0  0  0  0  0  0  0  0  0
   -4.4673   16.1029  -11.0014 H   0  0  0  0  0  0  0  0  0  0  0  0
  1  2  1  0  0  0  0
  1  4  2  0  0  0  0
  1 13  1  0  0  0  0
  2  6  1  0  0  0  0
  3  4  1  0  0  0  0
  3  5  2  0  0  0  0
  5  6  1  0  0  0  0
  5  9  1  0  0  0  0
  6  7  2  0  0  0  0
  7  8  1  0  0  0  0
  7 10  1  0  0  0  0
  8  9  2  0  0  0  0
 10 14  2  0  0  0  0
 11 12  2  0  0  0  0
 11 13  1  0  0  0  0
 11 26  1  0  0  0  0
 12 28  1  0  0  0  0
 13 27  1  0  0  0  0
 14 15  1  0  0  0  0
 14 19  1  0  0  0  0
 15 16  2  0  0  0  0
 16 17  1  0  0  0  0
 17 18  1  0  0  0  0
 17 20  1  0  0  0  0
 18 19  2  0  0  0  0
 20 21  2  0  0  0  0
 20 24  1  0  0  0  0
 21 22  1  0  0  0  0
 22 23  1  0  0  0  0
 22 25  1  0  0  0  0
 23 24  2  0  0  0  0
 27 28  1  0  0  0  0
  2 29  1  0  0  0  0
  2 30  1  0  0  0  0
  3 31  1  0  0  0  0
  4 32  1  0  0  0  0
 10 33  1  0  0  0  0
 12 34  1  0  0  0  0
 15 35  1  0  0  0  0
 16 36  1  0  0  0  0
 17 37  1  0  0  0  0
 18 38  1  0  0  0  0
 19 39  1  0  0  0  0
 21 40  1  0  0  0  0
 24 41  1  0  0  0  0
 25 42  1  0  0  0  0
 25 43  1  0  0  0  0
 25 44  1  0  0  0  0
 26 45  1  0  0  0  0
 27 46  1  0  0  0  0
 27 47  1  0  0  0  0
 28 48  1  0  0  0  0
 28 49  1  0  0  0  0
M  END
> <Name>
26

> <IC50[uM]>
0.036

$$$$
26
  -OEChem-05192314333D
 Structure written by MMmdl.
 49 53  0     0  0  0  0  0  0999 V2000
   -6.3961   12.3155  -12.0234 C   0  0  0  0  0  0  0  0  0  0  0  0
   -6.5478   11.7864  -10.7392 C   0  0  0  0  0  0  0  0  0  0  0  0
   -7.7431   10.5278  -13.0269 C   0  0  0  0  0  0  0  0  0  0  0  0
   -7.0034   11.6993  -13.1368 C   0  0  0  0  0  0  0  0  0  0  0  0
   -7.8411    9.9886  -11.7443 C   0  0  0  0  0  0  0  0  0  0  0  0
   -7.2672   10.6062  -10.5986 C   0  0  0  0  0  0  0  0  0  0  0  0
   -7.6276    9.7408   -9.5022 C   0  0  0  0  0  0  0  0  0  0  0  0
   -8.2893    8.7195   -9.9713 N   0  0  0  0  0  0  0  0  0  0  0  0
   -8.4361    8.8492  -11.2847 N   0  0  0  0  0  0  0  0  0  0  0  0
   -7.3404    9.8857   -8.0208 C   0  0  0  0  0  0  0  0  0  0  0  0
   -5.4704   14.2158  -13.3316 C   0  0  0  0  0  0  0  0  0  0  0  0
   -4.5218   15.3458  -13.0035 C   0  0  0  0  0  0  0  0  0  0  0  0
   -5.5814   13.4696  -12.1774 N   0  0  0  0  0  0  0  0  0  0  0  0
   -5.9630   10.4847   -7.7359 C   0  0  0  0  0  0  0  0  0  0  0  0
   -5.8538   11.7563   -7.1621 C   0  0  0  0  0  0  0  0  0  0  0  0
   -4.5953   12.3060   -6.9160 C   0  0  0  0  0  0  0  0  0  0  0  0
   -3.4449   11.5852   -7.2379 C   0  0  0  0  0  0  0  0  0  0  0  0
   -3.5560   10.3115   -7.8043 C   0  0  0  0  0  0  0  0  0  0  0  0
   -4.8130    9.7655   -8.0531 C   0  0  0  0  0  0  0  0  0  0  0  0
   -2.0905   12.1634   -6.9778 C   0  0  0  0  0  0  0  0  0  0  0  0
   -1.7398   13.4211   -6.5005 C   0  0  0  0  0  0  0  0  0  0  0  0
   -0.4007   13.4556   -6.4362 N   0  0  0  0  0  0  0  0  0  0  0  0
    0.1858   12.3500   -6.8082 N   0  0  0  0  0  0  0  0  0  0  0  0
   -0.8018   11.5473   -7.1675 C   0  0  0  0  0  0  0  0  0  0  0  0
    0.4333   14.5672   -6.0053 C   0  0  0  0  0  0  0  0  0  0  0  0
   -6.0131   14.0330  -14.4162 O   0  0  0  0  0  0  0  0  0  0  0  0
   -4.6790   13.9767  -11.1295 C   0  0  0  0  0  0  0  0  0  0  0  0
   -4.0830   15.2556  -11.5883 C   0  0  0  0  0  0  0  0  0  0  0  0
   -5.5392   11.6037  -10.3400 H   0  0  0  0  0  0  0  0  0  0  0  0
   -7.0511   12.5504  -10.1285 H   0  0  0  0  0  0  0  0  0  0  0  0
   -8.2128   10.0638  -13.8816 H   0  0  0  0  0  0  0  0  0  0  0  0
   -6.8897   12.1539  -14.1098 H   0  0  0  0  0  0  0  0  0  0  0  0
   -8.0363    9.5960   -7.2473 H   0  0  0  0  0  0  0  0  0  0  0  0
   -4.2080   16.1098  -13.6994 H   0  0  0  0  0  0  0  0  0  0  0  0
   -6.7444   12.3126   -6.9096 H   0  0  0  0  0  0  0  0  0  0  0  0
   -4.5117   13.2890   -6.4765 H   0  0  0  0  0  0  0  0  0  0  0  0
   -2.6662    9.7505   -8.0491 H   0  0  0  0  0  0  0  0  0  0  0  0
   -4.8650    8.8210   -7.4917 H   0  0  0  0  0  0  0  0  0  0  0  0
   -4.8588    9.5541   -9.1316 H   0  0  0  0  0  0  0  0  0  0  0  0
   -2.4169   14.2186   -6.2325 H   0  0  0  0  0  0  0  0  0  0  0  0
   -0.6596   10.5498   -7.5564 H   0  0  0  0  0  0  0  0  0  0  0  0
    1.4925   14.2769   -6.0668 H   0  0  0  0  0  0  0  0  0  0  0  0
    0.2526   15.4350   -6.6567 H   0  0  0  0  0  0  0  0  0  0  0  0
    0.1851   14.8305   -4.9665 H   0  0  0  0  0  0  0  0  0  0  0  0
   -6.5611   13.2584  -14.3700 H   0  0  0  0  0  0  0  0  0  0  0  0
   -5.2469   14.1452  -10.2026 H   0  0  0  0  0  0  0  0  0  0  0  0
   -3.8809   13.2432  -10.9424 H   0  0  0  0  0  0  0  0  0  0  0  0
   -2.9857   15.2276  -11.5166 H   0  0  0  0  0  0  0  0  0  0  0  0
   -4.4673   16.1029  -11.0014 H   0  0  0  0  0  0  0  0  0  0  0  0
  1  2  1  0  0  0  0
  1  4  2  0  0  0  0
  1 13  1  0  0  0  0
  2  6  1  0  0  0  0
  3  4  1  0  0  0  0
  3  5  2  0  0  0  0
  5  6  1  0  0  0  0
  5  9  1  0  0  0  0
  6  7  2  0  0  0  0
  7  8  1  0  0  0  0
  7 10  1  0  0  0  0
  8  9  2  0  0  0  0
 10 14  2  3  0  0  0
 11 12  2  0  0  0  0
 11 13  1  0  0  0  0
 11 26  1  0  0  0  0
 12 28  1  0  0  0  0
 13 27  1  0  0  0  0
 14 15  1  0  0  0  0
 14 19  1  0  0  0  0
 15 16  2  0  0  0  0
 16 17  1  0  0  0  0
 17 18  2  0  0  0  0
 17 20  1  0  0  0  0
 18 19  1  0  0  0  0
 20 21  2  0  0  0  0
 20 24  1  0  0  0  0
 21 22  1  0  0  0  0
 22 23  1  0  0  0  0
 22 25  1  0  0  0  0
 23 24  2  0  0  0  0
 27 28  1  0  0  0  0
  2 29  1  0  0  0  0
  2 30  1  0  0  0  0
  3 31  1  0  0  0  0
  4 32  1  0  0  0  0
 10 33  1  0  0  0  0
 12 34  1  0  0  0  0
 15 35  1  0  0  0  0
 16 36  1  0  0  0  0
 18 37  1  0  0  0  0
 19 38  1  0  0  0  0
 19 39  1  0  0  0  0
 21 40  1  0  0  0  0
 24 41  1  0  0  0  0
 25 42  1  0  0  0  0
 25 43  1  0  0  0  0
 25 44  1  0  0  0  0
 26 45  1  0  0  0  0
 27 46  1  0  0  0  0
 27 47  1  0  0  0  0
 28 48  1  0  0  0  0
 28 49  1  0  0  0  0
M  END
> <Name>
26

> <IC50[uM]>
0.036

$$$$
