42
  -OEChem-05192314333D
 Structure written by MMmdl.
 49 53  0     1  0  0  0  0  0999 V2000
   -6.3691   12.3596  -12.0090 C   0  0  0  0  0  0  0  0  0  0  0  0
   -6.5082   11.8040  -10.7325 C   0  0  0  0  0  0  0  0  0  0  0  0
   -7.7289   10.5800  -13.0272 C   0  0  0  0  0  0  0  0  0  0  0  0
   -6.9931   11.7723  -13.1223 C   0  0  0  0  0  0  0  0  0  0  0  0
   -7.8208   10.0120  -11.7545 C   0  0  0  0  0  0  0  0  0  0  0  0
   -7.2366   10.6190  -10.6002 C   0  0  0  0  0  0  0  0  0  0  0  0
   -7.6071    9.7463   -9.5106 C   0  0  0  0  0  0  0  0  0  0  0  0
   -8.2820    8.7349   -9.9857 N   0  0  0  0  0  0  0  0  0  0  0  0
   -8.4162    8.8630  -11.2985 N   0  0  0  0  0  0  0  0  0  0  0  0
   -7.3216    9.8824   -8.0245 C   0  0  0  0  0  0  0  0  0  0  0  0
   -4.3612   13.7214  -11.5083 N   0  0  0  0  0  0  0  0  0  0  0  0
   -5.5493   13.6373  -12.1980 C   0  0  0  0  0  0  0  0  0  0  0  0
   -5.9470   14.5254  -12.9531 O   0  0  0  0  0  0  0  0  0  0  0  0
   -5.9509   10.4995   -7.7283 C   0  0  0  0  0  0  0  0  0  0  0  0
   -5.8798   11.7709   -7.1545 C   0  0  0  0  0  0  0  0  0  0  0  0
   -4.6121   12.3149   -6.9130 C   0  0  0  0  0  0  0  0  0  0  0  0
   -3.4406   11.5618   -7.2441 C   0  0  0  0  0  0  0  0  0  0  0  0
   -3.5052   10.2836   -7.8087 C   0  0  0  0  0  0  0  0  0  0  0  0
   -4.7939    9.7786   -8.0440 C   0  0  0  0  0  0  0  0  0  0  0  0
   -4.0930   13.5444   -6.3685 C   0  0  0  0  0  0  0  0  0  0  0  0
   -2.7888   13.5284   -6.3764 N   0  0  0  0  0  0  0  0  0  0  0  0
   -2.3823   12.3688   -6.8823 N   0  0  0  0  0  0  0  0  0  0  0  0
   -0.9528   12.1034   -6.9863 C   0  0  0  0  0  0  0  0  0  0  0  0
   -3.7146   12.5761  -10.8355 C   0  0  0  0  0  0  0  0  0  0  0  0
   -2.2074   12.9376  -10.9559 C   0  0  2  0  0  0  0  0  0  0  0  0
   -2.1889   14.4652  -10.9572 C   0  0  0  0  0  0  0  0  0  0  0  0
   -3.5166   14.9141  -11.6000 C   0  0  0  0  0  0  0  0  0  0  0  0
   -1.6730   12.4527  -12.1791 O   0  0  0  0  0  0  0  0  0  0  0  0
   -6.0635   12.2793   -9.8707 H   0  0  0  0  0  0  0  0  0  0  0  0
   -8.1971   10.1280  -13.8891 H   0  0  0  0  0  0  0  0  0  0  0  0
   -6.9038   12.2545  -14.0846 H   0  0  0  0  0  0  0  0  0  0  0  0
   -8.6433    7.9777   -9.4415 H   0  0  0  0  0  0  0  0  0  0  0  0
   -8.0970   10.5211   -7.5764 H   0  0  0  0  0  0  0  0  0  0  0  0
   -7.3611    8.8825   -7.5677 H   0  0  0  0  0  0  0  0  0  0  0  0
   -6.7764   12.3186   -6.9043 H   0  0  0  0  0  0  0  0  0  0  0  0
   -2.6166    9.7188   -8.0493 H   0  0  0  0  0  0  0  0  0  0  0  0
   -4.8960    8.7979   -8.4848 H   0  0  0  0  0  0  0  0  0  0  0  0
   -4.6978   14.3623   -6.0057 H   0  0  0  0  0  0  0  0  0  0  0  0
   -0.3901   12.9669   -6.6019 H   0  0  0  0  0  0  0  0  0  0  0  0
   -0.7019   11.2100   -6.3955 H   0  0  0  0  0  0  0  0  0  0  0  0
   -0.6874   11.9326   -8.0401 H   0  0  0  0  0  0  0  0  0  0  0  0
   -4.0252   12.5039   -9.7827 H   0  0  0  0  0  0  0  0  0  0  0  0
   -3.9410   11.6307  -11.3502 H   0  0  0  0  0  0  0  0  0  0  0  0
   -1.6579   12.5499  -10.0854 H   0  0  0  0  0  0  0  0  0  0  0  0
   -2.1163   14.8460   -9.9278 H   0  0  0  0  0  0  0  0  0  0  0  0
   -1.3366   14.8352  -11.5459 H   0  0  0  0  0  0  0  0  0  0  0  0
   -3.3656   15.2093  -12.6488 H   0  0  0  0  0  0  0  0  0  0  0  0
   -3.9592   15.7531  -11.0430 H   0  0  0  0  0  0  0  0  0  0  0  0
   -0.7528   12.6819  -12.2362 H   0  0  0  0  0  0  0  0  0  0  0  0
  1  2  2  0  0  0  0
  1  4  1  0  0  0  0
  1 12  1  0  0  0  0
  2  6  1  0  0  0  0
  3  4  2  0  0  0  0
  3  5  1  0  0  0  0
  5  6  1  0  0  0  0
  5  9  2  0  0  0  0
  6  7  2  0  0  0  0
  7  8  1  0  0  0  0
  7 10  1  0  0  0  0
  8  9  1  0  0  0  0
 10 14  1  0  0  0  0
 11 12  1  0  0  0  0
 11 24  1  0  0  0  0
 11 27  1  0  0  0  0
 12 13  2  0  0  0  0
 14 15  2  0  0  0  0
 14 19  1  0  0  0  0
 15 16  1  0  0  0  0
 16 17  2  0  0  0  0
 16 20  1  0  0  0  0
 17 18  1  0  0  0  0
 17 22  1  0  0  0  0
 18 19  2  0  0  0  0
 20 21  2  0  0  0  0
 21 22  1  0  0  0  0
 22 23  1  0  0  0  0
 24 25  1  0  0  0  0
 25 26  1  0  0  0  0
 25 28  1  0  0  0  0
 26 27  1  0  0  0  0
  2 29  1  0  0  0  0
  3 30  1  0  0  0  0
  4 31  1  0  0  0  0
  8 32  1  0  0  0  0
 10 33  1  0  0  0  0
 10 34  1  0  0  0  0
 15 35  1  0  0  0  0
 18 36  1  0  0  0  0
 19 37  1  0  0  0  0
 20 38  1  0  0  0  0
 23 39  1  0  0  0  0
 23 40  1  0  0  0  0
 23 41  1  0  0  0  0
 24 42  1  0  0  0  0
 24 43  1  0  0  0  0
 25 44  1  0  0  0  0
 26 45  1  0  0  0  0
 26 46  1  0  0  0  0
 27 47  1  0  0  0  0
 27 48  1  0  0  0  0
 28 49  1  0  0  0  0
M  END
> <Name>
42

> <IC50[uM]>
0.004

$$$$
42
  -OEChem-05192314333D
 Structure written by MMmdl.
 49 53  0     1  0  0  0  0  0999 V2000
   -6.3691   12.3596  -12.0090 C   0  0  0  0  0  0  0  0  0  0  0  0
   -6.5082   11.8040  -10.7325 C   0  0  0  0  0  0  0  0  0  0  0  0
   -7.7289   10.5800  -13.0272 C   0  0  0  0  0  0  0  0  0  0  0  0
   -6.9931   11.7723  -13.1223 C   0  0  0  0  0  0  0  0  0  0  0  0
   -7.8208   10.0120  -11.7545 C   0  0  0  0  0  0  0  0  0  0  0  0
   -7.2366   10.6190  -10.6002 C   0  0  0  0  0  0  0  0  0  0  0  0
   -7.6071    9.7463   -9.5106 C   0  0  0  0  0  0  0  0  0  0  0  0
   -8.2820    8.7349   -9.9857 N   0  0  0  0  0  0  0  0  0  0  0  0
   -8.4162    8.8630  -11.2985 N   0  0  0  0  0  0  0  0  0  0  0  0
   -7.3216    9.8824   -8.0245 C   0  0  0  0  0  0  0  0  0  0  0  0
   -4.3612   13.7214  -11.5083 N   0  0  0  0  0  0  0  0  0  0  0  0
   -5.5493   13.6373  -12.1980 C   0  0  0  0  0  0  0  0  0  0  0  0
   -5.9470   14.5254  -12.9531 O   0  0  0  0  0  0  0  0  0  0  0  0
   -5.9509   10.4995   -7.7283 C   0  0  0  0  0  0  0  0  0  0  0  0
   -5.8798   11.7709   -7.1545 C   0  0  0  0  0  0  0  0  0  0  0  0
   -4.6121   12.3149   -6.9130 C   0  0  0  0  0  0  0  0  0  0  0  0
   -3.4406   11.5618   -7.2441 C   0  0  0  0  0  0  0  0  0  0  0  0
   -3.5052   10.2836   -7.8087 C   0  0  0  0  0  0  0  0  0  0  0  0
   -4.7939    9.7786   -8.0440 C   0  0  0  0  0  0  0  0  0  0  0  0
   -4.0930   13.5444   -6.3685 C   0  0  0  0  0  0  0  0  0  0  0  0
   -2.7888   13.5284   -6.3764 N   0  0  0  0  0  0  0  0  0  0  0  0
   -2.3823   12.3688   -6.8823 N   0  0  0  0  0  0  0  0  0  0  0  0
   -0.9528   12.1034   -6.9863 C   0  0  0  0  0  0  0  0  0  0  0  0
   -3.7146   12.5761  -10.8355 C   0  0  0  0  0  0  0  0  0  0  0  0
   -2.2074   12.9376  -10.9559 C   0  0  2  0  0  0  0  0  0  0  0  0
   -2.1889   14.4652  -10.9572 C   0  0  0  0  0  0  0  0  0  0  0  0
   -3.5166   14.9141  -11.6000 C   0  0  0  0  0  0  0  0  0  0  0  0
   -1.6730   12.4527  -12.1791 O   0  0  0  0  0  0  0  0  0  0  0  0
   -6.0635   12.2793   -9.8707 H   0  0  0  0  0  0  0  0  0  0  0  0
   -8.1971   10.1280  -13.8891 H   0  0  0  0  0  0  0  0  0  0  0  0
   -6.9038   12.2545  -14.0846 H   0  0  0  0  0  0  0  0  0  0  0  0
   -8.8915    8.2051  -11.8827 H   0  0  0  0  0  0  0  0  0  0  0  0
   -8.0970   10.5211   -7.5764 H   0  0  0  0  0  0  0  0  0  0  0  0
   -7.3611    8.8825   -7.5677 H   0  0  0  0  0  0  0  0  0  0  0  0
   -6.7764   12.3186   -6.9043 H   0  0  0  0  0  0  0  0  0  0  0  0
   -2.6166    9.7188   -8.0493 H   0  0  0  0  0  0  0  0  0  0  0  0
   -4.8960    8.7979   -8.4848 H   0  0  0  0  0  0  0  0  0  0  0  0
   -4.6978   14.3623   -6.0057 H   0  0  0  0  0  0  0  0  0  0  0  0
   -0.3901   12.9669   -6.6019 H   0  0  0  0  0  0  0  0  0  0  0  0
   -0.7019   11.2100   -6.3955 H   0  0  0  0  0  0  0  0  0  0  0  0
   -0.6874   11.9326   -8.0401 H   0  0  0  0  0  0  0  0  0  0  0  0
   -4.0252   12.5039   -9.7827 H   0  0  0  0  0  0  0  0  0  0  0  0
   -3.9410   11.6307  -11.3502 H   0  0  0  0  0  0  0  0  0  0  0  0
   -1.6579   12.5499  -10.0854 H   0  0  0  0  0  0  0  0  0  0  0  0
   -2.1163   14.8460   -9.9278 H   0  0  0  0  0  0  0  0  0  0  0  0
   -1.3366   14.8352  -11.5459 H   0  0  0  0  0  0  0  0  0  0  0  0
   -3.3656   15.2093  -12.6488 H   0  0  0  0  0  0  0  0  0  0  0  0
   -3.9592   15.7531  -11.0430 H   0  0  0  0  0  0  0  0  0  0  0  0
   -0.7528   12.6819  -12.2362 H   0  0  0  0  0  0  0  0  0  0  0  0
  1  2  2  0  0  0  0
  1  4  1  0  0  0  0
  1 12  1  0  0  0  0
  2  6  1  0  0  0  0
  3  4  2  0  0  0  0
  3  5  1  0  0  0  0
  5  6  2  0  0  0  0
  5  9  1  0  0  0  0
  6  7  1  0  0  0  0
  7  8  2  0  0  0  0
  7 10  1  0  0  0  0
  8  9  1  0  0  0  0
 10 14  1  0  0  0  0
 11 12  1  0  0  0  0
 11 24  1  0  0  0  0
 11 27  1  0  0  0  0
 12 13  2  0  0  0  0
 14 15  2  0  0  0  0
 14 19  1  0  0  0  0
 15 16  1  0  0  0  0
 16 17  2  0  0  0  0
 16 20  1  0  0  0  0
 17 18  1  0  0  0  0
 17 22  1  0  0  0  0
 18 19  2  0  0  0  0
 20 21  2  0  0  0  0
 21 22  1  0  0  0  0
 22 23  1  0  0  0  0
 24 25  1  0  0  0  0
 25 26  1  0  0  0  0
 25 28  1  0  0  0  0
 26 27  1  0  0  0  0
  2 29  1  0  0  0  0
  3 30  1  0  0  0  0
  4 31  1  0  0  0  0
  9 32  1  0  0  0  0
 10 33  1  0  0  0  0
 10 34  1  0  0  0  0
 15 35  1  0  0  0  0
 18 36  1  0  0  0  0
 19 37  1  0  0  0  0
 20 38  1  0  0  0  0
 23 39  1  0  0  0  0
 23 40  1  0  0  0  0
 23 41  1  0  0  0  0
 24 42  1  0  0  0  0
 24 43  1  0  0  0  0
 25 44  1  0  0  0  0
 26 45  1  0  0  0  0
 26 46  1  0  0  0  0
 27 47  1  0  0  0  0
 27 48  1  0  0  0  0
 28 49  1  0  0  0  0
M  END
> <Name>
42

> <IC50[uM]>
0.004

$$$$
42
  -OEChem-05192314333D
 Structure written by MMmdl.
 49 53  0     1  0  0  0  0  0999 V2000
   -6.3691   12.3596  -12.0090 C   0  0  0  0  0  0  0  0  0  0  0  0
   -6.5082   11.8040  -10.7325 C   0  0  0  0  0  0  0  0  0  0  0  0
   -7.7289   10.5800  -13.0272 C   0  0  0  0  0  0  0  0  0  0  0  0
   -6.9931   11.7723  -13.1223 C   0  0  0  0  0  0  0  0  0  0  0  0
   -7.8208   10.0120  -11.7545 C   0  0  0  0  0  0  0  0  0  0  0  0
   -7.2366   10.6190  -10.6002 C   0  0  0  0  0  0  0  0  0  0  0  0
   -7.6071    9.7463   -9.5106 C   0  0  0  0  0  0  0  0  0  0  0  0
   -8.2820    8.7349   -9.9857 N   0  0  0  0  0  0  0  0  0  0  0  0
   -8.4162    8.8630  -11.2985 N   0  0  0  0  0  0  0  0  0  0  0  0
   -7.3216    9.8824   -8.0245 C   0  0  0  0  0  0  0  0  0  0  0  0
   -4.3612   13.7214  -11.5083 N   0  0  0  0  0  0  0  0  0  0  0  0
   -5.5493   13.6373  -12.1980 C   0  0  0  0  0  0  0  0  0  0  0  0
   -5.9470   14.5254  -12.9531 O   0  0  0  0  0  0  0  0  0  0  0  0
   -5.9509   10.4995   -7.7283 C   0  0  0  0  0  0  0  0  0  0  0  0
   -5.8798   11.7709   -7.1545 C   0  0  0  0  0  0  0  0  0  0  0  0
   -4.6121   12.3149   -6.9130 C   0  0  0  0  0  0  0  0  0  0  0  0
   -3.4406   11.5618   -7.2441 C   0  0  0  0  0  0  0  0  0  0  0  0
   -3.5052   10.2836   -7.8087 C   0  0  0  0  0  0  0  0  0  0  0  0
   -4.7939    9.7786   -8.0440 C   0  0  0  0  0  0  0  0  0  0  0  0
   -4.0930   13.5444   -6.3685 C   0  0  0  0  0  0  0  0  0  0  0  0
   -2.7888   13.5284   -6.3764 N   0  0  0  0  0  0  0  0  0  0  0  0
   -2.3823   12.3688   -6.8823 N   0  0  0  0  0  0  0  0  0  0  0  0
   -0.9528   12.1034   -6.9863 C   0  0  0  0  0  0  0  0  0  0  0  0
   -3.7146   12.5761  -10.8355 C   0  0  0  0  0  0  0  0  0  0  0  0
   -2.2074   12.9376  -10.9559 C   0  0  2  0  0  0  0  0  0  0  0  0
   -2.1889   14.4652  -10.9572 C   0  0  0  0  0  0  0  0  0  0  0  0
   -3.5166   14.9141  -11.6000 C   0  0  0  0  0  0  0  0  0  0  0  0
   -1.6730   12.4527  -12.1791 O   0  0  0  0  0  0  0  0  0  0  0  0
   -6.0635   12.2793   -9.8707 H   0  0  0  0  0  0  0  0  0  0  0  0
   -8.1971   10.1280  -13.8891 H   0  0  0  0  0  0  0  0  0  0  0  0
   -6.9038   12.2545  -14.0846 H   0  0  0  0  0  0  0  0  0  0  0  0
   -6.6705    9.1843   -9.6404 H   0  0  0  0  0  0  0  0  0  0  0  0
   -8.0970   10.5211   -7.5764 H   0  0  0  0  0  0  0  0  0  0  0  0
   -7.3611    8.8825   -7.5677 H   0  0  0  0  0  0  0  0  0  0  0  0
   -6.7764   12.3186   -6.9043 H   0  0  0  0  0  0  0  0  0  0  0  0
   -2.6166    9.7188   -8.0493 H   0  0  0  0  0  0  0  0  0  0  0  0
   -4.8960    8.7979   -8.4848 H   0  0  0  0  0  0  0  0  0  0  0  0
   -4.6978   14.3623   -6.0057 H   0  0  0  0  0  0  0  0  0  0  0  0
   -0.3901   12.9669   -6.6019 H   0  0  0  0  0  0  0  0  0  0  0  0
   -0.7019   11.2100   -6.3955 H   0  0  0  0  0  0  0  0  0  0  0  0
   -0.6874   11.9326   -8.0401 H   0  0  0  0  0  0  0  0  0  0  0  0
   -4.0252   12.5039   -9.7827 H   0  0  0  0  0  0  0  0  0  0  0  0
   -3.9410   11.6307  -11.3502 H   0  0  0  0  0  0  0  0  0  0  0  0
   -1.6579   12.5499  -10.0854 H   0  0  0  0  0  0  0  0  0  0  0  0
   -2.1163   14.8460   -9.9278 H   0  0  0  0  0  0  0  0  0  0  0  0
   -1.3366   14.8352  -11.5459 H   0  0  0  0  0  0  0  0  0  0  0  0
   -3.3656   15.2093  -12.6488 H   0  0  0  0  0  0  0  0  0  0  0  0
   -3.9592   15.7531  -11.0430 H   0  0  0  0  0  0  0  0  0  0  0  0
   -0.7528   12.6819  -12.2362 H   0  0  0  0  0  0  0  0  0  0  0  0
  1  2  2  0  0  0  0
  1  4  1  0  0  0  0
  1 12  1  0  0  0  0
  2  6  1  0  0  0  0
  3  4  2  0  0  0  0
  3  5  1  0  0  0  0
  5  6  2  0  0  0  0
  5  9  1  0  0  0  0
  6  7  1  0  0  0  0
  7  8  1  0  0  0  0
  7 10  1  0  0  0  0
  8  9  2  0  0  0  0
 10 14  1  0  0  0  0
 11 12  1  0  0  0  0
 11 24  1  0  0  0  0
 11 27  1  0  0  0  0
 12 13  2  0  0  0  0
 14 15  2  0  0  0  0
 14 19  1  0  0  0  0
 15 16  1  0  0  0  0
 16 17  2  0  0  0  0
 16 20  1  0  0  0  0
 17 18  1  0  0  0  0
 17 22  1  0  0  0  0
 18 19  2  0  0  0  0
 20 21  2  0  0  0  0
 21 22  1  0  0  0  0
 22 23  1  0  0  0  0
 24 25  1  0  0  0  0
 25 26  1  0  0  0  0
 25 28  1  0  0  0  0
 26 27  1  0  0  0  0
  2 29  1  0  0  0  0
  3 30  1  0  0  0  0
  4 31  1  0  0  0  0
  7 32  1  0  0  0  0
 10 33  1  0  0  0  0
 10 34  1  0  0  0  0
 15 35  1  0  0  0  0
 18 36  1  0  0  0  0
 19 37  1  0  0  0  0
 20 38  1  0  0  0  0
 23 39  1  0  0  0  0
 23 40  1  0  0  0  0
 23 41  1  0  0  0  0
 24 42  1  0  0  0  0
 24 43  1  0  0  0  0
 25 44  1  0  0  0  0
 26 45  1  0  0  0  0
 26 46  1  0  0  0  0
 27 47  1  0  0  0  0
 27 48  1  0  0  0  0
 28 49  1  0  0  0  0
M  END
> <Name>
42

> <IC50[uM]>
0.004

$$$$
42
  -OEChem-05192314333D
 Structure written by MMmdl.
 49 53  0     1  0  0  0  0  0999 V2000
   -6.3691   12.3596  -12.0090 C   0  0  0  0  0  0  0  0  0  0  0  0
   -6.5082   11.8040  -10.7325 C   0  0  0  0  0  0  0  0  0  0  0  0
   -7.7289   10.5800  -13.0272 C   0  0  0  0  0  0  0  0  0  0  0  0
   -6.9931   11.7723  -13.1223 C   0  0  0  0  0  0  0  0  0  0  0  0
   -7.8208   10.0120  -11.7545 C   0  0  0  0  0  0  0  0  0  0  0  0
   -7.2366   10.6190  -10.6002 C   0  0  0  0  0  0  0  0  0  0  0  0
   -7.6071    9.7463   -9.5106 C   0  0  0  0  0  0  0  0  0  0  0  0
   -8.2820    8.7349   -9.9857 N   0  0  0  0  0  0  0  0  0  0  0  0
   -8.4162    8.8630  -11.2985 N   0  0  0  0  0  0  0  0  0  0  0  0
   -7.3216    9.8824   -8.0245 C   0  0  0  0  0  0  0  0  0  0  0  0
   -4.3612   13.7214  -11.5083 N   0  0  0  0  0  0  0  0  0  0  0  0
   -5.5493   13.6373  -12.1980 C   0  0  0  0  0  0  0  0  0  0  0  0
   -5.9470   14.5254  -12.9531 O   0  0  0  0  0  0  0  0  0  0  0  0
   -5.9509   10.4995   -7.7283 C   0  0  0  0  0  0  0  0  0  0  0  0
   -5.8798   11.7709   -7.1545 C   0  0  0  0  0  0  0  0  0  0  0  0
   -4.6121   12.3149   -6.9130 C   0  0  0  0  0  0  0  0  0  0  0  0
   -3.4406   11.5618   -7.2441 C   0  0  0  0  0  0  0  0  0  0  0  0
   -3.5052   10.2836   -7.8087 C   0  0  0  0  0  0  0  0  0  0  0  0
   -4.7939    9.7786   -8.0440 C   0  0  0  0  0  0  0  0  0  0  0  0
   -4.0930   13.5444   -6.3685 C   0  0  0  0  0  0  0  0  0  0  0  0
   -2.7888   13.5284   -6.3764 N   0  0  0  0  0  0  0  0  0  0  0  0
   -2.3823   12.3688   -6.8823 N   0  0  0  0  0  0  0  0  0  0  0  0
   -0.9528   12.1034   -6.9863 C   0  0  0  0  0  0  0  0  0  0  0  0
   -3.7146   12.5761  -10.8355 C   0  0  0  0  0  0  0  0  0  0  0  0
   -2.2074   12.9376  -10.9559 C   0  0  2  0  0  0  0  0  0  0  0  0
   -2.1889   14.4652  -10.9572 C   0  0  0  0  0  0  0  0  0  0  0  0
   -3.5166   14.9141  -11.6000 C   0  0  0  0  0  0  0  0  0  0  0  0
   -1.6730   12.4527  -12.1791 O   0  0  0  0  0  0  0  0  0  0  0  0
   -6.0635   12.2793   -9.8707 H   0  0  0  0  0  0  0  0  0  0  0  0
   -8.1971   10.1280  -13.8891 H   0  0  0  0  0  0  0  0  0  0  0  0
   -6.9038   12.2545  -14.0846 H   0  0  0  0  0  0  0  0  0  0  0  0
   -7.7946    7.8856   -9.7829 H   0  0  0  0  0  0  0  0  0  0  0  0
   -9.3899    8.8897  -11.5246 H   0  0  0  0  0  0  0  0  0  0  0  0
   -8.0145    9.5753   -7.2551 H   0  0  0  0  0  0  0  0  0  0  0  0
   -6.7764   12.3186   -6.9043 H   0  0  0  0  0  0  0  0  0  0  0  0
   -2.6166    9.7188   -8.0493 H   0  0  0  0  0  0  0  0  0  0  0  0
   -4.8960    8.7979   -8.4848 H   0  0  0  0  0  0  0  0  0  0  0  0
   -4.6978   14.3623   -6.0057 H   0  0  0  0  0  0  0  0  0  0  0  0
   -0.3901   12.9669   -6.6019 H   0  0  0  0  0  0  0  0  0  0  0  0
   -0.7019   11.2100   -6.3955 H   0  0  0  0  0  0  0  0  0  0  0  0
   -0.6874   11.9326   -8.0401 H   0  0  0  0  0  0  0  0  0  0  0  0
   -4.0252   12.5039   -9.7827 H   0  0  0  0  0  0  0  0  0  0  0  0
   -3.9410   11.6307  -11.3502 H   0  0  0  0  0  0  0  0  0  0  0  0
   -1.6579   12.5499  -10.0854 H   0  0  0  0  0  0  0  0  0  0  0  0
   -2.1163   14.8460   -9.9278 H   0  0  0  0  0  0  0  0  0  0  0  0
   -1.3366   14.8352  -11.5459 H   0  0  0  0  0  0  0  0  0  0  0  0
   -3.3656   15.2093  -12.6488 H   0  0  0  0  0  0  0  0  0  0  0  0
   -3.9592   15.7531  -11.0430 H   0  0  0  0  0  0  0  0  0  0  0  0
   -0.7528   12.6819  -12.2362 H   0  0  0  0  0  0  0  0  0  0  0  0
  1  2  2  0  0  0  0
  1  4  1  0  0  0  0
  1 12  1  0  0  0  0
  2  6  1  0  0  0  0
  3  4  2  0  0  0  0
  3  5  1  0  0  0  0
  5  6  2  0  0  0  0
  5  9  1  0  0  0  0
  6  7  1  0  0  0  0
  7  8  1  0  0  0  0
  7 10  2  0  0  0  0
  8  9  1  0  0  0  0
 10 14  1  0  0  0  0
 11 12  1  0  0  0  0
 11 24  1  0  0  0  0
 11 27  1  0  0  0  0
 12 13  2  0  0  0  0
 14 15  2  0  0  0  0
 14 19  1  0  0  0  0
 15 16  1  0  0  0  0
 16 17  2  0  0  0  0
 16 20  1  0  0  0  0
 17 18  1  0  0  0  0
 17 22  1  0  0  0  0
 18 19  2  0  0  0  0
 20 21  2  0  0  0  0
 21 22  1  0  0  0  0
 22 23  1  0  0  0  0
 24 25  1  0  0  0  0
 25 26  1  0  0  0  0
 25 28  1  0  0  0  0
 26 27  1  0  0  0  0
  2 29  1  0  0  0  0
  3 30  1  0  0  0  0
  4 31  1  0  0  0  0
  8 32  1  0  0  0  0
  9 33  1  0  0  0  0
 10 34  1  0  0  0  0
 15 35  1  0  0  0  0
 18 36  1  0  0  0  0
 19 37  1  0  0  0  0
 20 38  1  0  0  0  0
 23 39  1  0  0  0  0
 23 40  1  0  0  0  0
 23 41  1  0  0  0  0
 24 42  1  0  0  0  0
 24 43  1  0  0  0  0
 25 44  1  0  0  0  0
 26 45  1  0  0  0  0
 26 46  1  0  0  0  0
 27 47  1  0  0  0  0
 27 48  1  0  0  0  0
 28 49  1  0  0  0  0
M  END
> <Name>
42

> <IC50[uM]>
0.004

$$$$
42
  -OEChem-05192314333D
 Structure written by MMmdl.
 49 53  0     1  0  0  0  0  0999 V2000
   -6.3691   12.3596  -12.0090 C   0  0  0  0  0  0  0  0  0  0  0  0
   -6.5082   11.8040  -10.7325 C   0  0  0  0  0  0  0  0  0  0  0  0
   -7.7289   10.5800  -13.0272 C   0  0  0  0  0  0  0  0  0  0  0  0
   -6.9931   11.7723  -13.1223 C   0  0  0  0  0  0  0  0  0  0  0  0
   -7.8208   10.0120  -11.7545 C   0  0  0  0  0  0  0  0  0  0  0  0
   -7.2366   10.6190  -10.6002 C   0  0  0  0  0  0  0  0  0  0  0  0
   -7.6071    9.7463   -9.5106 C   0  0  0  0  0  0  0  0  0  0  0  0
   -8.2820    8.7349   -9.9857 N   0  0  0  0  0  0  0  0  0  0  0  0
   -8.4162    8.8630  -11.2985 N   0  0  0  0  0  0  0  0  0  0  0  0
   -7.3216    9.8824   -8.0245 C   0  0  0  0  0  0  0  0  0  0  0  0
   -4.3612   13.7214  -11.5083 N   0  0  0  0  0  0  0  0  0  0  0  0
   -5.5493   13.6373  -12.1980 C   0  0  0  0  0  0  0  0  0  0  0  0
   -5.9470   14.5254  -12.9531 O   0  0  0  0  0  0  0  0  0  0  0  0
   -5.9509   10.4995   -7.7283 C   0  0  0  0  0  0  0  0  0  0  0  0
   -5.8798   11.7709   -7.1545 C   0  0  0  0  0  0  0  0  0  0  0  0
   -4.6121   12.3149   -6.9130 C   0  0  0  0  0  0  0  0  0  0  0  0
   -3.4406   11.5618   -7.2441 C   0  0  0  0  0  0  0  0  0  0  0  0
   -3.5052   10.2836   -7.8087 C   0  0  0  0  0  0  0  0  0  0  0  0
   -4.7939    9.7786   -8.0440 C   0  0  0  0  0  0  0  0  0  0  0  0
   -4.0930   13.5444   -6.3685 C   0  0  0  0  0  0  0  0  0  0  0  0
   -2.7888   13.5284   -6.3764 N   0  0  0  0  0  0  0  0  0  0  0  0
   -2.3823   12.3688   -6.8823 N   0  0  0  0  0  0  0  0  0  0  0  0
   -0.9528   12.1034   -6.9863 C   0  0  0  0  0  0  0  0  0  0  0  0
   -3.7146   12.5761  -10.8355 C   0  0  0  0  0  0  0  0  0  0  0  0
   -2.2074   12.9376  -10.9559 C   0  0  2  0  0  0  0  0  0  0  0  0
   -2.1889   14.4652  -10.9572 C   0  0  0  0  0  0  0  0  0  0  0  0
   -3.5166   14.9141  -11.6000 C   0  0  0  0  0  0  0  0  0  0  0  0
   -1.6730   12.4527  -12.1791 O   0  0  0  0  0  0  0  0  0  0  0  0
   -6.0635   12.2793   -9.8707 H   0  0  0  0  0  0  0  0  0  0  0  0
   -8.1971   10.1280  -13.8891 H   0  0  0  0  0  0  0  0  0  0  0  0
   -6.9038   12.2545  -14.0846 H   0  0  0  0  0  0  0  0  0  0  0  0
   -8.6433    7.9777   -9.4415 H   0  0  0  0  0  0  0  0  0  0  0  0
   -8.0145    9.5753   -7.2551 H   0  0  0  0  0  0  0  0  0  0  0  0
   -6.4097   12.4625   -7.8260 H   0  0  0  0  0  0  0  0  0  0  0  0
   -6.4044   11.7234   -6.1888 H   0  0  0  0  0  0  0  0  0  0  0  0
   -2.6166    9.7188   -8.0493 H   0  0  0  0  0  0  0  0  0  0  0  0
   -4.8960    8.7979   -8.4848 H   0  0  0  0  0  0  0  0  0  0  0  0
   -4.6978   14.3623   -6.0057 H   0  0  0  0  0  0  0  0  0  0  0  0
   -0.3901   12.9669   -6.6019 H   0  0  0  0  0  0  0  0  0  0  0  0
   -0.7019   11.2100   -6.3955 H   0  0  0  0  0  0  0  0  0  0  0  0
   -0.6874   11.9326   -8.0401 H   0  0  0  0  0  0  0  0  0  0  0  0
   -4.0252   12.5039   -9.7827 H   0  0  0  0  0  0  0  0  0  0  0  0
   -3.9410   11.6307  -11.3502 H   0  0  0  0  0  0  0  0  0  0  0  0
   -1.6579   12.5499  -10.0854 H   0  0  0  0  0  0  0  0  0  0  0  0
   -2.1163   14.8460   -9.9278 H   0  0  0  0  0  0  0  0  0  0  0  0
   -1.3366   14.8352  -11.5459 H   0  0  0  0  0  0  0  0  0  0  0  0
   -3.3656   15.2093  -12.6488 H   0  0  0  0  0  0  0  0  0  0  0  0
   -3.9592   15.7531  -11.0430 H   0  0  0  0  0  0  0  0  0  0  0  0
   -0.7528   12.6819  -12.2362 H   0  0  0  0  0  0  0  0  0  0  0  0
  1  2  2  0  0  0  0
  1  4  1  0  0  0  0
  1 12  1  0  0  0  0
  2  6  1  0  0  0  0
  3  4  2  0  0  0  0
  3  5  1  0  0  0  0
  5  6  1  0  0  0  0
  5  9  2  0  0  0  0
  6  7  2  0  0  0  0
  7  8  1  0  0  0  0
  7 10  1  0  0  0  0
  8  9  1  0  0  0  0
 10 14  2  0  0  0  0
 11 12  1  0  0  0  0
 11 24  1  0  0  0  0
 11 27  1  0  0  0  0
 12 13  2  0  0  0  0
 14 15  1  0  0  0  0
 14 19  1  0  0  0  0
 15 16  1  0  0  0  0
 16 17  2  0  0  0  0
 16 20  1  0  0  0  0
 17 18  1  0  0  0  0
 17 22  1  0  0  0  0
 18 19  2  0  0  0  0
 20 21  2  0  0  0  0
 21 22  1  0  0  0  0
 22 23  1  0  0  0  0
 24 25  1  0  0  0  0
 25 26  1  0  0  0  0
 25 28  1  0  0  0  0
 26 27  1  0  0  0  0
  2 29  1  0  0  0  0
  3 30  1  0  0  0  0
  4 31  1  0  0  0  0
  8 32  1  0  0  0  0
 10 33  1  0  0  0  0
 15 34  1  0  0  0  0
 15 35  1  0  0  0  0
 18 36  1  0  0  0  0
 19 37  1  0  0  0  0
 20 38  1  0  0  0  0
 23 39  1  0  0  0  0
 23 40  1  0  0  0  0
 23 41  1  0  0  0  0
 24 42  1  0  0  0  0
 24 43  1  0  0  0  0
 25 44  1  0  0  0  0
 26 45  1  0  0  0  0
 26 46  1  0  0  0  0
 27 47  1  0  0  0  0
 27 48  1  0  0  0  0
 28 49  1  0  0  0  0
M  END
> <Name>
42

> <IC50[uM]>
0.004

$$$$
42
  -OEChem-05192314333D
 Structure written by MMmdl.
 49 53  0     1  0  0  0  0  0999 V2000
   -6.3691   12.3596  -12.0090 C   0  0  0  0  0  0  0  0  0  0  0  0
   -6.5082   11.8040  -10.7325 C   0  0  0  0  0  0  0  0  0  0  0  0
   -7.7289   10.5800  -13.0272 C   0  0  0  0  0  0  0  0  0  0  0  0
   -6.9931   11.7723  -13.1223 C   0  0  0  0  0  0  0  0  0  0  0  0
   -7.8208   10.0120  -11.7545 C   0  0  0  0  0  0  0  0  0  0  0  0
   -7.2366   10.6190  -10.6002 C   0  0  0  0  0  0  0  0  0  0  0  0
   -7.6071    9.7463   -9.5106 C   0  0  0  0  0  0  0  0  0  0  0  0
   -8.2820    8.7349   -9.9857 N   0  0  0  0  0  0  0  0  0  0  0  0
   -8.4162    8.8630  -11.2985 N   0  0  0  0  0  0  0  0  0  0  0  0
   -7.3216    9.8824   -8.0245 C   0  0  0  0  0  0  0  0  0  0  0  0
   -4.3612   13.7214  -11.5083 N   0  0  0  0  0  0  0  0  0  0  0  0
   -5.5493   13.6373  -12.1980 C   0  0  0  0  0  0  0  0  0  0  0  0
   -5.9470   14.5254  -12.9531 O   0  0  0  0  0  0  0  0  0  0  0  0
   -5.9509   10.4995   -7.7283 C   0  0  0  0  0  0  0  0  0  0  0  0
   -5.8798   11.7709   -7.1545 C   0  0  0  0  0  0  0  0  0  0  0  0
   -4.6121   12.3149   -6.9130 C   0  0  0  0  0  0  0  0  0  0  0  0
   -3.4406   11.5618   -7.2441 C   0  0  0  0  0  0  0  0  0  0  0  0
   -3.5052   10.2836   -7.8087 C   0  0  0  0  0  0  0  0  0  0  0  0
   -4.7939    9.7786   -8.0440 C   0  0  0  0  0  0  0  0  0  0  0  0
   -4.0930   13.5444   -6.3685 C   0  0  0  0  0  0  0  0  0  0  0  0
   -2.7888   13.5284   -6.3764 N   0  0  0  0  0  0  0  0  0  0  0  0
   -2.3823   12.3688   -6.8823 N   0  0  0  0  0  0  0  0  0  0  0  0
   -0.9528   12.1034   -6.9863 C   0  0  0  0  0  0  0  0  0  0  0  0
   -3.7146   12.5761  -10.8355 C   0  0  0  0  0  0  0  0  0  0  0  0
   -2.2074   12.9376  -10.9559 C   0  0  2  0  0  0  0  0  0  0  0  0
   -2.1889   14.4652  -10.9572 C   0  0  0  0  0  0  0  0  0  0  0  0
   -3.5166   14.9141  -11.6000 C   0  0  0  0  0  0  0  0  0  0  0  0
   -1.6730   12.4527  -12.1791 O   0  0  0  0  0  0  0  0  0  0  0  0
   -6.0635   12.2793   -9.8707 H   0  0  0  0  0  0  0  0  0  0  0  0
   -8.1971   10.1280  -13.8891 H   0  0  0  0  0  0  0  0  0  0  0  0
   -6.9038   12.2545  -14.0846 H   0  0  0  0  0  0  0  0  0  0  0  0
   -8.8915    8.2051  -11.8827 H   0  0  0  0  0  0  0  0  0  0  0  0
   -8.0145    9.5753   -7.2551 H   0  0  0  0  0  0  0  0  0  0  0  0
   -6.4097   12.4625   -7.8260 H   0  0  0  0  0  0  0  0  0  0  0  0
   -6.4044   11.7234   -6.1888 H   0  0  0  0  0  0  0  0  0  0  0  0
   -2.6166    9.7188   -8.0493 H   0  0  0  0  0  0  0  0  0  0  0  0
   -4.8960    8.7979   -8.4848 H   0  0  0  0  0  0  0  0  0  0  0  0
   -4.6978   14.3623   -6.0057 H   0  0  0  0  0  0  0  0  0  0  0  0
   -0.3901   12.9669   -6.6019 H   0  0  0  0  0  0  0  0  0  0  0  0
   -0.7019   11.2100   -6.3955 H   0  0  0  0  0  0  0  0  0  0  0  0
   -0.6874   11.9326   -8.0401 H   0  0  0  0  0  0  0  0  0  0  0  0
   -4.0252   12.5039   -9.7827 H   0  0  0  0  0  0  0  0  0  0  0  0
   -3.9410   11.6307  -11.3502 H   0  0  0  0  0  0  0  0  0  0  0  0
   -1.6579   12.5499  -10.0854 H   0  0  0  0  0  0  0  0  0  0  0  0
   -2.1163   14.8460   -9.9278 H   0  0  0  0  0  0  0  0  0  0  0  0
   -1.3366   14.8352  -11.5459 H   0  0  0  0  0  0  0  0  0  0  0  0
   -3.3656   15.2093  -12.6488 H   0  0  0  0  0  0  0  0  0  0  0  0
   -3.9592   15.7531  -11.0430 H   0  0  0  0  0  0  0  0  0  0  0  0
   -0.7528   12.6819  -12.2362 H   0  0  0  0  0  0  0  0  0  0  0  0
  1  2  2  0  0  0  0
  1  4  1  0  0  0  0
  1 12  1  0  0  0  0
  2  6  1  0  0  0  0
  3  4  2  0  0  0  0
  3  5  1  0  0  0  0
  5  6  2  0  0  0  0
  5  9  1  0  0  0  0
  6  7  1  0  0  0  0
  7  8  2  0  0  0  0
  7 10  1  0  0  0  0
  8  9  1  0  0  0  0
 10 14  2  0  0  0  0
 11 12  1  0  0  0  0
 11 24  1  0  0  0  0
 11 27  1  0  0  0  0
 12 13  2  0  0  0  0
 14 15  1  0  0  0  0
 14 19  1  0  0  0  0
 15 16  1  0  0  0  0
 16 17  2  0  0  0  0
 16 20  1  0  0  0  0
 17 18  1  0  0  0  0
 17 22  1  0  0  0  0
 18 19  2  0  0  0  0
 20 21  2  0  0  0  0
 21 22  1  0  0  0  0
 22 23  1  0  0  0  0
 24 25  1  0  0  0  0
 25 26  1  0  0  0  0
 25 28  1  0  0  0  0
 26 27  1  0  0  0  0
  2 29  1  0  0  0  0
  3 30  1  0  0  0  0
  4 31  1  0  0  0  0
  9 32  1  0  0  0  0
 10 33  1  0  0  0  0
 15 34  1  0  0  0  0
 15 35  1  0  0  0  0
 18 36  1  0  0  0  0
 19 37  1  0  0  0  0
 20 38  1  0  0  0  0
 23 39  1  0  0  0  0
 23 40  1  0  0  0  0
 23 41  1  0  0  0  0
 24 42  1  0  0  0  0
 24 43  1  0  0  0  0
 25 44  1  0  0  0  0
 26 45  1  0  0  0  0
 26 46  1  0  0  0  0
 27 47  1  0  0  0  0
 27 48  1  0  0  0  0
 28 49  1  0  0  0  0
M  END
> <Name>
42

> <IC50[uM]>
0.004

$$$$
42
  -OEChem-05192314333D
 Structure written by MMmdl.
 49 53  0     1  0  0  0  0  0999 V2000
   -6.3691   12.3596  -12.0090 C   0  0  0  0  0  0  0  0  0  0  0  0
   -6.5082   11.8040  -10.7325 C   0  0  0  0  0  0  0  0  0  0  0  0
   -7.7289   10.5800  -13.0272 C   0  0  0  0  0  0  0  0  0  0  0  0
   -6.9931   11.7723  -13.1223 C   0  0  0  0  0  0  0  0  0  0  0  0
   -7.8208   10.0120  -11.7545 C   0  0  0  0  0  0  0  0  0  0  0  0
   -7.2366   10.6190  -10.6002 C   0  0  0  0  0  0  0  0  0  0  0  0
   -7.6071    9.7463   -9.5106 C   0  0  0  0  0  0  0  0  0  0  0  0
   -8.2820    8.7349   -9.9857 N   0  0  0  0  0  0  0  0  0  0  0  0
   -8.4162    8.8630  -11.2985 N   0  0  0  0  0  0  0  0  0  0  0  0
   -7.3216    9.8824   -8.0245 C   0  0  0  0  0  0  0  0  0  0  0  0
   -4.3612   13.7214  -11.5083 N   0  0  0  0  0  0  0  0  0  0  0  0
   -5.5493   13.6373  -12.1980 C   0  0  0  0  0  0  0  0  0  0  0  0
   -5.9470   14.5254  -12.9531 O   0  0  0  0  0  0  0  0  0  0  0  0
   -5.9509   10.4995   -7.7283 C   0  0  0  0  0  0  0  0  0  0  0  0
   -5.8798   11.7709   -7.1545 C   0  0  0  0  0  0  0  0  0  0  0  0
   -4.6121   12.3149   -6.9130 C   0  0  0  0  0  0  0  0  0  0  0  0
   -3.4406   11.5618   -7.2441 C   0  0  0  0  0  0  0  0  0  0  0  0
   -3.5052   10.2836   -7.8087 C   0  0  0  0  0  0  0  0  0  0  0  0
   -4.7939    9.7786   -8.0440 C   0  0  0  0  0  0  0  0  0  0  0  0
   -4.0930   13.5444   -6.3685 C   0  0  0  0  0  0  0  0  0  0  0  0
   -2.7888   13.5284   -6.3764 N   0  0  0  0  0  0  0  0  0  0  0  0
   -2.3823   12.3688   -6.8823 N   0  0  0  0  0  0  0  0  0  0  0  0
   -0.9528   12.1034   -6.9863 C   0  0  0  0  0  0  0  0  0  0  0  0
   -3.7146   12.5761  -10.8355 C   0  0  0  0  0  0  0  0  0  0  0  0
   -2.2074   12.9376  -10.9559 C   0  0  2  0  0  0  0  0  0  0  0  0
   -2.1889   14.4652  -10.9572 C   0  0  0  0  0  0  0  0  0  0  0  0
   -3.5166   14.9141  -11.6000 C   0  0  0  0  0  0  0  0  0  0  0  0
   -1.6730   12.4527  -12.1791 O   0  0  0  0  0  0  0  0  0  0  0  0
   -5.4702   11.7501  -12.1833 H   0  0  0  0  0  0  0  0  0  0  0  0
   -6.0635   12.2793   -9.8707 H   0  0  0  0  0  0  0  0  0  0  0  0
   -8.1971   10.1280  -13.8891 H   0  0  0  0  0  0  0  0  0  0  0  0
   -6.9038   12.2545  -14.0846 H   0  0  0  0  0  0  0  0  0  0  0  0
   -8.6433    7.9777   -9.4415 H   0  0  0  0  0  0  0  0  0  0  0  0
   -8.0145    9.5753   -7.2551 H   0  0  0  0  0  0  0  0  0  0  0  0
   -6.7764   12.3186   -6.9043 H   0  0  0  0  0  0  0  0  0  0  0  0
   -2.6166    9.7188   -8.0493 H   0  0  0  0  0  0  0  0  0  0  0  0
   -4.8960    8.7979   -8.4848 H   0  0  0  0  0  0  0  0  0  0  0  0
   -4.6978   14.3623   -6.0057 H   0  0  0  0  0  0  0  0  0  0  0  0
   -0.3901   12.9669   -6.6019 H   0  0  0  0  0  0  0  0  0  0  0  0
   -0.7019   11.2100   -6.3955 H   0  0  0  0  0  0  0  0  0  0  0  0
   -0.6874   11.9326   -8.0401 H   0  0  0  0  0  0  0  0  0  0  0  0
   -4.0252   12.5039   -9.7827 H   0  0  0  0  0  0  0  0  0  0  0  0
   -3.9410   11.6307  -11.3502 H   0  0  0  0  0  0  0  0  0  0  0  0
   -1.6579   12.5499  -10.0854 H   0  0  0  0  0  0  0  0  0  0  0  0
   -2.1163   14.8460   -9.9278 H   0  0  0  0  0  0  0  0  0  0  0  0
   -1.3366   14.8352  -11.5459 H   0  0  0  0  0  0  0  0  0  0  0  0
   -3.3656   15.2093  -12.6488 H   0  0  0  0  0  0  0  0  0  0  0  0
   -3.9592   15.7531  -11.0430 H   0  0  0  0  0  0  0  0  0  0  0  0
   -0.7528   12.6819  -12.2362 H   0  0  0  0  0  0  0  0  0  0  0  0
  1  2  1  0  0  0  0
  1  4  1  0  0  0  0
  1 12  1  0  0  0  0
  2  6  2  0  0  0  0
  3  4  2  0  0  0  0
  3  5  1  0  0  0  0
  5  6  1  0  0  0  0
  5  9  2  0  0  0  0
  6  7  1  0  0  0  0
  7  8  1  0  0  0  0
  7 10  2  0  0  0  0
  8  9  1  0  0  0  0
 10 14  1  0  0  0  0
 11 12  1  0  0  0  0
 11 24  1  0  0  0  0
 11 27  1  0  0  0  0
 12 13  2  0  0  0  0
 14 15  2  0  0  0  0
 14 19  1  0  0  0  0
 15 16  1  0  0  0  0
 16 17  2  0  0  0  0
 16 20  1  0  0  0  0
 17 18  1  0  0  0  0
 17 22  1  0  0  0  0
 18 19  2  0  0  0  0
 20 21  2  0  0  0  0
 21 22  1  0  0  0  0
 22 23  1  0  0  0  0
 24 25  1  0  0  0  0
 25 26  1  0  0  0  0
 25 28  1  0  0  0  0
 26 27  1  0  0  0  0
  1 29  1  0  0  0  0
  2 30  1  0  0  0  0
  3 31  1  0  0  0  0
  4 32  1  0  0  0  0
  8 33  1  0  0  0  0
 10 34  1  0  0  0  0
 15 35  1  0  0  0  0
 18 36  1  0  0  0  0
 19 37  1  0  0  0  0
 20 38  1  0  0  0  0
 23 39  1  0  0  0  0
 23 40  1  0  0  0  0
 23 41  1  0  0  0  0
 24 42  1  0  0  0  0
 24 43  1  0  0  0  0
 25 44  1  0  0  0  0
 26 45  1  0  0  0  0
 26 46  1  0  0  0  0
 27 47  1  0  0  0  0
 27 48  1  0  0  0  0
 28 49  1  0  0  0  0
M  END
> <Name>
42

> <IC50[uM]>
0.004

$$$$
42
  -OEChem-05192314333D
 Structure written by MMmdl.
 49 53  0     1  0  0  0  0  0999 V2000
   -6.3691   12.3596  -12.0090 C   0  0  0  0  0  0  0  0  0  0  0  0
   -6.5082   11.8040  -10.7325 C   0  0  0  0  0  0  0  0  0  0  0  0
   -7.7289   10.5800  -13.0272 C   0  0  0  0  0  0  0  0  0  0  0  0
   -6.9931   11.7723  -13.1223 C   0  0  0  0  0  0  0  0  0  0  0  0
   -7.8208   10.0120  -11.7545 C   0  0  0  0  0  0  0  0  0  0  0  0
   -7.2366   10.6190  -10.6002 C   0  0  0  0  0  0  0  0  0  0  0  0
   -7.6071    9.7463   -9.5106 C   0  0  0  0  0  0  0  0  0  0  0  0
   -8.2820    8.7349   -9.9857 N   0  0  0  0  0  0  0  0  0  0  0  0
   -8.4162    8.8630  -11.2985 N   0  0  0  0  0  0  0  0  0  0  0  0
   -7.3216    9.8824   -8.0245 C   0  0  0  0  0  0  0  0  0  0  0  0
   -4.3612   13.7214  -11.5083 N   0  0  0  0  0  0  0  0  0  0  0  0
   -5.5493   13.6373  -12.1980 C   0  0  0  0  0  0  0  0  0  0  0  0
   -5.9470   14.5254  -12.9531 O   0  0  0  0  0  0  0  0  0  0  0  0
   -5.9509   10.4995   -7.7283 C   0  0  0  0  0  0  0  0  0  0  0  0
   -5.8798   11.7709   -7.1545 C   0  0  0  0  0  0  0  0  0  0  0  0
   -4.6121   12.3149   -6.9130 C   0  0  0  0  0  0  0  0  0  0  0  0
   -3.4406   11.5618   -7.2441 C   0  0  0  0  0  0  0  0  0  0  0  0
   -3.5052   10.2836   -7.8087 C   0  0  0  0  0  0  0  0  0  0  0  0
   -4.7939    9.7786   -8.0440 C   0  0  0  0  0  0  0  0  0  0  0  0
   -4.0930   13.5444   -6.3685 C   0  0  0  0  0  0  0  0  0  0  0  0
   -2.7888   13.5284   -6.3764 N   0  0  0  0  0  0  0  0  0  0  0  0
   -2.3823   12.3688   -6.8823 N   0  0  0  0  0  0  0  0  0  0  0  0
   -0.9528   12.1034   -6.9863 C   0  0  0  0  0  0  0  0  0  0  0  0
   -3.7146   12.5761  -10.8355 C   0  0  0  0  0  0  0  0  0  0  0  0
   -2.2074   12.9376  -10.9559 C   0  0  2  0  0  0  0  0  0  0  0  0
   -2.1889   14.4652  -10.9572 C   0  0  0  0  0  0  0  0  0  0  0  0
   -3.5166   14.9141  -11.6000 C   0  0  0  0  0  0  0  0  0  0  0  0
   -1.6730   12.4527  -12.1791 O   0  0  0  0  0  0  0  0  0  0  0  0
   -6.0635   12.2793   -9.8707 H   0  0  0  0  0  0  0  0  0  0  0  0
   -8.7510   10.7876  -13.3767 H   0  0  0  0  0  0  0  0  0  0  0  0
   -7.2574    9.8407  -13.6914 H   0  0  0  0  0  0  0  0  0  0  0  0
   -6.9038   12.2545  -14.0846 H   0  0  0  0  0  0  0  0  0  0  0  0
   -8.6433    7.9777   -9.4415 H   0  0  0  0  0  0  0  0  0  0  0  0
   -8.0145    9.5753   -7.2551 H   0  0  0  0  0  0  0  0  0  0  0  0
   -6.7764   12.3186   -6.9043 H   0  0  0  0  0  0  0  0  0  0  0  0
   -2.6166    9.7188   -8.0493 H   0  0  0  0  0  0  0  0  0  0  0  0
   -4.8960    8.7979   -8.4848 H   0  0  0  0  0  0  0  0  0  0  0  0
   -4.6978   14.3623   -6.0057 H   0  0  0  0  0  0  0  0  0  0  0  0
   -0.3901   12.9669   -6.6019 H   0  0  0  0  0  0  0  0  0  0  0  0
   -0.7019   11.2100   -6.3955 H   0  0  0  0  0  0  0  0  0  0  0  0
   -0.6874   11.9326   -8.0401 H   0  0  0  0  0  0  0  0  0  0  0  0
   -4.0252   12.5039   -9.7827 H   0  0  0  0  0  0  0  0  0  0  0  0
   -3.9410   11.6307  -11.3502 H   0  0  0  0  0  0  0  0  0  0  0  0
   -1.6579   12.5499  -10.0854 H   0  0  0  0  0  0  0  0  0  0  0  0
   -2.1163   14.8460   -9.9278 H   0  0  0  0  0  0  0  0  0  0  0  0
   -1.3366   14.8352  -11.5459 H   0  0  0  0  0  0  0  0  0  0  0  0
   -3.3656   15.2093  -12.6488 H   0  0  0  0  0  0  0  0  0  0  0  0
   -3.9592   15.7531  -11.0430 H   0  0  0  0  0  0  0  0  0  0  0  0
   -0.7528   12.6819  -12.2362 H   0  0  0  0  0  0  0  0  0  0  0  0
  1  2  1  0  0  0  0
  1  4  2  0  0  0  0
  1 12  1  0  0  0  0
  2  6  2  0  0  0  0
  3  4  1  0  0  0  0
  3  5  1  0  0  0  0
  5  6  1  0  0  0  0
  5  9  2  0  0  0  0
  6  7  1  0  0  0  0
  7  8  1  0  0  0  0
  7 10  2  0  0  0  0
  8  9  1  0  0  0  0
 10 14  1  0  0  0  0
 11 12  1  0  0  0  0
 11 24  1  0  0  0  0
 11 27  1  0  0  0  0
 12 13  2  0  0  0  0
 14 15  2  0  0  0  0
 14 19  1  0  0  0  0
 15 16  1  0  0  0  0
 16 17  2  0  0  0  0
 16 20  1  0  0  0  0
 17 18  1  0  0  0  0
 17 22  1  0  0  0  0
 18 19  2  0  0  0  0
 20 21  2  0  0  0  0
 21 22  1  0  0  0  0
 22 23  1  0  0  0  0
 24 25  1  0  0  0  0
 25 26  1  0  0  0  0
 25 28  1  0  0  0  0
 26 27  1  0  0  0  0
  2 29  1  0  0  0  0
  3 30  1  0  0  0  0
  3 31  1  0  0  0  0
  4 32  1  0  0  0  0
  8 33  1  0  0  0  0
 10 34  1  0  0  0  0
 15 35  1  0  0  0  0
 18 36  1  0  0  0  0
 19 37  1  0  0  0  0
 20 38  1  0  0  0  0
 23 39  1  0  0  0  0
 23 40  1  0  0  0  0
 23 41  1  0  0  0  0
 24 42  1  0  0  0  0
 24 43  1  0  0  0  0
 25 44  1  0  0  0  0
 26 45  1  0  0  0  0
 26 46  1  0  0  0  0
 27 47  1  0  0  0  0
 27 48  1  0  0  0  0
 28 49  1  0  0  0  0
M  END
> <Name>
42

> <IC50[uM]>
0.004

$$$$
42
  -OEChem-05192314333D
 Structure written by MMmdl.
 49 53  0     1  0  0  0  0  0999 V2000
   -6.3691   12.3596  -12.0090 C   0  0  0  0  0  0  0  0  0  0  0  0
   -6.5082   11.8040  -10.7325 C   0  0  0  0  0  0  0  0  0  0  0  0
   -7.7289   10.5800  -13.0272 C   0  0  0  0  0  0  0  0  0  0  0  0
   -6.9931   11.7723  -13.1223 C   0  0  0  0  0  0  0  0  0  0  0  0
   -7.8208   10.0120  -11.7545 C   0  0  0  0  0  0  0  0  0  0  0  0
   -7.2366   10.6190  -10.6002 C   0  0  0  0  0  0  0  0  0  0  0  0
   -7.6071    9.7463   -9.5106 C   0  0  0  0  0  0  0  0  0  0  0  0
   -8.2820    8.7349   -9.9857 N   0  0  0  0  0  0  0  0  0  0  0  0
   -8.4162    8.8630  -11.2985 N   0  0  0  0  0  0  0  0  0  0  0  0
   -7.3216    9.8824   -8.0245 C   0  0  0  0  0  0  0  0  0  0  0  0
   -4.3612   13.7214  -11.5083 N   0  0  0  0  0  0  0  0  0  0  0  0
   -5.5493   13.6373  -12.1980 C   0  0  0  0  0  0  0  0  0  0  0  0
   -5.9470   14.5254  -12.9531 O   0  0  0  0  0  0  0  0  0  0  0  0
   -5.9509   10.4995   -7.7283 C   0  0  0  0  0  0  0  0  0  0  0  0
   -5.8798   11.7709   -7.1545 C   0  0  0  0  0  0  0  0  0  0  0  0
   -4.6121   12.3149   -6.9130 C   0  0  0  0  0  0  0  0  0  0  0  0
   -3.4406   11.5618   -7.2441 C   0  0  0  0  0  0  0  0  0  0  0  0
   -3.5052   10.2836   -7.8087 C   0  0  0  0  0  0  0  0  0  0  0  0
   -4.7939    9.7786   -8.0440 C   0  0  0  0  0  0  0  0  0  0  0  0
   -4.0930   13.5444   -6.3685 C   0  0  0  0  0  0  0  0  0  0  0  0
   -2.7888   13.5284   -6.3764 N   0  0  0  0  0  0  0  0  0  0  0  0
   -2.3823   12.3688   -6.8823 N   0  0  0  0  0  0  0  0  0  0  0  0
   -0.9528   12.1034   -6.9863 C   0  0  0  0  0  0  0  0  0  0  0  0
   -3.7146   12.5761  -10.8355 C   0  0  0  0  0  0  0  0  0  0  0  0
   -2.2074   12.9376  -10.9559 C   0  0  2  0  0  0  0  0  0  0  0  0
   -2.1889   14.4652  -10.9572 C   0  0  0  0  0  0  0  0  0  0  0  0
   -3.5166   14.9141  -11.6000 C   0  0  0  0  0  0  0  0  0  0  0  0
   -1.6730   12.4527  -12.1791 O   0  0  0  0  0  0  0  0  0  0  0  0
   -6.0635   12.2793   -9.8707 H   0  0  0  0  0  0  0  0  0  0  0  0
   -8.1971   10.1280  -13.8891 H   0  0  0  0  0  0  0  0  0  0  0  0
   -6.9038   12.2545  -14.0846 H   0  0  0  0  0  0  0  0  0  0  0  0
   -8.6433    7.9777   -9.4415 H   0  0  0  0  0  0  0  0  0  0  0  0
   -8.0145    9.5753   -7.2551 H   0  0  0  0  0  0  0  0  0  0  0  0
   -6.7764   12.3186   -6.9043 H   0  0  0  0  0  0  0  0  0  0  0  0
   -2.6166    9.7188   -8.0493 H   0  0  0  0  0  0  0  0  0  0  0  0
   -4.8594    8.8342   -7.4838 H   0  0  0  0  0  0  0  0  0  0  0  0
   -4.8484    9.5696   -9.1226 H   0  0  0  0  0  0  0  0  0  0  0  0
   -4.6978   14.3623   -6.0057 H   0  0  0  0  0  0  0  0  0  0  0  0
   -0.3901   12.9669   -6.6019 H   0  0  0  0  0  0  0  0  0  0  0  0
   -0.7019   11.2100   -6.3955 H   0  0  0  0  0  0  0  0  0  0  0  0
   -0.6874   11.9326   -8.0401 H   0  0  0  0  0  0  0  0  0  0  0  0
   -4.0252   12.5039   -9.7827 H   0  0  0  0  0  0  0  0  0  0  0  0
   -3.9410   11.6307  -11.3502 H   0  0  0  0  0  0  0  0  0  0  0  0
   -1.6579   12.5499  -10.0854 H   0  0  0  0  0  0  0  0  0  0  0  0
   -2.1163   14.8460   -9.9278 H   0  0  0  0  0  0  0  0  0  0  0  0
   -1.3366   14.8352  -11.5459 H   0  0  0  0  0  0  0  0  0  0  0  0
   -3.3656   15.2093  -12.6488 H   0  0  0  0  0  0  0  0  0  0  0  0
   -3.9592   15.7531  -11.0430 H   0  0  0  0  0  0  0  0  0  0  0  0
   -0.7528   12.6819  -12.2362 H   0  0  0  0  0  0  0  0  0  0  0  0
  1  2  2  0  0  0  0
  1  4  1  0  0  0  0
  1 12  1  0  0  0  0
  2  6  1  0  0  0  0
  3  4  2  0  0  0  0
  3  5  1  0  0  0  0
  5  6  1  0  0  0  0
  5  9  2  0  0  0  0
  6  7  2  0  0  0  0
  7  8  1  0  0  0  0
  7 10  1  0  0  0  0
  8  9  1  0  0  0  0
 10 14  2  0  0  0  0
 11 12  1  0  0  0  0
 11 24  1  0  0  0  0
 11 27  1  0  0  0  0
 12 13  2  0  0  0  0
 14 15  1  0  0  0  0
 14 19  1  0  0  0  0
 15 16  2  0  0  0  0
 16 17  1  0  0  0  0
 16 20  1  0  0  0  0
 17 18  2  0  0  0  0
 17 22  1  0  0  0  0
 18 19  1  0  0  0  0
 20 21  2  0  0  0  0
 21 22  1  0  0  0  0
 22 23  1  0  0  0  0
 24 25  1  0  0  0  0
 25 26  1  0  0  0  0
 25 28  1  0  0  0  0
 26 27  1  0  0  0  0
  2 29  1  0  0  0  0
  3 30  1  0  0  0  0
  4 31  1  0  0  0  0
  8 32  1  0  0  0  0
 10 33  1  0  0  0  0
 15 34  1  0  0  0  0
 18 35  1  0  0  0  0
 19 36  1  0  0  0  0
 19 37  1  0  0  0  0
 20 38  1  0  0  0  0
 23 39  1  0  0  0  0
 23 40  1  0  0  0  0
 23 41  1  0  0  0  0
 24 42  1  0  0  0  0
 24 43  1  0  0  0  0
 25 44  1  0  0  0  0
 26 45  1  0  0  0  0
 26 46  1  0  0  0  0
 27 47  1  0  0  0  0
 27 48  1  0  0  0  0
 28 49  1  0  0  0  0
M  END
> <Name>
42

> <IC50[uM]>
0.004

$$$$
42
  -OEChem-05192314333D
 Structure written by MMmdl.
 49 53  0     1  0  0  0  0  0999 V2000
   -6.3691   12.3596  -12.0090 C   0  0  0  0  0  0  0  0  0  0  0  0
   -6.5082   11.8040  -10.7325 C   0  0  0  0  0  0  0  0  0  0  0  0
   -7.7289   10.5800  -13.0272 C   0  0  0  0  0  0  0  0  0  0  0  0
   -6.9931   11.7723  -13.1223 C   0  0  0  0  0  0  0  0  0  0  0  0
   -7.8208   10.0120  -11.7545 C   0  0  0  0  0  0  0  0  0  0  0  0
   -7.2366   10.6190  -10.6002 C   0  0  0  0  0  0  0  0  0  0  0  0
   -7.6071    9.7463   -9.5106 C   0  0  0  0  0  0  0  0  0  0  0  0
   -8.2820    8.7349   -9.9857 N   0  0  0  0  0  0  0  0  0  0  0  0
   -8.4162    8.8630  -11.2985 N   0  0  0  0  0  0  0  0  0  0  0  0
   -7.3216    9.8824   -8.0245 C   0  0  0  0  0  0  0  0  0  0  0  0
   -4.3612   13.7214  -11.5083 N   0  0  0  0  0  0  0  0  0  0  0  0
   -5.5493   13.6373  -12.1980 C   0  0  0  0  0  0  0  0  0  0  0  0
   -5.9470   14.5254  -12.9531 O   0  0  0  0  0  0  0  0  0  0  0  0
   -5.9509   10.4995   -7.7283 C   0  0  0  0  0  0  0  0  0  0  0  0
   -5.8798   11.7709   -7.1545 C   0  0  0  0  0  0  0  0  0  0  0  0
   -4.6121   12.3149   -6.9130 C   0  0  0  0  0  0  0  0  0  0  0  0
   -3.4406   11.5618   -7.2441 C   0  0  0  0  0  0  0  0  0  0  0  0
   -3.5052   10.2836   -7.8087 C   0  0  0  0  0  0  0  0  0  0  0  0
   -4.7939    9.7786   -8.0440 C   0  0  0  0  0  0  0  0  0  0  0  0
   -4.0930   13.5444   -6.3685 C   0  0  0  0  0  0  0  0  0  0  0  0
   -2.7888   13.5284   -6.3764 N   0  0  0  0  0  0  0  0  0  0  0  0
   -2.3823   12.3688   -6.8823 N   0  0  0  0  0  0  0  0  0  0  0  0
   -0.9528   12.1034   -6.9863 C   0  0  0  0  0  0  0  0  0  0  0  0
   -3.7146   12.5761  -10.8355 C   0  0  0  0  0  0  0  0  0  0  0  0
   -2.2074   12.9376  -10.9559 C   0  0  2  0  0  0  0  0  0  0  0  0
   -2.1889   14.4652  -10.9572 C   0  0  0  0  0  0  0  0  0  0  0  0
   -3.5166   14.9141  -11.6000 C   0  0  0  0  0  0  0  0  0  0  0  0
   -1.6730   12.4527  -12.1791 O   0  0  0  0  0  0  0  0  0  0  0  0
   -6.0635   12.2793   -9.8707 H   0  0  0  0  0  0  0  0  0  0  0  0
   -8.1971   10.1280  -13.8891 H   0  0  0  0  0  0  0  0  0  0  0  0
   -6.9038   12.2545  -14.0846 H   0  0  0  0  0  0  0  0  0  0  0  0
   -8.8915    8.2051  -11.8827 H   0  0  0  0  0  0  0  0  0  0  0  0
   -8.0145    9.5753   -7.2551 H   0  0  0  0  0  0  0  0  0  0  0  0
   -6.7764   12.3186   -6.9043 H   0  0  0  0  0  0  0  0  0  0  0  0
   -2.6166    9.7188   -8.0493 H   0  0  0  0  0  0  0  0  0  0  0  0
   -4.8594    8.8342   -7.4838 H   0  0  0  0  0  0  0  0  0  0  0  0
   -4.8484    9.5696   -9.1226 H   0  0  0  0  0  0  0  0  0  0  0  0
   -4.6978   14.3623   -6.0057 H   0  0  0  0  0  0  0  0  0  0  0  0
   -0.3901   12.9669   -6.6019 H   0  0  0  0  0  0  0  0  0  0  0  0
   -0.7019   11.2100   -6.3955 H   0  0  0  0  0  0  0  0  0  0  0  0
   -0.6874   11.9326   -8.0401 H   0  0  0  0  0  0  0  0  0  0  0  0
   -4.0252   12.5039   -9.7827 H   0  0  0  0  0  0  0  0  0  0  0  0
   -3.9410   11.6307  -11.3502 H   0  0  0  0  0  0  0  0  0  0  0  0
   -1.6579   12.5499  -10.0854 H   0  0  0  0  0  0  0  0  0  0  0  0
   -2.1163   14.8460   -9.9278 H   0  0  0  0  0  0  0  0  0  0  0  0
   -1.3366   14.8352  -11.5459 H   0  0  0  0  0  0  0  0  0  0  0  0
   -3.3656   15.2093  -12.6488 H   0  0  0  0  0  0  0  0  0  0  0  0
   -3.9592   15.7531  -11.0430 H   0  0  0  0  0  0  0  0  0  0  0  0
   -0.7528   12.6819  -12.2362 H   0  0  0  0  0  0  0  0  0  0  0  0
  1  2  2  0  0  0  0
  1  4  1  0  0  0  0
  1 12  1  0  0  0  0
  2  6  1  0  0  0  0
  3  4  2  0  0  0  0
  3  5  1  0  0  0  0
  5  6  2  0  0  0  0
  5  9  1  0  0  0  0
  6  7  1  0  0  0  0
  7  8  2  0  0  0  0
  7 10  1  0  0  0  0
  8  9  1  0  0  0  0
 10 14  2  0  0  0  0
 11 12  1  0  0  0  0
 11 24  1  0  0  0  0
 11 27  1  0  0  0  0
 12 13  2  0  0  0  0
 14 15  1  0  0  0  0
 14 19  1  0  0  0  0
 15 16  2  0  0  0  0
 16 17  1  0  0  0  0
 16 20  1  0  0  0  0
 17 18  2  0  0  0  0
 17 22  1  0  0  0  0
 18 19  1  0  0  0  0
 20 21  2  0  0  0  0
 21 22  1  0  0  0  0
 22 23  1  0  0  0  0
 24 25  1  0  0  0  0
 25 26  1  0  0  0  0
 25 28  1  0  0  0  0
 26 27  1  0  0  0  0
  2 29  1  0  0  0  0
  3 30  1  0  0  0  0
  4 31  1  0  0  0  0
  9 32  1  0  0  0  0
 10 33  1  0  0  0  0
 15 34  1  0  0  0  0
 18 35  1  0  0  0  0
 19 36  1  0  0  0  0
 19 37  1  0  0  0  0
 20 38  1  0  0  0  0
 23 39  1  0  0  0  0
 23 40  1  0  0  0  0
 23 41  1  0  0  0  0
 24 42  1  0  0  0  0
 24 43  1  0  0  0  0
 25 44  1  0  0  0  0
 26 45  1  0  0  0  0
 26 46  1  0  0  0  0
 27 47  1  0  0  0  0
 27 48  1  0  0  0  0
 28 49  1  0  0  0  0
M  END
> <Name>
42

> <IC50[uM]>
0.004

$$$$
42
  -OEChem-05192314333D
 Structure written by MMmdl.
 49 53  0     1  0  0  0  0  0999 V2000
   -6.3691   12.3596  -12.0090 C   0  0  0  0  0  0  0  0  0  0  0  0
   -6.5082   11.8040  -10.7325 C   0  0  0  0  0  0  0  0  0  0  0  0
   -7.7289   10.5800  -13.0272 C   0  0  0  0  0  0  0  0  0  0  0  0
   -6.9931   11.7723  -13.1223 C   0  0  0  0  0  0  0  0  0  0  0  0
   -7.8208   10.0120  -11.7545 C   0  0  0  0  0  0  0  0  0  0  0  0
   -7.2366   10.6190  -10.6002 C   0  0  0  0  0  0  0  0  0  0  0  0
   -7.6071    9.7463   -9.5106 C   0  0  0  0  0  0  0  0  0  0  0  0
   -8.2820    8.7349   -9.9857 N   0  0  0  0  0  0  0  0  0  0  0  0
   -8.4162    8.8630  -11.2985 N   0  0  0  0  0  0  0  0  0  0  0  0
   -7.3216    9.8824   -8.0245 C   0  0  0  0  0  0  0  0  0  0  0  0
   -4.3612   13.7214  -11.5083 N   0  0  0  0  0  0  0  0  0  0  0  0
   -5.5493   13.6373  -12.1980 C   0  0  0  0  0  0  0  0  0  0  0  0
   -5.9470   14.5254  -12.9531 O   0  0  0  0  0  0  0  0  0  0  0  0
   -5.9509   10.4995   -7.7283 C   0  0  0  0  0  0  0  0  0  0  0  0
   -5.8798   11.7709   -7.1545 C   0  0  0  0  0  0  0  0  0  0  0  0
   -4.6121   12.3149   -6.9130 C   0  0  0  0  0  0  0  0  0  0  0  0
   -3.4406   11.5618   -7.2441 C   0  0  0  0  0  0  0  0  0  0  0  0
   -3.5052   10.2836   -7.8087 C   0  0  0  0  0  0  0  0  0  0  0  0
   -4.7939    9.7786   -8.0440 C   0  0  0  0  0  0  0  0  0  0  0  0
   -4.0930   13.5444   -6.3685 C   0  0  0  0  0  0  0  0  0  0  0  0
   -2.7888   13.5284   -6.3764 N   0  0  0  0  0  0  0  0  0  0  0  0
   -2.3823   12.3688   -6.8823 N   0  0  0  0  0  0  0  0  0  0  0  0
   -0.9528   12.1034   -6.9863 C   0  0  0  0  0  0  0  0  0  0  0  0
   -3.7146   12.5761  -10.8355 C   0  0  0  0  0  0  0  0  0  0  0  0
   -2.2074   12.9376  -10.9559 C   0  0  2  0  0  0  0  0  0  0  0  0
   -2.1889   14.4652  -10.9572 C   0  0  0  0  0  0  0  0  0  0  0  0
   -3.5166   14.9141  -11.6000 C   0  0  0  0  0  0  0  0  0  0  0  0
   -1.6730   12.4527  -12.1791 O   0  0  0  0  0  0  0  0  0  0  0  0
   -6.0635   12.2793   -9.8707 H   0  0  0  0  0  0  0  0  0  0  0  0
   -8.1971   10.1280  -13.8891 H   0  0  0  0  0  0  0  0  0  0  0  0
   -6.9038   12.2545  -14.0846 H   0  0  0  0  0  0  0  0  0  0  0  0
   -8.0145    9.5753   -7.2551 H   0  0  0  0  0  0  0  0  0  0  0  0
   -6.7764   12.3186   -6.9043 H   0  0  0  0  0  0  0  0  0  0  0  0
   -2.6166    9.7188   -8.0493 H   0  0  0  0  0  0  0  0  0  0  0  0
   -4.8960    8.7979   -8.4848 H   0  0  0  0  0  0  0  0  0  0  0  0
   -4.4491   14.3892   -6.9763 H   0  0  0  0  0  0  0  0  0  0  0  0
   -4.4481   13.6615   -5.3340 H   0  0  0  0  0  0  0  0  0  0  0  0
   -2.4460   14.2803   -6.9395 H   0  0  0  0  0  0  0  0  0  0  0  0
   -0.3901   12.9677   -6.6036 H   0  0  0  0  0  0  0  0  0  0  0  0
   -0.7016   11.2111   -6.3941 H   0  0  0  0  0  0  0  0  0  0  0  0
   -0.6877   11.9308   -8.0398 H   0  0  0  0  0  0  0  0  0  0  0  0
   -4.0252   12.5039   -9.7827 H   0  0  0  0  0  0  0  0  0  0  0  0
   -3.9410   11.6307  -11.3502 H   0  0  0  0  0  0  0  0  0  0  0  0
   -1.6579   12.5499  -10.0854 H   0  0  0  0  0  0  0  0  0  0  0  0
   -2.1163   14.8460   -9.9278 H   0  0  0  0  0  0  0  0  0  0  0  0
   -1.3366   14.8352  -11.5459 H   0  0  0  0  0  0  0  0  0  0  0  0
   -3.3656   15.2093  -12.6488 H   0  0  0  0  0  0  0  0  0  0  0  0
   -3.9592   15.7531  -11.0430 H   0  0  0  0  0  0  0  0  0  0  0  0
   -0.7528   12.6819  -12.2362 H   0  0  0  0  0  0  0  0  0  0  0  0
  1  2  2  0  0  0  0
  1  4  1  0  0  0  0
  1 12  1  0  0  0  0
  2  6  1  0  0  0  0
  3  4  2  0  0  0  0
  3  5  1  0  0  0  0
  5  6  2  0  0  0  0
  5  9  1  0  0  0  0
  6  7  1  0  0  0  0
  7  8  1  0  0  0  0
  7 10  2  0  0  0  0
  8  9  2  0  0  0  0
 10 14  1  0  0  0  0
 11 12  1  0  0  0  0
 11 24  1  0  0  0  0
 11 27  1  0  0  0  0
 12 13  2  0  0  0  0
 14 15  2  0  0  0  0
 14 19  1  0  0  0  0
 15 16  1  0  0  0  0
 16 17  2  0  0  0  0
 16 20  1  0  0  0  0
 17 18  1  0  0  0  0
 17 22  1  0  0  0  0
 18 19  2  0  0  0  0
 20 21  1  0  0  0  0
 21 22  1  0  0  0  0
 22 23  1  0  0  0  0
 24 25  1  0  0  0  0
 25 26  1  0  0  0  0
 25 28  1  0  0  0  0
 26 27  1  0  0  0  0
  2 29  1  0  0  0  0
  3 30  1  0  0  0  0
  4 31  1  0  0  0  0
 10 32  1  0  0  0  0
 15 33  1  0  0  0  0
 18 34  1  0  0  0  0
 19 35  1  0  0  0  0
 20 36  1  0  0  0  0
 20 37  1  0  0  0  0
 21 38  1  0  0  0  0
 23 39  1  0  0  0  0
 23 40  1  0  0  0  0
 23 41  1  0  0  0  0
 24 42  1  0  0  0  0
 24 43  1  0  0  0  0
 25 44  1  0  0  0  0
 26 45  1  0  0  0  0
 26 46  1  0  0  0  0
 27 47  1  0  0  0  0
 27 48  1  0  0  0  0
 28 49  1  0  0  0  0
M  END
> <Name>
42

> <IC50[uM]>
0.004

$$$$
42
  -OEChem-05192314333D
 Structure written by MMmdl.
 49 53  0     1  0  0  0  0  0999 V2000
   -6.3691   12.3596  -12.0090 C   0  0  0  0  0  0  0  0  0  0  0  0
   -6.5082   11.8040  -10.7325 C   0  0  0  0  0  0  0  0  0  0  0  0
   -7.7289   10.5800  -13.0272 C   0  0  0  0  0  0  0  0  0  0  0  0
   -6.9931   11.7723  -13.1223 C   0  0  0  0  0  0  0  0  0  0  0  0
   -7.8208   10.0120  -11.7545 C   0  0  0  0  0  0  0  0  0  0  0  0
   -7.2366   10.6190  -10.6002 C   0  0  0  0  0  0  0  0  0  0  0  0
   -7.6071    9.7463   -9.5106 C   0  0  0  0  0  0  0  0  0  0  0  0
   -8.2820    8.7349   -9.9857 N   0  0  0  0  0  0  0  0  0  0  0  0
   -8.4162    8.8630  -11.2985 N   0  0  0  0  0  0  0  0  0  0  0  0
   -7.3216    9.8824   -8.0245 C   0  0  0  0  0  0  0  0  0  0  0  0
   -4.3612   13.7214  -11.5083 N   0  0  0  0  0  0  0  0  0  0  0  0
   -5.5493   13.6373  -12.1980 C   0  0  0  0  0  0  0  0  0  0  0  0
   -5.9470   14.5254  -12.9531 O   0  0  0  0  0  0  0  0  0  0  0  0
   -5.9509   10.4995   -7.7283 C   0  0  0  0  0  0  0  0  0  0  0  0
   -5.8798   11.7709   -7.1545 C   0  0  0  0  0  0  0  0  0  0  0  0
   -4.6121   12.3149   -6.9130 C   0  0  0  0  0  0  0  0  0  0  0  0
   -3.4406   11.5618   -7.2441 C   0  0  0  0  0  0  0  0  0  0  0  0
   -3.5052   10.2836   -7.8087 C   0  0  0  0  0  0  0  0  0  0  0  0
   -4.7939    9.7786   -8.0440 C   0  0  0  0  0  0  0  0  0  0  0  0
   -4.0930   13.5444   -6.3685 C   0  0  0  0  0  0  0  0  0  0  0  0
   -2.7888   13.5284   -6.3764 N   0  0  0  0  0  0  0  0  0  0  0  0
   -2.3823   12.3688   -6.8823 N   0  0  0  0  0  0  0  0  0  0  0  0
   -0.9528   12.1034   -6.9863 C   0  0  0  0  0  0  0  0  0  0  0  0
   -3.7146   12.5761  -10.8355 C   0  0  0  0  0  0  0  0  0  0  0  0
   -2.2074   12.9376  -10.9559 C   0  0  2  0  0  0  0  0  0  0  0  0
   -2.1889   14.4652  -10.9572 C   0  0  0  0  0  0  0  0  0  0  0  0
   -3.5166   14.9141  -11.6000 C   0  0  0  0  0  0  0  0  0  0  0  0
   -1.6730   12.4527  -12.1791 O   0  0  0  0  0  0  0  0  0  0  0  0
   -6.0635   12.2793   -9.8707 H   0  0  0  0  0  0  0  0  0  0  0  0
   -8.1971   10.1280  -13.8891 H   0  0  0  0  0  0  0  0  0  0  0  0
   -6.9038   12.2545  -14.0846 H   0  0  0  0  0  0  0  0  0  0  0  0
   -8.0145    9.5753   -7.2551 H   0  0  0  0  0  0  0  0  0  0  0  0
   -6.7764   12.3186   -6.9043 H   0  0  0  0  0  0  0  0  0  0  0  0
   -2.9747   10.3140   -8.7719 H   0  0  0  0  0  0  0  0  0  0  0  0
   -2.9906    9.5889   -7.1285 H   0  0  0  0  0  0  0  0  0  0  0  0
   -4.8594    8.8342   -7.4838 H   0  0  0  0  0  0  0  0  0  0  0  0
   -4.8484    9.5696   -9.1226 H   0  0  0  0  0  0  0  0  0  0  0  0
   -4.6978   14.3623   -6.0057 H   0  0  0  0  0  0  0  0  0  0  0  0
   -0.3901   12.9669   -6.6019 H   0  0  0  0  0  0  0  0  0  0  0  0
   -0.7019   11.2100   -6.3955 H   0  0  0  0  0  0  0  0  0  0  0  0
   -0.6874   11.9326   -8.0401 H   0  0  0  0  0  0  0  0  0  0  0  0
   -4.0252   12.5039   -9.7827 H   0  0  0  0  0  0  0  0  0  0  0  0
   -3.9410   11.6307  -11.3502 H   0  0  0  0  0  0  0  0  0  0  0  0
   -1.6579   12.5499  -10.0854 H   0  0  0  0  0  0  0  0  0  0  0  0
   -2.1163   14.8460   -9.9278 H   0  0  0  0  0  0  0  0  0  0  0  0
   -1.3366   14.8352  -11.5459 H   0  0  0  0  0  0  0  0  0  0  0  0
   -3.3656   15.2093  -12.6488 H   0  0  0  0  0  0  0  0  0  0  0  0
   -3.9592   15.7531  -11.0430 H   0  0  0  0  0  0  0  0  0  0  0  0
   -0.7528   12.6819  -12.2362 H   0  0  0  0  0  0  0  0  0  0  0  0
  1  2  2  0  0  0  0
  1  4  1  0  0  0  0
  1 12  1  0  0  0  0
  2  6  1  0  0  0  0
  3  4  2  0  0  0  0
  3  5  1  0  0  0  0
  5  6  2  0  0  0  0
  5  9  1  0  0  0  0
  6  7  1  0  0  0  0
  7  8  1  0  0  0  0
  7 10  2  0  0  0  0
  8  9  2  0  0  0  0
 10 14  1  0  0  0  0
 11 12  1  0  0  0  0
 11 24  1  0  0  0  0
 11 27  1  0  0  0  0
 12 13  2  0  0  0  0
 14 15  2  0  0  0  0
 14 19  1  0  0  0  0
 15 16  1  0  0  0  0
 16 17  2  0  0  0  0
 16 20  1  0  0  0  0
 17 18  1  0  0  0  0
 17 22  1  0  0  0  0
 18 19  1  0  0  0  0
 20 21  2  0  0  0  0
 21 22  1  0  0  0  0
 22 23  1  0  0  0  0
 24 25  1  0  0  0  0
 25 26  1  0  0  0  0
 25 28  1  0  0  0  0
 26 27  1  0  0  0  0
  2 29  1  0  0  0  0
  3 30  1  0  0  0  0
  4 31  1  0  0  0  0
 10 32  1  0  0  0  0
 15 33  1  0  0  0  0
 18 34  1  0  0  0  0
 18 35  1  0  0  0  0
 19 36  1  0  0  0  0
 19 37  1  0  0  0  0
 20 38  1  0  0  0  0
 23 39  1  0  0  0  0
 23 40  1  0  0  0  0
 23 41  1  0  0  0  0
 24 42  1  0  0  0  0
 24 43  1  0  0  0  0
 25 44  1  0  0  0  0
 26 45  1  0  0  0  0
 26 46  1  0  0  0  0
 27 47  1  0  0  0  0
 27 48  1  0  0  0  0
 28 49  1  0  0  0  0
M  END
> <Name>
42

> <IC50[uM]>
0.004

$$$$
42
  -OEChem-05192314333D
 Structure written by MMmdl.
 49 53  0     1  0  0  0  0  0999 V2000
   -6.3691   12.3596  -12.0090 C   0  0  0  0  0  0  0  0  0  0  0  0
   -6.5082   11.8040  -10.7325 C   0  0  0  0  0  0  0  0  0  0  0  0
   -7.7289   10.5800  -13.0272 C   0  0  0  0  0  0  0  0  0  0  0  0
   -6.9931   11.7723  -13.1223 C   0  0  0  0  0  0  0  0  0  0  0  0
   -7.8208   10.0120  -11.7545 C   0  0  0  0  0  0  0  0  0  0  0  0
   -7.2366   10.6190  -10.6002 C   0  0  0  0  0  0  0  0  0  0  0  0
   -7.6071    9.7463   -9.5106 C   0  0  0  0  0  0  0  0  0  0  0  0
   -8.2820    8.7349   -9.9857 N   0  0  0  0  0  0  0  0  0  0  0  0
   -8.4162    8.8630  -11.2985 N   0  0  0  0  0  0  0  0  0  0  0  0
   -7.3216    9.8824   -8.0245 C   0  0  0  0  0  0  0  0  0  0  0  0
   -4.3612   13.7214  -11.5083 N   0  0  0  0  0  0  0  0  0  0  0  0
   -5.5493   13.6373  -12.1980 C   0  0  0  0  0  0  0  0  0  0  0  0
   -5.9470   14.5254  -12.9531 O   0  0  0  0  0  0  0  0  0  0  0  0
   -5.9509   10.4995   -7.7283 C   0  0  0  0  0  0  0  0  0  0  0  0
   -5.8798   11.7709   -7.1545 C   0  0  0  0  0  0  0  0  0  0  0  0
   -4.6121   12.3149   -6.9130 C   0  0  0  0  0  0  0  0  0  0  0  0
   -3.4406   11.5618   -7.2441 C   0  0  0  0  0  0  0  0  0  0  0  0
   -3.5052   10.2836   -7.8087 C   0  0  0  0  0  0  0  0  0  0  0  0
   -4.7939    9.7786   -8.0440 C   0  0  0  0  0  0  0  0  0  0  0  0
   -4.0930   13.5444   -6.3685 C   0  0  0  0  0  0  0  0  0  0  0  0
   -2.7888   13.5284   -6.3764 N   0  0  0  0  0  0  0  0  0  0  0  0
   -2.3823   12.3688   -6.8823 N   0  0  0  0  0  0  0  0  0  0  0  0
   -0.9528   12.1034   -6.9863 C   0  0  0  0  0  0  0  0  0  0  0  0
   -3.7146   12.5761  -10.8355 C   0  0  0  0  0  0  0  0  0  0  0  0
   -2.2074   12.9376  -10.9559 C   0  0  2  0  0  0  0  0  0  0  0  0
   -2.1889   14.4652  -10.9572 C   0  0  0  0  0  0  0  0  0  0  0  0
   -3.5166   14.9141  -11.6000 C   0  0  0  0  0  0  0  0  0  0  0  0
   -1.6730   12.4527  -12.1791 O   0  0  0  0  0  0  0  0  0  0  0  0
   -6.0635   12.2793   -9.8707 H   0  0  0  0  0  0  0  0  0  0  0  0
   -8.1971   10.1280  -13.8891 H   0  0  0  0  0  0  0  0  0  0  0  0
   -6.9038   12.2545  -14.0846 H   0  0  0  0  0  0  0  0  0  0  0  0
   -8.0145    9.5753   -7.2551 H   0  0  0  0  0  0  0  0  0  0  0  0
   -5.9618   10.0461   -6.7261 H   0  0  0  0  0  0  0  0  0  0  0  0
   -6.4097   12.4625   -7.8260 H   0  0  0  0  0  0  0  0  0  0  0  0
   -6.4044   11.7234   -6.1888 H   0  0  0  0  0  0  0  0  0  0  0  0
   -2.6166    9.7188   -8.0493 H   0  0  0  0  0  0  0  0  0  0  0  0
   -4.8960    8.7979   -8.4848 H   0  0  0  0  0  0  0  0  0  0  0  0
   -4.6978   14.3623   -6.0057 H   0  0  0  0  0  0  0  0  0  0  0  0
   -0.3901   12.9669   -6.6019 H   0  0  0  0  0  0  0  0  0  0  0  0
   -0.7019   11.2100   -6.3955 H   0  0  0  0  0  0  0  0  0  0  0  0
   -0.6874   11.9326   -8.0401 H   0  0  0  0  0  0  0  0  0  0  0  0
   -4.0252   12.5039   -9.7827 H   0  0  0  0  0  0  0  0  0  0  0  0
   -3.9410   11.6307  -11.3502 H   0  0  0  0  0  0  0  0  0  0  0  0
   -1.6579   12.5499  -10.0854 H   0  0  0  0  0  0  0  0  0  0  0  0
   -2.1163   14.8460   -9.9278 H   0  0  0  0  0  0  0  0  0  0  0  0
   -1.3366   14.8352  -11.5459 H   0  0  0  0  0  0  0  0  0  0  0  0
   -3.3656   15.2093  -12.6488 H   0  0  0  0  0  0  0  0  0  0  0  0
   -3.9592   15.7531  -11.0430 H   0  0  0  0  0  0  0  0  0  0  0  0
   -0.7528   12.6819  -12.2362 H   0  0  0  0  0  0  0  0  0  0  0  0
  1  2  2  0  0  0  0
  1  4  1  0  0  0  0
  1 12  1  0  0  0  0
  2  6  1  0  0  0  0
  3  4  2  0  0  0  0
  3  5  1  0  0  0  0
  5  6  2  0  0  0  0
  5  9  1  0  0  0  0
  6  7  1  0  0  0  0
  7  8  1  0  0  0  0
  7 10  2  0  0  0  0
  8  9  2  0  0  0  0
 10 14  1  0  0  0  0
 11 12  1  0  0  0  0
 11 24  1  0  0  0  0
 11 27  1  0  0  0  0
 12 13  2  0  0  0  0
 14 15  1  0  0  0  0
 14 19  1  0  0  0  0
 15 16  1  0  0  0  0
 16 17  2  0  0  0  0
 16 20  1  0  0  0  0
 17 18  1  0  0  0  0
 17 22  1  0  0  0  0
 18 19  2  0  0  0  0
 20 21  2  0  0  0  0
 21 22  1  0  0  0  0
 22 23  1  0  0  0  0
 24 25  1  0  0  0  0
 25 26  1  0  0  0  0
 25 28  1  0  0  0  0
 26 27  1  0  0  0  0
  2 29  1  0  0  0  0
  3 30  1  0  0  0  0
  4 31  1  0  0  0  0
 10 32  1  0  0  0  0
 14 33  1  0  0  0  0
 15 34  1  0  0  0  0
 15 35  1  0  0  0  0
 18 36  1  0  0  0  0
 19 37  1  0  0  0  0
 20 38  1  0  0  0  0
 23 39  1  0  0  0  0
 23 40  1  0  0  0  0
 23 41  1  0  0  0  0
 24 42  1  0  0  0  0
 24 43  1  0  0  0  0
 25 44  1  0  0  0  0
 26 45  1  0  0  0  0
 26 46  1  0  0  0  0
 27 47  1  0  0  0  0
 27 48  1  0  0  0  0
 28 49  1  0  0  0  0
M  END
> <Name>
42

> <IC50[uM]>
0.004

$$$$
42
  -OEChem-05192314333D
 Structure written by MMmdl.
 49 53  0     1  0  0  0  0  0999 V2000
   -6.3691   12.3596  -12.0090 C   0  0  0  0  0  0  0  0  0  0  0  0
   -6.5082   11.8040  -10.7325 C   0  0  0  0  0  0  0  0  0  0  0  0
   -7.7289   10.5800  -13.0272 C   0  0  0  0  0  0  0  0  0  0  0  0
   -6.9931   11.7723  -13.1223 C   0  0  0  0  0  0  0  0  0  0  0  0
   -7.8208   10.0120  -11.7545 C   0  0  0  0  0  0  0  0  0  0  0  0
   -7.2366   10.6190  -10.6002 C   0  0  0  0  0  0  0  0  0  0  0  0
   -7.6071    9.7463   -9.5106 C   0  0  0  0  0  0  0  0  0  0  0  0
   -8.2820    8.7349   -9.9857 N   0  0  0  0  0  0  0  0  0  0  0  0
   -8.4162    8.8630  -11.2985 N   0  0  0  0  0  0  0  0  0  0  0  0
   -7.3216    9.8824   -8.0245 C   0  0  0  0  0  0  0  0  0  0  0  0
   -4.3612   13.7214  -11.5083 N   0  0  0  0  0  0  0  0  0  0  0  0
   -5.5493   13.6373  -12.1980 C   0  0  0  0  0  0  0  0  0  0  0  0
   -5.9470   14.5254  -12.9531 O   0  0  0  0  0  0  0  0  0  0  0  0
   -5.9509   10.4995   -7.7283 C   0  0  0  0  0  0  0  0  0  0  0  0
   -5.8798   11.7709   -7.1545 C   0  0  0  0  0  0  0  0  0  0  0  0
   -4.6121   12.3149   -6.9130 C   0  0  0  0  0  0  0  0  0  0  0  0
   -3.4406   11.5618   -7.2441 C   0  0  0  0  0  0  0  0  0  0  0  0
   -3.5052   10.2836   -7.8087 C   0  0  0  0  0  0  0  0  0  0  0  0
   -4.7939    9.7786   -8.0440 C   0  0  0  0  0  0  0  0  0  0  0  0
   -4.0930   13.5444   -6.3685 C   0  0  0  0  0  0  0  0  0  0  0  0
   -2.7888   13.5284   -6.3764 N   0  0  0  0  0  0  0  0  0  0  0  0
   -2.3823   12.3688   -6.8823 N   0  0  0  0  0  0  0  0  0  0  0  0
   -0.9528   12.1034   -6.9863 C   0  0  0  0  0  0  0  0  0  0  0  0
   -3.7146   12.5761  -10.8355 C   0  0  0  0  0  0  0  0  0  0  0  0
   -2.2074   12.9376  -10.9559 C   0  0  2  0  0  0  0  0  0  0  0  0
   -2.1889   14.4652  -10.9572 C   0  0  0  0  0  0  0  0  0  0  0  0
   -3.5166   14.9141  -11.6000 C   0  0  0  0  0  0  0  0  0  0  0  0
   -1.6730   12.4527  -12.1791 O   0  0  0  0  0  0  0  0  0  0  0  0
   -6.0635   12.2793   -9.8707 H   0  0  0  0  0  0  0  0  0  0  0  0
   -8.1971   10.1280  -13.8891 H   0  0  0  0  0  0  0  0  0  0  0  0
   -6.9038   12.2545  -14.0846 H   0  0  0  0  0  0  0  0  0  0  0  0
   -6.6705    9.1843   -9.6404 H   0  0  0  0  0  0  0  0  0  0  0  0
   -8.0145    9.5753   -7.2551 H   0  0  0  0  0  0  0  0  0  0  0  0
   -6.4097   12.4625   -7.8260 H   0  0  0  0  0  0  0  0  0  0  0  0
   -6.4044   11.7234   -6.1888 H   0  0  0  0  0  0  0  0  0  0  0  0
   -2.6166    9.7188   -8.0493 H   0  0  0  0  0  0  0  0  0  0  0  0
   -4.8960    8.7979   -8.4848 H   0  0  0  0  0  0  0  0  0  0  0  0
   -4.6978   14.3623   -6.0057 H   0  0  0  0  0  0  0  0  0  0  0  0
   -0.3901   12.9669   -6.6019 H   0  0  0  0  0  0  0  0  0  0  0  0
   -0.7019   11.2100   -6.3955 H   0  0  0  0  0  0  0  0  0  0  0  0
   -0.6874   11.9326   -8.0401 H   0  0  0  0  0  0  0  0  0  0  0  0
   -4.0252   12.5039   -9.7827 H   0  0  0  0  0  0  0  0  0  0  0  0
   -3.9410   11.6307  -11.3502 H   0  0  0  0  0  0  0  0  0  0  0  0
   -1.6579   12.5499  -10.0854 H   0  0  0  0  0  0  0  0  0  0  0  0
   -2.1163   14.8460   -9.9278 H   0  0  0  0  0  0  0  0  0  0  0  0
   -1.3366   14.8352  -11.5459 H   0  0  0  0  0  0  0  0  0  0  0  0
   -3.3656   15.2093  -12.6488 H   0  0  0  0  0  0  0  0  0  0  0  0
   -3.9592   15.7531  -11.0430 H   0  0  0  0  0  0  0  0  0  0  0  0
   -0.7528   12.6819  -12.2362 H   0  0  0  0  0  0  0  0  0  0  0  0
  1  2  2  0  0  0  0
  1  4  1  0  0  0  0
  1 12  1  0  0  0  0
  2  6  1  0  0  0  0
  3  4  2  0  0  0  0
  3  5  1  0  0  0  0
  5  6  2  0  0  0  0
  5  9  1  0  0  0  0
  6  7  1  0  0  0  0
  7  8  1  0  0  0  0
  7 10  1  0  0  0  0
  8  9  2  0  0  0  0
 10 14  2  0  0  0  0
 11 12  1  0  0  0  0
 11 24  1  0  0  0  0
 11 27  1  0  0  0  0
 12 13  2  0  0  0  0
 14 15  1  0  0  0  0
 14 19  1  0  0  0  0
 15 16  1  0  0  0  0
 16 17  2  0  0  0  0
 16 20  1  0  0  0  0
 17 18  1  0  0  0  0
 17 22  1  0  0  0  0
 18 19  2  0  0  0  0
 20 21  2  0  0  0  0
 21 22  1  0  0  0  0
 22 23  1  0  0  0  0
 24 25  1  0  0  0  0
 25 26  1  0  0  0  0
 25 28  1  0  0  0  0
 26 27  1  0  0  0  0
  2 29  1  0  0  0  0
  3 30  1  0  0  0  0
  4 31  1  0  0  0  0
  7 32  1  0  0  0  0
 10 33  1  0  0  0  0
 15 34  1  0  0  0  0
 15 35  1  0  0  0  0
 18 36  1  0  0  0  0
 19 37  1  0  0  0  0
 20 38  1  0  0  0  0
 23 39  1  0  0  0  0
 23 40  1  0  0  0  0
 23 41  1  0  0  0  0
 24 42  1  0  0  0  0
 24 43  1  0  0  0  0
 25 44  1  0  0  0  0
 26 45  1  0  0  0  0
 26 46  1  0  0  0  0
 27 47  1  0  0  0  0
 27 48  1  0  0  0  0
 28 49  1  0  0  0  0
M  END
> <Name>
42

> <IC50[uM]>
0.004

$$$$
42
  -OEChem-05192314333D
 Structure written by MMmdl.
 49 53  0     1  0  0  0  0  0999 V2000
   -6.3691   12.3596  -12.0090 C   0  0  0  0  0  0  0  0  0  0  0  0
   -6.5082   11.8040  -10.7325 C   0  0  0  0  0  0  0  0  0  0  0  0
   -7.7289   10.5800  -13.0272 C   0  0  0  0  0  0  0  0  0  0  0  0
   -6.9931   11.7723  -13.1223 C   0  0  0  0  0  0  0  0  0  0  0  0
   -7.8208   10.0120  -11.7545 C   0  0  0  0  0  0  0  0  0  0  0  0
   -7.2366   10.6190  -10.6002 C   0  0  0  0  0  0  0  0  0  0  0  0
   -7.6071    9.7463   -9.5106 C   0  0  0  0  0  0  0  0  0  0  0  0
   -8.2820    8.7349   -9.9857 N   0  0  0  0  0  0  0  0  0  0  0  0
   -8.4162    8.8630  -11.2985 N   0  0  0  0  0  0  0  0  0  0  0  0
   -7.3216    9.8824   -8.0245 C   0  0  0  0  0  0  0  0  0  0  0  0
   -4.3612   13.7214  -11.5083 N   0  0  0  0  0  0  0  0  0  0  0  0
   -5.5493   13.6373  -12.1980 C   0  0  0  0  0  0  0  0  0  0  0  0
   -5.9470   14.5254  -12.9531 O   0  0  0  0  0  0  0  0  0  0  0  0
   -5.9509   10.4995   -7.7283 C   0  0  0  0  0  0  0  0  0  0  0  0
   -5.8798   11.7709   -7.1545 C   0  0  0  0  0  0  0  0  0  0  0  0
   -4.6121   12.3149   -6.9130 C   0  0  0  0  0  0  0  0  0  0  0  0
   -3.4406   11.5618   -7.2441 C   0  0  0  0  0  0  0  0  0  0  0  0
   -3.5052   10.2836   -7.8087 C   0  0  0  0  0  0  0  0  0  0  0  0
   -4.7939    9.7786   -8.0440 C   0  0  0  0  0  0  0  0  0  0  0  0
   -4.0930   13.5444   -6.3685 C   0  0  0  0  0  0  0  0  0  0  0  0
   -2.7888   13.5284   -6.3764 N   0  0  0  0  0  0  0  0  0  0  0  0
   -2.3823   12.3688   -6.8823 N   0  0  0  0  0  0  0  0  0  0  0  0
   -0.9528   12.1034   -6.9863 C   0  0  0  0  0  0  0  0  0  0  0  0
   -3.7146   12.5761  -10.8355 C   0  0  0  0  0  0  0  0  0  0  0  0
   -2.2074   12.9376  -10.9559 C   0  0  2  0  0  0  0  0  0  0  0  0
   -2.1889   14.4652  -10.9572 C   0  0  0  0  0  0  0  0  0  0  0  0
   -3.5166   14.9141  -11.6000 C   0  0  0  0  0  0  0  0  0  0  0  0
   -1.6730   12.4527  -12.1791 O   0  0  0  0  0  0  0  0  0  0  0  0
   -6.0635   12.2793   -9.8707 H   0  0  0  0  0  0  0  0  0  0  0  0
   -8.1971   10.1280  -13.8891 H   0  0  0  0  0  0  0  0  0  0  0  0
   -6.9038   12.2545  -14.0846 H   0  0  0  0  0  0  0  0  0  0  0  0
   -8.0145    9.5753   -7.2551 H   0  0  0  0  0  0  0  0  0  0  0  0
   -6.4097   12.4625   -7.8260 H   0  0  0  0  0  0  0  0  0  0  0  0
   -6.4044   11.7234   -6.1888 H   0  0  0  0  0  0  0  0  0  0  0  0
   -2.9747   10.3140   -8.7719 H   0  0  0  0  0  0  0  0  0  0  0  0
   -2.9906    9.5889   -7.1285 H   0  0  0  0  0  0  0  0  0  0  0  0
   -4.8960    8.7979   -8.4848 H   0  0  0  0  0  0  0  0  0  0  0  0
   -4.6978   14.3623   -6.0057 H   0  0  0  0  0  0  0  0  0  0  0  0
   -0.3901   12.9669   -6.6019 H   0  0  0  0  0  0  0  0  0  0  0  0
   -0.7019   11.2100   -6.3955 H   0  0  0  0  0  0  0  0  0  0  0  0
   -0.6874   11.9326   -8.0401 H   0  0  0  0  0  0  0  0  0  0  0  0
   -4.0252   12.5039   -9.7827 H   0  0  0  0  0  0  0  0  0  0  0  0
   -3.9410   11.6307  -11.3502 H   0  0  0  0  0  0  0  0  0  0  0  0
   -1.6579   12.5499  -10.0854 H   0  0  0  0  0  0  0  0  0  0  0  0
   -2.1163   14.8460   -9.9278 H   0  0  0  0  0  0  0  0  0  0  0  0
   -1.3366   14.8352  -11.5459 H   0  0  0  0  0  0  0  0  0  0  0  0
   -3.3656   15.2093  -12.6488 H   0  0  0  0  0  0  0  0  0  0  0  0
   -3.9592   15.7531  -11.0430 H   0  0  0  0  0  0  0  0  0  0  0  0
   -0.7528   12.6819  -12.2362 H   0  0  0  0  0  0  0  0  0  0  0  0
  1  2  2  0  0  0  0
  1  4  1  0  0  0  0
  1 12  1  0  0  0  0
  2  6  1  0  0  0  0
  3  4  2  0  0  0  0
  3  5  1  0  0  0  0
  5  6  2  0  0  0  0
  5  9  1  0  0  0  0
  6  7  1  0  0  0  0
  7  8  1  0  0  0  0
  7 10  2  0  0  0  0
  8  9  2  0  0  0  0
 10 14  1  0  0  0  0
 11 12  1  0  0  0  0
 11 24  1  0  0  0  0
 11 27  1  0  0  0  0
 12 13  2  0  0  0  0
 14 15  1  0  0  0  0
 14 19  2  0  0  0  0
 15 16  1  0  0  0  0
 16 17  2  0  0  0  0
 16 20  1  0  0  0  0
 17 18  1  0  0  0  0
 17 22  1  0  0  0  0
 18 19  1  0  0  0  0
 20 21  2  0  0  0  0
 21 22  1  0  0  0  0
 22 23  1  0  0  0  0
 24 25  1  0  0  0  0
 25 26  1  0  0  0  0
 25 28  1  0  0  0  0
 26 27  1  0  0  0  0
  2 29  1  0  0  0  0
  3 30  1  0  0  0  0
  4 31  1  0  0  0  0
 10 32  1  0  0  0  0
 15 33  1  0  0  0  0
 15 34  1  0  0  0  0
 18 35  1  0  0  0  0
 18 36  1  0  0  0  0
 19 37  1  0  0  0  0
 20 38  1  0  0  0  0
 23 39  1  0  0  0  0
 23 40  1  0  0  0  0
 23 41  1  0  0  0  0
 24 42  1  0  0  0  0
 24 43  1  0  0  0  0
 25 44  1  0  0  0  0
 26 45  1  0  0  0  0
 26 46  1  0  0  0  0
 27 47  1  0  0  0  0
 27 48  1  0  0  0  0
 28 49  1  0  0  0  0
M  END
> <Name>
42

> <IC50[uM]>
0.004

$$$$
42
  -OEChem-05192314333D
 Structure written by MMmdl.
 49 53  0     1  0  0  0  0  0999 V2000
   -6.3691   12.3596  -12.0090 C   0  0  0  0  0  0  0  0  0  0  0  0
   -6.5082   11.8040  -10.7325 C   0  0  0  0  0  0  0  0  0  0  0  0
   -7.7289   10.5800  -13.0272 C   0  0  0  0  0  0  0  0  0  0  0  0
   -6.9931   11.7723  -13.1223 C   0  0  0  0  0  0  0  0  0  0  0  0
   -7.8208   10.0120  -11.7545 C   0  0  0  0  0  0  0  0  0  0  0  0
   -7.2366   10.6190  -10.6002 C   0  0  0  0  0  0  0  0  0  0  0  0
   -7.6071    9.7463   -9.5106 C   0  0  0  0  0  0  0  0  0  0  0  0
   -8.2820    8.7349   -9.9857 N   0  0  0  0  0  0  0  0  0  0  0  0
   -8.4162    8.8630  -11.2985 N   0  0  0  0  0  0  0  0  0  0  0  0
   -7.3216    9.8824   -8.0245 C   0  0  0  0  0  0  0  0  0  0  0  0
   -4.3612   13.7214  -11.5083 N   0  0  0  0  0  0  0  0  0  0  0  0
   -5.5493   13.6373  -12.1980 C   0  0  0  0  0  0  0  0  0  0  0  0
   -5.9470   14.5254  -12.9531 O   0  0  0  0  0  0  0  0  0  0  0  0
   -5.9509   10.4995   -7.7283 C   0  0  0  0  0  0  0  0  0  0  0  0
   -5.8798   11.7709   -7.1545 C   0  0  0  0  0  0  0  0  0  0  0  0
   -4.6121   12.3149   -6.9130 C   0  0  0  0  0  0  0  0  0  0  0  0
   -3.4406   11.5618   -7.2441 C   0  0  0  0  0  0  0  0  0  0  0  0
   -3.5052   10.2836   -7.8087 C   0  0  0  0  0  0  0  0  0  0  0  0
   -4.7939    9.7786   -8.0440 C   0  0  0  0  0  0  0  0  0  0  0  0
   -4.0930   13.5444   -6.3685 C   0  0  0  0  0  0  0  0  0  0  0  0
   -2.7888   13.5284   -6.3764 N   0  0  0  0  0  0  0  0  0  0  0  0
   -2.3823   12.3688   -6.8823 N   0  0  0  0  0  0  0  0  0  0  0  0
   -0.9528   12.1034   -6.9863 C   0  0  0  0  0  0  0  0  0  0  0  0
   -3.7146   12.5761  -10.8355 C   0  0  0  0  0  0  0  0  0  0  0  0
   -2.2074   12.9376  -10.9559 C   0  0  2  0  0  0  0  0  0  0  0  0
   -2.1889   14.4652  -10.9572 C   0  0  0  0  0  0  0  0  0  0  0  0
   -3.5166   14.9141  -11.6000 C   0  0  0  0  0  0  0  0  0  0  0  0
   -1.6730   12.4527  -12.1791 O   0  0  0  0  0  0  0  0  0  0  0  0
   -6.0635   12.2793   -9.8707 H   0  0  0  0  0  0  0  0  0  0  0  0
   -8.1971   10.1280  -13.8891 H   0  0  0  0  0  0  0  0  0  0  0  0
   -6.9038   12.2545  -14.0846 H   0  0  0  0  0  0  0  0  0  0  0  0
   -8.0145    9.5753   -7.2551 H   0  0  0  0  0  0  0  0  0  0  0  0
   -5.9618   10.0461   -6.7261 H   0  0  0  0  0  0  0  0  0  0  0  0
   -6.7764   12.3186   -6.9043 H   0  0  0  0  0  0  0  0  0  0  0  0
   -2.6166    9.7188   -8.0493 H   0  0  0  0  0  0  0  0  0  0  0  0
   -4.8594    8.8342   -7.4838 H   0  0  0  0  0  0  0  0  0  0  0  0
   -4.8484    9.5696   -9.1226 H   0  0  0  0  0  0  0  0  0  0  0  0
   -4.6978   14.3623   -6.0057 H   0  0  0  0  0  0  0  0  0  0  0  0
   -0.3901   12.9669   -6.6019 H   0  0  0  0  0  0  0  0  0  0  0  0
   -0.7019   11.2100   -6.3955 H   0  0  0  0  0  0  0  0  0  0  0  0
   -0.6874   11.9326   -8.0401 H   0  0  0  0  0  0  0  0  0  0  0  0
   -4.0252   12.5039   -9.7827 H   0  0  0  0  0  0  0  0  0  0  0  0
   -3.9410   11.6307  -11.3502 H   0  0  0  0  0  0  0  0  0  0  0  0
   -1.6579   12.5499  -10.0854 H   0  0  0  0  0  0  0  0  0  0  0  0
   -2.1163   14.8460   -9.9278 H   0  0  0  0  0  0  0  0  0  0  0  0
   -1.3366   14.8352  -11.5459 H   0  0  0  0  0  0  0  0  0  0  0  0
   -3.3656   15.2093  -12.6488 H   0  0  0  0  0  0  0  0  0  0  0  0
   -3.9592   15.7531  -11.0430 H   0  0  0  0  0  0  0  0  0  0  0  0
   -0.7528   12.6819  -12.2362 H   0  0  0  0  0  0  0  0  0  0  0  0
  1  2  2  0  0  0  0
  1  4  1  0  0  0  0
  1 12  1  0  0  0  0
  2  6  1  0  0  0  0
  3  4  2  0  0  0  0
  3  5  1  0  0  0  0
  5  6  2  0  0  0  0
  5  9  1  0  0  0  0
  6  7  1  0  0  0  0
  7  8  1  0  0  0  0
  7 10  2  0  0  0  0
  8  9  2  0  0  0  0
 10 14  1  0  0  0  0
 11 12  1  0  0  0  0
 11 24  1  0  0  0  0
 11 27  1  0  0  0  0
 12 13  2  0  0  0  0
 14 15  1  0  0  0  0
 14 19  1  0  0  0  0
 15 16  2  0  0  0  0
 16 17  1  0  0  0  0
 16 20  1  0  0  0  0
 17 18  2  0  0  0  0
 17 22  1  0  0  0  0
 18 19  1  0  0  0  0
 20 21  2  0  0  0  0
 21 22  1  0  0  0  0
 22 23  1  0  0  0  0
 24 25  1  0  0  0  0
 25 26  1  0  0  0  0
 25 28  1  0  0  0  0
 26 27  1  0  0  0  0
  2 29  1  0  0  0  0
  3 30  1  0  0  0  0
  4 31  1  0  0  0  0
 10 32  1  0  0  0  0
 14 33  1  0  0  0  0
 15 34  1  0  0  0  0
 18 35  1  0  0  0  0
 19 36  1  0  0  0  0
 19 37  1  0  0  0  0
 20 38  1  0  0  0  0
 23 39  1  0  0  0  0
 23 40  1  0  0  0  0
 23 41  1  0  0  0  0
 24 42  1  0  0  0  0
 24 43  1  0  0  0  0
 25 44  1  0  0  0  0
 26 45  1  0  0  0  0
 26 46  1  0  0  0  0
 27 47  1  0  0  0  0
 27 48  1  0  0  0  0
 28 49  1  0  0  0  0
M  END
> <Name>
42

> <IC50[uM]>
0.004

$$$$
42
  -OEChem-05192314333D
 Structure written by MMmdl.
 49 53  0     1  0  0  0  0  0999 V2000
   -6.3691   12.3596  -12.0090 C   0  0  0  0  0  0  0  0  0  0  0  0
   -6.5082   11.8040  -10.7325 C   0  0  0  0  0  0  0  0  0  0  0  0
   -7.7289   10.5800  -13.0272 C   0  0  0  0  0  0  0  0  0  0  0  0
   -6.9931   11.7723  -13.1223 C   0  0  0  0  0  0  0  0  0  0  0  0
   -7.8208   10.0120  -11.7545 C   0  0  0  0  0  0  0  0  0  0  0  0
   -7.2366   10.6190  -10.6002 C   0  0  0  0  0  0  0  0  0  0  0  0
   -7.6071    9.7463   -9.5106 C   0  0  0  0  0  0  0  0  0  0  0  0
   -8.2820    8.7349   -9.9857 N   0  0  0  0  0  0  0  0  0  0  0  0
   -8.4162    8.8630  -11.2985 N   0  0  0  0  0  0  0  0  0  0  0  0
   -7.3216    9.8824   -8.0245 C   0  0  0  0  0  0  0  0  0  0  0  0
   -4.3612   13.7214  -11.5083 N   0  0  0  0  0  0  0  0  0  0  0  0
   -5.5493   13.6373  -12.1980 C   0  0  0  0  0  0  0  0  0  0  0  0
   -5.9470   14.5254  -12.9531 O   0  0  0  0  0  0  0  0  0  0  0  0
   -5.9509   10.4995   -7.7283 C   0  0  0  0  0  0  0  0  0  0  0  0
   -5.8798   11.7709   -7.1545 C   0  0  0  0  0  0  0  0  0  0  0  0
   -4.6121   12.3149   -6.9130 C   0  0  0  0  0  0  0  0  0  0  0  0
   -3.4406   11.5618   -7.2441 C   0  0  0  0  0  0  0  0  0  0  0  0
   -3.5052   10.2836   -7.8087 C   0  0  0  0  0  0  0  0  0  0  0  0
   -4.7939    9.7786   -8.0440 C   0  0  0  0  0  0  0  0  0  0  0  0
   -4.0930   13.5444   -6.3685 C   0  0  0  0  0  0  0  0  0  0  0  0
   -2.7888   13.5284   -6.3764 N   0  0  0  0  0  0  0  0  0  0  0  0
   -2.3823   12.3688   -6.8823 N   0  0  0  0  0  0  0  0  0  0  0  0
   -0.9528   12.1034   -6.9863 C   0  0  0  0  0  0  0  0  0  0  0  0
   -3.7146   12.5761  -10.8355 C   0  0  0  0  0  0  0  0  0  0  0  0
   -2.2074   12.9376  -10.9559 C   0  0  2  0  0  0  0  0  0  0  0  0
   -2.1889   14.4652  -10.9572 C   0  0  0  0  0  0  0  0  0  0  0  0
   -3.5166   14.9141  -11.6000 C   0  0  0  0  0  0  0  0  0  0  0  0
   -1.6730   12.4527  -12.1791 O   0  0  0  0  0  0  0  0  0  0  0  0
   -6.0635   12.2793   -9.8707 H   0  0  0  0  0  0  0  0  0  0  0  0
   -8.1971   10.1280  -13.8891 H   0  0  0  0  0  0  0  0  0  0  0  0
   -6.9038   12.2545  -14.0846 H   0  0  0  0  0  0  0  0  0  0  0  0
   -6.6705    9.1843   -9.6404 H   0  0  0  0  0  0  0  0  0  0  0  0
   -8.0145    9.5753   -7.2551 H   0  0  0  0  0  0  0  0  0  0  0  0
   -6.7764   12.3186   -6.9043 H   0  0  0  0  0  0  0  0  0  0  0  0
   -2.6166    9.7188   -8.0493 H   0  0  0  0  0  0  0  0  0  0  0  0
   -4.8594    8.8342   -7.4838 H   0  0  0  0  0  0  0  0  0  0  0  0
   -4.8484    9.5696   -9.1226 H   0  0  0  0  0  0  0  0  0  0  0  0
   -4.6978   14.3623   -6.0057 H   0  0  0  0  0  0  0  0  0  0  0  0
   -0.3901   12.9669   -6.6019 H   0  0  0  0  0  0  0  0  0  0  0  0
   -0.7019   11.2100   -6.3955 H   0  0  0  0  0  0  0  0  0  0  0  0
   -0.6874   11.9326   -8.0401 H   0  0  0  0  0  0  0  0  0  0  0  0
   -4.0252   12.5039   -9.7827 H   0  0  0  0  0  0  0  0  0  0  0  0
   -3.9410   11.6307  -11.3502 H   0  0  0  0  0  0  0  0  0  0  0  0
   -1.6579   12.5499  -10.0854 H   0  0  0  0  0  0  0  0  0  0  0  0
   -2.1163   14.8460   -9.9278 H   0  0  0  0  0  0  0  0  0  0  0  0
   -1.3366   14.8352  -11.5459 H   0  0  0  0  0  0  0  0  0  0  0  0
   -3.3656   15.2093  -12.6488 H   0  0  0  0  0  0  0  0  0  0  0  0
   -3.9592   15.7531  -11.0430 H   0  0  0  0  0  0  0  0  0  0  0  0
   -0.7528   12.6819  -12.2362 H   0  0  0  0  0  0  0  0  0  0  0  0
  1  2  2  0  0  0  0
  1  4  1  0  0  0  0
  1 12  1  0  0  0  0
  2  6  1  0  0  0  0
  3  4  2  0  0  0  0
  3  5  1  0  0  0  0
  5  6  2  0  0  0  0
  5  9  1  0  0  0  0
  6  7  1  0  0  0  0
  7  8  1  0  0  0  0
  7 10  1  0  0  0  0
  8  9  2  0  0  0  0
 10 14  2  0  0  0  0
 11 12  1  0  0  0  0
 11 24  1  0  0  0  0
 11 27  1  0  0  0  0
 12 13  2  0  0  0  0
 14 15  1  0  0  0  0
 14 19  1  0  0  0  0
 15 16  2  0  0  0  0
 16 17  1  0  0  0  0
 16 20  1  0  0  0  0
 17 18  2  0  0  0  0
 17 22  1  0  0  0  0
 18 19  1  0  0  0  0
 20 21  2  0  0  0  0
 21 22  1  0  0  0  0
 22 23  1  0  0  0  0
 24 25  1  0  0  0  0
 25 26  1  0  0  0  0
 25 28  1  0  0  0  0
 26 27  1  0  0  0  0
  2 29  1  0  0  0  0
  3 30  1  0  0  0  0
  4 31  1  0  0  0  0
  7 32  1  0  0  0  0
 10 33  1  0  0  0  0
 15 34  1  0  0  0  0
 18 35  1  0  0  0  0
 19 36  1  0  0  0  0
 19 37  1  0  0  0  0
 20 38  1  0  0  0  0
 23 39  1  0  0  0  0
 23 40  1  0  0  0  0
 23 41  1  0  0  0  0
 24 42  1  0  0  0  0
 24 43  1  0  0  0  0
 25 44  1  0  0  0  0
 26 45  1  0  0  0  0
 26 46  1  0  0  0  0
 27 47  1  0  0  0  0
 27 48  1  0  0  0  0
 28 49  1  0  0  0  0
M  END
> <Name>
42

> <IC50[uM]>
0.004

$$$$
42
  -OEChem-05192314333D
 Structure written by MMmdl.
 49 53  0     1  0  0  0  0  0999 V2000
   -6.3691   12.3596  -12.0090 C   0  0  0  0  0  0  0  0  0  0  0  0
   -6.5082   11.8040  -10.7325 C   0  0  0  0  0  0  0  0  0  0  0  0
   -7.7289   10.5800  -13.0272 C   0  0  0  0  0  0  0  0  0  0  0  0
   -6.9931   11.7723  -13.1223 C   0  0  0  0  0  0  0  0  0  0  0  0
   -7.8208   10.0120  -11.7545 C   0  0  0  0  0  0  0  0  0  0  0  0
   -7.2366   10.6190  -10.6002 C   0  0  0  0  0  0  0  0  0  0  0  0
   -7.6071    9.7463   -9.5106 C   0  0  0  0  0  0  0  0  0  0  0  0
   -8.2820    8.7349   -9.9857 N   0  0  0  0  0  0  0  0  0  0  0  0
   -8.4162    8.8630  -11.2985 N   0  0  0  0  0  0  0  0  0  0  0  0
   -7.3216    9.8824   -8.0245 C   0  0  0  0  0  0  0  0  0  0  0  0
   -4.3612   13.7214  -11.5083 N   0  0  0  0  0  0  0  0  0  0  0  0
   -5.5493   13.6373  -12.1980 C   0  0  0  0  0  0  0  0  0  0  0  0
   -5.9470   14.5254  -12.9531 O   0  0  0  0  0  0  0  0  0  0  0  0
   -5.9509   10.4995   -7.7283 C   0  0  0  0  0  0  0  0  0  0  0  0
   -5.8798   11.7709   -7.1545 C   0  0  0  0  0  0  0  0  0  0  0  0
   -4.6121   12.3149   -6.9130 C   0  0  0  0  0  0  0  0  0  0  0  0
   -3.4406   11.5618   -7.2441 C   0  0  0  0  0  0  0  0  0  0  0  0
   -3.5052   10.2836   -7.8087 C   0  0  0  0  0  0  0  0  0  0  0  0
   -4.7939    9.7786   -8.0440 C   0  0  0  0  0  0  0  0  0  0  0  0
   -4.0930   13.5444   -6.3685 C   0  0  0  0  0  0  0  0  0  0  0  0
   -2.7888   13.5284   -6.3764 N   0  0  0  0  0  0  0  0  0  0  0  0
   -2.3823   12.3688   -6.8823 N   0  0  0  0  0  0  0  0  0  0  0  0
   -0.9528   12.1034   -6.9863 C   0  0  0  0  0  0  0  0  0  0  0  0
   -3.7146   12.5761  -10.8355 C   0  0  0  0  0  0  0  0  0  0  0  0
   -2.2074   12.9376  -10.9559 C   0  0  2  0  0  0  0  0  0  0  0  0
   -2.1889   14.4652  -10.9572 C   0  0  0  0  0  0  0  0  0  0  0  0
   -3.5166   14.9141  -11.6000 C   0  0  0  0  0  0  0  0  0  0  0  0
   -1.6730   12.4527  -12.1791 O   0  0  0  0  0  0  0  0  0  0  0  0
   -5.4702   11.7501  -12.1833 H   0  0  0  0  0  0  0  0  0  0  0  0
   -6.0635   12.2793   -9.8707 H   0  0  0  0  0  0  0  0  0  0  0  0
   -8.1971   10.1280  -13.8891 H   0  0  0  0  0  0  0  0  0  0  0  0
   -6.9038   12.2545  -14.0846 H   0  0  0  0  0  0  0  0  0  0  0  0
   -8.0970   10.5211   -7.5764 H   0  0  0  0  0  0  0  0  0  0  0  0
   -7.3611    8.8825   -7.5677 H   0  0  0  0  0  0  0  0  0  0  0  0
   -6.7764   12.3186   -6.9043 H   0  0  0  0  0  0  0  0  0  0  0  0
   -2.6166    9.7188   -8.0493 H   0  0  0  0  0  0  0  0  0  0  0  0
   -4.8960    8.7979   -8.4848 H   0  0  0  0  0  0  0  0  0  0  0  0
   -4.6978   14.3623   -6.0057 H   0  0  0  0  0  0  0  0  0  0  0  0
   -0.3901   12.9669   -6.6019 H   0  0  0  0  0  0  0  0  0  0  0  0
   -0.7019   11.2100   -6.3955 H   0  0  0  0  0  0  0  0  0  0  0  0
   -0.6874   11.9326   -8.0401 H   0  0  0  0  0  0  0  0  0  0  0  0
   -4.0252   12.5039   -9.7827 H   0  0  0  0  0  0  0  0  0  0  0  0
   -3.9410   11.6307  -11.3502 H   0  0  0  0  0  0  0  0  0  0  0  0
   -1.6579   12.5499  -10.0854 H   0  0  0  0  0  0  0  0  0  0  0  0
   -2.1163   14.8460   -9.9278 H   0  0  0  0  0  0  0  0  0  0  0  0
   -1.3366   14.8352  -11.5459 H   0  0  0  0  0  0  0  0  0  0  0  0
   -3.3656   15.2093  -12.6488 H   0  0  0  0  0  0  0  0  0  0  0  0
   -3.9592   15.7531  -11.0430 H   0  0  0  0  0  0  0  0  0  0  0  0
   -0.7528   12.6819  -12.2362 H   0  0  0  0  0  0  0  0  0  0  0  0
  1  2  1  0  0  0  0
  1  4  1  0  0  0  0
  1 12  1  0  0  0  0
  2  6  2  0  0  0  0
  3  4  2  0  0  0  0
  3  5  1  0  0  0  0
  5  6  1  0  0  0  0
  5  9  2  0  0  0  0
  6  7  1  0  0  0  0
  7  8  2  0  0  0  0
  7 10  1  0  0  0  0
  8  9  1  0  0  0  0
 10 14  1  0  0  0  0
 11 12  1  0  0  0  0
 11 24  1  0  0  0  0
 11 27  1  0  0  0  0
 12 13  2  0  0  0  0
 14 15  2  0  0  0  0
 14 19  1  0  0  0  0
 15 16  1  0  0  0  0
 16 17  2  0  0  0  0
 16 20  1  0  0  0  0
 17 18  1  0  0  0  0
 17 22  1  0  0  0  0
 18 19  2  0  0  0  0
 20 21  2  0  0  0  0
 21 22  1  0  0  0  0
 22 23  1  0  0  0  0
 24 25  1  0  0  0  0
 25 26  1  0  0  0  0
 25 28  1  0  0  0  0
 26 27  1  0  0  0  0
  1 29  1  0  0  0  0
  2 30  1  0  0  0  0
  3 31  1  0  0  0  0
  4 32  1  0  0  0  0
 10 33  1  0  0  0  0
 10 34  1  0  0  0  0
 15 35  1  0  0  0  0
 18 36  1  0  0  0  0
 19 37  1  0  0  0  0
 20 38  1  0  0  0  0
 23 39  1  0  0  0  0
 23 40  1  0  0  0  0
 23 41  1  0  0  0  0
 24 42  1  0  0  0  0
 24 43  1  0  0  0  0
 25 44  1  0  0  0  0
 26 45  1  0  0  0  0
 26 46  1  0  0  0  0
 27 47  1  0  0  0  0
 27 48  1  0  0  0  0
 28 49  1  0  0  0  0
M  END
> <Name>
42

> <IC50[uM]>
0.004

$$$$
42
  -OEChem-05192314333D
 Structure written by MMmdl.
 49 53  0     1  0  0  0  0  0999 V2000
   -6.3691   12.3596  -12.0090 C   0  0  0  0  0  0  0  0  0  0  0  0
   -6.5082   11.8040  -10.7325 C   0  0  0  0  0  0  0  0  0  0  0  0
   -7.7289   10.5800  -13.0272 C   0  0  0  0  0  0  0  0  0  0  0  0
   -6.9931   11.7723  -13.1223 C   0  0  0  0  0  0  0  0  0  0  0  0
   -7.8208   10.0120  -11.7545 C   0  0  0  0  0  0  0  0  0  0  0  0
   -7.2366   10.6190  -10.6002 C   0  0  0  0  0  0  0  0  0  0  0  0
   -7.6071    9.7463   -9.5106 C   0  0  0  0  0  0  0  0  0  0  0  0
   -8.2820    8.7349   -9.9857 N   0  0  0  0  0  0  0  0  0  0  0  0
   -8.4162    8.8630  -11.2985 N   0  0  0  0  0  0  0  0  0  0  0  0
   -7.3216    9.8824   -8.0245 C   0  0  0  0  0  0  0  0  0  0  0  0
   -4.3612   13.7214  -11.5083 N   0  0  0  0  0  0  0  0  0  0  0  0
   -5.5493   13.6373  -12.1980 C   0  0  0  0  0  0  0  0  0  0  0  0
   -5.9470   14.5254  -12.9531 O   0  0  0  0  0  0  0  0  0  0  0  0
   -5.9509   10.4995   -7.7283 C   0  0  0  0  0  0  0  0  0  0  0  0
   -5.8798   11.7709   -7.1545 C   0  0  0  0  0  0  0  0  0  0  0  0
   -4.6121   12.3149   -6.9130 C   0  0  0  0  0  0  0  0  0  0  0  0
   -3.4406   11.5618   -7.2441 C   0  0  0  0  0  0  0  0  0  0  0  0
   -3.5052   10.2836   -7.8087 C   0  0  0  0  0  0  0  0  0  0  0  0
   -4.7939    9.7786   -8.0440 C   0  0  0  0  0  0  0  0  0  0  0  0
   -4.0930   13.5444   -6.3685 C   0  0  0  0  0  0  0  0  0  0  0  0
   -2.7888   13.5284   -6.3764 N   0  0  0  0  0  0  0  0  0  0  0  0
   -2.3823   12.3688   -6.8823 N   0  0  0  0  0  0  0  0  0  0  0  0
   -0.9528   12.1034   -6.9863 C   0  0  0  0  0  0  0  0  0  0  0  0
   -3.7146   12.5761  -10.8355 C   0  0  0  0  0  0  0  0  0  0  0  0
   -2.2074   12.9376  -10.9559 C   0  0  2  0  0  0  0  0  0  0  0  0
   -2.1889   14.4652  -10.9572 C   0  0  0  0  0  0  0  0  0  0  0  0
   -3.5166   14.9141  -11.6000 C   0  0  0  0  0  0  0  0  0  0  0  0
   -1.6730   12.4527  -12.1791 O   0  0  0  0  0  0  0  0  0  0  0  0
   -6.0635   12.2793   -9.8707 H   0  0  0  0  0  0  0  0  0  0  0  0
   -8.1971   10.1280  -13.8891 H   0  0  0  0  0  0  0  0  0  0  0  0
   -6.9038   12.2545  -14.0846 H   0  0  0  0  0  0  0  0  0  0  0  0
   -6.3176   10.0352  -10.7569 H   0  0  0  0  0  0  0  0  0  0  0  0
   -8.0970   10.5211   -7.5764 H   0  0  0  0  0  0  0  0  0  0  0  0
   -7.3611    8.8825   -7.5677 H   0  0  0  0  0  0  0  0  0  0  0  0
   -6.7764   12.3186   -6.9043 H   0  0  0  0  0  0  0  0  0  0  0  0
   -2.6166    9.7188   -8.0493 H   0  0  0  0  0  0  0  0  0  0  0  0
   -4.8960    8.7979   -8.4848 H   0  0  0  0  0  0  0  0  0  0  0  0
   -4.6978   14.3623   -6.0057 H   0  0  0  0  0  0  0  0  0  0  0  0
   -0.3901   12.9669   -6.6019 H   0  0  0  0  0  0  0  0  0  0  0  0
   -0.7019   11.2100   -6.3955 H   0  0  0  0  0  0  0  0  0  0  0  0
   -0.6874   11.9326   -8.0401 H   0  0  0  0  0  0  0  0  0  0  0  0
   -4.0252   12.5039   -9.7827 H   0  0  0  0  0  0  0  0  0  0  0  0
   -3.9410   11.6307  -11.3502 H   0  0  0  0  0  0  0  0  0  0  0  0
   -1.6579   12.5499  -10.0854 H   0  0  0  0  0  0  0  0  0  0  0  0
   -2.1163   14.8460   -9.9278 H   0  0  0  0  0  0  0  0  0  0  0  0
   -1.3366   14.8352  -11.5459 H   0  0  0  0  0  0  0  0  0  0  0  0
   -3.3656   15.2093  -12.6488 H   0  0  0  0  0  0  0  0  0  0  0  0
   -3.9592   15.7531  -11.0430 H   0  0  0  0  0  0  0  0  0  0  0  0
   -0.7528   12.6819  -12.2362 H   0  0  0  0  0  0  0  0  0  0  0  0
  1  2  2  0  0  0  0
  1  4  1  0  0  0  0
  1 12  1  0  0  0  0
  2  6  1  0  0  0  0
  3  4  2  0  0  0  0
  3  5  1  0  0  0  0
  5  6  1  0  0  0  0
  5  9  2  0  0  0  0
  6  7  1  0  0  0  0
  7  8  2  0  0  0  0
  7 10  1  0  0  0  0
  8  9  1  0  0  0  0
 10 14  1  0  0  0  0
 11 12  1  0  0  0  0
 11 24  1  0  0  0  0
 11 27  1  0  0  0  0
 12 13  2  0  0  0  0
 14 15  2  0  0  0  0
 14 19  1  0  0  0  0
 15 16  1  0  0  0  0
 16 17  2  0  0  0  0
 16 20  1  0  0  0  0
 17 18  1  0  0  0  0
 17 22  1  0  0  0  0
 18 19  2  0  0  0  0
 20 21  2  0  0  0  0
 21 22  1  0  0  0  0
 22 23  1  0  0  0  0
 24 25  1  0  0  0  0
 25 26  1  0  0  0  0
 25 28  1  0  0  0  0
 26 27  1  0  0  0  0
  2 29  1  0  0  0  0
  3 30  1  0  0  0  0
  4 31  1  0  0  0  0
  6 32  1  0  0  0  0
 10 33  1  0  0  0  0
 10 34  1  0  0  0  0
 15 35  1  0  0  0  0
 18 36  1  0  0  0  0
 19 37  1  0  0  0  0
 20 38  1  0  0  0  0
 23 39  1  0  0  0  0
 23 40  1  0  0  0  0
 23 41  1  0  0  0  0
 24 42  1  0  0  0  0
 24 43  1  0  0  0  0
 25 44  1  0  0  0  0
 26 45  1  0  0  0  0
 26 46  1  0  0  0  0
 27 47  1  0  0  0  0
 27 48  1  0  0  0  0
 28 49  1  0  0  0  0
M  END
> <Name>
42

> <IC50[uM]>
0.004

$$$$
42
  -OEChem-05192314333D
 Structure written by MMmdl.
 49 53  0     1  0  0  0  0  0999 V2000
   -6.3691   12.3596  -12.0090 C   0  0  0  0  0  0  0  0  0  0  0  0
   -6.5082   11.8040  -10.7325 C   0  0  0  0  0  0  0  0  0  0  0  0
   -7.7289   10.5800  -13.0272 C   0  0  0  0  0  0  0  0  0  0  0  0
   -6.9931   11.7723  -13.1223 C   0  0  0  0  0  0  0  0  0  0  0  0
   -7.8208   10.0120  -11.7545 C   0  0  0  0  0  0  0  0  0  0  0  0
   -7.2366   10.6190  -10.6002 C   0  0  0  0  0  0  0  0  0  0  0  0
   -7.6071    9.7463   -9.5106 C   0  0  0  0  0  0  0  0  0  0  0  0
   -8.2820    8.7349   -9.9857 N   0  0  0  0  0  0  0  0  0  0  0  0
   -8.4162    8.8630  -11.2985 N   0  0  0  0  0  0  0  0  0  0  0  0
   -7.3216    9.8824   -8.0245 C   0  0  0  0  0  0  0  0  0  0  0  0
   -4.3612   13.7214  -11.5083 N   0  0  0  0  0  0  0  0  0  0  0  0
   -5.5493   13.6373  -12.1980 C   0  0  0  0  0  0  0  0  0  0  0  0
   -5.9470   14.5254  -12.9531 O   0  0  0  0  0  0  0  0  0  0  0  0
   -5.9509   10.4995   -7.7283 C   0  0  0  0  0  0  0  0  0  0  0  0
   -5.8798   11.7709   -7.1545 C   0  0  0  0  0  0  0  0  0  0  0  0
   -4.6121   12.3149   -6.9130 C   0  0  0  0  0  0  0  0  0  0  0  0
   -3.4406   11.5618   -7.2441 C   0  0  0  0  0  0  0  0  0  0  0  0
   -3.5052   10.2836   -7.8087 C   0  0  0  0  0  0  0  0  0  0  0  0
   -4.7939    9.7786   -8.0440 C   0  0  0  0  0  0  0  0  0  0  0  0
   -4.0930   13.5444   -6.3685 C   0  0  0  0  0  0  0  0  0  0  0  0
   -2.7888   13.5284   -6.3764 N   0  0  0  0  0  0  0  0  0  0  0  0
   -2.3823   12.3688   -6.8823 N   0  0  0  0  0  0  0  0  0  0  0  0
   -0.9528   12.1034   -6.9863 C   0  0  0  0  0  0  0  0  0  0  0  0
   -3.7146   12.5761  -10.8355 C   0  0  0  0  0  0  0  0  0  0  0  0
   -2.2074   12.9376  -10.9559 C   0  0  2  0  0  0  0  0  0  0  0  0
   -2.1889   14.4652  -10.9572 C   0  0  0  0  0  0  0  0  0  0  0  0
   -3.5166   14.9141  -11.6000 C   0  0  0  0  0  0  0  0  0  0  0  0
   -1.6730   12.4527  -12.1791 O   0  0  0  0  0  0  0  0  0  0  0  0
   -6.0635   12.2793   -9.8707 H   0  0  0  0  0  0  0  0  0  0  0  0
   -8.7510   10.7876  -13.3767 H   0  0  0  0  0  0  0  0  0  0  0  0
   -7.2574    9.8407  -13.6914 H   0  0  0  0  0  0  0  0  0  0  0  0
   -6.9038   12.2545  -14.0846 H   0  0  0  0  0  0  0  0  0  0  0  0
   -8.0970   10.5211   -7.5764 H   0  0  0  0  0  0  0  0  0  0  0  0
   -7.3611    8.8825   -7.5677 H   0  0  0  0  0  0  0  0  0  0  0  0
   -6.7764   12.3186   -6.9043 H   0  0  0  0  0  0  0  0  0  0  0  0
   -2.6166    9.7188   -8.0493 H   0  0  0  0  0  0  0  0  0  0  0  0
   -4.8960    8.7979   -8.4848 H   0  0  0  0  0  0  0  0  0  0  0  0
   -4.6978   14.3623   -6.0057 H   0  0  0  0  0  0  0  0  0  0  0  0
   -0.3901   12.9669   -6.6019 H   0  0  0  0  0  0  0  0  0  0  0  0
   -0.7019   11.2100   -6.3955 H   0  0  0  0  0  0  0  0  0  0  0  0
   -0.6874   11.9326   -8.0401 H   0  0  0  0  0  0  0  0  0  0  0  0
   -4.0252   12.5039   -9.7827 H   0  0  0  0  0  0  0  0  0  0  0  0
   -3.9410   11.6307  -11.3502 H   0  0  0  0  0  0  0  0  0  0  0  0
   -1.6579   12.5499  -10.0854 H   0  0  0  0  0  0  0  0  0  0  0  0
   -2.1163   14.8460   -9.9278 H   0  0  0  0  0  0  0  0  0  0  0  0
   -1.3366   14.8352  -11.5459 H   0  0  0  0  0  0  0  0  0  0  0  0
   -3.3656   15.2093  -12.6488 H   0  0  0  0  0  0  0  0  0  0  0  0
   -3.9592   15.7531  -11.0430 H   0  0  0  0  0  0  0  0  0  0  0  0
   -0.7528   12.6819  -12.2362 H   0  0  0  0  0  0  0  0  0  0  0  0
  1  2  1  0  0  0  0
  1  4  2  0  0  0  0
  1 12  1  0  0  0  0
  2  6  2  0  0  0  0
  3  4  1  0  0  0  0
  3  5  1  0  0  0  0
  5  6  1  0  0  0  0
  5  9  2  0  0  0  0
  6  7  1  0  0  0  0
  7  8  2  0  0  0  0
  7 10  1  0  0  0  0
  8  9  1  0  0  0  0
 10 14  1  0  0  0  0
 11 12  1  0  0  0  0
 11 24  1  0  0  0  0
 11 27  1  0  0  0  0
 12 13  2  0  0  0  0
 14 15  2  0  0  0  0
 14 19  1  0  0  0  0
 15 16  1  0  0  0  0
 16 17  2  0  0  0  0
 16 20  1  0  0  0  0
 17 18  1  0  0  0  0
 17 22  1  0  0  0  0
 18 19  2  0  0  0  0
 20 21  2  0  0  0  0
 21 22  1  0  0  0  0
 22 23  1  0  0  0  0
 24 25  1  0  0  0  0
 25 26  1  0  0  0  0
 25 28  1  0  0  0  0
 26 27  1  0  0  0  0
  2 29  1  0  0  0  0
  3 30  1  0  0  0  0
  3 31  1  0  0  0  0
  4 32  1  0  0  0  0
 10 33  1  0  0  0  0
 10 34  1  0  0  0  0
 15 35  1  0  0  0  0
 18 36  1  0  0  0  0
 19 37  1  0  0  0  0
 20 38  1  0  0  0  0
 23 39  1  0  0  0  0
 23 40  1  0  0  0  0
 23 41  1  0  0  0  0
 24 42  1  0  0  0  0
 24 43  1  0  0  0  0
 25 44  1  0  0  0  0
 26 45  1  0  0  0  0
 26 46  1  0  0  0  0
 27 47  1  0  0  0  0
 27 48  1  0  0  0  0
 28 49  1  0  0  0  0
M  END
> <Name>
42

> <IC50[uM]>
0.004

$$$$
42
  -OEChem-05192314333D
 Structure written by MMmdl.
 49 53  0     1  0  0  0  0  0999 V2000
   -6.3691   12.3596  -12.0090 C   0  0  0  0  0  0  0  0  0  0  0  0
   -6.5082   11.8040  -10.7325 C   0  0  0  0  0  0  0  0  0  0  0  0
   -7.7289   10.5800  -13.0272 C   0  0  0  0  0  0  0  0  0  0  0  0
   -6.9931   11.7723  -13.1223 C   0  0  0  0  0  0  0  0  0  0  0  0
   -7.8208   10.0120  -11.7545 C   0  0  0  0  0  0  0  0  0  0  0  0
   -7.2366   10.6190  -10.6002 C   0  0  0  0  0  0  0  0  0  0  0  0
   -7.6071    9.7463   -9.5106 C   0  0  0  0  0  0  0  0  0  0  0  0
   -8.2820    8.7349   -9.9857 N   0  0  0  0  0  0  0  0  0  0  0  0
   -8.4162    8.8630  -11.2985 N   0  0  0  0  0  0  0  0  0  0  0  0
   -7.3216    9.8824   -8.0245 C   0  0  0  0  0  0  0  0  0  0  0  0
   -4.3612   13.7214  -11.5083 N   0  0  0  0  0  0  0  0  0  0  0  0
   -5.5493   13.6373  -12.1980 C   0  0  0  0  0  0  0  0  0  0  0  0
   -5.9470   14.5254  -12.9531 O   0  0  0  0  0  0  0  0  0  0  0  0
   -5.9509   10.4995   -7.7283 C   0  0  0  0  0  0  0  0  0  0  0  0
   -5.8798   11.7709   -7.1545 C   0  0  0  0  0  0  0  0  0  0  0  0
   -4.6121   12.3149   -6.9130 C   0  0  0  0  0  0  0  0  0  0  0  0
   -3.4406   11.5618   -7.2441 C   0  0  0  0  0  0  0  0  0  0  0  0
   -3.5052   10.2836   -7.8087 C   0  0  0  0  0  0  0  0  0  0  0  0
   -4.7939    9.7786   -8.0440 C   0  0  0  0  0  0  0  0  0  0  0  0
   -4.0930   13.5444   -6.3685 C   0  0  0  0  0  0  0  0  0  0  0  0
   -2.7888   13.5284   -6.3764 N   0  0  0  0  0  0  0  0  0  0  0  0
   -2.3823   12.3688   -6.8823 N   0  0  0  0  0  0  0  0  0  0  0  0
   -0.9528   12.1034   -6.9863 C   0  0  0  0  0  0  0  0  0  0  0  0
   -3.7146   12.5761  -10.8355 C   0  0  0  0  0  0  0  0  0  0  0  0
   -2.2074   12.9376  -10.9559 C   0  0  2  0  0  0  0  0  0  0  0  0
   -2.1889   14.4652  -10.9572 C   0  0  0  0  0  0  0  0  0  0  0  0
   -3.5166   14.9141  -11.6000 C   0  0  0  0  0  0  0  0  0  0  0  0
   -1.6730   12.4527  -12.1791 O   0  0  0  0  0  0  0  0  0  0  0  0
   -5.4702   11.7501  -12.1833 H   0  0  0  0  0  0  0  0  0  0  0  0
   -6.0635   12.2793   -9.8707 H   0  0  0  0  0  0  0  0  0  0  0  0
   -8.1971   10.1280  -13.8891 H   0  0  0  0  0  0  0  0  0  0  0  0
   -6.9038   12.2545  -14.0846 H   0  0  0  0  0  0  0  0  0  0  0  0
   -6.8882    9.4572  -11.9348 H   0  0  0  0  0  0  0  0  0  0  0  0
   -8.0145    9.5753   -7.2551 H   0  0  0  0  0  0  0  0  0  0  0  0
   -6.7764   12.3186   -6.9043 H   0  0  0  0  0  0  0  0  0  0  0  0
   -2.6166    9.7188   -8.0493 H   0  0  0  0  0  0  0  0  0  0  0  0
   -4.8960    8.7979   -8.4848 H   0  0  0  0  0  0  0  0  0  0  0  0
   -4.6978   14.3623   -6.0057 H   0  0  0  0  0  0  0  0  0  0  0  0
   -0.3901   12.9669   -6.6019 H   0  0  0  0  0  0  0  0  0  0  0  0
   -0.7019   11.2100   -6.3955 H   0  0  0  0  0  0  0  0  0  0  0  0
   -0.6874   11.9326   -8.0401 H   0  0  0  0  0  0  0  0  0  0  0  0
   -4.0252   12.5039   -9.7827 H   0  0  0  0  0  0  0  0  0  0  0  0
   -3.9410   11.6307  -11.3502 H   0  0  0  0  0  0  0  0  0  0  0  0
   -1.6579   12.5499  -10.0854 H   0  0  0  0  0  0  0  0  0  0  0  0
   -2.1163   14.8460   -9.9278 H   0  0  0  0  0  0  0  0  0  0  0  0
   -1.3366   14.8352  -11.5459 H   0  0  0  0  0  0  0  0  0  0  0  0
   -3.3656   15.2093  -12.6488 H   0  0  0  0  0  0  0  0  0  0  0  0
   -3.9592   15.7531  -11.0430 H   0  0  0  0  0  0  0  0  0  0  0  0
   -0.7528   12.6819  -12.2362 H   0  0  0  0  0  0  0  0  0  0  0  0
  1  2  1  0  0  0  0
  1  4  1  0  0  0  0
  1 12  1  0  0  0  0
  2  6  2  0  0  0  0
  3  4  2  0  0  0  0
  3  5  1  0  0  0  0
  5  6  1  0  0  0  0
  5  9  1  0  0  0  0
  6  7  1  0  0  0  0
  7  8  1  0  0  0  0
  7 10  2  0  0  0  0
  8  9  2  0  0  0  0
 10 14  1  0  0  0  0
 11 12  1  0  0  0  0
 11 24  1  0  0  0  0
 11 27  1  0  0  0  0
 12 13  2  0  0  0  0
 14 15  2  0  0  0  0
 14 19  1  0  0  0  0
 15 16  1  0  0  0  0
 16 17  2  0  0  0  0
 16 20  1  0  0  0  0
 17 18  1  0  0  0  0
 17 22  1  0  0  0  0
 18 19  2  0  0  0  0
 20 21  2  0  0  0  0
 21 22  1  0  0  0  0
 22 23  1  0  0  0  0
 24 25  1  0  0  0  0
 25 26  1  0  0  0  0
 25 28  1  0  0  0  0
 26 27  1  0  0  0  0
  1 29  1  0  0  0  0
  2 30  1  0  0  0  0
  3 31  1  0  0  0  0
  4 32  1  0  0  0  0
  5 33  1  0  0  0  0
 10 34  1  0  0  0  0
 15 35  1  0  0  0  0
 18 36  1  0  0  0  0
 19 37  1  0  0  0  0
 20 38  1  0  0  0  0
 23 39  1  0  0  0  0
 23 40  1  0  0  0  0
 23 41  1  0  0  0  0
 24 42  1  0  0  0  0
 24 43  1  0  0  0  0
 25 44  1  0  0  0  0
 26 45  1  0  0  0  0
 26 46  1  0  0  0  0
 27 47  1  0  0  0  0
 27 48  1  0  0  0  0
 28 49  1  0  0  0  0
M  END
> <Name>
42

> <IC50[uM]>
0.004

$$$$
42
  -OEChem-05192314333D
 Structure written by MMmdl.
 49 53  0     1  0  0  0  0  0999 V2000
   -6.3691   12.3596  -12.0090 C   0  0  0  0  0  0  0  0  0  0  0  0
   -6.5082   11.8040  -10.7325 C   0  0  0  0  0  0  0  0  0  0  0  0
   -7.7289   10.5800  -13.0272 C   0  0  0  0  0  0  0  0  0  0  0  0
   -6.9931   11.7723  -13.1223 C   0  0  0  0  0  0  0  0  0  0  0  0
   -7.8208   10.0120  -11.7545 C   0  0  0  0  0  0  0  0  0  0  0  0
   -7.2366   10.6190  -10.6002 C   0  0  0  0  0  0  0  0  0  0  0  0
   -7.6071    9.7463   -9.5106 C   0  0  0  0  0  0  0  0  0  0  0  0
   -8.2820    8.7349   -9.9857 N   0  0  0  0  0  0  0  0  0  0  0  0
   -8.4162    8.8630  -11.2985 N   0  0  0  0  0  0  0  0  0  0  0  0
   -7.3216    9.8824   -8.0245 C   0  0  0  0  0  0  0  0  0  0  0  0
   -4.3612   13.7214  -11.5083 N   0  0  0  0  0  0  0  0  0  0  0  0
   -5.5493   13.6373  -12.1980 C   0  0  0  0  0  0  0  0  0  0  0  0
   -5.9470   14.5254  -12.9531 O   0  0  0  0  0  0  0  0  0  0  0  0
   -5.9509   10.4995   -7.7283 C   0  0  0  0  0  0  0  0  0  0  0  0
   -5.8798   11.7709   -7.1545 C   0  0  0  0  0  0  0  0  0  0  0  0
   -4.6121   12.3149   -6.9130 C   0  0  0  0  0  0  0  0  0  0  0  0
   -3.4406   11.5618   -7.2441 C   0  0  0  0  0  0  0  0  0  0  0  0
   -3.5052   10.2836   -7.8087 C   0  0  0  0  0  0  0  0  0  0  0  0
   -4.7939    9.7786   -8.0440 C   0  0  0  0  0  0  0  0  0  0  0  0
   -4.0930   13.5444   -6.3685 C   0  0  0  0  0  0  0  0  0  0  0  0
   -2.7888   13.5284   -6.3764 N   0  0  0  0  0  0  0  0  0  0  0  0
   -2.3823   12.3688   -6.8823 N   0  0  0  0  0  0  0  0  0  0  0  0
   -0.9528   12.1034   -6.9863 C   0  0  0  0  0  0  0  0  0  0  0  0
   -3.7146   12.5761  -10.8355 C   0  0  0  0  0  0  0  0  0  0  0  0
   -2.2074   12.9376  -10.9559 C   0  0  2  0  0  0  0  0  0  0  0  0
   -2.1889   14.4652  -10.9572 C   0  0  0  0  0  0  0  0  0  0  0  0
   -3.5166   14.9141  -11.6000 C   0  0  0  0  0  0  0  0  0  0  0  0
   -1.6730   12.4527  -12.1791 O   0  0  0  0  0  0  0  0  0  0  0  0
   -6.0635   12.2793   -9.8707 H   0  0  0  0  0  0  0  0  0  0  0  0
   -8.1971   10.1280  -13.8891 H   0  0  0  0  0  0  0  0  0  0  0  0
   -6.9038   12.2545  -14.0846 H   0  0  0  0  0  0  0  0  0  0  0  0
   -6.8882    9.4572  -11.9348 H   0  0  0  0  0  0  0  0  0  0  0  0
   -6.3176   10.0352  -10.7569 H   0  0  0  0  0  0  0  0  0  0  0  0
   -8.0145    9.5753   -7.2551 H   0  0  0  0  0  0  0  0  0  0  0  0
   -6.7764   12.3186   -6.9043 H   0  0  0  0  0  0  0  0  0  0  0  0
   -2.6166    9.7188   -8.0493 H   0  0  0  0  0  0  0  0  0  0  0  0
   -4.8960    8.7979   -8.4848 H   0  0  0  0  0  0  0  0  0  0  0  0
   -4.6978   14.3623   -6.0057 H   0  0  0  0  0  0  0  0  0  0  0  0
   -0.3901   12.9669   -6.6019 H   0  0  0  0  0  0  0  0  0  0  0  0
   -0.7019   11.2100   -6.3955 H   0  0  0  0  0  0  0  0  0  0  0  0
   -0.6874   11.9326   -8.0401 H   0  0  0  0  0  0  0  0  0  0  0  0
   -4.0252   12.5039   -9.7827 H   0  0  0  0  0  0  0  0  0  0  0  0
   -3.9410   11.6307  -11.3502 H   0  0  0  0  0  0  0  0  0  0  0  0
   -1.6579   12.5499  -10.0854 H   0  0  0  0  0  0  0  0  0  0  0  0
   -2.1163   14.8460   -9.9278 H   0  0  0  0  0  0  0  0  0  0  0  0
   -1.3366   14.8352  -11.5459 H   0  0  0  0  0  0  0  0  0  0  0  0
   -3.3656   15.2093  -12.6488 H   0  0  0  0  0  0  0  0  0  0  0  0
   -3.9592   15.7531  -11.0430 H   0  0  0  0  0  0  0  0  0  0  0  0
   -0.7528   12.6819  -12.2362 H   0  0  0  0  0  0  0  0  0  0  0  0
  1  2  2  0  0  0  0
  1  4  1  0  0  0  0
  1 12  1  0  0  0  0
  2  6  1  0  0  0  0
  3  4  2  0  0  0  0
  3  5  1  0  0  0  0
  5  6  1  0  0  0  0
  5  9  1  0  0  0  0
  6  7  1  0  0  0  0
  7  8  1  0  0  0  0
  7 10  2  0  0  0  0
  8  9  2  0  0  0  0
 10 14  1  0  0  0  0
 11 12  1  0  0  0  0
 11 24  1  0  0  0  0
 11 27  1  0  0  0  0
 12 13  2  0  0  0  0
 14 15  2  0  0  0  0
 14 19  1  0  0  0  0
 15 16  1  0  0  0  0
 16 17  2  0  0  0  0
 16 20  1  0  0  0  0
 17 18  1  0  0  0  0
 17 22  1  0  0  0  0
 18 19  2  0  0  0  0
 20 21  2  0  0  0  0
 21 22  1  0  0  0  0
 22 23  1  0  0  0  0
 24 25  1  0  0  0  0
 25 26  1  0  0  0  0
 25 28  1  0  0  0  0
 26 27  1  0  0  0  0
  2 29  1  0  0  0  0
  3 30  1  0  0  0  0
  4 31  1  0  0  0  0
  5 32  1  0  0  0  0
  6 33  1  0  0  0  0
 10 34  1  0  0  0  0
 15 35  1  0  0  0  0
 18 36  1  0  0  0  0
 19 37  1  0  0  0  0
 20 38  1  0  0  0  0
 23 39  1  0  0  0  0
 23 40  1  0  0  0  0
 23 41  1  0  0  0  0
 24 42  1  0  0  0  0
 24 43  1  0  0  0  0
 25 44  1  0  0  0  0
 26 45  1  0  0  0  0
 26 46  1  0  0  0  0
 27 47  1  0  0  0  0
 27 48  1  0  0  0  0
 28 49  1  0  0  0  0
M  END
> <Name>
42

> <IC50[uM]>
0.004

$$$$
42
  -OEChem-05192314333D
 Structure written by MMmdl.
 49 53  0     1  0  0  0  0  0999 V2000
   -6.3691   12.3596  -12.0090 C   0  0  0  0  0  0  0  0  0  0  0  0
   -6.5082   11.8040  -10.7325 C   0  0  0  0  0  0  0  0  0  0  0  0
   -7.7289   10.5800  -13.0272 C   0  0  0  0  0  0  0  0  0  0  0  0
   -6.9931   11.7723  -13.1223 C   0  0  0  0  0  0  0  0  0  0  0  0
   -7.8208   10.0120  -11.7545 C   0  0  0  0  0  0  0  0  0  0  0  0
   -7.2366   10.6190  -10.6002 C   0  0  0  0  0  0  0  0  0  0  0  0
   -7.6071    9.7463   -9.5106 C   0  0  0  0  0  0  0  0  0  0  0  0
   -8.2820    8.7349   -9.9857 N   0  0  0  0  0  0  0  0  0  0  0  0
   -8.4162    8.8630  -11.2985 N   0  0  0  0  0  0  0  0  0  0  0  0
   -7.3216    9.8824   -8.0245 C   0  0  0  0  0  0  0  0  0  0  0  0
   -4.3612   13.7214  -11.5083 N   0  0  0  0  0  0  0  0  0  0  0  0
   -5.5493   13.6373  -12.1980 C   0  0  0  0  0  0  0  0  0  0  0  0
   -5.9470   14.5254  -12.9531 O   0  0  0  0  0  0  0  0  0  0  0  0
   -5.9509   10.4995   -7.7283 C   0  0  0  0  0  0  0  0  0  0  0  0
   -5.8798   11.7709   -7.1545 C   0  0  0  0  0  0  0  0  0  0  0  0
   -4.6121   12.3149   -6.9130 C   0  0  0  0  0  0  0  0  0  0  0  0
   -3.4406   11.5618   -7.2441 C   0  0  0  0  0  0  0  0  0  0  0  0
   -3.5052   10.2836   -7.8087 C   0  0  0  0  0  0  0  0  0  0  0  0
   -4.7939    9.7786   -8.0440 C   0  0  0  0  0  0  0  0  0  0  0  0
   -4.0930   13.5444   -6.3685 C   0  0  0  0  0  0  0  0  0  0  0  0
   -2.7888   13.5284   -6.3764 N   0  0  0  0  0  0  0  0  0  0  0  0
   -2.3823   12.3688   -6.8823 N   0  0  0  0  0  0  0  0  0  0  0  0
   -0.9528   12.1034   -6.9863 C   0  0  0  0  0  0  0  0  0  0  0  0
   -3.7146   12.5761  -10.8355 C   0  0  0  0  0  0  0  0  0  0  0  0
   -2.2074   12.9376  -10.9559 C   0  0  2  0  0  0  0  0  0  0  0  0
   -2.1889   14.4652  -10.9572 C   0  0  0  0  0  0  0  0  0  0  0  0
   -3.5166   14.9141  -11.6000 C   0  0  0  0  0  0  0  0  0  0  0  0
   -1.6730   12.4527  -12.1791 O   0  0  0  0  0  0  0  0  0  0  0  0
   -6.0635   12.2793   -9.8707 H   0  0  0  0  0  0  0  0  0  0  0  0
   -8.7510   10.7876  -13.3767 H   0  0  0  0  0  0  0  0  0  0  0  0
   -7.2574    9.8407  -13.6914 H   0  0  0  0  0  0  0  0  0  0  0  0
   -6.9038   12.2545  -14.0846 H   0  0  0  0  0  0  0  0  0  0  0  0
   -6.8882    9.4572  -11.9348 H   0  0  0  0  0  0  0  0  0  0  0  0
   -8.0145    9.5753   -7.2551 H   0  0  0  0  0  0  0  0  0  0  0  0
   -6.7764   12.3186   -6.9043 H   0  0  0  0  0  0  0  0  0  0  0  0
   -2.6166    9.7188   -8.0493 H   0  0  0  0  0  0  0  0  0  0  0  0
   -4.8960    8.7979   -8.4848 H   0  0  0  0  0  0  0  0  0  0  0  0
   -4.6978   14.3623   -6.0057 H   0  0  0  0  0  0  0  0  0  0  0  0
   -0.3901   12.9669   -6.6019 H   0  0  0  0  0  0  0  0  0  0  0  0
   -0.7019   11.2100   -6.3955 H   0  0  0  0  0  0  0  0  0  0  0  0
   -0.6874   11.9326   -8.0401 H   0  0  0  0  0  0  0  0  0  0  0  0
   -4.0252   12.5039   -9.7827 H   0  0  0  0  0  0  0  0  0  0  0  0
   -3.9410   11.6307  -11.3502 H   0  0  0  0  0  0  0  0  0  0  0  0
   -1.6579   12.5499  -10.0854 H   0  0  0  0  0  0  0  0  0  0  0  0
   -2.1163   14.8460   -9.9278 H   0  0  0  0  0  0  0  0  0  0  0  0
   -1.3366   14.8352  -11.5459 H   0  0  0  0  0  0  0  0  0  0  0  0
   -3.3656   15.2093  -12.6488 H   0  0  0  0  0  0  0  0  0  0  0  0
   -3.9592   15.7531  -11.0430 H   0  0  0  0  0  0  0  0  0  0  0  0
   -0.7528   12.6819  -12.2362 H   0  0  0  0  0  0  0  0  0  0  0  0
  1  2  1  0  0  0  0
  1  4  2  0  0  0  0
  1 12  1  0  0  0  0
  2  6  2  0  0  0  0
  3  4  1  0  0  0  0
  3  5  1  0  0  0  0
  5  6  1  0  0  0  0
  5  9  1  0  0  0  0
  6  7  1  0  0  0  0
  7  8  1  0  0  0  0
  7 10  2  0  0  0  0
  8  9  2  0  0  0  0
 10 14  1  0  0  0  0
 11 12  1  0  0  0  0
 11 24  1  0  0  0  0
 11 27  1  0  0  0  0
 12 13  2  0  0  0  0
 14 15  2  0  0  0  0
 14 19  1  0  0  0  0
 15 16  1  0  0  0  0
 16 17  2  0  0  0  0
 16 20  1  0  0  0  0
 17 18  1  0  0  0  0
 17 22  1  0  0  0  0
 18 19  2  0  0  0  0
 20 21  2  0  0  0  0
 21 22  1  0  0  0  0
 22 23  1  0  0  0  0
 24 25  1  0  0  0  0
 25 26  1  0  0  0  0
 25 28  1  0  0  0  0
 26 27  1  0  0  0  0
  2 29  1  0  0  0  0
  3 30  1  0  0  0  0
  3 31  1  0  0  0  0
  4 32  1  0  0  0  0
  5 33  1  0  0  0  0
 10 34  1  0  0  0  0
 15 35  1  0  0  0  0
 18 36  1  0  0  0  0
 19 37  1  0  0  0  0
 20 38  1  0  0  0  0
 23 39  1  0  0  0  0
 23 40  1  0  0  0  0
 23 41  1  0  0  0  0
 24 42  1  0  0  0  0
 24 43  1  0  0  0  0
 25 44  1  0  0  0  0
 26 45  1  0  0  0  0
 26 46  1  0  0  0  0
 27 47  1  0  0  0  0
 27 48  1  0  0  0  0
 28 49  1  0  0  0  0
M  END
> <Name>
42

> <IC50[uM]>
0.004

$$$$
42
  -OEChem-05192314333D
 Structure written by MMmdl.
 49 53  0     1  0  0  0  0  0999 V2000
   -6.3691   12.3596  -12.0090 C   0  0  0  0  0  0  0  0  0  0  0  0
   -6.5082   11.8040  -10.7325 C   0  0  0  0  0  0  0  0  0  0  0  0
   -7.7289   10.5800  -13.0272 C   0  0  0  0  0  0  0  0  0  0  0  0
   -6.9931   11.7723  -13.1223 C   0  0  0  0  0  0  0  0  0  0  0  0
   -7.8208   10.0120  -11.7545 C   0  0  0  0  0  0  0  0  0  0  0  0
   -7.2366   10.6190  -10.6002 C   0  0  0  0  0  0  0  0  0  0  0  0
   -7.6071    9.7463   -9.5106 C   0  0  0  0  0  0  0  0  0  0  0  0
   -8.2820    8.7349   -9.9857 N   0  0  0  0  0  0  0  0  0  0  0  0
   -8.4162    8.8630  -11.2985 N   0  0  0  0  0  0  0  0  0  0  0  0
   -7.3216    9.8824   -8.0245 C   0  0  0  0  0  0  0  0  0  0  0  0
   -4.3612   13.7214  -11.5083 N   0  0  0  0  0  0  0  0  0  0  0  0
   -5.5493   13.6373  -12.1980 C   0  0  0  0  0  0  0  0  0  0  0  0
   -5.9470   14.5254  -12.9531 O   0  0  0  0  0  0  0  0  0  0  0  0
   -5.9509   10.4995   -7.7283 C   0  0  0  0  0  0  0  0  0  0  0  0
   -5.8798   11.7709   -7.1545 C   0  0  0  0  0  0  0  0  0  0  0  0
   -4.6121   12.3149   -6.9130 C   0  0  0  0  0  0  0  0  0  0  0  0
   -3.4406   11.5618   -7.2441 C   0  0  0  0  0  0  0  0  0  0  0  0
   -3.5052   10.2836   -7.8087 C   0  0  0  0  0  0  0  0  0  0  0  0
   -4.7939    9.7786   -8.0440 C   0  0  0  0  0  0  0  0  0  0  0  0
   -4.0930   13.5444   -6.3685 C   0  0  0  0  0  0  0  0  0  0  0  0
   -2.7888   13.5284   -6.3764 N   0  0  0  0  0  0  0  0  0  0  0  0
   -2.3823   12.3688   -6.8823 N   0  0  0  0  0  0  0  0  0  0  0  0
   -0.9528   12.1034   -6.9863 C   0  0  0  0  0  0  0  0  0  0  0  0
   -3.7146   12.5761  -10.8355 C   0  0  0  0  0  0  0  0  0  0  0  0
   -2.2074   12.9376  -10.9559 C   0  0  2  0  0  0  0  0  0  0  0  0
   -2.1889   14.4652  -10.9572 C   0  0  0  0  0  0  0  0  0  0  0  0
   -3.5166   14.9141  -11.6000 C   0  0  0  0  0  0  0  0  0  0  0  0
   -1.6730   12.4527  -12.1791 O   0  0  0  0  0  0  0  0  0  0  0  0
   -5.4702   11.7501  -12.1833 H   0  0  0  0  0  0  0  0  0  0  0  0
   -6.0635   12.2793   -9.8707 H   0  0  0  0  0  0  0  0  0  0  0  0
   -8.1971   10.1280  -13.8891 H   0  0  0  0  0  0  0  0  0  0  0  0
   -7.6854   12.5289  -13.5202 H   0  0  0  0  0  0  0  0  0  0  0  0
   -6.1958   11.5828  -13.8561 H   0  0  0  0  0  0  0  0  0  0  0  0
   -8.0145    9.5753   -7.2551 H   0  0  0  0  0  0  0  0  0  0  0  0
   -6.7764   12.3186   -6.9043 H   0  0  0  0  0  0  0  0  0  0  0  0
   -2.6166    9.7188   -8.0493 H   0  0  0  0  0  0  0  0  0  0  0  0
   -4.8960    8.7979   -8.4848 H   0  0  0  0  0  0  0  0  0  0  0  0
   -4.6978   14.3623   -6.0057 H   0  0  0  0  0  0  0  0  0  0  0  0
   -0.3901   12.9669   -6.6019 H   0  0  0  0  0  0  0  0  0  0  0  0
   -0.7019   11.2100   -6.3955 H   0  0  0  0  0  0  0  0  0  0  0  0
   -0.6874   11.9326   -8.0401 H   0  0  0  0  0  0  0  0  0  0  0  0
   -4.0252   12.5039   -9.7827 H   0  0  0  0  0  0  0  0  0  0  0  0
   -3.9410   11.6307  -11.3502 H   0  0  0  0  0  0  0  0  0  0  0  0
   -1.6579   12.5499  -10.0854 H   0  0  0  0  0  0  0  0  0  0  0  0
   -2.1163   14.8460   -9.9278 H   0  0  0  0  0  0  0  0  0  0  0  0
   -1.3366   14.8352  -11.5459 H   0  0  0  0  0  0  0  0  0  0  0  0
   -3.3656   15.2093  -12.6488 H   0  0  0  0  0  0  0  0  0  0  0  0
   -3.9592   15.7531  -11.0430 H   0  0  0  0  0  0  0  0  0  0  0  0
   -0.7528   12.6819  -12.2362 H   0  0  0  0  0  0  0  0  0  0  0  0
  1  2  1  0  0  0  0
  1  4  1  0  0  0  0
  1 12  1  0  0  0  0
  2  6  2  0  0  0  0
  3  4  1  0  0  0  0
  3  5  2  0  0  0  0
  5  6  1  0  0  0  0
  5  9  1  0  0  0  0
  6  7  1  0  0  0  0
  7  8  1  0  0  0  0
  7 10  2  0  0  0  0
  8  9  2  0  0  0  0
 10 14  1  0  0  0  0
 11 12  1  0  0  0  0
 11 24  1  0  0  0  0
 11 27  1  0  0  0  0
 12 13  2  0  0  0  0
 14 15  2  0  0  0  0
 14 19  1  0  0  0  0
 15 16  1  0  0  0  0
 16 17  2  0  0  0  0
 16 20  1  0  0  0  0
 17 18  1  0  0  0  0
 17 22  1  0  0  0  0
 18 19  2  0  0  0  0
 20 21  2  0  0  0  0
 21 22  1  0  0  0  0
 22 23  1  0  0  0  0
 24 25  1  0  0  0  0
 25 26  1  0  0  0  0
 25 28  1  0  0  0  0
 26 27  1  0  0  0  0
  1 29  1  0  0  0  0
  2 30  1  0  0  0  0
  3 31  1  0  0  0  0
  4 32  1  0  0  0  0
  4 33  1  0  0  0  0
 10 34  1  0  0  0  0
 15 35  1  0  0  0  0
 18 36  1  0  0  0  0
 19 37  1  0  0  0  0
 20 38  1  0  0  0  0
 23 39  1  0  0  0  0
 23 40  1  0  0  0  0
 23 41  1  0  0  0  0
 24 42  1  0  0  0  0
 24 43  1  0  0  0  0
 25 44  1  0  0  0  0
 26 45  1  0  0  0  0
 26 46  1  0  0  0  0
 27 47  1  0  0  0  0
 27 48  1  0  0  0  0
 28 49  1  0  0  0  0
M  END
> <Name>
42

> <IC50[uM]>
0.004

$$$$
42
  -OEChem-05192314333D
 Structure written by MMmdl.
 49 53  0     1  0  0  0  0  0999 V2000
   -6.3691   12.3596  -12.0090 C   0  0  0  0  0  0  0  0  0  0  0  0
   -6.5082   11.8040  -10.7325 C   0  0  0  0  0  0  0  0  0  0  0  0
   -7.7289   10.5800  -13.0272 C   0  0  0  0  0  0  0  0  0  0  0  0
   -6.9931   11.7723  -13.1223 C   0  0  0  0  0  0  0  0  0  0  0  0
   -7.8208   10.0120  -11.7545 C   0  0  0  0  0  0  0  0  0  0  0  0
   -7.2366   10.6190  -10.6002 C   0  0  0  0  0  0  0  0  0  0  0  0
   -7.6071    9.7463   -9.5106 C   0  0  0  0  0  0  0  0  0  0  0  0
   -8.2820    8.7349   -9.9857 N   0  0  0  0  0  0  0  0  0  0  0  0
   -8.4162    8.8630  -11.2985 N   0  0  0  0  0  0  0  0  0  0  0  0
   -7.3216    9.8824   -8.0245 C   0  0  0  0  0  0  0  0  0  0  0  0
   -4.3612   13.7214  -11.5083 N   0  0  0  0  0  0  0  0  0  0  0  0
   -5.5493   13.6373  -12.1980 C   0  0  0  0  0  0  0  0  0  0  0  0
   -5.9470   14.5254  -12.9531 O   0  0  0  0  0  0  0  0  0  0  0  0
   -5.9509   10.4995   -7.7283 C   0  0  0  0  0  0  0  0  0  0  0  0
   -5.8798   11.7709   -7.1545 C   0  0  0  0  0  0  0  0  0  0  0  0
   -4.6121   12.3149   -6.9130 C   0  0  0  0  0  0  0  0  0  0  0  0
   -3.4406   11.5618   -7.2441 C   0  0  0  0  0  0  0  0  0  0  0  0
   -3.5052   10.2836   -7.8087 C   0  0  0  0  0  0  0  0  0  0  0  0
   -4.7939    9.7786   -8.0440 C   0  0  0  0  0  0  0  0  0  0  0  0
   -4.0930   13.5444   -6.3685 C   0  0  0  0  0  0  0  0  0  0  0  0
   -2.7888   13.5284   -6.3764 N   0  0  0  0  0  0  0  0  0  0  0  0
   -2.3823   12.3688   -6.8823 N   0  0  0  0  0  0  0  0  0  0  0  0
   -0.9528   12.1034   -6.9863 C   0  0  0  0  0  0  0  0  0  0  0  0
   -3.7146   12.5761  -10.8355 C   0  0  0  0  0  0  0  0  0  0  0  0
   -2.2074   12.9376  -10.9559 C   0  0  2  0  0  0  0  0  0  0  0  0
   -2.1889   14.4652  -10.9572 C   0  0  0  0  0  0  0  0  0  0  0  0
   -3.5166   14.9141  -11.6000 C   0  0  0  0  0  0  0  0  0  0  0  0
   -1.6730   12.4527  -12.1791 O   0  0  0  0  0  0  0  0  0  0  0  0
   -6.0635   12.2793   -9.8707 H   0  0  0  0  0  0  0  0  0  0  0  0
   -8.1971   10.1280  -13.8891 H   0  0  0  0  0  0  0  0  0  0  0  0
   -7.6854   12.5289  -13.5202 H   0  0  0  0  0  0  0  0  0  0  0  0
   -6.1958   11.5828  -13.8561 H   0  0  0  0  0  0  0  0  0  0  0  0
   -6.3176   10.0352  -10.7569 H   0  0  0  0  0  0  0  0  0  0  0  0
   -8.0145    9.5753   -7.2551 H   0  0  0  0  0  0  0  0  0  0  0  0
   -6.7764   12.3186   -6.9043 H   0  0  0  0  0  0  0  0  0  0  0  0
   -2.6166    9.7188   -8.0493 H   0  0  0  0  0  0  0  0  0  0  0  0
   -4.8960    8.7979   -8.4848 H   0  0  0  0  0  0  0  0  0  0  0  0
   -4.6978   14.3623   -6.0057 H   0  0  0  0  0  0  0  0  0  0  0  0
   -0.3901   12.9669   -6.6019 H   0  0  0  0  0  0  0  0  0  0  0  0
   -0.7019   11.2100   -6.3955 H   0  0  0  0  0  0  0  0  0  0  0  0
   -0.6874   11.9326   -8.0401 H   0  0  0  0  0  0  0  0  0  0  0  0
   -4.0252   12.5039   -9.7827 H   0  0  0  0  0  0  0  0  0  0  0  0
   -3.9410   11.6307  -11.3502 H   0  0  0  0  0  0  0  0  0  0  0  0
   -1.6579   12.5499  -10.0854 H   0  0  0  0  0  0  0  0  0  0  0  0
   -2.1163   14.8460   -9.9278 H   0  0  0  0  0  0  0  0  0  0  0  0
   -1.3366   14.8352  -11.5459 H   0  0  0  0  0  0  0  0  0  0  0  0
   -3.3656   15.2093  -12.6488 H   0  0  0  0  0  0  0  0  0  0  0  0
   -3.9592   15.7531  -11.0430 H   0  0  0  0  0  0  0  0  0  0  0  0
   -0.7528   12.6819  -12.2362 H   0  0  0  0  0  0  0  0  0  0  0  0
  1  2  2  0  0  0  0
  1  4  1  0  0  0  0
  1 12  1  0  0  0  0
  2  6  1  0  0  0  0
  3  4  1  0  0  0  0
  3  5  2  0  0  0  0
  5  6  1  0  0  0  0
  5  9  1  0  0  0  0
  6  7  1  0  0  0  0
  7  8  1  0  0  0  0
  7 10  2  0  0  0  0
  8  9  2  0  0  0  0
 10 14  1  0  0  0  0
 11 12  1  0  0  0  0
 11 24  1  0  0  0  0
 11 27  1  0  0  0  0
 12 13  2  0  0  0  0
 14 15  2  0  0  0  0
 14 19  1  0  0  0  0
 15 16  1  0  0  0  0
 16 17  2  0  0  0  0
 16 20  1  0  0  0  0
 17 18  1  0  0  0  0
 17 22  1  0  0  0  0
 18 19  2  0  0  0  0
 20 21  2  0  0  0  0
 21 22  1  0  0  0  0
 22 23  1  0  0  0  0
 24 25  1  0  0  0  0
 25 26  1  0  0  0  0
 25 28  1  0  0  0  0
 26 27  1  0  0  0  0
  2 29  1  0  0  0  0
  3 30  1  0  0  0  0
  4 31  1  0  0  0  0
  4 32  1  0  0  0  0
  6 33  1  0  0  0  0
 10 34  1  0  0  0  0
 15 35  1  0  0  0  0
 18 36  1  0  0  0  0
 19 37  1  0  0  0  0
 20 38  1  0  0  0  0
 23 39  1  0  0  0  0
 23 40  1  0  0  0  0
 23 41  1  0  0  0  0
 24 42  1  0  0  0  0
 24 43  1  0  0  0  0
 25 44  1  0  0  0  0
 26 45  1  0  0  0  0
 26 46  1  0  0  0  0
 27 47  1  0  0  0  0
 27 48  1  0  0  0  0
 28 49  1  0  0  0  0
M  END
> <Name>
42

> <IC50[uM]>
0.004

$$$$
42
  -OEChem-05192314333D
 Structure written by MMmdl.
 49 53  0     1  0  0  0  0  0999 V2000
   -6.3691   12.3596  -12.0090 C   0  0  0  0  0  0  0  0  0  0  0  0
   -6.5082   11.8040  -10.7325 C   0  0  0  0  0  0  0  0  0  0  0  0
   -7.7289   10.5800  -13.0272 C   0  0  0  0  0  0  0  0  0  0  0  0
   -6.9931   11.7723  -13.1223 C   0  0  0  0  0  0  0  0  0  0  0  0
   -7.8208   10.0120  -11.7545 C   0  0  0  0  0  0  0  0  0  0  0  0
   -7.2366   10.6190  -10.6002 C   0  0  0  0  0  0  0  0  0  0  0  0
   -7.6071    9.7463   -9.5106 C   0  0  0  0  0  0  0  0  0  0  0  0
   -8.2820    8.7349   -9.9857 N   0  0  0  0  0  0  0  0  0  0  0  0
   -8.4162    8.8630  -11.2985 N   0  0  0  0  0  0  0  0  0  0  0  0
   -7.3216    9.8824   -8.0245 C   0  0  0  0  0  0  0  0  0  0  0  0
   -4.3612   13.7214  -11.5083 N   0  0  0  0  0  0  0  0  0  0  0  0
   -5.5493   13.6373  -12.1980 C   0  0  0  0  0  0  0  0  0  0  0  0
   -5.9470   14.5254  -12.9531 O   0  0  0  0  0  0  0  0  0  0  0  0
   -5.9509   10.4995   -7.7283 C   0  0  0  0  0  0  0  0  0  0  0  0
   -5.8798   11.7709   -7.1545 C   0  0  0  0  0  0  0  0  0  0  0  0
   -4.6121   12.3149   -6.9130 C   0  0  0  0  0  0  0  0  0  0  0  0
   -3.4406   11.5618   -7.2441 C   0  0  0  0  0  0  0  0  0  0  0  0
   -3.5052   10.2836   -7.8087 C   0  0  0  0  0  0  0  0  0  0  0  0
   -4.7939    9.7786   -8.0440 C   0  0  0  0  0  0  0  0  0  0  0  0
   -4.0930   13.5444   -6.3685 C   0  0  0  0  0  0  0  0  0  0  0  0
   -2.7888   13.5284   -6.3764 N   0  0  0  0  0  0  0  0  0  0  0  0
   -2.3823   12.3688   -6.8823 N   0  0  0  0  0  0  0  0  0  0  0  0
   -0.9528   12.1034   -6.9863 C   0  0  0  0  0  0  0  0  0  0  0  0
   -3.7146   12.5761  -10.8355 C   0  0  0  0  0  0  0  0  0  0  0  0
   -2.2074   12.9376  -10.9559 C   0  0  2  0  0  0  0  0  0  0  0  0
   -2.1889   14.4652  -10.9572 C   0  0  0  0  0  0  0  0  0  0  0  0
   -3.5166   14.9141  -11.6000 C   0  0  0  0  0  0  0  0  0  0  0  0
   -1.6730   12.4527  -12.1791 O   0  0  0  0  0  0  0  0  0  0  0  0
   -6.0635   12.2793   -9.8707 H   0  0  0  0  0  0  0  0  0  0  0  0
   -8.7510   10.7876  -13.3767 H   0  0  0  0  0  0  0  0  0  0  0  0
   -7.2574    9.8407  -13.6914 H   0  0  0  0  0  0  0  0  0  0  0  0
   -7.6854   12.5289  -13.5202 H   0  0  0  0  0  0  0  0  0  0  0  0
   -6.1958   11.5828  -13.8561 H   0  0  0  0  0  0  0  0  0  0  0  0
   -8.0145    9.5753   -7.2551 H   0  0  0  0  0  0  0  0  0  0  0  0
   -6.7764   12.3186   -6.9043 H   0  0  0  0  0  0  0  0  0  0  0  0
   -2.6166    9.7188   -8.0493 H   0  0  0  0  0  0  0  0  0  0  0  0
   -4.8960    8.7979   -8.4848 H   0  0  0  0  0  0  0  0  0  0  0  0
   -4.6978   14.3623   -6.0057 H   0  0  0  0  0  0  0  0  0  0  0  0
   -0.3901   12.9669   -6.6019 H   0  0  0  0  0  0  0  0  0  0  0  0
   -0.7019   11.2100   -6.3955 H   0  0  0  0  0  0  0  0  0  0  0  0
   -0.6874   11.9326   -8.0401 H   0  0  0  0  0  0  0  0  0  0  0  0
   -4.0252   12.5039   -9.7827 H   0  0  0  0  0  0  0  0  0  0  0  0
   -3.9410   11.6307  -11.3502 H   0  0  0  0  0  0  0  0  0  0  0  0
   -1.6579   12.5499  -10.0854 H   0  0  0  0  0  0  0  0  0  0  0  0
   -2.1163   14.8460   -9.9278 H   0  0  0  0  0  0  0  0  0  0  0  0
   -1.3366   14.8352  -11.5459 H   0  0  0  0  0  0  0  0  0  0  0  0
   -3.3656   15.2093  -12.6488 H   0  0  0  0  0  0  0  0  0  0  0  0
   -3.9592   15.7531  -11.0430 H   0  0  0  0  0  0  0  0  0  0  0  0
   -0.7528   12.6819  -12.2362 H   0  0  0  0  0  0  0  0  0  0  0  0
  1  2  2  0  0  0  0
  1  4  1  0  0  0  0
  1 12  1  0  0  0  0
  2  6  1  0  0  0  0
  3  4  1  0  0  0  0
  3  5  1  0  0  0  0
  5  6  2  0  0  0  0
  5  9  1  0  0  0  0
  6  7  1  0  0  0  0
  7  8  1  0  0  0  0
  7 10  2  0  0  0  0
  8  9  2  0  0  0  0
 10 14  1  0  0  0  0
 11 12  1  0  0  0  0
 11 24  1  0  0  0  0
 11 27  1  0  0  0  0
 12 13  2  0  0  0  0
 14 15  2  0  0  0  0
 14 19  1  0  0  0  0
 15 16  1  0  0  0  0
 16 17  2  0  0  0  0
 16 20  1  0  0  0  0
 17 18  1  0  0  0  0
 17 22  1  0  0  0  0
 18 19  2  0  0  0  0
 20 21  2  0  0  0  0
 21 22  1  0  0  0  0
 22 23  1  0  0  0  0
 24 25  1  0  0  0  0
 25 26  1  0  0  0  0
 25 28  1  0  0  0  0
 26 27  1  0  0  0  0
  2 29  1  0  0  0  0
  3 30  1  0  0  0  0
  3 31  1  0  0  0  0
  4 32  1  0  0  0  0
  4 33  1  0  0  0  0
 10 34  1  0  0  0  0
 15 35  1  0  0  0  0
 18 36  1  0  0  0  0
 19 37  1  0  0  0  0
 20 38  1  0  0  0  0
 23 39  1  0  0  0  0
 23 40  1  0  0  0  0
 23 41  1  0  0  0  0
 24 42  1  0  0  0  0
 24 43  1  0  0  0  0
 25 44  1  0  0  0  0
 26 45  1  0  0  0  0
 26 46  1  0  0  0  0
 27 47  1  0  0  0  0
 27 48  1  0  0  0  0
 28 49  1  0  0  0  0
M  END
> <Name>
42

> <IC50[uM]>
0.004

$$$$
42
  -OEChem-05192314333D
 Structure written by MMmdl.
 49 53  0     1  0  0  0  0  0999 V2000
   -6.3691   12.3596  -12.0090 C   0  0  0  0  0  0  0  0  0  0  0  0
   -6.5082   11.8040  -10.7325 C   0  0  0  0  0  0  0  0  0  0  0  0
   -7.7289   10.5800  -13.0272 C   0  0  0  0  0  0  0  0  0  0  0  0
   -6.9931   11.7723  -13.1223 C   0  0  0  0  0  0  0  0  0  0  0  0
   -7.8208   10.0120  -11.7545 C   0  0  0  0  0  0  0  0  0  0  0  0
   -7.2366   10.6190  -10.6002 C   0  0  0  0  0  0  0  0  0  0  0  0
   -7.6071    9.7463   -9.5106 C   0  0  0  0  0  0  0  0  0  0  0  0
   -8.2820    8.7349   -9.9857 N   0  0  0  0  0  0  0  0  0  0  0  0
   -8.4162    8.8630  -11.2985 N   0  0  0  0  0  0  0  0  0  0  0  0
   -7.3216    9.8824   -8.0245 C   0  0  0  0  0  0  0  0  0  0  0  0
   -4.3612   13.7214  -11.5083 N   0  0  0  0  0  0  0  0  0  0  0  0
   -5.5493   13.6373  -12.1980 C   0  0  0  0  0  0  0  0  0  0  0  0
   -5.9470   14.5254  -12.9531 O   0  0  0  0  0  0  0  0  0  0  0  0
   -5.9509   10.4995   -7.7283 C   0  0  0  0  0  0  0  0  0  0  0  0
   -5.8798   11.7709   -7.1545 C   0  0  0  0  0  0  0  0  0  0  0  0
   -4.6121   12.3149   -6.9130 C   0  0  0  0  0  0  0  0  0  0  0  0
   -3.4406   11.5618   -7.2441 C   0  0  0  0  0  0  0  0  0  0  0  0
   -3.5052   10.2836   -7.8087 C   0  0  0  0  0  0  0  0  0  0  0  0
   -4.7939    9.7786   -8.0440 C   0  0  0  0  0  0  0  0  0  0  0  0
   -4.0930   13.5444   -6.3685 C   0  0  0  0  0  0  0  0  0  0  0  0
   -2.7888   13.5284   -6.3764 N   0  0  0  0  0  0  0  0  0  0  0  0
   -2.3823   12.3688   -6.8823 N   0  0  0  0  0  0  0  0  0  0  0  0
   -0.9528   12.1034   -6.9863 C   0  0  0  0  0  0  0  0  0  0  0  0
   -3.7146   12.5761  -10.8355 C   0  0  0  0  0  0  0  0  0  0  0  0
   -2.2074   12.9376  -10.9559 C   0  0  2  0  0  0  0  0  0  0  0  0
   -2.1889   14.4652  -10.9572 C   0  0  0  0  0  0  0  0  0  0  0  0
   -3.5166   14.9141  -11.6000 C   0  0  0  0  0  0  0  0  0  0  0  0
   -1.6730   12.4527  -12.1791 O   0  0  0  0  0  0  0  0  0  0  0  0
   -5.4702   11.7501  -12.1833 H   0  0  0  0  0  0  0  0  0  0  0  0
   -5.4953   11.6077  -10.3509 H   0  0  0  0  0  0  0  0  0  0  0  0
   -6.9981   12.5594  -10.1005 H   0  0  0  0  0  0  0  0  0  0  0  0
   -8.1971   10.1280  -13.8891 H   0  0  0  0  0  0  0  0  0  0  0  0
   -6.9038   12.2545  -14.0846 H   0  0  0  0  0  0  0  0  0  0  0  0
   -8.0145    9.5753   -7.2551 H   0  0  0  0  0  0  0  0  0  0  0  0
   -6.7764   12.3186   -6.9043 H   0  0  0  0  0  0  0  0  0  0  0  0
   -2.6166    9.7188   -8.0493 H   0  0  0  0  0  0  0  0  0  0  0  0
   -4.8960    8.7979   -8.4848 H   0  0  0  0  0  0  0  0  0  0  0  0
   -4.6978   14.3623   -6.0057 H   0  0  0  0  0  0  0  0  0  0  0  0
   -0.3901   12.9669   -6.6019 H   0  0  0  0  0  0  0  0  0  0  0  0
   -0.7019   11.2100   -6.3955 H   0  0  0  0  0  0  0  0  0  0  0  0
   -0.6874   11.9326   -8.0401 H   0  0  0  0  0  0  0  0  0  0  0  0
   -4.0252   12.5039   -9.7827 H   0  0  0  0  0  0  0  0  0  0  0  0
   -3.9410   11.6307  -11.3502 H   0  0  0  0  0  0  0  0  0  0  0  0
   -1.6579   12.5499  -10.0854 H   0  0  0  0  0  0  0  0  0  0  0  0
   -2.1163   14.8460   -9.9278 H   0  0  0  0  0  0  0  0  0  0  0  0
   -1.3366   14.8352  -11.5459 H   0  0  0  0  0  0  0  0  0  0  0  0
   -3.3656   15.2093  -12.6488 H   0  0  0  0  0  0  0  0  0  0  0  0
   -3.9592   15.7531  -11.0430 H   0  0  0  0  0  0  0  0  0  0  0  0
   -0.7528   12.6819  -12.2362 H   0  0  0  0  0  0  0  0  0  0  0  0
  1  2  1  0  0  0  0
  1  4  1  0  0  0  0
  1 12  1  0  0  0  0
  2  6  1  0  0  0  0
  3  4  2  0  0  0  0
  3  5  1  0  0  0  0
  5  6  2  0  0  0  0
  5  9  1  0  0  0  0
  6  7  1  0  0  0  0
  7  8  1  0  0  0  0
  7 10  2  0  0  0  0
  8  9  2  0  0  0  0
 10 14  1  0  0  0  0
 11 12  1  0  0  0  0
 11 24  1  0  0  0  0
 11 27  1  0  0  0  0
 12 13  2  0  0  0  0
 14 15  2  0  0  0  0
 14 19  1  0  0  0  0
 15 16  1  0  0  0  0
 16 17  2  0  0  0  0
 16 20  1  0  0  0  0
 17 18  1  0  0  0  0
 17 22  1  0  0  0  0
 18 19  2  0  0  0  0
 20 21  2  0  0  0  0
 21 22  1  0  0  0  0
 22 23  1  0  0  0  0
 24 25  1  0  0  0  0
 25 26  1  0  0  0  0
 25 28  1  0  0  0  0
 26 27  1  0  0  0  0
  1 29  1  0  0  0  0
  2 30  1  0  0  0  0
  2 31  1  0  0  0  0
  3 32  1  0  0  0  0
  4 33  1  0  0  0  0
 10 34  1  0  0  0  0
 15 35  1  0  0  0  0
 18 36  1  0  0  0  0
 19 37  1  0  0  0  0
 20 38  1  0  0  0  0
 23 39  1  0  0  0  0
 23 40  1  0  0  0  0
 23 41  1  0  0  0  0
 24 42  1  0  0  0  0
 24 43  1  0  0  0  0
 25 44  1  0  0  0  0
 26 45  1  0  0  0  0
 26 46  1  0  0  0  0
 27 47  1  0  0  0  0
 27 48  1  0  0  0  0
 28 49  1  0  0  0  0
M  END
> <Name>
42

> <IC50[uM]>
0.004

$$$$
42
  -OEChem-05192314333D
 Structure written by MMmdl.
 49 53  0     1  0  0  0  0  0999 V2000
   -6.3691   12.3596  -12.0090 C   0  0  0  0  0  0  0  0  0  0  0  0
   -6.5082   11.8040  -10.7325 C   0  0  0  0  0  0  0  0  0  0  0  0
   -7.7289   10.5800  -13.0272 C   0  0  0  0  0  0  0  0  0  0  0  0
   -6.9931   11.7723  -13.1223 C   0  0  0  0  0  0  0  0  0  0  0  0
   -7.8208   10.0120  -11.7545 C   0  0  0  0  0  0  0  0  0  0  0  0
   -7.2366   10.6190  -10.6002 C   0  0  0  0  0  0  0  0  0  0  0  0
   -7.6071    9.7463   -9.5106 C   0  0  0  0  0  0  0  0  0  0  0  0
   -8.2820    8.7349   -9.9857 N   0  0  0  0  0  0  0  0  0  0  0  0
   -8.4162    8.8630  -11.2985 N   0  0  0  0  0  0  0  0  0  0  0  0
   -7.3216    9.8824   -8.0245 C   0  0  0  0  0  0  0  0  0  0  0  0
   -4.3612   13.7214  -11.5083 N   0  0  0  0  0  0  0  0  0  0  0  0
   -5.5493   13.6373  -12.1980 C   0  0  0  0  0  0  0  0  0  0  0  0
   -5.9470   14.5254  -12.9531 O   0  0  0  0  0  0  0  0  0  0  0  0
   -5.9509   10.4995   -7.7283 C   0  0  0  0  0  0  0  0  0  0  0  0
   -5.8798   11.7709   -7.1545 C   0  0  0  0  0  0  0  0  0  0  0  0
   -4.6121   12.3149   -6.9130 C   0  0  0  0  0  0  0  0  0  0  0  0
   -3.4406   11.5618   -7.2441 C   0  0  0  0  0  0  0  0  0  0  0  0
   -3.5052   10.2836   -7.8087 C   0  0  0  0  0  0  0  0  0  0  0  0
   -4.7939    9.7786   -8.0440 C   0  0  0  0  0  0  0  0  0  0  0  0
   -4.0930   13.5444   -6.3685 C   0  0  0  0  0  0  0  0  0  0  0  0
   -2.7888   13.5284   -6.3764 N   0  0  0  0  0  0  0  0  0  0  0  0
   -2.3823   12.3688   -6.8823 N   0  0  0  0  0  0  0  0  0  0  0  0
   -0.9528   12.1034   -6.9863 C   0  0  0  0  0  0  0  0  0  0  0  0
   -3.7146   12.5761  -10.8355 C   0  0  0  0  0  0  0  0  0  0  0  0
   -2.2074   12.9376  -10.9559 C   0  0  2  0  0  0  0  0  0  0  0  0
   -2.1889   14.4652  -10.9572 C   0  0  0  0  0  0  0  0  0  0  0  0
   -3.5166   14.9141  -11.6000 C   0  0  0  0  0  0  0  0  0  0  0  0
   -1.6730   12.4527  -12.1791 O   0  0  0  0  0  0  0  0  0  0  0  0
   -5.4953   11.6077  -10.3509 H   0  0  0  0  0  0  0  0  0  0  0  0
   -6.9981   12.5594  -10.1005 H   0  0  0  0  0  0  0  0  0  0  0  0
   -8.1971   10.1280  -13.8891 H   0  0  0  0  0  0  0  0  0  0  0  0
   -6.9038   12.2545  -14.0846 H   0  0  0  0  0  0  0  0  0  0  0  0
   -6.3176   10.0352  -10.7569 H   0  0  0  0  0  0  0  0  0  0  0  0
   -8.0145    9.5753   -7.2551 H   0  0  0  0  0  0  0  0  0  0  0  0
   -6.7764   12.3186   -6.9043 H   0  0  0  0  0  0  0  0  0  0  0  0
   -2.6166    9.7188   -8.0493 H   0  0  0  0  0  0  0  0  0  0  0  0
   -4.8960    8.7979   -8.4848 H   0  0  0  0  0  0  0  0  0  0  0  0
   -4.6978   14.3623   -6.0057 H   0  0  0  0  0  0  0  0  0  0  0  0
   -0.3901   12.9669   -6.6019 H   0  0  0  0  0  0  0  0  0  0  0  0
   -0.7019   11.2100   -6.3955 H   0  0  0  0  0  0  0  0  0  0  0  0
   -0.6874   11.9326   -8.0401 H   0  0  0  0  0  0  0  0  0  0  0  0
   -4.0252   12.5039   -9.7827 H   0  0  0  0  0  0  0  0  0  0  0  0
   -3.9410   11.6307  -11.3502 H   0  0  0  0  0  0  0  0  0  0  0  0
   -1.6579   12.5499  -10.0854 H   0  0  0  0  0  0  0  0  0  0  0  0
   -2.1163   14.8460   -9.9278 H   0  0  0  0  0  0  0  0  0  0  0  0
   -1.3366   14.8352  -11.5459 H   0  0  0  0  0  0  0  0  0  0  0  0
   -3.3656   15.2093  -12.6488 H   0  0  0  0  0  0  0  0  0  0  0  0
   -3.9592   15.7531  -11.0430 H   0  0  0  0  0  0  0  0  0  0  0  0
   -0.7528   12.6819  -12.2362 H   0  0  0  0  0  0  0  0  0  0  0  0
  1  2  1  0  0  0  0
  1  4  2  0  0  0  0
  1 12  1  0  0  0  0
  2  6  1  0  0  0  0
  3  4  1  0  0  0  0
  3  5  2  0  0  0  0
  5  6  1  0  0  0  0
  5  9  1  0  0  0  0
  6  7  1  0  0  0  0
  7  8  1  0  0  0  0
  7 10  2  0  0  0  0
  8  9  2  0  0  0  0
 10 14  1  0  0  0  0
 11 12  1  0  0  0  0
 11 24  1  0  0  0  0
 11 27  1  0  0  0  0
 12 13  2  0  0  0  0
 14 15  2  0  0  0  0
 14 19  1  0  0  0  0
 15 16  1  0  0  0  0
 16 17  2  0  0  0  0
 16 20  1  0  0  0  0
 17 18  1  0  0  0  0
 17 22  1  0  0  0  0
 18 19  2  0  0  0  0
 20 21  2  0  0  0  0
 21 22  1  0  0  0  0
 22 23  1  0  0  0  0
 24 25  1  0  0  0  0
 25 26  1  0  0  0  0
 25 28  1  0  0  0  0
 26 27  1  0  0  0  0
  2 29  1  0  0  0  0
  2 30  1  0  0  0  0
  3 31  1  0  0  0  0
  4 32  1  0  0  0  0
  6 33  1  0  0  0  0
 10 34  1  0  0  0  0
 15 35  1  0  0  0  0
 18 36  1  0  0  0  0
 19 37  1  0  0  0  0
 20 38  1  0  0  0  0
 23 39  1  0  0  0  0
 23 40  1  0  0  0  0
 23 41  1  0  0  0  0
 24 42  1  0  0  0  0
 24 43  1  0  0  0  0
 25 44  1  0  0  0  0
 26 45  1  0  0  0  0
 26 46  1  0  0  0  0
 27 47  1  0  0  0  0
 27 48  1  0  0  0  0
 28 49  1  0  0  0  0
M  END
> <Name>
42

> <IC50[uM]>
0.004

$$$$
42
  -OEChem-05192314333D
 Structure written by MMmdl.
 49 53  0     1  0  0  0  0  0999 V2000
   -6.3691   12.3596  -12.0090 C   0  0  0  0  0  0  0  0  0  0  0  0
   -6.5082   11.8040  -10.7325 C   0  0  0  0  0  0  0  0  0  0  0  0
   -7.7289   10.5800  -13.0272 C   0  0  0  0  0  0  0  0  0  0  0  0
   -6.9931   11.7723  -13.1223 C   0  0  0  0  0  0  0  0  0  0  0  0
   -7.8208   10.0120  -11.7545 C   0  0  0  0  0  0  0  0  0  0  0  0
   -7.2366   10.6190  -10.6002 C   0  0  0  0  0  0  0  0  0  0  0  0
   -7.6071    9.7463   -9.5106 C   0  0  0  0  0  0  0  0  0  0  0  0
   -8.2820    8.7349   -9.9857 N   0  0  0  0  0  0  0  0  0  0  0  0
   -8.4162    8.8630  -11.2985 N   0  0  0  0  0  0  0  0  0  0  0  0
   -7.3216    9.8824   -8.0245 C   0  0  0  0  0  0  0  0  0  0  0  0
   -4.3612   13.7214  -11.5083 N   0  0  0  0  0  0  0  0  0  0  0  0
   -5.5493   13.6373  -12.1980 C   0  0  0  0  0  0  0  0  0  0  0  0
   -5.9470   14.5254  -12.9531 O   0  0  0  0  0  0  0  0  0  0  0  0
   -5.9509   10.4995   -7.7283 C   0  0  0  0  0  0  0  0  0  0  0  0
   -5.8798   11.7709   -7.1545 C   0  0  0  0  0  0  0  0  0  0  0  0
   -4.6121   12.3149   -6.9130 C   0  0  0  0  0  0  0  0  0  0  0  0
   -3.4406   11.5618   -7.2441 C   0  0  0  0  0  0  0  0  0  0  0  0
   -3.5052   10.2836   -7.8087 C   0  0  0  0  0  0  0  0  0  0  0  0
   -4.7939    9.7786   -8.0440 C   0  0  0  0  0  0  0  0  0  0  0  0
   -4.0930   13.5444   -6.3685 C   0  0  0  0  0  0  0  0  0  0  0  0
   -2.7888   13.5284   -6.3764 N   0  0  0  0  0  0  0  0  0  0  0  0
   -2.3823   12.3688   -6.8823 N   0  0  0  0  0  0  0  0  0  0  0  0
   -0.9528   12.1034   -6.9863 C   0  0  0  0  0  0  0  0  0  0  0  0
   -3.7146   12.5761  -10.8355 C   0  0  0  0  0  0  0  0  0  0  0  0
   -2.2074   12.9376  -10.9559 C   0  0  2  0  0  0  0  0  0  0  0  0
   -2.1889   14.4652  -10.9572 C   0  0  0  0  0  0  0  0  0  0  0  0
   -3.5166   14.9141  -11.6000 C   0  0  0  0  0  0  0  0  0  0  0  0
   -1.6730   12.4527  -12.1791 O   0  0  0  0  0  0  0  0  0  0  0  0
   -5.4953   11.6077  -10.3509 H   0  0  0  0  0  0  0  0  0  0  0  0
   -6.9981   12.5594  -10.1005 H   0  0  0  0  0  0  0  0  0  0  0  0
   -8.7510   10.7876  -13.3767 H   0  0  0  0  0  0  0  0  0  0  0  0
   -7.2574    9.8407  -13.6914 H   0  0  0  0  0  0  0  0  0  0  0  0
   -6.9038   12.2545  -14.0846 H   0  0  0  0  0  0  0  0  0  0  0  0
   -8.0145    9.5753   -7.2551 H   0  0  0  0  0  0  0  0  0  0  0  0
   -6.7764   12.3186   -6.9043 H   0  0  0  0  0  0  0  0  0  0  0  0
   -2.6166    9.7188   -8.0493 H   0  0  0  0  0  0  0  0  0  0  0  0
   -4.8960    8.7979   -8.4848 H   0  0  0  0  0  0  0  0  0  0  0  0
   -4.6978   14.3623   -6.0057 H   0  0  0  0  0  0  0  0  0  0  0  0
   -0.3901   12.9669   -6.6019 H   0  0  0  0  0  0  0  0  0  0  0  0
   -0.7019   11.2100   -6.3955 H   0  0  0  0  0  0  0  0  0  0  0  0
   -0.6874   11.9326   -8.0401 H   0  0  0  0  0  0  0  0  0  0  0  0
   -4.0252   12.5039   -9.7827 H   0  0  0  0  0  0  0  0  0  0  0  0
   -3.9410   11.6307  -11.3502 H   0  0  0  0  0  0  0  0  0  0  0  0
   -1.6579   12.5499  -10.0854 H   0  0  0  0  0  0  0  0  0  0  0  0
   -2.1163   14.8460   -9.9278 H   0  0  0  0  0  0  0  0  0  0  0  0
   -1.3366   14.8352  -11.5459 H   0  0  0  0  0  0  0  0  0  0  0  0
   -3.3656   15.2093  -12.6488 H   0  0  0  0  0  0  0  0  0  0  0  0
   -3.9592   15.7531  -11.0430 H   0  0  0  0  0  0  0  0  0  0  0  0
   -0.7528   12.6819  -12.2362 H   0  0  0  0  0  0  0  0  0  0  0  0
  1  2  1  0  0  0  0
  1  4  2  0  0  0  0
  1 12  1  0  0  0  0
  2  6  1  0  0  0  0
  3  4  1  0  0  0  0
  3  5  1  0  0  0  0
  5  6  2  0  0  0  0
  5  9  1  0  0  0  0
  6  7  1  0  0  0  0
  7  8  1  0  0  0  0
  7 10  2  0  0  0  0
  8  9  2  0  0  0  0
 10 14  1  0  0  0  0
 11 12  1  0  0  0  0
 11 24  1  0  0  0  0
 11 27  1  0  0  0  0
 12 13  2  0  0  0  0
 14 15  2  0  0  0  0
 14 19  1  0  0  0  0
 15 16  1  0  0  0  0
 16 17  2  0  0  0  0
 16 20  1  0  0  0  0
 17 18  1  0  0  0  0
 17 22  1  0  0  0  0
 18 19  2  0  0  0  0
 20 21  2  0  0  0  0
 21 22  1  0  0  0  0
 22 23  1  0  0  0  0
 24 25  1  0  0  0  0
 25 26  1  0  0  0  0
 25 28  1  0  0  0  0
 26 27  1  0  0  0  0
  2 29  1  0  0  0  0
  2 30  1  0  0  0  0
  3 31  1  0  0  0  0
  3 32  1  0  0  0  0
  4 33  1  0  0  0  0
 10 34  1  0  0  0  0
 15 35  1  0  0  0  0
 18 36  1  0  0  0  0
 19 37  1  0  0  0  0
 20 38  1  0  0  0  0
 23 39  1  0  0  0  0
 23 40  1  0  0  0  0
 23 41  1  0  0  0  0
 24 42  1  0  0  0  0
 24 43  1  0  0  0  0
 25 44  1  0  0  0  0
 26 45  1  0  0  0  0
 26 46  1  0  0  0  0
 27 47  1  0  0  0  0
 27 48  1  0  0  0  0
 28 49  1  0  0  0  0
M  END
> <Name>
42

> <IC50[uM]>
0.004

$$$$
42
  -OEChem-05192314333D
 Structure written by MMmdl.
 49 53  0     1  0  0  0  0  0999 V2000
   -6.3691   12.3596  -12.0090 C   0  0  0  0  0  0  0  0  0  0  0  0
   -6.5082   11.8040  -10.7325 C   0  0  0  0  0  0  0  0  0  0  0  0
   -7.7289   10.5800  -13.0272 C   0  0  0  0  0  0  0  0  0  0  0  0
   -6.9931   11.7723  -13.1223 C   0  0  0  0  0  0  0  0  0  0  0  0
   -7.8208   10.0120  -11.7545 C   0  0  0  0  0  0  0  0  0  0  0  0
   -7.2366   10.6190  -10.6002 C   0  0  0  0  0  0  0  0  0  0  0  0
   -7.6071    9.7463   -9.5106 C   0  0  0  0  0  0  0  0  0  0  0  0
   -8.2820    8.7349   -9.9857 N   0  0  0  0  0  0  0  0  0  0  0  0
   -8.4162    8.8630  -11.2985 N   0  0  0  0  0  0  0  0  0  0  0  0
   -7.3216    9.8824   -8.0245 C   0  0  0  0  0  0  0  0  0  0  0  0
   -4.3612   13.7214  -11.5083 N   0  0  0  0  0  0  0  0  0  0  0  0
   -5.5493   13.6373  -12.1980 C   0  0  0  0  0  0  0  0  0  0  0  0
   -5.9470   14.5254  -12.9531 O   0  0  0  0  0  0  0  0  0  0  0  0
   -5.9509   10.4995   -7.7283 C   0  0  0  0  0  0  0  0  0  0  0  0
   -5.8798   11.7709   -7.1545 C   0  0  0  0  0  0  0  0  0  0  0  0
   -4.6121   12.3149   -6.9130 C   0  0  0  0  0  0  0  0  0  0  0  0
   -3.4406   11.5618   -7.2441 C   0  0  0  0  0  0  0  0  0  0  0  0
   -3.5052   10.2836   -7.8087 C   0  0  0  0  0  0  0  0  0  0  0  0
   -4.7939    9.7786   -8.0440 C   0  0  0  0  0  0  0  0  0  0  0  0
   -4.0930   13.5444   -6.3685 C   0  0  0  0  0  0  0  0  0  0  0  0
   -2.7888   13.5284   -6.3764 N   0  0  0  0  0  0  0  0  0  0  0  0
   -2.3823   12.3688   -6.8823 N   0  0  0  0  0  0  0  0  0  0  0  0
   -0.9528   12.1034   -6.9863 C   0  0  0  0  0  0  0  0  0  0  0  0
   -3.7146   12.5761  -10.8355 C   0  0  0  0  0  0  0  0  0  0  0  0
   -2.2074   12.9376  -10.9559 C   0  0  2  0  0  0  0  0  0  0  0  0
   -2.1889   14.4652  -10.9572 C   0  0  0  0  0  0  0  0  0  0  0  0
   -3.5166   14.9141  -11.6000 C   0  0  0  0  0  0  0  0  0  0  0  0
   -1.6730   12.4527  -12.1791 O   0  0  0  0  0  0  0  0  0  0  0  0
   -6.0635   12.2793   -9.8707 H   0  0  0  0  0  0  0  0  0  0  0  0
   -8.1971   10.1280  -13.8891 H   0  0  0  0  0  0  0  0  0  0  0  0
   -6.9038   12.2545  -14.0846 H   0  0  0  0  0  0  0  0  0  0  0  0
   -6.8882    9.4572  -11.9348 H   0  0  0  0  0  0  0  0  0  0  0  0
   -8.0970   10.5211   -7.5764 H   0  0  0  0  0  0  0  0  0  0  0  0
   -7.3611    8.8825   -7.5677 H   0  0  0  0  0  0  0  0  0  0  0  0
   -6.7764   12.3186   -6.9043 H   0  0  0  0  0  0  0  0  0  0  0  0
   -2.6166    9.7188   -8.0493 H   0  0  0  0  0  0  0  0  0  0  0  0
   -4.8960    8.7979   -8.4848 H   0  0  0  0  0  0  0  0  0  0  0  0
   -4.6978   14.3623   -6.0057 H   0  0  0  0  0  0  0  0  0  0  0  0
   -0.3901   12.9669   -6.6019 H   0  0  0  0  0  0  0  0  0  0  0  0
   -0.7019   11.2100   -6.3955 H   0  0  0  0  0  0  0  0  0  0  0  0
   -0.6874   11.9326   -8.0401 H   0  0  0  0  0  0  0  0  0  0  0  0
   -4.0252   12.5039   -9.7827 H   0  0  0  0  0  0  0  0  0  0  0  0
   -3.9410   11.6307  -11.3502 H   0  0  0  0  0  0  0  0  0  0  0  0
   -1.6579   12.5499  -10.0854 H   0  0  0  0  0  0  0  0  0  0  0  0
   -2.1163   14.8460   -9.9278 H   0  0  0  0  0  0  0  0  0  0  0  0
   -1.3366   14.8352  -11.5459 H   0  0  0  0  0  0  0  0  0  0  0  0
   -3.3656   15.2093  -12.6488 H   0  0  0  0  0  0  0  0  0  0  0  0
   -3.9592   15.7531  -11.0430 H   0  0  0  0  0  0  0  0  0  0  0  0
   -0.7528   12.6819  -12.2362 H   0  0  0  0  0  0  0  0  0  0  0  0
  1  2  2  0  0  0  0
  1  4  1  0  0  0  0
  1 12  1  0  0  0  0
  2  6  1  0  0  0  0
  3  4  2  0  0  0  0
  3  5  1  0  0  0  0
  5  6  1  0  0  0  0
  5  9  1  0  0  0  0
  6  7  2  0  0  0  0
  7  8  1  0  0  0  0
  7 10  1  0  0  0  0
  8  9  2  0  0  0  0
 10 14  1  0  0  0  0
 11 12  1  0  0  0  0
 11 24  1  0  0  0  0
 11 27  1  0  0  0  0
 12 13  2  0  0  0  0
 14 15  2  0  0  0  0
 14 19  1  0  0  0  0
 15 16  1  0  0  0  0
 16 17  2  0  0  0  0
 16 20  1  0  0  0  0
 17 18  1  0  0  0  0
 17 22  1  0  0  0  0
 18 19  2  0  0  0  0
 20 21  2  0  0  0  0
 21 22  1  0  0  0  0
 22 23  1  0  0  0  0
 24 25  1  0  0  0  0
 25 26  1  0  0  0  0
 25 28  1  0  0  0  0
 26 27  1  0  0  0  0
  2 29  1  0  0  0  0
  3 30  1  0  0  0  0
  4 31  1  0  0  0  0
  5 32  1  0  0  0  0
 10 33  1  0  0  0  0
 10 34  1  0  0  0  0
 15 35  1  0  0  0  0
 18 36  1  0  0  0  0
 19 37  1  0  0  0  0
 20 38  1  0  0  0  0
 23 39  1  0  0  0  0
 23 40  1  0  0  0  0
 23 41  1  0  0  0  0
 24 42  1  0  0  0  0
 24 43  1  0  0  0  0
 25 44  1  0  0  0  0
 26 45  1  0  0  0  0
 26 46  1  0  0  0  0
 27 47  1  0  0  0  0
 27 48  1  0  0  0  0
 28 49  1  0  0  0  0
M  END
> <Name>
42

> <IC50[uM]>
0.004

$$$$
42
  -OEChem-05192314333D
 Structure written by MMmdl.
 49 53  0     1  0  0  0  0  0999 V2000
   -6.3691   12.3596  -12.0090 C   0  0  0  0  0  0  0  0  0  0  0  0
   -6.5082   11.8040  -10.7325 C   0  0  0  0  0  0  0  0  0  0  0  0
   -7.7289   10.5800  -13.0272 C   0  0  0  0  0  0  0  0  0  0  0  0
   -6.9931   11.7723  -13.1223 C   0  0  0  0  0  0  0  0  0  0  0  0
   -7.8208   10.0120  -11.7545 C   0  0  0  0  0  0  0  0  0  0  0  0
   -7.2366   10.6190  -10.6002 C   0  0  0  0  0  0  0  0  0  0  0  0
   -7.6071    9.7463   -9.5106 C   0  0  0  0  0  0  0  0  0  0  0  0
   -8.2820    8.7349   -9.9857 N   0  0  0  0  0  0  0  0  0  0  0  0
   -8.4162    8.8630  -11.2985 N   0  0  0  0  0  0  0  0  0  0  0  0
   -7.3216    9.8824   -8.0245 C   0  0  0  0  0  0  0  0  0  0  0  0
   -4.3612   13.7214  -11.5083 N   0  0  0  0  0  0  0  0  0  0  0  0
   -5.5493   13.6373  -12.1980 C   0  0  0  0  0  0  0  0  0  0  0  0
   -5.9470   14.5254  -12.9531 O   0  0  0  0  0  0  0  0  0  0  0  0
   -5.9509   10.4995   -7.7283 C   0  0  0  0  0  0  0  0  0  0  0  0
   -5.8798   11.7709   -7.1545 C   0  0  0  0  0  0  0  0  0  0  0  0
   -4.6121   12.3149   -6.9130 C   0  0  0  0  0  0  0  0  0  0  0  0
   -3.4406   11.5618   -7.2441 C   0  0  0  0  0  0  0  0  0  0  0  0
   -3.5052   10.2836   -7.8087 C   0  0  0  0  0  0  0  0  0  0  0  0
   -4.7939    9.7786   -8.0440 C   0  0  0  0  0  0  0  0  0  0  0  0
   -4.0930   13.5444   -6.3685 C   0  0  0  0  0  0  0  0  0  0  0  0
   -2.7888   13.5284   -6.3764 N   0  0  0  0  0  0  0  0  0  0  0  0
   -2.3823   12.3688   -6.8823 N   0  0  0  0  0  0  0  0  0  0  0  0
   -0.9528   12.1034   -6.9863 C   0  0  0  0  0  0  0  0  0  0  0  0
   -3.7146   12.5761  -10.8355 C   0  0  0  0  0  0  0  0  0  0  0  0
   -2.2074   12.9376  -10.9559 C   0  0  2  0  0  0  0  0  0  0  0  0
   -2.1889   14.4652  -10.9572 C   0  0  0  0  0  0  0  0  0  0  0  0
   -3.5166   14.9141  -11.6000 C   0  0  0  0  0  0  0  0  0  0  0  0
   -1.6730   12.4527  -12.1791 O   0  0  0  0  0  0  0  0  0  0  0  0
   -6.0635   12.2793   -9.8707 H   0  0  0  0  0  0  0  0  0  0  0  0
   -8.1971   10.1280  -13.8891 H   0  0  0  0  0  0  0  0  0  0  0  0
   -7.6854   12.5289  -13.5202 H   0  0  0  0  0  0  0  0  0  0  0  0
   -6.1958   11.5828  -13.8561 H   0  0  0  0  0  0  0  0  0  0  0  0
   -8.0970   10.5211   -7.5764 H   0  0  0  0  0  0  0  0  0  0  0  0
   -7.3611    8.8825   -7.5677 H   0  0  0  0  0  0  0  0  0  0  0  0
   -6.7764   12.3186   -6.9043 H   0  0  0  0  0  0  0  0  0  0  0  0
   -2.6166    9.7188   -8.0493 H   0  0  0  0  0  0  0  0  0  0  0  0
   -4.8960    8.7979   -8.4848 H   0  0  0  0  0  0  0  0  0  0  0  0
   -4.6978   14.3623   -6.0057 H   0  0  0  0  0  0  0  0  0  0  0  0
   -0.3901   12.9669   -6.6019 H   0  0  0  0  0  0  0  0  0  0  0  0
   -0.7019   11.2100   -6.3955 H   0  0  0  0  0  0  0  0  0  0  0  0
   -0.6874   11.9326   -8.0401 H   0  0  0  0  0  0  0  0  0  0  0  0
   -4.0252   12.5039   -9.7827 H   0  0  0  0  0  0  0  0  0  0  0  0
   -3.9410   11.6307  -11.3502 H   0  0  0  0  0  0  0  0  0  0  0  0
   -1.6579   12.5499  -10.0854 H   0  0  0  0  0  0  0  0  0  0  0  0
   -2.1163   14.8460   -9.9278 H   0  0  0  0  0  0  0  0  0  0  0  0
   -1.3366   14.8352  -11.5459 H   0  0  0  0  0  0  0  0  0  0  0  0
   -3.3656   15.2093  -12.6488 H   0  0  0  0  0  0  0  0  0  0  0  0
   -3.9592   15.7531  -11.0430 H   0  0  0  0  0  0  0  0  0  0  0  0
   -0.7528   12.6819  -12.2362 H   0  0  0  0  0  0  0  0  0  0  0  0
  1  2  2  0  0  0  0
  1  4  1  0  0  0  0
  1 12  1  0  0  0  0
  2  6  1  0  0  0  0
  3  4  1  0  0  0  0
  3  5  2  0  0  0  0
  5  6  1  0  0  0  0
  5  9  1  0  0  0  0
  6  7  2  0  0  0  0
  7  8  1  0  0  0  0
  7 10  1  0  0  0  0
  8  9  2  0  0  0  0
 10 14  1  0  0  0  0
 11 12  1  0  0  0  0
 11 24  1  0  0  0  0
 11 27  1  0  0  0  0
 12 13  2  0  0  0  0
 14 15  2  0  0  0  0
 14 19  1  0  0  0  0
 15 16  1  0  0  0  0
 16 17  2  0  0  0  0
 16 20  1  0  0  0  0
 17 18  1  0  0  0  0
 17 22  1  0  0  0  0
 18 19  2  0  0  0  0
 20 21  2  0  0  0  0
 21 22  1  0  0  0  0
 22 23  1  0  0  0  0
 24 25  1  0  0  0  0
 25 26  1  0  0  0  0
 25 28  1  0  0  0  0
 26 27  1  0  0  0  0
  2 29  1  0  0  0  0
  3 30  1  0  0  0  0
  4 31  1  0  0  0  0
  4 32  1  0  0  0  0
 10 33  1  0  0  0  0
 10 34  1  0  0  0  0
 15 35  1  0  0  0  0
 18 36  1  0  0  0  0
 19 37  1  0  0  0  0
 20 38  1  0  0  0  0
 23 39  1  0  0  0  0
 23 40  1  0  0  0  0
 23 41  1  0  0  0  0
 24 42  1  0  0  0  0
 24 43  1  0  0  0  0
 25 44  1  0  0  0  0
 26 45  1  0  0  0  0
 26 46  1  0  0  0  0
 27 47  1  0  0  0  0
 27 48  1  0  0  0  0
 28 49  1  0  0  0  0
M  END
> <Name>
42

> <IC50[uM]>
0.004

$$$$
42
  -OEChem-05192314333D
 Structure written by MMmdl.
 49 53  0     1  0  0  0  0  0999 V2000
   -6.3691   12.3596  -12.0090 C   0  0  0  0  0  0  0  0  0  0  0  0
   -6.5082   11.8040  -10.7325 C   0  0  0  0  0  0  0  0  0  0  0  0
   -7.7289   10.5800  -13.0272 C   0  0  0  0  0  0  0  0  0  0  0  0
   -6.9931   11.7723  -13.1223 C   0  0  0  0  0  0  0  0  0  0  0  0
   -7.8208   10.0120  -11.7545 C   0  0  0  0  0  0  0  0  0  0  0  0
   -7.2366   10.6190  -10.6002 C   0  0  0  0  0  0  0  0  0  0  0  0
   -7.6071    9.7463   -9.5106 C   0  0  0  0  0  0  0  0  0  0  0  0
   -8.2820    8.7349   -9.9857 N   0  0  0  0  0  0  0  0  0  0  0  0
   -8.4162    8.8630  -11.2985 N   0  0  0  0  0  0  0  0  0  0  0  0
   -7.3216    9.8824   -8.0245 C   0  0  0  0  0  0  0  0  0  0  0  0
   -4.3612   13.7214  -11.5083 N   0  0  0  0  0  0  0  0  0  0  0  0
   -5.5493   13.6373  -12.1980 C   0  0  0  0  0  0  0  0  0  0  0  0
   -5.9470   14.5254  -12.9531 O   0  0  0  0  0  0  0  0  0  0  0  0
   -5.9509   10.4995   -7.7283 C   0  0  0  0  0  0  0  0  0  0  0  0
   -5.8798   11.7709   -7.1545 C   0  0  0  0  0  0  0  0  0  0  0  0
   -4.6121   12.3149   -6.9130 C   0  0  0  0  0  0  0  0  0  0  0  0
   -3.4406   11.5618   -7.2441 C   0  0  0  0  0  0  0  0  0  0  0  0
   -3.5052   10.2836   -7.8087 C   0  0  0  0  0  0  0  0  0  0  0  0
   -4.7939    9.7786   -8.0440 C   0  0  0  0  0  0  0  0  0  0  0  0
   -4.0930   13.5444   -6.3685 C   0  0  0  0  0  0  0  0  0  0  0  0
   -2.7888   13.5284   -6.3764 N   0  0  0  0  0  0  0  0  0  0  0  0
   -2.3823   12.3688   -6.8823 N   0  0  0  0  0  0  0  0  0  0  0  0
   -0.9528   12.1034   -6.9863 C   0  0  0  0  0  0  0  0  0  0  0  0
   -3.7146   12.5761  -10.8355 C   0  0  0  0  0  0  0  0  0  0  0  0
   -2.2074   12.9376  -10.9559 C   0  0  2  0  0  0  0  0  0  0  0  0
   -2.1889   14.4652  -10.9572 C   0  0  0  0  0  0  0  0  0  0  0  0
   -3.5166   14.9141  -11.6000 C   0  0  0  0  0  0  0  0  0  0  0  0
   -1.6730   12.4527  -12.1791 O   0  0  0  0  0  0  0  0  0  0  0  0
   -5.4953   11.6077  -10.3509 H   0  0  0  0  0  0  0  0  0  0  0  0
   -6.9981   12.5594  -10.1005 H   0  0  0  0  0  0  0  0  0  0  0  0
   -8.1971   10.1280  -13.8891 H   0  0  0  0  0  0  0  0  0  0  0  0
   -6.9038   12.2545  -14.0846 H   0  0  0  0  0  0  0  0  0  0  0  0
   -8.0970   10.5211   -7.5764 H   0  0  0  0  0  0  0  0  0  0  0  0
   -7.3611    8.8825   -7.5677 H   0  0  0  0  0  0  0  0  0  0  0  0
   -6.7764   12.3186   -6.9043 H   0  0  0  0  0  0  0  0  0  0  0  0
   -2.6166    9.7188   -8.0493 H   0  0  0  0  0  0  0  0  0  0  0  0
   -4.8960    8.7979   -8.4848 H   0  0  0  0  0  0  0  0  0  0  0  0
   -4.6978   14.3623   -6.0057 H   0  0  0  0  0  0  0  0  0  0  0  0
   -0.3901   12.9669   -6.6019 H   0  0  0  0  0  0  0  0  0  0  0  0
   -0.7019   11.2100   -6.3955 H   0  0  0  0  0  0  0  0  0  0  0  0
   -0.6874   11.9326   -8.0401 H   0  0  0  0  0  0  0  0  0  0  0  0
   -4.0252   12.5039   -9.7827 H   0  0  0  0  0  0  0  0  0  0  0  0
   -3.9410   11.6307  -11.3502 H   0  0  0  0  0  0  0  0  0  0  0  0
   -1.6579   12.5499  -10.0854 H   0  0  0  0  0  0  0  0  0  0  0  0
   -2.1163   14.8460   -9.9278 H   0  0  0  0  0  0  0  0  0  0  0  0
   -1.3366   14.8352  -11.5459 H   0  0  0  0  0  0  0  0  0  0  0  0
   -3.3656   15.2093  -12.6488 H   0  0  0  0  0  0  0  0  0  0  0  0
   -3.9592   15.7531  -11.0430 H   0  0  0  0  0  0  0  0  0  0  0  0
   -0.7528   12.6819  -12.2362 H   0  0  0  0  0  0  0  0  0  0  0  0
  1  2  1  0  0  0  0
  1  4  2  0  0  0  0
  1 12  1  0  0  0  0
  2  6  1  0  0  0  0
  3  4  1  0  0  0  0
  3  5  2  0  0  0  0
  5  6  1  0  0  0  0
  5  9  1  0  0  0  0
  6  7  2  0  0  0  0
  7  8  1  0  0  0  0
  7 10  1  0  0  0  0
  8  9  2  0  0  0  0
 10 14  1  0  0  0  0
 11 12  1  0  0  0  0
 11 24  1  0  0  0  0
 11 27  1  0  0  0  0
 12 13  2  0  0  0  0
 14 15  2  0  0  0  0
 14 19  1  0  0  0  0
 15 16  1  0  0  0  0
 16 17  2  0  0  0  0
 16 20  1  0  0  0  0
 17 18  1  0  0  0  0
 17 22  1  0  0  0  0
 18 19  2  0  0  0  0
 20 21  2  0  0  0  0
 21 22  1  0  0  0  0
 22 23  1  0  0  0  0
 24 25  1  0  0  0  0
 25 26  1  0  0  0  0
 25 28  1  0  0  0  0
 26 27  1  0  0  0  0
  2 29  1  0  0  0  0
  2 30  1  0  0  0  0
  3 31  1  0  0  0  0
  4 32  1  0  0  0  0
 10 33  1  0  0  0  0
 10 34  1  0  0  0  0
 15 35  1  0  0  0  0
 18 36  1  0  0  0  0
 19 37  1  0  0  0  0
 20 38  1  0  0  0  0
 23 39  1  0  0  0  0
 23 40  1  0  0  0  0
 23 41  1  0  0  0  0
 24 42  1  0  0  0  0
 24 43  1  0  0  0  0
 25 44  1  0  0  0  0
 26 45  1  0  0  0  0
 26 46  1  0  0  0  0
 27 47  1  0  0  0  0
 27 48  1  0  0  0  0
 28 49  1  0  0  0  0
M  END
> <Name>
42

> <IC50[uM]>
0.004

$$$$
42
  -OEChem-05192314333D
 Structure written by MMmdl.
 49 53  0     1  0  0  0  0  0999 V2000
   -6.3691   12.3596  -12.0090 C   0  0  0  0  0  0  0  0  0  0  0  0
   -6.5082   11.8040  -10.7325 C   0  0  0  0  0  0  0  0  0  0  0  0
   -7.7289   10.5800  -13.0272 C   0  0  0  0  0  0  0  0  0  0  0  0
   -6.9931   11.7723  -13.1223 C   0  0  0  0  0  0  0  0  0  0  0  0
   -7.8208   10.0120  -11.7545 C   0  0  0  0  0  0  0  0  0  0  0  0
   -7.2366   10.6190  -10.6002 C   0  0  0  0  0  0  0  0  0  0  0  0
   -7.6071    9.7463   -9.5106 C   0  0  0  0  0  0  0  0  0  0  0  0
   -8.2820    8.7349   -9.9857 N   0  0  0  0  0  0  0  0  0  0  0  0
   -8.4162    8.8630  -11.2985 N   0  0  0  0  0  0  0  0  0  0  0  0
   -7.3216    9.8824   -8.0245 C   0  0  0  0  0  0  0  0  0  0  0  0
   -4.3612   13.7214  -11.5083 N   0  0  0  0  0  0  0  0  0  0  0  0
   -5.5493   13.6373  -12.1980 C   0  0  0  0  0  0  0  0  0  0  0  0
   -5.9470   14.5254  -12.9531 O   0  0  0  0  0  0  0  0  0  0  0  0
   -5.9509   10.4995   -7.7283 C   0  0  0  0  0  0  0  0  0  0  0  0
   -5.8798   11.7709   -7.1545 C   0  0  0  0  0  0  0  0  0  0  0  0
   -4.6121   12.3149   -6.9130 C   0  0  0  0  0  0  0  0  0  0  0  0
   -3.4406   11.5618   -7.2441 C   0  0  0  0  0  0  0  0  0  0  0  0
   -3.5052   10.2836   -7.8087 C   0  0  0  0  0  0  0  0  0  0  0  0
   -4.7939    9.7786   -8.0440 C   0  0  0  0  0  0  0  0  0  0  0  0
   -4.0930   13.5444   -6.3685 C   0  0  0  0  0  0  0  0  0  0  0  0
   -2.7888   13.5284   -6.3764 N   0  0  0  0  0  0  0  0  0  0  0  0
   -2.3823   12.3688   -6.8823 N   0  0  0  0  0  0  0  0  0  0  0  0
   -0.9528   12.1034   -6.9863 C   0  0  0  0  0  0  0  0  0  0  0  0
   -3.7146   12.5761  -10.8355 C   0  0  0  0  0  0  0  0  0  0  0  0
   -2.2074   12.9376  -10.9559 C   0  0  2  0  0  0  0  0  0  0  0  0
   -2.1889   14.4652  -10.9572 C   0  0  0  0  0  0  0  0  0  0  0  0
   -3.5166   14.9141  -11.6000 C   0  0  0  0  0  0  0  0  0  0  0  0
   -1.6730   12.4527  -12.1791 O   0  0  0  0  0  0  0  0  0  0  0  0
   -6.0635   12.2793   -9.8707 H   0  0  0  0  0  0  0  0  0  0  0  0
   -8.1971   10.1280  -13.8891 H   0  0  0  0  0  0  0  0  0  0  0  0
   -6.9038   12.2545  -14.0846 H   0  0  0  0  0  0  0  0  0  0  0  0
   -6.3176   10.0352  -10.7569 H   0  0  0  0  0  0  0  0  0  0  0  0
   -8.6433    7.9777   -9.4415 H   0  0  0  0  0  0  0  0  0  0  0  0
   -8.0145    9.5753   -7.2551 H   0  0  0  0  0  0  0  0  0  0  0  0
   -6.7764   12.3186   -6.9043 H   0  0  0  0  0  0  0  0  0  0  0  0
   -2.6166    9.7188   -8.0493 H   0  0  0  0  0  0  0  0  0  0  0  0
   -4.8960    8.7979   -8.4848 H   0  0  0  0  0  0  0  0  0  0  0  0
   -4.6978   14.3623   -6.0057 H   0  0  0  0  0  0  0  0  0  0  0  0
   -0.3901   12.9669   -6.6019 H   0  0  0  0  0  0  0  0  0  0  0  0
   -0.7019   11.2100   -6.3955 H   0  0  0  0  0  0  0  0  0  0  0  0
   -0.6874   11.9326   -8.0401 H   0  0  0  0  0  0  0  0  0  0  0  0
   -4.0252   12.5039   -9.7827 H   0  0  0  0  0  0  0  0  0  0  0  0
   -3.9410   11.6307  -11.3502 H   0  0  0  0  0  0  0  0  0  0  0  0
   -1.6579   12.5499  -10.0854 H   0  0  0  0  0  0  0  0  0  0  0  0
   -2.1163   14.8460   -9.9278 H   0  0  0  0  0  0  0  0  0  0  0  0
   -1.3366   14.8352  -11.5459 H   0  0  0  0  0  0  0  0  0  0  0  0
   -3.3656   15.2093  -12.6488 H   0  0  0  0  0  0  0  0  0  0  0  0
   -3.9592   15.7531  -11.0430 H   0  0  0  0  0  0  0  0  0  0  0  0
   -0.7528   12.6819  -12.2362 H   0  0  0  0  0  0  0  0  0  0  0  0
  1  2  2  0  0  0  0
  1  4  1  0  0  0  0
  1 12  1  0  0  0  0
  2  6  1  0  0  0  0
  3  4  2  0  0  0  0
  3  5  1  0  0  0  0
  5  6  1  0  0  0  0
  5  9  2  0  0  0  0
  6  7  1  0  0  0  0
  7  8  1  0  0  0  0
  7 10  2  0  0  0  0
  8  9  1  0  0  0  0
 10 14  1  0  0  0  0
 11 12  1  0  0  0  0
 11 24  1  0  0  0  0
 11 27  1  0  0  0  0
 12 13  2  0  0  0  0
 14 15  2  0  0  0  0
 14 19  1  0  0  0  0
 15 16  1  0  0  0  0
 16 17  2  0  0  0  0
 16 20  1  0  0  0  0
 17 18  1  0  0  0  0
 17 22  1  0  0  0  0
 18 19  2  0  0  0  0
 20 21  2  0  0  0  0
 21 22  1  0  0  0  0
 22 23  1  0  0  0  0
 24 25  1  0  0  0  0
 25 26  1  0  0  0  0
 25 28  1  0  0  0  0
 26 27  1  0  0  0  0
  2 29  1  0  0  0  0
  3 30  1  0  0  0  0
  4 31  1  0  0  0  0
  6 32  1  0  0  0  0
  8 33  1  0  0  0  0
 10 34  1  0  0  0  0
 15 35  1  0  0  0  0
 18 36  1  0  0  0  0
 19 37  1  0  0  0  0
 20 38  1  0  0  0  0
 23 39  1  0  0  0  0
 23 40  1  0  0  0  0
 23 41  1  0  0  0  0
 24 42  1  0  0  0  0
 24 43  1  0  0  0  0
 25 44  1  0  0  0  0
 26 45  1  0  0  0  0
 26 46  1  0  0  0  0
 27 47  1  0  0  0  0
 27 48  1  0  0  0  0
 28 49  1  0  0  0  0
M  END
> <Name>
42

> <IC50[uM]>
0.004

$$$$
42
  -OEChem-05192314333D
 Structure written by MMmdl.
 49 53  0     1  0  0  0  0  0999 V2000
   -6.3691   12.3596  -12.0090 C   0  0  0  0  0  0  0  0  0  0  0  0
   -6.5082   11.8040  -10.7325 C   0  0  0  0  0  0  0  0  0  0  0  0
   -7.7289   10.5800  -13.0272 C   0  0  0  0  0  0  0  0  0  0  0  0
   -6.9931   11.7723  -13.1223 C   0  0  0  0  0  0  0  0  0  0  0  0
   -7.8208   10.0120  -11.7545 C   0  0  0  0  0  0  0  0  0  0  0  0
   -7.2366   10.6190  -10.6002 C   0  0  0  0  0  0  0  0  0  0  0  0
   -7.6071    9.7463   -9.5106 C   0  0  0  0  0  0  0  0  0  0  0  0
   -8.2820    8.7349   -9.9857 N   0  0  0  0  0  0  0  0  0  0  0  0
   -8.4162    8.8630  -11.2985 N   0  0  0  0  0  0  0  0  0  0  0  0
   -7.3216    9.8824   -8.0245 C   0  0  0  0  0  0  0  0  0  0  0  0
   -4.3612   13.7214  -11.5083 N   0  0  0  0  0  0  0  0  0  0  0  0
   -5.5493   13.6373  -12.1980 C   0  0  0  0  0  0  0  0  0  0  0  0
   -5.9470   14.5254  -12.9531 O   0  0  0  0  0  0  0  0  0  0  0  0
   -5.9509   10.4995   -7.7283 C   0  0  0  0  0  0  0  0  0  0  0  0
   -5.8798   11.7709   -7.1545 C   0  0  0  0  0  0  0  0  0  0  0  0
   -4.6121   12.3149   -6.9130 C   0  0  0  0  0  0  0  0  0  0  0  0
   -3.4406   11.5618   -7.2441 C   0  0  0  0  0  0  0  0  0  0  0  0
   -3.5052   10.2836   -7.8087 C   0  0  0  0  0  0  0  0  0  0  0  0
   -4.7939    9.7786   -8.0440 C   0  0  0  0  0  0  0  0  0  0  0  0
   -4.0930   13.5444   -6.3685 C   0  0  0  0  0  0  0  0  0  0  0  0
   -2.7888   13.5284   -6.3764 N   0  0  0  0  0  0  0  0  0  0  0  0
   -2.3823   12.3688   -6.8823 N   0  0  0  0  0  0  0  0  0  0  0  0
   -0.9528   12.1034   -6.9863 C   0  0  0  0  0  0  0  0  0  0  0  0
   -3.7146   12.5761  -10.8355 C   0  0  0  0  0  0  0  0  0  0  0  0
   -2.2074   12.9376  -10.9559 C   0  0  2  0  0  0  0  0  0  0  0  0
   -2.1889   14.4652  -10.9572 C   0  0  0  0  0  0  0  0  0  0  0  0
   -3.5166   14.9141  -11.6000 C   0  0  0  0  0  0  0  0  0  0  0  0
   -1.6730   12.4527  -12.1791 O   0  0  0  0  0  0  0  0  0  0  0  0
   -6.0635   12.2793   -9.8707 H   0  0  0  0  0  0  0  0  0  0  0  0
   -8.1971   10.1280  -13.8891 H   0  0  0  0  0  0  0  0  0  0  0  0
   -6.9038   12.2545  -14.0846 H   0  0  0  0  0  0  0  0  0  0  0  0
   -8.6433    7.9777   -9.4415 H   0  0  0  0  0  0  0  0  0  0  0  0
   -8.0145    9.5753   -7.2551 H   0  0  0  0  0  0  0  0  0  0  0  0
   -6.7764   12.3186   -6.9043 H   0  0  0  0  0  0  0  0  0  0  0  0
   -3.4375   12.0070   -8.2500 H   0  0  0  0  0  0  0  0  0  0  0  0
   -2.6166    9.7188   -8.0493 H   0  0  0  0  0  0  0  0  0  0  0  0
   -4.8960    8.7979   -8.4848 H   0  0  0  0  0  0  0  0  0  0  0  0
   -4.6978   14.3623   -6.0057 H   0  0  0  0  0  0  0  0  0  0  0  0
   -0.3901   12.9669   -6.6019 H   0  0  0  0  0  0  0  0  0  0  0  0
   -0.7019   11.2100   -6.3955 H   0  0  0  0  0  0  0  0  0  0  0  0
   -0.6874   11.9326   -8.0401 H   0  0  0  0  0  0  0  0  0  0  0  0
   -4.0252   12.5039   -9.7827 H   0  0  0  0  0  0  0  0  0  0  0  0
   -3.9410   11.6307  -11.3502 H   0  0  0  0  0  0  0  0  0  0  0  0
   -1.6579   12.5499  -10.0854 H   0  0  0  0  0  0  0  0  0  0  0  0
   -2.1163   14.8460   -9.9278 H   0  0  0  0  0  0  0  0  0  0  0  0
   -1.3366   14.8352  -11.5459 H   0  0  0  0  0  0  0  0  0  0  0  0
   -3.3656   15.2093  -12.6488 H   0  0  0  0  0  0  0  0  0  0  0  0
   -3.9592   15.7531  -11.0430 H   0  0  0  0  0  0  0  0  0  0  0  0
   -0.7528   12.6819  -12.2362 H   0  0  0  0  0  0  0  0  0  0  0  0
  1  2  2  0  0  0  0
  1  4  1  0  0  0  0
  1 12  1  0  0  0  0
  2  6  1  0  0  0  0
  3  4  2  0  0  0  0
  3  5  1  0  0  0  0
  5  6  1  0  0  0  0
  5  9  2  0  0  0  0
  6  7  2  0  0  0  0
  7  8  1  0  0  0  0
  7 10  1  0  0  0  0
  8  9  1  0  0  0  0
 10 14  2  0  0  0  0
 11 12  1  0  0  0  0
 11 24  1  0  0  0  0
 11 27  1  0  0  0  0
 12 13  2  0  0  0  0
 14 15  1  0  0  0  0
 14 19  1  0  0  0  0
 15 16  2  0  0  0  0
 16 17  1  0  0  0  0
 16 20  1  0  0  0  0
 17 18  1  0  0  0  0
 17 22  1  0  0  0  0
 18 19  2  0  0  0  0
 20 21  2  0  0  0  0
 21 22  1  0  0  0  0
 22 23  1  0  0  0  0
 24 25  1  0  0  0  0
 25 26  1  0  0  0  0
 25 28  1  0  0  0  0
 26 27  1  0  0  0  0
  2 29  1  0  0  0  0
  3 30  1  0  0  0  0
  4 31  1  0  0  0  0
  8 32  1  0  0  0  0
 10 33  1  0  0  0  0
 15 34  1  0  0  0  0
 17 35  1  0  0  0  0
 18 36  1  0  0  0  0
 19 37  1  0  0  0  0
 20 38  1  0  0  0  0
 23 39  1  0  0  0  0
 23 40  1  0  0  0  0
 23 41  1  0  0  0  0
 24 42  1  0  0  0  0
 24 43  1  0  0  0  0
 25 44  1  0  0  0  0
 26 45  1  0  0  0  0
 26 46  1  0  0  0  0
 27 47  1  0  0  0  0
 27 48  1  0  0  0  0
 28 49  1  0  0  0  0
M  END
> <Name>
42

> <IC50[uM]>
0.004

$$$$
42
  -OEChem-05192314333D
 Structure written by MMmdl.
 49 53  0     1  0  0  0  0  0999 V2000
   -6.3691   12.3596  -12.0090 C   0  0  0  0  0  0  0  0  0  0  0  0
   -6.5082   11.8040  -10.7325 C   0  0  0  0  0  0  0  0  0  0  0  0
   -7.7289   10.5800  -13.0272 C   0  0  0  0  0  0  0  0  0  0  0  0
   -6.9931   11.7723  -13.1223 C   0  0  0  0  0  0  0  0  0  0  0  0
   -7.8208   10.0120  -11.7545 C   0  0  0  0  0  0  0  0  0  0  0  0
   -7.2366   10.6190  -10.6002 C   0  0  0  0  0  0  0  0  0  0  0  0
   -7.6071    9.7463   -9.5106 C   0  0  0  0  0  0  0  0  0  0  0  0
   -8.2820    8.7349   -9.9857 N   0  0  0  0  0  0  0  0  0  0  0  0
   -8.4162    8.8630  -11.2985 N   0  0  0  0  0  0  0  0  0  0  0  0
   -7.3216    9.8824   -8.0245 C   0  0  0  0  0  0  0  0  0  0  0  0
   -4.3612   13.7214  -11.5083 N   0  0  0  0  0  0  0  0  0  0  0  0
   -5.5493   13.6373  -12.1980 C   0  0  0  0  0  0  0  0  0  0  0  0
   -5.9470   14.5254  -12.9531 O   0  0  0  0  0  0  0  0  0  0  0  0
   -5.9509   10.4995   -7.7283 C   0  0  0  0  0  0  0  0  0  0  0  0
   -5.8798   11.7709   -7.1545 C   0  0  0  0  0  0  0  0  0  0  0  0
   -4.6121   12.3149   -6.9130 C   0  0  0  0  0  0  0  0  0  0  0  0
   -3.4406   11.5618   -7.2441 C   0  0  0  0  0  0  0  0  0  0  0  0
   -3.5052   10.2836   -7.8087 C   0  0  0  0  0  0  0  0  0  0  0  0
   -4.7939    9.7786   -8.0440 C   0  0  0  0  0  0  0  0  0  0  0  0
   -4.0930   13.5444   -6.3685 C   0  0  0  0  0  0  0  0  0  0  0  0
   -2.7888   13.5284   -6.3764 N   0  0  0  0  0  0  0  0  0  0  0  0
   -2.3823   12.3688   -6.8823 N   0  0  0  0  0  0  0  0  0  0  0  0
   -0.9528   12.1034   -6.9863 C   0  0  0  0  0  0  0  0  0  0  0  0
   -3.7146   12.5761  -10.8355 C   0  0  0  0  0  0  0  0  0  0  0  0
   -2.2074   12.9376  -10.9559 C   0  0  2  0  0  0  0  0  0  0  0  0
   -2.1889   14.4652  -10.9572 C   0  0  0  0  0  0  0  0  0  0  0  0
   -3.5166   14.9141  -11.6000 C   0  0  0  0  0  0  0  0  0  0  0  0
   -1.6730   12.4527  -12.1791 O   0  0  0  0  0  0  0  0  0  0  0  0
   -6.0635   12.2793   -9.8707 H   0  0  0  0  0  0  0  0  0  0  0  0
   -8.1971   10.1280  -13.8891 H   0  0  0  0  0  0  0  0  0  0  0  0
   -6.9038   12.2545  -14.0846 H   0  0  0  0  0  0  0  0  0  0  0  0
   -8.8915    8.2051  -11.8827 H   0  0  0  0  0  0  0  0  0  0  0  0
   -8.0145    9.5753   -7.2551 H   0  0  0  0  0  0  0  0  0  0  0  0
   -6.7764   12.3186   -6.9043 H   0  0  0  0  0  0  0  0  0  0  0  0
   -3.4375   12.0070   -8.2500 H   0  0  0  0  0  0  0  0  0  0  0  0
   -2.6166    9.7188   -8.0493 H   0  0  0  0  0  0  0  0  0  0  0  0
   -4.8960    8.7979   -8.4848 H   0  0  0  0  0  0  0  0  0  0  0  0
   -4.6978   14.3623   -6.0057 H   0  0  0  0  0  0  0  0  0  0  0  0
   -0.3901   12.9669   -6.6019 H   0  0  0  0  0  0  0  0  0  0  0  0
   -0.7019   11.2100   -6.3955 H   0  0  0  0  0  0  0  0  0  0  0  0
   -0.6874   11.9326   -8.0401 H   0  0  0  0  0  0  0  0  0  0  0  0
   -4.0252   12.5039   -9.7827 H   0  0  0  0  0  0  0  0  0  0  0  0
   -3.9410   11.6307  -11.3502 H   0  0  0  0  0  0  0  0  0  0  0  0
   -1.6579   12.5499  -10.0854 H   0  0  0  0  0  0  0  0  0  0  0  0
   -2.1163   14.8460   -9.9278 H   0  0  0  0  0  0  0  0  0  0  0  0
   -1.3366   14.8352  -11.5459 H   0  0  0  0  0  0  0  0  0  0  0  0
   -3.3656   15.2093  -12.6488 H   0  0  0  0  0  0  0  0  0  0  0  0
   -3.9592   15.7531  -11.0430 H   0  0  0  0  0  0  0  0  0  0  0  0
   -0.7528   12.6819  -12.2362 H   0  0  0  0  0  0  0  0  0  0  0  0
  1  2  2  0  0  0  0
  1  4  1  0  0  0  0
  1 12  1  0  0  0  0
  2  6  1  0  0  0  0
  3  4  2  0  0  0  0
  3  5  1  0  0  0  0
  5  6  2  0  0  0  0
  5  9  1  0  0  0  0
  6  7  1  0  0  0  0
  7  8  2  0  0  0  0
  7 10  1  0  0  0  0
  8  9  1  0  0  0  0
 10 14  2  0  0  0  0
 11 12  1  0  0  0  0
 11 24  1  0  0  0  0
 11 27  1  0  0  0  0
 12 13  2  0  0  0  0
 14 15  1  0  0  0  0
 14 19  1  0  0  0  0
 15 16  2  0  0  0  0
 16 17  1  0  0  0  0
 16 20  1  0  0  0  0
 17 18  1  0  0  0  0
 17 22  1  0  0  0  0
 18 19  2  0  0  0  0
 20 21  2  0  0  0  0
 21 22  1  0  0  0  0
 22 23  1  0  0  0  0
 24 25  1  0  0  0  0
 25 26  1  0  0  0  0
 25 28  1  0  0  0  0
 26 27  1  0  0  0  0
  2 29  1  0  0  0  0
  3 30  1  0  0  0  0
  4 31  1  0  0  0  0
  9 32  1  0  0  0  0
 10 33  1  0  0  0  0
 15 34  1  0  0  0  0
 17 35  1  0  0  0  0
 18 36  1  0  0  0  0
 19 37  1  0  0  0  0
 20 38  1  0  0  0  0
 23 39  1  0  0  0  0
 23 40  1  0  0  0  0
 23 41  1  0  0  0  0
 24 42  1  0  0  0  0
 24 43  1  0  0  0  0
 25 44  1  0  0  0  0
 26 45  1  0  0  0  0
 26 46  1  0  0  0  0
 27 47  1  0  0  0  0
 27 48  1  0  0  0  0
 28 49  1  0  0  0  0
M  END
> <Name>
42

> <IC50[uM]>
0.004

$$$$
42
  -OEChem-05192314333D
 Structure written by MMmdl.
 49 53  0     1  0  0  0  0  0999 V2000
   -6.3691   12.3596  -12.0090 C   0  0  0  0  0  0  0  0  0  0  0  0
   -6.5082   11.8040  -10.7325 C   0  0  0  0  0  0  0  0  0  0  0  0
   -7.7289   10.5800  -13.0272 C   0  0  0  0  0  0  0  0  0  0  0  0
   -6.9931   11.7723  -13.1223 C   0  0  0  0  0  0  0  0  0  0  0  0
   -7.8208   10.0120  -11.7545 C   0  0  0  0  0  0  0  0  0  0  0  0
   -7.2366   10.6190  -10.6002 C   0  0  0  0  0  0  0  0  0  0  0  0
   -7.6071    9.7463   -9.5106 C   0  0  0  0  0  0  0  0  0  0  0  0
   -8.2820    8.7349   -9.9857 N   0  0  0  0  0  0  0  0  0  0  0  0
   -8.4162    8.8630  -11.2985 N   0  0  0  0  0  0  0  0  0  0  0  0
   -7.3216    9.8824   -8.0245 C   0  0  0  0  0  0  0  0  0  0  0  0
   -4.3612   13.7214  -11.5083 N   0  0  0  0  0  0  0  0  0  0  0  0
   -5.5493   13.6373  -12.1980 C   0  0  0  0  0  0  0  0  0  0  0  0
   -5.9470   14.5254  -12.9531 O   0  0  0  0  0  0  0  0  0  0  0  0
   -5.9509   10.4995   -7.7283 C   0  0  0  0  0  0  0  0  0  0  0  0
   -5.8798   11.7709   -7.1545 C   0  0  0  0  0  0  0  0  0  0  0  0
   -4.6121   12.3149   -6.9130 C   0  0  0  0  0  0  0  0  0  0  0  0
   -3.4406   11.5618   -7.2441 C   0  0  0  0  0  0  0  0  0  0  0  0
   -3.5052   10.2836   -7.8087 C   0  0  0  0  0  0  0  0  0  0  0  0
   -4.7939    9.7786   -8.0440 C   0  0  0  0  0  0  0  0  0  0  0  0
   -4.0930   13.5444   -6.3685 C   0  0  0  0  0  0  0  0  0  0  0  0
   -2.7888   13.5284   -6.3764 N   0  0  0  0  0  0  0  0  0  0  0  0
   -2.3823   12.3688   -6.8823 N   0  0  0  0  0  0  0  0  0  0  0  0
   -0.9528   12.1034   -6.9863 C   0  0  0  0  0  0  0  0  0  0  0  0
   -3.7146   12.5761  -10.8355 C   0  0  0  0  0  0  0  0  0  0  0  0
   -2.2074   12.9376  -10.9559 C   0  0  2  0  0  0  0  0  0  0  0  0
   -2.1889   14.4652  -10.9572 C   0  0  0  0  0  0  0  0  0  0  0  0
   -3.5166   14.9141  -11.6000 C   0  0  0  0  0  0  0  0  0  0  0  0
   -1.6730   12.4527  -12.1791 O   0  0  0  0  0  0  0  0  0  0  0  0
   -6.0635   12.2793   -9.8707 H   0  0  0  0  0  0  0  0  0  0  0  0
   -8.1971   10.1280  -13.8891 H   0  0  0  0  0  0  0  0  0  0  0  0
   -6.9038   12.2545  -14.0846 H   0  0  0  0  0  0  0  0  0  0  0  0
   -8.0145    9.5753   -7.2551 H   0  0  0  0  0  0  0  0  0  0  0  0
   -5.9618   10.0461   -6.7261 H   0  0  0  0  0  0  0  0  0  0  0  0
   -6.7764   12.3186   -6.9043 H   0  0  0  0  0  0  0  0  0  0  0  0
   -3.4375   12.0070   -8.2500 H   0  0  0  0  0  0  0  0  0  0  0  0
   -2.6166    9.7188   -8.0493 H   0  0  0  0  0  0  0  0  0  0  0  0
   -4.8960    8.7979   -8.4848 H   0  0  0  0  0  0  0  0  0  0  0  0
   -4.6978   14.3623   -6.0057 H   0  0  0  0  0  0  0  0  0  0  0  0
   -0.3901   12.9669   -6.6019 H   0  0  0  0  0  0  0  0  0  0  0  0
   -0.7019   11.2100   -6.3955 H   0  0  0  0  0  0  0  0  0  0  0  0
   -0.6874   11.9326   -8.0401 H   0  0  0  0  0  0  0  0  0  0  0  0
   -4.0252   12.5039   -9.7827 H   0  0  0  0  0  0  0  0  0  0  0  0
   -3.9410   11.6307  -11.3502 H   0  0  0  0  0  0  0  0  0  0  0  0
   -1.6579   12.5499  -10.0854 H   0  0  0  0  0  0  0  0  0  0  0  0
   -2.1163   14.8460   -9.9278 H   0  0  0  0  0  0  0  0  0  0  0  0
   -1.3366   14.8352  -11.5459 H   0  0  0  0  0  0  0  0  0  0  0  0
   -3.3656   15.2093  -12.6488 H   0  0  0  0  0  0  0  0  0  0  0  0
   -3.9592   15.7531  -11.0430 H   0  0  0  0  0  0  0  0  0  0  0  0
   -0.7528   12.6819  -12.2362 H   0  0  0  0  0  0  0  0  0  0  0  0
  1  2  2  0  0  0  0
  1  4  1  0  0  0  0
  1 12  1  0  0  0  0
  2  6  1  0  0  0  0
  3  4  2  0  0  0  0
  3  5  1  0  0  0  0
  5  6  2  0  0  0  0
  5  9  1  0  0  0  0
  6  7  1  0  0  0  0
  7  8  1  0  0  0  0
  7 10  2  0  0  0  0
  8  9  2  0  0  0  0
 10 14  1  0  0  0  0
 11 12  1  0  0  0  0
 11 24  1  0  0  0  0
 11 27  1  0  0  0  0
 12 13  2  0  0  0  0
 14 15  1  0  0  0  0
 14 19  1  0  0  0  0
 15 16  2  0  0  0  0
 16 17  1  0  0  0  0
 16 20  1  0  0  0  0
 17 18  1  0  0  0  0
 17 22  1  0  0  0  0
 18 19  2  0  0  0  0
 20 21  2  0  0  0  0
 21 22  1  0  0  0  0
 22 23  1  0  0  0  0
 24 25  1  0  0  0  0
 25 26  1  0  0  0  0
 25 28  1  0  0  0  0
 26 27  1  0  0  0  0
  2 29  1  0  0  0  0
  3 30  1  0  0  0  0
  4 31  1  0  0  0  0
 10 32  1  0  0  0  0
 14 33  1  0  0  0  0
 15 34  1  0  0  0  0
 17 35  1  0  0  0  0
 18 36  1  0  0  0  0
 19 37  1  0  0  0  0
 20 38  1  0  0  0  0
 23 39  1  0  0  0  0
 23 40  1  0  0  0  0
 23 41  1  0  0  0  0
 24 42  1  0  0  0  0
 24 43  1  0  0  0  0
 25 44  1  0  0  0  0
 26 45  1  0  0  0  0
 26 46  1  0  0  0  0
 27 47  1  0  0  0  0
 27 48  1  0  0  0  0
 28 49  1  0  0  0  0
M  END
> <Name>
42

> <IC50[uM]>
0.004

$$$$
42
  -OEChem-05192314333D
 Structure written by MMmdl.
 49 53  0     1  0  0  0  0  0999 V2000
   -6.3691   12.3596  -12.0090 C   0  0  0  0  0  0  0  0  0  0  0  0
   -6.5082   11.8040  -10.7325 C   0  0  0  0  0  0  0  0  0  0  0  0
   -7.7289   10.5800  -13.0272 C   0  0  0  0  0  0  0  0  0  0  0  0
   -6.9931   11.7723  -13.1223 C   0  0  0  0  0  0  0  0  0  0  0  0
   -7.8208   10.0120  -11.7545 C   0  0  0  0  0  0  0  0  0  0  0  0
   -7.2366   10.6190  -10.6002 C   0  0  0  0  0  0  0  0  0  0  0  0
   -7.6071    9.7463   -9.5106 C   0  0  0  0  0  0  0  0  0  0  0  0
   -8.2820    8.7349   -9.9857 N   0  0  0  0  0  0  0  0  0  0  0  0
   -8.4162    8.8630  -11.2985 N   0  0  0  0  0  0  0  0  0  0  0  0
   -7.3216    9.8824   -8.0245 C   0  0  0  0  0  0  0  0  0  0  0  0
   -4.3612   13.7214  -11.5083 N   0  0  0  0  0  0  0  0  0  0  0  0
   -5.5493   13.6373  -12.1980 C   0  0  0  0  0  0  0  0  0  0  0  0
   -5.9470   14.5254  -12.9531 O   0  0  0  0  0  0  0  0  0  0  0  0
   -5.9509   10.4995   -7.7283 C   0  0  0  0  0  0  0  0  0  0  0  0
   -5.8798   11.7709   -7.1545 C   0  0  0  0  0  0  0  0  0  0  0  0
   -4.6121   12.3149   -6.9130 C   0  0  0  0  0  0  0  0  0  0  0  0
   -3.4406   11.5618   -7.2441 C   0  0  0  0  0  0  0  0  0  0  0  0
   -3.5052   10.2836   -7.8087 C   0  0  0  0  0  0  0  0  0  0  0  0
   -4.7939    9.7786   -8.0440 C   0  0  0  0  0  0  0  0  0  0  0  0
   -4.0930   13.5444   -6.3685 C   0  0  0  0  0  0  0  0  0  0  0  0
   -2.7888   13.5284   -6.3764 N   0  0  0  0  0  0  0  0  0  0  0  0
   -2.3823   12.3688   -6.8823 N   0  0  0  0  0  0  0  0  0  0  0  0
   -0.9528   12.1034   -6.9863 C   0  0  0  0  0  0  0  0  0  0  0  0
   -3.7146   12.5761  -10.8355 C   0  0  0  0  0  0  0  0  0  0  0  0
   -2.2074   12.9376  -10.9559 C   0  0  2  0  0  0  0  0  0  0  0  0
   -2.1889   14.4652  -10.9572 C   0  0  0  0  0  0  0  0  0  0  0  0
   -3.5166   14.9141  -11.6000 C   0  0  0  0  0  0  0  0  0  0  0  0
   -1.6730   12.4527  -12.1791 O   0  0  0  0  0  0  0  0  0  0  0  0
   -6.0635   12.2793   -9.8707 H   0  0  0  0  0  0  0  0  0  0  0  0
   -8.1971   10.1280  -13.8891 H   0  0  0  0  0  0  0  0  0  0  0  0
   -6.9038   12.2545  -14.0846 H   0  0  0  0  0  0  0  0  0  0  0  0
   -8.0145    9.5753   -7.2551 H   0  0  0  0  0  0  0  0  0  0  0  0
   -6.7764   12.3186   -6.9043 H   0  0  0  0  0  0  0  0  0  0  0  0
   -4.6109   12.7596   -7.9191 H   0  0  0  0  0  0  0  0  0  0  0  0
   -3.4375   12.0070   -8.2500 H   0  0  0  0  0  0  0  0  0  0  0  0
   -2.6166    9.7188   -8.0493 H   0  0  0  0  0  0  0  0  0  0  0  0
   -4.8960    8.7979   -8.4848 H   0  0  0  0  0  0  0  0  0  0  0  0
   -4.6978   14.3623   -6.0057 H   0  0  0  0  0  0  0  0  0  0  0  0
   -0.3901   12.9669   -6.6019 H   0  0  0  0  0  0  0  0  0  0  0  0
   -0.7019   11.2100   -6.3955 H   0  0  0  0  0  0  0  0  0  0  0  0
   -0.6874   11.9326   -8.0401 H   0  0  0  0  0  0  0  0  0  0  0  0
   -4.0252   12.5039   -9.7827 H   0  0  0  0  0  0  0  0  0  0  0  0
   -3.9410   11.6307  -11.3502 H   0  0  0  0  0  0  0  0  0  0  0  0
   -1.6579   12.5499  -10.0854 H   0  0  0  0  0  0  0  0  0  0  0  0
   -2.1163   14.8460   -9.9278 H   0  0  0  0  0  0  0  0  0  0  0  0
   -1.3366   14.8352  -11.5459 H   0  0  0  0  0  0  0  0  0  0  0  0
   -3.3656   15.2093  -12.6488 H   0  0  0  0  0  0  0  0  0  0  0  0
   -3.9592   15.7531  -11.0430 H   0  0  0  0  0  0  0  0  0  0  0  0
   -0.7528   12.6819  -12.2362 H   0  0  0  0  0  0  0  0  0  0  0  0
  1  2  2  0  0  0  0
  1  4  1  0  0  0  0
  1 12  1  0  0  0  0
  2  6  1  0  0  0  0
  3  4  2  0  0  0  0
  3  5  1  0  0  0  0
  5  6  2  0  0  0  0
  5  9  1  0  0  0  0
  6  7  1  0  0  0  0
  7  8  1  0  0  0  0
  7 10  2  0  0  0  0
  8  9  2  0  0  0  0
 10 14  1  0  0  0  0
 11 12  1  0  0  0  0
 11 24  1  0  0  0  0
 11 27  1  0  0  0  0
 12 13  2  0  0  0  0
 14 15  2  0  0  0  0
 14 19  1  0  0  0  0
 15 16  1  0  0  0  0
 16 17  1  0  0  0  0
 16 20  1  0  0  0  0
 17 18  1  0  0  0  0
 17 22  1  0  0  0  0
 18 19  2  0  0  0  0
 20 21  2  0  0  0  0
 21 22  1  0  0  0  0
 22 23  1  0  0  0  0
 24 25  1  0  0  0  0
 25 26  1  0  0  0  0
 25 28  1  0  0  0  0
 26 27  1  0  0  0  0
  2 29  1  0  0  0  0
  3 30  1  0  0  0  0
  4 31  1  0  0  0  0
 10 32  1  0  0  0  0
 15 33  1  0  0  0  0
 16 34  1  0  0  0  0
 17 35  1  0  0  0  0
 18 36  1  0  0  0  0
 19 37  1  0  0  0  0
 20 38  1  0  0  0  0
 23 39  1  0  0  0  0
 23 40  1  0  0  0  0
 23 41  1  0  0  0  0
 24 42  1  0  0  0  0
 24 43  1  0  0  0  0
 25 44  1  0  0  0  0
 26 45  1  0  0  0  0
 26 46  1  0  0  0  0
 27 47  1  0  0  0  0
 27 48  1  0  0  0  0
 28 49  1  0  0  0  0
M  END
> <Name>
42

> <IC50[uM]>
0.004

$$$$
42
  -OEChem-05192314333D
 Structure written by MMmdl.
 49 53  0     1  0  0  0  0  0999 V2000
   -6.3691   12.3596  -12.0090 C   0  0  0  0  0  0  0  0  0  0  0  0
   -6.5082   11.8040  -10.7325 C   0  0  0  0  0  0  0  0  0  0  0  0
   -7.7289   10.5800  -13.0272 C   0  0  0  0  0  0  0  0  0  0  0  0
   -6.9931   11.7723  -13.1223 C   0  0  0  0  0  0  0  0  0  0  0  0
   -7.8208   10.0120  -11.7545 C   0  0  0  0  0  0  0  0  0  0  0  0
   -7.2366   10.6190  -10.6002 C   0  0  0  0  0  0  0  0  0  0  0  0
   -7.6071    9.7463   -9.5106 C   0  0  0  0  0  0  0  0  0  0  0  0
   -8.2820    8.7349   -9.9857 N   0  0  0  0  0  0  0  0  0  0  0  0
   -8.4162    8.8630  -11.2985 N   0  0  0  0  0  0  0  0  0  0  0  0
   -7.3216    9.8824   -8.0245 C   0  0  0  0  0  0  0  0  0  0  0  0
   -4.3612   13.7214  -11.5083 N   0  0  0  0  0  0  0  0  0  0  0  0
   -5.5493   13.6373  -12.1980 C   0  0  0  0  0  0  0  0  0  0  0  0
   -5.9470   14.5254  -12.9531 O   0  0  0  0  0  0  0  0  0  0  0  0
   -5.9509   10.4995   -7.7283 C   0  0  0  0  0  0  0  0  0  0  0  0
   -5.8798   11.7709   -7.1545 C   0  0  0  0  0  0  0  0  0  0  0  0
   -4.6121   12.3149   -6.9130 C   0  0  0  0  0  0  0  0  0  0  0  0
   -3.4406   11.5618   -7.2441 C   0  0  0  0  0  0  0  0  0  0  0  0
   -3.5052   10.2836   -7.8087 C   0  0  0  0  0  0  0  0  0  0  0  0
   -4.7939    9.7786   -8.0440 C   0  0  0  0  0  0  0  0  0  0  0  0
   -4.0930   13.5444   -6.3685 C   0  0  0  0  0  0  0  0  0  0  0  0
   -2.7888   13.5284   -6.3764 N   0  0  0  0  0  0  0  0  0  0  0  0
   -2.3823   12.3688   -6.8823 N   0  0  0  0  0  0  0  0  0  0  0  0
   -0.9528   12.1034   -6.9863 C   0  0  0  0  0  0  0  0  0  0  0  0
   -3.7146   12.5761  -10.8355 C   0  0  0  0  0  0  0  0  0  0  0  0
   -2.2074   12.9376  -10.9559 C   0  0  2  0  0  0  0  0  0  0  0  0
   -2.1889   14.4652  -10.9572 C   0  0  0  0  0  0  0  0  0  0  0  0
   -3.5166   14.9141  -11.6000 C   0  0  0  0  0  0  0  0  0  0  0  0
   -1.6730   12.4527  -12.1791 O   0  0  0  0  0  0  0  0  0  0  0  0
   -6.0635   12.2793   -9.8707 H   0  0  0  0  0  0  0  0  0  0  0  0
   -8.1971   10.1280  -13.8891 H   0  0  0  0  0  0  0  0  0  0  0  0
   -6.9038   12.2545  -14.0846 H   0  0  0  0  0  0  0  0  0  0  0  0
   -6.6705    9.1843   -9.6404 H   0  0  0  0  0  0  0  0  0  0  0  0
   -8.0145    9.5753   -7.2551 H   0  0  0  0  0  0  0  0  0  0  0  0
   -6.7764   12.3186   -6.9043 H   0  0  0  0  0  0  0  0  0  0  0  0
   -3.4375   12.0070   -8.2500 H   0  0  0  0  0  0  0  0  0  0  0  0
   -2.6166    9.7188   -8.0493 H   0  0  0  0  0  0  0  0  0  0  0  0
   -4.8960    8.7979   -8.4848 H   0  0  0  0  0  0  0  0  0  0  0  0
   -4.6978   14.3623   -6.0057 H   0  0  0  0  0  0  0  0  0  0  0  0
   -0.3901   12.9669   -6.6019 H   0  0  0  0  0  0  0  0  0  0  0  0
   -0.7019   11.2100   -6.3955 H   0  0  0  0  0  0  0  0  0  0  0  0
   -0.6874   11.9326   -8.0401 H   0  0  0  0  0  0  0  0  0  0  0  0
   -4.0252   12.5039   -9.7827 H   0  0  0  0  0  0  0  0  0  0  0  0
   -3.9410   11.6307  -11.3502 H   0  0  0  0  0  0  0  0  0  0  0  0
   -1.6579   12.5499  -10.0854 H   0  0  0  0  0  0  0  0  0  0  0  0
   -2.1163   14.8460   -9.9278 H   0  0  0  0  0  0  0  0  0  0  0  0
   -1.3366   14.8352  -11.5459 H   0  0  0  0  0  0  0  0  0  0  0  0
   -3.3656   15.2093  -12.6488 H   0  0  0  0  0  0  0  0  0  0  0  0
   -3.9592   15.7531  -11.0430 H   0  0  0  0  0  0  0  0  0  0  0  0
   -0.7528   12.6819  -12.2362 H   0  0  0  0  0  0  0  0  0  0  0  0
  1  2  2  0  0  0  0
  1  4  1  0  0  0  0
  1 12  1  0  0  0  0
  2  6  1  0  0  0  0
  3  4  2  0  0  0  0
  3  5  1  0  0  0  0
  5  6  2  0  0  0  0
  5  9  1  0  0  0  0
  6  7  1  0  0  0  0
  7  8  1  0  0  0  0
  7 10  1  0  0  0  0
  8  9  2  0  0  0  0
 10 14  2  0  0  0  0
 11 12  1  0  0  0  0
 11 24  1  0  0  0  0
 11 27  1  0  0  0  0
 12 13  2  0  0  0  0
 14 15  1  0  0  0  0
 14 19  1  0  0  0  0
 15 16  2  0  0  0  0
 16 17  1  0  0  0  0
 16 20  1  0  0  0  0
 17 18  1  0  0  0  0
 17 22  1  0  0  0  0
 18 19  2  0  0  0  0
 20 21  2  0  0  0  0
 21 22  1  0  0  0  0
 22 23  1  0  0  0  0
 24 25  1  0  0  0  0
 25 26  1  0  0  0  0
 25 28  1  0  0  0  0
 26 27  1  0  0  0  0
  2 29  1  0  0  0  0
  3 30  1  0  0  0  0
  4 31  1  0  0  0  0
  7 32  1  0  0  0  0
 10 33  1  0  0  0  0
 15 34  1  0  0  0  0
 17 35  1  0  0  0  0
 18 36  1  0  0  0  0
 19 37  1  0  0  0  0
 20 38  1  0  0  0  0
 23 39  1  0  0  0  0
 23 40  1  0  0  0  0
 23 41  1  0  0  0  0
 24 42  1  0  0  0  0
 24 43  1  0  0  0  0
 25 44  1  0  0  0  0
 26 45  1  0  0  0  0
 26 46  1  0  0  0  0
 27 47  1  0  0  0  0
 27 48  1  0  0  0  0
 28 49  1  0  0  0  0
M  END
> <Name>
42

> <IC50[uM]>
0.004

$$$$
42
  -OEChem-05192314333D
 Structure written by MMmdl.
 49 53  0     1  0  0  0  0  0999 V2000
   -6.3691   12.3596  -12.0090 C   0  0  0  0  0  0  0  0  0  0  0  0
   -6.5082   11.8040  -10.7325 C   0  0  0  0  0  0  0  0  0  0  0  0
   -7.7289   10.5800  -13.0272 C   0  0  0  0  0  0  0  0  0  0  0  0
   -6.9931   11.7723  -13.1223 C   0  0  0  0  0  0  0  0  0  0  0  0
   -7.8208   10.0120  -11.7545 C   0  0  0  0  0  0  0  0  0  0  0  0
   -7.2366   10.6190  -10.6002 C   0  0  0  0  0  0  0  0  0  0  0  0
   -7.6071    9.7463   -9.5106 C   0  0  0  0  0  0  0  0  0  0  0  0
   -8.2820    8.7349   -9.9857 N   0  0  0  0  0  0  0  0  0  0  0  0
   -8.4162    8.8630  -11.2985 N   0  0  0  0  0  0  0  0  0  0  0  0
   -7.3216    9.8824   -8.0245 C   0  0  0  0  0  0  0  0  0  0  0  0
   -4.3612   13.7214  -11.5083 N   0  0  0  0  0  0  0  0  0  0  0  0
   -5.5493   13.6373  -12.1980 C   0  0  0  0  0  0  0  0  0  0  0  0
   -5.9470   14.5254  -12.9531 O   0  0  0  0  0  0  0  0  0  0  0  0
   -5.9509   10.4995   -7.7283 C   0  0  0  0  0  0  0  0  0  0  0  0
   -5.8798   11.7709   -7.1545 C   0  0  0  0  0  0  0  0  0  0  0  0
   -4.6121   12.3149   -6.9130 C   0  0  0  0  0  0  0  0  0  0  0  0
   -3.4406   11.5618   -7.2441 C   0  0  0  0  0  0  0  0  0  0  0  0
   -3.5052   10.2836   -7.8087 C   0  0  0  0  0  0  0  0  0  0  0  0
   -4.7939    9.7786   -8.0440 C   0  0  0  0  0  0  0  0  0  0  0  0
   -4.0930   13.5444   -6.3685 C   0  0  0  0  0  0  0  0  0  0  0  0
   -2.7888   13.5284   -6.3764 N   0  0  0  0  0  0  0  0  0  0  0  0
   -2.3823   12.3688   -6.8823 N   0  0  0  0  0  0  0  0  0  0  0  0
   -0.9528   12.1034   -6.9863 C   0  0  0  0  0  0  0  0  0  0  0  0
   -3.7146   12.5761  -10.8355 C   0  0  0  0  0  0  0  0  0  0  0  0
   -2.2074   12.9376  -10.9559 C   0  0  2  0  0  0  0  0  0  0  0  0
   -2.1889   14.4652  -10.9572 C   0  0  0  0  0  0  0  0  0  0  0  0
   -3.5166   14.9141  -11.6000 C   0  0  0  0  0  0  0  0  0  0  0  0
   -1.6730   12.4527  -12.1791 O   0  0  0  0  0  0  0  0  0  0  0  0
   -6.0635   12.2793   -9.8707 H   0  0  0  0  0  0  0  0  0  0  0  0
   -8.1971   10.1280  -13.8891 H   0  0  0  0  0  0  0  0  0  0  0  0
   -6.9038   12.2545  -14.0846 H   0  0  0  0  0  0  0  0  0  0  0  0
   -8.0145    9.5753   -7.2551 H   0  0  0  0  0  0  0  0  0  0  0  0
   -6.7764   12.3186   -6.9043 H   0  0  0  0  0  0  0  0  0  0  0  0
   -3.4375   12.0070   -8.2500 H   0  0  0  0  0  0  0  0  0  0  0  0
   -2.9747   10.3140   -8.7719 H   0  0  0  0  0  0  0  0  0  0  0  0
   -2.9906    9.5889   -7.1285 H   0  0  0  0  0  0  0  0  0  0  0  0
   -4.8960    8.7979   -8.4848 H   0  0  0  0  0  0  0  0  0  0  0  0
   -4.6978   14.3623   -6.0057 H   0  0  0  0  0  0  0  0  0  0  0  0
   -0.3901   12.9669   -6.6019 H   0  0  0  0  0  0  0  0  0  0  0  0
   -0.7019   11.2100   -6.3955 H   0  0  0  0  0  0  0  0  0  0  0  0
   -0.6874   11.9326   -8.0401 H   0  0  0  0  0  0  0  0  0  0  0  0
   -4.0252   12.5039   -9.7827 H   0  0  0  0  0  0  0  0  0  0  0  0
   -3.9410   11.6307  -11.3502 H   0  0  0  0  0  0  0  0  0  0  0  0
   -1.6579   12.5499  -10.0854 H   0  0  0  0  0  0  0  0  0  0  0  0
   -2.1163   14.8460   -9.9278 H   0  0  0  0  0  0  0  0  0  0  0  0
   -1.3366   14.8352  -11.5459 H   0  0  0  0  0  0  0  0  0  0  0  0
   -3.3656   15.2093  -12.6488 H   0  0  0  0  0  0  0  0  0  0  0  0
   -3.9592   15.7531  -11.0430 H   0  0  0  0  0  0  0  0  0  0  0  0
   -0.7528   12.6819  -12.2362 H   0  0  0  0  0  0  0  0  0  0  0  0
  1  2  2  0  0  0  0
  1  4  1  0  0  0  0
  1 12  1  0  0  0  0
  2  6  1  0  0  0  0
  3  4  2  0  0  0  0
  3  5  1  0  0  0  0
  5  6  2  0  0  0  0
  5  9  1  0  0  0  0
  6  7  1  0  0  0  0
  7  8  1  0  0  0  0
  7 10  2  0  0  0  0
  8  9  2  0  0  0  0
 10 14  1  0  0  0  0
 11 12  1  0  0  0  0
 11 24  1  0  0  0  0
 11 27  1  0  0  0  0
 12 13  2  0  0  0  0
 14 15  1  0  0  0  0
 14 19  2  0  0  0  0
 15 16  2  0  0  0  0
 16 17  1  0  0  0  0
 16 20  1  0  0  0  0
 17 18  1  0  0  0  0
 17 22  1  0  0  0  0
 18 19  1  0  0  0  0
 20 21  2  0  0  0  0
 21 22  1  0  0  0  0
 22 23  1  0  0  0  0
 24 25  1  0  0  0  0
 25 26  1  0  0  0  0
 25 28  1  0  0  0  0
 26 27  1  0  0  0  0
  2 29  1  0  0  0  0
  3 30  1  0  0  0  0
  4 31  1  0  0  0  0
 10 32  1  0  0  0  0
 15 33  1  0  0  0  0
 17 34  1  0  0  0  0
 18 35  1  0  0  0  0
 18 36  1  0  0  0  0
 19 37  1  0  0  0  0
 20 38  1  0  0  0  0
 23 39  1  0  0  0  0
 23 40  1  0  0  0  0
 23 41  1  0  0  0  0
 24 42  1  0  0  0  0
 24 43  1  0  0  0  0
 25 44  1  0  0  0  0
 26 45  1  0  0  0  0
 26 46  1  0  0  0  0
 27 47  1  0  0  0  0
 27 48  1  0  0  0  0
 28 49  1  0  0  0  0
M  END
> <Name>
42

> <IC50[uM]>
0.004

$$$$
42
  -OEChem-05192314333D
 Structure written by MMmdl.
 49 53  0     1  0  0  0  0  0999 V2000
   -6.3691   12.3596  -12.0090 C   0  0  0  0  0  0  0  0  0  0  0  0
   -6.5082   11.8040  -10.7325 C   0  0  0  0  0  0  0  0  0  0  0  0
   -7.7289   10.5800  -13.0272 C   0  0  0  0  0  0  0  0  0  0  0  0
   -6.9931   11.7723  -13.1223 C   0  0  0  0  0  0  0  0  0  0  0  0
   -7.8208   10.0120  -11.7545 C   0  0  0  0  0  0  0  0  0  0  0  0
   -7.2366   10.6190  -10.6002 C   0  0  0  0  0  0  0  0  0  0  0  0
   -7.6071    9.7463   -9.5106 C   0  0  0  0  0  0  0  0  0  0  0  0
   -8.2820    8.7349   -9.9857 N   0  0  0  0  0  0  0  0  0  0  0  0
   -8.4162    8.8630  -11.2985 N   0  0  0  0  0  0  0  0  0  0  0  0
   -7.3216    9.8824   -8.0245 C   0  0  0  0  0  0  0  0  0  0  0  0
   -4.3612   13.7214  -11.5083 N   0  0  0  0  0  0  0  0  0  0  0  0
   -5.5493   13.6373  -12.1980 C   0  0  0  0  0  0  0  0  0  0  0  0
   -5.9470   14.5254  -12.9531 O   0  0  0  0  0  0  0  0  0  0  0  0
   -5.9509   10.4995   -7.7283 C   0  0  0  0  0  0  0  0  0  0  0  0
   -5.8798   11.7709   -7.1545 C   0  0  0  0  0  0  0  0  0  0  0  0
   -4.6121   12.3149   -6.9130 C   0  0  0  0  0  0  0  0  0  0  0  0
   -3.4406   11.5618   -7.2441 C   0  0  0  0  0  0  0  0  0  0  0  0
   -3.5052   10.2836   -7.8087 C   0  0  0  0  0  0  0  0  0  0  0  0
   -4.7939    9.7786   -8.0440 C   0  0  0  0  0  0  0  0  0  0  0  0
   -4.0930   13.5444   -6.3685 C   0  0  0  0  0  0  0  0  0  0  0  0
   -2.7888   13.5284   -6.3764 N   0  0  0  0  0  0  0  0  0  0  0  0
   -2.3823   12.3688   -6.8823 N   0  0  0  0  0  0  0  0  0  0  0  0
   -0.9528   12.1034   -6.9863 C   0  0  0  0  0  0  0  0  0  0  0  0
   -3.7146   12.5761  -10.8355 C   0  0  0  0  0  0  0  0  0  0  0  0
   -2.2074   12.9376  -10.9559 C   0  0  2  0  0  0  0  0  0  0  0  0
   -2.1889   14.4652  -10.9572 C   0  0  0  0  0  0  0  0  0  0  0  0
   -3.5166   14.9141  -11.6000 C   0  0  0  0  0  0  0  0  0  0  0  0
   -1.6730   12.4527  -12.1791 O   0  0  0  0  0  0  0  0  0  0  0  0
   -6.0635   12.2793   -9.8707 H   0  0  0  0  0  0  0  0  0  0  0  0
   -8.1971   10.1280  -13.8891 H   0  0  0  0  0  0  0  0  0  0  0  0
   -6.9038   12.2545  -14.0846 H   0  0  0  0  0  0  0  0  0  0  0  0
   -8.0145    9.5753   -7.2551 H   0  0  0  0  0  0  0  0  0  0  0  0
   -6.7764   12.3186   -6.9043 H   0  0  0  0  0  0  0  0  0  0  0  0
   -4.6109   12.7596   -7.9191 H   0  0  0  0  0  0  0  0  0  0  0  0
   -2.6166    9.7188   -8.0493 H   0  0  0  0  0  0  0  0  0  0  0  0
   -4.8594    8.8342   -7.4838 H   0  0  0  0  0  0  0  0  0  0  0  0
   -4.8484    9.5696   -9.1226 H   0  0  0  0  0  0  0  0  0  0  0  0
   -4.6978   14.3623   -6.0057 H   0  0  0  0  0  0  0  0  0  0  0  0
   -0.3901   12.9669   -6.6019 H   0  0  0  0  0  0  0  0  0  0  0  0
   -0.7019   11.2100   -6.3955 H   0  0  0  0  0  0  0  0  0  0  0  0
   -0.6874   11.9326   -8.0401 H   0  0  0  0  0  0  0  0  0  0  0  0
   -4.0252   12.5039   -9.7827 H   0  0  0  0  0  0  0  0  0  0  0  0
   -3.9410   11.6307  -11.3502 H   0  0  0  0  0  0  0  0  0  0  0  0
   -1.6579   12.5499  -10.0854 H   0  0  0  0  0  0  0  0  0  0  0  0
   -2.1163   14.8460   -9.9278 H   0  0  0  0  0  0  0  0  0  0  0  0
   -1.3366   14.8352  -11.5459 H   0  0  0  0  0  0  0  0  0  0  0  0
   -3.3656   15.2093  -12.6488 H   0  0  0  0  0  0  0  0  0  0  0  0
   -3.9592   15.7531  -11.0430 H   0  0  0  0  0  0  0  0  0  0  0  0
   -0.7528   12.6819  -12.2362 H   0  0  0  0  0  0  0  0  0  0  0  0
  1  2  2  0  0  0  0
  1  4  1  0  0  0  0
  1 12  1  0  0  0  0
  2  6  1  0  0  0  0
  3  4  2  0  0  0  0
  3  5  1  0  0  0  0
  5  6  2  0  0  0  0
  5  9  1  0  0  0  0
  6  7  1  0  0  0  0
  7  8  1  0  0  0  0
  7 10  2  0  0  0  0
  8  9  2  0  0  0  0
 10 14  1  0  0  0  0
 11 12  1  0  0  0  0
 11 24  1  0  0  0  0
 11 27  1  0  0  0  0
 12 13  2  0  0  0  0
 14 15  2  0  0  0  0
 14 19  1  0  0  0  0
 15 16  1  0  0  0  0
 16 17  1  0  0  0  0
 16 20  1  0  0  0  0
 17 18  2  0  0  0  0
 17 22  1  0  0  0  0
 18 19  1  0  0  0  0
 20 21  2  0  0  0  0
 21 22  1  0  0  0  0
 22 23  1  0  0  0  0
 24 25  1  0  0  0  0
 25 26  1  0  0  0  0
 25 28  1  0  0  0  0
 26 27  1  0  0  0  0
  2 29  1  0  0  0  0
  3 30  1  0  0  0  0
  4 31  1  0  0  0  0
 10 32  1  0  0  0  0
 15 33  1  0  0  0  0
 16 34  1  0  0  0  0
 18 35  1  0  0  0  0
 19 36  1  0  0  0  0
 19 37  1  0  0  0  0
 20 38  1  0  0  0  0
 23 39  1  0  0  0  0
 23 40  1  0  0  0  0
 23 41  1  0  0  0  0
 24 42  1  0  0  0  0
 24 43  1  0  0  0  0
 25 44  1  0  0  0  0
 26 45  1  0  0  0  0
 26 46  1  0  0  0  0
 27 47  1  0  0  0  0
 27 48  1  0  0  0  0
 28 49  1  0  0  0  0
M  END
> <Name>
42

> <IC50[uM]>
0.004

$$$$
42
  -OEChem-05192314333D
 Structure written by MMmdl.
 49 53  0     1  0  0  0  0  0999 V2000
   -6.3691   12.3596  -12.0090 C   0  0  0  0  0  0  0  0  0  0  0  0
   -6.5082   11.8040  -10.7325 C   0  0  0  0  0  0  0  0  0  0  0  0
   -7.7289   10.5800  -13.0272 C   0  0  0  0  0  0  0  0  0  0  0  0
   -6.9931   11.7723  -13.1223 C   0  0  0  0  0  0  0  0  0  0  0  0
   -7.8208   10.0120  -11.7545 C   0  0  0  0  0  0  0  0  0  0  0  0
   -7.2366   10.6190  -10.6002 C   0  0  0  0  0  0  0  0  0  0  0  0
   -7.6071    9.7463   -9.5106 C   0  0  0  0  0  0  0  0  0  0  0  0
   -8.2820    8.7349   -9.9857 N   0  0  0  0  0  0  0  0  0  0  0  0
   -8.4162    8.8630  -11.2985 N   0  0  0  0  0  0  0  0  0  0  0  0
   -7.3216    9.8824   -8.0245 C   0  0  0  0  0  0  0  0  0  0  0  0
   -4.3612   13.7214  -11.5083 N   0  0  0  0  0  0  0  0  0  0  0  0
   -5.5493   13.6373  -12.1980 C   0  0  0  0  0  0  0  0  0  0  0  0
   -5.9470   14.5254  -12.9531 O   0  0  0  0  0  0  0  0  0  0  0  0
   -5.9509   10.4995   -7.7283 C   0  0  0  0  0  0  0  0  0  0  0  0
   -5.8798   11.7709   -7.1545 C   0  0  0  0  0  0  0  0  0  0  0  0
   -4.6121   12.3149   -6.9130 C   0  0  0  0  0  0  0  0  0  0  0  0
   -3.4406   11.5618   -7.2441 C   0  0  0  0  0  0  0  0  0  0  0  0
   -3.5052   10.2836   -7.8087 C   0  0  0  0  0  0  0  0  0  0  0  0
   -4.7939    9.7786   -8.0440 C   0  0  0  0  0  0  0  0  0  0  0  0
   -4.0930   13.5444   -6.3685 C   0  0  0  0  0  0  0  0  0  0  0  0
   -2.7888   13.5284   -6.3764 N   0  0  0  0  0  0  0  0  0  0  0  0
   -2.3823   12.3688   -6.8823 N   0  0  0  0  0  0  0  0  0  0  0  0
   -0.9528   12.1034   -6.9863 C   0  0  0  0  0  0  0  0  0  0  0  0
   -3.7146   12.5761  -10.8355 C   0  0  0  0  0  0  0  0  0  0  0  0
   -2.2074   12.9376  -10.9559 C   0  0  2  0  0  0  0  0  0  0  0  0
   -2.1889   14.4652  -10.9572 C   0  0  0  0  0  0  0  0  0  0  0  0
   -3.5166   14.9141  -11.6000 C   0  0  0  0  0  0  0  0  0  0  0  0
   -1.6730   12.4527  -12.1791 O   0  0  0  0  0  0  0  0  0  0  0  0
   -6.0635   12.2793   -9.8707 H   0  0  0  0  0  0  0  0  0  0  0  0
   -8.1971   10.1280  -13.8891 H   0  0  0  0  0  0  0  0  0  0  0  0
   -6.9038   12.2545  -14.0846 H   0  0  0  0  0  0  0  0  0  0  0  0
   -8.0145    9.5753   -7.2551 H   0  0  0  0  0  0  0  0  0  0  0  0
   -6.4097   12.4625   -7.8260 H   0  0  0  0  0  0  0  0  0  0  0  0
   -6.4044   11.7234   -6.1888 H   0  0  0  0  0  0  0  0  0  0  0  0
   -4.6109   12.7596   -7.9191 H   0  0  0  0  0  0  0  0  0  0  0  0
   -2.6166    9.7188   -8.0493 H   0  0  0  0  0  0  0  0  0  0  0  0
   -4.8960    8.7979   -8.4848 H   0  0  0  0  0  0  0  0  0  0  0  0
   -4.6978   14.3623   -6.0057 H   0  0  0  0  0  0  0  0  0  0  0  0
   -0.3901   12.9669   -6.6019 H   0  0  0  0  0  0  0  0  0  0  0  0
   -0.7019   11.2100   -6.3955 H   0  0  0  0  0  0  0  0  0  0  0  0
   -0.6874   11.9326   -8.0401 H   0  0  0  0  0  0  0  0  0  0  0  0
   -4.0252   12.5039   -9.7827 H   0  0  0  0  0  0  0  0  0  0  0  0
   -3.9410   11.6307  -11.3502 H   0  0  0  0  0  0  0  0  0  0  0  0
   -1.6579   12.5499  -10.0854 H   0  0  0  0  0  0  0  0  0  0  0  0
   -2.1163   14.8460   -9.9278 H   0  0  0  0  0  0  0  0  0  0  0  0
   -1.3366   14.8352  -11.5459 H   0  0  0  0  0  0  0  0  0  0  0  0
   -3.3656   15.2093  -12.6488 H   0  0  0  0  0  0  0  0  0  0  0  0
   -3.9592   15.7531  -11.0430 H   0  0  0  0  0  0  0  0  0  0  0  0
   -0.7528   12.6819  -12.2362 H   0  0  0  0  0  0  0  0  0  0  0  0
  1  2  2  0  0  0  0
  1  4  1  0  0  0  0
  1 12  1  0  0  0  0
  2  6  1  0  0  0  0
  3  4  2  0  0  0  0
  3  5  1  0  0  0  0
  5  6  2  0  0  0  0
  5  9  1  0  0  0  0
  6  7  1  0  0  0  0
  7  8  1  0  0  0  0
  7 10  2  0  0  0  0
  8  9  2  0  0  0  0
 10 14  1  0  0  0  0
 11 12  1  0  0  0  0
 11 24  1  0  0  0  0
 11 27  1  0  0  0  0
 12 13  2  0  0  0  0
 14 15  1  0  0  0  0
 14 19  2  0  0  0  0
 15 16  1  0  0  0  0
 16 17  1  0  0  0  0
 16 20  1  0  0  0  0
 17 18  2  0  0  0  0
 17 22  1  0  0  0  0
 18 19  1  0  0  0  0
 20 21  2  0  0  0  0
 21 22  1  0  0  0  0
 22 23  1  0  0  0  0
 24 25  1  0  0  0  0
 25 26  1  0  0  0  0
 25 28  1  0  0  0  0
 26 27  1  0  0  0  0
  2 29  1  0  0  0  0
  3 30  1  0  0  0  0
  4 31  1  0  0  0  0
 10 32  1  0  0  0  0
 15 33  1  0  0  0  0
 15 34  1  0  0  0  0
 16 35  1  0  0  0  0
 18 36  1  0  0  0  0
 19 37  1  0  0  0  0
 20 38  1  0  0  0  0
 23 39  1  0  0  0  0
 23 40  1  0  0  0  0
 23 41  1  0  0  0  0
 24 42  1  0  0  0  0
 24 43  1  0  0  0  0
 25 44  1  0  0  0  0
 26 45  1  0  0  0  0
 26 46  1  0  0  0  0
 27 47  1  0  0  0  0
 27 48  1  0  0  0  0
 28 49  1  0  0  0  0
M  END
> <Name>
42

> <IC50[uM]>
0.004

$$$$
42
  -OEChem-05192314333D
 Structure written by MMmdl.
 49 53  0     1  0  0  0  0  0999 V2000
   -6.3691   12.3596  -12.0090 C   0  0  0  0  0  0  0  0  0  0  0  0
   -6.5082   11.8040  -10.7325 C   0  0  0  0  0  0  0  0  0  0  0  0
   -7.7289   10.5800  -13.0272 C   0  0  0  0  0  0  0  0  0  0  0  0
   -6.9931   11.7723  -13.1223 C   0  0  0  0  0  0  0  0  0  0  0  0
   -7.8208   10.0120  -11.7545 C   0  0  0  0  0  0  0  0  0  0  0  0
   -7.2366   10.6190  -10.6002 C   0  0  0  0  0  0  0  0  0  0  0  0
   -7.6071    9.7463   -9.5106 C   0  0  0  0  0  0  0  0  0  0  0  0
   -8.2820    8.7349   -9.9857 N   0  0  0  0  0  0  0  0  0  0  0  0
   -8.4162    8.8630  -11.2985 N   0  0  0  0  0  0  0  0  0  0  0  0
   -7.3216    9.8824   -8.0245 C   0  0  0  0  0  0  0  0  0  0  0  0
   -4.3612   13.7214  -11.5083 N   0  0  0  0  0  0  0  0  0  0  0  0
   -5.5493   13.6373  -12.1980 C   0  0  0  0  0  0  0  0  0  0  0  0
   -5.9470   14.5254  -12.9531 O   0  0  0  0  0  0  0  0  0  0  0  0
   -5.9509   10.4995   -7.7283 C   0  0  0  0  0  0  0  0  0  0  0  0
   -5.8798   11.7709   -7.1545 C   0  0  0  0  0  0  0  0  0  0  0  0
   -4.6121   12.3149   -6.9130 C   0  0  0  0  0  0  0  0  0  0  0  0
   -3.4406   11.5618   -7.2441 C   0  0  0  0  0  0  0  0  0  0  0  0
   -3.5052   10.2836   -7.8087 C   0  0  0  0  0  0  0  0  0  0  0  0
   -4.7939    9.7786   -8.0440 C   0  0  0  0  0  0  0  0  0  0  0  0
   -4.0930   13.5444   -6.3685 C   0  0  0  0  0  0  0  0  0  0  0  0
   -2.7888   13.5284   -6.3764 N   0  0  0  0  0  0  0  0  0  0  0  0
   -2.3823   12.3688   -6.8823 N   0  0  0  0  0  0  0  0  0  0  0  0
   -0.9528   12.1034   -6.9863 C   0  0  0  0  0  0  0  0  0  0  0  0
   -3.7146   12.5761  -10.8355 C   0  0  0  0  0  0  0  0  0  0  0  0
   -2.2074   12.9376  -10.9559 C   0  0  2  0  0  0  0  0  0  0  0  0
   -2.1889   14.4652  -10.9572 C   0  0  0  0  0  0  0  0  0  0  0  0
   -3.5166   14.9141  -11.6000 C   0  0  0  0  0  0  0  0  0  0  0  0
   -1.6730   12.4527  -12.1791 O   0  0  0  0  0  0  0  0  0  0  0  0
   -6.0635   12.2793   -9.8707 H   0  0  0  0  0  0  0  0  0  0  0  0
   -8.1971   10.1280  -13.8891 H   0  0  0  0  0  0  0  0  0  0  0  0
   -6.9038   12.2545  -14.0846 H   0  0  0  0  0  0  0  0  0  0  0  0
   -8.0145    9.5753   -7.2551 H   0  0  0  0  0  0  0  0  0  0  0  0
   -6.7764   12.3186   -6.9043 H   0  0  0  0  0  0  0  0  0  0  0  0
   -3.4375   12.0070   -8.2500 H   0  0  0  0  0  0  0  0  0  0  0  0
   -2.6166    9.7188   -8.0493 H   0  0  0  0  0  0  0  0  0  0  0  0
   -4.8960    8.7979   -8.4848 H   0  0  0  0  0  0  0  0  0  0  0  0
   -4.6978   14.3623   -6.0057 H   0  0  0  0  0  0  0  0  0  0  0  0
   -2.4460   14.2803   -6.9395 H   0  0  0  0  0  0  0  0  0  0  0  0
   -0.3901   12.9677   -6.6036 H   0  0  0  0  0  0  0  0  0  0  0  0
   -0.7016   11.2111   -6.3941 H   0  0  0  0  0  0  0  0  0  0  0  0
   -0.6877   11.9308   -8.0398 H   0  0  0  0  0  0  0  0  0  0  0  0
   -4.0252   12.5039   -9.7827 H   0  0  0  0  0  0  0  0  0  0  0  0
   -3.9410   11.6307  -11.3502 H   0  0  0  0  0  0  0  0  0  0  0  0
   -1.6579   12.5499  -10.0854 H   0  0  0  0  0  0  0  0  0  0  0  0
   -2.1163   14.8460   -9.9278 H   0  0  0  0  0  0  0  0  0  0  0  0
   -1.3366   14.8352  -11.5459 H   0  0  0  0  0  0  0  0  0  0  0  0
   -3.3656   15.2093  -12.6488 H   0  0  0  0  0  0  0  0  0  0  0  0
   -3.9592   15.7531  -11.0430 H   0  0  0  0  0  0  0  0  0  0  0  0
   -0.7528   12.6819  -12.2362 H   0  0  0  0  0  0  0  0  0  0  0  0
  1  2  2  0  0  0  0
  1  4  1  0  0  0  0
  1 12  1  0  0  0  0
  2  6  1  0  0  0  0
  3  4  2  0  0  0  0
  3  5  1  0  0  0  0
  5  6  2  0  0  0  0
  5  9  1  0  0  0  0
  6  7  1  0  0  0  0
  7  8  1  0  0  0  0
  7 10  2  0  0  0  0
  8  9  2  0  0  0  0
 10 14  1  0  0  0  0
 11 12  1  0  0  0  0
 11 24  1  0  0  0  0
 11 27  1  0  0  0  0
 12 13  2  0  0  0  0
 14 15  2  0  0  0  0
 14 19  1  0  0  0  0
 15 16  1  0  0  0  0
 16 17  1  0  0  0  0
 16 20  2  0  0  0  0
 17 18  1  0  0  0  0
 17 22  1  0  0  0  0
 18 19  2  0  0  0  0
 20 21  1  0  0  0  0
 21 22  1  0  0  0  0
 22 23  1  0  0  0  0
 24 25  1  0  0  0  0
 25 26  1  0  0  0  0
 25 28  1  0  0  0  0
 26 27  1  0  0  0  0
  2 29  1  0  0  0  0
  3 30  1  0  0  0  0
  4 31  1  0  0  0  0
 10 32  1  0  0  0  0
 15 33  1  0  0  0  0
 17 34  1  0  0  0  0
 18 35  1  0  0  0  0
 19 36  1  0  0  0  0
 20 37  1  0  0  0  0
 21 38  1  0  0  0  0
 23 39  1  0  0  0  0
 23 40  1  0  0  0  0
 23 41  1  0  0  0  0
 24 42  1  0  0  0  0
 24 43  1  0  0  0  0
 25 44  1  0  0  0  0
 26 45  1  0  0  0  0
 26 46  1  0  0  0  0
 27 47  1  0  0  0  0
 27 48  1  0  0  0  0
 28 49  1  0  0  0  0
M  END
> <Name>
42

> <IC50[uM]>
0.004

$$$$
42
  -OEChem-05192314333D
 Structure written by MMmdl.
 49 53  0     1  0  0  0  0  0999 V2000
   -6.3691   12.3596  -12.0090 C   0  0  0  0  0  0  0  0  0  0  0  0
   -6.5082   11.8040  -10.7325 C   0  0  0  0  0  0  0  0  0  0  0  0
   -7.7289   10.5800  -13.0272 C   0  0  0  0  0  0  0  0  0  0  0  0
   -6.9931   11.7723  -13.1223 C   0  0  0  0  0  0  0  0  0  0  0  0
   -7.8208   10.0120  -11.7545 C   0  0  0  0  0  0  0  0  0  0  0  0
   -7.2366   10.6190  -10.6002 C   0  0  0  0  0  0  0  0  0  0  0  0
   -7.6071    9.7463   -9.5106 C   0  0  0  0  0  0  0  0  0  0  0  0
   -8.2820    8.7349   -9.9857 N   0  0  0  0  0  0  0  0  0  0  0  0
   -8.4162    8.8630  -11.2985 N   0  0  0  0  0  0  0  0  0  0  0  0
   -7.3216    9.8824   -8.0245 C   0  0  0  0  0  0  0  0  0  0  0  0
   -4.3612   13.7214  -11.5083 N   0  0  0  0  0  0  0  0  0  0  0  0
   -5.5493   13.6373  -12.1980 C   0  0  0  0  0  0  0  0  0  0  0  0
   -5.9470   14.5254  -12.9531 O   0  0  0  0  0  0  0  0  0  0  0  0
   -5.9509   10.4995   -7.7283 C   0  0  0  0  0  0  0  0  0  0  0  0
   -5.8798   11.7709   -7.1545 C   0  0  0  0  0  0  0  0  0  0  0  0
   -4.6121   12.3149   -6.9130 C   0  0  0  0  0  0  0  0  0  0  0  0
   -3.4406   11.5618   -7.2441 C   0  0  0  0  0  0  0  0  0  0  0  0
   -3.5052   10.2836   -7.8087 C   0  0  0  0  0  0  0  0  0  0  0  0
   -4.7939    9.7786   -8.0440 C   0  0  0  0  0  0  0  0  0  0  0  0
   -4.0930   13.5444   -6.3685 C   0  0  0  0  0  0  0  0  0  0  0  0
   -2.7888   13.5284   -6.3764 N   0  0  0  0  0  0  0  0  0  0  0  0
   -2.3823   12.3688   -6.8823 N   0  0  0  0  0  0  0  0  0  0  0  0
   -0.9528   12.1034   -6.9863 C   0  0  0  0  0  0  0  0  0  0  0  0
   -3.7146   12.5761  -10.8355 C   0  0  0  0  0  0  0  0  0  0  0  0
   -2.2074   12.9376  -10.9559 C   0  0  2  0  0  0  0  0  0  0  0  0
   -2.1889   14.4652  -10.9572 C   0  0  0  0  0  0  0  0  0  0  0  0
   -3.5166   14.9141  -11.6000 C   0  0  0  0  0  0  0  0  0  0  0  0
   -1.6730   12.4527  -12.1791 O   0  0  0  0  0  0  0  0  0  0  0  0
   -6.0635   12.2793   -9.8707 H   0  0  0  0  0  0  0  0  0  0  0  0
   -8.1971   10.1280  -13.8891 H   0  0  0  0  0  0  0  0  0  0  0  0
   -6.9038   12.2545  -14.0846 H   0  0  0  0  0  0  0  0  0  0  0  0
   -8.0145    9.5753   -7.2551 H   0  0  0  0  0  0  0  0  0  0  0  0
   -6.7764   12.3186   -6.9043 H   0  0  0  0  0  0  0  0  0  0  0  0
   -2.6166    9.7188   -8.0493 H   0  0  0  0  0  0  0  0  0  0  0  0
   -4.8594    8.8342   -7.4838 H   0  0  0  0  0  0  0  0  0  0  0  0
   -4.8484    9.5696   -9.1226 H   0  0  0  0  0  0  0  0  0  0  0  0
   -4.6978   14.3623   -6.0057 H   0  0  0  0  0  0  0  0  0  0  0  0
   -2.4460   14.2803   -6.9395 H   0  0  0  0  0  0  0  0  0  0  0  0
   -0.3901   12.9677   -6.6036 H   0  0  0  0  0  0  0  0  0  0  0  0
   -0.7016   11.2111   -6.3941 H   0  0  0  0  0  0  0  0  0  0  0  0
   -0.6877   11.9308   -8.0398 H   0  0  0  0  0  0  0  0  0  0  0  0
   -4.0252   12.5039   -9.7827 H   0  0  0  0  0  0  0  0  0  0  0  0
   -3.9410   11.6307  -11.3502 H   0  0  0  0  0  0  0  0  0  0  0  0
   -1.6579   12.5499  -10.0854 H   0  0  0  0  0  0  0  0  0  0  0  0
   -2.1163   14.8460   -9.9278 H   0  0  0  0  0  0  0  0  0  0  0  0
   -1.3366   14.8352  -11.5459 H   0  0  0  0  0  0  0  0  0  0  0  0
   -3.3656   15.2093  -12.6488 H   0  0  0  0  0  0  0  0  0  0  0  0
   -3.9592   15.7531  -11.0430 H   0  0  0  0  0  0  0  0  0  0  0  0
   -0.7528   12.6819  -12.2362 H   0  0  0  0  0  0  0  0  0  0  0  0
  1  2  2  0  0  0  0
  1  4  1  0  0  0  0
  1 12  1  0  0  0  0
  2  6  1  0  0  0  0
  3  4  2  0  0  0  0
  3  5  1  0  0  0  0
  5  6  2  0  0  0  0
  5  9  1  0  0  0  0
  6  7  1  0  0  0  0
  7  8  1  0  0  0  0
  7 10  2  0  0  0  0
  8  9  2  0  0  0  0
 10 14  1  0  0  0  0
 11 12  1  0  0  0  0
 11 24  1  0  0  0  0
 11 27  1  0  0  0  0
 12 13  2  0  0  0  0
 14 15  2  0  0  0  0
 14 19  1  0  0  0  0
 15 16  1  0  0  0  0
 16 17  1  0  0  0  0
 16 20  2  0  0  0  0
 17 18  2  0  0  0  0
 17 22  1  0  0  0  0
 18 19  1  0  0  0  0
 20 21  1  0  0  0  0
 21 22  1  0  0  0  0
 22 23  1  0  0  0  0
 24 25  1  0  0  0  0
 25 26  1  0  0  0  0
 25 28  1  0  0  0  0
 26 27  1  0  0  0  0
  2 29  1  0  0  0  0
  3 30  1  0  0  0  0
  4 31  1  0  0  0  0
 10 32  1  0  0  0  0
 15 33  1  0  0  0  0
 18 34  1  0  0  0  0
 19 35  1  0  0  0  0
 19 36  1  0  0  0  0
 20 37  1  0  0  0  0
 21 38  1  0  0  0  0
 23 39  1  0  0  0  0
 23 40  1  0  0  0  0
 23 41  1  0  0  0  0
 24 42  1  0  0  0  0
 24 43  1  0  0  0  0
 25 44  1  0  0  0  0
 26 45  1  0  0  0  0
 26 46  1  0  0  0  0
 27 47  1  0  0  0  0
 27 48  1  0  0  0  0
 28 49  1  0  0  0  0
M  END
> <Name>
42

> <IC50[uM]>
0.004

$$$$
42
  -OEChem-05192314333D
 Structure written by MMmdl.
 49 53  0     1  0  0  0  0  0999 V2000
   -6.3691   12.3596  -12.0090 C   0  0  0  0  0  0  0  0  0  0  0  0
   -6.5082   11.8040  -10.7325 C   0  0  0  0  0  0  0  0  0  0  0  0
   -7.7289   10.5800  -13.0272 C   0  0  0  0  0  0  0  0  0  0  0  0
   -6.9931   11.7723  -13.1223 C   0  0  0  0  0  0  0  0  0  0  0  0
   -7.8208   10.0120  -11.7545 C   0  0  0  0  0  0  0  0  0  0  0  0
   -7.2366   10.6190  -10.6002 C   0  0  0  0  0  0  0  0  0  0  0  0
   -7.6071    9.7463   -9.5106 C   0  0  0  0  0  0  0  0  0  0  0  0
   -8.2820    8.7349   -9.9857 N   0  0  0  0  0  0  0  0  0  0  0  0
   -8.4162    8.8630  -11.2985 N   0  0  0  0  0  0  0  0  0  0  0  0
   -7.3216    9.8824   -8.0245 C   0  0  0  0  0  0  0  0  0  0  0  0
   -4.3612   13.7214  -11.5083 N   0  0  0  0  0  0  0  0  0  0  0  0
   -5.5493   13.6373  -12.1980 C   0  0  0  0  0  0  0  0  0  0  0  0
   -5.9470   14.5254  -12.9531 O   0  0  0  0  0  0  0  0  0  0  0  0
   -5.9509   10.4995   -7.7283 C   0  0  0  0  0  0  0  0  0  0  0  0
   -5.8798   11.7709   -7.1545 C   0  0  0  0  0  0  0  0  0  0  0  0
   -4.6121   12.3149   -6.9130 C   0  0  0  0  0  0  0  0  0  0  0  0
   -3.4406   11.5618   -7.2441 C   0  0  0  0  0  0  0  0  0  0  0  0
   -3.5052   10.2836   -7.8087 C   0  0  0  0  0  0  0  0  0  0  0  0
   -4.7939    9.7786   -8.0440 C   0  0  0  0  0  0  0  0  0  0  0  0
   -4.0930   13.5444   -6.3685 C   0  0  0  0  0  0  0  0  0  0  0  0
   -2.7888   13.5284   -6.3764 N   0  0  0  0  0  0  0  0  0  0  0  0
   -2.3823   12.3688   -6.8823 N   0  0  0  0  0  0  0  0  0  0  0  0
   -0.9528   12.1034   -6.9863 C   0  0  0  0  0  0  0  0  0  0  0  0
   -3.7146   12.5761  -10.8355 C   0  0  0  0  0  0  0  0  0  0  0  0
   -2.2074   12.9376  -10.9559 C   0  0  2  0  0  0  0  0  0  0  0  0
   -2.1889   14.4652  -10.9572 C   0  0  0  0  0  0  0  0  0  0  0  0
   -3.5166   14.9141  -11.6000 C   0  0  0  0  0  0  0  0  0  0  0  0
   -1.6730   12.4527  -12.1791 O   0  0  0  0  0  0  0  0  0  0  0  0
   -6.0635   12.2793   -9.8707 H   0  0  0  0  0  0  0  0  0  0  0  0
   -8.1971   10.1280  -13.8891 H   0  0  0  0  0  0  0  0  0  0  0  0
   -6.9038   12.2545  -14.0846 H   0  0  0  0  0  0  0  0  0  0  0  0
   -8.0145    9.5753   -7.2551 H   0  0  0  0  0  0  0  0  0  0  0  0
   -6.4097   12.4625   -7.8260 H   0  0  0  0  0  0  0  0  0  0  0  0
   -6.4044   11.7234   -6.1888 H   0  0  0  0  0  0  0  0  0  0  0  0
   -2.6166    9.7188   -8.0493 H   0  0  0  0  0  0  0  0  0  0  0  0
   -4.8960    8.7979   -8.4848 H   0  0  0  0  0  0  0  0  0  0  0  0
   -4.6978   14.3623   -6.0057 H   0  0  0  0  0  0  0  0  0  0  0  0
   -2.4460   14.2803   -6.9395 H   0  0  0  0  0  0  0  0  0  0  0  0
   -0.3901   12.9677   -6.6036 H   0  0  0  0  0  0  0  0  0  0  0  0
   -0.7016   11.2111   -6.3941 H   0  0  0  0  0  0  0  0  0  0  0  0
   -0.6877   11.9308   -8.0398 H   0  0  0  0  0  0  0  0  0  0  0  0
   -4.0252   12.5039   -9.7827 H   0  0  0  0  0  0  0  0  0  0  0  0
   -3.9410   11.6307  -11.3502 H   0  0  0  0  0  0  0  0  0  0  0  0
   -1.6579   12.5499  -10.0854 H   0  0  0  0  0  0  0  0  0  0  0  0
   -2.1163   14.8460   -9.9278 H   0  0  0  0  0  0  0  0  0  0  0  0
   -1.3366   14.8352  -11.5459 H   0  0  0  0  0  0  0  0  0  0  0  0
   -3.3656   15.2093  -12.6488 H   0  0  0  0  0  0  0  0  0  0  0  0
   -3.9592   15.7531  -11.0430 H   0  0  0  0  0  0  0  0  0  0  0  0
   -0.7528   12.6819  -12.2362 H   0  0  0  0  0  0  0  0  0  0  0  0
  1  2  2  0  0  0  0
  1  4  1  0  0  0  0
  1 12  1  0  0  0  0
  2  6  1  0  0  0  0
  3  4  2  0  0  0  0
  3  5  1  0  0  0  0
  5  6  2  0  0  0  0
  5  9  1  0  0  0  0
  6  7  1  0  0  0  0
  7  8  1  0  0  0  0
  7 10  2  0  0  0  0
  8  9  2  0  0  0  0
 10 14  1  0  0  0  0
 11 12  1  0  0  0  0
 11 24  1  0  0  0  0
 11 27  1  0  0  0  0
 12 13  2  0  0  0  0
 14 15  1  0  0  0  0
 14 19  2  0  0  0  0
 15 16  1  0  0  0  0
 16 17  1  0  0  0  0
 16 20  2  0  0  0  0
 17 18  2  0  0  0  0
 17 22  1  0  0  0  0
 18 19  1  0  0  0  0
 20 21  1  0  0  0  0
 21 22  1  0  0  0  0
 22 23  1  0  0  0  0
 24 25  1  0  0  0  0
 25 26  1  0  0  0  0
 25 28  1  0  0  0  0
 26 27  1  0  0  0  0
  2 29  1  0  0  0  0
  3 30  1  0  0  0  0
  4 31  1  0  0  0  0
 10 32  1  0  0  0  0
 15 33  1  0  0  0  0
 15 34  1  0  0  0  0
 18 35  1  0  0  0  0
 19 36  1  0  0  0  0
 20 37  1  0  0  0  0
 21 38  1  0  0  0  0
 23 39  1  0  0  0  0
 23 40  1  0  0  0  0
 23 41  1  0  0  0  0
 24 42  1  0  0  0  0
 24 43  1  0  0  0  0
 25 44  1  0  0  0  0
 26 45  1  0  0  0  0
 26 46  1  0  0  0  0
 27 47  1  0  0  0  0
 27 48  1  0  0  0  0
 28 49  1  0  0  0  0
M  END
> <Name>
42

> <IC50[uM]>
0.004

$$$$
42
  -OEChem-05192314333D
 Structure written by MMmdl.
 49 53  0     1  0  0  0  0  0999 V2000
   -6.3691   12.3596  -12.0090 C   0  0  0  0  0  0  0  0  0  0  0  0
   -6.5082   11.8040  -10.7325 C   0  0  0  0  0  0  0  0  0  0  0  0
   -7.7289   10.5800  -13.0272 C   0  0  0  0  0  0  0  0  0  0  0  0
   -6.9931   11.7723  -13.1223 C   0  0  0  0  0  0  0  0  0  0  0  0
   -7.8208   10.0120  -11.7545 C   0  0  0  0  0  0  0  0  0  0  0  0
   -7.2366   10.6190  -10.6002 C   0  0  0  0  0  0  0  0  0  0  0  0
   -7.6071    9.7463   -9.5106 C   0  0  0  0  0  0  0  0  0  0  0  0
   -8.2820    8.7349   -9.9857 N   0  0  0  0  0  0  0  0  0  0  0  0
   -8.4162    8.8630  -11.2985 N   0  0  0  0  0  0  0  0  0  0  0  0
   -7.3216    9.8824   -8.0245 C   0  0  0  0  0  0  0  0  0  0  0  0
   -4.3612   13.7214  -11.5083 N   0  0  0  0  0  0  0  0  0  0  0  0
   -5.5493   13.6373  -12.1980 C   0  0  0  0  0  0  0  0  0  0  0  0
   -5.9470   14.5254  -12.9531 O   0  0  0  0  0  0  0  0  0  0  0  0
   -5.9509   10.4995   -7.7283 C   0  0  0  0  0  0  0  0  0  0  0  0
   -5.8798   11.7709   -7.1545 C   0  0  0  0  0  0  0  0  0  0  0  0
   -4.6121   12.3149   -6.9130 C   0  0  0  0  0  0  0  0  0  0  0  0
   -3.4406   11.5618   -7.2441 C   0  0  0  0  0  0  0  0  0  0  0  0
   -3.5052   10.2836   -7.8087 C   0  0  0  0  0  0  0  0  0  0  0  0
   -4.7939    9.7786   -8.0440 C   0  0  0  0  0  0  0  0  0  0  0  0
   -4.0930   13.5444   -6.3685 C   0  0  0  0  0  0  0  0  0  0  0  0
   -2.7888   13.5284   -6.3764 N   0  0  0  0  0  0  0  0  0  0  0  0
   -2.3823   12.3688   -6.8823 N   0  0  0  0  0  0  0  0  0  0  0  0
   -0.9528   12.1034   -6.9863 C   0  0  0  0  0  0  0  0  0  0  0  0
   -3.7146   12.5761  -10.8355 C   0  0  0  0  0  0  0  0  0  0  0  0
   -2.2074   12.9376  -10.9559 C   0  0  2  0  0  0  0  0  0  0  0  0
   -2.1889   14.4652  -10.9572 C   0  0  0  0  0  0  0  0  0  0  0  0
   -3.5166   14.9141  -11.6000 C   0  0  0  0  0  0  0  0  0  0  0  0
   -1.6730   12.4527  -12.1791 O   0  0  0  0  0  0  0  0  0  0  0  0
   -5.4702   11.7501  -12.1833 H   0  0  0  0  0  0  0  0  0  0  0  0
   -6.0635   12.2793   -9.8707 H   0  0  0  0  0  0  0  0  0  0  0  0
   -8.1971   10.1280  -13.8891 H   0  0  0  0  0  0  0  0  0  0  0  0
   -6.9038   12.2545  -14.0846 H   0  0  0  0  0  0  0  0  0  0  0  0
   -8.0145    9.5753   -7.2551 H   0  0  0  0  0  0  0  0  0  0  0  0
   -6.4097   12.4625   -7.8260 H   0  0  0  0  0  0  0  0  0  0  0  0
   -6.4044   11.7234   -6.1888 H   0  0  0  0  0  0  0  0  0  0  0  0
   -2.6166    9.7188   -8.0493 H   0  0  0  0  0  0  0  0  0  0  0  0
   -4.8960    8.7979   -8.4848 H   0  0  0  0  0  0  0  0  0  0  0  0
   -4.6978   14.3623   -6.0057 H   0  0  0  0  0  0  0  0  0  0  0  0
   -0.3901   12.9669   -6.6019 H   0  0  0  0  0  0  0  0  0  0  0  0
   -0.7019   11.2100   -6.3955 H   0  0  0  0  0  0  0  0  0  0  0  0
   -0.6874   11.9326   -8.0401 H   0  0  0  0  0  0  0  0  0  0  0  0
   -4.0252   12.5039   -9.7827 H   0  0  0  0  0  0  0  0  0  0  0  0
   -3.9410   11.6307  -11.3502 H   0  0  0  0  0  0  0  0  0  0  0  0
   -1.6579   12.5499  -10.0854 H   0  0  0  0  0  0  0  0  0  0  0  0
   -2.1163   14.8460   -9.9278 H   0  0  0  0  0  0  0  0  0  0  0  0
   -1.3366   14.8352  -11.5459 H   0  0  0  0  0  0  0  0  0  0  0  0
   -3.3656   15.2093  -12.6488 H   0  0  0  0  0  0  0  0  0  0  0  0
   -3.9592   15.7531  -11.0430 H   0  0  0  0  0  0  0  0  0  0  0  0
   -0.7528   12.6819  -12.2362 H   0  0  0  0  0  0  0  0  0  0  0  0
  1  2  1  0  0  0  0
  1  4  1  0  0  0  0
  1 12  1  0  0  0  0
  2  6  2  0  0  0  0
  3  4  2  0  0  0  0
  3  5  1  0  0  0  0
  5  6  1  0  0  0  0
  5  9  2  0  0  0  0
  6  7  1  0  0  0  0
  7  8  2  0  0  0  0
  7 10  1  0  0  0  0
  8  9  1  0  0  0  0
 10 14  2  0  0  0  0
 11 12  1  0  0  0  0
 11 24  1  0  0  0  0
 11 27  1  0  0  0  0
 12 13  2  0  0  0  0
 14 15  1  0  0  0  0
 14 19  1  0  0  0  0
 15 16  1  0  0  0  0
 16 17  2  0  0  0  0
 16 20  1  0  0  0  0
 17 18  1  0  0  0  0
 17 22  1  0  0  0  0
 18 19  2  0  0  0  0
 20 21  2  0  0  0  0
 21 22  1  0  0  0  0
 22 23  1  0  0  0  0
 24 25  1  0  0  0  0
 25 26  1  0  0  0  0
 25 28  1  0  0  0  0
 26 27  1  0  0  0  0
  1 29  1  0  0  0  0
  2 30  1  0  0  0  0
  3 31  1  0  0  0  0
  4 32  1  0  0  0  0
 10 33  1  0  0  0  0
 15 34  1  0  0  0  0
 15 35  1  0  0  0  0
 18 36  1  0  0  0  0
 19 37  1  0  0  0  0
 20 38  1  0  0  0  0
 23 39  1  0  0  0  0
 23 40  1  0  0  0  0
 23 41  1  0  0  0  0
 24 42  1  0  0  0  0
 24 43  1  0  0  0  0
 25 44  1  0  0  0  0
 26 45  1  0  0  0  0
 26 46  1  0  0  0  0
 27 47  1  0  0  0  0
 27 48  1  0  0  0  0
 28 49  1  0  0  0  0
M  END
> <Name>
42

> <IC50[uM]>
0.004

$$$$
42
  -OEChem-05192314333D
 Structure written by MMmdl.
 49 53  0     1  0  0  0  0  0999 V2000
   -6.3691   12.3596  -12.0090 C   0  0  0  0  0  0  0  0  0  0  0  0
   -6.5082   11.8040  -10.7325 C   0  0  0  0  0  0  0  0  0  0  0  0
   -7.7289   10.5800  -13.0272 C   0  0  0  0  0  0  0  0  0  0  0  0
   -6.9931   11.7723  -13.1223 C   0  0  0  0  0  0  0  0  0  0  0  0
   -7.8208   10.0120  -11.7545 C   0  0  0  0  0  0  0  0  0  0  0  0
   -7.2366   10.6190  -10.6002 C   0  0  0  0  0  0  0  0  0  0  0  0
   -7.6071    9.7463   -9.5106 C   0  0  0  0  0  0  0  0  0  0  0  0
   -8.2820    8.7349   -9.9857 N   0  0  0  0  0  0  0  0  0  0  0  0
   -8.4162    8.8630  -11.2985 N   0  0  0  0  0  0  0  0  0  0  0  0
   -7.3216    9.8824   -8.0245 C   0  0  0  0  0  0  0  0  0  0  0  0
   -4.3612   13.7214  -11.5083 N   0  0  0  0  0  0  0  0  0  0  0  0
   -5.5493   13.6373  -12.1980 C   0  0  0  0  0  0  0  0  0  0  0  0
   -5.9470   14.5254  -12.9531 O   0  0  0  0  0  0  0  0  0  0  0  0
   -5.9509   10.4995   -7.7283 C   0  0  0  0  0  0  0  0  0  0  0  0
   -5.8798   11.7709   -7.1545 C   0  0  0  0  0  0  0  0  0  0  0  0
   -4.6121   12.3149   -6.9130 C   0  0  0  0  0  0  0  0  0  0  0  0
   -3.4406   11.5618   -7.2441 C   0  0  0  0  0  0  0  0  0  0  0  0
   -3.5052   10.2836   -7.8087 C   0  0  0  0  0  0  0  0  0  0  0  0
   -4.7939    9.7786   -8.0440 C   0  0  0  0  0  0  0  0  0  0  0  0
   -4.0930   13.5444   -6.3685 C   0  0  0  0  0  0  0  0  0  0  0  0
   -2.7888   13.5284   -6.3764 N   0  0  0  0  0  0  0  0  0  0  0  0
   -2.3823   12.3688   -6.8823 N   0  0  0  0  0  0  0  0  0  0  0  0
   -0.9528   12.1034   -6.9863 C   0  0  0  0  0  0  0  0  0  0  0  0
   -3.7146   12.5761  -10.8355 C   0  0  0  0  0  0  0  0  0  0  0  0
   -2.2074   12.9376  -10.9559 C   0  0  2  0  0  0  0  0  0  0  0  0
   -2.1889   14.4652  -10.9572 C   0  0  0  0  0  0  0  0  0  0  0  0
   -3.5166   14.9141  -11.6000 C   0  0  0  0  0  0  0  0  0  0  0  0
   -1.6730   12.4527  -12.1791 O   0  0  0  0  0  0  0  0  0  0  0  0
   -6.0635   12.2793   -9.8707 H   0  0  0  0  0  0  0  0  0  0  0  0
   -8.1971   10.1280  -13.8891 H   0  0  0  0  0  0  0  0  0  0  0  0
   -6.9038   12.2545  -14.0846 H   0  0  0  0  0  0  0  0  0  0  0  0
   -6.3176   10.0352  -10.7569 H   0  0  0  0  0  0  0  0  0  0  0  0
   -8.0145    9.5753   -7.2551 H   0  0  0  0  0  0  0  0  0  0  0  0
   -6.4097   12.4625   -7.8260 H   0  0  0  0  0  0  0  0  0  0  0  0
   -6.4044   11.7234   -6.1888 H   0  0  0  0  0  0  0  0  0  0  0  0
   -2.6166    9.7188   -8.0493 H   0  0  0  0  0  0  0  0  0  0  0  0
   -4.8960    8.7979   -8.4848 H   0  0  0  0  0  0  0  0  0  0  0  0
   -4.6978   14.3623   -6.0057 H   0  0  0  0  0  0  0  0  0  0  0  0
   -0.3901   12.9669   -6.6019 H   0  0  0  0  0  0  0  0  0  0  0  0
   -0.7019   11.2100   -6.3955 H   0  0  0  0  0  0  0  0  0  0  0  0
   -0.6874   11.9326   -8.0401 H   0  0  0  0  0  0  0  0  0  0  0  0
   -4.0252   12.5039   -9.7827 H   0  0  0  0  0  0  0  0  0  0  0  0
   -3.9410   11.6307  -11.3502 H   0  0  0  0  0  0  0  0  0  0  0  0
   -1.6579   12.5499  -10.0854 H   0  0  0  0  0  0  0  0  0  0  0  0
   -2.1163   14.8460   -9.9278 H   0  0  0  0  0  0  0  0  0  0  0  0
   -1.3366   14.8352  -11.5459 H   0  0  0  0  0  0  0  0  0  0  0  0
   -3.3656   15.2093  -12.6488 H   0  0  0  0  0  0  0  0  0  0  0  0
   -3.9592   15.7531  -11.0430 H   0  0  0  0  0  0  0  0  0  0  0  0
   -0.7528   12.6819  -12.2362 H   0  0  0  0  0  0  0  0  0  0  0  0
  1  2  2  0  0  0  0
  1  4  1  0  0  0  0
  1 12  1  0  0  0  0
  2  6  1  0  0  0  0
  3  4  2  0  0  0  0
  3  5  1  0  0  0  0
  5  6  1  0  0  0  0
  5  9  2  0  0  0  0
  6  7  1  0  0  0  0
  7  8  2  0  0  0  0
  7 10  1  0  0  0  0
  8  9  1  0  0  0  0
 10 14  2  0  0  0  0
 11 12  1  0  0  0  0
 11 24  1  0  0  0  0
 11 27  1  0  0  0  0
 12 13  2  0  0  0  0
 14 15  1  0  0  0  0
 14 19  1  0  0  0  0
 15 16  1  0  0  0  0
 16 17  2  0  0  0  0
 16 20  1  0  0  0  0
 17 18  1  0  0  0  0
 17 22  1  0  0  0  0
 18 19  2  0  0  0  0
 20 21  2  0  0  0  0
 21 22  1  0  0  0  0
 22 23  1  0  0  0  0
 24 25  1  0  0  0  0
 25 26  1  0  0  0  0
 25 28  1  0  0  0  0
 26 27  1  0  0  0  0
  2 29  1  0  0  0  0
  3 30  1  0  0  0  0
  4 31  1  0  0  0  0
  6 32  1  0  0  0  0
 10 33  1  0  0  0  0
 15 34  1  0  0  0  0
 15 35  1  0  0  0  0
 18 36  1  0  0  0  0
 19 37  1  0  0  0  0
 20 38  1  0  0  0  0
 23 39  1  0  0  0  0
 23 40  1  0  0  0  0
 23 41  1  0  0  0  0
 24 42  1  0  0  0  0
 24 43  1  0  0  0  0
 25 44  1  0  0  0  0
 26 45  1  0  0  0  0
 26 46  1  0  0  0  0
 27 47  1  0  0  0  0
 27 48  1  0  0  0  0
 28 49  1  0  0  0  0
M  END
> <Name>
42

> <IC50[uM]>
0.004

$$$$
42
  -OEChem-05192314333D
 Structure written by MMmdl.
 49 53  0     1  0  0  0  0  0999 V2000
   -6.3691   12.3596  -12.0090 C   0  0  0  0  0  0  0  0  0  0  0  0
   -6.5082   11.8040  -10.7325 C   0  0  0  0  0  0  0  0  0  0  0  0
   -7.7289   10.5800  -13.0272 C   0  0  0  0  0  0  0  0  0  0  0  0
   -6.9931   11.7723  -13.1223 C   0  0  0  0  0  0  0  0  0  0  0  0
   -7.8208   10.0120  -11.7545 C   0  0  0  0  0  0  0  0  0  0  0  0
   -7.2366   10.6190  -10.6002 C   0  0  0  0  0  0  0  0  0  0  0  0
   -7.6071    9.7463   -9.5106 C   0  0  0  0  0  0  0  0  0  0  0  0
   -8.2820    8.7349   -9.9857 N   0  0  0  0  0  0  0  0  0  0  0  0
   -8.4162    8.8630  -11.2985 N   0  0  0  0  0  0  0  0  0  0  0  0
   -7.3216    9.8824   -8.0245 C   0  0  0  0  0  0  0  0  0  0  0  0
   -4.3612   13.7214  -11.5083 N   0  0  0  0  0  0  0  0  0  0  0  0
   -5.5493   13.6373  -12.1980 C   0  0  0  0  0  0  0  0  0  0  0  0
   -5.9470   14.5254  -12.9531 O   0  0  0  0  0  0  0  0  0  0  0  0
   -5.9509   10.4995   -7.7283 C   0  0  0  0  0  0  0  0  0  0  0  0
   -5.8798   11.7709   -7.1545 C   0  0  0  0  0  0  0  0  0  0  0  0
   -4.6121   12.3149   -6.9130 C   0  0  0  0  0  0  0  0  0  0  0  0
   -3.4406   11.5618   -7.2441 C   0  0  0  0  0  0  0  0  0  0  0  0
   -3.5052   10.2836   -7.8087 C   0  0  0  0  0  0  0  0  0  0  0  0
   -4.7939    9.7786   -8.0440 C   0  0  0  0  0  0  0  0  0  0  0  0
   -4.0930   13.5444   -6.3685 C   0  0  0  0  0  0  0  0  0  0  0  0
   -2.7888   13.5284   -6.3764 N   0  0  0  0  0  0  0  0  0  0  0  0
   -2.3823   12.3688   -6.8823 N   0  0  0  0  0  0  0  0  0  0  0  0
   -0.9528   12.1034   -6.9863 C   0  0  0  0  0  0  0  0  0  0  0  0
   -3.7146   12.5761  -10.8355 C   0  0  0  0  0  0  0  0  0  0  0  0
   -2.2074   12.9376  -10.9559 C   0  0  2  0  0  0  0  0  0  0  0  0
   -2.1889   14.4652  -10.9572 C   0  0  0  0  0  0  0  0  0  0  0  0
   -3.5166   14.9141  -11.6000 C   0  0  0  0  0  0  0  0  0  0  0  0
   -1.6730   12.4527  -12.1791 O   0  0  0  0  0  0  0  0  0  0  0  0
   -6.0635   12.2793   -9.8707 H   0  0  0  0  0  0  0  0  0  0  0  0
   -8.7510   10.7876  -13.3767 H   0  0  0  0  0  0  0  0  0  0  0  0
   -7.2574    9.8407  -13.6914 H   0  0  0  0  0  0  0  0  0  0  0  0
   -6.9038   12.2545  -14.0846 H   0  0  0  0  0  0  0  0  0  0  0  0
   -8.0145    9.5753   -7.2551 H   0  0  0  0  0  0  0  0  0  0  0  0
   -6.4097   12.4625   -7.8260 H   0  0  0  0  0  0  0  0  0  0  0  0
   -6.4044   11.7234   -6.1888 H   0  0  0  0  0  0  0  0  0  0  0  0
   -2.6166    9.7188   -8.0493 H   0  0  0  0  0  0  0  0  0  0  0  0
   -4.8960    8.7979   -8.4848 H   0  0  0  0  0  0  0  0  0  0  0  0
   -4.6978   14.3623   -6.0057 H   0  0  0  0  0  0  0  0  0  0  0  0
   -0.3901   12.9669   -6.6019 H   0  0  0  0  0  0  0  0  0  0  0  0
   -0.7019   11.2100   -6.3955 H   0  0  0  0  0  0  0  0  0  0  0  0
   -0.6874   11.9326   -8.0401 H   0  0  0  0  0  0  0  0  0  0  0  0
   -4.0252   12.5039   -9.7827 H   0  0  0  0  0  0  0  0  0  0  0  0
   -3.9410   11.6307  -11.3502 H   0  0  0  0  0  0  0  0  0  0  0  0
   -1.6579   12.5499  -10.0854 H   0  0  0  0  0  0  0  0  0  0  0  0
   -2.1163   14.8460   -9.9278 H   0  0  0  0  0  0  0  0  0  0  0  0
   -1.3366   14.8352  -11.5459 H   0  0  0  0  0  0  0  0  0  0  0  0
   -3.3656   15.2093  -12.6488 H   0  0  0  0  0  0  0  0  0  0  0  0
   -3.9592   15.7531  -11.0430 H   0  0  0  0  0  0  0  0  0  0  0  0
   -0.7528   12.6819  -12.2362 H   0  0  0  0  0  0  0  0  0  0  0  0
  1  2  1  0  0  0  0
  1  4  2  0  0  0  0
  1 12  1  0  0  0  0
  2  6  2  0  0  0  0
  3  4  1  0  0  0  0
  3  5  1  0  0  0  0
  5  6  1  0  0  0  0
  5  9  2  0  0  0  0
  6  7  1  0  0  0  0
  7  8  2  0  0  0  0
  7 10  1  0  0  0  0
  8  9  1  0  0  0  0
 10 14  2  0  0  0  0
 11 12  1  0  0  0  0
 11 24  1  0  0  0  0
 11 27  1  0  0  0  0
 12 13  2  0  0  0  0
 14 15  1  0  0  0  0
 14 19  1  0  0  0  0
 15 16  1  0  0  0  0
 16 17  2  0  0  0  0
 16 20  1  0  0  0  0
 17 18  1  0  0  0  0
 17 22  1  0  0  0  0
 18 19  2  0  0  0  0
 20 21  2  0  0  0  0
 21 22  1  0  0  0  0
 22 23  1  0  0  0  0
 24 25  1  0  0  0  0
 25 26  1  0  0  0  0
 25 28  1  0  0  0  0
 26 27  1  0  0  0  0
  2 29  1  0  0  0  0
  3 30  1  0  0  0  0
  3 31  1  0  0  0  0
  4 32  1  0  0  0  0
 10 33  1  0  0  0  0
 15 34  1  0  0  0  0
 15 35  1  0  0  0  0
 18 36  1  0  0  0  0
 19 37  1  0  0  0  0
 20 38  1  0  0  0  0
 23 39  1  0  0  0  0
 23 40  1  0  0  0  0
 23 41  1  0  0  0  0
 24 42  1  0  0  0  0
 24 43  1  0  0  0  0
 25 44  1  0  0  0  0
 26 45  1  0  0  0  0
 26 46  1  0  0  0  0
 27 47  1  0  0  0  0
 27 48  1  0  0  0  0
 28 49  1  0  0  0  0
M  END
> <Name>
42

> <IC50[uM]>
0.004

$$$$
42
  -OEChem-05192314333D
 Structure written by MMmdl.
 49 53  0     1  0  0  0  0  0999 V2000
   -6.3691   12.3596  -12.0090 C   0  0  0  0  0  0  0  0  0  0  0  0
   -6.5082   11.8040  -10.7325 C   0  0  0  0  0  0  0  0  0  0  0  0
   -7.7289   10.5800  -13.0272 C   0  0  0  0  0  0  0  0  0  0  0  0
   -6.9931   11.7723  -13.1223 C   0  0  0  0  0  0  0  0  0  0  0  0
   -7.8208   10.0120  -11.7545 C   0  0  0  0  0  0  0  0  0  0  0  0
   -7.2366   10.6190  -10.6002 C   0  0  0  0  0  0  0  0  0  0  0  0
   -7.6071    9.7463   -9.5106 C   0  0  0  0  0  0  0  0  0  0  0  0
   -8.2820    8.7349   -9.9857 N   0  0  0  0  0  0  0  0  0  0  0  0
   -8.4162    8.8630  -11.2985 N   0  0  0  0  0  0  0  0  0  0  0  0
   -7.3216    9.8824   -8.0245 C   0  0  0  0  0  0  0  0  0  0  0  0
   -4.3612   13.7214  -11.5083 N   0  0  0  0  0  0  0  0  0  0  0  0
   -5.5493   13.6373  -12.1980 C   0  0  0  0  0  0  0  0  0  0  0  0
   -5.9470   14.5254  -12.9531 O   0  0  0  0  0  0  0  0  0  0  0  0
   -5.9509   10.4995   -7.7283 C   0  0  0  0  0  0  0  0  0  0  0  0
   -5.8798   11.7709   -7.1545 C   0  0  0  0  0  0  0  0  0  0  0  0
   -4.6121   12.3149   -6.9130 C   0  0  0  0  0  0  0  0  0  0  0  0
   -3.4406   11.5618   -7.2441 C   0  0  0  0  0  0  0  0  0  0  0  0
   -3.5052   10.2836   -7.8087 C   0  0  0  0  0  0  0  0  0  0  0  0
   -4.7939    9.7786   -8.0440 C   0  0  0  0  0  0  0  0  0  0  0  0
   -4.0930   13.5444   -6.3685 C   0  0  0  0  0  0  0  0  0  0  0  0
   -2.7888   13.5284   -6.3764 N   0  0  0  0  0  0  0  0  0  0  0  0
   -2.3823   12.3688   -6.8823 N   0  0  0  0  0  0  0  0  0  0  0  0
   -0.9528   12.1034   -6.9863 C   0  0  0  0  0  0  0  0  0  0  0  0
   -3.7146   12.5761  -10.8355 C   0  0  0  0  0  0  0  0  0  0  0  0
   -2.2074   12.9376  -10.9559 C   0  0  2  0  0  0  0  0  0  0  0  0
   -2.1889   14.4652  -10.9572 C   0  0  0  0  0  0  0  0  0  0  0  0
   -3.5166   14.9141  -11.6000 C   0  0  0  0  0  0  0  0  0  0  0  0
   -1.6730   12.4527  -12.1791 O   0  0  0  0  0  0  0  0  0  0  0  0
   -6.0635   12.2793   -9.8707 H   0  0  0  0  0  0  0  0  0  0  0  0
   -8.1971   10.1280  -13.8891 H   0  0  0  0  0  0  0  0  0  0  0  0
   -6.9038   12.2545  -14.0846 H   0  0  0  0  0  0  0  0  0  0  0  0
   -6.8882    9.4572  -11.9348 H   0  0  0  0  0  0  0  0  0  0  0  0
   -8.0145    9.5753   -7.2551 H   0  0  0  0  0  0  0  0  0  0  0  0
   -6.4097   12.4625   -7.8260 H   0  0  0  0  0  0  0  0  0  0  0  0
   -6.4044   11.7234   -6.1888 H   0  0  0  0  0  0  0  0  0  0  0  0
   -2.6166    9.7188   -8.0493 H   0  0  0  0  0  0  0  0  0  0  0  0
   -4.8960    8.7979   -8.4848 H   0  0  0  0  0  0  0  0  0  0  0  0
   -4.6978   14.3623   -6.0057 H   0  0  0  0  0  0  0  0  0  0  0  0
   -0.3901   12.9669   -6.6019 H   0  0  0  0  0  0  0  0  0  0  0  0
   -0.7019   11.2100   -6.3955 H   0  0  0  0  0  0  0  0  0  0  0  0
   -0.6874   11.9326   -8.0401 H   0  0  0  0  0  0  0  0  0  0  0  0
   -4.0252   12.5039   -9.7827 H   0  0  0  0  0  0  0  0  0  0  0  0
   -3.9410   11.6307  -11.3502 H   0  0  0  0  0  0  0  0  0  0  0  0
   -1.6579   12.5499  -10.0854 H   0  0  0  0  0  0  0  0  0  0  0  0
   -2.1163   14.8460   -9.9278 H   0  0  0  0  0  0  0  0  0  0  0  0
   -1.3366   14.8352  -11.5459 H   0  0  0  0  0  0  0  0  0  0  0  0
   -3.3656   15.2093  -12.6488 H   0  0  0  0  0  0  0  0  0  0  0  0
   -3.9592   15.7531  -11.0430 H   0  0  0  0  0  0  0  0  0  0  0  0
   -0.7528   12.6819  -12.2362 H   0  0  0  0  0  0  0  0  0  0  0  0
  1  2  2  0  0  0  0
  1  4  1  0  0  0  0
  1 12  1  0  0  0  0
  2  6  1  0  0  0  0
  3  4  2  0  0  0  0
  3  5  1  0  0  0  0
  5  6  1  0  0  0  0
  5  9  1  0  0  0  0
  6  7  2  0  0  0  0
  7  8  1  0  0  0  0
  7 10  1  0  0  0  0
  8  9  2  0  0  0  0
 10 14  2  0  0  0  0
 11 12  1  0  0  0  0
 11 24  1  0  0  0  0
 11 27  1  0  0  0  0
 12 13  2  0  0  0  0
 14 15  1  0  0  0  0
 14 19  1  0  0  0  0
 15 16  1  0  0  0  0
 16 17  2  0  0  0  0
 16 20  1  0  0  0  0
 17 18  1  0  0  0  0
 17 22  1  0  0  0  0
 18 19  2  0  0  0  0
 20 21  2  0  0  0  0
 21 22  1  0  0  0  0
 22 23  1  0  0  0  0
 24 25  1  0  0  0  0
 25 26  1  0  0  0  0
 25 28  1  0  0  0  0
 26 27  1  0  0  0  0
  2 29  1  0  0  0  0
  3 30  1  0  0  0  0
  4 31  1  0  0  0  0
  5 32  1  0  0  0  0
 10 33  1  0  0  0  0
 15 34  1  0  0  0  0
 15 35  1  0  0  0  0
 18 36  1  0  0  0  0
 19 37  1  0  0  0  0
 20 38  1  0  0  0  0
 23 39  1  0  0  0  0
 23 40  1  0  0  0  0
 23 41  1  0  0  0  0
 24 42  1  0  0  0  0
 24 43  1  0  0  0  0
 25 44  1  0  0  0  0
 26 45  1  0  0  0  0
 26 46  1  0  0  0  0
 27 47  1  0  0  0  0
 27 48  1  0  0  0  0
 28 49  1  0  0  0  0
M  END
> <Name>
42

> <IC50[uM]>
0.004

$$$$
42
  -OEChem-05192314333D
 Structure written by MMmdl.
 49 53  0     1  0  0  0  0  0999 V2000
   -6.3691   12.3596  -12.0090 C   0  0  0  0  0  0  0  0  0  0  0  0
   -6.5082   11.8040  -10.7325 C   0  0  0  0  0  0  0  0  0  0  0  0
   -7.7289   10.5800  -13.0272 C   0  0  0  0  0  0  0  0  0  0  0  0
   -6.9931   11.7723  -13.1223 C   0  0  0  0  0  0  0  0  0  0  0  0
   -7.8208   10.0120  -11.7545 C   0  0  0  0  0  0  0  0  0  0  0  0
   -7.2366   10.6190  -10.6002 C   0  0  0  0  0  0  0  0  0  0  0  0
   -7.6071    9.7463   -9.5106 C   0  0  0  0  0  0  0  0  0  0  0  0
   -8.2820    8.7349   -9.9857 N   0  0  0  0  0  0  0  0  0  0  0  0
   -8.4162    8.8630  -11.2985 N   0  0  0  0  0  0  0  0  0  0  0  0
   -7.3216    9.8824   -8.0245 C   0  0  0  0  0  0  0  0  0  0  0  0
   -4.3612   13.7214  -11.5083 N   0  0  0  0  0  0  0  0  0  0  0  0
   -5.5493   13.6373  -12.1980 C   0  0  0  0  0  0  0  0  0  0  0  0
   -5.9470   14.5254  -12.9531 O   0  0  0  0  0  0  0  0  0  0  0  0
   -5.9509   10.4995   -7.7283 C   0  0  0  0  0  0  0  0  0  0  0  0
   -5.8798   11.7709   -7.1545 C   0  0  0  0  0  0  0  0  0  0  0  0
   -4.6121   12.3149   -6.9130 C   0  0  0  0  0  0  0  0  0  0  0  0
   -3.4406   11.5618   -7.2441 C   0  0  0  0  0  0  0  0  0  0  0  0
   -3.5052   10.2836   -7.8087 C   0  0  0  0  0  0  0  0  0  0  0  0
   -4.7939    9.7786   -8.0440 C   0  0  0  0  0  0  0  0  0  0  0  0
   -4.0930   13.5444   -6.3685 C   0  0  0  0  0  0  0  0  0  0  0  0
   -2.7888   13.5284   -6.3764 N   0  0  0  0  0  0  0  0  0  0  0  0
   -2.3823   12.3688   -6.8823 N   0  0  0  0  0  0  0  0  0  0  0  0
   -0.9528   12.1034   -6.9863 C   0  0  0  0  0  0  0  0  0  0  0  0
   -3.7146   12.5761  -10.8355 C   0  0  0  0  0  0  0  0  0  0  0  0
   -2.2074   12.9376  -10.9559 C   0  0  2  0  0  0  0  0  0  0  0  0
   -2.1889   14.4652  -10.9572 C   0  0  0  0  0  0  0  0  0  0  0  0
   -3.5166   14.9141  -11.6000 C   0  0  0  0  0  0  0  0  0  0  0  0
   -1.6730   12.4527  -12.1791 O   0  0  0  0  0  0  0  0  0  0  0  0
   -6.0635   12.2793   -9.8707 H   0  0  0  0  0  0  0  0  0  0  0  0
   -8.1971   10.1280  -13.8891 H   0  0  0  0  0  0  0  0  0  0  0  0
   -7.6854   12.5289  -13.5202 H   0  0  0  0  0  0  0  0  0  0  0  0
   -6.1958   11.5828  -13.8561 H   0  0  0  0  0  0  0  0  0  0  0  0
   -8.0145    9.5753   -7.2551 H   0  0  0  0  0  0  0  0  0  0  0  0
   -6.4097   12.4625   -7.8260 H   0  0  0  0  0  0  0  0  0  0  0  0
   -6.4044   11.7234   -6.1888 H   0  0  0  0  0  0  0  0  0  0  0  0
   -2.6166    9.7188   -8.0493 H   0  0  0  0  0  0  0  0  0  0  0  0
   -4.8960    8.7979   -8.4848 H   0  0  0  0  0  0  0  0  0  0  0  0
   -4.6978   14.3623   -6.0057 H   0  0  0  0  0  0  0  0  0  0  0  0
   -0.3901   12.9669   -6.6019 H   0  0  0  0  0  0  0  0  0  0  0  0
   -0.7019   11.2100   -6.3955 H   0  0  0  0  0  0  0  0  0  0  0  0
   -0.6874   11.9326   -8.0401 H   0  0  0  0  0  0  0  0  0  0  0  0
   -4.0252   12.5039   -9.7827 H   0  0  0  0  0  0  0  0  0  0  0  0
   -3.9410   11.6307  -11.3502 H   0  0  0  0  0  0  0  0  0  0  0  0
   -1.6579   12.5499  -10.0854 H   0  0  0  0  0  0  0  0  0  0  0  0
   -2.1163   14.8460   -9.9278 H   0  0  0  0  0  0  0  0  0  0  0  0
   -1.3366   14.8352  -11.5459 H   0  0  0  0  0  0  0  0  0  0  0  0
   -3.3656   15.2093  -12.6488 H   0  0  0  0  0  0  0  0  0  0  0  0
   -3.9592   15.7531  -11.0430 H   0  0  0  0  0  0  0  0  0  0  0  0
   -0.7528   12.6819  -12.2362 H   0  0  0  0  0  0  0  0  0  0  0  0
  1  2  2  0  0  0  0
  1  4  1  0  0  0  0
  1 12  1  0  0  0  0
  2  6  1  0  0  0  0
  3  4  1  0  0  0  0
  3  5  2  0  0  0  0
  5  6  1  0  0  0  0
  5  9  1  0  0  0  0
  6  7  2  0  0  0  0
  7  8  1  0  0  0  0
  7 10  1  0  0  0  0
  8  9  2  0  0  0  0
 10 14  2  0  0  0  0
 11 12  1  0  0  0  0
 11 24  1  0  0  0  0
 11 27  1  0  0  0  0
 12 13  2  0  0  0  0
 14 15  1  0  0  0  0
 14 19  1  0  0  0  0
 15 16  1  0  0  0  0
 16 17  2  0  0  0  0
 16 20  1  0  0  0  0
 17 18  1  0  0  0  0
 17 22  1  0  0  0  0
 18 19  2  0  0  0  0
 20 21  2  0  0  0  0
 21 22  1  0  0  0  0
 22 23  1  0  0  0  0
 24 25  1  0  0  0  0
 25 26  1  0  0  0  0
 25 28  1  0  0  0  0
 26 27  1  0  0  0  0
  2 29  1  0  0  0  0
  3 30  1  0  0  0  0
  4 31  1  0  0  0  0
  4 32  1  0  0  0  0
 10 33  1  0  0  0  0
 15 34  1  0  0  0  0
 15 35  1  0  0  0  0
 18 36  1  0  0  0  0
 19 37  1  0  0  0  0
 20 38  1  0  0  0  0
 23 39  1  0  0  0  0
 23 40  1  0  0  0  0
 23 41  1  0  0  0  0
 24 42  1  0  0  0  0
 24 43  1  0  0  0  0
 25 44  1  0  0  0  0
 26 45  1  0  0  0  0
 26 46  1  0  0  0  0
 27 47  1  0  0  0  0
 27 48  1  0  0  0  0
 28 49  1  0  0  0  0
M  END
> <Name>
42

> <IC50[uM]>
0.004

$$$$
42
  -OEChem-05192314333D
 Structure written by MMmdl.
 49 53  0     1  0  0  0  0  0999 V2000
   -6.3691   12.3596  -12.0090 C   0  0  0  0  0  0  0  0  0  0  0  0
   -6.5082   11.8040  -10.7325 C   0  0  0  0  0  0  0  0  0  0  0  0
   -7.7289   10.5800  -13.0272 C   0  0  0  0  0  0  0  0  0  0  0  0
   -6.9931   11.7723  -13.1223 C   0  0  0  0  0  0  0  0  0  0  0  0
   -7.8208   10.0120  -11.7545 C   0  0  0  0  0  0  0  0  0  0  0  0
   -7.2366   10.6190  -10.6002 C   0  0  0  0  0  0  0  0  0  0  0  0
   -7.6071    9.7463   -9.5106 C   0  0  0  0  0  0  0  0  0  0  0  0
   -8.2820    8.7349   -9.9857 N   0  0  0  0  0  0  0  0  0  0  0  0
   -8.4162    8.8630  -11.2985 N   0  0  0  0  0  0  0  0  0  0  0  0
   -7.3216    9.8824   -8.0245 C   0  0  0  0  0  0  0  0  0  0  0  0
   -4.3612   13.7214  -11.5083 N   0  0  0  0  0  0  0  0  0  0  0  0
   -5.5493   13.6373  -12.1980 C   0  0  0  0  0  0  0  0  0  0  0  0
   -5.9470   14.5254  -12.9531 O   0  0  0  0  0  0  0  0  0  0  0  0
   -5.9509   10.4995   -7.7283 C   0  0  0  0  0  0  0  0  0  0  0  0
   -5.8798   11.7709   -7.1545 C   0  0  0  0  0  0  0  0  0  0  0  0
   -4.6121   12.3149   -6.9130 C   0  0  0  0  0  0  0  0  0  0  0  0
   -3.4406   11.5618   -7.2441 C   0  0  0  0  0  0  0  0  0  0  0  0
   -3.5052   10.2836   -7.8087 C   0  0  0  0  0  0  0  0  0  0  0  0
   -4.7939    9.7786   -8.0440 C   0  0  0  0  0  0  0  0  0  0  0  0
   -4.0930   13.5444   -6.3685 C   0  0  0  0  0  0  0  0  0  0  0  0
   -2.7888   13.5284   -6.3764 N   0  0  0  0  0  0  0  0  0  0  0  0
   -2.3823   12.3688   -6.8823 N   0  0  0  0  0  0  0  0  0  0  0  0
   -0.9528   12.1034   -6.9863 C   0  0  0  0  0  0  0  0  0  0  0  0
   -3.7146   12.5761  -10.8355 C   0  0  0  0  0  0  0  0  0  0  0  0
   -2.2074   12.9376  -10.9559 C   0  0  2  0  0  0  0  0  0  0  0  0
   -2.1889   14.4652  -10.9572 C   0  0  0  0  0  0  0  0  0  0  0  0
   -3.5166   14.9141  -11.6000 C   0  0  0  0  0  0  0  0  0  0  0  0
   -1.6730   12.4527  -12.1791 O   0  0  0  0  0  0  0  0  0  0  0  0
   -5.4953   11.6077  -10.3509 H   0  0  0  0  0  0  0  0  0  0  0  0
   -6.9981   12.5594  -10.1005 H   0  0  0  0  0  0  0  0  0  0  0  0
   -8.1971   10.1280  -13.8891 H   0  0  0  0  0  0  0  0  0  0  0  0
   -6.9038   12.2545  -14.0846 H   0  0  0  0  0  0  0  0  0  0  0  0
   -8.0145    9.5753   -7.2551 H   0  0  0  0  0  0  0  0  0  0  0  0
   -6.4097   12.4625   -7.8260 H   0  0  0  0  0  0  0  0  0  0  0  0
   -6.4044   11.7234   -6.1888 H   0  0  0  0  0  0  0  0  0  0  0  0
   -2.6166    9.7188   -8.0493 H   0  0  0  0  0  0  0  0  0  0  0  0
   -4.8960    8.7979   -8.4848 H   0  0  0  0  0  0  0  0  0  0  0  0
   -4.6978   14.3623   -6.0057 H   0  0  0  0  0  0  0  0  0  0  0  0
   -0.3901   12.9669   -6.6019 H   0  0  0  0  0  0  0  0  0  0  0  0
   -0.7019   11.2100   -6.3955 H   0  0  0  0  0  0  0  0  0  0  0  0
   -0.6874   11.9326   -8.0401 H   0  0  0  0  0  0  0  0  0  0  0  0
   -4.0252   12.5039   -9.7827 H   0  0  0  0  0  0  0  0  0  0  0  0
   -3.9410   11.6307  -11.3502 H   0  0  0  0  0  0  0  0  0  0  0  0
   -1.6579   12.5499  -10.0854 H   0  0  0  0  0  0  0  0  0  0  0  0
   -2.1163   14.8460   -9.9278 H   0  0  0  0  0  0  0  0  0  0  0  0
   -1.3366   14.8352  -11.5459 H   0  0  0  0  0  0  0  0  0  0  0  0
   -3.3656   15.2093  -12.6488 H   0  0  0  0  0  0  0  0  0  0  0  0
   -3.9592   15.7531  -11.0430 H   0  0  0  0  0  0  0  0  0  0  0  0
   -0.7528   12.6819  -12.2362 H   0  0  0  0  0  0  0  0  0  0  0  0
  1  2  1  0  0  0  0
  1  4  2  0  0  0  0
  1 12  1  0  0  0  0
  2  6  1  0  0  0  0
  3  4  1  0  0  0  0
  3  5  2  0  0  0  0
  5  6  1  0  0  0  0
  5  9  1  0  0  0  0
  6  7  2  0  0  0  0
  7  8  1  0  0  0  0
  7 10  1  0  0  0  0
  8  9  2  0  0  0  0
 10 14  2  0  0  0  0
 11 12  1  0  0  0  0
 11 24  1  0  0  0  0
 11 27  1  0  0  0  0
 12 13  2  0  0  0  0
 14 15  1  0  0  0  0
 14 19  1  0  0  0  0
 15 16  1  0  0  0  0
 16 17  2  0  0  0  0
 16 20  1  0  0  0  0
 17 18  1  0  0  0  0
 17 22  1  0  0  0  0
 18 19  2  0  0  0  0
 20 21  2  0  0  0  0
 21 22  1  0  0  0  0
 22 23  1  0  0  0  0
 24 25  1  0  0  0  0
 25 26  1  0  0  0  0
 25 28  1  0  0  0  0
 26 27  1  0  0  0  0
  2 29  1  0  0  0  0
  2 30  1  0  0  0  0
  3 31  1  0  0  0  0
  4 32  1  0  0  0  0
 10 33  1  0  0  0  0
 15 34  1  0  0  0  0
 15 35  1  0  0  0  0
 18 36  1  0  0  0  0
 19 37  1  0  0  0  0
 20 38  1  0  0  0  0
 23 39  1  0  0  0  0
 23 40  1  0  0  0  0
 23 41  1  0  0  0  0
 24 42  1  0  0  0  0
 24 43  1  0  0  0  0
 25 44  1  0  0  0  0
 26 45  1  0  0  0  0
 26 46  1  0  0  0  0
 27 47  1  0  0  0  0
 27 48  1  0  0  0  0
 28 49  1  0  0  0  0
M  END
> <Name>
42

> <IC50[uM]>
0.004

$$$$
42
  -OEChem-05192314333D
 Structure written by MMmdl.
 49 53  0     1  0  0  0  0  0999 V2000
   -6.3691   12.3596  -12.0090 C   0  0  0  0  0  0  0  0  0  0  0  0
   -6.5082   11.8040  -10.7325 C   0  0  0  0  0  0  0  0  0  0  0  0
   -7.7289   10.5800  -13.0272 C   0  0  0  0  0  0  0  0  0  0  0  0
   -6.9931   11.7723  -13.1223 C   0  0  0  0  0  0  0  0  0  0  0  0
   -7.8208   10.0120  -11.7545 C   0  0  0  0  0  0  0  0  0  0  0  0
   -7.2366   10.6190  -10.6002 C   0  0  0  0  0  0  0  0  0  0  0  0
   -7.6071    9.7463   -9.5106 C   0  0  0  0  0  0  0  0  0  0  0  0
   -8.2820    8.7349   -9.9857 N   0  0  0  0  0  0  0  0  0  0  0  0
   -8.4162    8.8630  -11.2985 N   0  0  0  0  0  0  0  0  0  0  0  0
   -7.3216    9.8824   -8.0245 C   0  0  0  0  0  0  0  0  0  0  0  0
   -4.3612   13.7214  -11.5083 N   0  0  0  0  0  0  0  0  0  0  0  0
   -5.5493   13.6373  -12.1980 C   0  0  0  0  0  0  0  0  0  0  0  0
   -5.9470   14.5254  -12.9531 O   0  0  0  0  0  0  0  0  0  0  0  0
   -5.9509   10.4995   -7.7283 C   0  0  0  0  0  0  0  0  0  0  0  0
   -5.8798   11.7709   -7.1545 C   0  0  0  0  0  0  0  0  0  0  0  0
   -4.6121   12.3149   -6.9130 C   0  0  0  0  0  0  0  0  0  0  0  0
   -3.4406   11.5618   -7.2441 C   0  0  0  0  0  0  0  0  0  0  0  0
   -3.5052   10.2836   -7.8087 C   0  0  0  0  0  0  0  0  0  0  0  0
   -4.7939    9.7786   -8.0440 C   0  0  0  0  0  0  0  0  0  0  0  0
   -4.0930   13.5444   -6.3685 C   0  0  0  0  0  0  0  0  0  0  0  0
   -2.7888   13.5284   -6.3764 N   0  0  0  0  0  0  0  0  0  0  0  0
   -2.3823   12.3688   -6.8823 N   0  0  0  0  0  0  0  0  0  0  0  0
   -0.9528   12.1034   -6.9863 C   0  0  0  0  0  0  0  0  0  0  0  0
   -3.7146   12.5761  -10.8355 C   0  0  0  0  0  0  0  0  0  0  0  0
   -2.2074   12.9376  -10.9559 C   0  0  2  0  0  0  0  0  0  0  0  0
   -2.1889   14.4652  -10.9572 C   0  0  0  0  0  0  0  0  0  0  0  0
   -3.5166   14.9141  -11.6000 C   0  0  0  0  0  0  0  0  0  0  0  0
   -1.6730   12.4527  -12.1791 O   0  0  0  0  0  0  0  0  0  0  0  0
   -5.4702   11.7501  -12.1833 H   0  0  0  0  0  0  0  0  0  0  0  0
   -6.0635   12.2793   -9.8707 H   0  0  0  0  0  0  0  0  0  0  0  0
   -8.1971   10.1280  -13.8891 H   0  0  0  0  0  0  0  0  0  0  0  0
   -6.9038   12.2545  -14.0846 H   0  0  0  0  0  0  0  0  0  0  0  0
   -8.0145    9.5753   -7.2551 H   0  0  0  0  0  0  0  0  0  0  0  0
   -6.7764   12.3186   -6.9043 H   0  0  0  0  0  0  0  0  0  0  0  0
   -2.6166    9.7188   -8.0493 H   0  0  0  0  0  0  0  0  0  0  0  0
   -4.8594    8.8342   -7.4838 H   0  0  0  0  0  0  0  0  0  0  0  0
   -4.8484    9.5696   -9.1226 H   0  0  0  0  0  0  0  0  0  0  0  0
   -4.6978   14.3623   -6.0057 H   0  0  0  0  0  0  0  0  0  0  0  0
   -0.3901   12.9669   -6.6019 H   0  0  0  0  0  0  0  0  0  0  0  0
   -0.7019   11.2100   -6.3955 H   0  0  0  0  0  0  0  0  0  0  0  0
   -0.6874   11.9326   -8.0401 H   0  0  0  0  0  0  0  0  0  0  0  0
   -4.0252   12.5039   -9.7827 H   0  0  0  0  0  0  0  0  0  0  0  0
   -3.9410   11.6307  -11.3502 H   0  0  0  0  0  0  0  0  0  0  0  0
   -1.6579   12.5499  -10.0854 H   0  0  0  0  0  0  0  0  0  0  0  0
   -2.1163   14.8460   -9.9278 H   0  0  0  0  0  0  0  0  0  0  0  0
   -1.3366   14.8352  -11.5459 H   0  0  0  0  0  0  0  0  0  0  0  0
   -3.3656   15.2093  -12.6488 H   0  0  0  0  0  0  0  0  0  0  0  0
   -3.9592   15.7531  -11.0430 H   0  0  0  0  0  0  0  0  0  0  0  0
   -0.7528   12.6819  -12.2362 H   0  0  0  0  0  0  0  0  0  0  0  0
  1  2  1  0  0  0  0
  1  4  1  0  0  0  0
  1 12  1  0  0  0  0
  2  6  2  0  0  0  0
  3  4  2  0  0  0  0
  3  5  1  0  0  0  0
  5  6  1  0  0  0  0
  5  9  2  0  0  0  0
  6  7  1  0  0  0  0
  7  8  2  0  0  0  0
  7 10  1  0  0  0  0
  8  9  1  0  0  0  0
 10 14  2  0  0  0  0
 11 12  1  0  0  0  0
 11 24  1  0  0  0  0
 11 27  1  0  0  0  0
 12 13  2  0  0  0  0
 14 15  1  0  0  0  0
 14 19  1  0  0  0  0
 15 16  2  0  0  0  0
 16 17  1  0  0  0  0
 16 20  1  0  0  0  0
 17 18  2  0  0  0  0
 17 22  1  0  0  0  0
 18 19  1  0  0  0  0
 20 21  2  0  0  0  0
 21 22  1  0  0  0  0
 22 23  1  0  0  0  0
 24 25  1  0  0  0  0
 25 26  1  0  0  0  0
 25 28  1  0  0  0  0
 26 27  1  0  0  0  0
  1 29  1  0  0  0  0
  2 30  1  0  0  0  0
  3 31  1  0  0  0  0
  4 32  1  0  0  0  0
 10 33  1  0  0  0  0
 15 34  1  0  0  0  0
 18 35  1  0  0  0  0
 19 36  1  0  0  0  0
 19 37  1  0  0  0  0
 20 38  1  0  0  0  0
 23 39  1  0  0  0  0
 23 40  1  0  0  0  0
 23 41  1  0  0  0  0
 24 42  1  0  0  0  0
 24 43  1  0  0  0  0
 25 44  1  0  0  0  0
 26 45  1  0  0  0  0
 26 46  1  0  0  0  0
 27 47  1  0  0  0  0
 27 48  1  0  0  0  0
 28 49  1  0  0  0  0
M  END
> <Name>
42

> <IC50[uM]>
0.004

$$$$
42
  -OEChem-05192314333D
 Structure written by MMmdl.
 49 53  0     1  0  0  0  0  0999 V2000
   -6.3691   12.3596  -12.0090 C   0  0  0  0  0  0  0  0  0  0  0  0
   -6.5082   11.8040  -10.7325 C   0  0  0  0  0  0  0  0  0  0  0  0
   -7.7289   10.5800  -13.0272 C   0  0  0  0  0  0  0  0  0  0  0  0
   -6.9931   11.7723  -13.1223 C   0  0  0  0  0  0  0  0  0  0  0  0
   -7.8208   10.0120  -11.7545 C   0  0  0  0  0  0  0  0  0  0  0  0
   -7.2366   10.6190  -10.6002 C   0  0  0  0  0  0  0  0  0  0  0  0
   -7.6071    9.7463   -9.5106 C   0  0  0  0  0  0  0  0  0  0  0  0
   -8.2820    8.7349   -9.9857 N   0  0  0  0  0  0  0  0  0  0  0  0
   -8.4162    8.8630  -11.2985 N   0  0  0  0  0  0  0  0  0  0  0  0
   -7.3216    9.8824   -8.0245 C   0  0  0  0  0  0  0  0  0  0  0  0
   -4.3612   13.7214  -11.5083 N   0  0  0  0  0  0  0  0  0  0  0  0
   -5.5493   13.6373  -12.1980 C   0  0  0  0  0  0  0  0  0  0  0  0
   -5.9470   14.5254  -12.9531 O   0  0  0  0  0  0  0  0  0  0  0  0
   -5.9509   10.4995   -7.7283 C   0  0  0  0  0  0  0  0  0  0  0  0
   -5.8798   11.7709   -7.1545 C   0  0  0  0  0  0  0  0  0  0  0  0
   -4.6121   12.3149   -6.9130 C   0  0  0  0  0  0  0  0  0  0  0  0
   -3.4406   11.5618   -7.2441 C   0  0  0  0  0  0  0  0  0  0  0  0
   -3.5052   10.2836   -7.8087 C   0  0  0  0  0  0  0  0  0  0  0  0
   -4.7939    9.7786   -8.0440 C   0  0  0  0  0  0  0  0  0  0  0  0
   -4.0930   13.5444   -6.3685 C   0  0  0  0  0  0  0  0  0  0  0  0
   -2.7888   13.5284   -6.3764 N   0  0  0  0  0  0  0  0  0  0  0  0
   -2.3823   12.3688   -6.8823 N   0  0  0  0  0  0  0  0  0  0  0  0
   -0.9528   12.1034   -6.9863 C   0  0  0  0  0  0  0  0  0  0  0  0
   -3.7146   12.5761  -10.8355 C   0  0  0  0  0  0  0  0  0  0  0  0
   -2.2074   12.9376  -10.9559 C   0  0  2  0  0  0  0  0  0  0  0  0
   -2.1889   14.4652  -10.9572 C   0  0  0  0  0  0  0  0  0  0  0  0
   -3.5166   14.9141  -11.6000 C   0  0  0  0  0  0  0  0  0  0  0  0
   -1.6730   12.4527  -12.1791 O   0  0  0  0  0  0  0  0  0  0  0  0
   -6.0635   12.2793   -9.8707 H   0  0  0  0  0  0  0  0  0  0  0  0
   -8.1971   10.1280  -13.8891 H   0  0  0  0  0  0  0  0  0  0  0  0
   -6.9038   12.2545  -14.0846 H   0  0  0  0  0  0  0  0  0  0  0  0
   -6.3176   10.0352  -10.7569 H   0  0  0  0  0  0  0  0  0  0  0  0
   -8.0145    9.5753   -7.2551 H   0  0  0  0  0  0  0  0  0  0  0  0
   -6.7764   12.3186   -6.9043 H   0  0  0  0  0  0  0  0  0  0  0  0
   -2.6166    9.7188   -8.0493 H   0  0  0  0  0  0  0  0  0  0  0  0
   -4.8594    8.8342   -7.4838 H   0  0  0  0  0  0  0  0  0  0  0  0
   -4.8484    9.5696   -9.1226 H   0  0  0  0  0  0  0  0  0  0  0  0
   -4.6978   14.3623   -6.0057 H   0  0  0  0  0  0  0  0  0  0  0  0
   -0.3901   12.9669   -6.6019 H   0  0  0  0  0  0  0  0  0  0  0  0
   -0.7019   11.2100   -6.3955 H   0  0  0  0  0  0  0  0  0  0  0  0
   -0.6874   11.9326   -8.0401 H   0  0  0  0  0  0  0  0  0  0  0  0
   -4.0252   12.5039   -9.7827 H   0  0  0  0  0  0  0  0  0  0  0  0
   -3.9410   11.6307  -11.3502 H   0  0  0  0  0  0  0  0  0  0  0  0
   -1.6579   12.5499  -10.0854 H   0  0  0  0  0  0  0  0  0  0  0  0
   -2.1163   14.8460   -9.9278 H   0  0  0  0  0  0  0  0  0  0  0  0
   -1.3366   14.8352  -11.5459 H   0  0  0  0  0  0  0  0  0  0  0  0
   -3.3656   15.2093  -12.6488 H   0  0  0  0  0  0  0  0  0  0  0  0
   -3.9592   15.7531  -11.0430 H   0  0  0  0  0  0  0  0  0  0  0  0
   -0.7528   12.6819  -12.2362 H   0  0  0  0  0  0  0  0  0  0  0  0
  1  2  2  0  0  0  0
  1  4  1  0  0  0  0
  1 12  1  0  0  0  0
  2  6  1  0  0  0  0
  3  4  2  0  0  0  0
  3  5  1  0  0  0  0
  5  6  1  0  0  0  0
  5  9  2  0  0  0  0
  6  7  1  0  0  0  0
  7  8  2  0  0  0  0
  7 10  1  0  0  0  0
  8  9  1  0  0  0  0
 10 14  2  0  0  0  0
 11 12  1  0  0  0  0
 11 24  1  0  0  0  0
 11 27  1  0  0  0  0
 12 13  2  0  0  0  0
 14 15  1  0  0  0  0
 14 19  1  0  0  0  0
 15 16  2  0  0  0  0
 16 17  1  0  0  0  0
 16 20  1  0  0  0  0
 17 18  2  0  0  0  0
 17 22  1  0  0  0  0
 18 19  1  0  0  0  0
 20 21  2  0  0  0  0
 21 22  1  0  0  0  0
 22 23  1  0  0  0  0
 24 25  1  0  0  0  0
 25 26  1  0  0  0  0
 25 28  1  0  0  0  0
 26 27  1  0  0  0  0
  2 29  1  0  0  0  0
  3 30  1  0  0  0  0
  4 31  1  0  0  0  0
  6 32  1  0  0  0  0
 10 33  1  0  0  0  0
 15 34  1  0  0  0  0
 18 35  1  0  0  0  0
 19 36  1  0  0  0  0
 19 37  1  0  0  0  0
 20 38  1  0  0  0  0
 23 39  1  0  0  0  0
 23 40  1  0  0  0  0
 23 41  1  0  0  0  0
 24 42  1  0  0  0  0
 24 43  1  0  0  0  0
 25 44  1  0  0  0  0
 26 45  1  0  0  0  0
 26 46  1  0  0  0  0
 27 47  1  0  0  0  0
 27 48  1  0  0  0  0
 28 49  1  0  0  0  0
M  END
> <Name>
42

> <IC50[uM]>
0.004

$$$$
42
  -OEChem-05192314333D
 Structure written by MMmdl.
 49 53  0     1  0  0  0  0  0999 V2000
   -6.3691   12.3596  -12.0090 C   0  0  0  0  0  0  0  0  0  0  0  0
   -6.5082   11.8040  -10.7325 C   0  0  0  0  0  0  0  0  0  0  0  0
   -7.7289   10.5800  -13.0272 C   0  0  0  0  0  0  0  0  0  0  0  0
   -6.9931   11.7723  -13.1223 C   0  0  0  0  0  0  0  0  0  0  0  0
   -7.8208   10.0120  -11.7545 C   0  0  0  0  0  0  0  0  0  0  0  0
   -7.2366   10.6190  -10.6002 C   0  0  0  0  0  0  0  0  0  0  0  0
   -7.6071    9.7463   -9.5106 C   0  0  0  0  0  0  0  0  0  0  0  0
   -8.2820    8.7349   -9.9857 N   0  0  0  0  0  0  0  0  0  0  0  0
   -8.4162    8.8630  -11.2985 N   0  0  0  0  0  0  0  0  0  0  0  0
   -7.3216    9.8824   -8.0245 C   0  0  0  0  0  0  0  0  0  0  0  0
   -4.3612   13.7214  -11.5083 N   0  0  0  0  0  0  0  0  0  0  0  0
   -5.5493   13.6373  -12.1980 C   0  0  0  0  0  0  0  0  0  0  0  0
   -5.9470   14.5254  -12.9531 O   0  0  0  0  0  0  0  0  0  0  0  0
   -5.9509   10.4995   -7.7283 C   0  0  0  0  0  0  0  0  0  0  0  0
   -5.8798   11.7709   -7.1545 C   0  0  0  0  0  0  0  0  0  0  0  0
   -4.6121   12.3149   -6.9130 C   0  0  0  0  0  0  0  0  0  0  0  0
   -3.4406   11.5618   -7.2441 C   0  0  0  0  0  0  0  0  0  0  0  0
   -3.5052   10.2836   -7.8087 C   0  0  0  0  0  0  0  0  0  0  0  0
   -4.7939    9.7786   -8.0440 C   0  0  0  0  0  0  0  0  0  0  0  0
   -4.0930   13.5444   -6.3685 C   0  0  0  0  0  0  0  0  0  0  0  0
   -2.7888   13.5284   -6.3764 N   0  0  0  0  0  0  0  0  0  0  0  0
   -2.3823   12.3688   -6.8823 N   0  0  0  0  0  0  0  0  0  0  0  0
   -0.9528   12.1034   -6.9863 C   0  0  0  0  0  0  0  0  0  0  0  0
   -3.7146   12.5761  -10.8355 C   0  0  0  0  0  0  0  0  0  0  0  0
   -2.2074   12.9376  -10.9559 C   0  0  2  0  0  0  0  0  0  0  0  0
   -2.1889   14.4652  -10.9572 C   0  0  0  0  0  0  0  0  0  0  0  0
   -3.5166   14.9141  -11.6000 C   0  0  0  0  0  0  0  0  0  0  0  0
   -1.6730   12.4527  -12.1791 O   0  0  0  0  0  0  0  0  0  0  0  0
   -6.0635   12.2793   -9.8707 H   0  0  0  0  0  0  0  0  0  0  0  0
   -8.7510   10.7876  -13.3767 H   0  0  0  0  0  0  0  0  0  0  0  0
   -7.2574    9.8407  -13.6914 H   0  0  0  0  0  0  0  0  0  0  0  0
   -6.9038   12.2545  -14.0846 H   0  0  0  0  0  0  0  0  0  0  0  0
   -8.0145    9.5753   -7.2551 H   0  0  0  0  0  0  0  0  0  0  0  0
   -6.7764   12.3186   -6.9043 H   0  0  0  0  0  0  0  0  0  0  0  0
   -2.6166    9.7188   -8.0493 H   0  0  0  0  0  0  0  0  0  0  0  0
   -4.8594    8.8342   -7.4838 H   0  0  0  0  0  0  0  0  0  0  0  0
   -4.8484    9.5696   -9.1226 H   0  0  0  0  0  0  0  0  0  0  0  0
   -4.6978   14.3623   -6.0057 H   0  0  0  0  0  0  0  0  0  0  0  0
   -0.3901   12.9669   -6.6019 H   0  0  0  0  0  0  0  0  0  0  0  0
   -0.7019   11.2100   -6.3955 H   0  0  0  0  0  0  0  0  0  0  0  0
   -0.6874   11.9326   -8.0401 H   0  0  0  0  0  0  0  0  0  0  0  0
   -4.0252   12.5039   -9.7827 H   0  0  0  0  0  0  0  0  0  0  0  0
   -3.9410   11.6307  -11.3502 H   0  0  0  0  0  0  0  0  0  0  0  0
   -1.6579   12.5499  -10.0854 H   0  0  0  0  0  0  0  0  0  0  0  0
   -2.1163   14.8460   -9.9278 H   0  0  0  0  0  0  0  0  0  0  0  0
   -1.3366   14.8352  -11.5459 H   0  0  0  0  0  0  0  0  0  0  0  0
   -3.3656   15.2093  -12.6488 H   0  0  0  0  0  0  0  0  0  0  0  0
   -3.9592   15.7531  -11.0430 H   0  0  0  0  0  0  0  0  0  0  0  0
   -0.7528   12.6819  -12.2362 H   0  0  0  0  0  0  0  0  0  0  0  0
  1  2  1  0  0  0  0
  1  4  2  0  0  0  0
  1 12  1  0  0  0  0
  2  6  2  0  0  0  0
  3  4  1  0  0  0  0
  3  5  1  0  0  0  0
  5  6  1  0  0  0  0
  5  9  2  0  0  0  0
  6  7  1  0  0  0  0
  7  8  2  0  0  0  0
  7 10  1  0  0  0  0
  8  9  1  0  0  0  0
 10 14  2  0  0  0  0
 11 12  1  0  0  0  0
 11 24  1  0  0  0  0
 11 27  1  0  0  0  0
 12 13  2  0  0  0  0
 14 15  1  0  0  0  0
 14 19  1  0  0  0  0
 15 16  2  0  0  0  0
 16 17  1  0  0  0  0
 16 20  1  0  0  0  0
 17 18  2  0  0  0  0
 17 22  1  0  0  0  0
 18 19  1  0  0  0  0
 20 21  2  0  0  0  0
 21 22  1  0  0  0  0
 22 23  1  0  0  0  0
 24 25  1  0  0  0  0
 25 26  1  0  0  0  0
 25 28  1  0  0  0  0
 26 27  1  0  0  0  0
  2 29  1  0  0  0  0
  3 30  1  0  0  0  0
  3 31  1  0  0  0  0
  4 32  1  0  0  0  0
 10 33  1  0  0  0  0
 15 34  1  0  0  0  0
 18 35  1  0  0  0  0
 19 36  1  0  0  0  0
 19 37  1  0  0  0  0
 20 38  1  0  0  0  0
 23 39  1  0  0  0  0
 23 40  1  0  0  0  0
 23 41  1  0  0  0  0
 24 42  1  0  0  0  0
 24 43  1  0  0  0  0
 25 44  1  0  0  0  0
 26 45  1  0  0  0  0
 26 46  1  0  0  0  0
 27 47  1  0  0  0  0
 27 48  1  0  0  0  0
 28 49  1  0  0  0  0
M  END
> <Name>
42

> <IC50[uM]>
0.004

$$$$
42
  -OEChem-05192314333D
 Structure written by MMmdl.
 49 53  0     1  0  0  0  0  0999 V2000
   -6.3691   12.3596  -12.0090 C   0  0  0  0  0  0  0  0  0  0  0  0
   -6.5082   11.8040  -10.7325 C   0  0  0  0  0  0  0  0  0  0  0  0
   -7.7289   10.5800  -13.0272 C   0  0  0  0  0  0  0  0  0  0  0  0
   -6.9931   11.7723  -13.1223 C   0  0  0  0  0  0  0  0  0  0  0  0
   -7.8208   10.0120  -11.7545 C   0  0  0  0  0  0  0  0  0  0  0  0
   -7.2366   10.6190  -10.6002 C   0  0  0  0  0  0  0  0  0  0  0  0
   -7.6071    9.7463   -9.5106 C   0  0  0  0  0  0  0  0  0  0  0  0
   -8.2820    8.7349   -9.9857 N   0  0  0  0  0  0  0  0  0  0  0  0
   -8.4162    8.8630  -11.2985 N   0  0  0  0  0  0  0  0  0  0  0  0
   -7.3216    9.8824   -8.0245 C   0  0  0  0  0  0  0  0  0  0  0  0
   -4.3612   13.7214  -11.5083 N   0  0  0  0  0  0  0  0  0  0  0  0
   -5.5493   13.6373  -12.1980 C   0  0  0  0  0  0  0  0  0  0  0  0
   -5.9470   14.5254  -12.9531 O   0  0  0  0  0  0  0  0  0  0  0  0
   -5.9509   10.4995   -7.7283 C   0  0  0  0  0  0  0  0  0  0  0  0
   -5.8798   11.7709   -7.1545 C   0  0  0  0  0  0  0  0  0  0  0  0
   -4.6121   12.3149   -6.9130 C   0  0  0  0  0  0  0  0  0  0  0  0
   -3.4406   11.5618   -7.2441 C   0  0  0  0  0  0  0  0  0  0  0  0
   -3.5052   10.2836   -7.8087 C   0  0  0  0  0  0  0  0  0  0  0  0
   -4.7939    9.7786   -8.0440 C   0  0  0  0  0  0  0  0  0  0  0  0
   -4.0930   13.5444   -6.3685 C   0  0  0  0  0  0  0  0  0  0  0  0
   -2.7888   13.5284   -6.3764 N   0  0  0  0  0  0  0  0  0  0  0  0
   -2.3823   12.3688   -6.8823 N   0  0  0  0  0  0  0  0  0  0  0  0
   -0.9528   12.1034   -6.9863 C   0  0  0  0  0  0  0  0  0  0  0  0
   -3.7146   12.5761  -10.8355 C   0  0  0  0  0  0  0  0  0  0  0  0
   -2.2074   12.9376  -10.9559 C   0  0  2  0  0  0  0  0  0  0  0  0
   -2.1889   14.4652  -10.9572 C   0  0  0  0  0  0  0  0  0  0  0  0
   -3.5166   14.9141  -11.6000 C   0  0  0  0  0  0  0  0  0  0  0  0
   -1.6730   12.4527  -12.1791 O   0  0  0  0  0  0  0  0  0  0  0  0
   -6.0635   12.2793   -9.8707 H   0  0  0  0  0  0  0  0  0  0  0  0
   -8.1971   10.1280  -13.8891 H   0  0  0  0  0  0  0  0  0  0  0  0
   -6.9038   12.2545  -14.0846 H   0  0  0  0  0  0  0  0  0  0  0  0
   -6.8882    9.4572  -11.9348 H   0  0  0  0  0  0  0  0  0  0  0  0
   -8.0145    9.5753   -7.2551 H   0  0  0  0  0  0  0  0  0  0  0  0
   -6.7764   12.3186   -6.9043 H   0  0  0  0  0  0  0  0  0  0  0  0
   -2.6166    9.7188   -8.0493 H   0  0  0  0  0  0  0  0  0  0  0  0
   -4.8594    8.8342   -7.4838 H   0  0  0  0  0  0  0  0  0  0  0  0
   -4.8484    9.5696   -9.1226 H   0  0  0  0  0  0  0  0  0  0  0  0
   -4.6978   14.3623   -6.0057 H   0  0  0  0  0  0  0  0  0  0  0  0
   -0.3901   12.9669   -6.6019 H   0  0  0  0  0  0  0  0  0  0  0  0
   -0.7019   11.2100   -6.3955 H   0  0  0  0  0  0  0  0  0  0  0  0
   -0.6874   11.9326   -8.0401 H   0  0  0  0  0  0  0  0  0  0  0  0
   -4.0252   12.5039   -9.7827 H   0  0  0  0  0  0  0  0  0  0  0  0
   -3.9410   11.6307  -11.3502 H   0  0  0  0  0  0  0  0  0  0  0  0
   -1.6579   12.5499  -10.0854 H   0  0  0  0  0  0  0  0  0  0  0  0
   -2.1163   14.8460   -9.9278 H   0  0  0  0  0  0  0  0  0  0  0  0
   -1.3366   14.8352  -11.5459 H   0  0  0  0  0  0  0  0  0  0  0  0
   -3.3656   15.2093  -12.6488 H   0  0  0  0  0  0  0  0  0  0  0  0
   -3.9592   15.7531  -11.0430 H   0  0  0  0  0  0  0  0  0  0  0  0
   -0.7528   12.6819  -12.2362 H   0  0  0  0  0  0  0  0  0  0  0  0
  1  2  2  0  0  0  0
  1  4  1  0  0  0  0
  1 12  1  0  0  0  0
  2  6  1  0  0  0  0
  3  4  2  0  0  0  0
  3  5  1  0  0  0  0
  5  6  1  0  0  0  0
  5  9  1  0  0  0  0
  6  7  2  0  0  0  0
  7  8  1  0  0  0  0
  7 10  1  0  0  0  0
  8  9  2  0  0  0  0
 10 14  2  0  0  0  0
 11 12  1  0  0  0  0
 11 24  1  0  0  0  0
 11 27  1  0  0  0  0
 12 13  2  0  0  0  0
 14 15  1  0  0  0  0
 14 19  1  0  0  0  0
 15 16  2  0  0  0  0
 16 17  1  0  0  0  0
 16 20  1  0  0  0  0
 17 18  2  0  0  0  0
 17 22  1  0  0  0  0
 18 19  1  0  0  0  0
 20 21  2  0  0  0  0
 21 22  1  0  0  0  0
 22 23  1  0  0  0  0
 24 25  1  0  0  0  0
 25 26  1  0  0  0  0
 25 28  1  0  0  0  0
 26 27  1  0  0  0  0
  2 29  1  0  0  0  0
  3 30  1  0  0  0  0
  4 31  1  0  0  0  0
  5 32  1  0  0  0  0
 10 33  1  0  0  0  0
 15 34  1  0  0  0  0
 18 35  1  0  0  0  0
 19 36  1  0  0  0  0
 19 37  1  0  0  0  0
 20 38  1  0  0  0  0
 23 39  1  0  0  0  0
 23 40  1  0  0  0  0
 23 41  1  0  0  0  0
 24 42  1  0  0  0  0
 24 43  1  0  0  0  0
 25 44  1  0  0  0  0
 26 45  1  0  0  0  0
 26 46  1  0  0  0  0
 27 47  1  0  0  0  0
 27 48  1  0  0  0  0
 28 49  1  0  0  0  0
M  END
> <Name>
42

> <IC50[uM]>
0.004

$$$$
42
  -OEChem-05192314333D
 Structure written by MMmdl.
 49 53  0     1  0  0  0  0  0999 V2000
   -6.3691   12.3596  -12.0090 C   0  0  0  0  0  0  0  0  0  0  0  0
   -6.5082   11.8040  -10.7325 C   0  0  0  0  0  0  0  0  0  0  0  0
   -7.7289   10.5800  -13.0272 C   0  0  0  0  0  0  0  0  0  0  0  0
   -6.9931   11.7723  -13.1223 C   0  0  0  0  0  0  0  0  0  0  0  0
   -7.8208   10.0120  -11.7545 C   0  0  0  0  0  0  0  0  0  0  0  0
   -7.2366   10.6190  -10.6002 C   0  0  0  0  0  0  0  0  0  0  0  0
   -7.6071    9.7463   -9.5106 C   0  0  0  0  0  0  0  0  0  0  0  0
   -8.2820    8.7349   -9.9857 N   0  0  0  0  0  0  0  0  0  0  0  0
   -8.4162    8.8630  -11.2985 N   0  0  0  0  0  0  0  0  0  0  0  0
   -7.3216    9.8824   -8.0245 C   0  0  0  0  0  0  0  0  0  0  0  0
   -4.3612   13.7214  -11.5083 N   0  0  0  0  0  0  0  0  0  0  0  0
   -5.5493   13.6373  -12.1980 C   0  0  0  0  0  0  0  0  0  0  0  0
   -5.9470   14.5254  -12.9531 O   0  0  0  0  0  0  0  0  0  0  0  0
   -5.9509   10.4995   -7.7283 C   0  0  0  0  0  0  0  0  0  0  0  0
   -5.8798   11.7709   -7.1545 C   0  0  0  0  0  0  0  0  0  0  0  0
   -4.6121   12.3149   -6.9130 C   0  0  0  0  0  0  0  0  0  0  0  0
   -3.4406   11.5618   -7.2441 C   0  0  0  0  0  0  0  0  0  0  0  0
   -3.5052   10.2836   -7.8087 C   0  0  0  0  0  0  0  0  0  0  0  0
   -4.7939    9.7786   -8.0440 C   0  0  0  0  0  0  0  0  0  0  0  0
   -4.0930   13.5444   -6.3685 C   0  0  0  0  0  0  0  0  0  0  0  0
   -2.7888   13.5284   -6.3764 N   0  0  0  0  0  0  0  0  0  0  0  0
   -2.3823   12.3688   -6.8823 N   0  0  0  0  0  0  0  0  0  0  0  0
   -0.9528   12.1034   -6.9863 C   0  0  0  0  0  0  0  0  0  0  0  0
   -3.7146   12.5761  -10.8355 C   0  0  0  0  0  0  0  0  0  0  0  0
   -2.2074   12.9376  -10.9559 C   0  0  2  0  0  0  0  0  0  0  0  0
   -2.1889   14.4652  -10.9572 C   0  0  0  0  0  0  0  0  0  0  0  0
   -3.5166   14.9141  -11.6000 C   0  0  0  0  0  0  0  0  0  0  0  0
   -1.6730   12.4527  -12.1791 O   0  0  0  0  0  0  0  0  0  0  0  0
   -6.0635   12.2793   -9.8707 H   0  0  0  0  0  0  0  0  0  0  0  0
   -8.1971   10.1280  -13.8891 H   0  0  0  0  0  0  0  0  0  0  0  0
   -7.6854   12.5289  -13.5202 H   0  0  0  0  0  0  0  0  0  0  0  0
   -6.1958   11.5828  -13.8561 H   0  0  0  0  0  0  0  0  0  0  0  0
   -8.0145    9.5753   -7.2551 H   0  0  0  0  0  0  0  0  0  0  0  0
   -6.7764   12.3186   -6.9043 H   0  0  0  0  0  0  0  0  0  0  0  0
   -2.6166    9.7188   -8.0493 H   0  0  0  0  0  0  0  0  0  0  0  0
   -4.8594    8.8342   -7.4838 H   0  0  0  0  0  0  0  0  0  0  0  0
   -4.8484    9.5696   -9.1226 H   0  0  0  0  0  0  0  0  0  0  0  0
   -4.6978   14.3623   -6.0057 H   0  0  0  0  0  0  0  0  0  0  0  0
   -0.3901   12.9669   -6.6019 H   0  0  0  0  0  0  0  0  0  0  0  0
   -0.7019   11.2100   -6.3955 H   0  0  0  0  0  0  0  0  0  0  0  0
   -0.6874   11.9326   -8.0401 H   0  0  0  0  0  0  0  0  0  0  0  0
   -4.0252   12.5039   -9.7827 H   0  0  0  0  0  0  0  0  0  0  0  0
   -3.9410   11.6307  -11.3502 H   0  0  0  0  0  0  0  0  0  0  0  0
   -1.6579   12.5499  -10.0854 H   0  0  0  0  0  0  0  0  0  0  0  0
   -2.1163   14.8460   -9.9278 H   0  0  0  0  0  0  0  0  0  0  0  0
   -1.3366   14.8352  -11.5459 H   0  0  0  0  0  0  0  0  0  0  0  0
   -3.3656   15.2093  -12.6488 H   0  0  0  0  0  0  0  0  0  0  0  0
   -3.9592   15.7531  -11.0430 H   0  0  0  0  0  0  0  0  0  0  0  0
   -0.7528   12.6819  -12.2362 H   0  0  0  0  0  0  0  0  0  0  0  0
  1  2  2  0  0  0  0
  1  4  1  0  0  0  0
  1 12  1  0  0  0  0
  2  6  1  0  0  0  0
  3  4  1  0  0  0  0
  3  5  2  0  0  0  0
  5  6  1  0  0  0  0
  5  9  1  0  0  0  0
  6  7  2  0  0  0  0
  7  8  1  0  0  0  0
  7 10  1  0  0  0  0
  8  9  2  0  0  0  0
 10 14  2  0  0  0  0
 11 12  1  0  0  0  0
 11 24  1  0  0  0  0
 11 27  1  0  0  0  0
 12 13  2  0  0  0  0
 14 15  1  0  0  0  0
 14 19  1  0  0  0  0
 15 16  2  0  0  0  0
 16 17  1  0  0  0  0
 16 20  1  0  0  0  0
 17 18  2  0  0  0  0
 17 22  1  0  0  0  0
 18 19  1  0  0  0  0
 20 21  2  0  0  0  0
 21 22  1  0  0  0  0
 22 23  1  0  0  0  0
 24 25  1  0  0  0  0
 25 26  1  0  0  0  0
 25 28  1  0  0  0  0
 26 27  1  0  0  0  0
  2 29  1  0  0  0  0
  3 30  1  0  0  0  0
  4 31  1  0  0  0  0
  4 32  1  0  0  0  0
 10 33  1  0  0  0  0
 15 34  1  0  0  0  0
 18 35  1  0  0  0  0
 19 36  1  0  0  0  0
 19 37  1  0  0  0  0
 20 38  1  0  0  0  0
 23 39  1  0  0  0  0
 23 40  1  0  0  0  0
 23 41  1  0  0  0  0
 24 42  1  0  0  0  0
 24 43  1  0  0  0  0
 25 44  1  0  0  0  0
 26 45  1  0  0  0  0
 26 46  1  0  0  0  0
 27 47  1  0  0  0  0
 27 48  1  0  0  0  0
 28 49  1  0  0  0  0
M  END
> <Name>
42

> <IC50[uM]>
0.004

$$$$
42
  -OEChem-05192314333D
 Structure written by MMmdl.
 49 53  0     1  0  0  0  0  0999 V2000
   -6.3691   12.3596  -12.0090 C   0  0  0  0  0  0  0  0  0  0  0  0
   -6.5082   11.8040  -10.7325 C   0  0  0  0  0  0  0  0  0  0  0  0
   -7.7289   10.5800  -13.0272 C   0  0  0  0  0  0  0  0  0  0  0  0
   -6.9931   11.7723  -13.1223 C   0  0  0  0  0  0  0  0  0  0  0  0
   -7.8208   10.0120  -11.7545 C   0  0  0  0  0  0  0  0  0  0  0  0
   -7.2366   10.6190  -10.6002 C   0  0  0  0  0  0  0  0  0  0  0  0
   -7.6071    9.7463   -9.5106 C   0  0  0  0  0  0  0  0  0  0  0  0
   -8.2820    8.7349   -9.9857 N   0  0  0  0  0  0  0  0  0  0  0  0
   -8.4162    8.8630  -11.2985 N   0  0  0  0  0  0  0  0  0  0  0  0
   -7.3216    9.8824   -8.0245 C   0  0  0  0  0  0  0  0  0  0  0  0
   -4.3612   13.7214  -11.5083 N   0  0  0  0  0  0  0  0  0  0  0  0
   -5.5493   13.6373  -12.1980 C   0  0  0  0  0  0  0  0  0  0  0  0
   -5.9470   14.5254  -12.9531 O   0  0  0  0  0  0  0  0  0  0  0  0
   -5.9509   10.4995   -7.7283 C   0  0  0  0  0  0  0  0  0  0  0  0
   -5.8798   11.7709   -7.1545 C   0  0  0  0  0  0  0  0  0  0  0  0
   -4.6121   12.3149   -6.9130 C   0  0  0  0  0  0  0  0  0  0  0  0
   -3.4406   11.5618   -7.2441 C   0  0  0  0  0  0  0  0  0  0  0  0
   -3.5052   10.2836   -7.8087 C   0  0  0  0  0  0  0  0  0  0  0  0
   -4.7939    9.7786   -8.0440 C   0  0  0  0  0  0  0  0  0  0  0  0
   -4.0930   13.5444   -6.3685 C   0  0  0  0  0  0  0  0  0  0  0  0
   -2.7888   13.5284   -6.3764 N   0  0  0  0  0  0  0  0  0  0  0  0
   -2.3823   12.3688   -6.8823 N   0  0  0  0  0  0  0  0  0  0  0  0
   -0.9528   12.1034   -6.9863 C   0  0  0  0  0  0  0  0  0  0  0  0
   -3.7146   12.5761  -10.8355 C   0  0  0  0  0  0  0  0  0  0  0  0
   -2.2074   12.9376  -10.9559 C   0  0  2  0  0  0  0  0  0  0  0  0
   -2.1889   14.4652  -10.9572 C   0  0  0  0  0  0  0  0  0  0  0  0
   -3.5166   14.9141  -11.6000 C   0  0  0  0  0  0  0  0  0  0  0  0
   -1.6730   12.4527  -12.1791 O   0  0  0  0  0  0  0  0  0  0  0  0
   -5.4953   11.6077  -10.3509 H   0  0  0  0  0  0  0  0  0  0  0  0
   -6.9981   12.5594  -10.1005 H   0  0  0  0  0  0  0  0  0  0  0  0
   -8.1971   10.1280  -13.8891 H   0  0  0  0  0  0  0  0  0  0  0  0
   -6.9038   12.2545  -14.0846 H   0  0  0  0  0  0  0  0  0  0  0  0
   -8.0145    9.5753   -7.2551 H   0  0  0  0  0  0  0  0  0  0  0  0
   -6.7764   12.3186   -6.9043 H   0  0  0  0  0  0  0  0  0  0  0  0
   -2.6166    9.7188   -8.0493 H   0  0  0  0  0  0  0  0  0  0  0  0
   -4.8594    8.8342   -7.4838 H   0  0  0  0  0  0  0  0  0  0  0  0
   -4.8484    9.5696   -9.1226 H   0  0  0  0  0  0  0  0  0  0  0  0
   -4.6978   14.3623   -6.0057 H   0  0  0  0  0  0  0  0  0  0  0  0
   -0.3901   12.9669   -6.6019 H   0  0  0  0  0  0  0  0  0  0  0  0
   -0.7019   11.2100   -6.3955 H   0  0  0  0  0  0  0  0  0  0  0  0
   -0.6874   11.9326   -8.0401 H   0  0  0  0  0  0  0  0  0  0  0  0
   -4.0252   12.5039   -9.7827 H   0  0  0  0  0  0  0  0  0  0  0  0
   -3.9410   11.6307  -11.3502 H   0  0  0  0  0  0  0  0  0  0  0  0
   -1.6579   12.5499  -10.0854 H   0  0  0  0  0  0  0  0  0  0  0  0
   -2.1163   14.8460   -9.9278 H   0  0  0  0  0  0  0  0  0  0  0  0
   -1.3366   14.8352  -11.5459 H   0  0  0  0  0  0  0  0  0  0  0  0
   -3.3656   15.2093  -12.6488 H   0  0  0  0  0  0  0  0  0  0  0  0
   -3.9592   15.7531  -11.0430 H   0  0  0  0  0  0  0  0  0  0  0  0
   -0.7528   12.6819  -12.2362 H   0  0  0  0  0  0  0  0  0  0  0  0
  1  2  1  0  0  0  0
  1  4  2  0  0  0  0
  1 12  1  0  0  0  0
  2  6  1  0  0  0  0
  3  4  1  0  0  0  0
  3  5  2  0  0  0  0
  5  6  1  0  0  0  0
  5  9  1  0  0  0  0
  6  7  2  0  0  0  0
  7  8  1  0  0  0  0
  7 10  1  0  0  0  0
  8  9  2  0  0  0  0
 10 14  2  0  0  0  0
 11 12  1  0  0  0  0
 11 24  1  0  0  0  0
 11 27  1  0  0  0  0
 12 13  2  0  0  0  0
 14 15  1  0  0  0  0
 14 19  1  0  0  0  0
 15 16  2  0  0  0  0
 16 17  1  0  0  0  0
 16 20  1  0  0  0  0
 17 18  2  0  0  0  0
 17 22  1  0  0  0  0
 18 19  1  0  0  0  0
 20 21  2  0  0  0  0
 21 22  1  0  0  0  0
 22 23  1  0  0  0  0
 24 25  1  0  0  0  0
 25 26  1  0  0  0  0
 25 28  1  0  0  0  0
 26 27  1  0  0  0  0
  2 29  1  0  0  0  0
  2 30  1  0  0  0  0
  3 31  1  0  0  0  0
  4 32  1  0  0  0  0
 10 33  1  0  0  0  0
 15 34  1  0  0  0  0
 18 35  1  0  0  0  0
 19 36  1  0  0  0  0
 19 37  1  0  0  0  0
 20 38  1  0  0  0  0
 23 39  1  0  0  0  0
 23 40  1  0  0  0  0
 23 41  1  0  0  0  0
 24 42  1  0  0  0  0
 24 43  1  0  0  0  0
 25 44  1  0  0  0  0
 26 45  1  0  0  0  0
 26 46  1  0  0  0  0
 27 47  1  0  0  0  0
 27 48  1  0  0  0  0
 28 49  1  0  0  0  0
M  END
> <Name>
42

> <IC50[uM]>
0.004

$$$$
42
  -OEChem-05192314333D
 Structure written by MMmdl.
 49 53  0     1  0  0  0  0  0999 V2000
   -6.3691   12.3596  -12.0090 C   0  0  0  0  0  0  0  0  0  0  0  0
   -6.5082   11.8040  -10.7325 C   0  0  0  0  0  0  0  0  0  0  0  0
   -7.7289   10.5800  -13.0272 C   0  0  0  0  0  0  0  0  0  0  0  0
   -6.9931   11.7723  -13.1223 C   0  0  0  0  0  0  0  0  0  0  0  0
   -7.8208   10.0120  -11.7545 C   0  0  0  0  0  0  0  0  0  0  0  0
   -7.2366   10.6190  -10.6002 C   0  0  0  0  0  0  0  0  0  0  0  0
   -7.6071    9.7463   -9.5106 C   0  0  0  0  0  0  0  0  0  0  0  0
   -8.2820    8.7349   -9.9857 N   0  0  0  0  0  0  0  0  0  0  0  0
   -8.4162    8.8630  -11.2985 N   0  0  0  0  0  0  0  0  0  0  0  0
   -7.3216    9.8824   -8.0245 C   0  0  0  0  0  0  0  0  0  0  0  0
   -4.3612   13.7214  -11.5083 N   0  0  0  0  0  0  0  0  0  0  0  0
   -5.5493   13.6373  -12.1980 C   0  0  0  0  0  0  0  0  0  0  0  0
   -5.9470   14.5254  -12.9531 O   0  0  0  0  0  0  0  0  0  0  0  0
   -5.9509   10.4995   -7.7283 C   0  0  0  0  0  0  0  0  0  0  0  0
   -5.8798   11.7709   -7.1545 C   0  0  0  0  0  0  0  0  0  0  0  0
   -4.6121   12.3149   -6.9130 C   0  0  0  0  0  0  0  0  0  0  0  0
   -3.4406   11.5618   -7.2441 C   0  0  0  0  0  0  0  0  0  0  0  0
   -3.5052   10.2836   -7.8087 C   0  0  0  0  0  0  0  0  0  0  0  0
   -4.7939    9.7786   -8.0440 C   0  0  0  0  0  0  0  0  0  0  0  0
   -4.0930   13.5444   -6.3685 C   0  0  0  0  0  0  0  0  0  0  0  0
   -2.7888   13.5284   -6.3764 N   0  0  0  0  0  0  0  0  0  0  0  0
   -2.3823   12.3688   -6.8823 N   0  0  0  0  0  0  0  0  0  0  0  0
   -0.9528   12.1034   -6.9863 C   0  0  0  0  0  0  0  0  0  0  0  0
   -3.7146   12.5761  -10.8355 C   0  0  0  0  0  0  0  0  0  0  0  0
   -2.2074   12.9376  -10.9559 C   0  0  2  0  0  0  0  0  0  0  0  0
   -2.1889   14.4652  -10.9572 C   0  0  0  0  0  0  0  0  0  0  0  0
   -3.5166   14.9141  -11.6000 C   0  0  0  0  0  0  0  0  0  0  0  0
   -1.6730   12.4527  -12.1791 O   0  0  0  0  0  0  0  0  0  0  0  0
   -5.4702   11.7501  -12.1833 H   0  0  0  0  0  0  0  0  0  0  0  0
   -6.0635   12.2793   -9.8707 H   0  0  0  0  0  0  0  0  0  0  0  0
   -8.1971   10.1280  -13.8891 H   0  0  0  0  0  0  0  0  0  0  0  0
   -6.9038   12.2545  -14.0846 H   0  0  0  0  0  0  0  0  0  0  0  0
   -8.0145    9.5753   -7.2551 H   0  0  0  0  0  0  0  0  0  0  0  0
   -6.7764   12.3186   -6.9043 H   0  0  0  0  0  0  0  0  0  0  0  0
   -3.4375   12.0070   -8.2500 H   0  0  0  0  0  0  0  0  0  0  0  0
   -2.6166    9.7188   -8.0493 H   0  0  0  0  0  0  0  0  0  0  0  0
   -4.8960    8.7979   -8.4848 H   0  0  0  0  0  0  0  0  0  0  0  0
   -4.6978   14.3623   -6.0057 H   0  0  0  0  0  0  0  0  0  0  0  0
   -0.3901   12.9669   -6.6019 H   0  0  0  0  0  0  0  0  0  0  0  0
   -0.7019   11.2100   -6.3955 H   0  0  0  0  0  0  0  0  0  0  0  0
   -0.6874   11.9326   -8.0401 H   0  0  0  0  0  0  0  0  0  0  0  0
   -4.0252   12.5039   -9.7827 H   0  0  0  0  0  0  0  0  0  0  0  0
   -3.9410   11.6307  -11.3502 H   0  0  0  0  0  0  0  0  0  0  0  0
   -1.6579   12.5499  -10.0854 H   0  0  0  0  0  0  0  0  0  0  0  0
   -2.1163   14.8460   -9.9278 H   0  0  0  0  0  0  0  0  0  0  0  0
   -1.3366   14.8352  -11.5459 H   0  0  0  0  0  0  0  0  0  0  0  0
   -3.3656   15.2093  -12.6488 H   0  0  0  0  0  0  0  0  0  0  0  0
   -3.9592   15.7531  -11.0430 H   0  0  0  0  0  0  0  0  0  0  0  0
   -0.7528   12.6819  -12.2362 H   0  0  0  0  0  0  0  0  0  0  0  0
  1  2  1  0  0  0  0
  1  4  1  0  0  0  0
  1 12  1  0  0  0  0
  2  6  2  0  0  0  0
  3  4  2  0  0  0  0
  3  5  1  0  0  0  0
  5  6  1  0  0  0  0
  5  9  2  0  0  0  0
  6  7  1  0  0  0  0
  7  8  2  0  0  0  0
  7 10  1  0  0  0  0
  8  9  1  0  0  0  0
 10 14  2  0  0  0  0
 11 12  1  0  0  0  0
 11 24  1  0  0  0  0
 11 27  1  0  0  0  0
 12 13  2  0  0  0  0
 14 15  1  0  0  0  0
 14 19  1  0  0  0  0
 15 16  2  0  0  0  0
 16 17  1  0  0  0  0
 16 20  1  0  0  0  0
 17 18  1  0  0  0  0
 17 22  1  0  0  0  0
 18 19  2  0  0  0  0
 20 21  2  0  0  0  0
 21 22  1  0  0  0  0
 22 23  1  0  0  0  0
 24 25  1  0  0  0  0
 25 26  1  0  0  0  0
 25 28  1  0  0  0  0
 26 27  1  0  0  0  0
  1 29  1  0  0  0  0
  2 30  1  0  0  0  0
  3 31  1  0  0  0  0
  4 32  1  0  0  0  0
 10 33  1  0  0  0  0
 15 34  1  0  0  0  0
 17 35  1  0  0  0  0
 18 36  1  0  0  0  0
 19 37  1  0  0  0  0
 20 38  1  0  0  0  0
 23 39  1  0  0  0  0
 23 40  1  0  0  0  0
 23 41  1  0  0  0  0
 24 42  1  0  0  0  0
 24 43  1  0  0  0  0
 25 44  1  0  0  0  0
 26 45  1  0  0  0  0
 26 46  1  0  0  0  0
 27 47  1  0  0  0  0
 27 48  1  0  0  0  0
 28 49  1  0  0  0  0
M  END
> <Name>
42

> <IC50[uM]>
0.004

$$$$
42
  -OEChem-05192314333D
 Structure written by MMmdl.
 49 53  0     1  0  0  0  0  0999 V2000
   -6.3691   12.3596  -12.0090 C   0  0  0  0  0  0  0  0  0  0  0  0
   -6.5082   11.8040  -10.7325 C   0  0  0  0  0  0  0  0  0  0  0  0
   -7.7289   10.5800  -13.0272 C   0  0  0  0  0  0  0  0  0  0  0  0
   -6.9931   11.7723  -13.1223 C   0  0  0  0  0  0  0  0  0  0  0  0
   -7.8208   10.0120  -11.7545 C   0  0  0  0  0  0  0  0  0  0  0  0
   -7.2366   10.6190  -10.6002 C   0  0  0  0  0  0  0  0  0  0  0  0
   -7.6071    9.7463   -9.5106 C   0  0  0  0  0  0  0  0  0  0  0  0
   -8.2820    8.7349   -9.9857 N   0  0  0  0  0  0  0  0  0  0  0  0
   -8.4162    8.8630  -11.2985 N   0  0  0  0  0  0  0  0  0  0  0  0
   -7.3216    9.8824   -8.0245 C   0  0  0  0  0  0  0  0  0  0  0  0
   -4.3612   13.7214  -11.5083 N   0  0  0  0  0  0  0  0  0  0  0  0
   -5.5493   13.6373  -12.1980 C   0  0  0  0  0  0  0  0  0  0  0  0
   -5.9470   14.5254  -12.9531 O   0  0  0  0  0  0  0  0  0  0  0  0
   -5.9509   10.4995   -7.7283 C   0  0  0  0  0  0  0  0  0  0  0  0
   -5.8798   11.7709   -7.1545 C   0  0  0  0  0  0  0  0  0  0  0  0
   -4.6121   12.3149   -6.9130 C   0  0  0  0  0  0  0  0  0  0  0  0
   -3.4406   11.5618   -7.2441 C   0  0  0  0  0  0  0  0  0  0  0  0
   -3.5052   10.2836   -7.8087 C   0  0  0  0  0  0  0  0  0  0  0  0
   -4.7939    9.7786   -8.0440 C   0  0  0  0  0  0  0  0  0  0  0  0
   -4.0930   13.5444   -6.3685 C   0  0  0  0  0  0  0  0  0  0  0  0
   -2.7888   13.5284   -6.3764 N   0  0  0  0  0  0  0  0  0  0  0  0
   -2.3823   12.3688   -6.8823 N   0  0  0  0  0  0  0  0  0  0  0  0
   -0.9528   12.1034   -6.9863 C   0  0  0  0  0  0  0  0  0  0  0  0
   -3.7146   12.5761  -10.8355 C   0  0  0  0  0  0  0  0  0  0  0  0
   -2.2074   12.9376  -10.9559 C   0  0  2  0  0  0  0  0  0  0  0  0
   -2.1889   14.4652  -10.9572 C   0  0  0  0  0  0  0  0  0  0  0  0
   -3.5166   14.9141  -11.6000 C   0  0  0  0  0  0  0  0  0  0  0  0
   -1.6730   12.4527  -12.1791 O   0  0  0  0  0  0  0  0  0  0  0  0
   -6.0635   12.2793   -9.8707 H   0  0  0  0  0  0  0  0  0  0  0  0
   -8.1971   10.1280  -13.8891 H   0  0  0  0  0  0  0  0  0  0  0  0
   -6.9038   12.2545  -14.0846 H   0  0  0  0  0  0  0  0  0  0  0  0
   -6.3176   10.0352  -10.7569 H   0  0  0  0  0  0  0  0  0  0  0  0
   -8.0145    9.5753   -7.2551 H   0  0  0  0  0  0  0  0  0  0  0  0
   -6.7764   12.3186   -6.9043 H   0  0  0  0  0  0  0  0  0  0  0  0
   -3.4375   12.0070   -8.2500 H   0  0  0  0  0  0  0  0  0  0  0  0
   -2.6166    9.7188   -8.0493 H   0  0  0  0  0  0  0  0  0  0  0  0
   -4.8960    8.7979   -8.4848 H   0  0  0  0  0  0  0  0  0  0  0  0
   -4.6978   14.3623   -6.0057 H   0  0  0  0  0  0  0  0  0  0  0  0
   -0.3901   12.9669   -6.6019 H   0  0  0  0  0  0  0  0  0  0  0  0
   -0.7019   11.2100   -6.3955 H   0  0  0  0  0  0  0  0  0  0  0  0
   -0.6874   11.9326   -8.0401 H   0  0  0  0  0  0  0  0  0  0  0  0
   -4.0252   12.5039   -9.7827 H   0  0  0  0  0  0  0  0  0  0  0  0
   -3.9410   11.6307  -11.3502 H   0  0  0  0  0  0  0  0  0  0  0  0
   -1.6579   12.5499  -10.0854 H   0  0  0  0  0  0  0  0  0  0  0  0
   -2.1163   14.8460   -9.9278 H   0  0  0  0  0  0  0  0  0  0  0  0
   -1.3366   14.8352  -11.5459 H   0  0  0  0  0  0  0  0  0  0  0  0
   -3.3656   15.2093  -12.6488 H   0  0  0  0  0  0  0  0  0  0  0  0
   -3.9592   15.7531  -11.0430 H   0  0  0  0  0  0  0  0  0  0  0  0
   -0.7528   12.6819  -12.2362 H   0  0  0  0  0  0  0  0  0  0  0  0
  1  2  2  0  0  0  0
  1  4  1  0  0  0  0
  1 12  1  0  0  0  0
  2  6  1  0  0  0  0
  3  4  2  0  0  0  0
  3  5  1  0  0  0  0
  5  6  1  0  0  0  0
  5  9  2  0  0  0  0
  6  7  1  0  0  0  0
  7  8  2  0  0  0  0
  7 10  1  0  0  0  0
  8  9  1  0  0  0  0
 10 14  2  0  0  0  0
 11 12  1  0  0  0  0
 11 24  1  0  0  0  0
 11 27  1  0  0  0  0
 12 13  2  0  0  0  0
 14 15  1  0  0  0  0
 14 19  1  0  0  0  0
 15 16  2  0  0  0  0
 16 17  1  0  0  0  0
 16 20  1  0  0  0  0
 17 18  1  0  0  0  0
 17 22  1  0  0  0  0
 18 19  2  0  0  0  0
 20 21  2  0  0  0  0
 21 22  1  0  0  0  0
 22 23  1  0  0  0  0
 24 25  1  0  0  0  0
 25 26  1  0  0  0  0
 25 28  1  0  0  0  0
 26 27  1  0  0  0  0
  2 29  1  0  0  0  0
  3 30  1  0  0  0  0
  4 31  1  0  0  0  0
  6 32  1  0  0  0  0
 10 33  1  0  0  0  0
 15 34  1  0  0  0  0
 17 35  1  0  0  0  0
 18 36  1  0  0  0  0
 19 37  1  0  0  0  0
 20 38  1  0  0  0  0
 23 39  1  0  0  0  0
 23 40  1  0  0  0  0
 23 41  1  0  0  0  0
 24 42  1  0  0  0  0
 24 43  1  0  0  0  0
 25 44  1  0  0  0  0
 26 45  1  0  0  0  0
 26 46  1  0  0  0  0
 27 47  1  0  0  0  0
 27 48  1  0  0  0  0
 28 49  1  0  0  0  0
M  END
> <Name>
42

> <IC50[uM]>
0.004

$$$$
42
  -OEChem-05192314333D
 Structure written by MMmdl.
 49 53  0     1  0  0  0  0  0999 V2000
   -6.3691   12.3596  -12.0090 C   0  0  0  0  0  0  0  0  0  0  0  0
   -6.5082   11.8040  -10.7325 C   0  0  0  0  0  0  0  0  0  0  0  0
   -7.7289   10.5800  -13.0272 C   0  0  0  0  0  0  0  0  0  0  0  0
   -6.9931   11.7723  -13.1223 C   0  0  0  0  0  0  0  0  0  0  0  0
   -7.8208   10.0120  -11.7545 C   0  0  0  0  0  0  0  0  0  0  0  0
   -7.2366   10.6190  -10.6002 C   0  0  0  0  0  0  0  0  0  0  0  0
   -7.6071    9.7463   -9.5106 C   0  0  0  0  0  0  0  0  0  0  0  0
   -8.2820    8.7349   -9.9857 N   0  0  0  0  0  0  0  0  0  0  0  0
   -8.4162    8.8630  -11.2985 N   0  0  0  0  0  0  0  0  0  0  0  0
   -7.3216    9.8824   -8.0245 C   0  0  0  0  0  0  0  0  0  0  0  0
   -4.3612   13.7214  -11.5083 N   0  0  0  0  0  0  0  0  0  0  0  0
   -5.5493   13.6373  -12.1980 C   0  0  0  0  0  0  0  0  0  0  0  0
   -5.9470   14.5254  -12.9531 O   0  0  0  0  0  0  0  0  0  0  0  0
   -5.9509   10.4995   -7.7283 C   0  0  0  0  0  0  0  0  0  0  0  0
   -5.8798   11.7709   -7.1545 C   0  0  0  0  0  0  0  0  0  0  0  0
   -4.6121   12.3149   -6.9130 C   0  0  0  0  0  0  0  0  0  0  0  0
   -3.4406   11.5618   -7.2441 C   0  0  0  0  0  0  0  0  0  0  0  0
   -3.5052   10.2836   -7.8087 C   0  0  0  0  0  0  0  0  0  0  0  0
   -4.7939    9.7786   -8.0440 C   0  0  0  0  0  0  0  0  0  0  0  0
   -4.0930   13.5444   -6.3685 C   0  0  0  0  0  0  0  0  0  0  0  0
   -2.7888   13.5284   -6.3764 N   0  0  0  0  0  0  0  0  0  0  0  0
   -2.3823   12.3688   -6.8823 N   0  0  0  0  0  0  0  0  0  0  0  0
   -0.9528   12.1034   -6.9863 C   0  0  0  0  0  0  0  0  0  0  0  0
   -3.7146   12.5761  -10.8355 C   0  0  0  0  0  0  0  0  0  0  0  0
   -2.2074   12.9376  -10.9559 C   0  0  2  0  0  0  0  0  0  0  0  0
   -2.1889   14.4652  -10.9572 C   0  0  0  0  0  0  0  0  0  0  0  0
   -3.5166   14.9141  -11.6000 C   0  0  0  0  0  0  0  0  0  0  0  0
   -1.6730   12.4527  -12.1791 O   0  0  0  0  0  0  0  0  0  0  0  0
   -6.0635   12.2793   -9.8707 H   0  0  0  0  0  0  0  0  0  0  0  0
   -8.7510   10.7876  -13.3767 H   0  0  0  0  0  0  0  0  0  0  0  0
   -7.2574    9.8407  -13.6914 H   0  0  0  0  0  0  0  0  0  0  0  0
   -6.9038   12.2545  -14.0846 H   0  0  0  0  0  0  0  0  0  0  0  0
   -8.0145    9.5753   -7.2551 H   0  0  0  0  0  0  0  0  0  0  0  0
   -6.7764   12.3186   -6.9043 H   0  0  0  0  0  0  0  0  0  0  0  0
   -3.4375   12.0070   -8.2500 H   0  0  0  0  0  0  0  0  0  0  0  0
   -2.6166    9.7188   -8.0493 H   0  0  0  0  0  0  0  0  0  0  0  0
   -4.8960    8.7979   -8.4848 H   0  0  0  0  0  0  0  0  0  0  0  0
   -4.6978   14.3623   -6.0057 H   0  0  0  0  0  0  0  0  0  0  0  0
   -0.3901   12.9669   -6.6019 H   0  0  0  0  0  0  0  0  0  0  0  0
   -0.7019   11.2100   -6.3955 H   0  0  0  0  0  0  0  0  0  0  0  0
   -0.6874   11.9326   -8.0401 H   0  0  0  0  0  0  0  0  0  0  0  0
   -4.0252   12.5039   -9.7827 H   0  0  0  0  0  0  0  0  0  0  0  0
   -3.9410   11.6307  -11.3502 H   0  0  0  0  0  0  0  0  0  0  0  0
   -1.6579   12.5499  -10.0854 H   0  0  0  0  0  0  0  0  0  0  0  0
   -2.1163   14.8460   -9.9278 H   0  0  0  0  0  0  0  0  0  0  0  0
   -1.3366   14.8352  -11.5459 H   0  0  0  0  0  0  0  0  0  0  0  0
   -3.3656   15.2093  -12.6488 H   0  0  0  0  0  0  0  0  0  0  0  0
   -3.9592   15.7531  -11.0430 H   0  0  0  0  0  0  0  0  0  0  0  0
   -0.7528   12.6819  -12.2362 H   0  0  0  0  0  0  0  0  0  0  0  0
  1  2  1  0  0  0  0
  1  4  2  0  0  0  0
  1 12  1  0  0  0  0
  2  6  2  0  0  0  0
  3  4  1  0  0  0  0
  3  5  1  0  0  0  0
  5  6  1  0  0  0  0
  5  9  2  0  0  0  0
  6  7  1  0  0  0  0
  7  8  2  0  0  0  0
  7 10  1  0  0  0  0
  8  9  1  0  0  0  0
 10 14  2  0  0  0  0
 11 12  1  0  0  0  0
 11 24  1  0  0  0  0
 11 27  1  0  0  0  0
 12 13  2  0  0  0  0
 14 15  1  0  0  0  0
 14 19  1  0  0  0  0
 15 16  2  0  0  0  0
 16 17  1  0  0  0  0
 16 20  1  0  0  0  0
 17 18  1  0  0  0  0
 17 22  1  0  0  0  0
 18 19  2  0  0  0  0
 20 21  2  0  0  0  0
 21 22  1  0  0  0  0
 22 23  1  0  0  0  0
 24 25  1  0  0  0  0
 25 26  1  0  0  0  0
 25 28  1  0  0  0  0
 26 27  1  0  0  0  0
  2 29  1  0  0  0  0
  3 30  1  0  0  0  0
  3 31  1  0  0  0  0
  4 32  1  0  0  0  0
 10 33  1  0  0  0  0
 15 34  1  0  0  0  0
 17 35  1  0  0  0  0
 18 36  1  0  0  0  0
 19 37  1  0  0  0  0
 20 38  1  0  0  0  0
 23 39  1  0  0  0  0
 23 40  1  0  0  0  0
 23 41  1  0  0  0  0
 24 42  1  0  0  0  0
 24 43  1  0  0  0  0
 25 44  1  0  0  0  0
 26 45  1  0  0  0  0
 26 46  1  0  0  0  0
 27 47  1  0  0  0  0
 27 48  1  0  0  0  0
 28 49  1  0  0  0  0
M  END
> <Name>
42

> <IC50[uM]>
0.004

$$$$
42
  -OEChem-05192314333D
 Structure written by MMmdl.
 49 53  0     1  0  0  0  0  0999 V2000
   -6.3691   12.3596  -12.0090 C   0  0  0  0  0  0  0  0  0  0  0  0
   -6.5082   11.8040  -10.7325 C   0  0  0  0  0  0  0  0  0  0  0  0
   -7.7289   10.5800  -13.0272 C   0  0  0  0  0  0  0  0  0  0  0  0
   -6.9931   11.7723  -13.1223 C   0  0  0  0  0  0  0  0  0  0  0  0
   -7.8208   10.0120  -11.7545 C   0  0  0  0  0  0  0  0  0  0  0  0
   -7.2366   10.6190  -10.6002 C   0  0  0  0  0  0  0  0  0  0  0  0
   -7.6071    9.7463   -9.5106 C   0  0  0  0  0  0  0  0  0  0  0  0
   -8.2820    8.7349   -9.9857 N   0  0  0  0  0  0  0  0  0  0  0  0
   -8.4162    8.8630  -11.2985 N   0  0  0  0  0  0  0  0  0  0  0  0
   -7.3216    9.8824   -8.0245 C   0  0  0  0  0  0  0  0  0  0  0  0
   -4.3612   13.7214  -11.5083 N   0  0  0  0  0  0  0  0  0  0  0  0
   -5.5493   13.6373  -12.1980 C   0  0  0  0  0  0  0  0  0  0  0  0
   -5.9470   14.5254  -12.9531 O   0  0  0  0  0  0  0  0  0  0  0  0
   -5.9509   10.4995   -7.7283 C   0  0  0  0  0  0  0  0  0  0  0  0
   -5.8798   11.7709   -7.1545 C   0  0  0  0  0  0  0  0  0  0  0  0
   -4.6121   12.3149   -6.9130 C   0  0  0  0  0  0  0  0  0  0  0  0
   -3.4406   11.5618   -7.2441 C   0  0  0  0  0  0  0  0  0  0  0  0
   -3.5052   10.2836   -7.8087 C   0  0  0  0  0  0  0  0  0  0  0  0
   -4.7939    9.7786   -8.0440 C   0  0  0  0  0  0  0  0  0  0  0  0
   -4.0930   13.5444   -6.3685 C   0  0  0  0  0  0  0  0  0  0  0  0
   -2.7888   13.5284   -6.3764 N   0  0  0  0  0  0  0  0  0  0  0  0
   -2.3823   12.3688   -6.8823 N   0  0  0  0  0  0  0  0  0  0  0  0
   -0.9528   12.1034   -6.9863 C   0  0  0  0  0  0  0  0  0  0  0  0
   -3.7146   12.5761  -10.8355 C   0  0  0  0  0  0  0  0  0  0  0  0
   -2.2074   12.9376  -10.9559 C   0  0  2  0  0  0  0  0  0  0  0  0
   -2.1889   14.4652  -10.9572 C   0  0  0  0  0  0  0  0  0  0  0  0
   -3.5166   14.9141  -11.6000 C   0  0  0  0  0  0  0  0  0  0  0  0
   -1.6730   12.4527  -12.1791 O   0  0  0  0  0  0  0  0  0  0  0  0
   -6.0635   12.2793   -9.8707 H   0  0  0  0  0  0  0  0  0  0  0  0
   -8.1971   10.1280  -13.8891 H   0  0  0  0  0  0  0  0  0  0  0  0
   -6.9038   12.2545  -14.0846 H   0  0  0  0  0  0  0  0  0  0  0  0
   -6.8882    9.4572  -11.9348 H   0  0  0  0  0  0  0  0  0  0  0  0
   -8.0145    9.5753   -7.2551 H   0  0  0  0  0  0  0  0  0  0  0  0
   -6.7764   12.3186   -6.9043 H   0  0  0  0  0  0  0  0  0  0  0  0
   -3.4375   12.0070   -8.2500 H   0  0  0  0  0  0  0  0  0  0  0  0
   -2.6166    9.7188   -8.0493 H   0  0  0  0  0  0  0  0  0  0  0  0
   -4.8960    8.7979   -8.4848 H   0  0  0  0  0  0  0  0  0  0  0  0
   -4.6978   14.3623   -6.0057 H   0  0  0  0  0  0  0  0  0  0  0  0
   -0.3901   12.9669   -6.6019 H   0  0  0  0  0  0  0  0  0  0  0  0
   -0.7019   11.2100   -6.3955 H   0  0  0  0  0  0  0  0  0  0  0  0
   -0.6874   11.9326   -8.0401 H   0  0  0  0  0  0  0  0  0  0  0  0
   -4.0252   12.5039   -9.7827 H   0  0  0  0  0  0  0  0  0  0  0  0
   -3.9410   11.6307  -11.3502 H   0  0  0  0  0  0  0  0  0  0  0  0
   -1.6579   12.5499  -10.0854 H   0  0  0  0  0  0  0  0  0  0  0  0
   -2.1163   14.8460   -9.9278 H   0  0  0  0  0  0  0  0  0  0  0  0
   -1.3366   14.8352  -11.5459 H   0  0  0  0  0  0  0  0  0  0  0  0
   -3.3656   15.2093  -12.6488 H   0  0  0  0  0  0  0  0  0  0  0  0
   -3.9592   15.7531  -11.0430 H   0  0  0  0  0  0  0  0  0  0  0  0
   -0.7528   12.6819  -12.2362 H   0  0  0  0  0  0  0  0  0  0  0  0
  1  2  2  0  0  0  0
  1  4  1  0  0  0  0
  1 12  1  0  0  0  0
  2  6  1  0  0  0  0
  3  4  2  0  0  0  0
  3  5  1  0  0  0  0
  5  6  1  0  0  0  0
  5  9  1  0  0  0  0
  6  7  2  0  0  0  0
  7  8  1  0  0  0  0
  7 10  1  0  0  0  0
  8  9  2  0  0  0  0
 10 14  2  0  0  0  0
 11 12  1  0  0  0  0
 11 24  1  0  0  0  0
 11 27  1  0  0  0  0
 12 13  2  0  0  0  0
 14 15  1  0  0  0  0
 14 19  1  0  0  0  0
 15 16  2  0  0  0  0
 16 17  1  0  0  0  0
 16 20  1  0  0  0  0
 17 18  1  0  0  0  0
 17 22  1  0  0  0  0
 18 19  2  0  0  0  0
 20 21  2  0  0  0  0
 21 22  1  0  0  0  0
 22 23  1  0  0  0  0
 24 25  1  0  0  0  0
 25 26  1  0  0  0  0
 25 28  1  0  0  0  0
 26 27  1  0  0  0  0
  2 29  1  0  0  0  0
  3 30  1  0  0  0  0
  4 31  1  0  0  0  0
  5 32  1  0  0  0  0
 10 33  1  0  0  0  0
 15 34  1  0  0  0  0
 17 35  1  0  0  0  0
 18 36  1  0  0  0  0
 19 37  1  0  0  0  0
 20 38  1  0  0  0  0
 23 39  1  0  0  0  0
 23 40  1  0  0  0  0
 23 41  1  0  0  0  0
 24 42  1  0  0  0  0
 24 43  1  0  0  0  0
 25 44  1  0  0  0  0
 26 45  1  0  0  0  0
 26 46  1  0  0  0  0
 27 47  1  0  0  0  0
 27 48  1  0  0  0  0
 28 49  1  0  0  0  0
M  END
> <Name>
42

> <IC50[uM]>
0.004

$$$$
42
  -OEChem-05192314333D
 Structure written by MMmdl.
 49 53  0     1  0  0  0  0  0999 V2000
   -6.3691   12.3596  -12.0090 C   0  0  0  0  0  0  0  0  0  0  0  0
   -6.5082   11.8040  -10.7325 C   0  0  0  0  0  0  0  0  0  0  0  0
   -7.7289   10.5800  -13.0272 C   0  0  0  0  0  0  0  0  0  0  0  0
   -6.9931   11.7723  -13.1223 C   0  0  0  0  0  0  0  0  0  0  0  0
   -7.8208   10.0120  -11.7545 C   0  0  0  0  0  0  0  0  0  0  0  0
   -7.2366   10.6190  -10.6002 C   0  0  0  0  0  0  0  0  0  0  0  0
   -7.6071    9.7463   -9.5106 C   0  0  0  0  0  0  0  0  0  0  0  0
   -8.2820    8.7349   -9.9857 N   0  0  0  0  0  0  0  0  0  0  0  0
   -8.4162    8.8630  -11.2985 N   0  0  0  0  0  0  0  0  0  0  0  0
   -7.3216    9.8824   -8.0245 C   0  0  0  0  0  0  0  0  0  0  0  0
   -4.3612   13.7214  -11.5083 N   0  0  0  0  0  0  0  0  0  0  0  0
   -5.5493   13.6373  -12.1980 C   0  0  0  0  0  0  0  0  0  0  0  0
   -5.9470   14.5254  -12.9531 O   0  0  0  0  0  0  0  0  0  0  0  0
   -5.9509   10.4995   -7.7283 C   0  0  0  0  0  0  0  0  0  0  0  0
   -5.8798   11.7709   -7.1545 C   0  0  0  0  0  0  0  0  0  0  0  0
   -4.6121   12.3149   -6.9130 C   0  0  0  0  0  0  0  0  0  0  0  0
   -3.4406   11.5618   -7.2441 C   0  0  0  0  0  0  0  0  0  0  0  0
   -3.5052   10.2836   -7.8087 C   0  0  0  0  0  0  0  0  0  0  0  0
   -4.7939    9.7786   -8.0440 C   0  0  0  0  0  0  0  0  0  0  0  0
   -4.0930   13.5444   -6.3685 C   0  0  0  0  0  0  0  0  0  0  0  0
   -2.7888   13.5284   -6.3764 N   0  0  0  0  0  0  0  0  0  0  0  0
   -2.3823   12.3688   -6.8823 N   0  0  0  0  0  0  0  0  0  0  0  0
   -0.9528   12.1034   -6.9863 C   0  0  0  0  0  0  0  0  0  0  0  0
   -3.7146   12.5761  -10.8355 C   0  0  0  0  0  0  0  0  0  0  0  0
   -2.2074   12.9376  -10.9559 C   0  0  2  0  0  0  0  0  0  0  0  0
   -2.1889   14.4652  -10.9572 C   0  0  0  0  0  0  0  0  0  0  0  0
   -3.5166   14.9141  -11.6000 C   0  0  0  0  0  0  0  0  0  0  0  0
   -1.6730   12.4527  -12.1791 O   0  0  0  0  0  0  0  0  0  0  0  0
   -6.0635   12.2793   -9.8707 H   0  0  0  0  0  0  0  0  0  0  0  0
   -8.1971   10.1280  -13.8891 H   0  0  0  0  0  0  0  0  0  0  0  0
   -7.6854   12.5289  -13.5202 H   0  0  0  0  0  0  0  0  0  0  0  0
   -6.1958   11.5828  -13.8561 H   0  0  0  0  0  0  0  0  0  0  0  0
   -8.0145    9.5753   -7.2551 H   0  0  0  0  0  0  0  0  0  0  0  0
   -6.7764   12.3186   -6.9043 H   0  0  0  0  0  0  0  0  0  0  0  0
   -3.4375   12.0070   -8.2500 H   0  0  0  0  0  0  0  0  0  0  0  0
   -2.6166    9.7188   -8.0493 H   0  0  0  0  0  0  0  0  0  0  0  0
   -4.8960    8.7979   -8.4848 H   0  0  0  0  0  0  0  0  0  0  0  0
   -4.6978   14.3623   -6.0057 H   0  0  0  0  0  0  0  0  0  0  0  0
   -0.3901   12.9669   -6.6019 H   0  0  0  0  0  0  0  0  0  0  0  0
   -0.7019   11.2100   -6.3955 H   0  0  0  0  0  0  0  0  0  0  0  0
   -0.6874   11.9326   -8.0401 H   0  0  0  0  0  0  0  0  0  0  0  0
   -4.0252   12.5039   -9.7827 H   0  0  0  0  0  0  0  0  0  0  0  0
   -3.9410   11.6307  -11.3502 H   0  0  0  0  0  0  0  0  0  0  0  0
   -1.6579   12.5499  -10.0854 H   0  0  0  0  0  0  0  0  0  0  0  0
   -2.1163   14.8460   -9.9278 H   0  0  0  0  0  0  0  0  0  0  0  0
   -1.3366   14.8352  -11.5459 H   0  0  0  0  0  0  0  0  0  0  0  0
   -3.3656   15.2093  -12.6488 H   0  0  0  0  0  0  0  0  0  0  0  0
   -3.9592   15.7531  -11.0430 H   0  0  0  0  0  0  0  0  0  0  0  0
   -0.7528   12.6819  -12.2362 H   0  0  0  0  0  0  0  0  0  0  0  0
  1  2  2  0  0  0  0
  1  4  1  0  0  0  0
  1 12  1  0  0  0  0
  2  6  1  0  0  0  0
  3  4  1  0  0  0  0
  3  5  2  0  0  0  0
  5  6  1  0  0  0  0
  5  9  1  0  0  0  0
  6  7  2  0  0  0  0
  7  8  1  0  0  0  0
  7 10  1  0  0  0  0
  8  9  2  0  0  0  0
 10 14  2  0  0  0  0
 11 12  1  0  0  0  0
 11 24  1  0  0  0  0
 11 27  1  0  0  0  0
 12 13  2  0  0  0  0
 14 15  1  0  0  0  0
 14 19  1  0  0  0  0
 15 16  2  0  0  0  0
 16 17  1  0  0  0  0
 16 20  1  0  0  0  0
 17 18  1  0  0  0  0
 17 22  1  0  0  0  0
 18 19  2  0  0  0  0
 20 21  2  0  0  0  0
 21 22  1  0  0  0  0
 22 23  1  0  0  0  0
 24 25  1  0  0  0  0
 25 26  1  0  0  0  0
 25 28  1  0  0  0  0
 26 27  1  0  0  0  0
  2 29  1  0  0  0  0
  3 30  1  0  0  0  0
  4 31  1  0  0  0  0
  4 32  1  0  0  0  0
 10 33  1  0  0  0  0
 15 34  1  0  0  0  0
 17 35  1  0  0  0  0
 18 36  1  0  0  0  0
 19 37  1  0  0  0  0
 20 38  1  0  0  0  0
 23 39  1  0  0  0  0
 23 40  1  0  0  0  0
 23 41  1  0  0  0  0
 24 42  1  0  0  0  0
 24 43  1  0  0  0  0
 25 44  1  0  0  0  0
 26 45  1  0  0  0  0
 26 46  1  0  0  0  0
 27 47  1  0  0  0  0
 27 48  1  0  0  0  0
 28 49  1  0  0  0  0
M  END
> <Name>
42

> <IC50[uM]>
0.004

$$$$
42
  -OEChem-05192314333D
 Structure written by MMmdl.
 49 53  0     1  0  0  0  0  0999 V2000
   -6.3691   12.3596  -12.0090 C   0  0  0  0  0  0  0  0  0  0  0  0
   -6.5082   11.8040  -10.7325 C   0  0  0  0  0  0  0  0  0  0  0  0
   -7.7289   10.5800  -13.0272 C   0  0  0  0  0  0  0  0  0  0  0  0
   -6.9931   11.7723  -13.1223 C   0  0  0  0  0  0  0  0  0  0  0  0
   -7.8208   10.0120  -11.7545 C   0  0  0  0  0  0  0  0  0  0  0  0
   -7.2366   10.6190  -10.6002 C   0  0  0  0  0  0  0  0  0  0  0  0
   -7.6071    9.7463   -9.5106 C   0  0  0  0  0  0  0  0  0  0  0  0
   -8.2820    8.7349   -9.9857 N   0  0  0  0  0  0  0  0  0  0  0  0
   -8.4162    8.8630  -11.2985 N   0  0  0  0  0  0  0  0  0  0  0  0
   -7.3216    9.8824   -8.0245 C   0  0  0  0  0  0  0  0  0  0  0  0
   -4.3612   13.7214  -11.5083 N   0  0  0  0  0  0  0  0  0  0  0  0
   -5.5493   13.6373  -12.1980 C   0  0  0  0  0  0  0  0  0  0  0  0
   -5.9470   14.5254  -12.9531 O   0  0  0  0  0  0  0  0  0  0  0  0
   -5.9509   10.4995   -7.7283 C   0  0  0  0  0  0  0  0  0  0  0  0
   -5.8798   11.7709   -7.1545 C   0  0  0  0  0  0  0  0  0  0  0  0
   -4.6121   12.3149   -6.9130 C   0  0  0  0  0  0  0  0  0  0  0  0
   -3.4406   11.5618   -7.2441 C   0  0  0  0  0  0  0  0  0  0  0  0
   -3.5052   10.2836   -7.8087 C   0  0  0  0  0  0  0  0  0  0  0  0
   -4.7939    9.7786   -8.0440 C   0  0  0  0  0  0  0  0  0  0  0  0
   -4.0930   13.5444   -6.3685 C   0  0  0  0  0  0  0  0  0  0  0  0
   -2.7888   13.5284   -6.3764 N   0  0  0  0  0  0  0  0  0  0  0  0
   -2.3823   12.3688   -6.8823 N   0  0  0  0  0  0  0  0  0  0  0  0
   -0.9528   12.1034   -6.9863 C   0  0  0  0  0  0  0  0  0  0  0  0
   -3.7146   12.5761  -10.8355 C   0  0  0  0  0  0  0  0  0  0  0  0
   -2.2074   12.9376  -10.9559 C   0  0  2  0  0  0  0  0  0  0  0  0
   -2.1889   14.4652  -10.9572 C   0  0  0  0  0  0  0  0  0  0  0  0
   -3.5166   14.9141  -11.6000 C   0  0  0  0  0  0  0  0  0  0  0  0
   -1.6730   12.4527  -12.1791 O   0  0  0  0  0  0  0  0  0  0  0  0
   -5.4953   11.6077  -10.3509 H   0  0  0  0  0  0  0  0  0  0  0  0
   -6.9981   12.5594  -10.1005 H   0  0  0  0  0  0  0  0  0  0  0  0
   -8.1971   10.1280  -13.8891 H   0  0  0  0  0  0  0  0  0  0  0  0
   -6.9038   12.2545  -14.0846 H   0  0  0  0  0  0  0  0  0  0  0  0
   -8.0145    9.5753   -7.2551 H   0  0  0  0  0  0  0  0  0  0  0  0
   -6.7764   12.3186   -6.9043 H   0  0  0  0  0  0  0  0  0  0  0  0
   -3.4375   12.0070   -8.2500 H   0  0  0  0  0  0  0  0  0  0  0  0
   -2.6166    9.7188   -8.0493 H   0  0  0  0  0  0  0  0  0  0  0  0
   -4.8960    8.7979   -8.4848 H   0  0  0  0  0  0  0  0  0  0  0  0
   -4.6978   14.3623   -6.0057 H   0  0  0  0  0  0  0  0  0  0  0  0
   -0.3901   12.9669   -6.6019 H   0  0  0  0  0  0  0  0  0  0  0  0
   -0.7019   11.2100   -6.3955 H   0  0  0  0  0  0  0  0  0  0  0  0
   -0.6874   11.9326   -8.0401 H   0  0  0  0  0  0  0  0  0  0  0  0
   -4.0252   12.5039   -9.7827 H   0  0  0  0  0  0  0  0  0  0  0  0
   -3.9410   11.6307  -11.3502 H   0  0  0  0  0  0  0  0  0  0  0  0
   -1.6579   12.5499  -10.0854 H   0  0  0  0  0  0  0  0  0  0  0  0
   -2.1163   14.8460   -9.9278 H   0  0  0  0  0  0  0  0  0  0  0  0
   -1.3366   14.8352  -11.5459 H   0  0  0  0  0  0  0  0  0  0  0  0
   -3.3656   15.2093  -12.6488 H   0  0  0  0  0  0  0  0  0  0  0  0
   -3.9592   15.7531  -11.0430 H   0  0  0  0  0  0  0  0  0  0  0  0
   -0.7528   12.6819  -12.2362 H   0  0  0  0  0  0  0  0  0  0  0  0
  1  2  1  0  0  0  0
  1  4  2  0  0  0  0
  1 12  1  0  0  0  0
  2  6  1  0  0  0  0
  3  4  1  0  0  0  0
  3  5  2  0  0  0  0
  5  6  1  0  0  0  0
  5  9  1  0  0  0  0
  6  7  2  0  0  0  0
  7  8  1  0  0  0  0
  7 10  1  0  0  0  0
  8  9  2  0  0  0  0
 10 14  2  0  0  0  0
 11 12  1  0  0  0  0
 11 24  1  0  0  0  0
 11 27  1  0  0  0  0
 12 13  2  0  0  0  0
 14 15  1  0  0  0  0
 14 19  1  0  0  0  0
 15 16  2  0  0  0  0
 16 17  1  0  0  0  0
 16 20  1  0  0  0  0
 17 18  1  0  0  0  0
 17 22  1  0  0  0  0
 18 19  2  0  0  0  0
 20 21  2  0  0  0  0
 21 22  1  0  0  0  0
 22 23  1  0  0  0  0
 24 25  1  0  0  0  0
 25 26  1  0  0  0  0
 25 28  1  0  0  0  0
 26 27  1  0  0  0  0
  2 29  1  0  0  0  0
  2 30  1  0  0  0  0
  3 31  1  0  0  0  0
  4 32  1  0  0  0  0
 10 33  1  0  0  0  0
 15 34  1  0  0  0  0
 17 35  1  0  0  0  0
 18 36  1  0  0  0  0
 19 37  1  0  0  0  0
 20 38  1  0  0  0  0
 23 39  1  0  0  0  0
 23 40  1  0  0  0  0
 23 41  1  0  0  0  0
 24 42  1  0  0  0  0
 24 43  1  0  0  0  0
 25 44  1  0  0  0  0
 26 45  1  0  0  0  0
 26 46  1  0  0  0  0
 27 47  1  0  0  0  0
 27 48  1  0  0  0  0
 28 49  1  0  0  0  0
M  END
> <Name>
42

> <IC50[uM]>
0.004

$$$$
42
  -OEChem-05192314333D
 Structure written by MMmdl.
 49 53  0     1  0  0  0  0  0999 V2000
   -6.3691   12.3596  -12.0090 C   0  0  0  0  0  0  0  0  0  0  0  0
   -6.5082   11.8040  -10.7325 C   0  0  0  0  0  0  0  0  0  0  0  0
   -7.7289   10.5800  -13.0272 C   0  0  0  0  0  0  0  0  0  0  0  0
   -6.9931   11.7723  -13.1223 C   0  0  0  0  0  0  0  0  0  0  0  0
   -7.8208   10.0120  -11.7545 C   0  0  0  0  0  0  0  0  0  0  0  0
   -7.2366   10.6190  -10.6002 C   0  0  0  0  0  0  0  0  0  0  0  0
   -7.6071    9.7463   -9.5106 C   0  0  0  0  0  0  0  0  0  0  0  0
   -8.2820    8.7349   -9.9857 N   0  0  0  0  0  0  0  0  0  0  0  0
   -8.4162    8.8630  -11.2985 N   0  0  0  0  0  0  0  0  0  0  0  0
   -7.3216    9.8824   -8.0245 C   0  0  0  0  0  0  0  0  0  0  0  0
   -4.3612   13.7214  -11.5083 N   0  0  0  0  0  0  0  0  0  0  0  0
   -5.5493   13.6373  -12.1980 C   0  0  0  0  0  0  0  0  0  0  0  0
   -5.9470   14.5254  -12.9531 O   0  0  0  0  0  0  0  0  0  0  0  0
   -5.9509   10.4995   -7.7283 C   0  0  0  0  0  0  0  0  0  0  0  0
   -5.8798   11.7709   -7.1545 C   0  0  0  0  0  0  0  0  0  0  0  0
   -4.6121   12.3149   -6.9130 C   0  0  0  0  0  0  0  0  0  0  0  0
   -3.4406   11.5618   -7.2441 C   0  0  0  0  0  0  0  0  0  0  0  0
   -3.5052   10.2836   -7.8087 C   0  0  0  0  0  0  0  0  0  0  0  0
   -4.7939    9.7786   -8.0440 C   0  0  0  0  0  0  0  0  0  0  0  0
   -4.0930   13.5444   -6.3685 C   0  0  0  0  0  0  0  0  0  0  0  0
   -2.7888   13.5284   -6.3764 N   0  0  0  0  0  0  0  0  0  0  0  0
   -2.3823   12.3688   -6.8823 N   0  0  0  0  0  0  0  0  0  0  0  0
   -0.9528   12.1034   -6.9863 C   0  0  0  0  0  0  0  0  0  0  0  0
   -3.7146   12.5761  -10.8355 C   0  0  0  0  0  0  0  0  0  0  0  0
   -2.2074   12.9376  -10.9559 C   0  0  2  0  0  0  0  0  0  0  0  0
   -2.1889   14.4652  -10.9572 C   0  0  0  0  0  0  0  0  0  0  0  0
   -3.5166   14.9141  -11.6000 C   0  0  0  0  0  0  0  0  0  0  0  0
   -1.6730   12.4527  -12.1791 O   0  0  0  0  0  0  0  0  0  0  0  0
   -6.0635   12.2793   -9.8707 H   0  0  0  0  0  0  0  0  0  0  0  0
   -8.1971   10.1280  -13.8891 H   0  0  0  0  0  0  0  0  0  0  0  0
   -6.9038   12.2545  -14.0846 H   0  0  0  0  0  0  0  0  0  0  0  0
   -8.6433    7.9777   -9.4415 H   0  0  0  0  0  0  0  0  0  0  0  0
   -8.0145    9.5753   -7.2551 H   0  0  0  0  0  0  0  0  0  0  0  0
   -5.3243   15.2428  -12.9545 H   0  0  0  0  0  0  0  0  0  0  0  0
   -6.7764   12.3186   -6.9043 H   0  0  0  0  0  0  0  0  0  0  0  0
   -2.6166    9.7188   -8.0493 H   0  0  0  0  0  0  0  0  0  0  0  0
   -4.8960    8.7979   -8.4848 H   0  0  0  0  0  0  0  0  0  0  0  0
   -4.6978   14.3623   -6.0057 H   0  0  0  0  0  0  0  0  0  0  0  0
   -0.3901   12.9669   -6.6019 H   0  0  0  0  0  0  0  0  0  0  0  0
   -0.7019   11.2100   -6.3955 H   0  0  0  0  0  0  0  0  0  0  0  0
   -0.6874   11.9326   -8.0401 H   0  0  0  0  0  0  0  0  0  0  0  0
   -4.0252   12.5039   -9.7827 H   0  0  0  0  0  0  0  0  0  0  0  0
   -3.9410   11.6307  -11.3502 H   0  0  0  0  0  0  0  0  0  0  0  0
   -1.6579   12.5499  -10.0854 H   0  0  0  0  0  0  0  0  0  0  0  0
   -2.1163   14.8460   -9.9278 H   0  0  0  0  0  0  0  0  0  0  0  0
   -1.3366   14.8352  -11.5459 H   0  0  0  0  0  0  0  0  0  0  0  0
   -3.3656   15.2093  -12.6488 H   0  0  0  0  0  0  0  0  0  0  0  0
   -3.9592   15.7531  -11.0430 H   0  0  0  0  0  0  0  0  0  0  0  0
   -0.7528   12.6819  -12.2362 H   0  0  0  0  0  0  0  0  0  0  0  0
  1  2  1  0  0  0  0
  1  4  1  0  0  0  0
  1 12  2  0  0  0  0
  2  6  2  0  0  0  0
  3  4  2  0  0  0  0
  3  5  1  0  0  0  0
  5  6  1  0  0  0  0
  5  9  2  0  0  0  0
  6  7  1  0  0  0  0
  7  8  1  0  0  0  0
  7 10  2  0  0  0  0
  8  9  1  0  0  0  0
 10 14  1  0  0  0  0
 11 12  1  0  0  0  0
 11 24  1  0  0  0  0
 11 27  1  0  0  0  0
 12 13  1  0  0  0  0
 14 15  2  0  0  0  0
 14 19  1  0  0  0  0
 15 16  1  0  0  0  0
 16 17  2  0  0  0  0
 16 20  1  0  0  0  0
 17 18  1  0  0  0  0
 17 22  1  0  0  0  0
 18 19  2  0  0  0  0
 20 21  2  0  0  0  0
 21 22  1  0  0  0  0
 22 23  1  0  0  0  0
 24 25  1  0  0  0  0
 25 26  1  0  0  0  0
 25 28  1  0  0  0  0
 26 27  1  0  0  0  0
  2 29  1  0  0  0  0
  3 30  1  0  0  0  0
  4 31  1  0  0  0  0
  8 32  1  0  0  0  0
 10 33  1  0  0  0  0
 13 34  1  0  0  0  0
 15 35  1  0  0  0  0
 18 36  1  0  0  0  0
 19 37  1  0  0  0  0
 20 38  1  0  0  0  0
 23 39  1  0  0  0  0
 23 40  1  0  0  0  0
 23 41  1  0  0  0  0
 24 42  1  0  0  0  0
 24 43  1  0  0  0  0
 25 44  1  0  0  0  0
 26 45  1  0  0  0  0
 26 46  1  0  0  0  0
 27 47  1  0  0  0  0
 27 48  1  0  0  0  0
 28 49  1  0  0  0  0
M  END
> <Name>
42

> <IC50[uM]>
0.004

$$$$
42
  -OEChem-05192314333D
 Structure written by MMmdl.
 49 53  0     1  0  0  0  0  0999 V2000
   -6.3691   12.3596  -12.0090 C   0  0  0  0  0  0  0  0  0  0  0  0
   -6.5082   11.8040  -10.7325 C   0  0  0  0  0  0  0  0  0  0  0  0
   -7.7289   10.5800  -13.0272 C   0  0  0  0  0  0  0  0  0  0  0  0
   -6.9931   11.7723  -13.1223 C   0  0  0  0  0  0  0  0  0  0  0  0
   -7.8208   10.0120  -11.7545 C   0  0  0  0  0  0  0  0  0  0  0  0
   -7.2366   10.6190  -10.6002 C   0  0  0  0  0  0  0  0  0  0  0  0
   -7.6071    9.7463   -9.5106 C   0  0  0  0  0  0  0  0  0  0  0  0
   -8.2820    8.7349   -9.9857 N   0  0  0  0  0  0  0  0  0  0  0  0
   -8.4162    8.8630  -11.2985 N   0  0  0  0  0  0  0  0  0  0  0  0
   -7.3216    9.8824   -8.0245 C   0  0  0  0  0  0  0  0  0  0  0  0
   -4.3612   13.7214  -11.5083 N   0  0  0  0  0  0  0  0  0  0  0  0
   -5.5493   13.6373  -12.1980 C   0  0  0  0  0  0  0  0  0  0  0  0
   -5.9470   14.5254  -12.9531 O   0  0  0  0  0  0  0  0  0  0  0  0
   -5.9509   10.4995   -7.7283 C   0  0  0  0  0  0  0  0  0  0  0  0
   -5.8798   11.7709   -7.1545 C   0  0  0  0  0  0  0  0  0  0  0  0
   -4.6121   12.3149   -6.9130 C   0  0  0  0  0  0  0  0  0  0  0  0
   -3.4406   11.5618   -7.2441 C   0  0  0  0  0  0  0  0  0  0  0  0
   -3.5052   10.2836   -7.8087 C   0  0  0  0  0  0  0  0  0  0  0  0
   -4.7939    9.7786   -8.0440 C   0  0  0  0  0  0  0  0  0  0  0  0
   -4.0930   13.5444   -6.3685 C   0  0  0  0  0  0  0  0  0  0  0  0
   -2.7888   13.5284   -6.3764 N   0  0  0  0  0  0  0  0  0  0  0  0
   -2.3823   12.3688   -6.8823 N   0  0  0  0  0  0  0  0  0  0  0  0
   -0.9528   12.1034   -6.9863 C   0  0  0  0  0  0  0  0  0  0  0  0
   -3.7146   12.5761  -10.8355 C   0  0  0  0  0  0  0  0  0  0  0  0
   -2.2074   12.9376  -10.9559 C   0  0  2  0  0  0  0  0  0  0  0  0
   -2.1889   14.4652  -10.9572 C   0  0  0  0  0  0  0  0  0  0  0  0
   -3.5166   14.9141  -11.6000 C   0  0  0  0  0  0  0  0  0  0  0  0
   -1.6730   12.4527  -12.1791 O   0  0  0  0  0  0  0  0  0  0  0  0
   -6.0635   12.2793   -9.8707 H   0  0  0  0  0  0  0  0  0  0  0  0
   -8.1971   10.1280  -13.8891 H   0  0  0  0  0  0  0  0  0  0  0  0
   -6.9038   12.2545  -14.0846 H   0  0  0  0  0  0  0  0  0  0  0  0
   -8.0145    9.5753   -7.2551 H   0  0  0  0  0  0  0  0  0  0  0  0
   -6.0782   14.1075  -11.3559 H   0  0  0  0  0  0  0  0  0  0  0  0
   -5.3243   15.2428  -12.9545 H   0  0  0  0  0  0  0  0  0  0  0  0
   -6.7764   12.3186   -6.9043 H   0  0  0  0  0  0  0  0  0  0  0  0
   -2.6166    9.7188   -8.0493 H   0  0  0  0  0  0  0  0  0  0  0  0
   -4.8960    8.7979   -8.4848 H   0  0  0  0  0  0  0  0  0  0  0  0
   -4.6978   14.3623   -6.0057 H   0  0  0  0  0  0  0  0  0  0  0  0
   -0.3901   12.9669   -6.6019 H   0  0  0  0  0  0  0  0  0  0  0  0
   -0.7019   11.2100   -6.3955 H   0  0  0  0  0  0  0  0  0  0  0  0
   -0.6874   11.9326   -8.0401 H   0  0  0  0  0  0  0  0  0  0  0  0
   -4.0252   12.5039   -9.7827 H   0  0  0  0  0  0  0  0  0  0  0  0
   -3.9410   11.6307  -11.3502 H   0  0  0  0  0  0  0  0  0  0  0  0
   -1.6579   12.5499  -10.0854 H   0  0  0  0  0  0  0  0  0  0  0  0
   -2.1163   14.8460   -9.9278 H   0  0  0  0  0  0  0  0  0  0  0  0
   -1.3366   14.8352  -11.5459 H   0  0  0  0  0  0  0  0  0  0  0  0
   -3.3656   15.2093  -12.6488 H   0  0  0  0  0  0  0  0  0  0  0  0
   -3.9592   15.7531  -11.0430 H   0  0  0  0  0  0  0  0  0  0  0  0
   -0.7528   12.6819  -12.2362 H   0  0  0  0  0  0  0  0  0  0  0  0
  1  2  2  0  0  0  0
  1  4  1  0  0  0  0
  1 12  1  0  0  0  0
  2  6  1  0  0  0  0
  3  4  2  0  0  0  0
  3  5  1  0  0  0  0
  5  6  2  0  0  0  0
  5  9  1  0  0  0  0
  6  7  1  0  0  0  0
  7  8  1  0  0  0  0
  7 10  2  0  0  0  0
  8  9  2  0  0  0  0
 10 14  1  0  0  0  0
 11 12  1  0  0  0  0
 11 24  1  0  0  0  0
 11 27  1  0  0  0  0
 12 13  1  0  0  0  0
 14 15  2  0  0  0  0
 14 19  1  0  0  0  0
 15 16  1  0  0  0  0
 16 17  2  0  0  0  0
 16 20  1  0  0  0  0
 17 18  1  0  0  0  0
 17 22  1  0  0  0  0
 18 19  2  0  0  0  0
 20 21  2  0  0  0  0
 21 22  1  0  0  0  0
 22 23  1  0  0  0  0
 24 25  1  0  0  0  0
 25 26  1  0  0  0  0
 25 28  1  0  0  0  0
 26 27  1  0  0  0  0
  2 29  1  0  0  0  0
  3 30  1  0  0  0  0
  4 31  1  0  0  0  0
 10 32  1  0  0  0  0
 12 33  1  0  0  0  0
 13 34  1  0  0  0  0
 15 35  1  0  0  0  0
 18 36  1  0  0  0  0
 19 37  1  0  0  0  0
 20 38  1  0  0  0  0
 23 39  1  0  0  0  0
 23 40  1  0  0  0  0
 23 41  1  0  0  0  0
 24 42  1  0  0  0  0
 24 43  1  0  0  0  0
 25 44  1  0  0  0  0
 26 45  1  0  0  0  0
 26 46  1  0  0  0  0
 27 47  1  0  0  0  0
 27 48  1  0  0  0  0
 28 49  1  0  0  0  0
M  END
> <Name>
42

> <IC50[uM]>
0.004

$$$$
42
  -OEChem-05192314333D
 Structure written by MMmdl.
 49 53  0     1  0  0  0  0  0999 V2000
   -6.3691   12.3596  -12.0090 C   0  0  0  0  0  0  0  0  0  0  0  0
   -6.5082   11.8040  -10.7325 C   0  0  0  0  0  0  0  0  0  0  0  0
   -7.7289   10.5800  -13.0272 C   0  0  0  0  0  0  0  0  0  0  0  0
   -6.9931   11.7723  -13.1223 C   0  0  0  0  0  0  0  0  0  0  0  0
   -7.8208   10.0120  -11.7545 C   0  0  0  0  0  0  0  0  0  0  0  0
   -7.2366   10.6190  -10.6002 C   0  0  0  0  0  0  0  0  0  0  0  0
   -7.6071    9.7463   -9.5106 C   0  0  0  0  0  0  0  0  0  0  0  0
   -8.2820    8.7349   -9.9857 N   0  0  0  0  0  0  0  0  0  0  0  0
   -8.4162    8.8630  -11.2985 N   0  0  0  0  0  0  0  0  0  0  0  0
   -7.3216    9.8824   -8.0245 C   0  0  0  0  0  0  0  0  0  0  0  0
   -4.3612   13.7214  -11.5083 N   0  0  0  0  0  0  0  0  0  0  0  0
   -5.5493   13.6373  -12.1980 C   0  0  0  0  0  0  0  0  0  0  0  0
   -5.9470   14.5254  -12.9531 O   0  0  0  0  0  0  0  0  0  0  0  0
   -5.9509   10.4995   -7.7283 C   0  0  0  0  0  0  0  0  0  0  0  0
   -5.8798   11.7709   -7.1545 C   0  0  0  0  0  0  0  0  0  0  0  0
   -4.6121   12.3149   -6.9130 C   0  0  0  0  0  0  0  0  0  0  0  0
   -3.4406   11.5618   -7.2441 C   0  0  0  0  0  0  0  0  0  0  0  0
   -3.5052   10.2836   -7.8087 C   0  0  0  0  0  0  0  0  0  0  0  0
   -4.7939    9.7786   -8.0440 C   0  0  0  0  0  0  0  0  0  0  0  0
   -4.0930   13.5444   -6.3685 C   0  0  0  0  0  0  0  0  0  0  0  0
   -2.7888   13.5284   -6.3764 N   0  0  0  0  0  0  0  0  0  0  0  0
   -2.3823   12.3688   -6.8823 N   0  0  0  0  0  0  0  0  0  0  0  0
   -0.9528   12.1034   -6.9863 C   0  0  0  0  0  0  0  0  0  0  0  0
   -3.7146   12.5761  -10.8355 C   0  0  0  0  0  0  0  0  0  0  0  0
   -2.2074   12.9376  -10.9559 C   0  0  2  0  0  0  0  0  0  0  0  0
   -2.1889   14.4652  -10.9572 C   0  0  0  0  0  0  0  0  0  0  0  0
   -3.5166   14.9141  -11.6000 C   0  0  0  0  0  0  0  0  0  0  0  0
   -1.6730   12.4527  -12.1791 O   0  0  0  0  0  0  0  0  0  0  0  0
   -6.0635   12.2793   -9.8707 H   0  0  0  0  0  0  0  0  0  0  0  0
   -8.1971   10.1280  -13.8891 H   0  0  0  0  0  0  0  0  0  0  0  0
   -6.9038   12.2545  -14.0846 H   0  0  0  0  0  0  0  0  0  0  0  0
   -8.0970   10.5211   -7.5764 H   0  0  0  0  0  0  0  0  0  0  0  0
   -7.3611    8.8825   -7.5677 H   0  0  0  0  0  0  0  0  0  0  0  0
   -5.3243   15.2428  -12.9545 H   0  0  0  0  0  0  0  0  0  0  0  0
   -6.7764   12.3186   -6.9043 H   0  0  0  0  0  0  0  0  0  0  0  0
   -2.6166    9.7188   -8.0493 H   0  0  0  0  0  0  0  0  0  0  0  0
   -4.8960    8.7979   -8.4848 H   0  0  0  0  0  0  0  0  0  0  0  0
   -4.6978   14.3623   -6.0057 H   0  0  0  0  0  0  0  0  0  0  0  0
   -0.3901   12.9669   -6.6019 H   0  0  0  0  0  0  0  0  0  0  0  0
   -0.7019   11.2100   -6.3955 H   0  0  0  0  0  0  0  0  0  0  0  0
   -0.6874   11.9326   -8.0401 H   0  0  0  0  0  0  0  0  0  0  0  0
   -4.0252   12.5039   -9.7827 H   0  0  0  0  0  0  0  0  0  0  0  0
   -3.9410   11.6307  -11.3502 H   0  0  0  0  0  0  0  0  0  0  0  0
   -1.6579   12.5499  -10.0854 H   0  0  0  0  0  0  0  0  0  0  0  0
   -2.1163   14.8460   -9.9278 H   0  0  0  0  0  0  0  0  0  0  0  0
   -1.3366   14.8352  -11.5459 H   0  0  0  0  0  0  0  0  0  0  0  0
   -3.3656   15.2093  -12.6488 H   0  0  0  0  0  0  0  0  0  0  0  0
   -3.9592   15.7531  -11.0430 H   0  0  0  0  0  0  0  0  0  0  0  0
   -0.7528   12.6819  -12.2362 H   0  0  0  0  0  0  0  0  0  0  0  0
  1  2  1  0  0  0  0
  1  4  1  0  0  0  0
  1 12  2  0  0  0  0
  2  6  2  0  0  0  0
  3  4  2  0  0  0  0
  3  5  1  0  0  0  0
  5  6  1  0  0  0  0
  5  9  2  0  0  0  0
  6  7  1  0  0  0  0
  7  8  2  0  0  0  0
  7 10  1  0  0  0  0
  8  9  1  0  0  0  0
 10 14  1  0  0  0  0
 11 12  1  0  0  0  0
 11 24  1  0  0  0  0
 11 27  1  0  0  0  0
 12 13  1  0  0  0  0
 14 15  2  0  0  0  0
 14 19  1  0  0  0  0
 15 16  1  0  0  0  0
 16 17  2  0  0  0  0
 16 20  1  0  0  0  0
 17 18  1  0  0  0  0
 17 22  1  0  0  0  0
 18 19  2  0  0  0  0
 20 21  2  0  0  0  0
 21 22  1  0  0  0  0
 22 23  1  0  0  0  0
 24 25  1  0  0  0  0
 25 26  1  0  0  0  0
 25 28  1  0  0  0  0
 26 27  1  0  0  0  0
  2 29  1  0  0  0  0
  3 30  1  0  0  0  0
  4 31  1  0  0  0  0
 10 32  1  0  0  0  0
 10 33  1  0  0  0  0
 13 34  1  0  0  0  0
 15 35  1  0  0  0  0
 18 36  1  0  0  0  0
 19 37  1  0  0  0  0
 20 38  1  0  0  0  0
 23 39  1  0  0  0  0
 23 40  1  0  0  0  0
 23 41  1  0  0  0  0
 24 42  1  0  0  0  0
 24 43  1  0  0  0  0
 25 44  1  0  0  0  0
 26 45  1  0  0  0  0
 26 46  1  0  0  0  0
 27 47  1  0  0  0  0
 27 48  1  0  0  0  0
 28 49  1  0  0  0  0
M  END
> <Name>
42

> <IC50[uM]>
0.004

$$$$
42
  -OEChem-05192314333D
 Structure written by MMmdl.
 49 53  0     1  0  0  0  0  0999 V2000
   -6.3691   12.3596  -12.0090 C   0  0  0  0  0  0  0  0  0  0  0  0
   -6.5082   11.8040  -10.7325 C   0  0  0  0  0  0  0  0  0  0  0  0
   -7.7289   10.5800  -13.0272 C   0  0  0  0  0  0  0  0  0  0  0  0
   -6.9931   11.7723  -13.1223 C   0  0  0  0  0  0  0  0  0  0  0  0
   -7.8208   10.0120  -11.7545 C   0  0  0  0  0  0  0  0  0  0  0  0
   -7.2366   10.6190  -10.6002 C   0  0  0  0  0  0  0  0  0  0  0  0
   -7.6071    9.7463   -9.5106 C   0  0  0  0  0  0  0  0  0  0  0  0
   -8.2820    8.7349   -9.9857 N   0  0  0  0  0  0  0  0  0  0  0  0
   -8.4162    8.8630  -11.2985 N   0  0  0  0  0  0  0  0  0  0  0  0
   -7.3216    9.8824   -8.0245 C   0  0  0  0  0  0  0  0  0  0  0  0
   -4.3612   13.7214  -11.5083 N   0  0  0  0  0  0  0  0  0  0  0  0
   -5.5493   13.6373  -12.1980 C   0  0  0  0  0  0  0  0  0  0  0  0
   -5.9470   14.5254  -12.9531 O   0  0  0  0  0  0  0  0  0  0  0  0
   -5.9509   10.4995   -7.7283 C   0  0  0  0  0  0  0  0  0  0  0  0
   -5.8798   11.7709   -7.1545 C   0  0  0  0  0  0  0  0  0  0  0  0
   -4.6121   12.3149   -6.9130 C   0  0  0  0  0  0  0  0  0  0  0  0
   -3.4406   11.5618   -7.2441 C   0  0  0  0  0  0  0  0  0  0  0  0
   -3.5052   10.2836   -7.8087 C   0  0  0  0  0  0  0  0  0  0  0  0
   -4.7939    9.7786   -8.0440 C   0  0  0  0  0  0  0  0  0  0  0  0
   -4.0930   13.5444   -6.3685 C   0  0  0  0  0  0  0  0  0  0  0  0
   -2.7888   13.5284   -6.3764 N   0  0  0  0  0  0  0  0  0  0  0  0
   -2.3823   12.3688   -6.8823 N   0  0  0  0  0  0  0  0  0  0  0  0
   -0.9528   12.1034   -6.9863 C   0  0  0  0  0  0  0  0  0  0  0  0
   -3.7146   12.5761  -10.8355 C   0  0  0  0  0  0  0  0  0  0  0  0
   -2.2074   12.9376  -10.9559 C   0  0  2  0  0  0  0  0  0  0  0  0
   -2.1889   14.4652  -10.9572 C   0  0  0  0  0  0  0  0  0  0  0  0
   -3.5166   14.9141  -11.6000 C   0  0  0  0  0  0  0  0  0  0  0  0
   -1.6730   12.4527  -12.1791 O   0  0  0  0  0  0  0  0  0  0  0  0
   -6.0635   12.2793   -9.8707 H   0  0  0  0  0  0  0  0  0  0  0  0
   -8.1971   10.1280  -13.8891 H   0  0  0  0  0  0  0  0  0  0  0  0
   -6.9038   12.2545  -14.0846 H   0  0  0  0  0  0  0  0  0  0  0  0
   -8.0145    9.5753   -7.2551 H   0  0  0  0  0  0  0  0  0  0  0  0
   -5.3243   15.2428  -12.9545 H   0  0  0  0  0  0  0  0  0  0  0  0
   -6.4097   12.4625   -7.8260 H   0  0  0  0  0  0  0  0  0  0  0  0
   -6.4044   11.7234   -6.1888 H   0  0  0  0  0  0  0  0  0  0  0  0
   -2.6166    9.7188   -8.0493 H   0  0  0  0  0  0  0  0  0  0  0  0
   -4.8960    8.7979   -8.4848 H   0  0  0  0  0  0  0  0  0  0  0  0
   -4.6978   14.3623   -6.0057 H   0  0  0  0  0  0  0  0  0  0  0  0
   -0.3901   12.9669   -6.6019 H   0  0  0  0  0  0  0  0  0  0  0  0
   -0.7019   11.2100   -6.3955 H   0  0  0  0  0  0  0  0  0  0  0  0
   -0.6874   11.9326   -8.0401 H   0  0  0  0  0  0  0  0  0  0  0  0
   -4.0252   12.5039   -9.7827 H   0  0  0  0  0  0  0  0  0  0  0  0
   -3.9410   11.6307  -11.3502 H   0  0  0  0  0  0  0  0  0  0  0  0
   -1.6579   12.5499  -10.0854 H   0  0  0  0  0  0  0  0  0  0  0  0
   -2.1163   14.8460   -9.9278 H   0  0  0  0  0  0  0  0  0  0  0  0
   -1.3366   14.8352  -11.5459 H   0  0  0  0  0  0  0  0  0  0  0  0
   -3.3656   15.2093  -12.6488 H   0  0  0  0  0  0  0  0  0  0  0  0
   -3.9592   15.7531  -11.0430 H   0  0  0  0  0  0  0  0  0  0  0  0
   -0.7528   12.6819  -12.2362 H   0  0  0  0  0  0  0  0  0  0  0  0
  1  2  1  0  0  0  0
  1  4  1  0  0  0  0
  1 12  2  0  0  0  0
  2  6  2  0  0  0  0
  3  4  2  0  0  0  0
  3  5  1  0  0  0  0
  5  6  1  0  0  0  0
  5  9  2  0  0  0  0
  6  7  1  0  0  0  0
  7  8  2  0  0  0  0
  7 10  1  0  0  0  0
  8  9  1  0  0  0  0
 10 14  2  0  0  0  0
 11 12  1  0  0  0  0
 11 24  1  0  0  0  0
 11 27  1  0  0  0  0
 12 13  1  0  0  0  0
 14 15  1  0  0  0  0
 14 19  1  0  0  0  0
 15 16  1  0  0  0  0
 16 17  2  0  0  0  0
 16 20  1  0  0  0  0
 17 18  1  0  0  0  0
 17 22  1  0  0  0  0
 18 19  2  0  0  0  0
 20 21  2  0  0  0  0
 21 22  1  0  0  0  0
 22 23  1  0  0  0  0
 24 25  1  0  0  0  0
 25 26  1  0  0  0  0
 25 28  1  0  0  0  0
 26 27  1  0  0  0  0
  2 29  1  0  0  0  0
  3 30  1  0  0  0  0
  4 31  1  0  0  0  0
 10 32  1  0  0  0  0
 13 33  1  0  0  0  0
 15 34  1  0  0  0  0
 15 35  1  0  0  0  0
 18 36  1  0  0  0  0
 19 37  1  0  0  0  0
 20 38  1  0  0  0  0
 23 39  1  0  0  0  0
 23 40  1  0  0  0  0
 23 41  1  0  0  0  0
 24 42  1  0  0  0  0
 24 43  1  0  0  0  0
 25 44  1  0  0  0  0
 26 45  1  0  0  0  0
 26 46  1  0  0  0  0
 27 47  1  0  0  0  0
 27 48  1  0  0  0  0
 28 49  1  0  0  0  0
M  END
> <Name>
42

> <IC50[uM]>
0.004

$$$$
42
  -OEChem-05192314333D
 Structure written by MMmdl.
 49 53  0     1  0  0  0  0  0999 V2000
   -6.3691   12.3596  -12.0090 C   0  0  0  0  0  0  0  0  0  0  0  0
   -6.5082   11.8040  -10.7325 C   0  0  0  0  0  0  0  0  0  0  0  0
   -7.7289   10.5800  -13.0272 C   0  0  0  0  0  0  0  0  0  0  0  0
   -6.9931   11.7723  -13.1223 C   0  0  0  0  0  0  0  0  0  0  0  0
   -7.8208   10.0120  -11.7545 C   0  0  0  0  0  0  0  0  0  0  0  0
   -7.2366   10.6190  -10.6002 C   0  0  0  0  0  0  0  0  0  0  0  0
   -7.6071    9.7463   -9.5106 C   0  0  0  0  0  0  0  0  0  0  0  0
   -8.2820    8.7349   -9.9857 N   0  0  0  0  0  0  0  0  0  0  0  0
   -8.4162    8.8630  -11.2985 N   0  0  0  0  0  0  0  0  0  0  0  0
   -7.3216    9.8824   -8.0245 C   0  0  0  0  0  0  0  0  0  0  0  0
   -4.3612   13.7214  -11.5083 N   0  0  0  0  0  0  0  0  0  0  0  0
   -5.5493   13.6373  -12.1980 C   0  0  0  0  0  0  0  0  0  0  0  0
   -5.9470   14.5254  -12.9531 O   0  0  0  0  0  0  0  0  0  0  0  0
   -5.9509   10.4995   -7.7283 C   0  0  0  0  0  0  0  0  0  0  0  0
   -5.8798   11.7709   -7.1545 C   0  0  0  0  0  0  0  0  0  0  0  0
   -4.6121   12.3149   -6.9130 C   0  0  0  0  0  0  0  0  0  0  0  0
   -3.4406   11.5618   -7.2441 C   0  0  0  0  0  0  0  0  0  0  0  0
   -3.5052   10.2836   -7.8087 C   0  0  0  0  0  0  0  0  0  0  0  0
   -4.7939    9.7786   -8.0440 C   0  0  0  0  0  0  0  0  0  0  0  0
   -4.0930   13.5444   -6.3685 C   0  0  0  0  0  0  0  0  0  0  0  0
   -2.7888   13.5284   -6.3764 N   0  0  0  0  0  0  0  0  0  0  0  0
   -2.3823   12.3688   -6.8823 N   0  0  0  0  0  0  0  0  0  0  0  0
   -0.9528   12.1034   -6.9863 C   0  0  0  0  0  0  0  0  0  0  0  0
   -3.7146   12.5761  -10.8355 C   0  0  0  0  0  0  0  0  0  0  0  0
   -2.2074   12.9376  -10.9559 C   0  0  2  0  0  0  0  0  0  0  0  0
   -2.1889   14.4652  -10.9572 C   0  0  0  0  0  0  0  0  0  0  0  0
   -3.5166   14.9141  -11.6000 C   0  0  0  0  0  0  0  0  0  0  0  0
   -1.6730   12.4527  -12.1791 O   0  0  0  0  0  0  0  0  0  0  0  0
   -6.0635   12.2793   -9.8707 H   0  0  0  0  0  0  0  0  0  0  0  0
   -8.1971   10.1280  -13.8891 H   0  0  0  0  0  0  0  0  0  0  0  0
   -6.9038   12.2545  -14.0846 H   0  0  0  0  0  0  0  0  0  0  0  0
   -8.0145    9.5753   -7.2551 H   0  0  0  0  0  0  0  0  0  0  0  0
   -5.3243   15.2428  -12.9545 H   0  0  0  0  0  0  0  0  0  0  0  0
   -6.7764   12.3186   -6.9043 H   0  0  0  0  0  0  0  0  0  0  0  0
   -2.6166    9.7188   -8.0493 H   0  0  0  0  0  0  0  0  0  0  0  0
   -4.8594    8.8342   -7.4838 H   0  0  0  0  0  0  0  0  0  0  0  0
   -4.8484    9.5696   -9.1226 H   0  0  0  0  0  0  0  0  0  0  0  0
   -4.6978   14.3623   -6.0057 H   0  0  0  0  0  0  0  0  0  0  0  0
   -0.3901   12.9669   -6.6019 H   0  0  0  0  0  0  0  0  0  0  0  0
   -0.7019   11.2100   -6.3955 H   0  0  0  0  0  0  0  0  0  0  0  0
   -0.6874   11.9326   -8.0401 H   0  0  0  0  0  0  0  0  0  0  0  0
   -4.0252   12.5039   -9.7827 H   0  0  0  0  0  0  0  0  0  0  0  0
   -3.9410   11.6307  -11.3502 H   0  0  0  0  0  0  0  0  0  0  0  0
   -1.6579   12.5499  -10.0854 H   0  0  0  0  0  0  0  0  0  0  0  0
   -2.1163   14.8460   -9.9278 H   0  0  0  0  0  0  0  0  0  0  0  0
   -1.3366   14.8352  -11.5459 H   0  0  0  0  0  0  0  0  0  0  0  0
   -3.3656   15.2093  -12.6488 H   0  0  0  0  0  0  0  0  0  0  0  0
   -3.9592   15.7531  -11.0430 H   0  0  0  0  0  0  0  0  0  0  0  0
   -0.7528   12.6819  -12.2362 H   0  0  0  0  0  0  0  0  0  0  0  0
  1  2  1  0  0  0  0
  1  4  1  0  0  0  0
  1 12  2  0  0  0  0
  2  6  2  0  0  0  0
  3  4  2  0  0  0  0
  3  5  1  0  0  0  0
  5  6  1  0  0  0  0
  5  9  2  0  0  0  0
  6  7  1  0  0  0  0
  7  8  2  0  0  0  0
  7 10  1  0  0  0  0
  8  9  1  0  0  0  0
 10 14  2  0  0  0  0
 11 12  1  0  0  0  0
 11 24  1  0  0  0  0
 11 27  1  0  0  0  0
 12 13  1  0  0  0  0
 14 15  1  0  0  0  0
 14 19  1  0  0  0  0
 15 16  2  0  0  0  0
 16 17  1  0  0  0  0
 16 20  1  0  0  0  0
 17 18  2  0  0  0  0
 17 22  1  0  0  0  0
 18 19  1  0  0  0  0
 20 21  2  0  0  0  0
 21 22  1  0  0  0  0
 22 23  1  0  0  0  0
 24 25  1  0  0  0  0
 25 26  1  0  0  0  0
 25 28  1  0  0  0  0
 26 27  1  0  0  0  0
  2 29  1  0  0  0  0
  3 30  1  0  0  0  0
  4 31  1  0  0  0  0
 10 32  1  0  0  0  0
 13 33  1  0  0  0  0
 15 34  1  0  0  0  0
 18 35  1  0  0  0  0
 19 36  1  0  0  0  0
 19 37  1  0  0  0  0
 20 38  1  0  0  0  0
 23 39  1  0  0  0  0
 23 40  1  0  0  0  0
 23 41  1  0  0  0  0
 24 42  1  0  0  0  0
 24 43  1  0  0  0  0
 25 44  1  0  0  0  0
 26 45  1  0  0  0  0
 26 46  1  0  0  0  0
 27 47  1  0  0  0  0
 27 48  1  0  0  0  0
 28 49  1  0  0  0  0
M  END
> <Name>
42

> <IC50[uM]>
0.004

$$$$
42
  -OEChem-05192314333D
 Structure written by MMmdl.
 49 53  0     1  0  0  0  0  0999 V2000
   -6.3691   12.3596  -12.0090 C   0  0  0  0  0  0  0  0  0  0  0  0
   -6.5082   11.8040  -10.7325 C   0  0  0  0  0  0  0  0  0  0  0  0
   -7.7289   10.5800  -13.0272 C   0  0  0  0  0  0  0  0  0  0  0  0
   -6.9931   11.7723  -13.1223 C   0  0  0  0  0  0  0  0  0  0  0  0
   -7.8208   10.0120  -11.7545 C   0  0  0  0  0  0  0  0  0  0  0  0
   -7.2366   10.6190  -10.6002 C   0  0  0  0  0  0  0  0  0  0  0  0
   -7.6071    9.7463   -9.5106 C   0  0  0  0  0  0  0  0  0  0  0  0
   -8.2820    8.7349   -9.9857 N   0  0  0  0  0  0  0  0  0  0  0  0
   -8.4162    8.8630  -11.2985 N   0  0  0  0  0  0  0  0  0  0  0  0
   -7.3216    9.8824   -8.0245 C   0  0  0  0  0  0  0  0  0  0  0  0
   -4.3612   13.7214  -11.5083 N   0  0  0  0  0  0  0  0  0  0  0  0
   -5.5493   13.6373  -12.1980 C   0  0  0  0  0  0  0  0  0  0  0  0
   -5.9470   14.5254  -12.9531 O   0  0  0  0  0  0  0  0  0  0  0  0
   -5.9509   10.4995   -7.7283 C   0  0  0  0  0  0  0  0  0  0  0  0
   -5.8798   11.7709   -7.1545 C   0  0  0  0  0  0  0  0  0  0  0  0
   -4.6121   12.3149   -6.9130 C   0  0  0  0  0  0  0  0  0  0  0  0
   -3.4406   11.5618   -7.2441 C   0  0  0  0  0  0  0  0  0  0  0  0
   -3.5052   10.2836   -7.8087 C   0  0  0  0  0  0  0  0  0  0  0  0
   -4.7939    9.7786   -8.0440 C   0  0  0  0  0  0  0  0  0  0  0  0
   -4.0930   13.5444   -6.3685 C   0  0  0  0  0  0  0  0  0  0  0  0
   -2.7888   13.5284   -6.3764 N   0  0  0  0  0  0  0  0  0  0  0  0
   -2.3823   12.3688   -6.8823 N   0  0  0  0  0  0  0  0  0  0  0  0
   -0.9528   12.1034   -6.9863 C   0  0  0  0  0  0  0  0  0  0  0  0
   -3.7146   12.5761  -10.8355 C   0  0  0  0  0  0  0  0  0  0  0  0
   -2.2074   12.9376  -10.9559 C   0  0  2  0  0  0  0  0  0  0  0  0
   -2.1889   14.4652  -10.9572 C   0  0  0  0  0  0  0  0  0  0  0  0
   -3.5166   14.9141  -11.6000 C   0  0  0  0  0  0  0  0  0  0  0  0
   -1.6730   12.4527  -12.1791 O   0  0  0  0  0  0  0  0  0  0  0  0
   -6.0635   12.2793   -9.8707 H   0  0  0  0  0  0  0  0  0  0  0  0
   -8.1971   10.1280  -13.8891 H   0  0  0  0  0  0  0  0  0  0  0  0
   -6.9038   12.2545  -14.0846 H   0  0  0  0  0  0  0  0  0  0  0  0
   -6.8882    9.4572  -11.9348 H   0  0  0  0  0  0  0  0  0  0  0  0
   -8.0145    9.5753   -7.2551 H   0  0  0  0  0  0  0  0  0  0  0  0
   -5.3243   15.2428  -12.9545 H   0  0  0  0  0  0  0  0  0  0  0  0
   -6.7764   12.3186   -6.9043 H   0  0  0  0  0  0  0  0  0  0  0  0
   -2.6166    9.7188   -8.0493 H   0  0  0  0  0  0  0  0  0  0  0  0
   -4.8960    8.7979   -8.4848 H   0  0  0  0  0  0  0  0  0  0  0  0
   -4.6978   14.3623   -6.0057 H   0  0  0  0  0  0  0  0  0  0  0  0
   -0.3901   12.9669   -6.6019 H   0  0  0  0  0  0  0  0  0  0  0  0
   -0.7019   11.2100   -6.3955 H   0  0  0  0  0  0  0  0  0  0  0  0
   -0.6874   11.9326   -8.0401 H   0  0  0  0  0  0  0  0  0  0  0  0
   -4.0252   12.5039   -9.7827 H   0  0  0  0  0  0  0  0  0  0  0  0
   -3.9410   11.6307  -11.3502 H   0  0  0  0  0  0  0  0  0  0  0  0
   -1.6579   12.5499  -10.0854 H   0  0  0  0  0  0  0  0  0  0  0  0
   -2.1163   14.8460   -9.9278 H   0  0  0  0  0  0  0  0  0  0  0  0
   -1.3366   14.8352  -11.5459 H   0  0  0  0  0  0  0  0  0  0  0  0
   -3.3656   15.2093  -12.6488 H   0  0  0  0  0  0  0  0  0  0  0  0
   -3.9592   15.7531  -11.0430 H   0  0  0  0  0  0  0  0  0  0  0  0
   -0.7528   12.6819  -12.2362 H   0  0  0  0  0  0  0  0  0  0  0  0
  1  2  1  0  0  0  0
  1  4  1  0  0  0  0
  1 12  2  0  0  0  0
  2  6  2  0  0  0  0
  3  4  2  0  0  0  0
  3  5  1  0  0  0  0
  5  6  1  0  0  0  0
  5  9  1  0  0  0  0
  6  7  1  0  0  0  0
  7  8  1  0  0  0  0
  7 10  2  0  0  0  0
  8  9  2  0  0  0  0
 10 14  1  0  0  0  0
 11 12  1  0  0  0  0
 11 24  1  0  0  0  0
 11 27  1  0  0  0  0
 12 13  1  0  0  0  0
 14 15  2  0  0  0  0
 14 19  1  0  0  0  0
 15 16  1  0  0  0  0
 16 17  2  0  0  0  0
 16 20  1  0  0  0  0
 17 18  1  0  0  0  0
 17 22  1  0  0  0  0
 18 19  2  0  0  0  0
 20 21  2  0  0  0  0
 21 22  1  0  0  0  0
 22 23  1  0  0  0  0
 24 25  1  0  0  0  0
 25 26  1  0  0  0  0
 25 28  1  0  0  0  0
 26 27  1  0  0  0  0
  2 29  1  0  0  0  0
  3 30  1  0  0  0  0
  4 31  1  0  0  0  0
  5 32  1  0  0  0  0
 10 33  1  0  0  0  0
 13 34  1  0  0  0  0
 15 35  1  0  0  0  0
 18 36  1  0  0  0  0
 19 37  1  0  0  0  0
 20 38  1  0  0  0  0
 23 39  1  0  0  0  0
 23 40  1  0  0  0  0
 23 41  1  0  0  0  0
 24 42  1  0  0  0  0
 24 43  1  0  0  0  0
 25 44  1  0  0  0  0
 26 45  1  0  0  0  0
 26 46  1  0  0  0  0
 27 47  1  0  0  0  0
 27 48  1  0  0  0  0
 28 49  1  0  0  0  0
M  END
> <Name>
42

> <IC50[uM]>
0.004

$$$$
42
  -OEChem-05192314333D
 Structure written by MMmdl.
 49 53  0     1  0  0  0  0  0999 V2000
   -6.3691   12.3596  -12.0090 C   0  0  0  0  0  0  0  0  0  0  0  0
   -6.5082   11.8040  -10.7325 C   0  0  0  0  0  0  0  0  0  0  0  0
   -7.7289   10.5800  -13.0272 C   0  0  0  0  0  0  0  0  0  0  0  0
   -6.9931   11.7723  -13.1223 C   0  0  0  0  0  0  0  0  0  0  0  0
   -7.8208   10.0120  -11.7545 C   0  0  0  0  0  0  0  0  0  0  0  0
   -7.2366   10.6190  -10.6002 C   0  0  0  0  0  0  0  0  0  0  0  0
   -7.6071    9.7463   -9.5106 C   0  0  0  0  0  0  0  0  0  0  0  0
   -8.2820    8.7349   -9.9857 N   0  0  0  0  0  0  0  0  0  0  0  0
   -8.4162    8.8630  -11.2985 N   0  0  0  0  0  0  0  0  0  0  0  0
   -7.3216    9.8824   -8.0245 C   0  0  0  0  0  0  0  0  0  0  0  0
   -4.3612   13.7214  -11.5083 N   0  0  0  0  0  0  0  0  0  0  0  0
   -5.5493   13.6373  -12.1980 C   0  0  0  0  0  0  0  0  0  0  0  0
   -5.9470   14.5254  -12.9531 O   0  0  0  0  0  0  0  0  0  0  0  0
   -5.9509   10.4995   -7.7283 C   0  0  0  0  0  0  0  0  0  0  0  0
   -5.8798   11.7709   -7.1545 C   0  0  0  0  0  0  0  0  0  0  0  0
   -4.6121   12.3149   -6.9130 C   0  0  0  0  0  0  0  0  0  0  0  0
   -3.4406   11.5618   -7.2441 C   0  0  0  0  0  0  0  0  0  0  0  0
   -3.5052   10.2836   -7.8087 C   0  0  0  0  0  0  0  0  0  0  0  0
   -4.7939    9.7786   -8.0440 C   0  0  0  0  0  0  0  0  0  0  0  0
   -4.0930   13.5444   -6.3685 C   0  0  0  0  0  0  0  0  0  0  0  0
   -2.7888   13.5284   -6.3764 N   0  0  0  0  0  0  0  0  0  0  0  0
   -2.3823   12.3688   -6.8823 N   0  0  0  0  0  0  0  0  0  0  0  0
   -0.9528   12.1034   -6.9863 C   0  0  0  0  0  0  0  0  0  0  0  0
   -3.7146   12.5761  -10.8355 C   0  0  0  0  0  0  0  0  0  0  0  0
   -2.2074   12.9376  -10.9559 C   0  0  2  0  0  0  0  0  0  0  0  0
   -2.1889   14.4652  -10.9572 C   0  0  0  0  0  0  0  0  0  0  0  0
   -3.5166   14.9141  -11.6000 C   0  0  0  0  0  0  0  0  0  0  0  0
   -1.6730   12.4527  -12.1791 O   0  0  0  0  0  0  0  0  0  0  0  0
   -6.0635   12.2793   -9.8707 H   0  0  0  0  0  0  0  0  0  0  0  0
   -8.1971   10.1280  -13.8891 H   0  0  0  0  0  0  0  0  0  0  0  0
   -7.6854   12.5289  -13.5202 H   0  0  0  0  0  0  0  0  0  0  0  0
   -6.1958   11.5828  -13.8561 H   0  0  0  0  0  0  0  0  0  0  0  0
   -8.0145    9.5753   -7.2551 H   0  0  0  0  0  0  0  0  0  0  0  0
   -5.3243   15.2428  -12.9545 H   0  0  0  0  0  0  0  0  0  0  0  0
   -6.7764   12.3186   -6.9043 H   0  0  0  0  0  0  0  0  0  0  0  0
   -2.6166    9.7188   -8.0493 H   0  0  0  0  0  0  0  0  0  0  0  0
   -4.8960    8.7979   -8.4848 H   0  0  0  0  0  0  0  0  0  0  0  0
   -4.6978   14.3623   -6.0057 H   0  0  0  0  0  0  0  0  0  0  0  0
   -0.3901   12.9669   -6.6019 H   0  0  0  0  0  0  0  0  0  0  0  0
   -0.7019   11.2100   -6.3955 H   0  0  0  0  0  0  0  0  0  0  0  0
   -0.6874   11.9326   -8.0401 H   0  0  0  0  0  0  0  0  0  0  0  0
   -4.0252   12.5039   -9.7827 H   0  0  0  0  0  0  0  0  0  0  0  0
   -3.9410   11.6307  -11.3502 H   0  0  0  0  0  0  0  0  0  0  0  0
   -1.6579   12.5499  -10.0854 H   0  0  0  0  0  0  0  0  0  0  0  0
   -2.1163   14.8460   -9.9278 H   0  0  0  0  0  0  0  0  0  0  0  0
   -1.3366   14.8352  -11.5459 H   0  0  0  0  0  0  0  0  0  0  0  0
   -3.3656   15.2093  -12.6488 H   0  0  0  0  0  0  0  0  0  0  0  0
   -3.9592   15.7531  -11.0430 H   0  0  0  0  0  0  0  0  0  0  0  0
   -0.7528   12.6819  -12.2362 H   0  0  0  0  0  0  0  0  0  0  0  0
  1  2  1  0  0  0  0
  1  4  1  0  0  0  0
  1 12  2  0  0  0  0
  2  6  2  0  0  0  0
  3  4  1  0  0  0  0
  3  5  2  0  0  0  0
  5  6  1  0  0  0  0
  5  9  1  0  0  0  0
  6  7  1  0  0  0  0
  7  8  1  0  0  0  0
  7 10  2  0  0  0  0
  8  9  2  0  0  0  0
 10 14  1  0  0  0  0
 11 12  1  0  0  0  0
 11 24  1  0  0  0  0
 11 27  1  0  0  0  0
 12 13  1  0  0  0  0
 14 15  2  0  0  0  0
 14 19  1  0  0  0  0
 15 16  1  0  0  0  0
 16 17  2  0  0  0  0
 16 20  1  0  0  0  0
 17 18  1  0  0  0  0
 17 22  1  0  0  0  0
 18 19  2  0  0  0  0
 20 21  2  0  0  0  0
 21 22  1  0  0  0  0
 22 23  1  0  0  0  0
 24 25  1  0  0  0  0
 25 26  1  0  0  0  0
 25 28  1  0  0  0  0
 26 27  1  0  0  0  0
  2 29  1  0  0  0  0
  3 30  1  0  0  0  0
  4 31  1  0  0  0  0
  4 32  1  0  0  0  0
 10 33  1  0  0  0  0
 13 34  1  0  0  0  0
 15 35  1  0  0  0  0
 18 36  1  0  0  0  0
 19 37  1  0  0  0  0
 20 38  1  0  0  0  0
 23 39  1  0  0  0  0
 23 40  1  0  0  0  0
 23 41  1  0  0  0  0
 24 42  1  0  0  0  0
 24 43  1  0  0  0  0
 25 44  1  0  0  0  0
 26 45  1  0  0  0  0
 26 46  1  0  0  0  0
 27 47  1  0  0  0  0
 27 48  1  0  0  0  0
 28 49  1  0  0  0  0
M  END
> <Name>
42

> <IC50[uM]>
0.004

$$$$
42
  -OEChem-05192314333D
 Structure written by MMmdl.
 49 53  0     1  0  0  0  0  0999 V2000
   -6.3691   12.3596  -12.0090 C   0  0  0  0  0  0  0  0  0  0  0  0
   -6.5082   11.8040  -10.7325 C   0  0  0  0  0  0  0  0  0  0  0  0
   -7.7289   10.5800  -13.0272 C   0  0  0  0  0  0  0  0  0  0  0  0
   -6.9931   11.7723  -13.1223 C   0  0  0  0  0  0  0  0  0  0  0  0
   -7.8208   10.0120  -11.7545 C   0  0  0  0  0  0  0  0  0  0  0  0
   -7.2366   10.6190  -10.6002 C   0  0  0  0  0  0  0  0  0  0  0  0
   -7.6071    9.7463   -9.5106 C   0  0  0  0  0  0  0  0  0  0  0  0
   -8.2820    8.7349   -9.9857 N   0  0  0  0  0  0  0  0  0  0  0  0
   -8.4162    8.8630  -11.2985 N   0  0  0  0  0  0  0  0  0  0  0  0
   -7.3216    9.8824   -8.0245 C   0  0  0  0  0  0  0  0  0  0  0  0
   -4.3612   13.7214  -11.5083 N   0  0  0  0  0  0  0  0  0  0  0  0
   -5.5493   13.6373  -12.1980 C   0  0  0  0  0  0  0  0  0  0  0  0
   -5.9470   14.5254  -12.9531 O   0  0  0  0  0  0  0  0  0  0  0  0
   -5.9509   10.4995   -7.7283 C   0  0  0  0  0  0  0  0  0  0  0  0
   -5.8798   11.7709   -7.1545 C   0  0  0  0  0  0  0  0  0  0  0  0
   -4.6121   12.3149   -6.9130 C   0  0  0  0  0  0  0  0  0  0  0  0
   -3.4406   11.5618   -7.2441 C   0  0  0  0  0  0  0  0  0  0  0  0
   -3.5052   10.2836   -7.8087 C   0  0  0  0  0  0  0  0  0  0  0  0
   -4.7939    9.7786   -8.0440 C   0  0  0  0  0  0  0  0  0  0  0  0
   -4.0930   13.5444   -6.3685 C   0  0  0  0  0  0  0  0  0  0  0  0
   -2.7888   13.5284   -6.3764 N   0  0  0  0  0  0  0  0  0  0  0  0
   -2.3823   12.3688   -6.8823 N   0  0  0  0  0  0  0  0  0  0  0  0
   -0.9528   12.1034   -6.9863 C   0  0  0  0  0  0  0  0  0  0  0  0
   -3.7146   12.5761  -10.8355 C   0  0  0  0  0  0  0  0  0  0  0  0
   -2.2074   12.9376  -10.9559 C   0  0  2  0  0  0  0  0  0  0  0  0
   -2.1889   14.4652  -10.9572 C   0  0  0  0  0  0  0  0  0  0  0  0
   -3.5166   14.9141  -11.6000 C   0  0  0  0  0  0  0  0  0  0  0  0
   -1.6730   12.4527  -12.1791 O   0  0  0  0  0  0  0  0  0  0  0  0
   -5.4953   11.6077  -10.3509 H   0  0  0  0  0  0  0  0  0  0  0  0
   -6.9981   12.5594  -10.1005 H   0  0  0  0  0  0  0  0  0  0  0  0
   -8.1971   10.1280  -13.8891 H   0  0  0  0  0  0  0  0  0  0  0  0
   -6.9038   12.2545  -14.0846 H   0  0  0  0  0  0  0  0  0  0  0  0
   -8.0145    9.5753   -7.2551 H   0  0  0  0  0  0  0  0  0  0  0  0
   -5.3243   15.2428  -12.9545 H   0  0  0  0  0  0  0  0  0  0  0  0
   -6.7764   12.3186   -6.9043 H   0  0  0  0  0  0  0  0  0  0  0  0
   -2.6166    9.7188   -8.0493 H   0  0  0  0  0  0  0  0  0  0  0  0
   -4.8960    8.7979   -8.4848 H   0  0  0  0  0  0  0  0  0  0  0  0
   -4.6978   14.3623   -6.0057 H   0  0  0  0  0  0  0  0  0  0  0  0
   -0.3901   12.9669   -6.6019 H   0  0  0  0  0  0  0  0  0  0  0  0
   -0.7019   11.2100   -6.3955 H   0  0  0  0  0  0  0  0  0  0  0  0
   -0.6874   11.9326   -8.0401 H   0  0  0  0  0  0  0  0  0  0  0  0
   -4.0252   12.5039   -9.7827 H   0  0  0  0  0  0  0  0  0  0  0  0
   -3.9410   11.6307  -11.3502 H   0  0  0  0  0  0  0  0  0  0  0  0
   -1.6579   12.5499  -10.0854 H   0  0  0  0  0  0  0  0  0  0  0  0
   -2.1163   14.8460   -9.9278 H   0  0  0  0  0  0  0  0  0  0  0  0
   -1.3366   14.8352  -11.5459 H   0  0  0  0  0  0  0  0  0  0  0  0
   -3.3656   15.2093  -12.6488 H   0  0  0  0  0  0  0  0  0  0  0  0
   -3.9592   15.7531  -11.0430 H   0  0  0  0  0  0  0  0  0  0  0  0
   -0.7528   12.6819  -12.2362 H   0  0  0  0  0  0  0  0  0  0  0  0
  1  2  1  0  0  0  0
  1  4  1  0  0  0  0
  1 12  2  0  0  0  0
  2  6  1  0  0  0  0
  3  4  2  0  0  0  0
  3  5  1  0  0  0  0
  5  6  2  0  0  0  0
  5  9  1  0  0  0  0
  6  7  1  0  0  0  0
  7  8  1  0  0  0  0
  7 10  2  0  0  0  0
  8  9  2  0  0  0  0
 10 14  1  0  0  0  0
 11 12  1  0  0  0  0
 11 24  1  0  0  0  0
 11 27  1  0  0  0  0
 12 13  1  0  0  0  0
 14 15  2  0  0  0  0
 14 19  1  0  0  0  0
 15 16  1  0  0  0  0
 16 17  2  0  0  0  0
 16 20  1  0  0  0  0
 17 18  1  0  0  0  0
 17 22  1  0  0  0  0
 18 19  2  0  0  0  0
 20 21  2  0  0  0  0
 21 22  1  0  0  0  0
 22 23  1  0  0  0  0
 24 25  1  0  0  0  0
 25 26  1  0  0  0  0
 25 28  1  0  0  0  0
 26 27  1  0  0  0  0
  2 29  1  0  0  0  0
  2 30  1  0  0  0  0
  3 31  1  0  0  0  0
  4 32  1  0  0  0  0
 10 33  1  0  0  0  0
 13 34  1  0  0  0  0
 15 35  1  0  0  0  0
 18 36  1  0  0  0  0
 19 37  1  0  0  0  0
 20 38  1  0  0  0  0
 23 39  1  0  0  0  0
 23 40  1  0  0  0  0
 23 41  1  0  0  0  0
 24 42  1  0  0  0  0
 24 43  1  0  0  0  0
 25 44  1  0  0  0  0
 26 45  1  0  0  0  0
 26 46  1  0  0  0  0
 27 47  1  0  0  0  0
 27 48  1  0  0  0  0
 28 49  1  0  0  0  0
M  END
> <Name>
42

> <IC50[uM]>
0.004

$$$$
42
  -OEChem-05192314333D
 Structure written by MMmdl.
 49 53  0     1  0  0  0  0  0999 V2000
   -6.3691   12.3596  -12.0090 C   0  0  0  0  0  0  0  0  0  0  0  0
   -6.5082   11.8040  -10.7325 C   0  0  0  0  0  0  0  0  0  0  0  0
   -7.7289   10.5800  -13.0272 C   0  0  0  0  0  0  0  0  0  0  0  0
   -6.9931   11.7723  -13.1223 C   0  0  0  0  0  0  0  0  0  0  0  0
   -7.8208   10.0120  -11.7545 C   0  0  0  0  0  0  0  0  0  0  0  0
   -7.2366   10.6190  -10.6002 C   0  0  0  0  0  0  0  0  0  0  0  0
   -7.6071    9.7463   -9.5106 C   0  0  0  0  0  0  0  0  0  0  0  0
   -8.2820    8.7349   -9.9857 N   0  0  0  0  0  0  0  0  0  0  0  0
   -8.4162    8.8630  -11.2985 N   0  0  0  0  0  0  0  0  0  0  0  0
   -7.3216    9.8824   -8.0245 C   0  0  0  0  0  0  0  0  0  0  0  0
   -4.3612   13.7214  -11.5083 N   0  0  0  0  0  0  0  0  0  0  0  0
   -5.5493   13.6373  -12.1980 C   0  0  0  0  0  0  0  0  0  0  0  0
   -5.9470   14.5254  -12.9531 O   0  0  0  0  0  0  0  0  0  0  0  0
   -5.9509   10.4995   -7.7283 C   0  0  0  0  0  0  0  0  0  0  0  0
   -5.8798   11.7709   -7.1545 C   0  0  0  0  0  0  0  0  0  0  0  0
   -4.6121   12.3149   -6.9130 C   0  0  0  0  0  0  0  0  0  0  0  0
   -3.4406   11.5618   -7.2441 C   0  0  0  0  0  0  0  0  0  0  0  0
   -3.5052   10.2836   -7.8087 C   0  0  0  0  0  0  0  0  0  0  0  0
   -4.7939    9.7786   -8.0440 C   0  0  0  0  0  0  0  0  0  0  0  0
   -4.0930   13.5444   -6.3685 C   0  0  0  0  0  0  0  0  0  0  0  0
   -2.7888   13.5284   -6.3764 N   0  0  0  0  0  0  0  0  0  0  0  0
   -2.3823   12.3688   -6.8823 N   0  0  0  0  0  0  0  0  0  0  0  0
   -0.9528   12.1034   -6.9863 C   0  0  0  0  0  0  0  0  0  0  0  0
   -3.7146   12.5761  -10.8355 C   0  0  0  0  0  0  0  0  0  0  0  0
   -2.2074   12.9376  -10.9559 C   0  0  2  0  0  0  0  0  0  0  0  0
   -2.1889   14.4652  -10.9572 C   0  0  0  0  0  0  0  0  0  0  0  0
   -3.5166   14.9141  -11.6000 C   0  0  0  0  0  0  0  0  0  0  0  0
   -1.6730   12.4527  -12.1791 O   0  0  0  0  0  0  0  0  0  0  0  0
   -6.0635   12.2793   -9.8707 H   0  0  0  0  0  0  0  0  0  0  0  0
   -8.1971   10.1280  -13.8891 H   0  0  0  0  0  0  0  0  0  0  0  0
   -6.9038   12.2545  -14.0846 H   0  0  0  0  0  0  0  0  0  0  0  0
   -8.0145    9.5753   -7.2551 H   0  0  0  0  0  0  0  0  0  0  0  0
   -5.3243   15.2428  -12.9545 H   0  0  0  0  0  0  0  0  0  0  0  0
   -6.7764   12.3186   -6.9043 H   0  0  0  0  0  0  0  0  0  0  0  0
   -3.4375   12.0070   -8.2500 H   0  0  0  0  0  0  0  0  0  0  0  0
   -2.6166    9.7188   -8.0493 H   0  0  0  0  0  0  0  0  0  0  0  0
   -4.8960    8.7979   -8.4848 H   0  0  0  0  0  0  0  0  0  0  0  0
   -4.6978   14.3623   -6.0057 H   0  0  0  0  0  0  0  0  0  0  0  0
   -0.3901   12.9669   -6.6019 H   0  0  0  0  0  0  0  0  0  0  0  0
   -0.7019   11.2100   -6.3955 H   0  0  0  0  0  0  0  0  0  0  0  0
   -0.6874   11.9326   -8.0401 H   0  0  0  0  0  0  0  0  0  0  0  0
   -4.0252   12.5039   -9.7827 H   0  0  0  0  0  0  0  0  0  0  0  0
   -3.9410   11.6307  -11.3502 H   0  0  0  0  0  0  0  0  0  0  0  0
   -1.6579   12.5499  -10.0854 H   0  0  0  0  0  0  0  0  0  0  0  0
   -2.1163   14.8460   -9.9278 H   0  0  0  0  0  0  0  0  0  0  0  0
   -1.3366   14.8352  -11.5459 H   0  0  0  0  0  0  0  0  0  0  0  0
   -3.3656   15.2093  -12.6488 H   0  0  0  0  0  0  0  0  0  0  0  0
   -3.9592   15.7531  -11.0430 H   0  0  0  0  0  0  0  0  0  0  0  0
   -0.7528   12.6819  -12.2362 H   0  0  0  0  0  0  0  0  0  0  0  0
  1  2  1  0  0  0  0
  1  4  1  0  0  0  0
  1 12  2  0  0  0  0
  2  6  2  0  0  0  0
  3  4  2  0  0  0  0
  3  5  1  0  0  0  0
  5  6  1  0  0  0  0
  5  9  2  0  0  0  0
  6  7  1  0  0  0  0
  7  8  2  0  0  0  0
  7 10  1  0  0  0  0
  8  9  1  0  0  0  0
 10 14  2  0  0  0  0
 11 12  1  0  0  0  0
 11 24  1  0  0  0  0
 11 27  1  0  0  0  0
 12 13  1  0  0  0  0
 14 15  1  0  0  0  0
 14 19  1  0  0  0  0
 15 16  2  0  0  0  0
 16 17  1  0  0  0  0
 16 20  1  0  0  0  0
 17 18  1  0  0  0  0
 17 22  1  0  0  0  0
 18 19  2  0  0  0  0
 20 21  2  0  0  0  0
 21 22  1  0  0  0  0
 22 23  1  0  0  0  0
 24 25  1  0  0  0  0
 25 26  1  0  0  0  0
 25 28  1  0  0  0  0
 26 27  1  0  0  0  0
  2 29  1  0  0  0  0
  3 30  1  0  0  0  0
  4 31  1  0  0  0  0
 10 32  1  0  0  0  0
 13 33  1  0  0  0  0
 15 34  1  0  0  0  0
 17 35  1  0  0  0  0
 18 36  1  0  0  0  0
 19 37  1  0  0  0  0
 20 38  1  0  0  0  0
 23 39  1  0  0  0  0
 23 40  1  0  0  0  0
 23 41  1  0  0  0  0
 24 42  1  0  0  0  0
 24 43  1  0  0  0  0
 25 44  1  0  0  0  0
 26 45  1  0  0  0  0
 26 46  1  0  0  0  0
 27 47  1  0  0  0  0
 27 48  1  0  0  0  0
 28 49  1  0  0  0  0
M  END
> <Name>
42

> <IC50[uM]>
0.004

$$$$
