16
  -OEChem-05192314333D
 Structure written by MMmdl.
 38 40  0     0  0  0  0  0  0999 V2000
   -6.3886   12.3706  -12.0044 C   0  0  0  0  0  0  0  0  0  0  0  0
   -6.5217   11.8105  -10.7338 C   0  0  0  0  0  0  0  0  0  0  0  0
   -7.7267   10.5778  -13.0331 C   0  0  0  0  0  0  0  0  0  0  0  0
   -6.9997   11.7772  -13.1264 C   0  0  0  0  0  0  0  0  0  0  0  0
   -7.8245   10.0105  -11.7588 C   0  0  0  0  0  0  0  0  0  0  0  0
   -7.2447   10.6240  -10.5997 C   0  0  0  0  0  0  0  0  0  0  0  0
   -7.6157    9.7479   -9.5130 C   0  0  0  0  0  0  0  0  0  0  0  0
   -8.2818    8.7335   -9.9900 N   0  0  0  0  0  0  0  0  0  0  0  0
   -8.4155    8.8614  -11.3010 N   0  0  0  0  0  0  0  0  0  0  0  0
   -7.3377    9.8874   -8.0251 C   0  0  0  0  0  0  0  0  0  0  0  0
   -4.4115   13.6449  -11.4457 N   0  0  0  0  0  0  0  0  0  0  0  0
   -3.4644   14.7678  -11.5034 C   0  0  0  0  0  0  0  0  0  0  0  0
   -5.5490   13.6243  -12.1808 C   0  0  0  0  0  0  0  0  0  0  0  0
   -5.8784   14.5204  -12.9613 O   0  0  0  0  0  0  0  0  0  0  0  0
   -5.9596   10.4818   -7.7362 C   0  0  0  0  0  0  0  0  0  0  0  0
   -5.8460   11.7538   -7.1602 C   0  0  0  0  0  0  0  0  0  0  0  0
   -4.5819   12.3007   -6.9160 C   0  0  0  0  0  0  0  0  0  0  0  0
   -3.4335   11.5746   -7.2403 C   0  0  0  0  0  0  0  0  0  0  0  0
   -3.5461   10.3067   -7.8068 C   0  0  0  0  0  0  0  0  0  0  0  0
   -4.8068    9.7600   -8.0558 C   0  0  0  0  0  0  0  0  0  0  0  0
   -4.4568   13.6807   -6.3006 C   0  0  0  0  0  0  0  0  0  0  0  0
   -6.0750   12.2846   -9.8724 H   0  0  0  0  0  0  0  0  0  0  0  0
   -8.1843   10.1199  -13.8976 H   0  0  0  0  0  0  0  0  0  0  0  0
   -6.9067   12.2589  -14.0885 H   0  0  0  0  0  0  0  0  0  0  0  0
   -8.6382    7.9731   -9.4471 H   0  0  0  0  0  0  0  0  0  0  0  0
   -8.1032   10.5427   -7.5839 H   0  0  0  0  0  0  0  0  0  0  0  0
   -7.3958    8.8917   -7.5613 H   0  0  0  0  0  0  0  0  0  0  0  0
   -4.2095   12.8717  -10.8446 H   0  0  0  0  0  0  0  0  0  0  0  0
   -2.6189   14.5701  -10.8280 H   0  0  0  0  0  0  0  0  0  0  0  0
   -3.0927   14.8813  -12.5325 H   0  0  0  0  0  0  0  0  0  0  0  0
   -3.9729   15.6925  -11.1931 H   0  0  0  0  0  0  0  0  0  0  0  0
   -6.7345   12.3122   -6.9047 H   0  0  0  0  0  0  0  0  0  0  0  0
   -2.4573   11.9965   -7.0517 H   0  0  0  0  0  0  0  0  0  0  0  0
   -2.6569    9.7457   -8.0538 H   0  0  0  0  0  0  0  0  0  0  0  0
   -4.8908    8.7775   -8.4962 H   0  0  0  0  0  0  0  0  0  0  0  0
   -4.4264   13.5926   -5.2046 H   0  0  0  0  0  0  0  0  0  0  0  0
   -3.5315   14.1579   -6.6557 H   0  0  0  0  0  0  0  0  0  0  0  0
   -5.3217   14.2932   -6.5953 H   0  0  0  0  0  0  0  0  0  0  0  0
  1  2  2  0  0  0  0
  1  4  1  0  0  0  0
  1 13  1  0  0  0  0
  2  6  1  0  0  0  0
  3  4  2  0  0  0  0
  3  5  1  0  0  0  0
  5  6  1  0  0  0  0
  5  9  2  0  0  0  0
  6  7  2  0  0  0  0
  7  8  1  0  0  0  0
  7 10  1  0  0  0  0
  8  9  1  0  0  0  0
 10 15  1  0  0  0  0
 11 12  1  0  0  0  0
 11 13  1  0  0  0  0
 13 14  2  0  0  0  0
 15 16  2  0  0  0  0
 15 20  1  0  0  0  0
 16 17  1  0  0  0  0
 17 18  2  0  0  0  0
 17 21  1  0  0  0  0
 18 19  1  0  0  0  0
 19 20  2  0  0  0  0
  2 22  1  0  0  0  0
  3 23  1  0  0  0  0
  4 24  1  0  0  0  0
  8 25  1  0  0  0  0
 10 26  1  0  0  0  0
 10 27  1  0  0  0  0
 11 28  1  0  0  0  0
 12 29  1  0  0  0  0
 12 30  1  0  0  0  0
 12 31  1  0  0  0  0
 16 32  1  0  0  0  0
 18 33  1  0  0  0  0
 19 34  1  0  0  0  0
 20 35  1  0  0  0  0
 21 36  1  0  0  0  0
 21 37  1  0  0  0  0
 21 38  1  0  0  0  0
M  END
> <Name>
16

> <IC50[uM]>
0.17

$$$$
16
  -OEChem-05192314333D
 Structure written by MMmdl.
 38 40  0     0  0  0  0  0  0999 V2000
   -6.3886   12.3706  -12.0044 C   0  0  0  0  0  0  0  0  0  0  0  0
   -6.5217   11.8105  -10.7338 C   0  0  0  0  0  0  0  0  0  0  0  0
   -7.7267   10.5778  -13.0331 C   0  0  0  0  0  0  0  0  0  0  0  0
   -6.9997   11.7772  -13.1264 C   0  0  0  0  0  0  0  0  0  0  0  0
   -7.8245   10.0105  -11.7588 C   0  0  0  0  0  0  0  0  0  0  0  0
   -7.2447   10.6240  -10.5997 C   0  0  0  0  0  0  0  0  0  0  0  0
   -7.6157    9.7479   -9.5130 C   0  0  0  0  0  0  0  0  0  0  0  0
   -8.2818    8.7335   -9.9900 N   0  0  0  0  0  0  0  0  0  0  0  0
   -8.4155    8.8614  -11.3010 N   0  0  0  0  0  0  0  0  0  0  0  0
   -7.3377    9.8874   -8.0251 C   0  0  0  0  0  0  0  0  0  0  0  0
   -4.4115   13.6449  -11.4457 N   0  0  0  0  0  0  0  0  0  0  0  0
   -3.4644   14.7678  -11.5034 C   0  0  0  0  0  0  0  0  0  0  0  0
   -5.5490   13.6243  -12.1808 C   0  0  0  0  0  0  0  0  0  0  0  0
   -5.8784   14.5204  -12.9613 O   0  0  0  0  0  0  0  0  0  0  0  0
   -5.9596   10.4818   -7.7362 C   0  0  0  0  0  0  0  0  0  0  0  0
   -5.8460   11.7538   -7.1602 C   0  0  0  0  0  0  0  0  0  0  0  0
   -4.5819   12.3007   -6.9160 C   0  0  0  0  0  0  0  0  0  0  0  0
   -3.4335   11.5746   -7.2403 C   0  0  0  0  0  0  0  0  0  0  0  0
   -3.5461   10.3067   -7.8068 C   0  0  0  0  0  0  0  0  0  0  0  0
   -4.8068    9.7600   -8.0558 C   0  0  0  0  0  0  0  0  0  0  0  0
   -4.4568   13.6807   -6.3006 C   0  0  0  0  0  0  0  0  0  0  0  0
   -6.0750   12.2846   -9.8724 H   0  0  0  0  0  0  0  0  0  0  0  0
   -8.1843   10.1199  -13.8976 H   0  0  0  0  0  0  0  0  0  0  0  0
   -6.9067   12.2589  -14.0885 H   0  0  0  0  0  0  0  0  0  0  0  0
   -8.8888    8.2017  -11.8847 H   0  0  0  0  0  0  0  0  0  0  0  0
   -8.1032   10.5427   -7.5839 H   0  0  0  0  0  0  0  0  0  0  0  0
   -7.3958    8.8917   -7.5613 H   0  0  0  0  0  0  0  0  0  0  0  0
   -4.2095   12.8717  -10.8446 H   0  0  0  0  0  0  0  0  0  0  0  0
   -2.6189   14.5701  -10.8280 H   0  0  0  0  0  0  0  0  0  0  0  0
   -3.0927   14.8813  -12.5325 H   0  0  0  0  0  0  0  0  0  0  0  0
   -3.9729   15.6925  -11.1931 H   0  0  0  0  0  0  0  0  0  0  0  0
   -6.7345   12.3122   -6.9047 H   0  0  0  0  0  0  0  0  0  0  0  0
   -2.4573   11.9965   -7.0517 H   0  0  0  0  0  0  0  0  0  0  0  0
   -2.6569    9.7457   -8.0538 H   0  0  0  0  0  0  0  0  0  0  0  0
   -4.8908    8.7775   -8.4962 H   0  0  0  0  0  0  0  0  0  0  0  0
   -4.4264   13.5926   -5.2046 H   0  0  0  0  0  0  0  0  0  0  0  0
   -3.5315   14.1579   -6.6557 H   0  0  0  0  0  0  0  0  0  0  0  0
   -5.3217   14.2932   -6.5953 H   0  0  0  0  0  0  0  0  0  0  0  0
  1  2  2  0  0  0  0
  1  4  1  0  0  0  0
  1 13  1  0  0  0  0
  2  6  1  0  0  0  0
  3  4  2  0  0  0  0
  3  5  1  0  0  0  0
  5  6  2  0  0  0  0
  5  9  1  0  0  0  0
  6  7  1  0  0  0  0
  7  8  2  0  0  0  0
  7 10  1  0  0  0  0
  8  9  1  0  0  0  0
 10 15  1  0  0  0  0
 11 12  1  0  0  0  0
 11 13  1  0  0  0  0
 13 14  2  0  0  0  0
 15 16  2  0  0  0  0
 15 20  1  0  0  0  0
 16 17  1  0  0  0  0
 17 18  2  0  0  0  0
 17 21  1  0  0  0  0
 18 19  1  0  0  0  0
 19 20  2  0  0  0  0
  2 22  1  0  0  0  0
  3 23  1  0  0  0  0
  4 24  1  0  0  0  0
  9 25  1  0  0  0  0
 10 26  1  0  0  0  0
 10 27  1  0  0  0  0
 11 28  1  0  0  0  0
 12 29  1  0  0  0  0
 12 30  1  0  0  0  0
 12 31  1  0  0  0  0
 16 32  1  0  0  0  0
 18 33  1  0  0  0  0
 19 34  1  0  0  0  0
 20 35  1  0  0  0  0
 21 36  1  0  0  0  0
 21 37  1  0  0  0  0
 21 38  1  0  0  0  0
M  END
> <Name>
16

> <IC50[uM]>
0.17

$$$$
16
  -OEChem-05192314333D
 Structure written by MMmdl.
 38 40  0     0  0  0  0  0  0999 V2000
   -6.3886   12.3706  -12.0044 C   0  0  0  0  0  0  0  0  0  0  0  0
   -6.5217   11.8105  -10.7338 C   0  0  0  0  0  0  0  0  0  0  0  0
   -7.7267   10.5778  -13.0331 C   0  0  0  0  0  0  0  0  0  0  0  0
   -6.9997   11.7772  -13.1264 C   0  0  0  0  0  0  0  0  0  0  0  0
   -7.8245   10.0105  -11.7588 C   0  0  0  0  0  0  0  0  0  0  0  0
   -7.2447   10.6240  -10.5997 C   0  0  0  0  0  0  0  0  0  0  0  0
   -7.6157    9.7479   -9.5130 C   0  0  0  0  0  0  0  0  0  0  0  0
   -8.2818    8.7335   -9.9900 N   0  0  0  0  0  0  0  0  0  0  0  0
   -8.4155    8.8614  -11.3010 N   0  0  0  0  0  0  0  0  0  0  0  0
   -7.3377    9.8874   -8.0251 C   0  0  0  0  0  0  0  0  0  0  0  0
   -4.4115   13.6449  -11.4457 N   0  0  0  0  0  0  0  0  0  0  0  0
   -3.4644   14.7678  -11.5034 C   0  0  0  0  0  0  0  0  0  0  0  0
   -5.5490   13.6243  -12.1808 C   0  0  0  0  0  0  0  0  0  0  0  0
   -5.8784   14.5204  -12.9613 O   0  0  0  0  0  0  0  0  0  0  0  0
   -5.9596   10.4818   -7.7362 C   0  0  0  0  0  0  0  0  0  0  0  0
   -5.8460   11.7538   -7.1602 C   0  0  0  0  0  0  0  0  0  0  0  0
   -4.5819   12.3007   -6.9160 C   0  0  0  0  0  0  0  0  0  0  0  0
   -3.4335   11.5746   -7.2403 C   0  0  0  0  0  0  0  0  0  0  0  0
   -3.5461   10.3067   -7.8068 C   0  0  0  0  0  0  0  0  0  0  0  0
   -4.8068    9.7600   -8.0558 C   0  0  0  0  0  0  0  0  0  0  0  0
   -4.4568   13.6807   -6.3006 C   0  0  0  0  0  0  0  0  0  0  0  0
   -6.0750   12.2846   -9.8724 H   0  0  0  0  0  0  0  0  0  0  0  0
   -8.1843   10.1199  -13.8976 H   0  0  0  0  0  0  0  0  0  0  0  0
   -6.9067   12.2589  -14.0885 H   0  0  0  0  0  0  0  0  0  0  0  0
   -8.6382    7.9731   -9.4471 H   0  0  0  0  0  0  0  0  0  0  0  0
   -8.1032   10.5427   -7.5839 H   0  0  0  0  0  0  0  0  0  0  0  0
   -7.3958    8.8917   -7.5613 H   0  0  0  0  0  0  0  0  0  0  0  0
   -2.6189   14.5701  -10.8280 H   0  0  0  0  0  0  0  0  0  0  0  0
   -3.0927   14.8813  -12.5325 H   0  0  0  0  0  0  0  0  0  0  0  0
   -3.9729   15.6925  -11.1931 H   0  0  0  0  0  0  0  0  0  0  0  0
   -5.2336   15.2175  -12.9341 H   0  0  0  0  0  0  0  0  0  0  0  0
   -6.7345   12.3122   -6.9047 H   0  0  0  0  0  0  0  0  0  0  0  0
   -2.4573   11.9965   -7.0517 H   0  0  0  0  0  0  0  0  0  0  0  0
   -2.6569    9.7457   -8.0538 H   0  0  0  0  0  0  0  0  0  0  0  0
   -4.8908    8.7775   -8.4962 H   0  0  0  0  0  0  0  0  0  0  0  0
   -4.4264   13.5926   -5.2046 H   0  0  0  0  0  0  0  0  0  0  0  0
   -3.5315   14.1579   -6.6557 H   0  0  0  0  0  0  0  0  0  0  0  0
   -5.3217   14.2932   -6.5953 H   0  0  0  0  0  0  0  0  0  0  0  0
  1  2  2  0  0  0  0
  1  4  1  0  0  0  0
  1 13  1  0  0  0  0
  2  6  1  0  0  0  0
  3  4  2  0  0  0  0
  3  5  1  0  0  0  0
  5  6  1  0  0  0  0
  5  9  2  0  0  0  0
  6  7  2  0  0  0  0
  7  8  1  0  0  0  0
  7 10  1  0  0  0  0
  8  9  1  0  0  0  0
 10 15  1  0  0  0  0
 11 12  1  0  0  0  0
 11 13  2  0  0  0  0
 13 14  1  0  0  0  0
 15 16  2  0  0  0  0
 15 20  1  0  0  0  0
 16 17  1  0  0  0  0
 17 18  2  0  0  0  0
 17 21  1  0  0  0  0
 18 19  1  0  0  0  0
 19 20  2  0  0  0  0
  2 22  1  0  0  0  0
  3 23  1  0  0  0  0
  4 24  1  0  0  0  0
  8 25  1  0  0  0  0
 10 26  1  0  0  0  0
 10 27  1  0  0  0  0
 12 28  1  0  0  0  0
 12 29  1  0  0  0  0
 12 30  1  0  0  0  0
 14 31  1  0  0  0  0
 16 32  1  0  0  0  0
 18 33  1  0  0  0  0
 19 34  1  0  0  0  0
 20 35  1  0  0  0  0
 21 36  1  0  0  0  0
 21 37  1  0  0  0  0
 21 38  1  0  0  0  0
M  END
> <Name>
16

> <IC50[uM]>
0.17

$$$$
16
  -OEChem-05192314333D
 Structure written by MMmdl.
 38 40  0     0  0  0  0  0  0999 V2000
   -6.3886   12.3706  -12.0044 C   0  0  0  0  0  0  0  0  0  0  0  0
   -6.5217   11.8105  -10.7338 C   0  0  0  0  0  0  0  0  0  0  0  0
   -7.7267   10.5778  -13.0331 C   0  0  0  0  0  0  0  0  0  0  0  0
   -6.9997   11.7772  -13.1264 C   0  0  0  0  0  0  0  0  0  0  0  0
   -7.8245   10.0105  -11.7588 C   0  0  0  0  0  0  0  0  0  0  0  0
   -7.2447   10.6240  -10.5997 C   0  0  0  0  0  0  0  0  0  0  0  0
   -7.6157    9.7479   -9.5130 C   0  0  0  0  0  0  0  0  0  0  0  0
   -8.2818    8.7335   -9.9900 N   0  0  0  0  0  0  0  0  0  0  0  0
   -8.4155    8.8614  -11.3010 N   0  0  0  0  0  0  0  0  0  0  0  0
   -7.3377    9.8874   -8.0251 C   0  0  0  0  0  0  0  0  0  0  0  0
   -4.4115   13.6449  -11.4457 N   0  0  0  0  0  0  0  0  0  0  0  0
   -3.4644   14.7678  -11.5034 C   0  0  0  0  0  0  0  0  0  0  0  0
   -5.5490   13.6243  -12.1808 C   0  0  0  0  0  0  0  0  0  0  0  0
   -5.8784   14.5204  -12.9613 O   0  0  0  0  0  0  0  0  0  0  0  0
   -5.9596   10.4818   -7.7362 C   0  0  0  0  0  0  0  0  0  0  0  0
   -5.8460   11.7538   -7.1602 C   0  0  0  0  0  0  0  0  0  0  0  0
   -4.5819   12.3007   -6.9160 C   0  0  0  0  0  0  0  0  0  0  0  0
   -3.4335   11.5746   -7.2403 C   0  0  0  0  0  0  0  0  0  0  0  0
   -3.5461   10.3067   -7.8068 C   0  0  0  0  0  0  0  0  0  0  0  0
   -4.8068    9.7600   -8.0558 C   0  0  0  0  0  0  0  0  0  0  0  0
   -4.4568   13.6807   -6.3006 C   0  0  0  0  0  0  0  0  0  0  0  0
   -6.0750   12.2846   -9.8724 H   0  0  0  0  0  0  0  0  0  0  0  0
   -8.1843   10.1199  -13.8976 H   0  0  0  0  0  0  0  0  0  0  0  0
   -6.9067   12.2589  -14.0885 H   0  0  0  0  0  0  0  0  0  0  0  0
   -8.8888    8.2017  -11.8847 H   0  0  0  0  0  0  0  0  0  0  0  0
   -8.1032   10.5427   -7.5839 H   0  0  0  0  0  0  0  0  0  0  0  0
   -7.3958    8.8917   -7.5613 H   0  0  0  0  0  0  0  0  0  0  0  0
   -2.6189   14.5701  -10.8280 H   0  0  0  0  0  0  0  0  0  0  0  0
   -3.0927   14.8813  -12.5325 H   0  0  0  0  0  0  0  0  0  0  0  0
   -3.9729   15.6925  -11.1931 H   0  0  0  0  0  0  0  0  0  0  0  0
   -5.2336   15.2175  -12.9341 H   0  0  0  0  0  0  0  0  0  0  0  0
   -6.7345   12.3122   -6.9047 H   0  0  0  0  0  0  0  0  0  0  0  0
   -2.4573   11.9965   -7.0517 H   0  0  0  0  0  0  0  0  0  0  0  0
   -2.6569    9.7457   -8.0538 H   0  0  0  0  0  0  0  0  0  0  0  0
   -4.8908    8.7775   -8.4962 H   0  0  0  0  0  0  0  0  0  0  0  0
   -4.4264   13.5926   -5.2046 H   0  0  0  0  0  0  0  0  0  0  0  0
   -3.5315   14.1579   -6.6557 H   0  0  0  0  0  0  0  0  0  0  0  0
   -5.3217   14.2932   -6.5953 H   0  0  0  0  0  0  0  0  0  0  0  0
  1  2  2  0  0  0  0
  1  4  1  0  0  0  0
  1 13  1  0  0  0  0
  2  6  1  0  0  0  0
  3  4  2  0  0  0  0
  3  5  1  0  0  0  0
  5  6  2  0  0  0  0
  5  9  1  0  0  0  0
  6  7  1  0  0  0  0
  7  8  2  0  0  0  0
  7 10  1  0  0  0  0
  8  9  1  0  0  0  0
 10 15  1  0  0  0  0
 11 12  1  0  0  0  0
 11 13  2  0  0  0  0
 13 14  1  0  0  0  0
 15 16  2  0  0  0  0
 15 20  1  0  0  0  0
 16 17  1  0  0  0  0
 17 18  2  0  0  0  0
 17 21  1  0  0  0  0
 18 19  1  0  0  0  0
 19 20  2  0  0  0  0
  2 22  1  0  0  0  0
  3 23  1  0  0  0  0
  4 24  1  0  0  0  0
  9 25  1  0  0  0  0
 10 26  1  0  0  0  0
 10 27  1  0  0  0  0
 12 28  1  0  0  0  0
 12 29  1  0  0  0  0
 12 30  1  0  0  0  0
 14 31  1  0  0  0  0
 16 32  1  0  0  0  0
 18 33  1  0  0  0  0
 19 34  1  0  0  0  0
 20 35  1  0  0  0  0
 21 36  1  0  0  0  0
 21 37  1  0  0  0  0
 21 38  1  0  0  0  0
M  END
> <Name>
16

> <IC50[uM]>
0.17

$$$$
16
  -OEChem-05192314333D
 Structure written by MMmdl.
 38 40  0     1  0  0  0  0  0999 V2000
   -6.3886   12.3706  -12.0044 C   0  0  0  0  0  0  0  0  0  0  0  0
   -6.5217   11.8105  -10.7338 C   0  0  0  0  0  0  0  0  0  0  0  0
   -7.7267   10.5778  -13.0331 C   0  0  0  0  0  0  0  0  0  0  0  0
   -6.9997   11.7772  -13.1264 C   0  0  0  0  0  0  0  0  0  0  0  0
   -7.8245   10.0105  -11.7588 C   0  0  0  0  0  0  0  0  0  0  0  0
   -7.2447   10.6240  -10.5997 C   0  0  0  0  0  0  0  0  0  0  0  0
   -7.6157    9.7479   -9.5130 C   0  0  3  0  0  0  0  0  0  0  0  0
   -8.2818    8.7335   -9.9900 N   0  0  0  0  0  0  0  0  0  0  0  0
   -8.4155    8.8614  -11.3010 N   0  0  0  0  0  0  0  0  0  0  0  0
   -7.3377    9.8874   -8.0251 C   0  0  0  0  0  0  0  0  0  0  0  0
   -4.4115   13.6449  -11.4457 N   0  0  0  0  0  0  0  0  0  0  0  0
   -3.4644   14.7678  -11.5034 C   0  0  0  0  0  0  0  0  0  0  0  0
   -5.5490   13.6243  -12.1808 C   0  0  0  0  0  0  0  0  0  0  0  0
   -5.8784   14.5204  -12.9613 O   0  0  0  0  0  0  0  0  0  0  0  0
   -5.9596   10.4818   -7.7362 C   0  0  0  0  0  0  0  0  0  0  0  0
   -5.8460   11.7538   -7.1602 C   0  0  0  0  0  0  0  0  0  0  0  0
   -4.5819   12.3007   -6.9160 C   0  0  0  0  0  0  0  0  0  0  0  0
   -3.4335   11.5746   -7.2403 C   0  0  0  0  0  0  0  0  0  0  0  0
   -3.5461   10.3067   -7.8068 C   0  0  0  0  0  0  0  0  0  0  0  0
   -4.8068    9.7600   -8.0558 C   0  0  0  0  0  0  0  0  0  0  0  0
   -4.4568   13.6807   -6.3006 C   0  0  0  0  0  0  0  0  0  0  0  0
   -6.0750   12.2846   -9.8724 H   0  0  0  0  0  0  0  0  0  0  0  0
   -8.1843   10.1199  -13.8976 H   0  0  0  0  0  0  0  0  0  0  0  0
   -6.9067   12.2589  -14.0885 H   0  0  0  0  0  0  0  0  0  0  0  0
   -6.6751    9.1915   -9.6382 H   0  0  0  0  0  0  0  0  0  0  0  0
   -8.1032   10.5427   -7.5839 H   0  0  0  0  0  0  0  0  0  0  0  0
   -7.3958    8.8917   -7.5613 H   0  0  0  0  0  0  0  0  0  0  0  0
   -4.2095   12.8717  -10.8446 H   0  0  0  0  0  0  0  0  0  0  0  0
   -2.6189   14.5701  -10.8280 H   0  0  0  0  0  0  0  0  0  0  0  0
   -3.0927   14.8813  -12.5325 H   0  0  0  0  0  0  0  0  0  0  0  0
   -3.9729   15.6925  -11.1931 H   0  0  0  0  0  0  0  0  0  0  0  0
   -6.7345   12.3122   -6.9047 H   0  0  0  0  0  0  0  0  0  0  0  0
   -2.4573   11.9965   -7.0517 H   0  0  0  0  0  0  0  0  0  0  0  0
   -2.6569    9.7457   -8.0538 H   0  0  0  0  0  0  0  0  0  0  0  0
   -4.8908    8.7775   -8.4962 H   0  0  0  0  0  0  0  0  0  0  0  0
   -4.4264   13.5926   -5.2046 H   0  0  0  0  0  0  0  0  0  0  0  0
   -3.5315   14.1579   -6.6557 H   0  0  0  0  0  0  0  0  0  0  0  0
   -5.3217   14.2932   -6.5953 H   0  0  0  0  0  0  0  0  0  0  0  0
  1  2  2  0  0  0  0
  1  4  1  0  0  0  0
  1 13  1  0  0  0  0
  2  6  1  0  0  0  0
  3  4  2  0  0  0  0
  3  5  1  0  0  0  0
  5  6  2  0  0  0  0
  5  9  1  0  0  0  0
  6  7  1  0  0  0  0
  7  8  1  0  0  0  0
  7 10  1  0  0  0  0
  8  9  2  0  0  0  0
 10 15  1  0  0  0  0
 11 12  1  0  0  0  0
 11 13  1  0  0  0  0
 13 14  2  0  0  0  0
 15 16  2  0  0  0  0
 15 20  1  0  0  0  0
 16 17  1  0  0  0  0
 17 18  2  0  0  0  0
 17 21  1  0  0  0  0
 18 19  1  0  0  0  0
 19 20  2  0  0  0  0
  2 22  1  0  0  0  0
  3 23  1  0  0  0  0
  4 24  1  0  0  0  0
  7 25  1  0  0  0  0
 10 26  1  0  0  0  0
 10 27  1  0  0  0  0
 11 28  1  0  0  0  0
 12 29  1  0  0  0  0
 12 30  1  0  0  0  0
 12 31  1  0  0  0  0
 16 32  1  0  0  0  0
 18 33  1  0  0  0  0
 19 34  1  0  0  0  0
 20 35  1  0  0  0  0
 21 36  1  0  0  0  0
 21 37  1  0  0  0  0
 21 38  1  0  0  0  0
M  END
> <Name>
16

> <IC50[uM]>
0.17

$$$$
16
  -OEChem-05192314333D
 Structure written by MMmdl.
 38 40  0     1  0  0  0  0  0999 V2000
   -6.3886   12.3706  -12.0044 C   0  0  0  0  0  0  0  0  0  0  0  0
   -6.5217   11.8105  -10.7338 C   0  0  0  0  0  0  0  0  0  0  0  0
   -7.7267   10.5778  -13.0331 C   0  0  0  0  0  0  0  0  0  0  0  0
   -6.9997   11.7772  -13.1264 C   0  0  0  0  0  0  0  0  0  0  0  0
   -7.8245   10.0105  -11.7588 C   0  0  0  0  0  0  0  0  0  0  0  0
   -7.2447   10.6240  -10.5997 C   0  0  0  0  0  0  0  0  0  0  0  0
   -7.6157    9.7479   -9.5130 C   0  0  3  0  0  0  0  0  0  0  0  0
   -8.2818    8.7335   -9.9900 N   0  0  0  0  0  0  0  0  0  0  0  0
   -8.4155    8.8614  -11.3010 N   0  0  0  0  0  0  0  0  0  0  0  0
   -7.3377    9.8874   -8.0251 C   0  0  0  0  0  0  0  0  0  0  0  0
   -4.4115   13.6449  -11.4457 N   0  0  0  0  0  0  0  0  0  0  0  0
   -3.4644   14.7678  -11.5034 C   0  0  0  0  0  0  0  0  0  0  0  0
   -5.5490   13.6243  -12.1808 C   0  0  0  0  0  0  0  0  0  0  0  0
   -5.8784   14.5204  -12.9613 O   0  0  0  0  0  0  0  0  0  0  0  0
   -5.9596   10.4818   -7.7362 C   0  0  0  0  0  0  0  0  0  0  0  0
   -5.8460   11.7538   -7.1602 C   0  0  0  0  0  0  0  0  0  0  0  0
   -4.5819   12.3007   -6.9160 C   0  0  0  0  0  0  0  0  0  0  0  0
   -3.4335   11.5746   -7.2403 C   0  0  0  0  0  0  0  0  0  0  0  0
   -3.5461   10.3067   -7.8068 C   0  0  0  0  0  0  0  0  0  0  0  0
   -4.8068    9.7600   -8.0558 C   0  0  0  0  0  0  0  0  0  0  0  0
   -4.4568   13.6807   -6.3006 C   0  0  0  0  0  0  0  0  0  0  0  0
   -6.0750   12.2846   -9.8724 H   0  0  0  0  0  0  0  0  0  0  0  0
   -8.1843   10.1199  -13.8976 H   0  0  0  0  0  0  0  0  0  0  0  0
   -6.9067   12.2589  -14.0885 H   0  0  0  0  0  0  0  0  0  0  0  0
   -6.6751    9.1915   -9.6382 H   0  0  0  0  0  0  0  0  0  0  0  0
   -8.1032   10.5427   -7.5839 H   0  0  0  0  0  0  0  0  0  0  0  0
   -7.3958    8.8917   -7.5613 H   0  0  0  0  0  0  0  0  0  0  0  0
   -2.6189   14.5701  -10.8280 H   0  0  0  0  0  0  0  0  0  0  0  0
   -3.0927   14.8813  -12.5325 H   0  0  0  0  0  0  0  0  0  0  0  0
   -3.9729   15.6925  -11.1931 H   0  0  0  0  0  0  0  0  0  0  0  0
   -5.2336   15.2175  -12.9341 H   0  0  0  0  0  0  0  0  0  0  0  0
   -6.7345   12.3122   -6.9047 H   0  0  0  0  0  0  0  0  0  0  0  0
   -2.4573   11.9965   -7.0517 H   0  0  0  0  0  0  0  0  0  0  0  0
   -2.6569    9.7457   -8.0538 H   0  0  0  0  0  0  0  0  0  0  0  0
   -4.8908    8.7775   -8.4962 H   0  0  0  0  0  0  0  0  0  0  0  0
   -4.4264   13.5926   -5.2046 H   0  0  0  0  0  0  0  0  0  0  0  0
   -3.5315   14.1579   -6.6557 H   0  0  0  0  0  0  0  0  0  0  0  0
   -5.3217   14.2932   -6.5953 H   0  0  0  0  0  0  0  0  0  0  0  0
  1  2  2  0  0  0  0
  1  4  1  0  0  0  0
  1 13  1  0  0  0  0
  2  6  1  0  0  0  0
  3  4  2  0  0  0  0
  3  5  1  0  0  0  0
  5  6  2  0  0  0  0
  5  9  1  0  0  0  0
  6  7  1  0  0  0  0
  7  8  1  0  0  0  0
  7 10  1  0  0  0  0
  8  9  2  0  0  0  0
 10 15  1  0  0  0  0
 11 12  1  0  0  0  0
 11 13  2  0  0  0  0
 13 14  1  0  0  0  0
 15 16  2  0  0  0  0
 15 20  1  0  0  0  0
 16 17  1  0  0  0  0
 17 18  2  0  0  0  0
 17 21  1  0  0  0  0
 18 19  1  0  0  0  0
 19 20  2  0  0  0  0
  2 22  1  0  0  0  0
  3 23  1  0  0  0  0
  4 24  1  0  0  0  0
  7 25  1  0  0  0  0
 10 26  1  0  0  0  0
 10 27  1  0  0  0  0
 12 28  1  0  0  0  0
 12 29  1  0  0  0  0
 12 30  1  0  0  0  0
 14 31  1  0  0  0  0
 16 32  1  0  0  0  0
 18 33  1  0  0  0  0
 19 34  1  0  0  0  0
 20 35  1  0  0  0  0
 21 36  1  0  0  0  0
 21 37  1  0  0  0  0
 21 38  1  0  0  0  0
M  END
> <Name>
16

> <IC50[uM]>
0.17

$$$$
16
  -OEChem-05192314333D
 Structure written by MMmdl.
 38 40  0     0  0  0  0  0  0999 V2000
   -6.3886   12.3706  -12.0044 C   0  0  0  0  0  0  0  0  0  0  0  0
   -6.5217   11.8105  -10.7338 C   0  0  0  0  0  0  0  0  0  0  0  0
   -7.7267   10.5778  -13.0331 C   0  0  0  0  0  0  0  0  0  0  0  0
   -6.9997   11.7772  -13.1264 C   0  0  0  0  0  0  0  0  0  0  0  0
   -7.8245   10.0105  -11.7588 C   0  0  0  0  0  0  0  0  0  0  0  0
   -7.2447   10.6240  -10.5997 C   0  0  0  0  0  0  0  0  0  0  0  0
   -7.6157    9.7479   -9.5130 C   0  0  0  0  0  0  0  0  0  0  0  0
   -8.2818    8.7335   -9.9900 N   0  0  0  0  0  0  0  0  0  0  0  0
   -8.4155    8.8614  -11.3010 N   0  0  0  0  0  0  0  0  0  0  0  0
   -7.3377    9.8874   -8.0251 C   0  0  0  0  0  0  0  0  0  0  0  0
   -4.4115   13.6449  -11.4457 N   0  0  0  0  0  0  0  0  0  0  0  0
   -3.4644   14.7678  -11.5034 C   0  0  0  0  0  0  0  0  0  0  0  0
   -5.5490   13.6243  -12.1808 C   0  0  0  0  0  0  0  0  0  0  0  0
   -5.8784   14.5204  -12.9613 O   0  0  0  0  0  0  0  0  0  0  0  0
   -5.9596   10.4818   -7.7362 C   0  0  0  0  0  0  0  0  0  0  0  0
   -5.8460   11.7538   -7.1602 C   0  0  0  0  0  0  0  0  0  0  0  0
   -4.5819   12.3007   -6.9160 C   0  0  0  0  0  0  0  0  0  0  0  0
   -3.4335   11.5746   -7.2403 C   0  0  0  0  0  0  0  0  0  0  0  0
   -3.5461   10.3067   -7.8068 C   0  0  0  0  0  0  0  0  0  0  0  0
   -4.8068    9.7600   -8.0558 C   0  0  0  0  0  0  0  0  0  0  0  0
   -4.4568   13.6807   -6.3006 C   0  0  0  0  0  0  0  0  0  0  0  0
   -6.0750   12.2846   -9.8724 H   0  0  0  0  0  0  0  0  0  0  0  0
   -8.1843   10.1199  -13.8976 H   0  0  0  0  0  0  0  0  0  0  0  0
   -6.9067   12.2589  -14.0885 H   0  0  0  0  0  0  0  0  0  0  0  0
   -7.7884    7.8876   -9.7876 H   0  0  0  0  0  0  0  0  0  0  0  0
   -9.3893    8.8850  -11.5271 H   0  0  0  0  0  0  0  0  0  0  0  0
   -8.0380    9.5979   -7.2556 H   0  0  0  0  0  0  0  0  0  0  0  0
   -4.2095   12.8717  -10.8446 H   0  0  0  0  0  0  0  0  0  0  0  0
   -2.6189   14.5701  -10.8280 H   0  0  0  0  0  0  0  0  0  0  0  0
   -3.0927   14.8813  -12.5325 H   0  0  0  0  0  0  0  0  0  0  0  0
   -3.9729   15.6925  -11.1931 H   0  0  0  0  0  0  0  0  0  0  0  0
   -6.7345   12.3122   -6.9047 H   0  0  0  0  0  0  0  0  0  0  0  0
   -2.4573   11.9965   -7.0517 H   0  0  0  0  0  0  0  0  0  0  0  0
   -2.6569    9.7457   -8.0538 H   0  0  0  0  0  0  0  0  0  0  0  0
   -4.8908    8.7775   -8.4962 H   0  0  0  0  0  0  0  0  0  0  0  0
   -4.4264   13.5926   -5.2046 H   0  0  0  0  0  0  0  0  0  0  0  0
   -3.5315   14.1579   -6.6557 H   0  0  0  0  0  0  0  0  0  0  0  0
   -5.3217   14.2932   -6.5953 H   0  0  0  0  0  0  0  0  0  0  0  0
  1  2  2  0  0  0  0
  1  4  1  0  0  0  0
  1 13  1  0  0  0  0
  2  6  1  0  0  0  0
  3  4  2  0  0  0  0
  3  5  1  0  0  0  0
  5  6  2  0  0  0  0
  5  9  1  0  0  0  0
  6  7  1  0  0  0  0
  7  8  1  0  0  0  0
  7 10  2  3  0  0  0
  8  9  1  0  0  0  0
 10 15  1  0  0  0  0
 11 12  1  0  0  0  0
 11 13  1  0  0  0  0
 13 14  2  0  0  0  0
 15 16  2  0  0  0  0
 15 20  1  0  0  0  0
 16 17  1  0  0  0  0
 17 18  2  0  0  0  0
 17 21  1  0  0  0  0
 18 19  1  0  0  0  0
 19 20  2  0  0  0  0
  2 22  1  0  0  0  0
  3 23  1  0  0  0  0
  4 24  1  0  0  0  0
  8 25  1  0  0  0  0
  9 26  1  0  0  0  0
 10 27  1  0  0  0  0
 11 28  1  0  0  0  0
 12 29  1  0  0  0  0
 12 30  1  0  0  0  0
 12 31  1  0  0  0  0
 16 32  1  0  0  0  0
 18 33  1  0  0  0  0
 19 34  1  0  0  0  0
 20 35  1  0  0  0  0
 21 36  1  0  0  0  0
 21 37  1  0  0  0  0
 21 38  1  0  0  0  0
M  END
> <Name>
16

> <IC50[uM]>
0.17

$$$$
16
  -OEChem-05192314333D
 Structure written by MMmdl.
 38 40  0     0  0  0  0  0  0999 V2000
   -6.3886   12.3706  -12.0044 C   0  0  0  0  0  0  0  0  0  0  0  0
   -6.5217   11.8105  -10.7338 C   0  0  0  0  0  0  0  0  0  0  0  0
   -7.7267   10.5778  -13.0331 C   0  0  0  0  0  0  0  0  0  0  0  0
   -6.9997   11.7772  -13.1264 C   0  0  0  0  0  0  0  0  0  0  0  0
   -7.8245   10.0105  -11.7588 C   0  0  0  0  0  0  0  0  0  0  0  0
   -7.2447   10.6240  -10.5997 C   0  0  0  0  0  0  0  0  0  0  0  0
   -7.6157    9.7479   -9.5130 C   0  0  0  0  0  0  0  0  0  0  0  0
   -8.2818    8.7335   -9.9900 N   0  0  0  0  0  0  0  0  0  0  0  0
   -8.4155    8.8614  -11.3010 N   0  0  0  0  0  0  0  0  0  0  0  0
   -7.3377    9.8874   -8.0251 C   0  0  0  0  0  0  0  0  0  0  0  0
   -4.4115   13.6449  -11.4457 N   0  0  0  0  0  0  0  0  0  0  0  0
   -3.4644   14.7678  -11.5034 C   0  0  0  0  0  0  0  0  0  0  0  0
   -5.5490   13.6243  -12.1808 C   0  0  0  0  0  0  0  0  0  0  0  0
   -5.8784   14.5204  -12.9613 O   0  0  0  0  0  0  0  0  0  0  0  0
   -5.9596   10.4818   -7.7362 C   0  0  0  0  0  0  0  0  0  0  0  0
   -5.8460   11.7538   -7.1602 C   0  0  0  0  0  0  0  0  0  0  0  0
   -4.5819   12.3007   -6.9160 C   0  0  0  0  0  0  0  0  0  0  0  0
   -3.4335   11.5746   -7.2403 C   0  0  0  0  0  0  0  0  0  0  0  0
   -3.5461   10.3067   -7.8068 C   0  0  0  0  0  0  0  0  0  0  0  0
   -4.8068    9.7600   -8.0558 C   0  0  0  0  0  0  0  0  0  0  0  0
   -4.4568   13.6807   -6.3006 C   0  0  0  0  0  0  0  0  0  0  0  0
   -6.0750   12.2846   -9.8724 H   0  0  0  0  0  0  0  0  0  0  0  0
   -8.1843   10.1199  -13.8976 H   0  0  0  0  0  0  0  0  0  0  0  0
   -6.9067   12.2589  -14.0885 H   0  0  0  0  0  0  0  0  0  0  0  0
   -7.7884    7.8876   -9.7876 H   0  0  0  0  0  0  0  0  0  0  0  0
   -9.3893    8.8850  -11.5271 H   0  0  0  0  0  0  0  0  0  0  0  0
   -8.0380    9.5979   -7.2556 H   0  0  0  0  0  0  0  0  0  0  0  0
   -2.6189   14.5701  -10.8280 H   0  0  0  0  0  0  0  0  0  0  0  0
   -3.0927   14.8813  -12.5325 H   0  0  0  0  0  0  0  0  0  0  0  0
   -3.9729   15.6925  -11.1931 H   0  0  0  0  0  0  0  0  0  0  0  0
   -5.2336   15.2175  -12.9341 H   0  0  0  0  0  0  0  0  0  0  0  0
   -6.7345   12.3122   -6.9047 H   0  0  0  0  0  0  0  0  0  0  0  0
   -2.4573   11.9965   -7.0517 H   0  0  0  0  0  0  0  0  0  0  0  0
   -2.6569    9.7457   -8.0538 H   0  0  0  0  0  0  0  0  0  0  0  0
   -4.8908    8.7775   -8.4962 H   0  0  0  0  0  0  0  0  0  0  0  0
   -4.4264   13.5926   -5.2046 H   0  0  0  0  0  0  0  0  0  0  0  0
   -3.5315   14.1579   -6.6557 H   0  0  0  0  0  0  0  0  0  0  0  0
   -5.3217   14.2932   -6.5953 H   0  0  0  0  0  0  0  0  0  0  0  0
  1  2  2  0  0  0  0
  1  4  1  0  0  0  0
  1 13  1  0  0  0  0
  2  6  1  0  0  0  0
  3  4  2  0  0  0  0
  3  5  1  0  0  0  0
  5  6  2  0  0  0  0
  5  9  1  0  0  0  0
  6  7  1  0  0  0  0
  7  8  1  0  0  0  0
  7 10  2  3  0  0  0
  8  9  1  0  0  0  0
 10 15  1  0  0  0  0
 11 12  1  0  0  0  0
 11 13  2  0  0  0  0
 13 14  1  0  0  0  0
 15 16  2  0  0  0  0
 15 20  1  0  0  0  0
 16 17  1  0  0  0  0
 17 18  2  0  0  0  0
 17 21  1  0  0  0  0
 18 19  1  0  0  0  0
 19 20  2  0  0  0  0
  2 22  1  0  0  0  0
  3 23  1  0  0  0  0
  4 24  1  0  0  0  0
  8 25  1  0  0  0  0
  9 26  1  0  0  0  0
 10 27  1  0  0  0  0
 12 28  1  0  0  0  0
 12 29  1  0  0  0  0
 12 30  1  0  0  0  0
 14 31  1  0  0  0  0
 16 32  1  0  0  0  0
 18 33  1  0  0  0  0
 19 34  1  0  0  0  0
 20 35  1  0  0  0  0
 21 36  1  0  0  0  0
 21 37  1  0  0  0  0
 21 38  1  0  0  0  0
M  END
> <Name>
16

> <IC50[uM]>
0.17

$$$$
16
  -OEChem-05192314333D
 Structure written by MMmdl.
 38 40  0     1  0  0  0  0  0999 V2000
   -6.3886   12.3706  -12.0044 C   0  0  3  0  0  0  0  0  0  0  0  0
   -6.5217   11.8105  -10.7338 C   0  0  0  0  0  0  0  0  0  0  0  0
   -7.7267   10.5778  -13.0331 C   0  0  0  0  0  0  0  0  0  0  0  0
   -6.9997   11.7772  -13.1264 C   0  0  0  0  0  0  0  0  0  0  0  0
   -7.8245   10.0105  -11.7588 C   0  0  0  0  0  0  0  0  0  0  0  0
   -7.2447   10.6240  -10.5997 C   0  0  0  0  0  0  0  0  0  0  0  0
   -7.6157    9.7479   -9.5130 C   0  0  0  0  0  0  0  0  0  0  0  0
   -8.2818    8.7335   -9.9900 N   0  0  0  0  0  0  0  0  0  0  0  0
   -8.4155    8.8614  -11.3010 N   0  0  0  0  0  0  0  0  0  0  0  0
   -7.3377    9.8874   -8.0251 C   0  0  0  0  0  0  0  0  0  0  0  0
   -4.4115   13.6449  -11.4457 N   0  0  0  0  0  0  0  0  0  0  0  0
   -3.4644   14.7678  -11.5034 C   0  0  0  0  0  0  0  0  0  0  0  0
   -5.5490   13.6243  -12.1808 C   0  0  0  0  0  0  0  0  0  0  0  0
   -5.8784   14.5204  -12.9613 O   0  0  0  0  0  0  0  0  0  0  0  0
   -5.9596   10.4818   -7.7362 C   0  0  0  0  0  0  0  0  0  0  0  0
   -5.8460   11.7538   -7.1602 C   0  0  0  0  0  0  0  0  0  0  0  0
   -4.5819   12.3007   -6.9160 C   0  0  0  0  0  0  0  0  0  0  0  0
   -3.4335   11.5746   -7.2403 C   0  0  0  0  0  0  0  0  0  0  0  0
   -3.5461   10.3067   -7.8068 C   0  0  0  0  0  0  0  0  0  0  0  0
   -4.8068    9.7600   -8.0558 C   0  0  0  0  0  0  0  0  0  0  0  0
   -4.4568   13.6807   -6.3006 C   0  0  0  0  0  0  0  0  0  0  0  0
   -7.2839   12.9866  -11.8341 H   0  0  0  0  0  0  0  0  0  0  0  0
   -6.0750   12.2846   -9.8724 H   0  0  0  0  0  0  0  0  0  0  0  0
   -8.1843   10.1199  -13.8976 H   0  0  0  0  0  0  0  0  0  0  0  0
   -6.9067   12.2589  -14.0885 H   0  0  0  0  0  0  0  0  0  0  0  0
   -8.6382    7.9731   -9.4471 H   0  0  0  0  0  0  0  0  0  0  0  0
   -8.0380    9.5979   -7.2556 H   0  0  0  0  0  0  0  0  0  0  0  0
   -4.2095   12.8717  -10.8446 H   0  0  0  0  0  0  0  0  0  0  0  0
   -2.6189   14.5701  -10.8280 H   0  0  0  0  0  0  0  0  0  0  0  0
   -3.0927   14.8813  -12.5325 H   0  0  0  0  0  0  0  0  0  0  0  0
   -3.9729   15.6925  -11.1931 H   0  0  0  0  0  0  0  0  0  0  0  0
   -6.7345   12.3122   -6.9047 H   0  0  0  0  0  0  0  0  0  0  0  0
   -2.4573   11.9965   -7.0517 H   0  0  0  0  0  0  0  0  0  0  0  0
   -2.6569    9.7457   -8.0538 H   0  0  0  0  0  0  0  0  0  0  0  0
   -4.8908    8.7775   -8.4962 H   0  0  0  0  0  0  0  0  0  0  0  0
   -4.4264   13.5926   -5.2046 H   0  0  0  0  0  0  0  0  0  0  0  0
   -3.5315   14.1579   -6.6557 H   0  0  0  0  0  0  0  0  0  0  0  0
   -5.3217   14.2932   -6.5953 H   0  0  0  0  0  0  0  0  0  0  0  0
  1  2  1  0  0  0  0
  1  4  1  0  0  0  0
  1 13  1  0  0  0  0
  2  6  2  0  0  0  0
  3  4  2  0  0  0  0
  3  5  1  0  0  0  0
  5  6  1  0  0  0  0
  5  9  2  0  0  0  0
  6  7  1  0  0  0  0
  7  8  1  0  0  0  0
  7 10  2  3  0  0  0
  8  9  1  0  0  0  0
 10 15  1  0  0  0  0
 11 12  1  0  0  0  0
 11 13  1  0  0  0  0
 13 14  2  0  0  0  0
 15 16  2  0  0  0  0
 15 20  1  0  0  0  0
 16 17  1  0  0  0  0
 17 18  2  0  0  0  0
 17 21  1  0  0  0  0
 18 19  1  0  0  0  0
 19 20  2  0  0  0  0
  1 22  1  0  0  0  0
  2 23  1  0  0  0  0
  3 24  1  0  0  0  0
  4 25  1  0  0  0  0
  8 26  1  0  0  0  0
 10 27  1  0  0  0  0
 11 28  1  0  0  0  0
 12 29  1  0  0  0  0
 12 30  1  0  0  0  0
 12 31  1  0  0  0  0
 16 32  1  0  0  0  0
 18 33  1  0  0  0  0
 19 34  1  0  0  0  0
 20 35  1  0  0  0  0
 21 36  1  0  0  0  0
 21 37  1  0  0  0  0
 21 38  1  0  0  0  0
M  END
> <Name>
16

> <IC50[uM]>
0.17

$$$$
16
  -OEChem-05192314333D
 Structure written by MMmdl.
 38 40  0     0  0  0  0  0  0999 V2000
   -6.3886   12.3706  -12.0044 C   0  0  0  0  0  0  0  0  0  0  0  0
   -6.5217   11.8105  -10.7338 C   0  0  0  0  0  0  0  0  0  0  0  0
   -7.7267   10.5778  -13.0331 C   0  0  0  0  0  0  0  0  0  0  0  0
   -6.9997   11.7772  -13.1264 C   0  0  0  0  0  0  0  0  0  0  0  0
   -7.8245   10.0105  -11.7588 C   0  0  0  0  0  0  0  0  0  0  0  0
   -7.2447   10.6240  -10.5997 C   0  0  0  0  0  0  0  0  0  0  0  0
   -7.6157    9.7479   -9.5130 C   0  0  0  0  0  0  0  0  0  0  0  0
   -8.2818    8.7335   -9.9900 N   0  0  0  0  0  0  0  0  0  0  0  0
   -8.4155    8.8614  -11.3010 N   0  0  0  0  0  0  0  0  0  0  0  0
   -7.3377    9.8874   -8.0251 C   0  0  0  0  0  0  0  0  0  0  0  0
   -4.4115   13.6449  -11.4457 N   0  0  0  0  0  0  0  0  0  0  0  0
   -3.4644   14.7678  -11.5034 C   0  0  0  0  0  0  0  0  0  0  0  0
   -5.5490   13.6243  -12.1808 C   0  0  0  0  0  0  0  0  0  0  0  0
   -5.8784   14.5204  -12.9613 O   0  0  0  0  0  0  0  0  0  0  0  0
   -5.9596   10.4818   -7.7362 C   0  0  0  0  0  0  0  0  0  0  0  0
   -5.8460   11.7538   -7.1602 C   0  0  0  0  0  0  0  0  0  0  0  0
   -4.5819   12.3007   -6.9160 C   0  0  0  0  0  0  0  0  0  0  0  0
   -3.4335   11.5746   -7.2403 C   0  0  0  0  0  0  0  0  0  0  0  0
   -3.5461   10.3067   -7.8068 C   0  0  0  0  0  0  0  0  0  0  0  0
   -4.8068    9.7600   -8.0558 C   0  0  0  0  0  0  0  0  0  0  0  0
   -4.4568   13.6807   -6.3006 C   0  0  0  0  0  0  0  0  0  0  0  0
   -6.0750   12.2846   -9.8724 H   0  0  0  0  0  0  0  0  0  0  0  0
   -8.7478   10.7760  -13.3910 H   0  0  0  0  0  0  0  0  0  0  0  0
   -7.2438    9.8410  -13.6919 H   0  0  0  0  0  0  0  0  0  0  0  0
   -6.9067   12.2589  -14.0885 H   0  0  0  0  0  0  0  0  0  0  0  0
   -8.6382    7.9731   -9.4471 H   0  0  0  0  0  0  0  0  0  0  0  0
   -8.0380    9.5979   -7.2556 H   0  0  0  0  0  0  0  0  0  0  0  0
   -4.2095   12.8717  -10.8446 H   0  0  0  0  0  0  0  0  0  0  0  0
   -2.6189   14.5701  -10.8280 H   0  0  0  0  0  0  0  0  0  0  0  0
   -3.0927   14.8813  -12.5325 H   0  0  0  0  0  0  0  0  0  0  0  0
   -3.9729   15.6925  -11.1931 H   0  0  0  0  0  0  0  0  0  0  0  0
   -6.7345   12.3122   -6.9047 H   0  0  0  0  0  0  0  0  0  0  0  0
   -2.4573   11.9965   -7.0517 H   0  0  0  0  0  0  0  0  0  0  0  0
   -2.6569    9.7457   -8.0538 H   0  0  0  0  0  0  0  0  0  0  0  0
   -4.8908    8.7775   -8.4962 H   0  0  0  0  0  0  0  0  0  0  0  0
   -4.4264   13.5926   -5.2046 H   0  0  0  0  0  0  0  0  0  0  0  0
   -3.5315   14.1579   -6.6557 H   0  0  0  0  0  0  0  0  0  0  0  0
   -5.3217   14.2932   -6.5953 H   0  0  0  0  0  0  0  0  0  0  0  0
  1  2  1  0  0  0  0
  1  4  2  0  0  0  0
  1 13  1  0  0  0  0
  2  6  2  0  0  0  0
  3  4  1  0  0  0  0
  3  5  1  0  0  0  0
  5  6  1  0  0  0  0
  5  9  2  0  0  0  0
  6  7  1  0  0  0  0
  7  8  1  0  0  0  0
  7 10  2  3  0  0  0
  8  9  1  0  0  0  0
 10 15  1  0  0  0  0
 11 12  1  0  0  0  0
 11 13  1  0  0  0  0
 13 14  2  0  0  0  0
 15 16  2  0  0  0  0
 15 20  1  0  0  0  0
 16 17  1  0  0  0  0
 17 18  2  0  0  0  0
 17 21  1  0  0  0  0
 18 19  1  0  0  0  0
 19 20  2  0  0  0  0
  2 22  1  0  0  0  0
  3 23  1  0  0  0  0
  3 24  1  0  0  0  0
  4 25  1  0  0  0  0
  8 26  1  0  0  0  0
 10 27  1  0  0  0  0
 11 28  1  0  0  0  0
 12 29  1  0  0  0  0
 12 30  1  0  0  0  0
 12 31  1  0  0  0  0
 16 32  1  0  0  0  0
 18 33  1  0  0  0  0
 19 34  1  0  0  0  0
 20 35  1  0  0  0  0
 21 36  1  0  0  0  0
 21 37  1  0  0  0  0
 21 38  1  0  0  0  0
M  END
> <Name>
16

> <IC50[uM]>
0.17

$$$$
16
  -OEChem-05192314333D
 Structure written by MMmdl.
 38 40  0     1  0  0  0  0  0999 V2000
   -6.3886   12.3706  -12.0044 C   0  0  3  0  0  0  0  0  0  0  0  0
   -6.5217   11.8105  -10.7338 C   0  0  0  0  0  0  0  0  0  0  0  0
   -7.7267   10.5778  -13.0331 C   0  0  0  0  0  0  0  0  0  0  0  0
   -6.9997   11.7772  -13.1264 C   0  0  0  0  0  0  0  0  0  0  0  0
   -7.8245   10.0105  -11.7588 C   0  0  0  0  0  0  0  0  0  0  0  0
   -7.2447   10.6240  -10.5997 C   0  0  0  0  0  0  0  0  0  0  0  0
   -7.6157    9.7479   -9.5130 C   0  0  0  0  0  0  0  0  0  0  0  0
   -8.2818    8.7335   -9.9900 N   0  0  0  0  0  0  0  0  0  0  0  0
   -8.4155    8.8614  -11.3010 N   0  0  0  0  0  0  0  0  0  0  0  0
   -7.3377    9.8874   -8.0251 C   0  0  0  0  0  0  0  0  0  0  0  0
   -4.4115   13.6449  -11.4457 N   0  0  0  0  0  0  0  0  0  0  0  0
   -3.4644   14.7678  -11.5034 C   0  0  0  0  0  0  0  0  0  0  0  0
   -5.5490   13.6243  -12.1808 C   0  0  0  0  0  0  0  0  0  0  0  0
   -5.8784   14.5204  -12.9613 O   0  0  0  0  0  0  0  0  0  0  0  0
   -5.9596   10.4818   -7.7362 C   0  0  0  0  0  0  0  0  0  0  0  0
   -5.8460   11.7538   -7.1602 C   0  0  0  0  0  0  0  0  0  0  0  0
   -4.5819   12.3007   -6.9160 C   0  0  0  0  0  0  0  0  0  0  0  0
   -3.4335   11.5746   -7.2403 C   0  0  0  0  0  0  0  0  0  0  0  0
   -3.5461   10.3067   -7.8068 C   0  0  0  0  0  0  0  0  0  0  0  0
   -4.8068    9.7600   -8.0558 C   0  0  0  0  0  0  0  0  0  0  0  0
   -4.4568   13.6807   -6.3006 C   0  0  0  0  0  0  0  0  0  0  0  0
   -7.2839   12.9866  -11.8341 H   0  0  0  0  0  0  0  0  0  0  0  0
   -6.0750   12.2846   -9.8724 H   0  0  0  0  0  0  0  0  0  0  0  0
   -8.1843   10.1199  -13.8976 H   0  0  0  0  0  0  0  0  0  0  0  0
   -6.9067   12.2589  -14.0885 H   0  0  0  0  0  0  0  0  0  0  0  0
   -8.6382    7.9731   -9.4471 H   0  0  0  0  0  0  0  0  0  0  0  0
   -8.0380    9.5979   -7.2556 H   0  0  0  0  0  0  0  0  0  0  0  0
   -2.6189   14.5701  -10.8280 H   0  0  0  0  0  0  0  0  0  0  0  0
   -3.0927   14.8813  -12.5325 H   0  0  0  0  0  0  0  0  0  0  0  0
   -3.9729   15.6925  -11.1931 H   0  0  0  0  0  0  0  0  0  0  0  0
   -5.2336   15.2175  -12.9341 H   0  0  0  0  0  0  0  0  0  0  0  0
   -6.7345   12.3122   -6.9047 H   0  0  0  0  0  0  0  0  0  0  0  0
   -2.4573   11.9965   -7.0517 H   0  0  0  0  0  0  0  0  0  0  0  0
   -2.6569    9.7457   -8.0538 H   0  0  0  0  0  0  0  0  0  0  0  0
   -4.8908    8.7775   -8.4962 H   0  0  0  0  0  0  0  0  0  0  0  0
   -4.4264   13.5926   -5.2046 H   0  0  0  0  0  0  0  0  0  0  0  0
   -3.5315   14.1579   -6.6557 H   0  0  0  0  0  0  0  0  0  0  0  0
   -5.3217   14.2932   -6.5953 H   0  0  0  0  0  0  0  0  0  0  0  0
  1  2  1  0  0  0  0
  1  4  1  0  0  0  0
  1 13  1  0  0  0  0
  2  6  2  0  0  0  0
  3  4  2  0  0  0  0
  3  5  1  0  0  0  0
  5  6  1  0  0  0  0
  5  9  2  0  0  0  0
  6  7  1  0  0  0  0
  7  8  1  0  0  0  0
  7 10  2  3  0  0  0
  8  9  1  0  0  0  0
 10 15  1  0  0  0  0
 11 12  1  0  0  0  0
 11 13  2  0  0  0  0
 13 14  1  0  0  0  0
 15 16  2  0  0  0  0
 15 20  1  0  0  0  0
 16 17  1  0  0  0  0
 17 18  2  0  0  0  0
 17 21  1  0  0  0  0
 18 19  1  0  0  0  0
 19 20  2  0  0  0  0
  1 22  1  0  0  0  0
  2 23  1  0  0  0  0
  3 24  1  0  0  0  0
  4 25  1  0  0  0  0
  8 26  1  0  0  0  0
 10 27  1  0  0  0  0
 12 28  1  0  0  0  0
 12 29  1  0  0  0  0
 12 30  1  0  0  0  0
 14 31  1  0  0  0  0
 16 32  1  0  0  0  0
 18 33  1  0  0  0  0
 19 34  1  0  0  0  0
 20 35  1  0  0  0  0
 21 36  1  0  0  0  0
 21 37  1  0  0  0  0
 21 38  1  0  0  0  0
M  END
> <Name>
16

> <IC50[uM]>
0.17

$$$$
16
  -OEChem-05192314333D
 Structure written by MMmdl.
 38 40  0     0  0  0  0  0  0999 V2000
   -6.3886   12.3706  -12.0044 C   0  0  0  0  0  0  0  0  0  0  0  0
   -6.5217   11.8105  -10.7338 C   0  0  0  0  0  0  0  0  0  0  0  0
   -7.7267   10.5778  -13.0331 C   0  0  0  0  0  0  0  0  0  0  0  0
   -6.9997   11.7772  -13.1264 C   0  0  0  0  0  0  0  0  0  0  0  0
   -7.8245   10.0105  -11.7588 C   0  0  0  0  0  0  0  0  0  0  0  0
   -7.2447   10.6240  -10.5997 C   0  0  0  0  0  0  0  0  0  0  0  0
   -7.6157    9.7479   -9.5130 C   0  0  0  0  0  0  0  0  0  0  0  0
   -8.2818    8.7335   -9.9900 N   0  0  0  0  0  0  0  0  0  0  0  0
   -8.4155    8.8614  -11.3010 N   0  0  0  0  0  0  0  0  0  0  0  0
   -7.3377    9.8874   -8.0251 C   0  0  0  0  0  0  0  0  0  0  0  0
   -4.4115   13.6449  -11.4457 N   0  0  0  0  0  0  0  0  0  0  0  0
   -3.4644   14.7678  -11.5034 C   0  0  0  0  0  0  0  0  0  0  0  0
   -5.5490   13.6243  -12.1808 C   0  0  0  0  0  0  0  0  0  0  0  0
   -5.8784   14.5204  -12.9613 O   0  0  0  0  0  0  0  0  0  0  0  0
   -5.9596   10.4818   -7.7362 C   0  0  0  0  0  0  0  0  0  0  0  0
   -5.8460   11.7538   -7.1602 C   0  0  0  0  0  0  0  0  0  0  0  0
   -4.5819   12.3007   -6.9160 C   0  0  0  0  0  0  0  0  0  0  0  0
   -3.4335   11.5746   -7.2403 C   0  0  0  0  0  0  0  0  0  0  0  0
   -3.5461   10.3067   -7.8068 C   0  0  0  0  0  0  0  0  0  0  0  0
   -4.8068    9.7600   -8.0558 C   0  0  0  0  0  0  0  0  0  0  0  0
   -4.4568   13.6807   -6.3006 C   0  0  0  0  0  0  0  0  0  0  0  0
   -6.0750   12.2846   -9.8724 H   0  0  0  0  0  0  0  0  0  0  0  0
   -8.7478   10.7760  -13.3910 H   0  0  0  0  0  0  0  0  0  0  0  0
   -7.2438    9.8410  -13.6919 H   0  0  0  0  0  0  0  0  0  0  0  0
   -6.9067   12.2589  -14.0885 H   0  0  0  0  0  0  0  0  0  0  0  0
   -8.6382    7.9731   -9.4471 H   0  0  0  0  0  0  0  0  0  0  0  0
   -8.0380    9.5979   -7.2556 H   0  0  0  0  0  0  0  0  0  0  0  0
   -2.6189   14.5701  -10.8280 H   0  0  0  0  0  0  0  0  0  0  0  0
   -3.0927   14.8813  -12.5325 H   0  0  0  0  0  0  0  0  0  0  0  0
   -3.9729   15.6925  -11.1931 H   0  0  0  0  0  0  0  0  0  0  0  0
   -5.2336   15.2175  -12.9341 H   0  0  0  0  0  0  0  0  0  0  0  0
   -6.7345   12.3122   -6.9047 H   0  0  0  0  0  0  0  0  0  0  0  0
   -2.4573   11.9965   -7.0517 H   0  0  0  0  0  0  0  0  0  0  0  0
   -2.6569    9.7457   -8.0538 H   0  0  0  0  0  0  0  0  0  0  0  0
   -4.8908    8.7775   -8.4962 H   0  0  0  0  0  0  0  0  0  0  0  0
   -4.4264   13.5926   -5.2046 H   0  0  0  0  0  0  0  0  0  0  0  0
   -3.5315   14.1579   -6.6557 H   0  0  0  0  0  0  0  0  0  0  0  0
   -5.3217   14.2932   -6.5953 H   0  0  0  0  0  0  0  0  0  0  0  0
  1  2  1  0  0  0  0
  1  4  2  0  0  0  0
  1 13  1  0  0  0  0
  2  6  2  0  0  0  0
  3  4  1  0  0  0  0
  3  5  1  0  0  0  0
  5  6  1  0  0  0  0
  5  9  2  0  0  0  0
  6  7  1  0  0  0  0
  7  8  1  0  0  0  0
  7 10  2  3  0  0  0
  8  9  1  0  0  0  0
 10 15  1  0  0  0  0
 11 12  1  0  0  0  0
 11 13  2  0  0  0  0
 13 14  1  0  0  0  0
 15 16  2  0  0  0  0
 15 20  1  0  0  0  0
 16 17  1  0  0  0  0
 17 18  2  0  0  0  0
 17 21  1  0  0  0  0
 18 19  1  0  0  0  0
 19 20  2  0  0  0  0
  2 22  1  0  0  0  0
  3 23  1  0  0  0  0
  3 24  1  0  0  0  0
  4 25  1  0  0  0  0
  8 26  1  0  0  0  0
 10 27  1  0  0  0  0
 12 28  1  0  0  0  0
 12 29  1  0  0  0  0
 12 30  1  0  0  0  0
 14 31  1  0  0  0  0
 16 32  1  0  0  0  0
 18 33  1  0  0  0  0
 19 34  1  0  0  0  0
 20 35  1  0  0  0  0
 21 36  1  0  0  0  0
 21 37  1  0  0  0  0
 21 38  1  0  0  0  0
M  END
> <Name>
16

> <IC50[uM]>
0.17

$$$$
16
  -OEChem-05192314333D
 Structure written by MMmdl.
 38 40  0     0  0  0  0  0  0999 V2000
   -6.3886   12.3706  -12.0044 C   0  0  0  0  0  0  0  0  0  0  0  0
   -6.5217   11.8105  -10.7338 C   0  0  0  0  0  0  0  0  0  0  0  0
   -7.7267   10.5778  -13.0331 C   0  0  0  0  0  0  0  0  0  0  0  0
   -6.9997   11.7772  -13.1264 C   0  0  0  0  0  0  0  0  0  0  0  0
   -7.8245   10.0105  -11.7588 C   0  0  0  0  0  0  0  0  0  0  0  0
   -7.2447   10.6240  -10.5997 C   0  0  0  0  0  0  0  0  0  0  0  0
   -7.6157    9.7479   -9.5130 C   0  0  0  0  0  0  0  0  0  0  0  0
   -8.2818    8.7335   -9.9900 N   0  0  0  0  0  0  0  0  0  0  0  0
   -8.4155    8.8614  -11.3010 N   0  0  0  0  0  0  0  0  0  0  0  0
   -7.3377    9.8874   -8.0251 C   0  0  0  0  0  0  0  0  0  0  0  0
   -4.4115   13.6449  -11.4457 N   0  0  0  0  0  0  0  0  0  0  0  0
   -3.4644   14.7678  -11.5034 C   0  0  0  0  0  0  0  0  0  0  0  0
   -5.5490   13.6243  -12.1808 C   0  0  0  0  0  0  0  0  0  0  0  0
   -5.8784   14.5204  -12.9613 O   0  0  0  0  0  0  0  0  0  0  0  0
   -5.9596   10.4818   -7.7362 C   0  0  0  0  0  0  0  0  0  0  0  0
   -5.8460   11.7538   -7.1602 C   0  0  0  0  0  0  0  0  0  0  0  0
   -4.5819   12.3007   -6.9160 C   0  0  0  0  0  0  0  0  0  0  0  0
   -3.4335   11.5746   -7.2403 C   0  0  0  0  0  0  0  0  0  0  0  0
   -3.5461   10.3067   -7.8068 C   0  0  0  0  0  0  0  0  0  0  0  0
   -4.8068    9.7600   -8.0558 C   0  0  0  0  0  0  0  0  0  0  0  0
   -4.4568   13.6807   -6.3006 C   0  0  0  0  0  0  0  0  0  0  0  0
   -6.0750   12.2846   -9.8724 H   0  0  0  0  0  0  0  0  0  0  0  0
   -8.1843   10.1199  -13.8976 H   0  0  0  0  0  0  0  0  0  0  0  0
   -6.9067   12.2589  -14.0885 H   0  0  0  0  0  0  0  0  0  0  0  0
   -8.6382    7.9731   -9.4471 H   0  0  0  0  0  0  0  0  0  0  0  0
   -8.0380    9.5979   -7.2556 H   0  0  0  0  0  0  0  0  0  0  0  0
   -4.2095   12.8717  -10.8446 H   0  0  0  0  0  0  0  0  0  0  0  0
   -2.6189   14.5701  -10.8280 H   0  0  0  0  0  0  0  0  0  0  0  0
   -3.0927   14.8813  -12.5325 H   0  0  0  0  0  0  0  0  0  0  0  0
   -3.9729   15.6925  -11.1931 H   0  0  0  0  0  0  0  0  0  0  0  0
   -6.7345   12.3122   -6.9047 H   0  0  0  0  0  0  0  0  0  0  0  0
   -2.4573   11.9965   -7.0517 H   0  0  0  0  0  0  0  0  0  0  0  0
   -2.6569    9.7457   -8.0538 H   0  0  0  0  0  0  0  0  0  0  0  0
   -4.8589    8.8150   -7.4951 H   0  0  0  0  0  0  0  0  0  0  0  0
   -4.8535    9.5494   -9.1344 H   0  0  0  0  0  0  0  0  0  0  0  0
   -3.3931   13.9367   -6.1862 H   0  0  0  0  0  0  0  0  0  0  0  0
   -4.9432   14.4192   -6.9548 H   0  0  0  0  0  0  0  0  0  0  0  0
   -4.9436   13.6877   -5.3142 H   0  0  0  0  0  0  0  0  0  0  0  0
  1  2  2  0  0  0  0
  1  4  1  0  0  0  0
  1 13  1  0  0  0  0
  2  6  1  0  0  0  0
  3  4  2  0  0  0  0
  3  5  1  0  0  0  0
  5  6  1  0  0  0  0
  5  9  2  0  0  0  0
  6  7  2  0  0  0  0
  7  8  1  0  0  0  0
  7 10  1  0  0  0  0
  8  9  1  0  0  0  0
 10 15  2  3  0  0  0
 11 12  1  0  0  0  0
 11 13  1  0  0  0  0
 13 14  2  0  0  0  0
 15 16  1  0  0  0  0
 15 20  1  0  0  0  0
 16 17  2  0  0  0  0
 17 18  1  0  0  0  0
 17 21  1  0  0  0  0
 18 19  2  0  0  0  0
 19 20  1  0  0  0  0
  2 22  1  0  0  0  0
  3 23  1  0  0  0  0
  4 24  1  0  0  0  0
  8 25  1  0  0  0  0
 10 26  1  0  0  0  0
 11 27  1  0  0  0  0
 12 28  1  0  0  0  0
 12 29  1  0  0  0  0
 12 30  1  0  0  0  0
 16 31  1  0  0  0  0
 18 32  1  0  0  0  0
 19 33  1  0  0  0  0
 20 34  1  0  0  0  0
 20 35  1  0  0  0  0
 21 36  1  0  0  0  0
 21 37  1  0  0  0  0
 21 38  1  0  0  0  0
M  END
> <Name>
16

> <IC50[uM]>
0.17

$$$$
16
  -OEChem-05192314333D
 Structure written by MMmdl.
 38 40  0     0  0  0  0  0  0999 V2000
   -6.3886   12.3706  -12.0044 C   0  0  0  0  0  0  0  0  0  0  0  0
   -6.5217   11.8105  -10.7338 C   0  0  0  0  0  0  0  0  0  0  0  0
   -7.7267   10.5778  -13.0331 C   0  0  0  0  0  0  0  0  0  0  0  0
   -6.9997   11.7772  -13.1264 C   0  0  0  0  0  0  0  0  0  0  0  0
   -7.8245   10.0105  -11.7588 C   0  0  0  0  0  0  0  0  0  0  0  0
   -7.2447   10.6240  -10.5997 C   0  0  0  0  0  0  0  0  0  0  0  0
   -7.6157    9.7479   -9.5130 C   0  0  0  0  0  0  0  0  0  0  0  0
   -8.2818    8.7335   -9.9900 N   0  0  0  0  0  0  0  0  0  0  0  0
   -8.4155    8.8614  -11.3010 N   0  0  0  0  0  0  0  0  0  0  0  0
   -7.3377    9.8874   -8.0251 C   0  0  0  0  0  0  0  0  0  0  0  0
   -4.4115   13.6449  -11.4457 N   0  0  0  0  0  0  0  0  0  0  0  0
   -3.4644   14.7678  -11.5034 C   0  0  0  0  0  0  0  0  0  0  0  0
   -5.5490   13.6243  -12.1808 C   0  0  0  0  0  0  0  0  0  0  0  0
   -5.8784   14.5204  -12.9613 O   0  0  0  0  0  0  0  0  0  0  0  0
   -5.9596   10.4818   -7.7362 C   0  0  0  0  0  0  0  0  0  0  0  0
   -5.8460   11.7538   -7.1602 C   0  0  0  0  0  0  0  0  0  0  0  0
   -4.5819   12.3007   -6.9160 C   0  0  0  0  0  0  0  0  0  0  0  0
   -3.4335   11.5746   -7.2403 C   0  0  0  0  0  0  0  0  0  0  0  0
   -3.5461   10.3067   -7.8068 C   0  0  0  0  0  0  0  0  0  0  0  0
   -4.8068    9.7600   -8.0558 C   0  0  0  0  0  0  0  0  0  0  0  0
   -4.4568   13.6807   -6.3006 C   0  0  0  0  0  0  0  0  0  0  0  0
   -6.0750   12.2846   -9.8724 H   0  0  0  0  0  0  0  0  0  0  0  0
   -8.1843   10.1199  -13.8976 H   0  0  0  0  0  0  0  0  0  0  0  0
   -6.9067   12.2589  -14.0885 H   0  0  0  0  0  0  0  0  0  0  0  0
   -8.8888    8.2017  -11.8847 H   0  0  0  0  0  0  0  0  0  0  0  0
   -8.0380    9.5979   -7.2556 H   0  0  0  0  0  0  0  0  0  0  0  0
   -4.2095   12.8717  -10.8446 H   0  0  0  0  0  0  0  0  0  0  0  0
   -2.6189   14.5701  -10.8280 H   0  0  0  0  0  0  0  0  0  0  0  0
   -3.0927   14.8813  -12.5325 H   0  0  0  0  0  0  0  0  0  0  0  0
   -3.9729   15.6925  -11.1931 H   0  0  0  0  0  0  0  0  0  0  0  0
   -6.7345   12.3122   -6.9047 H   0  0  0  0  0  0  0  0  0  0  0  0
   -2.4573   11.9965   -7.0517 H   0  0  0  0  0  0  0  0  0  0  0  0
   -2.6569    9.7457   -8.0538 H   0  0  0  0  0  0  0  0  0  0  0  0
   -4.8589    8.8150   -7.4951 H   0  0  0  0  0  0  0  0  0  0  0  0
   -4.8535    9.5494   -9.1344 H   0  0  0  0  0  0  0  0  0  0  0  0
   -3.3931   13.9367   -6.1862 H   0  0  0  0  0  0  0  0  0  0  0  0
   -4.9432   14.4192   -6.9548 H   0  0  0  0  0  0  0  0  0  0  0  0
   -4.9436   13.6877   -5.3142 H   0  0  0  0  0  0  0  0  0  0  0  0
  1  2  2  0  0  0  0
  1  4  1  0  0  0  0
  1 13  1  0  0  0  0
  2  6  1  0  0  0  0
  3  4  2  0  0  0  0
  3  5  1  0  0  0  0
  5  6  2  0  0  0  0
  5  9  1  0  0  0  0
  6  7  1  0  0  0  0
  7  8  2  0  0  0  0
  7 10  1  0  0  0  0
  8  9  1  0  0  0  0
 10 15  2  3  0  0  0
 11 12  1  0  0  0  0
 11 13  1  0  0  0  0
 13 14  2  0  0  0  0
 15 16  1  0  0  0  0
 15 20  1  0  0  0  0
 16 17  2  0  0  0  0
 17 18  1  0  0  0  0
 17 21  1  0  0  0  0
 18 19  2  0  0  0  0
 19 20  1  0  0  0  0
  2 22  1  0  0  0  0
  3 23  1  0  0  0  0
  4 24  1  0  0  0  0
  9 25  1  0  0  0  0
 10 26  1  0  0  0  0
 11 27  1  0  0  0  0
 12 28  1  0  0  0  0
 12 29  1  0  0  0  0
 12 30  1  0  0  0  0
 16 31  1  0  0  0  0
 18 32  1  0  0  0  0
 19 33  1  0  0  0  0
 20 34  1  0  0  0  0
 20 35  1  0  0  0  0
 21 36  1  0  0  0  0
 21 37  1  0  0  0  0
 21 38  1  0  0  0  0
M  END
> <Name>
16

> <IC50[uM]>
0.17

$$$$
16
  -OEChem-05192314333D
 Structure written by MMmdl.
 38 40  0     0  0  0  0  0  0999 V2000
   -6.3886   12.3706  -12.0044 C   0  0  0  0  0  0  0  0  0  0  0  0
   -6.5217   11.8105  -10.7338 C   0  0  0  0  0  0  0  0  0  0  0  0
   -7.7267   10.5778  -13.0331 C   0  0  0  0  0  0  0  0  0  0  0  0
   -6.9997   11.7772  -13.1264 C   0  0  0  0  0  0  0  0  0  0  0  0
   -7.8245   10.0105  -11.7588 C   0  0  0  0  0  0  0  0  0  0  0  0
   -7.2447   10.6240  -10.5997 C   0  0  0  0  0  0  0  0  0  0  0  0
   -7.6157    9.7479   -9.5130 C   0  0  0  0  0  0  0  0  0  0  0  0
   -8.2818    8.7335   -9.9900 N   0  0  0  0  0  0  0  0  0  0  0  0
   -8.4155    8.8614  -11.3010 N   0  0  0  0  0  0  0  0  0  0  0  0
   -7.3377    9.8874   -8.0251 C   0  0  0  0  0  0  0  0  0  0  0  0
   -4.4115   13.6449  -11.4457 N   0  0  0  0  0  0  0  0  0  0  0  0
   -3.4644   14.7678  -11.5034 C   0  0  0  0  0  0  0  0  0  0  0  0
   -5.5490   13.6243  -12.1808 C   0  0  0  0  0  0  0  0  0  0  0  0
   -5.8784   14.5204  -12.9613 O   0  0  0  0  0  0  0  0  0  0  0  0
   -5.9596   10.4818   -7.7362 C   0  0  0  0  0  0  0  0  0  0  0  0
   -5.8460   11.7538   -7.1602 C   0  0  0  0  0  0  0  0  0  0  0  0
   -4.5819   12.3007   -6.9160 C   0  0  0  0  0  0  0  0  0  0  0  0
   -3.4335   11.5746   -7.2403 C   0  0  0  0  0  0  0  0  0  0  0  0
   -3.5461   10.3067   -7.8068 C   0  0  0  0  0  0  0  0  0  0  0  0
   -4.8068    9.7600   -8.0558 C   0  0  0  0  0  0  0  0  0  0  0  0
   -4.4568   13.6807   -6.3006 C   0  0  0  0  0  0  0  0  0  0  0  0
   -6.0750   12.2846   -9.8724 H   0  0  0  0  0  0  0  0  0  0  0  0
   -8.1843   10.1199  -13.8976 H   0  0  0  0  0  0  0  0  0  0  0  0
   -6.9067   12.2589  -14.0885 H   0  0  0  0  0  0  0  0  0  0  0  0
   -8.6382    7.9731   -9.4471 H   0  0  0  0  0  0  0  0  0  0  0  0
   -8.0380    9.5979   -7.2556 H   0  0  0  0  0  0  0  0  0  0  0  0
   -4.2095   12.8717  -10.8446 H   0  0  0  0  0  0  0  0  0  0  0  0
   -2.6189   14.5701  -10.8280 H   0  0  0  0  0  0  0  0  0  0  0  0
   -3.0927   14.8813  -12.5325 H   0  0  0  0  0  0  0  0  0  0  0  0
   -3.9729   15.6925  -11.1931 H   0  0  0  0  0  0  0  0  0  0  0  0
   -6.7345   12.3122   -6.9047 H   0  0  0  0  0  0  0  0  0  0  0  0
   -2.8594   12.1890   -7.9494 H   0  0  0  0  0  0  0  0  0  0  0  0
   -2.8596   11.4563   -6.3094 H   0  0  0  0  0  0  0  0  0  0  0  0
   -2.6569    9.7457   -8.0538 H   0  0  0  0  0  0  0  0  0  0  0  0
   -4.8908    8.7775   -8.4962 H   0  0  0  0  0  0  0  0  0  0  0  0
   -3.3931   13.9367   -6.1862 H   0  0  0  0  0  0  0  0  0  0  0  0
   -4.9432   14.4192   -6.9548 H   0  0  0  0  0  0  0  0  0  0  0  0
   -4.9436   13.6877   -5.3142 H   0  0  0  0  0  0  0  0  0  0  0  0
  1  2  2  0  0  0  0
  1  4  1  0  0  0  0
  1 13  1  0  0  0  0
  2  6  1  0  0  0  0
  3  4  2  0  0  0  0
  3  5  1  0  0  0  0
  5  6  1  0  0  0  0
  5  9  2  0  0  0  0
  6  7  2  0  0  0  0
  7  8  1  0  0  0  0
  7 10  1  0  0  0  0
  8  9  1  0  0  0  0
 10 15  2  3  0  0  0
 11 12  1  0  0  0  0
 11 13  1  0  0  0  0
 13 14  2  0  0  0  0
 15 16  1  0  0  0  0
 15 20  1  0  0  0  0
 16 17  2  0  0  0  0
 17 18  1  0  0  0  0
 17 21  1  0  0  0  0
 18 19  1  0  0  0  0
 19 20  2  0  0  0  0
  2 22  1  0  0  0  0
  3 23  1  0  0  0  0
  4 24  1  0  0  0  0
  8 25  1  0  0  0  0
 10 26  1  0  0  0  0
 11 27  1  0  0  0  0
 12 28  1  0  0  0  0
 12 29  1  0  0  0  0
 12 30  1  0  0  0  0
 16 31  1  0  0  0  0
 18 32  1  0  0  0  0
 18 33  1  0  0  0  0
 19 34  1  0  0  0  0
 20 35  1  0  0  0  0
 21 36  1  0  0  0  0
 21 37  1  0  0  0  0
 21 38  1  0  0  0  0
M  END
> <Name>
16

> <IC50[uM]>
0.17

$$$$
16
  -OEChem-05192314333D
 Structure written by MMmdl.
 38 40  0     0  0  0  0  0  0999 V2000
   -6.3886   12.3706  -12.0044 C   0  0  0  0  0  0  0  0  0  0  0  0
   -6.5217   11.8105  -10.7338 C   0  0  0  0  0  0  0  0  0  0  0  0
   -7.7267   10.5778  -13.0331 C   0  0  0  0  0  0  0  0  0  0  0  0
   -6.9997   11.7772  -13.1264 C   0  0  0  0  0  0  0  0  0  0  0  0
   -7.8245   10.0105  -11.7588 C   0  0  0  0  0  0  0  0  0  0  0  0
   -7.2447   10.6240  -10.5997 C   0  0  0  0  0  0  0  0  0  0  0  0
   -7.6157    9.7479   -9.5130 C   0  0  0  0  0  0  0  0  0  0  0  0
   -8.2818    8.7335   -9.9900 N   0  0  0  0  0  0  0  0  0  0  0  0
   -8.4155    8.8614  -11.3010 N   0  0  0  0  0  0  0  0  0  0  0  0
   -7.3377    9.8874   -8.0251 C   0  0  0  0  0  0  0  0  0  0  0  0
   -4.4115   13.6449  -11.4457 N   0  0  0  0  0  0  0  0  0  0  0  0
   -3.4644   14.7678  -11.5034 C   0  0  0  0  0  0  0  0  0  0  0  0
   -5.5490   13.6243  -12.1808 C   0  0  0  0  0  0  0  0  0  0  0  0
   -5.8784   14.5204  -12.9613 O   0  0  0  0  0  0  0  0  0  0  0  0
   -5.9596   10.4818   -7.7362 C   0  0  0  0  0  0  0  0  0  0  0  0
   -5.8460   11.7538   -7.1602 C   0  0  0  0  0  0  0  0  0  0  0  0
   -4.5819   12.3007   -6.9160 C   0  0  0  0  0  0  0  0  0  0  0  0
   -3.4335   11.5746   -7.2403 C   0  0  0  0  0  0  0  0  0  0  0  0
   -3.5461   10.3067   -7.8068 C   0  0  0  0  0  0  0  0  0  0  0  0
   -4.8068    9.7600   -8.0558 C   0  0  0  0  0  0  0  0  0  0  0  0
   -4.4568   13.6807   -6.3006 C   0  0  0  0  0  0  0  0  0  0  0  0
   -6.0750   12.2846   -9.8724 H   0  0  0  0  0  0  0  0  0  0  0  0
   -8.1843   10.1199  -13.8976 H   0  0  0  0  0  0  0  0  0  0  0  0
   -6.9067   12.2589  -14.0885 H   0  0  0  0  0  0  0  0  0  0  0  0
   -8.8888    8.2017  -11.8847 H   0  0  0  0  0  0  0  0  0  0  0  0
   -8.0380    9.5979   -7.2556 H   0  0  0  0  0  0  0  0  0  0  0  0
   -4.2095   12.8717  -10.8446 H   0  0  0  0  0  0  0  0  0  0  0  0
   -2.6189   14.5701  -10.8280 H   0  0  0  0  0  0  0  0  0  0  0  0
   -3.0927   14.8813  -12.5325 H   0  0  0  0  0  0  0  0  0  0  0  0
   -3.9729   15.6925  -11.1931 H   0  0  0  0  0  0  0  0  0  0  0  0
   -6.7345   12.3122   -6.9047 H   0  0  0  0  0  0  0  0  0  0  0  0
   -2.8594   12.1890   -7.9494 H   0  0  0  0  0  0  0  0  0  0  0  0
   -2.8596   11.4563   -6.3094 H   0  0  0  0  0  0  0  0  0  0  0  0
   -2.6569    9.7457   -8.0538 H   0  0  0  0  0  0  0  0  0  0  0  0
   -4.8908    8.7775   -8.4962 H   0  0  0  0  0  0  0  0  0  0  0  0
   -3.3931   13.9367   -6.1862 H   0  0  0  0  0  0  0  0  0  0  0  0
   -4.9432   14.4192   -6.9548 H   0  0  0  0  0  0  0  0  0  0  0  0
   -4.9436   13.6877   -5.3142 H   0  0  0  0  0  0  0  0  0  0  0  0
  1  2  2  0  0  0  0
  1  4  1  0  0  0  0
  1 13  1  0  0  0  0
  2  6  1  0  0  0  0
  3  4  2  0  0  0  0
  3  5  1  0  0  0  0
  5  6  2  0  0  0  0
  5  9  1  0  0  0  0
  6  7  1  0  0  0  0
  7  8  2  0  0  0  0
  7 10  1  0  0  0  0
  8  9  1  0  0  0  0
 10 15  2  3  0  0  0
 11 12  1  0  0  0  0
 11 13  1  0  0  0  0
 13 14  2  0  0  0  0
 15 16  1  0  0  0  0
 15 20  1  0  0  0  0
 16 17  2  0  0  0  0
 17 18  1  0  0  0  0
 17 21  1  0  0  0  0
 18 19  1  0  0  0  0
 19 20  2  0  0  0  0
  2 22  1  0  0  0  0
  3 23  1  0  0  0  0
  4 24  1  0  0  0  0
  9 25  1  0  0  0  0
 10 26  1  0  0  0  0
 11 27  1  0  0  0  0
 12 28  1  0  0  0  0
 12 29  1  0  0  0  0
 12 30  1  0  0  0  0
 16 31  1  0  0  0  0
 18 32  1  0  0  0  0
 18 33  1  0  0  0  0
 19 34  1  0  0  0  0
 20 35  1  0  0  0  0
 21 36  1  0  0  0  0
 21 37  1  0  0  0  0
 21 38  1  0  0  0  0
M  END
> <Name>
16

> <IC50[uM]>
0.17

$$$$
16
  -OEChem-05192314333D
 Structure written by MMmdl.
 38 40  0     0  0  0  0  0  0999 V2000
   -6.3886   12.3706  -12.0044 C   0  0  0  0  0  0  0  0  0  0  0  0
   -6.5217   11.8105  -10.7338 C   0  0  0  0  0  0  0  0  0  0  0  0
   -7.7267   10.5778  -13.0331 C   0  0  0  0  0  0  0  0  0  0  0  0
   -6.9997   11.7772  -13.1264 C   0  0  0  0  0  0  0  0  0  0  0  0
   -7.8245   10.0105  -11.7588 C   0  0  0  0  0  0  0  0  0  0  0  0
   -7.2447   10.6240  -10.5997 C   0  0  0  0  0  0  0  0  0  0  0  0
   -7.6157    9.7479   -9.5130 C   0  0  0  0  0  0  0  0  0  0  0  0
   -8.2818    8.7335   -9.9900 N   0  0  0  0  0  0  0  0  0  0  0  0
   -8.4155    8.8614  -11.3010 N   0  0  0  0  0  0  0  0  0  0  0  0
   -7.3377    9.8874   -8.0251 C   0  0  0  0  0  0  0  0  0  0  0  0
   -4.4115   13.6449  -11.4457 N   0  0  0  0  0  0  0  0  0  0  0  0
   -3.4644   14.7678  -11.5034 C   0  0  0  0  0  0  0  0  0  0  0  0
   -5.5490   13.6243  -12.1808 C   0  0  0  0  0  0  0  0  0  0  0  0
   -5.8784   14.5204  -12.9613 O   0  0  0  0  0  0  0  0  0  0  0  0
   -5.9596   10.4818   -7.7362 C   0  0  0  0  0  0  0  0  0  0  0  0
   -5.8460   11.7538   -7.1602 C   0  0  0  0  0  0  0  0  0  0  0  0
   -4.5819   12.3007   -6.9160 C   0  0  0  0  0  0  0  0  0  0  0  0
   -3.4335   11.5746   -7.2403 C   0  0  0  0  0  0  0  0  0  0  0  0
   -3.5461   10.3067   -7.8068 C   0  0  0  0  0  0  0  0  0  0  0  0
   -4.8068    9.7600   -8.0558 C   0  0  0  0  0  0  0  0  0  0  0  0
   -4.4568   13.6807   -6.3006 C   0  0  0  0  0  0  0  0  0  0  0  0
   -6.0750   12.2846   -9.8724 H   0  0  0  0  0  0  0  0  0  0  0  0
   -8.1843   10.1199  -13.8976 H   0  0  0  0  0  0  0  0  0  0  0  0
   -6.9067   12.2589  -14.0885 H   0  0  0  0  0  0  0  0  0  0  0  0
   -8.6382    7.9731   -9.4471 H   0  0  0  0  0  0  0  0  0  0  0  0
   -8.0380    9.5979   -7.2556 H   0  0  0  0  0  0  0  0  0  0  0  0
   -4.2095   12.8717  -10.8446 H   0  0  0  0  0  0  0  0  0  0  0  0
   -2.6189   14.5701  -10.8280 H   0  0  0  0  0  0  0  0  0  0  0  0
   -3.0927   14.8813  -12.5325 H   0  0  0  0  0  0  0  0  0  0  0  0
   -3.9729   15.6925  -11.1931 H   0  0  0  0  0  0  0  0  0  0  0  0
   -6.3708   12.4528   -7.8280 H   0  0  0  0  0  0  0  0  0  0  0  0
   -6.3661   11.7115   -6.1919 H   0  0  0  0  0  0  0  0  0  0  0  0
   -2.4573   11.9965   -7.0517 H   0  0  0  0  0  0  0  0  0  0  0  0
   -2.6569    9.7457   -8.0538 H   0  0  0  0  0  0  0  0  0  0  0  0
   -4.8908    8.7775   -8.4962 H   0  0  0  0  0  0  0  0  0  0  0  0
   -3.3931   13.9367   -6.1862 H   0  0  0  0  0  0  0  0  0  0  0  0
   -4.9432   14.4192   -6.9548 H   0  0  0  0  0  0  0  0  0  0  0  0
   -4.9436   13.6877   -5.3142 H   0  0  0  0  0  0  0  0  0  0  0  0
  1  2  2  0  0  0  0
  1  4  1  0  0  0  0
  1 13  1  0  0  0  0
  2  6  1  0  0  0  0
  3  4  2  0  0  0  0
  3  5  1  0  0  0  0
  5  6  1  0  0  0  0
  5  9  2  0  0  0  0
  6  7  2  0  0  0  0
  7  8  1  0  0  0  0
  7 10  1  0  0  0  0
  8  9  1  0  0  0  0
 10 15  2  3  0  0  0
 11 12  1  0  0  0  0
 11 13  1  0  0  0  0
 13 14  2  0  0  0  0
 15 16  1  0  0  0  0
 15 20  1  0  0  0  0
 16 17  1  0  0  0  0
 17 18  2  0  0  0  0
 17 21  1  0  0  0  0
 18 19  1  0  0  0  0
 19 20  2  0  0  0  0
  2 22  1  0  0  0  0
  3 23  1  0  0  0  0
  4 24  1  0  0  0  0
  8 25  1  0  0  0  0
 10 26  1  0  0  0  0
 11 27  1  0  0  0  0
 12 28  1  0  0  0  0
 12 29  1  0  0  0  0
 12 30  1  0  0  0  0
 16 31  1  0  0  0  0
 16 32  1  0  0  0  0
 18 33  1  0  0  0  0
 19 34  1  0  0  0  0
 20 35  1  0  0  0  0
 21 36  1  0  0  0  0
 21 37  1  0  0  0  0
 21 38  1  0  0  0  0
M  END
> <Name>
16

> <IC50[uM]>
0.17

$$$$
16
  -OEChem-05192314333D
 Structure written by MMmdl.
 38 40  0     0  0  0  0  0  0999 V2000
   -6.3886   12.3706  -12.0044 C   0  0  0  0  0  0  0  0  0  0  0  0
   -6.5217   11.8105  -10.7338 C   0  0  0  0  0  0  0  0  0  0  0  0
   -7.7267   10.5778  -13.0331 C   0  0  0  0  0  0  0  0  0  0  0  0
   -6.9997   11.7772  -13.1264 C   0  0  0  0  0  0  0  0  0  0  0  0
   -7.8245   10.0105  -11.7588 C   0  0  0  0  0  0  0  0  0  0  0  0
   -7.2447   10.6240  -10.5997 C   0  0  0  0  0  0  0  0  0  0  0  0
   -7.6157    9.7479   -9.5130 C   0  0  0  0  0  0  0  0  0  0  0  0
   -8.2818    8.7335   -9.9900 N   0  0  0  0  0  0  0  0  0  0  0  0
   -8.4155    8.8614  -11.3010 N   0  0  0  0  0  0  0  0  0  0  0  0
   -7.3377    9.8874   -8.0251 C   0  0  0  0  0  0  0  0  0  0  0  0
   -4.4115   13.6449  -11.4457 N   0  0  0  0  0  0  0  0  0  0  0  0
   -3.4644   14.7678  -11.5034 C   0  0  0  0  0  0  0  0  0  0  0  0
   -5.5490   13.6243  -12.1808 C   0  0  0  0  0  0  0  0  0  0  0  0
   -5.8784   14.5204  -12.9613 O   0  0  0  0  0  0  0  0  0  0  0  0
   -5.9596   10.4818   -7.7362 C   0  0  0  0  0  0  0  0  0  0  0  0
   -5.8460   11.7538   -7.1602 C   0  0  0  0  0  0  0  0  0  0  0  0
   -4.5819   12.3007   -6.9160 C   0  0  0  0  0  0  0  0  0  0  0  0
   -3.4335   11.5746   -7.2403 C   0  0  0  0  0  0  0  0  0  0  0  0
   -3.5461   10.3067   -7.8068 C   0  0  0  0  0  0  0  0  0  0  0  0
   -4.8068    9.7600   -8.0558 C   0  0  0  0  0  0  0  0  0  0  0  0
   -4.4568   13.6807   -6.3006 C   0  0  0  0  0  0  0  0  0  0  0  0
   -6.0750   12.2846   -9.8724 H   0  0  0  0  0  0  0  0  0  0  0  0
   -8.1843   10.1199  -13.8976 H   0  0  0  0  0  0  0  0  0  0  0  0
   -6.9067   12.2589  -14.0885 H   0  0  0  0  0  0  0  0  0  0  0  0
   -8.8888    8.2017  -11.8847 H   0  0  0  0  0  0  0  0  0  0  0  0
   -8.0380    9.5979   -7.2556 H   0  0  0  0  0  0  0  0  0  0  0  0
   -4.2095   12.8717  -10.8446 H   0  0  0  0  0  0  0  0  0  0  0  0
   -2.6189   14.5701  -10.8280 H   0  0  0  0  0  0  0  0  0  0  0  0
   -3.0927   14.8813  -12.5325 H   0  0  0  0  0  0  0  0  0  0  0  0
   -3.9729   15.6925  -11.1931 H   0  0  0  0  0  0  0  0  0  0  0  0
   -6.3708   12.4528   -7.8280 H   0  0  0  0  0  0  0  0  0  0  0  0
   -6.3661   11.7115   -6.1919 H   0  0  0  0  0  0  0  0  0  0  0  0
   -2.4573   11.9965   -7.0517 H   0  0  0  0  0  0  0  0  0  0  0  0
   -2.6569    9.7457   -8.0538 H   0  0  0  0  0  0  0  0  0  0  0  0
   -4.8908    8.7775   -8.4962 H   0  0  0  0  0  0  0  0  0  0  0  0
   -3.3931   13.9367   -6.1862 H   0  0  0  0  0  0  0  0  0  0  0  0
   -4.9432   14.4192   -6.9548 H   0  0  0  0  0  0  0  0  0  0  0  0
   -4.9436   13.6877   -5.3142 H   0  0  0  0  0  0  0  0  0  0  0  0
  1  2  2  0  0  0  0
  1  4  1  0  0  0  0
  1 13  1  0  0  0  0
  2  6  1  0  0  0  0
  3  4  2  0  0  0  0
  3  5  1  0  0  0  0
  5  6  2  0  0  0  0
  5  9  1  0  0  0  0
  6  7  1  0  0  0  0
  7  8  2  0  0  0  0
  7 10  1  0  0  0  0
  8  9  1  0  0  0  0
 10 15  2  3  0  0  0
 11 12  1  0  0  0  0
 11 13  1  0  0  0  0
 13 14  2  0  0  0  0
 15 16  1  0  0  0  0
 15 20  1  0  0  0  0
 16 17  1  0  0  0  0
 17 18  2  0  0  0  0
 17 21  1  0  0  0  0
 18 19  1  0  0  0  0
 19 20  2  0  0  0  0
  2 22  1  0  0  0  0
  3 23  1  0  0  0  0
  4 24  1  0  0  0  0
  9 25  1  0  0  0  0
 10 26  1  0  0  0  0
 11 27  1  0  0  0  0
 12 28  1  0  0  0  0
 12 29  1  0  0  0  0
 12 30  1  0  0  0  0
 16 31  1  0  0  0  0
 16 32  1  0  0  0  0
 18 33  1  0  0  0  0
 19 34  1  0  0  0  0
 20 35  1  0  0  0  0
 21 36  1  0  0  0  0
 21 37  1  0  0  0  0
 21 38  1  0  0  0  0
M  END
> <Name>
16

> <IC50[uM]>
0.17

$$$$
16
  -OEChem-05192314333D
 Structure written by MMmdl.
 38 40  0     0  0  0  0  0  0999 V2000
   -6.3886   12.3706  -12.0044 C   0  0  0  0  0  0  0  0  0  0  0  0
   -6.5217   11.8105  -10.7338 C   0  0  0  0  0  0  0  0  0  0  0  0
   -7.7267   10.5778  -13.0331 C   0  0  0  0  0  0  0  0  0  0  0  0
   -6.9997   11.7772  -13.1264 C   0  0  0  0  0  0  0  0  0  0  0  0
   -7.8245   10.0105  -11.7588 C   0  0  0  0  0  0  0  0  0  0  0  0
   -7.2447   10.6240  -10.5997 C   0  0  0  0  0  0  0  0  0  0  0  0
   -7.6157    9.7479   -9.5130 C   0  0  0  0  0  0  0  0  0  0  0  0
   -8.2818    8.7335   -9.9900 N   0  0  0  0  0  0  0  0  0  0  0  0
   -8.4155    8.8614  -11.3010 N   0  0  0  0  0  0  0  0  0  0  0  0
   -7.3377    9.8874   -8.0251 C   0  0  0  0  0  0  0  0  0  0  0  0
   -4.4115   13.6449  -11.4457 N   0  0  0  0  0  0  0  0  0  0  0  0
   -3.4644   14.7678  -11.5034 C   0  0  0  0  0  0  0  0  0  0  0  0
   -5.5490   13.6243  -12.1808 C   0  0  0  0  0  0  0  0  0  0  0  0
   -5.8784   14.5204  -12.9613 O   0  0  0  0  0  0  0  0  0  0  0  0
   -5.9596   10.4818   -7.7362 C   0  0  0  0  0  0  0  0  0  0  0  0
   -5.8460   11.7538   -7.1602 C   0  0  0  0  0  0  0  0  0  0  0  0
   -4.5819   12.3007   -6.9160 C   0  0  0  0  0  0  0  0  0  0  0  0
   -3.4335   11.5746   -7.2403 C   0  0  0  0  0  0  0  0  0  0  0  0
   -3.5461   10.3067   -7.8068 C   0  0  0  0  0  0  0  0  0  0  0  0
   -4.8068    9.7600   -8.0558 C   0  0  0  0  0  0  0  0  0  0  0  0
   -4.4568   13.6807   -6.3006 C   0  0  0  0  0  0  0  0  0  0  0  0
   -6.0750   12.2846   -9.8724 H   0  0  0  0  0  0  0  0  0  0  0  0
   -8.1843   10.1199  -13.8976 H   0  0  0  0  0  0  0  0  0  0  0  0
   -6.9067   12.2589  -14.0885 H   0  0  0  0  0  0  0  0  0  0  0  0
   -8.6382    7.9731   -9.4471 H   0  0  0  0  0  0  0  0  0  0  0  0
   -8.0380    9.5979   -7.2556 H   0  0  0  0  0  0  0  0  0  0  0  0
   -2.6189   14.5701  -10.8280 H   0  0  0  0  0  0  0  0  0  0  0  0
   -3.0927   14.8813  -12.5325 H   0  0  0  0  0  0  0  0  0  0  0  0
   -3.9729   15.6925  -11.1931 H   0  0  0  0  0  0  0  0  0  0  0  0
   -5.2336   15.2175  -12.9341 H   0  0  0  0  0  0  0  0  0  0  0  0
   -6.7345   12.3122   -6.9047 H   0  0  0  0  0  0  0  0  0  0  0  0
   -2.4573   11.9965   -7.0517 H   0  0  0  0  0  0  0  0  0  0  0  0
   -2.6569    9.7457   -8.0538 H   0  0  0  0  0  0  0  0  0  0  0  0
   -4.8589    8.8150   -7.4951 H   0  0  0  0  0  0  0  0  0  0  0  0
   -4.8535    9.5494   -9.1344 H   0  0  0  0  0  0  0  0  0  0  0  0
   -3.3931   13.9367   -6.1862 H   0  0  0  0  0  0  0  0  0  0  0  0
   -4.9432   14.4192   -6.9548 H   0  0  0  0  0  0  0  0  0  0  0  0
   -4.9436   13.6877   -5.3142 H   0  0  0  0  0  0  0  0  0  0  0  0
  1  2  2  0  0  0  0
  1  4  1  0  0  0  0
  1 13  1  0  0  0  0
  2  6  1  0  0  0  0
  3  4  2  0  0  0  0
  3  5  1  0  0  0  0
  5  6  1  0  0  0  0
  5  9  2  0  0  0  0
  6  7  2  0  0  0  0
  7  8  1  0  0  0  0
  7 10  1  0  0  0  0
  8  9  1  0  0  0  0
 10 15  2  3  0  0  0
 11 12  1  0  0  0  0
 11 13  2  0  0  0  0
 13 14  1  0  0  0  0
 15 16  1  0  0  0  0
 15 20  1  0  0  0  0
 16 17  2  0  0  0  0
 17 18  1  0  0  0  0
 17 21  1  0  0  0  0
 18 19  2  0  0  0  0
 19 20  1  0  0  0  0
  2 22  1  0  0  0  0
  3 23  1  0  0  0  0
  4 24  1  0  0  0  0
  8 25  1  0  0  0  0
 10 26  1  0  0  0  0
 12 27  1  0  0  0  0
 12 28  1  0  0  0  0
 12 29  1  0  0  0  0
 14 30  1  0  0  0  0
 16 31  1  0  0  0  0
 18 32  1  0  0  0  0
 19 33  1  0  0  0  0
 20 34  1  0  0  0  0
 20 35  1  0  0  0  0
 21 36  1  0  0  0  0
 21 37  1  0  0  0  0
 21 38  1  0  0  0  0
M  END
> <Name>
16

> <IC50[uM]>
0.17

$$$$
16
  -OEChem-05192314333D
 Structure written by MMmdl.
 38 40  0     0  0  0  0  0  0999 V2000
   -6.3886   12.3706  -12.0044 C   0  0  0  0  0  0  0  0  0  0  0  0
   -6.5217   11.8105  -10.7338 C   0  0  0  0  0  0  0  0  0  0  0  0
   -7.7267   10.5778  -13.0331 C   0  0  0  0  0  0  0  0  0  0  0  0
   -6.9997   11.7772  -13.1264 C   0  0  0  0  0  0  0  0  0  0  0  0
   -7.8245   10.0105  -11.7588 C   0  0  0  0  0  0  0  0  0  0  0  0
   -7.2447   10.6240  -10.5997 C   0  0  0  0  0  0  0  0  0  0  0  0
   -7.6157    9.7479   -9.5130 C   0  0  0  0  0  0  0  0  0  0  0  0
   -8.2818    8.7335   -9.9900 N   0  0  0  0  0  0  0  0  0  0  0  0
   -8.4155    8.8614  -11.3010 N   0  0  0  0  0  0  0  0  0  0  0  0
   -7.3377    9.8874   -8.0251 C   0  0  0  0  0  0  0  0  0  0  0  0
   -4.4115   13.6449  -11.4457 N   0  0  0  0  0  0  0  0  0  0  0  0
   -3.4644   14.7678  -11.5034 C   0  0  0  0  0  0  0  0  0  0  0  0
   -5.5490   13.6243  -12.1808 C   0  0  0  0  0  0  0  0  0  0  0  0
   -5.8784   14.5204  -12.9613 O   0  0  0  0  0  0  0  0  0  0  0  0
   -5.9596   10.4818   -7.7362 C   0  0  0  0  0  0  0  0  0  0  0  0
   -5.8460   11.7538   -7.1602 C   0  0  0  0  0  0  0  0  0  0  0  0
   -4.5819   12.3007   -6.9160 C   0  0  0  0  0  0  0  0  0  0  0  0
   -3.4335   11.5746   -7.2403 C   0  0  0  0  0  0  0  0  0  0  0  0
   -3.5461   10.3067   -7.8068 C   0  0  0  0  0  0  0  0  0  0  0  0
   -4.8068    9.7600   -8.0558 C   0  0  0  0  0  0  0  0  0  0  0  0
   -4.4568   13.6807   -6.3006 C   0  0  0  0  0  0  0  0  0  0  0  0
   -6.0750   12.2846   -9.8724 H   0  0  0  0  0  0  0  0  0  0  0  0
   -8.1843   10.1199  -13.8976 H   0  0  0  0  0  0  0  0  0  0  0  0
   -6.9067   12.2589  -14.0885 H   0  0  0  0  0  0  0  0  0  0  0  0
   -8.8888    8.2017  -11.8847 H   0  0  0  0  0  0  0  0  0  0  0  0
   -8.0380    9.5979   -7.2556 H   0  0  0  0  0  0  0  0  0  0  0  0
   -2.6189   14.5701  -10.8280 H   0  0  0  0  0  0  0  0  0  0  0  0
   -3.0927   14.8813  -12.5325 H   0  0  0  0  0  0  0  0  0  0  0  0
   -3.9729   15.6925  -11.1931 H   0  0  0  0  0  0  0  0  0  0  0  0
   -5.2336   15.2175  -12.9341 H   0  0  0  0  0  0  0  0  0  0  0  0
   -6.7345   12.3122   -6.9047 H   0  0  0  0  0  0  0  0  0  0  0  0
   -2.4573   11.9965   -7.0517 H   0  0  0  0  0  0  0  0  0  0  0  0
   -2.6569    9.7457   -8.0538 H   0  0  0  0  0  0  0  0  0  0  0  0
   -4.8589    8.8150   -7.4951 H   0  0  0  0  0  0  0  0  0  0  0  0
   -4.8535    9.5494   -9.1344 H   0  0  0  0  0  0  0  0  0  0  0  0
   -3.3931   13.9367   -6.1862 H   0  0  0  0  0  0  0  0  0  0  0  0
   -4.9432   14.4192   -6.9548 H   0  0  0  0  0  0  0  0  0  0  0  0
   -4.9436   13.6877   -5.3142 H   0  0  0  0  0  0  0  0  0  0  0  0
  1  2  2  0  0  0  0
  1  4  1  0  0  0  0
  1 13  1  0  0  0  0
  2  6  1  0  0  0  0
  3  4  2  0  0  0  0
  3  5  1  0  0  0  0
  5  6  2  0  0  0  0
  5  9  1  0  0  0  0
  6  7  1  0  0  0  0
  7  8  2  0  0  0  0
  7 10  1  0  0  0  0
  8  9  1  0  0  0  0
 10 15  2  3  0  0  0
 11 12  1  0  0  0  0
 11 13  2  0  0  0  0
 13 14  1  0  0  0  0
 15 16  1  0  0  0  0
 15 20  1  0  0  0  0
 16 17  2  0  0  0  0
 17 18  1  0  0  0  0
 17 21  1  0  0  0  0
 18 19  2  0  0  0  0
 19 20  1  0  0  0  0
  2 22  1  0  0  0  0
  3 23  1  0  0  0  0
  4 24  1  0  0  0  0
  9 25  1  0  0  0  0
 10 26  1  0  0  0  0
 12 27  1  0  0  0  0
 12 28  1  0  0  0  0
 12 29  1  0  0  0  0
 14 30  1  0  0  0  0
 16 31  1  0  0  0  0
 18 32  1  0  0  0  0
 19 33  1  0  0  0  0
 20 34  1  0  0  0  0
 20 35  1  0  0  0  0
 21 36  1  0  0  0  0
 21 37  1  0  0  0  0
 21 38  1  0  0  0  0
M  END
> <Name>
16

> <IC50[uM]>
0.17

$$$$
16
  -OEChem-05192314333D
 Structure written by MMmdl.
 38 40  0     0  0  0  0  0  0999 V2000
   -6.3886   12.3706  -12.0044 C   0  0  0  0  0  0  0  0  0  0  0  0
   -6.5217   11.8105  -10.7338 C   0  0  0  0  0  0  0  0  0  0  0  0
   -7.7267   10.5778  -13.0331 C   0  0  0  0  0  0  0  0  0  0  0  0
   -6.9997   11.7772  -13.1264 C   0  0  0  0  0  0  0  0  0  0  0  0
   -7.8245   10.0105  -11.7588 C   0  0  0  0  0  0  0  0  0  0  0  0
   -7.2447   10.6240  -10.5997 C   0  0  0  0  0  0  0  0  0  0  0  0
   -7.6157    9.7479   -9.5130 C   0  0  0  0  0  0  0  0  0  0  0  0
   -8.2818    8.7335   -9.9900 N   0  0  0  0  0  0  0  0  0  0  0  0
   -8.4155    8.8614  -11.3010 N   0  0  0  0  0  0  0  0  0  0  0  0
   -7.3377    9.8874   -8.0251 C   0  0  0  0  0  0  0  0  0  0  0  0
   -4.4115   13.6449  -11.4457 N   0  0  0  0  0  0  0  0  0  0  0  0
   -3.4644   14.7678  -11.5034 C   0  0  0  0  0  0  0  0  0  0  0  0
   -5.5490   13.6243  -12.1808 C   0  0  0  0  0  0  0  0  0  0  0  0
   -5.8784   14.5204  -12.9613 O   0  0  0  0  0  0  0  0  0  0  0  0
   -5.9596   10.4818   -7.7362 C   0  0  0  0  0  0  0  0  0  0  0  0
   -5.8460   11.7538   -7.1602 C   0  0  0  0  0  0  0  0  0  0  0  0
   -4.5819   12.3007   -6.9160 C   0  0  0  0  0  0  0  0  0  0  0  0
   -3.4335   11.5746   -7.2403 C   0  0  0  0  0  0  0  0  0  0  0  0
   -3.5461   10.3067   -7.8068 C   0  0  0  0  0  0  0  0  0  0  0  0
   -4.8068    9.7600   -8.0558 C   0  0  0  0  0  0  0  0  0  0  0  0
   -4.4568   13.6807   -6.3006 C   0  0  0  0  0  0  0  0  0  0  0  0
   -6.0750   12.2846   -9.8724 H   0  0  0  0  0  0  0  0  0  0  0  0
   -8.1843   10.1199  -13.8976 H   0  0  0  0  0  0  0  0  0  0  0  0
   -6.9067   12.2589  -14.0885 H   0  0  0  0  0  0  0  0  0  0  0  0
   -8.6382    7.9731   -9.4471 H   0  0  0  0  0  0  0  0  0  0  0  0
   -8.0380    9.5979   -7.2556 H   0  0  0  0  0  0  0  0  0  0  0  0
   -2.6189   14.5701  -10.8280 H   0  0  0  0  0  0  0  0  0  0  0  0
   -3.0927   14.8813  -12.5325 H   0  0  0  0  0  0  0  0  0  0  0  0
   -3.9729   15.6925  -11.1931 H   0  0  0  0  0  0  0  0  0  0  0  0
   -5.2336   15.2175  -12.9341 H   0  0  0  0  0  0  0  0  0  0  0  0
   -6.7345   12.3122   -6.9047 H   0  0  0  0  0  0  0  0  0  0  0  0
   -2.8594   12.1890   -7.9494 H   0  0  0  0  0  0  0  0  0  0  0  0
   -2.8596   11.4563   -6.3094 H   0  0  0  0  0  0  0  0  0  0  0  0
   -2.6569    9.7457   -8.0538 H   0  0  0  0  0  0  0  0  0  0  0  0
   -4.8908    8.7775   -8.4962 H   0  0  0  0  0  0  0  0  0  0  0  0
   -3.3931   13.9367   -6.1862 H   0  0  0  0  0  0  0  0  0  0  0  0
   -4.9432   14.4192   -6.9548 H   0  0  0  0  0  0  0  0  0  0  0  0
   -4.9436   13.6877   -5.3142 H   0  0  0  0  0  0  0  0  0  0  0  0
  1  2  2  0  0  0  0
  1  4  1  0  0  0  0
  1 13  1  0  0  0  0
  2  6  1  0  0  0  0
  3  4  2  0  0  0  0
  3  5  1  0  0  0  0
  5  6  1  0  0  0  0
  5  9  2  0  0  0  0
  6  7  2  0  0  0  0
  7  8  1  0  0  0  0
  7 10  1  0  0  0  0
  8  9  1  0  0  0  0
 10 15  2  3  0  0  0
 11 12  1  0  0  0  0
 11 13  2  0  0  0  0
 13 14  1  0  0  0  0
 15 16  1  0  0  0  0
 15 20  1  0  0  0  0
 16 17  2  0  0  0  0
 17 18  1  0  0  0  0
 17 21  1  0  0  0  0
 18 19  1  0  0  0  0
 19 20  2  0  0  0  0
  2 22  1  0  0  0  0
  3 23  1  0  0  0  0
  4 24  1  0  0  0  0
  8 25  1  0  0  0  0
 10 26  1  0  0  0  0
 12 27  1  0  0  0  0
 12 28  1  0  0  0  0
 12 29  1  0  0  0  0
 14 30  1  0  0  0  0
 16 31  1  0  0  0  0
 18 32  1  0  0  0  0
 18 33  1  0  0  0  0
 19 34  1  0  0  0  0
 20 35  1  0  0  0  0
 21 36  1  0  0  0  0
 21 37  1  0  0  0  0
 21 38  1  0  0  0  0
M  END
> <Name>
16

> <IC50[uM]>
0.17

$$$$
16
  -OEChem-05192314333D
 Structure written by MMmdl.
 38 40  0     0  0  0  0  0  0999 V2000
   -6.3886   12.3706  -12.0044 C   0  0  0  0  0  0  0  0  0  0  0  0
   -6.5217   11.8105  -10.7338 C   0  0  0  0  0  0  0  0  0  0  0  0
   -7.7267   10.5778  -13.0331 C   0  0  0  0  0  0  0  0  0  0  0  0
   -6.9997   11.7772  -13.1264 C   0  0  0  0  0  0  0  0  0  0  0  0
   -7.8245   10.0105  -11.7588 C   0  0  0  0  0  0  0  0  0  0  0  0
   -7.2447   10.6240  -10.5997 C   0  0  0  0  0  0  0  0  0  0  0  0
   -7.6157    9.7479   -9.5130 C   0  0  0  0  0  0  0  0  0  0  0  0
   -8.2818    8.7335   -9.9900 N   0  0  0  0  0  0  0  0  0  0  0  0
   -8.4155    8.8614  -11.3010 N   0  0  0  0  0  0  0  0  0  0  0  0
   -7.3377    9.8874   -8.0251 C   0  0  0  0  0  0  0  0  0  0  0  0
   -4.4115   13.6449  -11.4457 N   0  0  0  0  0  0  0  0  0  0  0  0
   -3.4644   14.7678  -11.5034 C   0  0  0  0  0  0  0  0  0  0  0  0
   -5.5490   13.6243  -12.1808 C   0  0  0  0  0  0  0  0  0  0  0  0
   -5.8784   14.5204  -12.9613 O   0  0  0  0  0  0  0  0  0  0  0  0
   -5.9596   10.4818   -7.7362 C   0  0  0  0  0  0  0  0  0  0  0  0
   -5.8460   11.7538   -7.1602 C   0  0  0  0  0  0  0  0  0  0  0  0
   -4.5819   12.3007   -6.9160 C   0  0  0  0  0  0  0  0  0  0  0  0
   -3.4335   11.5746   -7.2403 C   0  0  0  0  0  0  0  0  0  0  0  0
   -3.5461   10.3067   -7.8068 C   0  0  0  0  0  0  0  0  0  0  0  0
   -4.8068    9.7600   -8.0558 C   0  0  0  0  0  0  0  0  0  0  0  0
   -4.4568   13.6807   -6.3006 C   0  0  0  0  0  0  0  0  0  0  0  0
   -6.0750   12.2846   -9.8724 H   0  0  0  0  0  0  0  0  0  0  0  0
   -8.1843   10.1199  -13.8976 H   0  0  0  0  0  0  0  0  0  0  0  0
   -6.9067   12.2589  -14.0885 H   0  0  0  0  0  0  0  0  0  0  0  0
   -8.8888    8.2017  -11.8847 H   0  0  0  0  0  0  0  0  0  0  0  0
   -8.0380    9.5979   -7.2556 H   0  0  0  0  0  0  0  0  0  0  0  0
   -2.6189   14.5701  -10.8280 H   0  0  0  0  0  0  0  0  0  0  0  0
   -3.0927   14.8813  -12.5325 H   0  0  0  0  0  0  0  0  0  0  0  0
   -3.9729   15.6925  -11.1931 H   0  0  0  0  0  0  0  0  0  0  0  0
   -5.2336   15.2175  -12.9341 H   0  0  0  0  0  0  0  0  0  0  0  0
   -6.7345   12.3122   -6.9047 H   0  0  0  0  0  0  0  0  0  0  0  0
   -2.8594   12.1890   -7.9494 H   0  0  0  0  0  0  0  0  0  0  0  0
   -2.8596   11.4563   -6.3094 H   0  0  0  0  0  0  0  0  0  0  0  0
   -2.6569    9.7457   -8.0538 H   0  0  0  0  0  0  0  0  0  0  0  0
   -4.8908    8.7775   -8.4962 H   0  0  0  0  0  0  0  0  0  0  0  0
   -3.3931   13.9367   -6.1862 H   0  0  0  0  0  0  0  0  0  0  0  0
   -4.9432   14.4192   -6.9548 H   0  0  0  0  0  0  0  0  0  0  0  0
   -4.9436   13.6877   -5.3142 H   0  0  0  0  0  0  0  0  0  0  0  0
  1  2  2  0  0  0  0
  1  4  1  0  0  0  0
  1 13  1  0  0  0  0
  2  6  1  0  0  0  0
  3  4  2  0  0  0  0
  3  5  1  0  0  0  0
  5  6  2  0  0  0  0
  5  9  1  0  0  0  0
  6  7  1  0  0  0  0
  7  8  2  0  0  0  0
  7 10  1  0  0  0  0
  8  9  1  0  0  0  0
 10 15  2  3  0  0  0
 11 12  1  0  0  0  0
 11 13  2  0  0  0  0
 13 14  1  0  0  0  0
 15 16  1  0  0  0  0
 15 20  1  0  0  0  0
 16 17  2  0  0  0  0
 17 18  1  0  0  0  0
 17 21  1  0  0  0  0
 18 19  1  0  0  0  0
 19 20  2  0  0  0  0
  2 22  1  0  0  0  0
  3 23  1  0  0  0  0
  4 24  1  0  0  0  0
  9 25  1  0  0  0  0
 10 26  1  0  0  0  0
 12 27  1  0  0  0  0
 12 28  1  0  0  0  0
 12 29  1  0  0  0  0
 14 30  1  0  0  0  0
 16 31  1  0  0  0  0
 18 32  1  0  0  0  0
 18 33  1  0  0  0  0
 19 34  1  0  0  0  0
 20 35  1  0  0  0  0
 21 36  1  0  0  0  0
 21 37  1  0  0  0  0
 21 38  1  0  0  0  0
M  END
> <Name>
16

> <IC50[uM]>
0.17

$$$$
16
  -OEChem-05192314333D
 Structure written by MMmdl.
 38 40  0     0  0  0  0  0  0999 V2000
   -6.3886   12.3706  -12.0044 C   0  0  0  0  0  0  0  0  0  0  0  0
   -6.5217   11.8105  -10.7338 C   0  0  0  0  0  0  0  0  0  0  0  0
   -7.7267   10.5778  -13.0331 C   0  0  0  0  0  0  0  0  0  0  0  0
   -6.9997   11.7772  -13.1264 C   0  0  0  0  0  0  0  0  0  0  0  0
   -7.8245   10.0105  -11.7588 C   0  0  0  0  0  0  0  0  0  0  0  0
   -7.2447   10.6240  -10.5997 C   0  0  0  0  0  0  0  0  0  0  0  0
   -7.6157    9.7479   -9.5130 C   0  0  0  0  0  0  0  0  0  0  0  0
   -8.2818    8.7335   -9.9900 N   0  0  0  0  0  0  0  0  0  0  0  0
   -8.4155    8.8614  -11.3010 N   0  0  0  0  0  0  0  0  0  0  0  0
   -7.3377    9.8874   -8.0251 C   0  0  0  0  0  0  0  0  0  0  0  0
   -4.4115   13.6449  -11.4457 N   0  0  0  0  0  0  0  0  0  0  0  0
   -3.4644   14.7678  -11.5034 C   0  0  0  0  0  0  0  0  0  0  0  0
   -5.5490   13.6243  -12.1808 C   0  0  0  0  0  0  0  0  0  0  0  0
   -5.8784   14.5204  -12.9613 O   0  0  0  0  0  0  0  0  0  0  0  0
   -5.9596   10.4818   -7.7362 C   0  0  0  0  0  0  0  0  0  0  0  0
   -5.8460   11.7538   -7.1602 C   0  0  0  0  0  0  0  0  0  0  0  0
   -4.5819   12.3007   -6.9160 C   0  0  0  0  0  0  0  0  0  0  0  0
   -3.4335   11.5746   -7.2403 C   0  0  0  0  0  0  0  0  0  0  0  0
   -3.5461   10.3067   -7.8068 C   0  0  0  0  0  0  0  0  0  0  0  0
   -4.8068    9.7600   -8.0558 C   0  0  0  0  0  0  0  0  0  0  0  0
   -4.4568   13.6807   -6.3006 C   0  0  0  0  0  0  0  0  0  0  0  0
   -6.0750   12.2846   -9.8724 H   0  0  0  0  0  0  0  0  0  0  0  0
   -8.1843   10.1199  -13.8976 H   0  0  0  0  0  0  0  0  0  0  0  0
   -6.9067   12.2589  -14.0885 H   0  0  0  0  0  0  0  0  0  0  0  0
   -8.6382    7.9731   -9.4471 H   0  0  0  0  0  0  0  0  0  0  0  0
   -8.0380    9.5979   -7.2556 H   0  0  0  0  0  0  0  0  0  0  0  0
   -2.6189   14.5701  -10.8280 H   0  0  0  0  0  0  0  0  0  0  0  0
   -3.0927   14.8813  -12.5325 H   0  0  0  0  0  0  0  0  0  0  0  0
   -3.9729   15.6925  -11.1931 H   0  0  0  0  0  0  0  0  0  0  0  0
   -5.2336   15.2175  -12.9341 H   0  0  0  0  0  0  0  0  0  0  0  0
   -6.3708   12.4528   -7.8280 H   0  0  0  0  0  0  0  0  0  0  0  0
   -6.3661   11.7115   -6.1919 H   0  0  0  0  0  0  0  0  0  0  0  0
   -2.4573   11.9965   -7.0517 H   0  0  0  0  0  0  0  0  0  0  0  0
   -2.6569    9.7457   -8.0538 H   0  0  0  0  0  0  0  0  0  0  0  0
   -4.8908    8.7775   -8.4962 H   0  0  0  0  0  0  0  0  0  0  0  0
   -3.3931   13.9367   -6.1862 H   0  0  0  0  0  0  0  0  0  0  0  0
   -4.9432   14.4192   -6.9548 H   0  0  0  0  0  0  0  0  0  0  0  0
   -4.9436   13.6877   -5.3142 H   0  0  0  0  0  0  0  0  0  0  0  0
  1  2  2  0  0  0  0
  1  4  1  0  0  0  0
  1 13  1  0  0  0  0
  2  6  1  0  0  0  0
  3  4  2  0  0  0  0
  3  5  1  0  0  0  0
  5  6  1  0  0  0  0
  5  9  2  0  0  0  0
  6  7  2  0  0  0  0
  7  8  1  0  0  0  0
  7 10  1  0  0  0  0
  8  9  1  0  0  0  0
 10 15  2  3  0  0  0
 11 12  1  0  0  0  0
 11 13  2  0  0  0  0
 13 14  1  0  0  0  0
 15 16  1  0  0  0  0
 15 20  1  0  0  0  0
 16 17  1  0  0  0  0
 17 18  2  0  0  0  0
 17 21  1  0  0  0  0
 18 19  1  0  0  0  0
 19 20  2  0  0  0  0
  2 22  1  0  0  0  0
  3 23  1  0  0  0  0
  4 24  1  0  0  0  0
  8 25  1  0  0  0  0
 10 26  1  0  0  0  0
 12 27  1  0  0  0  0
 12 28  1  0  0  0  0
 12 29  1  0  0  0  0
 14 30  1  0  0  0  0
 16 31  1  0  0  0  0
 16 32  1  0  0  0  0
 18 33  1  0  0  0  0
 19 34  1  0  0  0  0
 20 35  1  0  0  0  0
 21 36  1  0  0  0  0
 21 37  1  0  0  0  0
 21 38  1  0  0  0  0
M  END
> <Name>
16

> <IC50[uM]>
0.17

$$$$
16
  -OEChem-05192314333D
 Structure written by MMmdl.
 38 40  0     0  0  0  0  0  0999 V2000
   -6.3886   12.3706  -12.0044 C   0  0  0  0  0  0  0  0  0  0  0  0
   -6.5217   11.8105  -10.7338 C   0  0  0  0  0  0  0  0  0  0  0  0
   -7.7267   10.5778  -13.0331 C   0  0  0  0  0  0  0  0  0  0  0  0
   -6.9997   11.7772  -13.1264 C   0  0  0  0  0  0  0  0  0  0  0  0
   -7.8245   10.0105  -11.7588 C   0  0  0  0  0  0  0  0  0  0  0  0
   -7.2447   10.6240  -10.5997 C   0  0  0  0  0  0  0  0  0  0  0  0
   -7.6157    9.7479   -9.5130 C   0  0  0  0  0  0  0  0  0  0  0  0
   -8.2818    8.7335   -9.9900 N   0  0  0  0  0  0  0  0  0  0  0  0
   -8.4155    8.8614  -11.3010 N   0  0  0  0  0  0  0  0  0  0  0  0
   -7.3377    9.8874   -8.0251 C   0  0  0  0  0  0  0  0  0  0  0  0
   -4.4115   13.6449  -11.4457 N   0  0  0  0  0  0  0  0  0  0  0  0
   -3.4644   14.7678  -11.5034 C   0  0  0  0  0  0  0  0  0  0  0  0
   -5.5490   13.6243  -12.1808 C   0  0  0  0  0  0  0  0  0  0  0  0
   -5.8784   14.5204  -12.9613 O   0  0  0  0  0  0  0  0  0  0  0  0
   -5.9596   10.4818   -7.7362 C   0  0  0  0  0  0  0  0  0  0  0  0
   -5.8460   11.7538   -7.1602 C   0  0  0  0  0  0  0  0  0  0  0  0
   -4.5819   12.3007   -6.9160 C   0  0  0  0  0  0  0  0  0  0  0  0
   -3.4335   11.5746   -7.2403 C   0  0  0  0  0  0  0  0  0  0  0  0
   -3.5461   10.3067   -7.8068 C   0  0  0  0  0  0  0  0  0  0  0  0
   -4.8068    9.7600   -8.0558 C   0  0  0  0  0  0  0  0  0  0  0  0
   -4.4568   13.6807   -6.3006 C   0  0  0  0  0  0  0  0  0  0  0  0
   -6.0750   12.2846   -9.8724 H   0  0  0  0  0  0  0  0  0  0  0  0
   -8.1843   10.1199  -13.8976 H   0  0  0  0  0  0  0  0  0  0  0  0
   -6.9067   12.2589  -14.0885 H   0  0  0  0  0  0  0  0  0  0  0  0
   -8.8888    8.2017  -11.8847 H   0  0  0  0  0  0  0  0  0  0  0  0
   -8.0380    9.5979   -7.2556 H   0  0  0  0  0  0  0  0  0  0  0  0
   -2.6189   14.5701  -10.8280 H   0  0  0  0  0  0  0  0  0  0  0  0
   -3.0927   14.8813  -12.5325 H   0  0  0  0  0  0  0  0  0  0  0  0
   -3.9729   15.6925  -11.1931 H   0  0  0  0  0  0  0  0  0  0  0  0
   -5.2336   15.2175  -12.9341 H   0  0  0  0  0  0  0  0  0  0  0  0
   -6.3708   12.4528   -7.8280 H   0  0  0  0  0  0  0  0  0  0  0  0
   -6.3661   11.7115   -6.1919 H   0  0  0  0  0  0  0  0  0  0  0  0
   -2.4573   11.9965   -7.0517 H   0  0  0  0  0  0  0  0  0  0  0  0
   -2.6569    9.7457   -8.0538 H   0  0  0  0  0  0  0  0  0  0  0  0
   -4.8908    8.7775   -8.4962 H   0  0  0  0  0  0  0  0  0  0  0  0
   -3.3931   13.9367   -6.1862 H   0  0  0  0  0  0  0  0  0  0  0  0
   -4.9432   14.4192   -6.9548 H   0  0  0  0  0  0  0  0  0  0  0  0
   -4.9436   13.6877   -5.3142 H   0  0  0  0  0  0  0  0  0  0  0  0
  1  2  2  0  0  0  0
  1  4  1  0  0  0  0
  1 13  1  0  0  0  0
  2  6  1  0  0  0  0
  3  4  2  0  0  0  0
  3  5  1  0  0  0  0
  5  6  2  0  0  0  0
  5  9  1  0  0  0  0
  6  7  1  0  0  0  0
  7  8  2  0  0  0  0
  7 10  1  0  0  0  0
  8  9  1  0  0  0  0
 10 15  2  3  0  0  0
 11 12  1  0  0  0  0
 11 13  2  0  0  0  0
 13 14  1  0  0  0  0
 15 16  1  0  0  0  0
 15 20  1  0  0  0  0
 16 17  1  0  0  0  0
 17 18  2  0  0  0  0
 17 21  1  0  0  0  0
 18 19  1  0  0  0  0
 19 20  2  0  0  0  0
  2 22  1  0  0  0  0
  3 23  1  0  0  0  0
  4 24  1  0  0  0  0
  9 25  1  0  0  0  0
 10 26  1  0  0  0  0
 12 27  1  0  0  0  0
 12 28  1  0  0  0  0
 12 29  1  0  0  0  0
 14 30  1  0  0  0  0
 16 31  1  0  0  0  0
 16 32  1  0  0  0  0
 18 33  1  0  0  0  0
 19 34  1  0  0  0  0
 20 35  1  0  0  0  0
 21 36  1  0  0  0  0
 21 37  1  0  0  0  0
 21 38  1  0  0  0  0
M  END
> <Name>
16

> <IC50[uM]>
0.17

$$$$
16
  -OEChem-05192314333D
 Structure written by MMmdl.
 38 40  0     1  0  0  0  0  0999 V2000
   -6.3886   12.3706  -12.0044 C   0  0  3  0  0  0  0  0  0  0  0  0
   -6.5217   11.8105  -10.7338 C   0  0  0  0  0  0  0  0  0  0  0  0
   -7.7267   10.5778  -13.0331 C   0  0  0  0  0  0  0  0  0  0  0  0
   -6.9997   11.7772  -13.1264 C   0  0  0  0  0  0  0  0  0  0  0  0
   -7.8245   10.0105  -11.7588 C   0  0  0  0  0  0  0  0  0  0  0  0
   -7.2447   10.6240  -10.5997 C   0  0  0  0  0  0  0  0  0  0  0  0
   -7.6157    9.7479   -9.5130 C   0  0  0  0  0  0  0  0  0  0  0  0
   -8.2818    8.7335   -9.9900 N   0  0  0  0  0  0  0  0  0  0  0  0
   -8.4155    8.8614  -11.3010 N   0  0  0  0  0  0  0  0  0  0  0  0
   -7.3377    9.8874   -8.0251 C   0  0  0  0  0  0  0  0  0  0  0  0
   -4.4115   13.6449  -11.4457 N   0  0  0  0  0  0  0  0  0  0  0  0
   -3.4644   14.7678  -11.5034 C   0  0  0  0  0  0  0  0  0  0  0  0
   -5.5490   13.6243  -12.1808 C   0  0  0  0  0  0  0  0  0  0  0  0
   -5.8784   14.5204  -12.9613 O   0  0  0  0  0  0  0  0  0  0  0  0
   -5.9596   10.4818   -7.7362 C   0  0  0  0  0  0  0  0  0  0  0  0
   -5.8460   11.7538   -7.1602 C   0  0  0  0  0  0  0  0  0  0  0  0
   -4.5819   12.3007   -6.9160 C   0  0  0  0  0  0  0  0  0  0  0  0
   -3.4335   11.5746   -7.2403 C   0  0  0  0  0  0  0  0  0  0  0  0
   -3.5461   10.3067   -7.8068 C   0  0  0  0  0  0  0  0  0  0  0  0
   -4.8068    9.7600   -8.0558 C   0  0  0  0  0  0  0  0  0  0  0  0
   -4.4568   13.6807   -6.3006 C   0  0  0  0  0  0  0  0  0  0  0  0
   -7.2839   12.9866  -11.8341 H   0  0  0  0  0  0  0  0  0  0  0  0
   -6.0750   12.2846   -9.8724 H   0  0  0  0  0  0  0  0  0  0  0  0
   -8.1843   10.1199  -13.8976 H   0  0  0  0  0  0  0  0  0  0  0  0
   -6.9067   12.2589  -14.0885 H   0  0  0  0  0  0  0  0  0  0  0  0
   -8.1032   10.5427   -7.5839 H   0  0  0  0  0  0  0  0  0  0  0  0
   -7.3958    8.8917   -7.5613 H   0  0  0  0  0  0  0  0  0  0  0  0
   -4.2095   12.8717  -10.8446 H   0  0  0  0  0  0  0  0  0  0  0  0
   -2.6189   14.5701  -10.8280 H   0  0  0  0  0  0  0  0  0  0  0  0
   -3.0927   14.8813  -12.5325 H   0  0  0  0  0  0  0  0  0  0  0  0
   -3.9729   15.6925  -11.1931 H   0  0  0  0  0  0  0  0  0  0  0  0
   -6.7345   12.3122   -6.9047 H   0  0  0  0  0  0  0  0  0  0  0  0
   -2.4573   11.9965   -7.0517 H   0  0  0  0  0  0  0  0  0  0  0  0
   -2.6569    9.7457   -8.0538 H   0  0  0  0  0  0  0  0  0  0  0  0
   -4.8908    8.7775   -8.4962 H   0  0  0  0  0  0  0  0  0  0  0  0
   -4.4264   13.5926   -5.2046 H   0  0  0  0  0  0  0  0  0  0  0  0
   -3.5315   14.1579   -6.6557 H   0  0  0  0  0  0  0  0  0  0  0  0
   -5.3217   14.2932   -6.5953 H   0  0  0  0  0  0  0  0  0  0  0  0
  1  2  1  0  0  0  0
  1  4  1  0  0  0  0
  1 13  1  0  0  0  0
  2  6  2  0  0  0  0
  3  4  2  0  0  0  0
  3  5  1  0  0  0  0
  5  6  1  0  0  0  0
  5  9  2  0  0  0  0
  6  7  1  0  0  0  0
  7  8  2  0  0  0  0
  7 10  1  0  0  0  0
  8  9  1  0  0  0  0
 10 15  1  0  0  0  0
 11 12  1  0  0  0  0
 11 13  1  0  0  0  0
 13 14  2  0  0  0  0
 15 16  2  0  0  0  0
 15 20  1  0  0  0  0
 16 17  1  0  0  0  0
 17 18  2  0  0  0  0
 17 21  1  0  0  0  0
 18 19  1  0  0  0  0
 19 20  2  0  0  0  0
  1 22  1  0  0  0  0
  2 23  1  0  0  0  0
  3 24  1  0  0  0  0
  4 25  1  0  0  0  0
 10 26  1  0  0  0  0
 10 27  1  0  0  0  0
 11 28  1  0  0  0  0
 12 29  1  0  0  0  0
 12 30  1  0  0  0  0
 12 31  1  0  0  0  0
 16 32  1  0  0  0  0
 18 33  1  0  0  0  0
 19 34  1  0  0  0  0
 20 35  1  0  0  0  0
 21 36  1  0  0  0  0
 21 37  1  0  0  0  0
 21 38  1  0  0  0  0
M  END
> <Name>
16

> <IC50[uM]>
0.17

$$$$
16
  -OEChem-05192314333D
 Structure written by MMmdl.
 38 40  0     1  0  0  0  0  0999 V2000
   -6.3886   12.3706  -12.0044 C   0  0  0  0  0  0  0  0  0  0  0  0
   -6.5217   11.8105  -10.7338 C   0  0  0  0  0  0  0  0  0  0  0  0
   -7.7267   10.5778  -13.0331 C   0  0  0  0  0  0  0  0  0  0  0  0
   -6.9997   11.7772  -13.1264 C   0  0  0  0  0  0  0  0  0  0  0  0
   -7.8245   10.0105  -11.7588 C   0  0  0  0  0  0  0  0  0  0  0  0
   -7.2447   10.6240  -10.5997 C   0  0  3  0  0  0  0  0  0  0  0  0
   -7.6157    9.7479   -9.5130 C   0  0  0  0  0  0  0  0  0  0  0  0
   -8.2818    8.7335   -9.9900 N   0  0  0  0  0  0  0  0  0  0  0  0
   -8.4155    8.8614  -11.3010 N   0  0  0  0  0  0  0  0  0  0  0  0
   -7.3377    9.8874   -8.0251 C   0  0  0  0  0  0  0  0  0  0  0  0
   -4.4115   13.6449  -11.4457 N   0  0  0  0  0  0  0  0  0  0  0  0
   -3.4644   14.7678  -11.5034 C   0  0  0  0  0  0  0  0  0  0  0  0
   -5.5490   13.6243  -12.1808 C   0  0  0  0  0  0  0  0  0  0  0  0
   -5.8784   14.5204  -12.9613 O   0  0  0  0  0  0  0  0  0  0  0  0
   -5.9596   10.4818   -7.7362 C   0  0  0  0  0  0  0  0  0  0  0  0
   -5.8460   11.7538   -7.1602 C   0  0  0  0  0  0  0  0  0  0  0  0
   -4.5819   12.3007   -6.9160 C   0  0  0  0  0  0  0  0  0  0  0  0
   -3.4335   11.5746   -7.2403 C   0  0  0  0  0  0  0  0  0  0  0  0
   -3.5461   10.3067   -7.8068 C   0  0  0  0  0  0  0  0  0  0  0  0
   -4.8068    9.7600   -8.0558 C   0  0  0  0  0  0  0  0  0  0  0  0
   -4.4568   13.6807   -6.3006 C   0  0  0  0  0  0  0  0  0  0  0  0
   -6.0750   12.2846   -9.8724 H   0  0  0  0  0  0  0  0  0  0  0  0
   -8.1843   10.1199  -13.8976 H   0  0  0  0  0  0  0  0  0  0  0  0
   -6.9067   12.2589  -14.0885 H   0  0  0  0  0  0  0  0  0  0  0  0
   -6.3227   10.0441  -10.7532 H   0  0  0  0  0  0  0  0  0  0  0  0
   -8.1032   10.5427   -7.5839 H   0  0  0  0  0  0  0  0  0  0  0  0
   -7.3958    8.8917   -7.5613 H   0  0  0  0  0  0  0  0  0  0  0  0
   -4.2095   12.8717  -10.8446 H   0  0  0  0  0  0  0  0  0  0  0  0
   -2.6189   14.5701  -10.8280 H   0  0  0  0  0  0  0  0  0  0  0  0
   -3.0927   14.8813  -12.5325 H   0  0  0  0  0  0  0  0  0  0  0  0
   -3.9729   15.6925  -11.1931 H   0  0  0  0  0  0  0  0  0  0  0  0
   -6.7345   12.3122   -6.9047 H   0  0  0  0  0  0  0  0  0  0  0  0
   -2.4573   11.9965   -7.0517 H   0  0  0  0  0  0  0  0  0  0  0  0
   -2.6569    9.7457   -8.0538 H   0  0  0  0  0  0  0  0  0  0  0  0
   -4.8908    8.7775   -8.4962 H   0  0  0  0  0  0  0  0  0  0  0  0
   -4.4264   13.5926   -5.2046 H   0  0  0  0  0  0  0  0  0  0  0  0
   -3.5315   14.1579   -6.6557 H   0  0  0  0  0  0  0  0  0  0  0  0
   -5.3217   14.2932   -6.5953 H   0  0  0  0  0  0  0  0  0  0  0  0
  1  2  2  0  0  0  0
  1  4  1  0  0  0  0
  1 13  1  0  0  0  0
  2  6  1  0  0  0  0
  3  4  2  0  0  0  0
  3  5  1  0  0  0  0
  5  6  1  0  0  0  0
  5  9  2  0  0  0  0
  6  7  1  0  0  0  0
  7  8  2  0  0  0  0
  7 10  1  0  0  0  0
  8  9  1  0  0  0  0
 10 15  1  0  0  0  0
 11 12  1  0  0  0  0
 11 13  1  0  0  0  0
 13 14  2  0  0  0  0
 15 16  2  0  0  0  0
 15 20  1  0  0  0  0
 16 17  1  0  0  0  0
 17 18  2  0  0  0  0
 17 21  1  0  0  0  0
 18 19  1  0  0  0  0
 19 20  2  0  0  0  0
  2 22  1  0  0  0  0
  3 23  1  0  0  0  0
  4 24  1  0  0  0  0
  6 25  1  0  0  0  0
 10 26  1  0  0  0  0
 10 27  1  0  0  0  0
 11 28  1  0  0  0  0
 12 29  1  0  0  0  0
 12 30  1  0  0  0  0
 12 31  1  0  0  0  0
 16 32  1  0  0  0  0
 18 33  1  0  0  0  0
 19 34  1  0  0  0  0
 20 35  1  0  0  0  0
 21 36  1  0  0  0  0
 21 37  1  0  0  0  0
 21 38  1  0  0  0  0
M  END
> <Name>
16

> <IC50[uM]>
0.17

$$$$
16
  -OEChem-05192314333D
 Structure written by MMmdl.
 38 40  0     0  0  0  0  0  0999 V2000
   -6.3886   12.3706  -12.0044 C   0  0  0  0  0  0  0  0  0  0  0  0
   -6.5217   11.8105  -10.7338 C   0  0  0  0  0  0  0  0  0  0  0  0
   -7.7267   10.5778  -13.0331 C   0  0  0  0  0  0  0  0  0  0  0  0
   -6.9997   11.7772  -13.1264 C   0  0  0  0  0  0  0  0  0  0  0  0
   -7.8245   10.0105  -11.7588 C   0  0  0  0  0  0  0  0  0  0  0  0
   -7.2447   10.6240  -10.5997 C   0  0  0  0  0  0  0  0  0  0  0  0
   -7.6157    9.7479   -9.5130 C   0  0  0  0  0  0  0  0  0  0  0  0
   -8.2818    8.7335   -9.9900 N   0  0  0  0  0  0  0  0  0  0  0  0
   -8.4155    8.8614  -11.3010 N   0  0  0  0  0  0  0  0  0  0  0  0
   -7.3377    9.8874   -8.0251 C   0  0  0  0  0  0  0  0  0  0  0  0
   -4.4115   13.6449  -11.4457 N   0  0  0  0  0  0  0  0  0  0  0  0
   -3.4644   14.7678  -11.5034 C   0  0  0  0  0  0  0  0  0  0  0  0
   -5.5490   13.6243  -12.1808 C   0  0  0  0  0  0  0  0  0  0  0  0
   -5.8784   14.5204  -12.9613 O   0  0  0  0  0  0  0  0  0  0  0  0
   -5.9596   10.4818   -7.7362 C   0  0  0  0  0  0  0  0  0  0  0  0
   -5.8460   11.7538   -7.1602 C   0  0  0  0  0  0  0  0  0  0  0  0
   -4.5819   12.3007   -6.9160 C   0  0  0  0  0  0  0  0  0  0  0  0
   -3.4335   11.5746   -7.2403 C   0  0  0  0  0  0  0  0  0  0  0  0
   -3.5461   10.3067   -7.8068 C   0  0  0  0  0  0  0  0  0  0  0  0
   -4.8068    9.7600   -8.0558 C   0  0  0  0  0  0  0  0  0  0  0  0
   -4.4568   13.6807   -6.3006 C   0  0  0  0  0  0  0  0  0  0  0  0
   -6.0750   12.2846   -9.8724 H   0  0  0  0  0  0  0  0  0  0  0  0
   -8.7478   10.7760  -13.3910 H   0  0  0  0  0  0  0  0  0  0  0  0
   -7.2438    9.8410  -13.6919 H   0  0  0  0  0  0  0  0  0  0  0  0
   -6.9067   12.2589  -14.0885 H   0  0  0  0  0  0  0  0  0  0  0  0
   -8.1032   10.5427   -7.5839 H   0  0  0  0  0  0  0  0  0  0  0  0
   -7.3958    8.8917   -7.5613 H   0  0  0  0  0  0  0  0  0  0  0  0
   -4.2095   12.8717  -10.8446 H   0  0  0  0  0  0  0  0  0  0  0  0
   -2.6189   14.5701  -10.8280 H   0  0  0  0  0  0  0  0  0  0  0  0
   -3.0927   14.8813  -12.5325 H   0  0  0  0  0  0  0  0  0  0  0  0
   -3.9729   15.6925  -11.1931 H   0  0  0  0  0  0  0  0  0  0  0  0
   -6.7345   12.3122   -6.9047 H   0  0  0  0  0  0  0  0  0  0  0  0
   -2.4573   11.9965   -7.0517 H   0  0  0  0  0  0  0  0  0  0  0  0
   -2.6569    9.7457   -8.0538 H   0  0  0  0  0  0  0  0  0  0  0  0
   -4.8908    8.7775   -8.4962 H   0  0  0  0  0  0  0  0  0  0  0  0
   -4.4264   13.5926   -5.2046 H   0  0  0  0  0  0  0  0  0  0  0  0
   -3.5315   14.1579   -6.6557 H   0  0  0  0  0  0  0  0  0  0  0  0
   -5.3217   14.2932   -6.5953 H   0  0  0  0  0  0  0  0  0  0  0  0
  1  2  1  0  0  0  0
  1  4  2  0  0  0  0
  1 13  1  0  0  0  0
  2  6  2  0  0  0  0
  3  4  1  0  0  0  0
  3  5  1  0  0  0  0
  5  6  1  0  0  0  0
  5  9  2  0  0  0  0
  6  7  1  0  0  0  0
  7  8  2  0  0  0  0
  7 10  1  0  0  0  0
  8  9  1  0  0  0  0
 10 15  1  0  0  0  0
 11 12  1  0  0  0  0
 11 13  1  0  0  0  0
 13 14  2  0  0  0  0
 15 16  2  0  0  0  0
 15 20  1  0  0  0  0
 16 17  1  0  0  0  0
 17 18  2  0  0  0  0
 17 21  1  0  0  0  0
 18 19  1  0  0  0  0
 19 20  2  0  0  0  0
  2 22  1  0  0  0  0
  3 23  1  0  0  0  0
  3 24  1  0  0  0  0
  4 25  1  0  0  0  0
 10 26  1  0  0  0  0
 10 27  1  0  0  0  0
 11 28  1  0  0  0  0
 12 29  1  0  0  0  0
 12 30  1  0  0  0  0
 12 31  1  0  0  0  0
 16 32  1  0  0  0  0
 18 33  1  0  0  0  0
 19 34  1  0  0  0  0
 20 35  1  0  0  0  0
 21 36  1  0  0  0  0
 21 37  1  0  0  0  0
 21 38  1  0  0  0  0
M  END
> <Name>
16

> <IC50[uM]>
0.17

$$$$
16
  -OEChem-05192314333D
 Structure written by MMmdl.
 38 40  0     1  0  0  0  0  0999 V2000
   -6.3886   12.3706  -12.0044 C   0  0  3  0  0  0  0  0  0  0  0  0
   -6.5217   11.8105  -10.7338 C   0  0  0  0  0  0  0  0  0  0  0  0
   -7.7267   10.5778  -13.0331 C   0  0  0  0  0  0  0  0  0  0  0  0
   -6.9997   11.7772  -13.1264 C   0  0  0  0  0  0  0  0  0  0  0  0
   -7.8245   10.0105  -11.7588 C   0  0  0  0  0  0  0  0  0  0  0  0
   -7.2447   10.6240  -10.5997 C   0  0  0  0  0  0  0  0  0  0  0  0
   -7.6157    9.7479   -9.5130 C   0  0  0  0  0  0  0  0  0  0  0  0
   -8.2818    8.7335   -9.9900 N   0  0  0  0  0  0  0  0  0  0  0  0
   -8.4155    8.8614  -11.3010 N   0  0  0  0  0  0  0  0  0  0  0  0
   -7.3377    9.8874   -8.0251 C   0  0  0  0  0  0  0  0  0  0  0  0
   -4.4115   13.6449  -11.4457 N   0  0  0  0  0  0  0  0  0  0  0  0
   -3.4644   14.7678  -11.5034 C   0  0  0  0  0  0  0  0  0  0  0  0
   -5.5490   13.6243  -12.1808 C   0  0  0  0  0  0  0  0  0  0  0  0
   -5.8784   14.5204  -12.9613 O   0  0  0  0  0  0  0  0  0  0  0  0
   -5.9596   10.4818   -7.7362 C   0  0  0  0  0  0  0  0  0  0  0  0
   -5.8460   11.7538   -7.1602 C   0  0  0  0  0  0  0  0  0  0  0  0
   -4.5819   12.3007   -6.9160 C   0  0  0  0  0  0  0  0  0  0  0  0
   -3.4335   11.5746   -7.2403 C   0  0  0  0  0  0  0  0  0  0  0  0
   -3.5461   10.3067   -7.8068 C   0  0  0  0  0  0  0  0  0  0  0  0
   -4.8068    9.7600   -8.0558 C   0  0  0  0  0  0  0  0  0  0  0  0
   -4.4568   13.6807   -6.3006 C   0  0  0  0  0  0  0  0  0  0  0  0
   -7.2839   12.9866  -11.8341 H   0  0  0  0  0  0  0  0  0  0  0  0
   -6.0750   12.2846   -9.8724 H   0  0  0  0  0  0  0  0  0  0  0  0
   -8.1843   10.1199  -13.8976 H   0  0  0  0  0  0  0  0  0  0  0  0
   -6.9067   12.2589  -14.0885 H   0  0  0  0  0  0  0  0  0  0  0  0
   -8.1032   10.5427   -7.5839 H   0  0  0  0  0  0  0  0  0  0  0  0
   -7.3958    8.8917   -7.5613 H   0  0  0  0  0  0  0  0  0  0  0  0
   -2.6189   14.5701  -10.8280 H   0  0  0  0  0  0  0  0  0  0  0  0
   -3.0927   14.8813  -12.5325 H   0  0  0  0  0  0  0  0  0  0  0  0
   -3.9729   15.6925  -11.1931 H   0  0  0  0  0  0  0  0  0  0  0  0
   -5.2336   15.2175  -12.9341 H   0  0  0  0  0  0  0  0  0  0  0  0
   -6.7345   12.3122   -6.9047 H   0  0  0  0  0  0  0  0  0  0  0  0
   -2.4573   11.9965   -7.0517 H   0  0  0  0  0  0  0  0  0  0  0  0
   -2.6569    9.7457   -8.0538 H   0  0  0  0  0  0  0  0  0  0  0  0
   -4.8908    8.7775   -8.4962 H   0  0  0  0  0  0  0  0  0  0  0  0
   -4.4264   13.5926   -5.2046 H   0  0  0  0  0  0  0  0  0  0  0  0
   -3.5315   14.1579   -6.6557 H   0  0  0  0  0  0  0  0  0  0  0  0
   -5.3217   14.2932   -6.5953 H   0  0  0  0  0  0  0  0  0  0  0  0
  1  2  1  0  0  0  0
  1  4  1  0  0  0  0
  1 13  1  0  0  0  0
  2  6  2  0  0  0  0
  3  4  2  0  0  0  0
  3  5  1  0  0  0  0
  5  6  1  0  0  0  0
  5  9  2  0  0  0  0
  6  7  1  0  0  0  0
  7  8  2  0  0  0  0
  7 10  1  0  0  0  0
  8  9  1  0  0  0  0
 10 15  1  0  0  0  0
 11 12  1  0  0  0  0
 11 13  2  0  0  0  0
 13 14  1  0  0  0  0
 15 16  2  0  0  0  0
 15 20  1  0  0  0  0
 16 17  1  0  0  0  0
 17 18  2  0  0  0  0
 17 21  1  0  0  0  0
 18 19  1  0  0  0  0
 19 20  2  0  0  0  0
  1 22  1  0  0  0  0
  2 23  1  0  0  0  0
  3 24  1  0  0  0  0
  4 25  1  0  0  0  0
 10 26  1  0  0  0  0
 10 27  1  0  0  0  0
 12 28  1  0  0  0  0
 12 29  1  0  0  0  0
 12 30  1  0  0  0  0
 14 31  1  0  0  0  0
 16 32  1  0  0  0  0
 18 33  1  0  0  0  0
 19 34  1  0  0  0  0
 20 35  1  0  0  0  0
 21 36  1  0  0  0  0
 21 37  1  0  0  0  0
 21 38  1  0  0  0  0
M  END
> <Name>
16

> <IC50[uM]>
0.17

$$$$
16
  -OEChem-05192314333D
 Structure written by MMmdl.
 38 40  0     1  0  0  0  0  0999 V2000
   -6.3886   12.3706  -12.0044 C   0  0  0  0  0  0  0  0  0  0  0  0
   -6.5217   11.8105  -10.7338 C   0  0  0  0  0  0  0  0  0  0  0  0
   -7.7267   10.5778  -13.0331 C   0  0  0  0  0  0  0  0  0  0  0  0
   -6.9997   11.7772  -13.1264 C   0  0  0  0  0  0  0  0  0  0  0  0
   -7.8245   10.0105  -11.7588 C   0  0  0  0  0  0  0  0  0  0  0  0
   -7.2447   10.6240  -10.5997 C   0  0  3  0  0  0  0  0  0  0  0  0
   -7.6157    9.7479   -9.5130 C   0  0  0  0  0  0  0  0  0  0  0  0
   -8.2818    8.7335   -9.9900 N   0  0  0  0  0  0  0  0  0  0  0  0
   -8.4155    8.8614  -11.3010 N   0  0  0  0  0  0  0  0  0  0  0  0
   -7.3377    9.8874   -8.0251 C   0  0  0  0  0  0  0  0  0  0  0  0
   -4.4115   13.6449  -11.4457 N   0  0  0  0  0  0  0  0  0  0  0  0
   -3.4644   14.7678  -11.5034 C   0  0  0  0  0  0  0  0  0  0  0  0
   -5.5490   13.6243  -12.1808 C   0  0  0  0  0  0  0  0  0  0  0  0
   -5.8784   14.5204  -12.9613 O   0  0  0  0  0  0  0  0  0  0  0  0
   -5.9596   10.4818   -7.7362 C   0  0  0  0  0  0  0  0  0  0  0  0
   -5.8460   11.7538   -7.1602 C   0  0  0  0  0  0  0  0  0  0  0  0
   -4.5819   12.3007   -6.9160 C   0  0  0  0  0  0  0  0  0  0  0  0
   -3.4335   11.5746   -7.2403 C   0  0  0  0  0  0  0  0  0  0  0  0
   -3.5461   10.3067   -7.8068 C   0  0  0  0  0  0  0  0  0  0  0  0
   -4.8068    9.7600   -8.0558 C   0  0  0  0  0  0  0  0  0  0  0  0
   -4.4568   13.6807   -6.3006 C   0  0  0  0  0  0  0  0  0  0  0  0
   -6.0750   12.2846   -9.8724 H   0  0  0  0  0  0  0  0  0  0  0  0
   -8.1843   10.1199  -13.8976 H   0  0  0  0  0  0  0  0  0  0  0  0
   -6.9067   12.2589  -14.0885 H   0  0  0  0  0  0  0  0  0  0  0  0
   -6.3227   10.0441  -10.7532 H   0  0  0  0  0  0  0  0  0  0  0  0
   -8.1032   10.5427   -7.5839 H   0  0  0  0  0  0  0  0  0  0  0  0
   -7.3958    8.8917   -7.5613 H   0  0  0  0  0  0  0  0  0  0  0  0
   -2.6189   14.5701  -10.8280 H   0  0  0  0  0  0  0  0  0  0  0  0
   -3.0927   14.8813  -12.5325 H   0  0  0  0  0  0  0  0  0  0  0  0
   -3.9729   15.6925  -11.1931 H   0  0  0  0  0  0  0  0  0  0  0  0
   -5.2336   15.2175  -12.9341 H   0  0  0  0  0  0  0  0  0  0  0  0
   -6.7345   12.3122   -6.9047 H   0  0  0  0  0  0  0  0  0  0  0  0
   -2.4573   11.9965   -7.0517 H   0  0  0  0  0  0  0  0  0  0  0  0
   -2.6569    9.7457   -8.0538 H   0  0  0  0  0  0  0  0  0  0  0  0
   -4.8908    8.7775   -8.4962 H   0  0  0  0  0  0  0  0  0  0  0  0
   -4.4264   13.5926   -5.2046 H   0  0  0  0  0  0  0  0  0  0  0  0
   -3.5315   14.1579   -6.6557 H   0  0  0  0  0  0  0  0  0  0  0  0
   -5.3217   14.2932   -6.5953 H   0  0  0  0  0  0  0  0  0  0  0  0
  1  2  2  0  0  0  0
  1  4  1  0  0  0  0
  1 13  1  0  0  0  0
  2  6  1  0  0  0  0
  3  4  2  0  0  0  0
  3  5  1  0  0  0  0
  5  6  1  0  0  0  0
  5  9  2  0  0  0  0
  6  7  1  0  0  0  0
  7  8  2  0  0  0  0
  7 10  1  0  0  0  0
  8  9  1  0  0  0  0
 10 15  1  0  0  0  0
 11 12  1  0  0  0  0
 11 13  2  0  0  0  0
 13 14  1  0  0  0  0
 15 16  2  0  0  0  0
 15 20  1  0  0  0  0
 16 17  1  0  0  0  0
 17 18  2  0  0  0  0
 17 21  1  0  0  0  0
 18 19  1  0  0  0  0
 19 20  2  0  0  0  0
  2 22  1  0  0  0  0
  3 23  1  0  0  0  0
  4 24  1  0  0  0  0
  6 25  1  0  0  0  0
 10 26  1  0  0  0  0
 10 27  1  0  0  0  0
 12 28  1  0  0  0  0
 12 29  1  0  0  0  0
 12 30  1  0  0  0  0
 14 31  1  0  0  0  0
 16 32  1  0  0  0  0
 18 33  1  0  0  0  0
 19 34  1  0  0  0  0
 20 35  1  0  0  0  0
 21 36  1  0  0  0  0
 21 37  1  0  0  0  0
 21 38  1  0  0  0  0
M  END
> <Name>
16

> <IC50[uM]>
0.17

$$$$
16
  -OEChem-05192314333D
 Structure written by MMmdl.
 38 40  0     0  0  0  0  0  0999 V2000
   -6.3886   12.3706  -12.0044 C   0  0  0  0  0  0  0  0  0  0  0  0
   -6.5217   11.8105  -10.7338 C   0  0  0  0  0  0  0  0  0  0  0  0
   -7.7267   10.5778  -13.0331 C   0  0  0  0  0  0  0  0  0  0  0  0
   -6.9997   11.7772  -13.1264 C   0  0  0  0  0  0  0  0  0  0  0  0
   -7.8245   10.0105  -11.7588 C   0  0  0  0  0  0  0  0  0  0  0  0
   -7.2447   10.6240  -10.5997 C   0  0  0  0  0  0  0  0  0  0  0  0
   -7.6157    9.7479   -9.5130 C   0  0  0  0  0  0  0  0  0  0  0  0
   -8.2818    8.7335   -9.9900 N   0  0  0  0  0  0  0  0  0  0  0  0
   -8.4155    8.8614  -11.3010 N   0  0  0  0  0  0  0  0  0  0  0  0
   -7.3377    9.8874   -8.0251 C   0  0  0  0  0  0  0  0  0  0  0  0
   -4.4115   13.6449  -11.4457 N   0  0  0  0  0  0  0  0  0  0  0  0
   -3.4644   14.7678  -11.5034 C   0  0  0  0  0  0  0  0  0  0  0  0
   -5.5490   13.6243  -12.1808 C   0  0  0  0  0  0  0  0  0  0  0  0
   -5.8784   14.5204  -12.9613 O   0  0  0  0  0  0  0  0  0  0  0  0
   -5.9596   10.4818   -7.7362 C   0  0  0  0  0  0  0  0  0  0  0  0
   -5.8460   11.7538   -7.1602 C   0  0  0  0  0  0  0  0  0  0  0  0
   -4.5819   12.3007   -6.9160 C   0  0  0  0  0  0  0  0  0  0  0  0
   -3.4335   11.5746   -7.2403 C   0  0  0  0  0  0  0  0  0  0  0  0
   -3.5461   10.3067   -7.8068 C   0  0  0  0  0  0  0  0  0  0  0  0
   -4.8068    9.7600   -8.0558 C   0  0  0  0  0  0  0  0  0  0  0  0
   -4.4568   13.6807   -6.3006 C   0  0  0  0  0  0  0  0  0  0  0  0
   -6.0750   12.2846   -9.8724 H   0  0  0  0  0  0  0  0  0  0  0  0
   -8.7478   10.7760  -13.3910 H   0  0  0  0  0  0  0  0  0  0  0  0
   -7.2438    9.8410  -13.6919 H   0  0  0  0  0  0  0  0  0  0  0  0
   -6.9067   12.2589  -14.0885 H   0  0  0  0  0  0  0  0  0  0  0  0
   -8.1032   10.5427   -7.5839 H   0  0  0  0  0  0  0  0  0  0  0  0
   -7.3958    8.8917   -7.5613 H   0  0  0  0  0  0  0  0  0  0  0  0
   -2.6189   14.5701  -10.8280 H   0  0  0  0  0  0  0  0  0  0  0  0
   -3.0927   14.8813  -12.5325 H   0  0  0  0  0  0  0  0  0  0  0  0
   -3.9729   15.6925  -11.1931 H   0  0  0  0  0  0  0  0  0  0  0  0
   -5.2336   15.2175  -12.9341 H   0  0  0  0  0  0  0  0  0  0  0  0
   -6.7345   12.3122   -6.9047 H   0  0  0  0  0  0  0  0  0  0  0  0
   -2.4573   11.9965   -7.0517 H   0  0  0  0  0  0  0  0  0  0  0  0
   -2.6569    9.7457   -8.0538 H   0  0  0  0  0  0  0  0  0  0  0  0
   -4.8908    8.7775   -8.4962 H   0  0  0  0  0  0  0  0  0  0  0  0
   -4.4264   13.5926   -5.2046 H   0  0  0  0  0  0  0  0  0  0  0  0
   -3.5315   14.1579   -6.6557 H   0  0  0  0  0  0  0  0  0  0  0  0
   -5.3217   14.2932   -6.5953 H   0  0  0  0  0  0  0  0  0  0  0  0
  1  2  1  0  0  0  0
  1  4  2  0  0  0  0
  1 13  1  0  0  0  0
  2  6  2  0  0  0  0
  3  4  1  0  0  0  0
  3  5  1  0  0  0  0
  5  6  1  0  0  0  0
  5  9  2  0  0  0  0
  6  7  1  0  0  0  0
  7  8  2  0  0  0  0
  7 10  1  0  0  0  0
  8  9  1  0  0  0  0
 10 15  1  0  0  0  0
 11 12  1  0  0  0  0
 11 13  2  0  0  0  0
 13 14  1  0  0  0  0
 15 16  2  0  0  0  0
 15 20  1  0  0  0  0
 16 17  1  0  0  0  0
 17 18  2  0  0  0  0
 17 21  1  0  0  0  0
 18 19  1  0  0  0  0
 19 20  2  0  0  0  0
  2 22  1  0  0  0  0
  3 23  1  0  0  0  0
  3 24  1  0  0  0  0
  4 25  1  0  0  0  0
 10 26  1  0  0  0  0
 10 27  1  0  0  0  0
 12 28  1  0  0  0  0
 12 29  1  0  0  0  0
 12 30  1  0  0  0  0
 14 31  1  0  0  0  0
 16 32  1  0  0  0  0
 18 33  1  0  0  0  0
 19 34  1  0  0  0  0
 20 35  1  0  0  0  0
 21 36  1  0  0  0  0
 21 37  1  0  0  0  0
 21 38  1  0  0  0  0
M  END
> <Name>
16

> <IC50[uM]>
0.17

$$$$
16
  -OEChem-05192314333D
 Structure written by MMmdl.
 38 40  0     1  0  0  0  0  0999 V2000
   -6.3886   12.3706  -12.0044 C   0  0  3  0  0  0  0  0  0  0  0  0
   -6.5217   11.8105  -10.7338 C   0  0  0  0  0  0  0  0  0  0  0  0
   -7.7267   10.5778  -13.0331 C   0  0  0  0  0  0  0  0  0  0  0  0
   -6.9997   11.7772  -13.1264 C   0  0  0  0  0  0  0  0  0  0  0  0
   -7.8245   10.0105  -11.7588 C   0  0  3  0  0  0  0  0  0  0  0  0
   -7.2447   10.6240  -10.5997 C   0  0  0  0  0  0  0  0  0  0  0  0
   -7.6157    9.7479   -9.5130 C   0  0  0  0  0  0  0  0  0  0  0  0
   -8.2818    8.7335   -9.9900 N   0  0  0  0  0  0  0  0  0  0  0  0
   -8.4155    8.8614  -11.3010 N   0  0  0  0  0  0  0  0  0  0  0  0
   -7.3377    9.8874   -8.0251 C   0  0  0  0  0  0  0  0  0  0  0  0
   -4.4115   13.6449  -11.4457 N   0  0  0  0  0  0  0  0  0  0  0  0
   -3.4644   14.7678  -11.5034 C   0  0  0  0  0  0  0  0  0  0  0  0
   -5.5490   13.6243  -12.1808 C   0  0  0  0  0  0  0  0  0  0  0  0
   -5.8784   14.5204  -12.9613 O   0  0  0  0  0  0  0  0  0  0  0  0
   -5.9596   10.4818   -7.7362 C   0  0  0  0  0  0  0  0  0  0  0  0
   -5.8460   11.7538   -7.1602 C   0  0  0  0  0  0  0  0  0  0  0  0
   -4.5819   12.3007   -6.9160 C   0  0  0  0  0  0  0  0  0  0  0  0
   -3.4335   11.5746   -7.2403 C   0  0  0  0  0  0  0  0  0  0  0  0
   -3.5461   10.3067   -7.8068 C   0  0  0  0  0  0  0  0  0  0  0  0
   -4.8068    9.7600   -8.0558 C   0  0  0  0  0  0  0  0  0  0  0  0
   -4.4568   13.6807   -6.3006 C   0  0  0  0  0  0  0  0  0  0  0  0
   -7.2839   12.9866  -11.8341 H   0  0  0  0  0  0  0  0  0  0  0  0
   -6.0750   12.2846   -9.8724 H   0  0  0  0  0  0  0  0  0  0  0  0
   -8.1843   10.1199  -13.8976 H   0  0  0  0  0  0  0  0  0  0  0  0
   -6.9067   12.2589  -14.0885 H   0  0  0  0  0  0  0  0  0  0  0  0
   -8.7599   10.5623  -11.5840 H   0  0  0  0  0  0  0  0  0  0  0  0
   -8.0380    9.5979   -7.2556 H   0  0  0  0  0  0  0  0  0  0  0  0
   -4.2095   12.8717  -10.8446 H   0  0  0  0  0  0  0  0  0  0  0  0
   -2.6189   14.5701  -10.8280 H   0  0  0  0  0  0  0  0  0  0  0  0
   -3.0927   14.8813  -12.5325 H   0  0  0  0  0  0  0  0  0  0  0  0
   -3.9729   15.6925  -11.1931 H   0  0  0  0  0  0  0  0  0  0  0  0
   -6.7345   12.3122   -6.9047 H   0  0  0  0  0  0  0  0  0  0  0  0
   -2.4573   11.9965   -7.0517 H   0  0  0  0  0  0  0  0  0  0  0  0
   -2.6569    9.7457   -8.0538 H   0  0  0  0  0  0  0  0  0  0  0  0
   -4.8908    8.7775   -8.4962 H   0  0  0  0  0  0  0  0  0  0  0  0
   -4.4264   13.5926   -5.2046 H   0  0  0  0  0  0  0  0  0  0  0  0
   -3.5315   14.1579   -6.6557 H   0  0  0  0  0  0  0  0  0  0  0  0
   -5.3217   14.2932   -6.5953 H   0  0  0  0  0  0  0  0  0  0  0  0
  1  2  1  0  0  0  0
  1  4  1  0  0  0  0
  1 13  1  0  0  0  0
  2  6  2  0  0  0  0
  3  4  2  0  0  0  0
  3  5  1  0  0  0  0
  5  6  1  0  0  0  0
  5  9  1  0  0  0  0
  6  7  1  0  0  0  0
  7  8  1  0  0  0  0
  7 10  2  3  0  0  0
  8  9  2  0  0  0  0
 10 15  1  0  0  0  0
 11 12  1  0  0  0  0
 11 13  1  0  0  0  0
 13 14  2  0  0  0  0
 15 16  2  0  0  0  0
 15 20  1  0  0  0  0
 16 17  1  0  0  0  0
 17 18  2  0  0  0  0
 17 21  1  0  0  0  0
 18 19  1  0  0  0  0
 19 20  2  0  0  0  0
  1 22  1  0  0  0  0
  2 23  1  0  0  0  0
  3 24  1  0  0  0  0
  4 25  1  0  0  0  0
  5 26  1  0  0  0  0
 10 27  1  0  0  0  0
 11 28  1  0  0  0  0
 12 29  1  0  0  0  0
 12 30  1  0  0  0  0
 12 31  1  0  0  0  0
 16 32  1  0  0  0  0
 18 33  1  0  0  0  0
 19 34  1  0  0  0  0
 20 35  1  0  0  0  0
 21 36  1  0  0  0  0
 21 37  1  0  0  0  0
 21 38  1  0  0  0  0
M  END
> <Name>
16

> <IC50[uM]>
0.17

$$$$
16
  -OEChem-05192314333D
 Structure written by MMmdl.
 38 40  0     1  0  0  0  0  0999 V2000
   -6.3886   12.3706  -12.0044 C   0  0  0  0  0  0  0  0  0  0  0  0
   -6.5217   11.8105  -10.7338 C   0  0  0  0  0  0  0  0  0  0  0  0
   -7.7267   10.5778  -13.0331 C   0  0  0  0  0  0  0  0  0  0  0  0
   -6.9997   11.7772  -13.1264 C   0  0  0  0  0  0  0  0  0  0  0  0
   -7.8245   10.0105  -11.7588 C   0  0  3  0  0  0  0  0  0  0  0  0
   -7.2447   10.6240  -10.5997 C   0  0  3  0  0  0  0  0  0  0  0  0
   -7.6157    9.7479   -9.5130 C   0  0  0  0  0  0  0  0  0  0  0  0
   -8.2818    8.7335   -9.9900 N   0  0  0  0  0  0  0  0  0  0  0  0
   -8.4155    8.8614  -11.3010 N   0  0  0  0  0  0  0  0  0  0  0  0
   -7.3377    9.8874   -8.0251 C   0  0  0  0  0  0  0  0  0  0  0  0
   -4.4115   13.6449  -11.4457 N   0  0  0  0  0  0  0  0  0  0  0  0
   -3.4644   14.7678  -11.5034 C   0  0  0  0  0  0  0  0  0  0  0  0
   -5.5490   13.6243  -12.1808 C   0  0  0  0  0  0  0  0  0  0  0  0
   -5.8784   14.5204  -12.9613 O   0  0  0  0  0  0  0  0  0  0  0  0
   -5.9596   10.4818   -7.7362 C   0  0  0  0  0  0  0  0  0  0  0  0
   -5.8460   11.7538   -7.1602 C   0  0  0  0  0  0  0  0  0  0  0  0
   -4.5819   12.3007   -6.9160 C   0  0  0  0  0  0  0  0  0  0  0  0
   -3.4335   11.5746   -7.2403 C   0  0  0  0  0  0  0  0  0  0  0  0
   -3.5461   10.3067   -7.8068 C   0  0  0  0  0  0  0  0  0  0  0  0
   -4.8068    9.7600   -8.0558 C   0  0  0  0  0  0  0  0  0  0  0  0
   -4.4568   13.6807   -6.3006 C   0  0  0  0  0  0  0  0  0  0  0  0
   -6.0750   12.2846   -9.8724 H   0  0  0  0  0  0  0  0  0  0  0  0
   -8.1843   10.1199  -13.8976 H   0  0  0  0  0  0  0  0  0  0  0  0
   -6.9067   12.2589  -14.0885 H   0  0  0  0  0  0  0  0  0  0  0  0
   -8.7599   10.5623  -11.5840 H   0  0  0  0  0  0  0  0  0  0  0  0
   -6.3227   10.0441  -10.7532 H   0  0  0  0  0  0  0  0  0  0  0  0
   -8.0380    9.5979   -7.2556 H   0  0  0  0  0  0  0  0  0  0  0  0
   -4.2095   12.8717  -10.8446 H   0  0  0  0  0  0  0  0  0  0  0  0
   -2.6189   14.5701  -10.8280 H   0  0  0  0  0  0  0  0  0  0  0  0
   -3.0927   14.8813  -12.5325 H   0  0  0  0  0  0  0  0  0  0  0  0
   -3.9729   15.6925  -11.1931 H   0  0  0  0  0  0  0  0  0  0  0  0
   -6.7345   12.3122   -6.9047 H   0  0  0  0  0  0  0  0  0  0  0  0
   -2.4573   11.9965   -7.0517 H   0  0  0  0  0  0  0  0  0  0  0  0
   -2.6569    9.7457   -8.0538 H   0  0  0  0  0  0  0  0  0  0  0  0
   -4.8908    8.7775   -8.4962 H   0  0  0  0  0  0  0  0  0  0  0  0
   -4.4264   13.5926   -5.2046 H   0  0  0  0  0  0  0  0  0  0  0  0
   -3.5315   14.1579   -6.6557 H   0  0  0  0  0  0  0  0  0  0  0  0
   -5.3217   14.2932   -6.5953 H   0  0  0  0  0  0  0  0  0  0  0  0
  1  2  2  0  0  0  0
  1  4  1  0  0  0  0
  1 13  1  0  0  0  0
  2  6  1  0  0  0  0
  3  4  2  0  0  0  0
  3  5  1  0  0  0  0
  5  6  1  0  0  0  0
  5  9  1  0  0  0  0
  6  7  1  0  0  0  0
  7  8  1  0  0  0  0
  7 10  2  3  0  0  0
  8  9  2  0  0  0  0
 10 15  1  0  0  0  0
 11 12  1  0  0  0  0
 11 13  1  0  0  0  0
 13 14  2  0  0  0  0
 15 16  2  0  0  0  0
 15 20  1  0  0  0  0
 16 17  1  0  0  0  0
 17 18  2  0  0  0  0
 17 21  1  0  0  0  0
 18 19  1  0  0  0  0
 19 20  2  0  0  0  0
  2 22  1  0  0  0  0
  3 23  1  0  0  0  0
  4 24  1  0  0  0  0
  5 25  1  0  0  0  0
  6 26  1  0  0  0  0
 10 27  1  0  0  0  0
 11 28  1  0  0  0  0
 12 29  1  0  0  0  0
 12 30  1  0  0  0  0
 12 31  1  0  0  0  0
 16 32  1  0  0  0  0
 18 33  1  0  0  0  0
 19 34  1  0  0  0  0
 20 35  1  0  0  0  0
 21 36  1  0  0  0  0
 21 37  1  0  0  0  0
 21 38  1  0  0  0  0
M  END
> <Name>
16

> <IC50[uM]>
0.17

$$$$
16
  -OEChem-05192314333D
 Structure written by MMmdl.
 38 40  0     1  0  0  0  0  0999 V2000
   -6.3886   12.3706  -12.0044 C   0  0  0  0  0  0  0  0  0  0  0  0
   -6.5217   11.8105  -10.7338 C   0  0  0  0  0  0  0  0  0  0  0  0
   -7.7267   10.5778  -13.0331 C   0  0  0  0  0  0  0  0  0  0  0  0
   -6.9997   11.7772  -13.1264 C   0  0  0  0  0  0  0  0  0  0  0  0
   -7.8245   10.0105  -11.7588 C   0  0  3  0  0  0  0  0  0  0  0  0
   -7.2447   10.6240  -10.5997 C   0  0  0  0  0  0  0  0  0  0  0  0
   -7.6157    9.7479   -9.5130 C   0  0  0  0  0  0  0  0  0  0  0  0
   -8.2818    8.7335   -9.9900 N   0  0  0  0  0  0  0  0  0  0  0  0
   -8.4155    8.8614  -11.3010 N   0  0  0  0  0  0  0  0  0  0  0  0
   -7.3377    9.8874   -8.0251 C   0  0  0  0  0  0  0  0  0  0  0  0
   -4.4115   13.6449  -11.4457 N   0  0  0  0  0  0  0  0  0  0  0  0
   -3.4644   14.7678  -11.5034 C   0  0  0  0  0  0  0  0  0  0  0  0
   -5.5490   13.6243  -12.1808 C   0  0  0  0  0  0  0  0  0  0  0  0
   -5.8784   14.5204  -12.9613 O   0  0  0  0  0  0  0  0  0  0  0  0
   -5.9596   10.4818   -7.7362 C   0  0  0  0  0  0  0  0  0  0  0  0
   -5.8460   11.7538   -7.1602 C   0  0  0  0  0  0  0  0  0  0  0  0
   -4.5819   12.3007   -6.9160 C   0  0  0  0  0  0  0  0  0  0  0  0
   -3.4335   11.5746   -7.2403 C   0  0  0  0  0  0  0  0  0  0  0  0
   -3.5461   10.3067   -7.8068 C   0  0  0  0  0  0  0  0  0  0  0  0
   -4.8068    9.7600   -8.0558 C   0  0  0  0  0  0  0  0  0  0  0  0
   -4.4568   13.6807   -6.3006 C   0  0  0  0  0  0  0  0  0  0  0  0
   -6.0750   12.2846   -9.8724 H   0  0  0  0  0  0  0  0  0  0  0  0
   -8.7478   10.7760  -13.3910 H   0  0  0  0  0  0  0  0  0  0  0  0
   -7.2438    9.8410  -13.6919 H   0  0  0  0  0  0  0  0  0  0  0  0
   -6.9067   12.2589  -14.0885 H   0  0  0  0  0  0  0  0  0  0  0  0
   -8.7599   10.5623  -11.5840 H   0  0  0  0  0  0  0  0  0  0  0  0
   -8.0380    9.5979   -7.2556 H   0  0  0  0  0  0  0  0  0  0  0  0
   -4.2095   12.8717  -10.8446 H   0  0  0  0  0  0  0  0  0  0  0  0
   -2.6189   14.5701  -10.8280 H   0  0  0  0  0  0  0  0  0  0  0  0
   -3.0927   14.8813  -12.5325 H   0  0  0  0  0  0  0  0  0  0  0  0
   -3.9729   15.6925  -11.1931 H   0  0  0  0  0  0  0  0  0  0  0  0
   -6.7345   12.3122   -6.9047 H   0  0  0  0  0  0  0  0  0  0  0  0
   -2.4573   11.9965   -7.0517 H   0  0  0  0  0  0  0  0  0  0  0  0
   -2.6569    9.7457   -8.0538 H   0  0  0  0  0  0  0  0  0  0  0  0
   -4.8908    8.7775   -8.4962 H   0  0  0  0  0  0  0  0  0  0  0  0
   -4.4264   13.5926   -5.2046 H   0  0  0  0  0  0  0  0  0  0  0  0
   -3.5315   14.1579   -6.6557 H   0  0  0  0  0  0  0  0  0  0  0  0
   -5.3217   14.2932   -6.5953 H   0  0  0  0  0  0  0  0  0  0  0  0
  1  2  1  0  0  0  0
  1  4  2  0  0  0  0
  1 13  1  0  0  0  0
  2  6  2  0  0  0  0
  3  4  1  0  0  0  0
  3  5  1  0  0  0  0
  5  6  1  0  0  0  0
  5  9  1  0  0  0  0
  6  7  1  0  0  0  0
  7  8  1  0  0  0  0
  7 10  2  3  0  0  0
  8  9  2  0  0  0  0
 10 15  1  0  0  0  0
 11 12  1  0  0  0  0
 11 13  1  0  0  0  0
 13 14  2  0  0  0  0
 15 16  2  0  0  0  0
 15 20  1  0  0  0  0
 16 17  1  0  0  0  0
 17 18  2  0  0  0  0
 17 21  1  0  0  0  0
 18 19  1  0  0  0  0
 19 20  2  0  0  0  0
  2 22  1  0  0  0  0
  3 23  1  0  0  0  0
  3 24  1  0  0  0  0
  4 25  1  0  0  0  0
  5 26  1  0  0  0  0
 10 27  1  0  0  0  0
 11 28  1  0  0  0  0
 12 29  1  0  0  0  0
 12 30  1  0  0  0  0
 12 31  1  0  0  0  0
 16 32  1  0  0  0  0
 18 33  1  0  0  0  0
 19 34  1  0  0  0  0
 20 35  1  0  0  0  0
 21 36  1  0  0  0  0
 21 37  1  0  0  0  0
 21 38  1  0  0  0  0
M  END
> <Name>
16

> <IC50[uM]>
0.17

$$$$
16
  -OEChem-05192314333D
 Structure written by MMmdl.
 38 40  0     1  0  0  0  0  0999 V2000
   -6.3886   12.3706  -12.0044 C   0  0  3  0  0  0  0  0  0  0  0  0
   -6.5217   11.8105  -10.7338 C   0  0  0  0  0  0  0  0  0  0  0  0
   -7.7267   10.5778  -13.0331 C   0  0  0  0  0  0  0  0  0  0  0  0
   -6.9997   11.7772  -13.1264 C   0  0  0  0  0  0  0  0  0  0  0  0
   -7.8245   10.0105  -11.7588 C   0  0  0  0  0  0  0  0  0  0  0  0
   -7.2447   10.6240  -10.5997 C   0  0  0  0  0  0  0  0  0  0  0  0
   -7.6157    9.7479   -9.5130 C   0  0  0  0  0  0  0  0  0  0  0  0
   -8.2818    8.7335   -9.9900 N   0  0  0  0  0  0  0  0  0  0  0  0
   -8.4155    8.8614  -11.3010 N   0  0  0  0  0  0  0  0  0  0  0  0
   -7.3377    9.8874   -8.0251 C   0  0  0  0  0  0  0  0  0  0  0  0
   -4.4115   13.6449  -11.4457 N   0  0  0  0  0  0  0  0  0  0  0  0
   -3.4644   14.7678  -11.5034 C   0  0  0  0  0  0  0  0  0  0  0  0
   -5.5490   13.6243  -12.1808 C   0  0  0  0  0  0  0  0  0  0  0  0
   -5.8784   14.5204  -12.9613 O   0  0  0  0  0  0  0  0  0  0  0  0
   -5.9596   10.4818   -7.7362 C   0  0  0  0  0  0  0  0  0  0  0  0
   -5.8460   11.7538   -7.1602 C   0  0  0  0  0  0  0  0  0  0  0  0
   -4.5819   12.3007   -6.9160 C   0  0  0  0  0  0  0  0  0  0  0  0
   -3.4335   11.5746   -7.2403 C   0  0  0  0  0  0  0  0  0  0  0  0
   -3.5461   10.3067   -7.8068 C   0  0  0  0  0  0  0  0  0  0  0  0
   -4.8068    9.7600   -8.0558 C   0  0  0  0  0  0  0  0  0  0  0  0
   -4.4568   13.6807   -6.3006 C   0  0  0  0  0  0  0  0  0  0  0  0
   -7.2839   12.9866  -11.8341 H   0  0  0  0  0  0  0  0  0  0  0  0
   -6.0750   12.2846   -9.8724 H   0  0  0  0  0  0  0  0  0  0  0  0
   -8.1843   10.1199  -13.8976 H   0  0  0  0  0  0  0  0  0  0  0  0
   -7.6950   12.5276  -13.5308 H   0  0  0  0  0  0  0  0  0  0  0  0
   -6.1951   11.5934  -13.8536 H   0  0  0  0  0  0  0  0  0  0  0  0
   -8.0380    9.5979   -7.2556 H   0  0  0  0  0  0  0  0  0  0  0  0
   -4.2095   12.8717  -10.8446 H   0  0  0  0  0  0  0  0  0  0  0  0
   -2.6189   14.5701  -10.8280 H   0  0  0  0  0  0  0  0  0  0  0  0
   -3.0927   14.8813  -12.5325 H   0  0  0  0  0  0  0  0  0  0  0  0
   -3.9729   15.6925  -11.1931 H   0  0  0  0  0  0  0  0  0  0  0  0
   -6.7345   12.3122   -6.9047 H   0  0  0  0  0  0  0  0  0  0  0  0
   -2.4573   11.9965   -7.0517 H   0  0  0  0  0  0  0  0  0  0  0  0
   -2.6569    9.7457   -8.0538 H   0  0  0  0  0  0  0  0  0  0  0  0
   -4.8908    8.7775   -8.4962 H   0  0  0  0  0  0  0  0  0  0  0  0
   -4.4264   13.5926   -5.2046 H   0  0  0  0  0  0  0  0  0  0  0  0
   -3.5315   14.1579   -6.6557 H   0  0  0  0  0  0  0  0  0  0  0  0
   -5.3217   14.2932   -6.5953 H   0  0  0  0  0  0  0  0  0  0  0  0
  1  2  1  0  0  0  0
  1  4  1  0  0  0  0
  1 13  1  0  0  0  0
  2  6  2  0  0  0  0
  3  4  1  0  0  0  0
  3  5  2  0  0  0  0
  5  6  1  0  0  0  0
  5  9  1  0  0  0  0
  6  7  1  0  0  0  0
  7  8  1  0  0  0  0
  7 10  2  3  0  0  0
  8  9  2  0  0  0  0
 10 15  1  0  0  0  0
 11 12  1  0  0  0  0
 11 13  1  0  0  0  0
 13 14  2  0  0  0  0
 15 16  2  0  0  0  0
 15 20  1  0  0  0  0
 16 17  1  0  0  0  0
 17 18  2  0  0  0  0
 17 21  1  0  0  0  0
 18 19  1  0  0  0  0
 19 20  2  0  0  0  0
  1 22  1  0  0  0  0
  2 23  1  0  0  0  0
  3 24  1  0  0  0  0
  4 25  1  0  0  0  0
  4 26  1  0  0  0  0
 10 27  1  0  0  0  0
 11 28  1  0  0  0  0
 12 29  1  0  0  0  0
 12 30  1  0  0  0  0
 12 31  1  0  0  0  0
 16 32  1  0  0  0  0
 18 33  1  0  0  0  0
 19 34  1  0  0  0  0
 20 35  1  0  0  0  0
 21 36  1  0  0  0  0
 21 37  1  0  0  0  0
 21 38  1  0  0  0  0
M  END
> <Name>
16

> <IC50[uM]>
0.17

$$$$
16
  -OEChem-05192314333D
 Structure written by MMmdl.
 38 40  0     1  0  0  0  0  0999 V2000
   -6.3886   12.3706  -12.0044 C   0  0  0  0  0  0  0  0  0  0  0  0
   -6.5217   11.8105  -10.7338 C   0  0  0  0  0  0  0  0  0  0  0  0
   -7.7267   10.5778  -13.0331 C   0  0  0  0  0  0  0  0  0  0  0  0
   -6.9997   11.7772  -13.1264 C   0  0  0  0  0  0  0  0  0  0  0  0
   -7.8245   10.0105  -11.7588 C   0  0  0  0  0  0  0  0  0  0  0  0
   -7.2447   10.6240  -10.5997 C   0  0  3  0  0  0  0  0  0  0  0  0
   -7.6157    9.7479   -9.5130 C   0  0  0  0  0  0  0  0  0  0  0  0
   -8.2818    8.7335   -9.9900 N   0  0  0  0  0  0  0  0  0  0  0  0
   -8.4155    8.8614  -11.3010 N   0  0  0  0  0  0  0  0  0  0  0  0
   -7.3377    9.8874   -8.0251 C   0  0  0  0  0  0  0  0  0  0  0  0
   -4.4115   13.6449  -11.4457 N   0  0  0  0  0  0  0  0  0  0  0  0
   -3.4644   14.7678  -11.5034 C   0  0  0  0  0  0  0  0  0  0  0  0
   -5.5490   13.6243  -12.1808 C   0  0  0  0  0  0  0  0  0  0  0  0
   -5.8784   14.5204  -12.9613 O   0  0  0  0  0  0  0  0  0  0  0  0
   -5.9596   10.4818   -7.7362 C   0  0  0  0  0  0  0  0  0  0  0  0
   -5.8460   11.7538   -7.1602 C   0  0  0  0  0  0  0  0  0  0  0  0
   -4.5819   12.3007   -6.9160 C   0  0  0  0  0  0  0  0  0  0  0  0
   -3.4335   11.5746   -7.2403 C   0  0  0  0  0  0  0  0  0  0  0  0
   -3.5461   10.3067   -7.8068 C   0  0  0  0  0  0  0  0  0  0  0  0
   -4.8068    9.7600   -8.0558 C   0  0  0  0  0  0  0  0  0  0  0  0
   -4.4568   13.6807   -6.3006 C   0  0  0  0  0  0  0  0  0  0  0  0
   -6.0750   12.2846   -9.8724 H   0  0  0  0  0  0  0  0  0  0  0  0
   -8.1843   10.1199  -13.8976 H   0  0  0  0  0  0  0  0  0  0  0  0
   -7.6950   12.5276  -13.5308 H   0  0  0  0  0  0  0  0  0  0  0  0
   -6.1951   11.5934  -13.8536 H   0  0  0  0  0  0  0  0  0  0  0  0
   -6.3227   10.0441  -10.7532 H   0  0  0  0  0  0  0  0  0  0  0  0
   -8.0380    9.5979   -7.2556 H   0  0  0  0  0  0  0  0  0  0  0  0
   -4.2095   12.8717  -10.8446 H   0  0  0  0  0  0  0  0  0  0  0  0
   -2.6189   14.5701  -10.8280 H   0  0  0  0  0  0  0  0  0  0  0  0
   -3.0927   14.8813  -12.5325 H   0  0  0  0  0  0  0  0  0  0  0  0
   -3.9729   15.6925  -11.1931 H   0  0  0  0  0  0  0  0  0  0  0  0
   -6.7345   12.3122   -6.9047 H   0  0  0  0  0  0  0  0  0  0  0  0
   -2.4573   11.9965   -7.0517 H   0  0  0  0  0  0  0  0  0  0  0  0
   -2.6569    9.7457   -8.0538 H   0  0  0  0  0  0  0  0  0  0  0  0
   -4.8908    8.7775   -8.4962 H   0  0  0  0  0  0  0  0  0  0  0  0
   -4.4264   13.5926   -5.2046 H   0  0  0  0  0  0  0  0  0  0  0  0
   -3.5315   14.1579   -6.6557 H   0  0  0  0  0  0  0  0  0  0  0  0
   -5.3217   14.2932   -6.5953 H   0  0  0  0  0  0  0  0  0  0  0  0
  1  2  2  0  0  0  0
  1  4  1  0  0  0  0
  1 13  1  0  0  0  0
  2  6  1  0  0  0  0
  3  4  1  0  0  0  0
  3  5  2  0  0  0  0
  5  6  1  0  0  0  0
  5  9  1  0  0  0  0
  6  7  1  0  0  0  0
  7  8  1  0  0  0  0
  7 10  2  3  0  0  0
  8  9  2  0  0  0  0
 10 15  1  0  0  0  0
 11 12  1  0  0  0  0
 11 13  1  0  0  0  0
 13 14  2  0  0  0  0
 15 16  2  0  0  0  0
 15 20  1  0  0  0  0
 16 17  1  0  0  0  0
 17 18  2  0  0  0  0
 17 21  1  0  0  0  0
 18 19  1  0  0  0  0
 19 20  2  0  0  0  0
  2 22  1  0  0  0  0
  3 23  1  0  0  0  0
  4 24  1  0  0  0  0
  4 25  1  0  0  0  0
  6 26  1  0  0  0  0
 10 27  1  0  0  0  0
 11 28  1  0  0  0  0
 12 29  1  0  0  0  0
 12 30  1  0  0  0  0
 12 31  1  0  0  0  0
 16 32  1  0  0  0  0
 18 33  1  0  0  0  0
 19 34  1  0  0  0  0
 20 35  1  0  0  0  0
 21 36  1  0  0  0  0
 21 37  1  0  0  0  0
 21 38  1  0  0  0  0
M  END
> <Name>
16

> <IC50[uM]>
0.17

$$$$
16
  -OEChem-05192314333D
 Structure written by MMmdl.
 38 40  0     0  0  0  0  0  0999 V2000
   -6.3886   12.3706  -12.0044 C   0  0  0  0  0  0  0  0  0  0  0  0
   -6.5217   11.8105  -10.7338 C   0  0  0  0  0  0  0  0  0  0  0  0
   -7.7267   10.5778  -13.0331 C   0  0  0  0  0  0  0  0  0  0  0  0
   -6.9997   11.7772  -13.1264 C   0  0  0  0  0  0  0  0  0  0  0  0
   -7.8245   10.0105  -11.7588 C   0  0  0  0  0  0  0  0  0  0  0  0
   -7.2447   10.6240  -10.5997 C   0  0  0  0  0  0  0  0  0  0  0  0
   -7.6157    9.7479   -9.5130 C   0  0  0  0  0  0  0  0  0  0  0  0
   -8.2818    8.7335   -9.9900 N   0  0  0  0  0  0  0  0  0  0  0  0
   -8.4155    8.8614  -11.3010 N   0  0  0  0  0  0  0  0  0  0  0  0
   -7.3377    9.8874   -8.0251 C   0  0  0  0  0  0  0  0  0  0  0  0
   -4.4115   13.6449  -11.4457 N   0  0  0  0  0  0  0  0  0  0  0  0
   -3.4644   14.7678  -11.5034 C   0  0  0  0  0  0  0  0  0  0  0  0
   -5.5490   13.6243  -12.1808 C   0  0  0  0  0  0  0  0  0  0  0  0
   -5.8784   14.5204  -12.9613 O   0  0  0  0  0  0  0  0  0  0  0  0
   -5.9596   10.4818   -7.7362 C   0  0  0  0  0  0  0  0  0  0  0  0
   -5.8460   11.7538   -7.1602 C   0  0  0  0  0  0  0  0  0  0  0  0
   -4.5819   12.3007   -6.9160 C   0  0  0  0  0  0  0  0  0  0  0  0
   -3.4335   11.5746   -7.2403 C   0  0  0  0  0  0  0  0  0  0  0  0
   -3.5461   10.3067   -7.8068 C   0  0  0  0  0  0  0  0  0  0  0  0
   -4.8068    9.7600   -8.0558 C   0  0  0  0  0  0  0  0  0  0  0  0
   -4.4568   13.6807   -6.3006 C   0  0  0  0  0  0  0  0  0  0  0  0
   -6.0750   12.2846   -9.8724 H   0  0  0  0  0  0  0  0  0  0  0  0
   -8.7478   10.7760  -13.3910 H   0  0  0  0  0  0  0  0  0  0  0  0
   -7.2438    9.8410  -13.6919 H   0  0  0  0  0  0  0  0  0  0  0  0
   -7.6950   12.5276  -13.5308 H   0  0  0  0  0  0  0  0  0  0  0  0
   -6.1951   11.5934  -13.8536 H   0  0  0  0  0  0  0  0  0  0  0  0
   -8.0380    9.5979   -7.2556 H   0  0  0  0  0  0  0  0  0  0  0  0
   -4.2095   12.8717  -10.8446 H   0  0  0  0  0  0  0  0  0  0  0  0
   -2.6189   14.5701  -10.8280 H   0  0  0  0  0  0  0  0  0  0  0  0
   -3.0927   14.8813  -12.5325 H   0  0  0  0  0  0  0  0  0  0  0  0
   -3.9729   15.6925  -11.1931 H   0  0  0  0  0  0  0  0  0  0  0  0
   -6.7345   12.3122   -6.9047 H   0  0  0  0  0  0  0  0  0  0  0  0
   -2.4573   11.9965   -7.0517 H   0  0  0  0  0  0  0  0  0  0  0  0
   -2.6569    9.7457   -8.0538 H   0  0  0  0  0  0  0  0  0  0  0  0
   -4.8908    8.7775   -8.4962 H   0  0  0  0  0  0  0  0  0  0  0  0
   -4.4264   13.5926   -5.2046 H   0  0  0  0  0  0  0  0  0  0  0  0
   -3.5315   14.1579   -6.6557 H   0  0  0  0  0  0  0  0  0  0  0  0
   -5.3217   14.2932   -6.5953 H   0  0  0  0  0  0  0  0  0  0  0  0
  1  2  2  0  0  0  0
  1  4  1  0  0  0  0
  1 13  1  0  0  0  0
  2  6  1  0  0  0  0
  3  4  1  0  0  0  0
  3  5  1  0  0  0  0
  5  6  2  0  0  0  0
  5  9  1  0  0  0  0
  6  7  1  0  0  0  0
  7  8  1  0  0  0  0
  7 10  2  3  0  0  0
  8  9  2  0  0  0  0
 10 15  1  0  0  0  0
 11 12  1  0  0  0  0
 11 13  1  0  0  0  0
 13 14  2  0  0  0  0
 15 16  2  0  0  0  0
 15 20  1  0  0  0  0
 16 17  1  0  0  0  0
 17 18  2  0  0  0  0
 17 21  1  0  0  0  0
 18 19  1  0  0  0  0
 19 20  2  0  0  0  0
  2 22  1  0  0  0  0
  3 23  1  0  0  0  0
  3 24  1  0  0  0  0
  4 25  1  0  0  0  0
  4 26  1  0  0  0  0
 10 27  1  0  0  0  0
 11 28  1  0  0  0  0
 12 29  1  0  0  0  0
 12 30  1  0  0  0  0
 12 31  1  0  0  0  0
 16 32  1  0  0  0  0
 18 33  1  0  0  0  0
 19 34  1  0  0  0  0
 20 35  1  0  0  0  0
 21 36  1  0  0  0  0
 21 37  1  0  0  0  0
 21 38  1  0  0  0  0
M  END
> <Name>
16

> <IC50[uM]>
0.17

$$$$
16
  -OEChem-05192314333D
 Structure written by MMmdl.
 38 40  0     1  0  0  0  0  0999 V2000
   -6.3886   12.3706  -12.0044 C   0  0  0  0  0  0  0  0  0  0  0  0
   -6.5217   11.8105  -10.7338 C   0  0  0  0  0  0  0  0  0  0  0  0
   -7.7267   10.5778  -13.0331 C   0  0  0  0  0  0  0  0  0  0  0  0
   -6.9997   11.7772  -13.1264 C   0  0  0  0  0  0  0  0  0  0  0  0
   -7.8245   10.0105  -11.7588 C   0  0  0  0  0  0  0  0  0  0  0  0
   -7.2447   10.6240  -10.5997 C   0  0  0  0  0  0  0  0  0  0  0  0
   -7.6157    9.7479   -9.5130 C   0  0  0  0  0  0  0  0  0  0  0  0
   -8.2818    8.7335   -9.9900 N   0  0  0  0  0  0  0  0  0  0  0  0
   -8.4155    8.8614  -11.3010 N   0  0  0  0  0  0  0  0  0  0  0  0
   -7.3377    9.8874   -8.0251 C   0  0  0  0  0  0  0  0  0  0  0  0
   -4.4115   13.6449  -11.4457 N   0  0  0  0  0  0  0  0  0  0  0  0
   -3.4644   14.7678  -11.5034 C   0  0  0  0  0  0  0  0  0  0  0  0
   -5.5490   13.6243  -12.1808 C   0  0  0  0  0  0  0  0  0  0  0  0
   -5.8784   14.5204  -12.9613 O   0  0  0  0  0  0  0  0  0  0  0  0
   -5.9596   10.4818   -7.7362 C   0  0  0  0  0  0  0  0  0  0  0  0
   -5.8460   11.7538   -7.1602 C   0  0  0  0  0  0  0  0  0  0  0  0
   -4.5819   12.3007   -6.9160 C   0  0  3  0  0  0  0  0  0  0  0  0
   -3.4335   11.5746   -7.2403 C   0  0  0  0  0  0  0  0  0  0  0  0
   -3.5461   10.3067   -7.8068 C   0  0  0  0  0  0  0  0  0  0  0  0
   -4.8068    9.7600   -8.0558 C   0  0  0  0  0  0  0  0  0  0  0  0
   -4.4568   13.6807   -6.3006 C   0  0  0  0  0  0  0  0  0  0  0  0
   -6.0750   12.2846   -9.8724 H   0  0  0  0  0  0  0  0  0  0  0  0
   -8.1843   10.1199  -13.8976 H   0  0  0  0  0  0  0  0  0  0  0  0
   -6.9067   12.2589  -14.0885 H   0  0  0  0  0  0  0  0  0  0  0  0
   -8.0380    9.5979   -7.2556 H   0  0  0  0  0  0  0  0  0  0  0  0
   -4.2095   12.8717  -10.8446 H   0  0  0  0  0  0  0  0  0  0  0  0
   -2.6189   14.5701  -10.8280 H   0  0  0  0  0  0  0  0  0  0  0  0
   -3.0927   14.8813  -12.5325 H   0  0  0  0  0  0  0  0  0  0  0  0
   -3.9729   15.6925  -11.1931 H   0  0  0  0  0  0  0  0  0  0  0  0
   -6.7345   12.3122   -6.9047 H   0  0  0  0  0  0  0  0  0  0  0  0
   -4.5818   11.8525   -5.9114 H   0  0  0  0  0  0  0  0  0  0  0  0
   -2.4573   11.9965   -7.0517 H   0  0  0  0  0  0  0  0  0  0  0  0
   -2.6569    9.7457   -8.0538 H   0  0  0  0  0  0  0  0  0  0  0  0
   -4.8589    8.8150   -7.4951 H   0  0  0  0  0  0  0  0  0  0  0  0
   -4.8535    9.5494   -9.1344 H   0  0  0  0  0  0  0  0  0  0  0  0
   -3.3931   13.9367   -6.1862 H   0  0  0  0  0  0  0  0  0  0  0  0
   -4.9432   14.4192   -6.9548 H   0  0  0  0  0  0  0  0  0  0  0  0
   -4.9436   13.6877   -5.3142 H   0  0  0  0  0  0  0  0  0  0  0  0
  1  2  2  0  0  0  0
  1  4  1  0  0  0  0
  1 13  1  0  0  0  0
  2  6  1  0  0  0  0
  3  4  2  0  0  0  0
  3  5  1  0  0  0  0
  5  6  2  0  0  0  0
  5  9  1  0  0  0  0
  6  7  1  0  0  0  0
  7  8  1  0  0  0  0
  7 10  2  3  0  0  0
  8  9  2  0  0  0  0
 10 15  1  0  0  0  0
 11 12  1  0  0  0  0
 11 13  1  0  0  0  0
 13 14  2  0  0  0  0
 15 16  2  0  0  0  0
 15 20  1  0  0  0  0
 16 17  1  0  0  0  0
 17 18  1  0  0  0  0
 17 21  1  0  0  0  0
 18 19  2  0  0  0  0
 19 20  1  0  0  0  0
  2 22  1  0  0  0  0
  3 23  1  0  0  0  0
  4 24  1  0  0  0  0
 10 25  1  0  0  0  0
 11 26  1  0  0  0  0
 12 27  1  0  0  0  0
 12 28  1  0  0  0  0
 12 29  1  0  0  0  0
 16 30  1  0  0  0  0
 17 31  1  0  0  0  0
 18 32  1  0  0  0  0
 19 33  1  0  0  0  0
 20 34  1  0  0  0  0
 20 35  1  0  0  0  0
 21 36  1  0  0  0  0
 21 37  1  0  0  0  0
 21 38  1  0  0  0  0
M  END
> <Name>
16

> <IC50[uM]>
0.17

$$$$
16
  -OEChem-05192314333D
 Structure written by MMmdl.
 38 40  0     1  0  0  0  0  0999 V2000
   -6.3886   12.3706  -12.0044 C   0  0  0  0  0  0  0  0  0  0  0  0
   -6.5217   11.8105  -10.7338 C   0  0  0  0  0  0  0  0  0  0  0  0
   -7.7267   10.5778  -13.0331 C   0  0  0  0  0  0  0  0  0  0  0  0
   -6.9997   11.7772  -13.1264 C   0  0  0  0  0  0  0  0  0  0  0  0
   -7.8245   10.0105  -11.7588 C   0  0  0  0  0  0  0  0  0  0  0  0
   -7.2447   10.6240  -10.5997 C   0  0  0  0  0  0  0  0  0  0  0  0
   -7.6157    9.7479   -9.5130 C   0  0  0  0  0  0  0  0  0  0  0  0
   -8.2818    8.7335   -9.9900 N   0  0  0  0  0  0  0  0  0  0  0  0
   -8.4155    8.8614  -11.3010 N   0  0  0  0  0  0  0  0  0  0  0  0
   -7.3377    9.8874   -8.0251 C   0  0  0  0  0  0  0  0  0  0  0  0
   -4.4115   13.6449  -11.4457 N   0  0  0  0  0  0  0  0  0  0  0  0
   -3.4644   14.7678  -11.5034 C   0  0  0  0  0  0  0  0  0  0  0  0
   -5.5490   13.6243  -12.1808 C   0  0  0  0  0  0  0  0  0  0  0  0
   -5.8784   14.5204  -12.9613 O   0  0  0  0  0  0  0  0  0  0  0  0
   -5.9596   10.4818   -7.7362 C   0  0  3  0  0  0  0  0  0  0  0  0
   -5.8460   11.7538   -7.1602 C   0  0  0  0  0  0  0  0  0  0  0  0
   -4.5819   12.3007   -6.9160 C   0  0  0  0  0  0  0  0  0  0  0  0
   -3.4335   11.5746   -7.2403 C   0  0  0  0  0  0  0  0  0  0  0  0
   -3.5461   10.3067   -7.8068 C   0  0  0  0  0  0  0  0  0  0  0  0
   -4.8068    9.7600   -8.0558 C   0  0  0  0  0  0  0  0  0  0  0  0
   -4.4568   13.6807   -6.3006 C   0  0  0  0  0  0  0  0  0  0  0  0
   -6.0750   12.2846   -9.8724 H   0  0  0  0  0  0  0  0  0  0  0  0
   -8.1843   10.1199  -13.8976 H   0  0  0  0  0  0  0  0  0  0  0  0
   -6.9067   12.2589  -14.0885 H   0  0  0  0  0  0  0  0  0  0  0  0
   -8.0380    9.5979   -7.2556 H   0  0  0  0  0  0  0  0  0  0  0  0
   -4.2095   12.8717  -10.8446 H   0  0  0  0  0  0  0  0  0  0  0  0
   -2.6189   14.5701  -10.8280 H   0  0  0  0  0  0  0  0  0  0  0  0
   -3.0927   14.8813  -12.5325 H   0  0  0  0  0  0  0  0  0  0  0  0
   -3.9729   15.6925  -11.1931 H   0  0  0  0  0  0  0  0  0  0  0  0
   -5.9704   10.0264   -6.7349 H   0  0  0  0  0  0  0  0  0  0  0  0
   -6.7345   12.3122   -6.9047 H   0  0  0  0  0  0  0  0  0  0  0  0
   -2.4573   11.9965   -7.0517 H   0  0  0  0  0  0  0  0  0  0  0  0
   -2.6569    9.7457   -8.0538 H   0  0  0  0  0  0  0  0  0  0  0  0
   -4.8589    8.8150   -7.4951 H   0  0  0  0  0  0  0  0  0  0  0  0
   -4.8535    9.5494   -9.1344 H   0  0  0  0  0  0  0  0  0  0  0  0
   -3.3931   13.9367   -6.1862 H   0  0  0  0  0  0  0  0  0  0  0  0
   -4.9432   14.4192   -6.9548 H   0  0  0  0  0  0  0  0  0  0  0  0
   -4.9436   13.6877   -5.3142 H   0  0  0  0  0  0  0  0  0  0  0  0
  1  2  2  0  0  0  0
  1  4  1  0  0  0  0
  1 13  1  0  0  0  0
  2  6  1  0  0  0  0
  3  4  2  0  0  0  0
  3  5  1  0  0  0  0
  5  6  2  0  0  0  0
  5  9  1  0  0  0  0
  6  7  1  0  0  0  0
  7  8  1  0  0  0  0
  7 10  2  3  0  0  0
  8  9  2  0  0  0  0
 10 15  1  0  0  0  0
 11 12  1  0  0  0  0
 11 13  1  0  0  0  0
 13 14  2  0  0  0  0
 15 16  1  0  0  0  0
 15 20  1  0  0  0  0
 16 17  2  0  0  0  0
 17 18  1  0  0  0  0
 17 21  1  0  0  0  0
 18 19  2  0  0  0  0
 19 20  1  0  0  0  0
  2 22  1  0  0  0  0
  3 23  1  0  0  0  0
  4 24  1  0  0  0  0
 10 25  1  0  0  0  0
 11 26  1  0  0  0  0
 12 27  1  0  0  0  0
 12 28  1  0  0  0  0
 12 29  1  0  0  0  0
 15 30  1  0  0  0  0
 16 31  1  0  0  0  0
 18 32  1  0  0  0  0
 19 33  1  0  0  0  0
 20 34  1  0  0  0  0
 20 35  1  0  0  0  0
 21 36  1  0  0  0  0
 21 37  1  0  0  0  0
 21 38  1  0  0  0  0
M  END
> <Name>
16

> <IC50[uM]>
0.17

$$$$
16
  -OEChem-05192314333D
 Structure written by MMmdl.
 38 40  0     1  0  0  0  0  0999 V2000
   -6.3886   12.3706  -12.0044 C   0  0  0  0  0  0  0  0  0  0  0  0
   -6.5217   11.8105  -10.7338 C   0  0  0  0  0  0  0  0  0  0  0  0
   -7.7267   10.5778  -13.0331 C   0  0  0  0  0  0  0  0  0  0  0  0
   -6.9997   11.7772  -13.1264 C   0  0  0  0  0  0  0  0  0  0  0  0
   -7.8245   10.0105  -11.7588 C   0  0  0  0  0  0  0  0  0  0  0  0
   -7.2447   10.6240  -10.5997 C   0  0  0  0  0  0  0  0  0  0  0  0
   -7.6157    9.7479   -9.5130 C   0  0  3  0  0  0  0  0  0  0  0  0
   -8.2818    8.7335   -9.9900 N   0  0  0  0  0  0  0  0  0  0  0  0
   -8.4155    8.8614  -11.3010 N   0  0  0  0  0  0  0  0  0  0  0  0
   -7.3377    9.8874   -8.0251 C   0  0  0  0  0  0  0  0  0  0  0  0
   -4.4115   13.6449  -11.4457 N   0  0  0  0  0  0  0  0  0  0  0  0
   -3.4644   14.7678  -11.5034 C   0  0  0  0  0  0  0  0  0  0  0  0
   -5.5490   13.6243  -12.1808 C   0  0  0  0  0  0  0  0  0  0  0  0
   -5.8784   14.5204  -12.9613 O   0  0  0  0  0  0  0  0  0  0  0  0
   -5.9596   10.4818   -7.7362 C   0  0  0  0  0  0  0  0  0  0  0  0
   -5.8460   11.7538   -7.1602 C   0  0  0  0  0  0  0  0  0  0  0  0
   -4.5819   12.3007   -6.9160 C   0  0  0  0  0  0  0  0  0  0  0  0
   -3.4335   11.5746   -7.2403 C   0  0  0  0  0  0  0  0  0  0  0  0
   -3.5461   10.3067   -7.8068 C   0  0  0  0  0  0  0  0  0  0  0  0
   -4.8068    9.7600   -8.0558 C   0  0  0  0  0  0  0  0  0  0  0  0
   -4.4568   13.6807   -6.3006 C   0  0  0  0  0  0  0  0  0  0  0  0
   -6.0750   12.2846   -9.8724 H   0  0  0  0  0  0  0  0  0  0  0  0
   -8.1843   10.1199  -13.8976 H   0  0  0  0  0  0  0  0  0  0  0  0
   -6.9067   12.2589  -14.0885 H   0  0  0  0  0  0  0  0  0  0  0  0
   -6.6751    9.1915   -9.6382 H   0  0  0  0  0  0  0  0  0  0  0  0
   -8.0380    9.5979   -7.2556 H   0  0  0  0  0  0  0  0  0  0  0  0
   -4.2095   12.8717  -10.8446 H   0  0  0  0  0  0  0  0  0  0  0  0
   -2.6189   14.5701  -10.8280 H   0  0  0  0  0  0  0  0  0  0  0  0
   -3.0927   14.8813  -12.5325 H   0  0  0  0  0  0  0  0  0  0  0  0
   -3.9729   15.6925  -11.1931 H   0  0  0  0  0  0  0  0  0  0  0  0
   -6.7345   12.3122   -6.9047 H   0  0  0  0  0  0  0  0  0  0  0  0
   -2.4573   11.9965   -7.0517 H   0  0  0  0  0  0  0  0  0  0  0  0
   -2.6569    9.7457   -8.0538 H   0  0  0  0  0  0  0  0  0  0  0  0
   -4.8589    8.8150   -7.4951 H   0  0  0  0  0  0  0  0  0  0  0  0
   -4.8535    9.5494   -9.1344 H   0  0  0  0  0  0  0  0  0  0  0  0
   -3.3931   13.9367   -6.1862 H   0  0  0  0  0  0  0  0  0  0  0  0
   -4.9432   14.4192   -6.9548 H   0  0  0  0  0  0  0  0  0  0  0  0
   -4.9436   13.6877   -5.3142 H   0  0  0  0  0  0  0  0  0  0  0  0
  1  2  2  0  0  0  0
  1  4  1  0  0  0  0
  1 13  1  0  0  0  0
  2  6  1  0  0  0  0
  3  4  2  0  0  0  0
  3  5  1  0  0  0  0
  5  6  2  0  0  0  0
  5  9  1  0  0  0  0
  6  7  1  0  0  0  0
  7  8  1  0  0  0  0
  7 10  1  0  0  0  0
  8  9  2  0  0  0  0
 10 15  2  3  0  0  0
 11 12  1  0  0  0  0
 11 13  1  0  0  0  0
 13 14  2  0  0  0  0
 15 16  1  0  0  0  0
 15 20  1  0  0  0  0
 16 17  2  0  0  0  0
 17 18  1  0  0  0  0
 17 21  1  0  0  0  0
 18 19  2  0  0  0  0
 19 20  1  0  0  0  0
  2 22  1  0  0  0  0
  3 23  1  0  0  0  0
  4 24  1  0  0  0  0
  7 25  1  0  0  0  0
 10 26  1  0  0  0  0
 11 27  1  0  0  0  0
 12 28  1  0  0  0  0
 12 29  1  0  0  0  0
 12 30  1  0  0  0  0
 16 31  1  0  0  0  0
 18 32  1  0  0  0  0
 19 33  1  0  0  0  0
 20 34  1  0  0  0  0
 20 35  1  0  0  0  0
 21 36  1  0  0  0  0
 21 37  1  0  0  0  0
 21 38  1  0  0  0  0
M  END
> <Name>
16

> <IC50[uM]>
0.17

$$$$
16
  -OEChem-05192314333D
 Structure written by MMmdl.
 38 40  0     0  0  0  0  0  0999 V2000
   -6.3886   12.3706  -12.0044 C   0  0  0  0  0  0  0  0  0  0  0  0
   -6.5217   11.8105  -10.7338 C   0  0  0  0  0  0  0  0  0  0  0  0
   -7.7267   10.5778  -13.0331 C   0  0  0  0  0  0  0  0  0  0  0  0
   -6.9997   11.7772  -13.1264 C   0  0  0  0  0  0  0  0  0  0  0  0
   -7.8245   10.0105  -11.7588 C   0  0  0  0  0  0  0  0  0  0  0  0
   -7.2447   10.6240  -10.5997 C   0  0  0  0  0  0  0  0  0  0  0  0
   -7.6157    9.7479   -9.5130 C   0  0  0  0  0  0  0  0  0  0  0  0
   -8.2818    8.7335   -9.9900 N   0  0  0  0  0  0  0  0  0  0  0  0
   -8.4155    8.8614  -11.3010 N   0  0  0  0  0  0  0  0  0  0  0  0
   -7.3377    9.8874   -8.0251 C   0  0  0  0  0  0  0  0  0  0  0  0
   -4.4115   13.6449  -11.4457 N   0  0  0  0  0  0  0  0  0  0  0  0
   -3.4644   14.7678  -11.5034 C   0  0  0  0  0  0  0  0  0  0  0  0
   -5.5490   13.6243  -12.1808 C   0  0  0  0  0  0  0  0  0  0  0  0
   -5.8784   14.5204  -12.9613 O   0  0  0  0  0  0  0  0  0  0  0  0
   -5.9596   10.4818   -7.7362 C   0  0  0  0  0  0  0  0  0  0  0  0
   -5.8460   11.7538   -7.1602 C   0  0  0  0  0  0  0  0  0  0  0  0
   -4.5819   12.3007   -6.9160 C   0  0  0  0  0  0  0  0  0  0  0  0
   -3.4335   11.5746   -7.2403 C   0  0  0  0  0  0  0  0  0  0  0  0
   -3.5461   10.3067   -7.8068 C   0  0  0  0  0  0  0  0  0  0  0  0
   -4.8068    9.7600   -8.0558 C   0  0  0  0  0  0  0  0  0  0  0  0
   -4.4568   13.6807   -6.3006 C   0  0  0  0  0  0  0  0  0  0  0  0
   -6.0750   12.2846   -9.8724 H   0  0  0  0  0  0  0  0  0  0  0  0
   -8.1843   10.1199  -13.8976 H   0  0  0  0  0  0  0  0  0  0  0  0
   -6.9067   12.2589  -14.0885 H   0  0  0  0  0  0  0  0  0  0  0  0
   -8.0380    9.5979   -7.2556 H   0  0  0  0  0  0  0  0  0  0  0  0
   -4.2095   12.8717  -10.8446 H   0  0  0  0  0  0  0  0  0  0  0  0
   -2.6189   14.5701  -10.8280 H   0  0  0  0  0  0  0  0  0  0  0  0
   -3.0927   14.8813  -12.5325 H   0  0  0  0  0  0  0  0  0  0  0  0
   -3.9729   15.6925  -11.1931 H   0  0  0  0  0  0  0  0  0  0  0  0
   -6.7345   12.3122   -6.9047 H   0  0  0  0  0  0  0  0  0  0  0  0
   -2.4573   11.9965   -7.0517 H   0  0  0  0  0  0  0  0  0  0  0  0
   -3.0200   10.3430   -8.7722 H   0  0  0  0  0  0  0  0  0  0  0  0
   -3.0264    9.6107   -7.1319 H   0  0  0  0  0  0  0  0  0  0  0  0
   -4.8589    8.8150   -7.4951 H   0  0  0  0  0  0  0  0  0  0  0  0
   -4.8535    9.5494   -9.1344 H   0  0  0  0  0  0  0  0  0  0  0  0
   -3.3931   13.9367   -6.1862 H   0  0  0  0  0  0  0  0  0  0  0  0
   -4.9432   14.4192   -6.9548 H   0  0  0  0  0  0  0  0  0  0  0  0
   -4.9436   13.6877   -5.3142 H   0  0  0  0  0  0  0  0  0  0  0  0
  1  2  2  0  0  0  0
  1  4  1  0  0  0  0
  1 13  1  0  0  0  0
  2  6  1  0  0  0  0
  3  4  2  0  0  0  0
  3  5  1  0  0  0  0
  5  6  2  0  0  0  0
  5  9  1  0  0  0  0
  6  7  1  0  0  0  0
  7  8  1  0  0  0  0
  7 10  2  3  0  0  0
  8  9  2  0  0  0  0
 10 15  1  0  0  0  0
 11 12  1  0  0  0  0
 11 13  1  0  0  0  0
 13 14  2  0  0  0  0
 15 16  2  0  0  0  0
 15 20  1  0  0  0  0
 16 17  1  0  0  0  0
 17 18  2  0  0  0  0
 17 21  1  0  0  0  0
 18 19  1  0  0  0  0
 19 20  1  0  0  0  0
  2 22  1  0  0  0  0
  3 23  1  0  0  0  0
  4 24  1  0  0  0  0
 10 25  1  0  0  0  0
 11 26  1  0  0  0  0
 12 27  1  0  0  0  0
 12 28  1  0  0  0  0
 12 29  1  0  0  0  0
 16 30  1  0  0  0  0
 18 31  1  0  0  0  0
 19 32  1  0  0  0  0
 19 33  1  0  0  0  0
 20 34  1  0  0  0  0
 20 35  1  0  0  0  0
 21 36  1  0  0  0  0
 21 37  1  0  0  0  0
 21 38  1  0  0  0  0
M  END
> <Name>
16

> <IC50[uM]>
0.17

$$$$
16
  -OEChem-05192314333D
 Structure written by MMmdl.
 38 40  0     1  0  0  0  0  0999 V2000
   -6.3886   12.3706  -12.0044 C   0  0  0  0  0  0  0  0  0  0  0  0
   -6.5217   11.8105  -10.7338 C   0  0  0  0  0  0  0  0  0  0  0  0
   -7.7267   10.5778  -13.0331 C   0  0  0  0  0  0  0  0  0  0  0  0
   -6.9997   11.7772  -13.1264 C   0  0  0  0  0  0  0  0  0  0  0  0
   -7.8245   10.0105  -11.7588 C   0  0  0  0  0  0  0  0  0  0  0  0
   -7.2447   10.6240  -10.5997 C   0  0  0  0  0  0  0  0  0  0  0  0
   -7.6157    9.7479   -9.5130 C   0  0  0  0  0  0  0  0  0  0  0  0
   -8.2818    8.7335   -9.9900 N   0  0  0  0  0  0  0  0  0  0  0  0
   -8.4155    8.8614  -11.3010 N   0  0  0  0  0  0  0  0  0  0  0  0
   -7.3377    9.8874   -8.0251 C   0  0  0  0  0  0  0  0  0  0  0  0
   -4.4115   13.6449  -11.4457 N   0  0  0  0  0  0  0  0  0  0  0  0
   -3.4644   14.7678  -11.5034 C   0  0  0  0  0  0  0  0  0  0  0  0
   -5.5490   13.6243  -12.1808 C   0  0  0  0  0  0  0  0  0  0  0  0
   -5.8784   14.5204  -12.9613 O   0  0  0  0  0  0  0  0  0  0  0  0
   -5.9596   10.4818   -7.7362 C   0  0  0  0  0  0  0  0  0  0  0  0
   -5.8460   11.7538   -7.1602 C   0  0  0  0  0  0  0  0  0  0  0  0
   -4.5819   12.3007   -6.9160 C   0  0  3  0  0  0  0  0  0  0  0  0
   -3.4335   11.5746   -7.2403 C   0  0  0  0  0  0  0  0  0  0  0  0
   -3.5461   10.3067   -7.8068 C   0  0  0  0  0  0  0  0  0  0  0  0
   -4.8068    9.7600   -8.0558 C   0  0  0  0  0  0  0  0  0  0  0  0
   -4.4568   13.6807   -6.3006 C   0  0  0  0  0  0  0  0  0  0  0  0
   -6.0750   12.2846   -9.8724 H   0  0  0  0  0  0  0  0  0  0  0  0
   -8.1843   10.1199  -13.8976 H   0  0  0  0  0  0  0  0  0  0  0  0
   -6.9067   12.2589  -14.0885 H   0  0  0  0  0  0  0  0  0  0  0  0
   -8.0380    9.5979   -7.2556 H   0  0  0  0  0  0  0  0  0  0  0  0
   -4.2095   12.8717  -10.8446 H   0  0  0  0  0  0  0  0  0  0  0  0
   -2.6189   14.5701  -10.8280 H   0  0  0  0  0  0  0  0  0  0  0  0
   -3.0927   14.8813  -12.5325 H   0  0  0  0  0  0  0  0  0  0  0  0
   -3.9729   15.6925  -11.1931 H   0  0  0  0  0  0  0  0  0  0  0  0
   -6.7345   12.3122   -6.9047 H   0  0  0  0  0  0  0  0  0  0  0  0
   -4.5818   11.8525   -5.9114 H   0  0  0  0  0  0  0  0  0  0  0  0
   -2.8594   12.1890   -7.9494 H   0  0  0  0  0  0  0  0  0  0  0  0
   -2.8596   11.4563   -6.3094 H   0  0  0  0  0  0  0  0  0  0  0  0
   -2.6569    9.7457   -8.0538 H   0  0  0  0  0  0  0  0  0  0  0  0
   -4.8908    8.7775   -8.4962 H   0  0  0  0  0  0  0  0  0  0  0  0
   -3.3931   13.9367   -6.1862 H   0  0  0  0  0  0  0  0  0  0  0  0
   -4.9432   14.4192   -6.9548 H   0  0  0  0  0  0  0  0  0  0  0  0
   -4.9436   13.6877   -5.3142 H   0  0  0  0  0  0  0  0  0  0  0  0
  1  2  2  0  0  0  0
  1  4  1  0  0  0  0
  1 13  1  0  0  0  0
  2  6  1  0  0  0  0
  3  4  2  0  0  0  0
  3  5  1  0  0  0  0
  5  6  2  0  0  0  0
  5  9  1  0  0  0  0
  6  7  1  0  0  0  0
  7  8  1  0  0  0  0
  7 10  2  3  0  0  0
  8  9  2  0  0  0  0
 10 15  1  0  0  0  0
 11 12  1  0  0  0  0
 11 13  1  0  0  0  0
 13 14  2  0  0  0  0
 15 16  2  0  0  0  0
 15 20  1  0  0  0  0
 16 17  1  0  0  0  0
 17 18  1  0  0  0  0
 17 21  1  0  0  0  0
 18 19  1  0  0  0  0
 19 20  2  0  0  0  0
  2 22  1  0  0  0  0
  3 23  1  0  0  0  0
  4 24  1  0  0  0  0
 10 25  1  0  0  0  0
 11 26  1  0  0  0  0
 12 27  1  0  0  0  0
 12 28  1  0  0  0  0
 12 29  1  0  0  0  0
 16 30  1  0  0  0  0
 17 31  1  0  0  0  0
 18 32  1  0  0  0  0
 18 33  1  0  0  0  0
 19 34  1  0  0  0  0
 20 35  1  0  0  0  0
 21 36  1  0  0  0  0
 21 37  1  0  0  0  0
 21 38  1  0  0  0  0
M  END
> <Name>
16

> <IC50[uM]>
0.17

$$$$
16
  -OEChem-05192314333D
 Structure written by MMmdl.
 38 40  0     1  0  0  0  0  0999 V2000
   -6.3886   12.3706  -12.0044 C   0  0  0  0  0  0  0  0  0  0  0  0
   -6.5217   11.8105  -10.7338 C   0  0  0  0  0  0  0  0  0  0  0  0
   -7.7267   10.5778  -13.0331 C   0  0  0  0  0  0  0  0  0  0  0  0
   -6.9997   11.7772  -13.1264 C   0  0  0  0  0  0  0  0  0  0  0  0
   -7.8245   10.0105  -11.7588 C   0  0  0  0  0  0  0  0  0  0  0  0
   -7.2447   10.6240  -10.5997 C   0  0  0  0  0  0  0  0  0  0  0  0
   -7.6157    9.7479   -9.5130 C   0  0  0  0  0  0  0  0  0  0  0  0
   -8.2818    8.7335   -9.9900 N   0  0  0  0  0  0  0  0  0  0  0  0
   -8.4155    8.8614  -11.3010 N   0  0  0  0  0  0  0  0  0  0  0  0
   -7.3377    9.8874   -8.0251 C   0  0  0  0  0  0  0  0  0  0  0  0
   -4.4115   13.6449  -11.4457 N   0  0  0  0  0  0  0  0  0  0  0  0
   -3.4644   14.7678  -11.5034 C   0  0  0  0  0  0  0  0  0  0  0  0
   -5.5490   13.6243  -12.1808 C   0  0  0  0  0  0  0  0  0  0  0  0
   -5.8784   14.5204  -12.9613 O   0  0  0  0  0  0  0  0  0  0  0  0
   -5.9596   10.4818   -7.7362 C   0  0  3  0  0  0  0  0  0  0  0  0
   -5.8460   11.7538   -7.1602 C   0  0  0  0  0  0  0  0  0  0  0  0
   -4.5819   12.3007   -6.9160 C   0  0  0  0  0  0  0  0  0  0  0  0
   -3.4335   11.5746   -7.2403 C   0  0  0  0  0  0  0  0  0  0  0  0
   -3.5461   10.3067   -7.8068 C   0  0  0  0  0  0  0  0  0  0  0  0
   -4.8068    9.7600   -8.0558 C   0  0  0  0  0  0  0  0  0  0  0  0
   -4.4568   13.6807   -6.3006 C   0  0  0  0  0  0  0  0  0  0  0  0
   -6.0750   12.2846   -9.8724 H   0  0  0  0  0  0  0  0  0  0  0  0
   -8.1843   10.1199  -13.8976 H   0  0  0  0  0  0  0  0  0  0  0  0
   -6.9067   12.2589  -14.0885 H   0  0  0  0  0  0  0  0  0  0  0  0
   -8.0380    9.5979   -7.2556 H   0  0  0  0  0  0  0  0  0  0  0  0
   -4.2095   12.8717  -10.8446 H   0  0  0  0  0  0  0  0  0  0  0  0
   -2.6189   14.5701  -10.8280 H   0  0  0  0  0  0  0  0  0  0  0  0
   -3.0927   14.8813  -12.5325 H   0  0  0  0  0  0  0  0  0  0  0  0
   -3.9729   15.6925  -11.1931 H   0  0  0  0  0  0  0  0  0  0  0  0
   -5.9704   10.0264   -6.7349 H   0  0  0  0  0  0  0  0  0  0  0  0
   -6.7345   12.3122   -6.9047 H   0  0  0  0  0  0  0  0  0  0  0  0
   -2.8594   12.1890   -7.9494 H   0  0  0  0  0  0  0  0  0  0  0  0
   -2.8596   11.4563   -6.3094 H   0  0  0  0  0  0  0  0  0  0  0  0
   -2.6569    9.7457   -8.0538 H   0  0  0  0  0  0  0  0  0  0  0  0
   -4.8908    8.7775   -8.4962 H   0  0  0  0  0  0  0  0  0  0  0  0
   -3.3931   13.9367   -6.1862 H   0  0  0  0  0  0  0  0  0  0  0  0
   -4.9432   14.4192   -6.9548 H   0  0  0  0  0  0  0  0  0  0  0  0
   -4.9436   13.6877   -5.3142 H   0  0  0  0  0  0  0  0  0  0  0  0
  1  2  2  0  0  0  0
  1  4  1  0  0  0  0
  1 13  1  0  0  0  0
  2  6  1  0  0  0  0
  3  4  2  0  0  0  0
  3  5  1  0  0  0  0
  5  6  2  0  0  0  0
  5  9  1  0  0  0  0
  6  7  1  0  0  0  0
  7  8  1  0  0  0  0
  7 10  2  3  0  0  0
  8  9  2  0  0  0  0
 10 15  1  0  0  0  0
 11 12  1  0  0  0  0
 11 13  1  0  0  0  0
 13 14  2  0  0  0  0
 15 16  1  0  0  0  0
 15 20  1  0  0  0  0
 16 17  2  0  0  0  0
 17 18  1  0  0  0  0
 17 21  1  0  0  0  0
 18 19  1  0  0  0  0
 19 20  2  0  0  0  0
  2 22  1  0  0  0  0
  3 23  1  0  0  0  0
  4 24  1  0  0  0  0
 10 25  1  0  0  0  0
 11 26  1  0  0  0  0
 12 27  1  0  0  0  0
 12 28  1  0  0  0  0
 12 29  1  0  0  0  0
 15 30  1  0  0  0  0
 16 31  1  0  0  0  0
 18 32  1  0  0  0  0
 18 33  1  0  0  0  0
 19 34  1  0  0  0  0
 20 35  1  0  0  0  0
 21 36  1  0  0  0  0
 21 37  1  0  0  0  0
 21 38  1  0  0  0  0
M  END
> <Name>
16

> <IC50[uM]>
0.17

$$$$
16
  -OEChem-05192314333D
 Structure written by MMmdl.
 38 40  0     1  0  0  0  0  0999 V2000
   -6.3886   12.3706  -12.0044 C   0  0  0  0  0  0  0  0  0  0  0  0
   -6.5217   11.8105  -10.7338 C   0  0  0  0  0  0  0  0  0  0  0  0
   -7.7267   10.5778  -13.0331 C   0  0  0  0  0  0  0  0  0  0  0  0
   -6.9997   11.7772  -13.1264 C   0  0  0  0  0  0  0  0  0  0  0  0
   -7.8245   10.0105  -11.7588 C   0  0  0  0  0  0  0  0  0  0  0  0
   -7.2447   10.6240  -10.5997 C   0  0  0  0  0  0  0  0  0  0  0  0
   -7.6157    9.7479   -9.5130 C   0  0  3  0  0  0  0  0  0  0  0  0
   -8.2818    8.7335   -9.9900 N   0  0  0  0  0  0  0  0  0  0  0  0
   -8.4155    8.8614  -11.3010 N   0  0  0  0  0  0  0  0  0  0  0  0
   -7.3377    9.8874   -8.0251 C   0  0  0  0  0  0  0  0  0  0  0  0
   -4.4115   13.6449  -11.4457 N   0  0  0  0  0  0  0  0  0  0  0  0
   -3.4644   14.7678  -11.5034 C   0  0  0  0  0  0  0  0  0  0  0  0
   -5.5490   13.6243  -12.1808 C   0  0  0  0  0  0  0  0  0  0  0  0
   -5.8784   14.5204  -12.9613 O   0  0  0  0  0  0  0  0  0  0  0  0
   -5.9596   10.4818   -7.7362 C   0  0  0  0  0  0  0  0  0  0  0  0
   -5.8460   11.7538   -7.1602 C   0  0  0  0  0  0  0  0  0  0  0  0
   -4.5819   12.3007   -6.9160 C   0  0  0  0  0  0  0  0  0  0  0  0
   -3.4335   11.5746   -7.2403 C   0  0  0  0  0  0  0  0  0  0  0  0
   -3.5461   10.3067   -7.8068 C   0  0  0  0  0  0  0  0  0  0  0  0
   -4.8068    9.7600   -8.0558 C   0  0  0  0  0  0  0  0  0  0  0  0
   -4.4568   13.6807   -6.3006 C   0  0  0  0  0  0  0  0  0  0  0  0
   -6.0750   12.2846   -9.8724 H   0  0  0  0  0  0  0  0  0  0  0  0
   -8.1843   10.1199  -13.8976 H   0  0  0  0  0  0  0  0  0  0  0  0
   -6.9067   12.2589  -14.0885 H   0  0  0  0  0  0  0  0  0  0  0  0
   -6.6751    9.1915   -9.6382 H   0  0  0  0  0  0  0  0  0  0  0  0
   -8.0380    9.5979   -7.2556 H   0  0  0  0  0  0  0  0  0  0  0  0
   -4.2095   12.8717  -10.8446 H   0  0  0  0  0  0  0  0  0  0  0  0
   -2.6189   14.5701  -10.8280 H   0  0  0  0  0  0  0  0  0  0  0  0
   -3.0927   14.8813  -12.5325 H   0  0  0  0  0  0  0  0  0  0  0  0
   -3.9729   15.6925  -11.1931 H   0  0  0  0  0  0  0  0  0  0  0  0
   -6.7345   12.3122   -6.9047 H   0  0  0  0  0  0  0  0  0  0  0  0
   -2.8594   12.1890   -7.9494 H   0  0  0  0  0  0  0  0  0  0  0  0
   -2.8596   11.4563   -6.3094 H   0  0  0  0  0  0  0  0  0  0  0  0
   -2.6569    9.7457   -8.0538 H   0  0  0  0  0  0  0  0  0  0  0  0
   -4.8908    8.7775   -8.4962 H   0  0  0  0  0  0  0  0  0  0  0  0
   -3.3931   13.9367   -6.1862 H   0  0  0  0  0  0  0  0  0  0  0  0
   -4.9432   14.4192   -6.9548 H   0  0  0  0  0  0  0  0  0  0  0  0
   -4.9436   13.6877   -5.3142 H   0  0  0  0  0  0  0  0  0  0  0  0
  1  2  2  0  0  0  0
  1  4  1  0  0  0  0
  1 13  1  0  0  0  0
  2  6  1  0  0  0  0
  3  4  2  0  0  0  0
  3  5  1  0  0  0  0
  5  6  2  0  0  0  0
  5  9  1  0  0  0  0
  6  7  1  0  0  0  0
  7  8  1  0  0  0  0
  7 10  1  0  0  0  0
  8  9  2  0  0  0  0
 10 15  2  3  0  0  0
 11 12  1  0  0  0  0
 11 13  1  0  0  0  0
 13 14  2  0  0  0  0
 15 16  1  0  0  0  0
 15 20  1  0  0  0  0
 16 17  2  0  0  0  0
 17 18  1  0  0  0  0
 17 21  1  0  0  0  0
 18 19  1  0  0  0  0
 19 20  2  0  0  0  0
  2 22  1  0  0  0  0
  3 23  1  0  0  0  0
  4 24  1  0  0  0  0
  7 25  1  0  0  0  0
 10 26  1  0  0  0  0
 11 27  1  0  0  0  0
 12 28  1  0  0  0  0
 12 29  1  0  0  0  0
 12 30  1  0  0  0  0
 16 31  1  0  0  0  0
 18 32  1  0  0  0  0
 18 33  1  0  0  0  0
 19 34  1  0  0  0  0
 20 35  1  0  0  0  0
 21 36  1  0  0  0  0
 21 37  1  0  0  0  0
 21 38  1  0  0  0  0
M  END
> <Name>
16

> <IC50[uM]>
0.17

$$$$
16
  -OEChem-05192314333D
 Structure written by MMmdl.
 38 40  0     0  0  0  0  0  0999 V2000
   -6.3886   12.3706  -12.0044 C   0  0  0  0  0  0  0  0  0  0  0  0
   -6.5217   11.8105  -10.7338 C   0  0  0  0  0  0  0  0  0  0  0  0
   -7.7267   10.5778  -13.0331 C   0  0  0  0  0  0  0  0  0  0  0  0
   -6.9997   11.7772  -13.1264 C   0  0  0  0  0  0  0  0  0  0  0  0
   -7.8245   10.0105  -11.7588 C   0  0  0  0  0  0  0  0  0  0  0  0
   -7.2447   10.6240  -10.5997 C   0  0  0  0  0  0  0  0  0  0  0  0
   -7.6157    9.7479   -9.5130 C   0  0  0  0  0  0  0  0  0  0  0  0
   -8.2818    8.7335   -9.9900 N   0  0  0  0  0  0  0  0  0  0  0  0
   -8.4155    8.8614  -11.3010 N   0  0  0  0  0  0  0  0  0  0  0  0
   -7.3377    9.8874   -8.0251 C   0  0  0  0  0  0  0  0  0  0  0  0
   -4.4115   13.6449  -11.4457 N   0  0  0  0  0  0  0  0  0  0  0  0
   -3.4644   14.7678  -11.5034 C   0  0  0  0  0  0  0  0  0  0  0  0
   -5.5490   13.6243  -12.1808 C   0  0  0  0  0  0  0  0  0  0  0  0
   -5.8784   14.5204  -12.9613 O   0  0  0  0  0  0  0  0  0  0  0  0
   -5.9596   10.4818   -7.7362 C   0  0  0  0  0  0  0  0  0  0  0  0
   -5.8460   11.7538   -7.1602 C   0  0  0  0  0  0  0  0  0  0  0  0
   -4.5819   12.3007   -6.9160 C   0  0  0  0  0  0  0  0  0  0  0  0
   -3.4335   11.5746   -7.2403 C   0  0  0  0  0  0  0  0  0  0  0  0
   -3.5461   10.3067   -7.8068 C   0  0  0  0  0  0  0  0  0  0  0  0
   -4.8068    9.7600   -8.0558 C   0  0  0  0  0  0  0  0  0  0  0  0
   -4.4568   13.6807   -6.3006 C   0  0  0  0  0  0  0  0  0  0  0  0
   -6.0750   12.2846   -9.8724 H   0  0  0  0  0  0  0  0  0  0  0  0
   -8.1843   10.1199  -13.8976 H   0  0  0  0  0  0  0  0  0  0  0  0
   -6.9067   12.2589  -14.0885 H   0  0  0  0  0  0  0  0  0  0  0  0
   -8.0380    9.5979   -7.2556 H   0  0  0  0  0  0  0  0  0  0  0  0
   -4.2095   12.8717  -10.8446 H   0  0  0  0  0  0  0  0  0  0  0  0
   -2.6189   14.5701  -10.8280 H   0  0  0  0  0  0  0  0  0  0  0  0
   -3.0927   14.8813  -12.5325 H   0  0  0  0  0  0  0  0  0  0  0  0
   -3.9729   15.6925  -11.1931 H   0  0  0  0  0  0  0  0  0  0  0  0
   -6.7345   12.3122   -6.9047 H   0  0  0  0  0  0  0  0  0  0  0  0
   -2.8594   12.1890   -7.9494 H   0  0  0  0  0  0  0  0  0  0  0  0
   -2.8596   11.4563   -6.3094 H   0  0  0  0  0  0  0  0  0  0  0  0
   -3.0200   10.3430   -8.7722 H   0  0  0  0  0  0  0  0  0  0  0  0
   -3.0264    9.6107   -7.1319 H   0  0  0  0  0  0  0  0  0  0  0  0
   -4.8908    8.7775   -8.4962 H   0  0  0  0  0  0  0  0  0  0  0  0
   -3.3931   13.9367   -6.1862 H   0  0  0  0  0  0  0  0  0  0  0  0
   -4.9432   14.4192   -6.9548 H   0  0  0  0  0  0  0  0  0  0  0  0
   -4.9436   13.6877   -5.3142 H   0  0  0  0  0  0  0  0  0  0  0  0
  1  2  2  0  0  0  0
  1  4  1  0  0  0  0
  1 13  1  0  0  0  0
  2  6  1  0  0  0  0
  3  4  2  0  0  0  0
  3  5  1  0  0  0  0
  5  6  2  0  0  0  0
  5  9  1  0  0  0  0
  6  7  1  0  0  0  0
  7  8  1  0  0  0  0
  7 10  2  3  0  0  0
  8  9  2  0  0  0  0
 10 15  1  0  0  0  0
 11 12  1  0  0  0  0
 11 13  1  0  0  0  0
 13 14  2  0  0  0  0
 15 16  1  0  0  0  0
 15 20  2  0  0  0  0
 16 17  2  0  0  0  0
 17 18  1  0  0  0  0
 17 21  1  0  0  0  0
 18 19  1  0  0  0  0
 19 20  1  0  0  0  0
  2 22  1  0  0  0  0
  3 23  1  0  0  0  0
  4 24  1  0  0  0  0
 10 25  1  0  0  0  0
 11 26  1  0  0  0  0
 12 27  1  0  0  0  0
 12 28  1  0  0  0  0
 12 29  1  0  0  0  0
 16 30  1  0  0  0  0
 18 31  1  0  0  0  0
 18 32  1  0  0  0  0
 19 33  1  0  0  0  0
 19 34  1  0  0  0  0
 20 35  1  0  0  0  0
 21 36  1  0  0  0  0
 21 37  1  0  0  0  0
 21 38  1  0  0  0  0
M  END
> <Name>
16

> <IC50[uM]>
0.17

$$$$
16
  -OEChem-05192314333D
 Structure written by MMmdl.
 38 40  0     1  0  0  0  0  0999 V2000
   -6.3886   12.3706  -12.0044 C   0  0  3  0  0  0  0  0  0  0  0  0
   -6.5217   11.8105  -10.7338 C   0  0  0  0  0  0  0  0  0  0  0  0
   -7.7267   10.5778  -13.0331 C   0  0  0  0  0  0  0  0  0  0  0  0
   -6.9997   11.7772  -13.1264 C   0  0  0  0  0  0  0  0  0  0  0  0
   -7.8245   10.0105  -11.7588 C   0  0  0  0  0  0  0  0  0  0  0  0
   -7.2447   10.6240  -10.5997 C   0  0  0  0  0  0  0  0  0  0  0  0
   -7.6157    9.7479   -9.5130 C   0  0  0  0  0  0  0  0  0  0  0  0
   -8.2818    8.7335   -9.9900 N   0  0  0  0  0  0  0  0  0  0  0  0
   -8.4155    8.8614  -11.3010 N   0  0  0  0  0  0  0  0  0  0  0  0
   -7.3377    9.8874   -8.0251 C   0  0  0  0  0  0  0  0  0  0  0  0
   -4.4115   13.6449  -11.4457 N   0  0  0  0  0  0  0  0  0  0  0  0
   -3.4644   14.7678  -11.5034 C   0  0  0  0  0  0  0  0  0  0  0  0
   -5.5490   13.6243  -12.1808 C   0  0  0  0  0  0  0  0  0  0  0  0
   -5.8784   14.5204  -12.9613 O   0  0  0  0  0  0  0  0  0  0  0  0
   -5.9596   10.4818   -7.7362 C   0  0  0  0  0  0  0  0  0  0  0  0
   -5.8460   11.7538   -7.1602 C   0  0  0  0  0  0  0  0  0  0  0  0
   -4.5819   12.3007   -6.9160 C   0  0  0  0  0  0  0  0  0  0  0  0
   -3.4335   11.5746   -7.2403 C   0  0  0  0  0  0  0  0  0  0  0  0
   -3.5461   10.3067   -7.8068 C   0  0  0  0  0  0  0  0  0  0  0  0
   -4.8068    9.7600   -8.0558 C   0  0  0  0  0  0  0  0  0  0  0  0
   -4.4568   13.6807   -6.3006 C   0  0  0  0  0  0  0  0  0  0  0  0
   -7.2839   12.9866  -11.8341 H   0  0  0  0  0  0  0  0  0  0  0  0
   -5.5067   11.6162  -10.3570 H   0  0  0  0  0  0  0  0  0  0  0  0
   -7.0113   12.5624  -10.0975 H   0  0  0  0  0  0  0  0  0  0  0  0
   -8.1843   10.1199  -13.8976 H   0  0  0  0  0  0  0  0  0  0  0  0
   -6.9067   12.2589  -14.0885 H   0  0  0  0  0  0  0  0  0  0  0  0
   -8.0380    9.5979   -7.2556 H   0  0  0  0  0  0  0  0  0  0  0  0
   -4.2095   12.8717  -10.8446 H   0  0  0  0  0  0  0  0  0  0  0  0
   -2.6189   14.5701  -10.8280 H   0  0  0  0  0  0  0  0  0  0  0  0
   -3.0927   14.8813  -12.5325 H   0  0  0  0  0  0  0  0  0  0  0  0
   -3.9729   15.6925  -11.1931 H   0  0  0  0  0  0  0  0  0  0  0  0
   -6.7345   12.3122   -6.9047 H   0  0  0  0  0  0  0  0  0  0  0  0
   -2.4573   11.9965   -7.0517 H   0  0  0  0  0  0  0  0  0  0  0  0
   -2.6569    9.7457   -8.0538 H   0  0  0  0  0  0  0  0  0  0  0  0
   -4.8908    8.7775   -8.4962 H   0  0  0  0  0  0  0  0  0  0  0  0
   -4.4264   13.5926   -5.2046 H   0  0  0  0  0  0  0  0  0  0  0  0
   -3.5315   14.1579   -6.6557 H   0  0  0  0  0  0  0  0  0  0  0  0
   -5.3217   14.2932   -6.5953 H   0  0  0  0  0  0  0  0  0  0  0  0
  1  2  1  0  0  0  0
  1  4  1  0  0  0  0
  1 13  1  0  0  0  0
  2  6  1  0  0  0  0
  3  4  2  0  0  0  0
  3  5  1  0  0  0  0
  5  6  2  0  0  0  0
  5  9  1  0  0  0  0
  6  7  1  0  0  0  0
  7  8  1  0  0  0  0
  7 10  2  3  0  0  0
  8  9  2  0  0  0  0
 10 15  1  0  0  0  0
 11 12  1  0  0  0  0
 11 13  1  0  0  0  0
 13 14  2  0  0  0  0
 15 16  2  0  0  0  0
 15 20  1  0  0  0  0
 16 17  1  0  0  0  0
 17 18  2  0  0  0  0
 17 21  1  0  0  0  0
 18 19  1  0  0  0  0
 19 20  2  0  0  0  0
  1 22  1  0  0  0  0
  2 23  1  0  0  0  0
  2 24  1  0  0  0  0
  3 25  1  0  0  0  0
  4 26  1  0  0  0  0
 10 27  1  0  0  0  0
 11 28  1  0  0  0  0
 12 29  1  0  0  0  0
 12 30  1  0  0  0  0
 12 31  1  0  0  0  0
 16 32  1  0  0  0  0
 18 33  1  0  0  0  0
 19 34  1  0  0  0  0
 20 35  1  0  0  0  0
 21 36  1  0  0  0  0
 21 37  1  0  0  0  0
 21 38  1  0  0  0  0
M  END
> <Name>
16

> <IC50[uM]>
0.17

$$$$
16
  -OEChem-05192314333D
 Structure written by MMmdl.
 38 40  0     1  0  0  0  0  0999 V2000
   -6.3886   12.3706  -12.0044 C   0  0  0  0  0  0  0  0  0  0  0  0
   -6.5217   11.8105  -10.7338 C   0  0  0  0  0  0  0  0  0  0  0  0
   -7.7267   10.5778  -13.0331 C   0  0  0  0  0  0  0  0  0  0  0  0
   -6.9997   11.7772  -13.1264 C   0  0  0  0  0  0  0  0  0  0  0  0
   -7.8245   10.0105  -11.7588 C   0  0  0  0  0  0  0  0  0  0  0  0
   -7.2447   10.6240  -10.5997 C   0  0  3  0  0  0  0  0  0  0  0  0
   -7.6157    9.7479   -9.5130 C   0  0  0  0  0  0  0  0  0  0  0  0
   -8.2818    8.7335   -9.9900 N   0  0  0  0  0  0  0  0  0  0  0  0
   -8.4155    8.8614  -11.3010 N   0  0  0  0  0  0  0  0  0  0  0  0
   -7.3377    9.8874   -8.0251 C   0  0  0  0  0  0  0  0  0  0  0  0
   -4.4115   13.6449  -11.4457 N   0  0  0  0  0  0  0  0  0  0  0  0
   -3.4644   14.7678  -11.5034 C   0  0  0  0  0  0  0  0  0  0  0  0
   -5.5490   13.6243  -12.1808 C   0  0  0  0  0  0  0  0  0  0  0  0
   -5.8784   14.5204  -12.9613 O   0  0  0  0  0  0  0  0  0  0  0  0
   -5.9596   10.4818   -7.7362 C   0  0  0  0  0  0  0  0  0  0  0  0
   -5.8460   11.7538   -7.1602 C   0  0  0  0  0  0  0  0  0  0  0  0
   -4.5819   12.3007   -6.9160 C   0  0  0  0  0  0  0  0  0  0  0  0
   -3.4335   11.5746   -7.2403 C   0  0  0  0  0  0  0  0  0  0  0  0
   -3.5461   10.3067   -7.8068 C   0  0  0  0  0  0  0  0  0  0  0  0
   -4.8068    9.7600   -8.0558 C   0  0  0  0  0  0  0  0  0  0  0  0
   -4.4568   13.6807   -6.3006 C   0  0  0  0  0  0  0  0  0  0  0  0
   -5.5067   11.6162  -10.3570 H   0  0  0  0  0  0  0  0  0  0  0  0
   -7.0113   12.5624  -10.0975 H   0  0  0  0  0  0  0  0  0  0  0  0
   -8.1843   10.1199  -13.8976 H   0  0  0  0  0  0  0  0  0  0  0  0
   -6.9067   12.2589  -14.0885 H   0  0  0  0  0  0  0  0  0  0  0  0
   -6.3227   10.0441  -10.7532 H   0  0  0  0  0  0  0  0  0  0  0  0
   -8.0380    9.5979   -7.2556 H   0  0  0  0  0  0  0  0  0  0  0  0
   -4.2095   12.8717  -10.8446 H   0  0  0  0  0  0  0  0  0  0  0  0
   -2.6189   14.5701  -10.8280 H   0  0  0  0  0  0  0  0  0  0  0  0
   -3.0927   14.8813  -12.5325 H   0  0  0  0  0  0  0  0  0  0  0  0
   -3.9729   15.6925  -11.1931 H   0  0  0  0  0  0  0  0  0  0  0  0
   -6.7345   12.3122   -6.9047 H   0  0  0  0  0  0  0  0  0  0  0  0
   -2.4573   11.9965   -7.0517 H   0  0  0  0  0  0  0  0  0  0  0  0
   -2.6569    9.7457   -8.0538 H   0  0  0  0  0  0  0  0  0  0  0  0
   -4.8908    8.7775   -8.4962 H   0  0  0  0  0  0  0  0  0  0  0  0
   -4.4264   13.5926   -5.2046 H   0  0  0  0  0  0  0  0  0  0  0  0
   -3.5315   14.1579   -6.6557 H   0  0  0  0  0  0  0  0  0  0  0  0
   -5.3217   14.2932   -6.5953 H   0  0  0  0  0  0  0  0  0  0  0  0
  1  2  1  0  0  0  0
  1  4  2  0  0  0  0
  1 13  1  0  0  0  0
  2  6  1  0  0  0  0
  3  4  1  0  0  0  0
  3  5  2  0  0  0  0
  5  6  1  0  0  0  0
  5  9  1  0  0  0  0
  6  7  1  0  0  0  0
  7  8  1  0  0  0  0
  7 10  2  3  0  0  0
  8  9  2  0  0  0  0
 10 15  1  0  0  0  0
 11 12  1  0  0  0  0
 11 13  1  0  0  0  0
 13 14  2  0  0  0  0
 15 16  2  0  0  0  0
 15 20  1  0  0  0  0
 16 17  1  0  0  0  0
 17 18  2  0  0  0  0
 17 21  1  0  0  0  0
 18 19  1  0  0  0  0
 19 20  2  0  0  0  0
  2 22  1  0  0  0  0
  2 23  1  0  0  0  0
  3 24  1  0  0  0  0
  4 25  1  0  0  0  0
  6 26  1  0  0  0  0
 10 27  1  0  0  0  0
 11 28  1  0  0  0  0
 12 29  1  0  0  0  0
 12 30  1  0  0  0  0
 12 31  1  0  0  0  0
 16 32  1  0  0  0  0
 18 33  1  0  0  0  0
 19 34  1  0  0  0  0
 20 35  1  0  0  0  0
 21 36  1  0  0  0  0
 21 37  1  0  0  0  0
 21 38  1  0  0  0  0
M  END
> <Name>
16

> <IC50[uM]>
0.17

$$$$
16
  -OEChem-05192314333D
 Structure written by MMmdl.
 38 40  0     0  0  0  0  0  0999 V2000
   -6.3886   12.3706  -12.0044 C   0  0  0  0  0  0  0  0  0  0  0  0
   -6.5217   11.8105  -10.7338 C   0  0  0  0  0  0  0  0  0  0  0  0
   -7.7267   10.5778  -13.0331 C   0  0  0  0  0  0  0  0  0  0  0  0
   -6.9997   11.7772  -13.1264 C   0  0  0  0  0  0  0  0  0  0  0  0
   -7.8245   10.0105  -11.7588 C   0  0  0  0  0  0  0  0  0  0  0  0
   -7.2447   10.6240  -10.5997 C   0  0  0  0  0  0  0  0  0  0  0  0
   -7.6157    9.7479   -9.5130 C   0  0  0  0  0  0  0  0  0  0  0  0
   -8.2818    8.7335   -9.9900 N   0  0  0  0  0  0  0  0  0  0  0  0
   -8.4155    8.8614  -11.3010 N   0  0  0  0  0  0  0  0  0  0  0  0
   -7.3377    9.8874   -8.0251 C   0  0  0  0  0  0  0  0  0  0  0  0
   -4.4115   13.6449  -11.4457 N   0  0  0  0  0  0  0  0  0  0  0  0
   -3.4644   14.7678  -11.5034 C   0  0  0  0  0  0  0  0  0  0  0  0
   -5.5490   13.6243  -12.1808 C   0  0  0  0  0  0  0  0  0  0  0  0
   -5.8784   14.5204  -12.9613 O   0  0  0  0  0  0  0  0  0  0  0  0
   -5.9596   10.4818   -7.7362 C   0  0  0  0  0  0  0  0  0  0  0  0
   -5.8460   11.7538   -7.1602 C   0  0  0  0  0  0  0  0  0  0  0  0
   -4.5819   12.3007   -6.9160 C   0  0  0  0  0  0  0  0  0  0  0  0
   -3.4335   11.5746   -7.2403 C   0  0  0  0  0  0  0  0  0  0  0  0
   -3.5461   10.3067   -7.8068 C   0  0  0  0  0  0  0  0  0  0  0  0
   -4.8068    9.7600   -8.0558 C   0  0  0  0  0  0  0  0  0  0  0  0
   -4.4568   13.6807   -6.3006 C   0  0  0  0  0  0  0  0  0  0  0  0
   -5.5067   11.6162  -10.3570 H   0  0  0  0  0  0  0  0  0  0  0  0
   -7.0113   12.5624  -10.0975 H   0  0  0  0  0  0  0  0  0  0  0  0
   -8.7478   10.7760  -13.3910 H   0  0  0  0  0  0  0  0  0  0  0  0
   -7.2438    9.8410  -13.6919 H   0  0  0  0  0  0  0  0  0  0  0  0
   -6.9067   12.2589  -14.0885 H   0  0  0  0  0  0  0  0  0  0  0  0
   -8.0380    9.5979   -7.2556 H   0  0  0  0  0  0  0  0  0  0  0  0
   -4.2095   12.8717  -10.8446 H   0  0  0  0  0  0  0  0  0  0  0  0
   -2.6189   14.5701  -10.8280 H   0  0  0  0  0  0  0  0  0  0  0  0
   -3.0927   14.8813  -12.5325 H   0  0  0  0  0  0  0  0  0  0  0  0
   -3.9729   15.6925  -11.1931 H   0  0  0  0  0  0  0  0  0  0  0  0
   -6.7345   12.3122   -6.9047 H   0  0  0  0  0  0  0  0  0  0  0  0
   -2.4573   11.9965   -7.0517 H   0  0  0  0  0  0  0  0  0  0  0  0
   -2.6569    9.7457   -8.0538 H   0  0  0  0  0  0  0  0  0  0  0  0
   -4.8908    8.7775   -8.4962 H   0  0  0  0  0  0  0  0  0  0  0  0
   -4.4264   13.5926   -5.2046 H   0  0  0  0  0  0  0  0  0  0  0  0
   -3.5315   14.1579   -6.6557 H   0  0  0  0  0  0  0  0  0  0  0  0
   -5.3217   14.2932   -6.5953 H   0  0  0  0  0  0  0  0  0  0  0  0
  1  2  1  0  0  0  0
  1  4  2  0  0  0  0
  1 13  1  0  0  0  0
  2  6  1  0  0  0  0
  3  4  1  0  0  0  0
  3  5  1  0  0  0  0
  5  6  2  0  0  0  0
  5  9  1  0  0  0  0
  6  7  1  0  0  0  0
  7  8  1  0  0  0  0
  7 10  2  3  0  0  0
  8  9  2  0  0  0  0
 10 15  1  0  0  0  0
 11 12  1  0  0  0  0
 11 13  1  0  0  0  0
 13 14  2  0  0  0  0
 15 16  2  0  0  0  0
 15 20  1  0  0  0  0
 16 17  1  0  0  0  0
 17 18  2  0  0  0  0
 17 21  1  0  0  0  0
 18 19  1  0  0  0  0
 19 20  2  0  0  0  0
  2 22  1  0  0  0  0
  2 23  1  0  0  0  0
  3 24  1  0  0  0  0
  3 25  1  0  0  0  0
  4 26  1  0  0  0  0
 10 27  1  0  0  0  0
 11 28  1  0  0  0  0
 12 29  1  0  0  0  0
 12 30  1  0  0  0  0
 12 31  1  0  0  0  0
 16 32  1  0  0  0  0
 18 33  1  0  0  0  0
 19 34  1  0  0  0  0
 20 35  1  0  0  0  0
 21 36  1  0  0  0  0
 21 37  1  0  0  0  0
 21 38  1  0  0  0  0
M  END
> <Name>
16

> <IC50[uM]>
0.17

$$$$
16
  -OEChem-05192314333D
 Structure written by MMmdl.
 38 40  0     1  0  0  0  0  0999 V2000
   -6.3886   12.3706  -12.0044 C   0  0  0  0  0  0  0  0  0  0  0  0
   -6.5217   11.8105  -10.7338 C   0  0  0  0  0  0  0  0  0  0  0  0
   -7.7267   10.5778  -13.0331 C   0  0  0  0  0  0  0  0  0  0  0  0
   -6.9997   11.7772  -13.1264 C   0  0  0  0  0  0  0  0  0  0  0  0
   -7.8245   10.0105  -11.7588 C   0  0  3  0  0  0  0  0  0  0  0  0
   -7.2447   10.6240  -10.5997 C   0  0  0  0  0  0  0  0  0  0  0  0
   -7.6157    9.7479   -9.5130 C   0  0  0  0  0  0  0  0  0  0  0  0
   -8.2818    8.7335   -9.9900 N   0  0  0  0  0  0  0  0  0  0  0  0
   -8.4155    8.8614  -11.3010 N   0  0  0  0  0  0  0  0  0  0  0  0
   -7.3377    9.8874   -8.0251 C   0  0  0  0  0  0  0  0  0  0  0  0
   -4.4115   13.6449  -11.4457 N   0  0  0  0  0  0  0  0  0  0  0  0
   -3.4644   14.7678  -11.5034 C   0  0  0  0  0  0  0  0  0  0  0  0
   -5.5490   13.6243  -12.1808 C   0  0  0  0  0  0  0  0  0  0  0  0
   -5.8784   14.5204  -12.9613 O   0  0  0  0  0  0  0  0  0  0  0  0
   -5.9596   10.4818   -7.7362 C   0  0  0  0  0  0  0  0  0  0  0  0
   -5.8460   11.7538   -7.1602 C   0  0  0  0  0  0  0  0  0  0  0  0
   -4.5819   12.3007   -6.9160 C   0  0  0  0  0  0  0  0  0  0  0  0
   -3.4335   11.5746   -7.2403 C   0  0  0  0  0  0  0  0  0  0  0  0
   -3.5461   10.3067   -7.8068 C   0  0  0  0  0  0  0  0  0  0  0  0
   -4.8068    9.7600   -8.0558 C   0  0  0  0  0  0  0  0  0  0  0  0
   -4.4568   13.6807   -6.3006 C   0  0  0  0  0  0  0  0  0  0  0  0
   -6.0750   12.2846   -9.8724 H   0  0  0  0  0  0  0  0  0  0  0  0
   -8.1843   10.1199  -13.8976 H   0  0  0  0  0  0  0  0  0  0  0  0
   -6.9067   12.2589  -14.0885 H   0  0  0  0  0  0  0  0  0  0  0  0
   -8.7599   10.5623  -11.5840 H   0  0  0  0  0  0  0  0  0  0  0  0
   -8.1032   10.5427   -7.5839 H   0  0  0  0  0  0  0  0  0  0  0  0
   -7.3958    8.8917   -7.5613 H   0  0  0  0  0  0  0  0  0  0  0  0
   -4.2095   12.8717  -10.8446 H   0  0  0  0  0  0  0  0  0  0  0  0
   -2.6189   14.5701  -10.8280 H   0  0  0  0  0  0  0  0  0  0  0  0
   -3.0927   14.8813  -12.5325 H   0  0  0  0  0  0  0  0  0  0  0  0
   -3.9729   15.6925  -11.1931 H   0  0  0  0  0  0  0  0  0  0  0  0
   -6.7345   12.3122   -6.9047 H   0  0  0  0  0  0  0  0  0  0  0  0
   -2.4573   11.9965   -7.0517 H   0  0  0  0  0  0  0  0  0  0  0  0
   -2.6569    9.7457   -8.0538 H   0  0  0  0  0  0  0  0  0  0  0  0
   -4.8908    8.7775   -8.4962 H   0  0  0  0  0  0  0  0  0  0  0  0
   -4.4264   13.5926   -5.2046 H   0  0  0  0  0  0  0  0  0  0  0  0
   -3.5315   14.1579   -6.6557 H   0  0  0  0  0  0  0  0  0  0  0  0
   -5.3217   14.2932   -6.5953 H   0  0  0  0  0  0  0  0  0  0  0  0
  1  2  2  0  0  0  0
  1  4  1  0  0  0  0
  1 13  1  0  0  0  0
  2  6  1  0  0  0  0
  3  4  2  0  0  0  0
  3  5  1  0  0  0  0
  5  6  1  0  0  0  0
  5  9  1  0  0  0  0
  6  7  2  0  0  0  0
  7  8  1  0  0  0  0
  7 10  1  0  0  0  0
  8  9  2  0  0  0  0
 10 15  1  0  0  0  0
 11 12  1  0  0  0  0
 11 13  1  0  0  0  0
 13 14  2  0  0  0  0
 15 16  2  0  0  0  0
 15 20  1  0  0  0  0
 16 17  1  0  0  0  0
 17 18  2  0  0  0  0
 17 21  1  0  0  0  0
 18 19  1  0  0  0  0
 19 20  2  0  0  0  0
  2 22  1  0  0  0  0
  3 23  1  0  0  0  0
  4 24  1  0  0  0  0
  5 25  1  0  0  0  0
 10 26  1  0  0  0  0
 10 27  1  0  0  0  0
 11 28  1  0  0  0  0
 12 29  1  0  0  0  0
 12 30  1  0  0  0  0
 12 31  1  0  0  0  0
 16 32  1  0  0  0  0
 18 33  1  0  0  0  0
 19 34  1  0  0  0  0
 20 35  1  0  0  0  0
 21 36  1  0  0  0  0
 21 37  1  0  0  0  0
 21 38  1  0  0  0  0
M  END
> <Name>
16

> <IC50[uM]>
0.17

$$$$
16
  -OEChem-05192314333D
 Structure written by MMmdl.
 38 40  0     0  0  0  0  0  0999 V2000
   -6.3886   12.3706  -12.0044 C   0  0  0  0  0  0  0  0  0  0  0  0
   -6.5217   11.8105  -10.7338 C   0  0  0  0  0  0  0  0  0  0  0  0
   -7.7267   10.5778  -13.0331 C   0  0  0  0  0  0  0  0  0  0  0  0
   -6.9997   11.7772  -13.1264 C   0  0  0  0  0  0  0  0  0  0  0  0
   -7.8245   10.0105  -11.7588 C   0  0  0  0  0  0  0  0  0  0  0  0
   -7.2447   10.6240  -10.5997 C   0  0  0  0  0  0  0  0  0  0  0  0
   -7.6157    9.7479   -9.5130 C   0  0  0  0  0  0  0  0  0  0  0  0
   -8.2818    8.7335   -9.9900 N   0  0  0  0  0  0  0  0  0  0  0  0
   -8.4155    8.8614  -11.3010 N   0  0  0  0  0  0  0  0  0  0  0  0
   -7.3377    9.8874   -8.0251 C   0  0  0  0  0  0  0  0  0  0  0  0
   -4.4115   13.6449  -11.4457 N   0  0  0  0  0  0  0  0  0  0  0  0
   -3.4644   14.7678  -11.5034 C   0  0  0  0  0  0  0  0  0  0  0  0
   -5.5490   13.6243  -12.1808 C   0  0  0  0  0  0  0  0  0  0  0  0
   -5.8784   14.5204  -12.9613 O   0  0  0  0  0  0  0  0  0  0  0  0
   -5.9596   10.4818   -7.7362 C   0  0  0  0  0  0  0  0  0  0  0  0
   -5.8460   11.7538   -7.1602 C   0  0  0  0  0  0  0  0  0  0  0  0
   -4.5819   12.3007   -6.9160 C   0  0  0  0  0  0  0  0  0  0  0  0
   -3.4335   11.5746   -7.2403 C   0  0  0  0  0  0  0  0  0  0  0  0
   -3.5461   10.3067   -7.8068 C   0  0  0  0  0  0  0  0  0  0  0  0
   -4.8068    9.7600   -8.0558 C   0  0  0  0  0  0  0  0  0  0  0  0
   -4.4568   13.6807   -6.3006 C   0  0  0  0  0  0  0  0  0  0  0  0
   -6.0750   12.2846   -9.8724 H   0  0  0  0  0  0  0  0  0  0  0  0
   -8.1843   10.1199  -13.8976 H   0  0  0  0  0  0  0  0  0  0  0  0
   -7.6950   12.5276  -13.5308 H   0  0  0  0  0  0  0  0  0  0  0  0
   -6.1951   11.5934  -13.8536 H   0  0  0  0  0  0  0  0  0  0  0  0
   -8.1032   10.5427   -7.5839 H   0  0  0  0  0  0  0  0  0  0  0  0
   -7.3958    8.8917   -7.5613 H   0  0  0  0  0  0  0  0  0  0  0  0
   -4.2095   12.8717  -10.8446 H   0  0  0  0  0  0  0  0  0  0  0  0
   -2.6189   14.5701  -10.8280 H   0  0  0  0  0  0  0  0  0  0  0  0
   -3.0927   14.8813  -12.5325 H   0  0  0  0  0  0  0  0  0  0  0  0
   -3.9729   15.6925  -11.1931 H   0  0  0  0  0  0  0  0  0  0  0  0
   -6.7345   12.3122   -6.9047 H   0  0  0  0  0  0  0  0  0  0  0  0
   -2.4573   11.9965   -7.0517 H   0  0  0  0  0  0  0  0  0  0  0  0
   -2.6569    9.7457   -8.0538 H   0  0  0  0  0  0  0  0  0  0  0  0
   -4.8908    8.7775   -8.4962 H   0  0  0  0  0  0  0  0  0  0  0  0
   -4.4264   13.5926   -5.2046 H   0  0  0  0  0  0  0  0  0  0  0  0
   -3.5315   14.1579   -6.6557 H   0  0  0  0  0  0  0  0  0  0  0  0
   -5.3217   14.2932   -6.5953 H   0  0  0  0  0  0  0  0  0  0  0  0
  1  2  2  0  0  0  0
  1  4  1  0  0  0  0
  1 13  1  0  0  0  0
  2  6  1  0  0  0  0
  3  4  1  0  0  0  0
  3  5  2  0  0  0  0
  5  6  1  0  0  0  0
  5  9  1  0  0  0  0
  6  7  2  0  0  0  0
  7  8  1  0  0  0  0
  7 10  1  0  0  0  0
  8  9  2  0  0  0  0
 10 15  1  0  0  0  0
 11 12  1  0  0  0  0
 11 13  1  0  0  0  0
 13 14  2  0  0  0  0
 15 16  2  0  0  0  0
 15 20  1  0  0  0  0
 16 17  1  0  0  0  0
 17 18  2  0  0  0  0
 17 21  1  0  0  0  0
 18 19  1  0  0  0  0
 19 20  2  0  0  0  0
  2 22  1  0  0  0  0
  3 23  1  0  0  0  0
  4 24  1  0  0  0  0
  4 25  1  0  0  0  0
 10 26  1  0  0  0  0
 10 27  1  0  0  0  0
 11 28  1  0  0  0  0
 12 29  1  0  0  0  0
 12 30  1  0  0  0  0
 12 31  1  0  0  0  0
 16 32  1  0  0  0  0
 18 33  1  0  0  0  0
 19 34  1  0  0  0  0
 20 35  1  0  0  0  0
 21 36  1  0  0  0  0
 21 37  1  0  0  0  0
 21 38  1  0  0  0  0
M  END
> <Name>
16

> <IC50[uM]>
0.17

$$$$
16
  -OEChem-05192314333D
 Structure written by MMmdl.
 38 40  0     0  0  0  0  0  0999 V2000
   -6.3886   12.3706  -12.0044 C   0  0  0  0  0  0  0  0  0  0  0  0
   -6.5217   11.8105  -10.7338 C   0  0  0  0  0  0  0  0  0  0  0  0
   -7.7267   10.5778  -13.0331 C   0  0  0  0  0  0  0  0  0  0  0  0
   -6.9997   11.7772  -13.1264 C   0  0  0  0  0  0  0  0  0  0  0  0
   -7.8245   10.0105  -11.7588 C   0  0  0  0  0  0  0  0  0  0  0  0
   -7.2447   10.6240  -10.5997 C   0  0  0  0  0  0  0  0  0  0  0  0
   -7.6157    9.7479   -9.5130 C   0  0  0  0  0  0  0  0  0  0  0  0
   -8.2818    8.7335   -9.9900 N   0  0  0  0  0  0  0  0  0  0  0  0
   -8.4155    8.8614  -11.3010 N   0  0  0  0  0  0  0  0  0  0  0  0
   -7.3377    9.8874   -8.0251 C   0  0  0  0  0  0  0  0  0  0  0  0
   -4.4115   13.6449  -11.4457 N   0  0  0  0  0  0  0  0  0  0  0  0
   -3.4644   14.7678  -11.5034 C   0  0  0  0  0  0  0  0  0  0  0  0
   -5.5490   13.6243  -12.1808 C   0  0  0  0  0  0  0  0  0  0  0  0
   -5.8784   14.5204  -12.9613 O   0  0  0  0  0  0  0  0  0  0  0  0
   -5.9596   10.4818   -7.7362 C   0  0  0  0  0  0  0  0  0  0  0  0
   -5.8460   11.7538   -7.1602 C   0  0  0  0  0  0  0  0  0  0  0  0
   -4.5819   12.3007   -6.9160 C   0  0  0  0  0  0  0  0  0  0  0  0
   -3.4335   11.5746   -7.2403 C   0  0  0  0  0  0  0  0  0  0  0  0
   -3.5461   10.3067   -7.8068 C   0  0  0  0  0  0  0  0  0  0  0  0
   -4.8068    9.7600   -8.0558 C   0  0  0  0  0  0  0  0  0  0  0  0
   -4.4568   13.6807   -6.3006 C   0  0  0  0  0  0  0  0  0  0  0  0
   -5.5067   11.6162  -10.3570 H   0  0  0  0  0  0  0  0  0  0  0  0
   -7.0113   12.5624  -10.0975 H   0  0  0  0  0  0  0  0  0  0  0  0
   -8.1843   10.1199  -13.8976 H   0  0  0  0  0  0  0  0  0  0  0  0
   -6.9067   12.2589  -14.0885 H   0  0  0  0  0  0  0  0  0  0  0  0
   -8.1032   10.5427   -7.5839 H   0  0  0  0  0  0  0  0  0  0  0  0
   -7.3958    8.8917   -7.5613 H   0  0  0  0  0  0  0  0  0  0  0  0
   -4.2095   12.8717  -10.8446 H   0  0  0  0  0  0  0  0  0  0  0  0
   -2.6189   14.5701  -10.8280 H   0  0  0  0  0  0  0  0  0  0  0  0
   -3.0927   14.8813  -12.5325 H   0  0  0  0  0  0  0  0  0  0  0  0
   -3.9729   15.6925  -11.1931 H   0  0  0  0  0  0  0  0  0  0  0  0
   -6.7345   12.3122   -6.9047 H   0  0  0  0  0  0  0  0  0  0  0  0
   -2.4573   11.9965   -7.0517 H   0  0  0  0  0  0  0  0  0  0  0  0
   -2.6569    9.7457   -8.0538 H   0  0  0  0  0  0  0  0  0  0  0  0
   -4.8908    8.7775   -8.4962 H   0  0  0  0  0  0  0  0  0  0  0  0
   -4.4264   13.5926   -5.2046 H   0  0  0  0  0  0  0  0  0  0  0  0
   -3.5315   14.1579   -6.6557 H   0  0  0  0  0  0  0  0  0  0  0  0
   -5.3217   14.2932   -6.5953 H   0  0  0  0  0  0  0  0  0  0  0  0
  1  2  1  0  0  0  0
  1  4  2  0  0  0  0
  1 13  1  0  0  0  0
  2  6  1  0  0  0  0
  3  4  1  0  0  0  0
  3  5  2  0  0  0  0
  5  6  1  0  0  0  0
  5  9  1  0  0  0  0
  6  7  2  0  0  0  0
  7  8  1  0  0  0  0
  7 10  1  0  0  0  0
  8  9  2  0  0  0  0
 10 15  1  0  0  0  0
 11 12  1  0  0  0  0
 11 13  1  0  0  0  0
 13 14  2  0  0  0  0
 15 16  2  0  0  0  0
 15 20  1  0  0  0  0
 16 17  1  0  0  0  0
 17 18  2  0  0  0  0
 17 21  1  0  0  0  0
 18 19  1  0  0  0  0
 19 20  2  0  0  0  0
  2 22  1  0  0  0  0
  2 23  1  0  0  0  0
  3 24  1  0  0  0  0
  4 25  1  0  0  0  0
 10 26  1  0  0  0  0
 10 27  1  0  0  0  0
 11 28  1  0  0  0  0
 12 29  1  0  0  0  0
 12 30  1  0  0  0  0
 12 31  1  0  0  0  0
 16 32  1  0  0  0  0
 18 33  1  0  0  0  0
 19 34  1  0  0  0  0
 20 35  1  0  0  0  0
 21 36  1  0  0  0  0
 21 37  1  0  0  0  0
 21 38  1  0  0  0  0
M  END
> <Name>
16

> <IC50[uM]>
0.17

$$$$
16
  -OEChem-05192314333D
 Structure written by MMmdl.
 38 40  0     1  0  0  0  0  0999 V2000
   -6.3886   12.3706  -12.0044 C   0  0  0  0  0  0  0  0  0  0  0  0
   -6.5217   11.8105  -10.7338 C   0  0  0  0  0  0  0  0  0  0  0  0
   -7.7267   10.5778  -13.0331 C   0  0  0  0  0  0  0  0  0  0  0  0
   -6.9997   11.7772  -13.1264 C   0  0  0  0  0  0  0  0  0  0  0  0
   -7.8245   10.0105  -11.7588 C   0  0  0  0  0  0  0  0  0  0  0  0
   -7.2447   10.6240  -10.5997 C   0  0  0  0  0  0  0  0  0  0  0  0
   -7.6157    9.7479   -9.5130 C   0  0  0  0  0  0  0  0  0  0  0  0
   -8.2818    8.7335   -9.9900 N   0  0  0  0  0  0  0  0  0  0  0  0
   -8.4155    8.8614  -11.3010 N   0  0  0  0  0  0  0  0  0  0  0  0
   -7.3377    9.8874   -8.0251 C   0  0  0  0  0  0  0  0  0  0  0  0
   -4.4115   13.6449  -11.4457 N   0  0  0  0  0  0  0  0  0  0  0  0
   -3.4644   14.7678  -11.5034 C   0  0  0  0  0  0  0  0  0  0  0  0
   -5.5490   13.6243  -12.1808 C   0  0  0  0  0  0  0  0  0  0  0  0
   -5.8784   14.5204  -12.9613 O   0  0  0  0  0  0  0  0  0  0  0  0
   -5.9596   10.4818   -7.7362 C   0  0  0  0  0  0  0  0  0  0  0  0
   -5.8460   11.7538   -7.1602 C   0  0  0  0  0  0  0  0  0  0  0  0
   -4.5819   12.3007   -6.9160 C   0  0  3  0  0  0  0  0  0  0  0  0
   -3.4335   11.5746   -7.2403 C   0  0  0  0  0  0  0  0  0  0  0  0
   -3.5461   10.3067   -7.8068 C   0  0  0  0  0  0  0  0  0  0  0  0
   -4.8068    9.7600   -8.0558 C   0  0  0  0  0  0  0  0  0  0  0  0
   -4.4568   13.6807   -6.3006 C   0  0  0  0  0  0  0  0  0  0  0  0
   -6.0750   12.2846   -9.8724 H   0  0  0  0  0  0  0  0  0  0  0  0
   -8.1843   10.1199  -13.8976 H   0  0  0  0  0  0  0  0  0  0  0  0
   -6.9067   12.2589  -14.0885 H   0  0  0  0  0  0  0  0  0  0  0  0
   -8.0380    9.5979   -7.2556 H   0  0  0  0  0  0  0  0  0  0  0  0
   -4.2095   12.8717  -10.8446 H   0  0  0  0  0  0  0  0  0  0  0  0
   -2.6189   14.5701  -10.8280 H   0  0  0  0  0  0  0  0  0  0  0  0
   -3.0927   14.8813  -12.5325 H   0  0  0  0  0  0  0  0  0  0  0  0
   -3.9729   15.6925  -11.1931 H   0  0  0  0  0  0  0  0  0  0  0  0
   -6.3708   12.4528   -7.8280 H   0  0  0  0  0  0  0  0  0  0  0  0
   -6.3661   11.7115   -6.1919 H   0  0  0  0  0  0  0  0  0  0  0  0
   -4.5818   11.8525   -5.9114 H   0  0  0  0  0  0  0  0  0  0  0  0
   -2.4573   11.9965   -7.0517 H   0  0  0  0  0  0  0  0  0  0  0  0
   -2.6569    9.7457   -8.0538 H   0  0  0  0  0  0  0  0  0  0  0  0
   -4.8908    8.7775   -8.4962 H   0  0  0  0  0  0  0  0  0  0  0  0
   -3.3931   13.9367   -6.1862 H   0  0  0  0  0  0  0  0  0  0  0  0
   -4.9432   14.4192   -6.9548 H   0  0  0  0  0  0  0  0  0  0  0  0
   -4.9436   13.6877   -5.3142 H   0  0  0  0  0  0  0  0  0  0  0  0
  1  2  2  0  0  0  0
  1  4  1  0  0  0  0
  1 13  1  0  0  0  0
  2  6  1  0  0  0  0
  3  4  2  0  0  0  0
  3  5  1  0  0  0  0
  5  6  2  0  0  0  0
  5  9  1  0  0  0  0
  6  7  1  0  0  0  0
  7  8  1  0  0  0  0
  7 10  2  3  0  0  0
  8  9  2  0  0  0  0
 10 15  1  0  0  0  0
 11 12  1  0  0  0  0
 11 13  1  0  0  0  0
 13 14  2  0  0  0  0
 15 16  1  0  0  0  0
 15 20  2  0  0  0  0
 16 17  1  0  0  0  0
 17 18  1  0  0  0  0
 17 21  1  0  0  0  0
 18 19  2  0  0  0  0
 19 20  1  0  0  0  0
  2 22  1  0  0  0  0
  3 23  1  0  0  0  0
  4 24  1  0  0  0  0
 10 25  1  0  0  0  0
 11 26  1  0  0  0  0
 12 27  1  0  0  0  0
 12 28  1  0  0  0  0
 12 29  1  0  0  0  0
 16 30  1  0  0  0  0
 16 31  1  0  0  0  0
 17 32  1  0  0  0  0
 18 33  1  0  0  0  0
 19 34  1  0  0  0  0
 20 35  1  0  0  0  0
 21 36  1  0  0  0  0
 21 37  1  0  0  0  0
 21 38  1  0  0  0  0
M  END
> <Name>
16

> <IC50[uM]>
0.17

$$$$
16
  -OEChem-05192314333D
 Structure written by MMmdl.
 38 40  0     1  0  0  0  0  0999 V2000
   -6.3886   12.3706  -12.0044 C   0  0  0  0  0  0  0  0  0  0  0  0
   -6.5217   11.8105  -10.7338 C   0  0  0  0  0  0  0  0  0  0  0  0
   -7.7267   10.5778  -13.0331 C   0  0  0  0  0  0  0  0  0  0  0  0
   -6.9997   11.7772  -13.1264 C   0  0  0  0  0  0  0  0  0  0  0  0
   -7.8245   10.0105  -11.7588 C   0  0  0  0  0  0  0  0  0  0  0  0
   -7.2447   10.6240  -10.5997 C   0  0  0  0  0  0  0  0  0  0  0  0
   -7.6157    9.7479   -9.5130 C   0  0  0  0  0  0  0  0  0  0  0  0
   -8.2818    8.7335   -9.9900 N   0  0  0  0  0  0  0  0  0  0  0  0
   -8.4155    8.8614  -11.3010 N   0  0  0  0  0  0  0  0  0  0  0  0
   -7.3377    9.8874   -8.0251 C   0  0  0  0  0  0  0  0  0  0  0  0
   -4.4115   13.6449  -11.4457 N   0  0  0  0  0  0  0  0  0  0  0  0
   -3.4644   14.7678  -11.5034 C   0  0  0  0  0  0  0  0  0  0  0  0
   -5.5490   13.6243  -12.1808 C   0  0  0  0  0  0  0  0  0  0  0  0
   -5.8784   14.5204  -12.9613 O   0  0  0  0  0  0  0  0  0  0  0  0
   -5.9596   10.4818   -7.7362 C   0  0  3  0  0  0  0  0  0  0  0  0
   -5.8460   11.7538   -7.1602 C   0  0  0  0  0  0  0  0  0  0  0  0
   -4.5819   12.3007   -6.9160 C   0  0  0  0  0  0  0  0  0  0  0  0
   -3.4335   11.5746   -7.2403 C   0  0  0  0  0  0  0  0  0  0  0  0
   -3.5461   10.3067   -7.8068 C   0  0  0  0  0  0  0  0  0  0  0  0
   -4.8068    9.7600   -8.0558 C   0  0  0  0  0  0  0  0  0  0  0  0
   -4.4568   13.6807   -6.3006 C   0  0  0  0  0  0  0  0  0  0  0  0
   -6.0750   12.2846   -9.8724 H   0  0  0  0  0  0  0  0  0  0  0  0
   -8.1843   10.1199  -13.8976 H   0  0  0  0  0  0  0  0  0  0  0  0
   -6.9067   12.2589  -14.0885 H   0  0  0  0  0  0  0  0  0  0  0  0
   -8.0380    9.5979   -7.2556 H   0  0  0  0  0  0  0  0  0  0  0  0
   -4.2095   12.8717  -10.8446 H   0  0  0  0  0  0  0  0  0  0  0  0
   -2.6189   14.5701  -10.8280 H   0  0  0  0  0  0  0  0  0  0  0  0
   -3.0927   14.8813  -12.5325 H   0  0  0  0  0  0  0  0  0  0  0  0
   -3.9729   15.6925  -11.1931 H   0  0  0  0  0  0  0  0  0  0  0  0
   -5.9704   10.0264   -6.7349 H   0  0  0  0  0  0  0  0  0  0  0  0
   -6.3708   12.4528   -7.8280 H   0  0  0  0  0  0  0  0  0  0  0  0
   -6.3661   11.7115   -6.1919 H   0  0  0  0  0  0  0  0  0  0  0  0
   -2.4573   11.9965   -7.0517 H   0  0  0  0  0  0  0  0  0  0  0  0
   -2.6569    9.7457   -8.0538 H   0  0  0  0  0  0  0  0  0  0  0  0
   -4.8908    8.7775   -8.4962 H   0  0  0  0  0  0  0  0  0  0  0  0
   -3.3931   13.9367   -6.1862 H   0  0  0  0  0  0  0  0  0  0  0  0
   -4.9432   14.4192   -6.9548 H   0  0  0  0  0  0  0  0  0  0  0  0
   -4.9436   13.6877   -5.3142 H   0  0  0  0  0  0  0  0  0  0  0  0
  1  2  2  0  0  0  0
  1  4  1  0  0  0  0
  1 13  1  0  0  0  0
  2  6  1  0  0  0  0
  3  4  2  0  0  0  0
  3  5  1  0  0  0  0
  5  6  2  0  0  0  0
  5  9  1  0  0  0  0
  6  7  1  0  0  0  0
  7  8  1  0  0  0  0
  7 10  2  3  0  0  0
  8  9  2  0  0  0  0
 10 15  1  0  0  0  0
 11 12  1  0  0  0  0
 11 13  1  0  0  0  0
 13 14  2  0  0  0  0
 15 16  1  0  0  0  0
 15 20  1  0  0  0  0
 16 17  1  0  0  0  0
 17 18  2  0  0  0  0
 17 21  1  0  0  0  0
 18 19  1  0  0  0  0
 19 20  2  0  0  0  0
  2 22  1  0  0  0  0
  3 23  1  0  0  0  0
  4 24  1  0  0  0  0
 10 25  1  0  0  0  0
 11 26  1  0  0  0  0
 12 27  1  0  0  0  0
 12 28  1  0  0  0  0
 12 29  1  0  0  0  0
 15 30  1  0  0  0  0
 16 31  1  0  0  0  0
 16 32  1  0  0  0  0
 18 33  1  0  0  0  0
 19 34  1  0  0  0  0
 20 35  1  0  0  0  0
 21 36  1  0  0  0  0
 21 37  1  0  0  0  0
 21 38  1  0  0  0  0
M  END
> <Name>
16

> <IC50[uM]>
0.17

$$$$
16
  -OEChem-05192314333D
 Structure written by MMmdl.
 38 40  0     1  0  0  0  0  0999 V2000
   -6.3886   12.3706  -12.0044 C   0  0  0  0  0  0  0  0  0  0  0  0
   -6.5217   11.8105  -10.7338 C   0  0  0  0  0  0  0  0  0  0  0  0
   -7.7267   10.5778  -13.0331 C   0  0  0  0  0  0  0  0  0  0  0  0
   -6.9997   11.7772  -13.1264 C   0  0  0  0  0  0  0  0  0  0  0  0
   -7.8245   10.0105  -11.7588 C   0  0  0  0  0  0  0  0  0  0  0  0
   -7.2447   10.6240  -10.5997 C   0  0  0  0  0  0  0  0  0  0  0  0
   -7.6157    9.7479   -9.5130 C   0  0  3  0  0  0  0  0  0  0  0  0
   -8.2818    8.7335   -9.9900 N   0  0  0  0  0  0  0  0  0  0  0  0
   -8.4155    8.8614  -11.3010 N   0  0  0  0  0  0  0  0  0  0  0  0
   -7.3377    9.8874   -8.0251 C   0  0  0  0  0  0  0  0  0  0  0  0
   -4.4115   13.6449  -11.4457 N   0  0  0  0  0  0  0  0  0  0  0  0
   -3.4644   14.7678  -11.5034 C   0  0  0  0  0  0  0  0  0  0  0  0
   -5.5490   13.6243  -12.1808 C   0  0  0  0  0  0  0  0  0  0  0  0
   -5.8784   14.5204  -12.9613 O   0  0  0  0  0  0  0  0  0  0  0  0
   -5.9596   10.4818   -7.7362 C   0  0  0  0  0  0  0  0  0  0  0  0
   -5.8460   11.7538   -7.1602 C   0  0  0  0  0  0  0  0  0  0  0  0
   -4.5819   12.3007   -6.9160 C   0  0  0  0  0  0  0  0  0  0  0  0
   -3.4335   11.5746   -7.2403 C   0  0  0  0  0  0  0  0  0  0  0  0
   -3.5461   10.3067   -7.8068 C   0  0  0  0  0  0  0  0  0  0  0  0
   -4.8068    9.7600   -8.0558 C   0  0  0  0  0  0  0  0  0  0  0  0
   -4.4568   13.6807   -6.3006 C   0  0  0  0  0  0  0  0  0  0  0  0
   -6.0750   12.2846   -9.8724 H   0  0  0  0  0  0  0  0  0  0  0  0
   -8.1843   10.1199  -13.8976 H   0  0  0  0  0  0  0  0  0  0  0  0
   -6.9067   12.2589  -14.0885 H   0  0  0  0  0  0  0  0  0  0  0  0
   -6.6751    9.1915   -9.6382 H   0  0  0  0  0  0  0  0  0  0  0  0
   -8.0380    9.5979   -7.2556 H   0  0  0  0  0  0  0  0  0  0  0  0
   -4.2095   12.8717  -10.8446 H   0  0  0  0  0  0  0  0  0  0  0  0
   -2.6189   14.5701  -10.8280 H   0  0  0  0  0  0  0  0  0  0  0  0
   -3.0927   14.8813  -12.5325 H   0  0  0  0  0  0  0  0  0  0  0  0
   -3.9729   15.6925  -11.1931 H   0  0  0  0  0  0  0  0  0  0  0  0
   -6.3708   12.4528   -7.8280 H   0  0  0  0  0  0  0  0  0  0  0  0
   -6.3661   11.7115   -6.1919 H   0  0  0  0  0  0  0  0  0  0  0  0
   -2.4573   11.9965   -7.0517 H   0  0  0  0  0  0  0  0  0  0  0  0
   -2.6569    9.7457   -8.0538 H   0  0  0  0  0  0  0  0  0  0  0  0
   -4.8908    8.7775   -8.4962 H   0  0  0  0  0  0  0  0  0  0  0  0
   -3.3931   13.9367   -6.1862 H   0  0  0  0  0  0  0  0  0  0  0  0
   -4.9432   14.4192   -6.9548 H   0  0  0  0  0  0  0  0  0  0  0  0
   -4.9436   13.6877   -5.3142 H   0  0  0  0  0  0  0  0  0  0  0  0
  1  2  2  0  0  0  0
  1  4  1  0  0  0  0
  1 13  1  0  0  0  0
  2  6  1  0  0  0  0
  3  4  2  0  0  0  0
  3  5  1  0  0  0  0
  5  6  2  0  0  0  0
  5  9  1  0  0  0  0
  6  7  1  0  0  0  0
  7  8  1  0  0  0  0
  7 10  1  0  0  0  0
  8  9  2  0  0  0  0
 10 15  2  3  0  0  0
 11 12  1  0  0  0  0
 11 13  1  0  0  0  0
 13 14  2  0  0  0  0
 15 16  1  0  0  0  0
 15 20  1  0  0  0  0
 16 17  1  0  0  0  0
 17 18  2  0  0  0  0
 17 21  1  0  0  0  0
 18 19  1  0  0  0  0
 19 20  2  0  0  0  0
  2 22  1  0  0  0  0
  3 23  1  0  0  0  0
  4 24  1  0  0  0  0
  7 25  1  0  0  0  0
 10 26  1  0  0  0  0
 11 27  1  0  0  0  0
 12 28  1  0  0  0  0
 12 29  1  0  0  0  0
 12 30  1  0  0  0  0
 16 31  1  0  0  0  0
 16 32  1  0  0  0  0
 18 33  1  0  0  0  0
 19 34  1  0  0  0  0
 20 35  1  0  0  0  0
 21 36  1  0  0  0  0
 21 37  1  0  0  0  0
 21 38  1  0  0  0  0
M  END
> <Name>
16

> <IC50[uM]>
0.17

$$$$
16
  -OEChem-05192314333D
 Structure written by MMmdl.
 38 40  0     0  0  0  0  0  0999 V2000
   -6.3886   12.3706  -12.0044 C   0  0  0  0  0  0  0  0  0  0  0  0
   -6.5217   11.8105  -10.7338 C   0  0  0  0  0  0  0  0  0  0  0  0
   -7.7267   10.5778  -13.0331 C   0  0  0  0  0  0  0  0  0  0  0  0
   -6.9997   11.7772  -13.1264 C   0  0  0  0  0  0  0  0  0  0  0  0
   -7.8245   10.0105  -11.7588 C   0  0  0  0  0  0  0  0  0  0  0  0
   -7.2447   10.6240  -10.5997 C   0  0  0  0  0  0  0  0  0  0  0  0
   -7.6157    9.7479   -9.5130 C   0  0  0  0  0  0  0  0  0  0  0  0
   -8.2818    8.7335   -9.9900 N   0  0  0  0  0  0  0  0  0  0  0  0
   -8.4155    8.8614  -11.3010 N   0  0  0  0  0  0  0  0  0  0  0  0
   -7.3377    9.8874   -8.0251 C   0  0  0  0  0  0  0  0  0  0  0  0
   -4.4115   13.6449  -11.4457 N   0  0  0  0  0  0  0  0  0  0  0  0
   -3.4644   14.7678  -11.5034 C   0  0  0  0  0  0  0  0  0  0  0  0
   -5.5490   13.6243  -12.1808 C   0  0  0  0  0  0  0  0  0  0  0  0
   -5.8784   14.5204  -12.9613 O   0  0  0  0  0  0  0  0  0  0  0  0
   -5.9596   10.4818   -7.7362 C   0  0  0  0  0  0  0  0  0  0  0  0
   -5.8460   11.7538   -7.1602 C   0  0  0  0  0  0  0  0  0  0  0  0
   -4.5819   12.3007   -6.9160 C   0  0  0  0  0  0  0  0  0  0  0  0
   -3.4335   11.5746   -7.2403 C   0  0  0  0  0  0  0  0  0  0  0  0
   -3.5461   10.3067   -7.8068 C   0  0  0  0  0  0  0  0  0  0  0  0
   -4.8068    9.7600   -8.0558 C   0  0  0  0  0  0  0  0  0  0  0  0
   -4.4568   13.6807   -6.3006 C   0  0  0  0  0  0  0  0  0  0  0  0
   -6.0750   12.2846   -9.8724 H   0  0  0  0  0  0  0  0  0  0  0  0
   -8.1843   10.1199  -13.8976 H   0  0  0  0  0  0  0  0  0  0  0  0
   -6.9067   12.2589  -14.0885 H   0  0  0  0  0  0  0  0  0  0  0  0
   -8.0380    9.5979   -7.2556 H   0  0  0  0  0  0  0  0  0  0  0  0
   -4.2095   12.8717  -10.8446 H   0  0  0  0  0  0  0  0  0  0  0  0
   -2.6189   14.5701  -10.8280 H   0  0  0  0  0  0  0  0  0  0  0  0
   -3.0927   14.8813  -12.5325 H   0  0  0  0  0  0  0  0  0  0  0  0
   -3.9729   15.6925  -11.1931 H   0  0  0  0  0  0  0  0  0  0  0  0
   -6.3708   12.4528   -7.8280 H   0  0  0  0  0  0  0  0  0  0  0  0
   -6.3661   11.7115   -6.1919 H   0  0  0  0  0  0  0  0  0  0  0  0
   -2.4573   11.9965   -7.0517 H   0  0  0  0  0  0  0  0  0  0  0  0
   -3.0200   10.3430   -8.7722 H   0  0  0  0  0  0  0  0  0  0  0  0
   -3.0264    9.6107   -7.1319 H   0  0  0  0  0  0  0  0  0  0  0  0
   -4.8908    8.7775   -8.4962 H   0  0  0  0  0  0  0  0  0  0  0  0
   -3.3931   13.9367   -6.1862 H   0  0  0  0  0  0  0  0  0  0  0  0
   -4.9432   14.4192   -6.9548 H   0  0  0  0  0  0  0  0  0  0  0  0
   -4.9436   13.6877   -5.3142 H   0  0  0  0  0  0  0  0  0  0  0  0
  1  2  2  0  0  0  0
  1  4  1  0  0  0  0
  1 13  1  0  0  0  0
  2  6  1  0  0  0  0
  3  4  2  0  0  0  0
  3  5  1  0  0  0  0
  5  6  2  0  0  0  0
  5  9  1  0  0  0  0
  6  7  1  0  0  0  0
  7  8  1  0  0  0  0
  7 10  2  3  0  0  0
  8  9  2  0  0  0  0
 10 15  1  0  0  0  0
 11 12  1  0  0  0  0
 11 13  1  0  0  0  0
 13 14  2  0  0  0  0
 15 16  1  0  0  0  0
 15 20  2  0  0  0  0
 16 17  1  0  0  0  0
 17 18  2  0  0  0  0
 17 21  1  0  0  0  0
 18 19  1  0  0  0  0
 19 20  1  0  0  0  0
  2 22  1  0  0  0  0
  3 23  1  0  0  0  0
  4 24  1  0  0  0  0
 10 25  1  0  0  0  0
 11 26  1  0  0  0  0
 12 27  1  0  0  0  0
 12 28  1  0  0  0  0
 12 29  1  0  0  0  0
 16 30  1  0  0  0  0
 16 31  1  0  0  0  0
 18 32  1  0  0  0  0
 19 33  1  0  0  0  0
 19 34  1  0  0  0  0
 20 35  1  0  0  0  0
 21 36  1  0  0  0  0
 21 37  1  0  0  0  0
 21 38  1  0  0  0  0
M  END
> <Name>
16

> <IC50[uM]>
0.17

$$$$
16
  -OEChem-05192314333D
 Structure written by MMmdl.
 38 40  0     1  0  0  0  0  0999 V2000
   -6.3886   12.3706  -12.0044 C   0  0  0  0  0  0  0  0  0  0  0  0
   -6.5217   11.8105  -10.7338 C   0  0  0  0  0  0  0  0  0  0  0  0
   -7.7267   10.5778  -13.0331 C   0  0  0  0  0  0  0  0  0  0  0  0
   -6.9997   11.7772  -13.1264 C   0  0  0  0  0  0  0  0  0  0  0  0
   -7.8245   10.0105  -11.7588 C   0  0  0  0  0  0  0  0  0  0  0  0
   -7.2447   10.6240  -10.5997 C   0  0  3  0  0  0  0  0  0  0  0  0
   -7.6157    9.7479   -9.5130 C   0  0  0  0  0  0  0  0  0  0  0  0
   -8.2818    8.7335   -9.9900 N   0  0  0  0  0  0  0  0  0  0  0  0
   -8.4155    8.8614  -11.3010 N   0  0  0  0  0  0  0  0  0  0  0  0
   -7.3377    9.8874   -8.0251 C   0  0  0  0  0  0  0  0  0  0  0  0
   -4.4115   13.6449  -11.4457 N   0  0  0  0  0  0  0  0  0  0  0  0
   -3.4644   14.7678  -11.5034 C   0  0  0  0  0  0  0  0  0  0  0  0
   -5.5490   13.6243  -12.1808 C   0  0  0  0  0  0  0  0  0  0  0  0
   -5.8784   14.5204  -12.9613 O   0  0  0  0  0  0  0  0  0  0  0  0
   -5.9596   10.4818   -7.7362 C   0  0  0  0  0  0  0  0  0  0  0  0
   -5.8460   11.7538   -7.1602 C   0  0  0  0  0  0  0  0  0  0  0  0
   -4.5819   12.3007   -6.9160 C   0  0  0  0  0  0  0  0  0  0  0  0
   -3.4335   11.5746   -7.2403 C   0  0  0  0  0  0  0  0  0  0  0  0
   -3.5461   10.3067   -7.8068 C   0  0  0  0  0  0  0  0  0  0  0  0
   -4.8068    9.7600   -8.0558 C   0  0  0  0  0  0  0  0  0  0  0  0
   -4.4568   13.6807   -6.3006 C   0  0  0  0  0  0  0  0  0  0  0  0
   -6.0750   12.2846   -9.8724 H   0  0  0  0  0  0  0  0  0  0  0  0
   -8.1843   10.1199  -13.8976 H   0  0  0  0  0  0  0  0  0  0  0  0
   -6.9067   12.2589  -14.0885 H   0  0  0  0  0  0  0  0  0  0  0  0
   -6.3227   10.0441  -10.7532 H   0  0  0  0  0  0  0  0  0  0  0  0
   -8.6382    7.9731   -9.4471 H   0  0  0  0  0  0  0  0  0  0  0  0
   -8.0380    9.5979   -7.2556 H   0  0  0  0  0  0  0  0  0  0  0  0
   -4.2095   12.8717  -10.8446 H   0  0  0  0  0  0  0  0  0  0  0  0
   -2.6189   14.5701  -10.8280 H   0  0  0  0  0  0  0  0  0  0  0  0
   -3.0927   14.8813  -12.5325 H   0  0  0  0  0  0  0  0  0  0  0  0
   -3.9729   15.6925  -11.1931 H   0  0  0  0  0  0  0  0  0  0  0  0
   -6.7345   12.3122   -6.9047 H   0  0  0  0  0  0  0  0  0  0  0  0
   -2.4573   11.9965   -7.0517 H   0  0  0  0  0  0  0  0  0  0  0  0
   -2.6569    9.7457   -8.0538 H   0  0  0  0  0  0  0  0  0  0  0  0
   -4.8908    8.7775   -8.4962 H   0  0  0  0  0  0  0  0  0  0  0  0
   -4.4264   13.5926   -5.2046 H   0  0  0  0  0  0  0  0  0  0  0  0
   -3.5315   14.1579   -6.6557 H   0  0  0  0  0  0  0  0  0  0  0  0
   -5.3217   14.2932   -6.5953 H   0  0  0  0  0  0  0  0  0  0  0  0
  1  2  2  0  0  0  0
  1  4  1  0  0  0  0
  1 13  1  0  0  0  0
  2  6  1  0  0  0  0
  3  4  2  0  0  0  0
  3  5  1  0  0  0  0
  5  6  1  0  0  0  0
  5  9  2  0  0  0  0
  6  7  1  0  0  0  0
  7  8  1  0  0  0  0
  7 10  2  3  0  0  0
  8  9  1  0  0  0  0
 10 15  1  0  0  0  0
 11 12  1  0  0  0  0
 11 13  1  0  0  0  0
 13 14  2  0  0  0  0
 15 16  2  0  0  0  0
 15 20  1  0  0  0  0
 16 17  1  0  0  0  0
 17 18  2  0  0  0  0
 17 21  1  0  0  0  0
 18 19  1  0  0  0  0
 19 20  2  0  0  0  0
  2 22  1  0  0  0  0
  3 23  1  0  0  0  0
  4 24  1  0  0  0  0
  6 25  1  0  0  0  0
  8 26  1  0  0  0  0
 10 27  1  0  0  0  0
 11 28  1  0  0  0  0
 12 29  1  0  0  0  0
 12 30  1  0  0  0  0
 12 31  1  0  0  0  0
 16 32  1  0  0  0  0
 18 33  1  0  0  0  0
 19 34  1  0  0  0  0
 20 35  1  0  0  0  0
 21 36  1  0  0  0  0
 21 37  1  0  0  0  0
 21 38  1  0  0  0  0
M  END
> <Name>
16

> <IC50[uM]>
0.17

$$$$
16
  -OEChem-05192314333D
 Structure written by MMmdl.
 38 40  0     1  0  0  0  0  0999 V2000
   -6.3886   12.3706  -12.0044 C   0  0  3  0  0  0  0  0  0  0  0  0
   -6.5217   11.8105  -10.7338 C   0  0  0  0  0  0  0  0  0  0  0  0
   -7.7267   10.5778  -13.0331 C   0  0  0  0  0  0  0  0  0  0  0  0
   -6.9997   11.7772  -13.1264 C   0  0  0  0  0  0  0  0  0  0  0  0
   -7.8245   10.0105  -11.7588 C   0  0  3  0  0  0  0  0  0  0  0  0
   -7.2447   10.6240  -10.5997 C   0  0  0  0  0  0  0  0  0  0  0  0
   -7.6157    9.7479   -9.5130 C   0  0  0  0  0  0  0  0  0  0  0  0
   -8.2818    8.7335   -9.9900 N   0  0  0  0  0  0  0  0  0  0  0  0
   -8.4155    8.8614  -11.3010 N   0  0  0  0  0  0  0  0  0  0  0  0
   -7.3377    9.8874   -8.0251 C   0  0  0  0  0  0  0  0  0  0  0  0
   -4.4115   13.6449  -11.4457 N   0  0  0  0  0  0  0  0  0  0  0  0
   -3.4644   14.7678  -11.5034 C   0  0  0  0  0  0  0  0  0  0  0  0
   -5.5490   13.6243  -12.1808 C   0  0  0  0  0  0  0  0  0  0  0  0
   -5.8784   14.5204  -12.9613 O   0  0  0  0  0  0  0  0  0  0  0  0
   -5.9596   10.4818   -7.7362 C   0  0  0  0  0  0  0  0  0  0  0  0
   -5.8460   11.7538   -7.1602 C   0  0  0  0  0  0  0  0  0  0  0  0
   -4.5819   12.3007   -6.9160 C   0  0  0  0  0  0  0  0  0  0  0  0
   -3.4335   11.5746   -7.2403 C   0  0  0  0  0  0  0  0  0  0  0  0
   -3.5461   10.3067   -7.8068 C   0  0  0  0  0  0  0  0  0  0  0  0
   -4.8068    9.7600   -8.0558 C   0  0  0  0  0  0  0  0  0  0  0  0
   -4.4568   13.6807   -6.3006 C   0  0  0  0  0  0  0  0  0  0  0  0
   -7.2839   12.9866  -11.8341 H   0  0  0  0  0  0  0  0  0  0  0  0
   -6.0750   12.2846   -9.8724 H   0  0  0  0  0  0  0  0  0  0  0  0
   -8.1843   10.1199  -13.8976 H   0  0  0  0  0  0  0  0  0  0  0  0
   -6.9067   12.2589  -14.0885 H   0  0  0  0  0  0  0  0  0  0  0  0
   -8.7599   10.5623  -11.5840 H   0  0  0  0  0  0  0  0  0  0  0  0
   -8.0380    9.5979   -7.2556 H   0  0  0  0  0  0  0  0  0  0  0  0
   -2.6189   14.5701  -10.8280 H   0  0  0  0  0  0  0  0  0  0  0  0
   -3.0927   14.8813  -12.5325 H   0  0  0  0  0  0  0  0  0  0  0  0
   -3.9729   15.6925  -11.1931 H   0  0  0  0  0  0  0  0  0  0  0  0
   -5.2336   15.2175  -12.9341 H   0  0  0  0  0  0  0  0  0  0  0  0
   -6.7345   12.3122   -6.9047 H   0  0  0  0  0  0  0  0  0  0  0  0
   -2.4573   11.9965   -7.0517 H   0  0  0  0  0  0  0  0  0  0  0  0
   -2.6569    9.7457   -8.0538 H   0  0  0  0  0  0  0  0  0  0  0  0
   -4.8908    8.7775   -8.4962 H   0  0  0  0  0  0  0  0  0  0  0  0
   -4.4264   13.5926   -5.2046 H   0  0  0  0  0  0  0  0  0  0  0  0
   -3.5315   14.1579   -6.6557 H   0  0  0  0  0  0  0  0  0  0  0  0
   -5.3217   14.2932   -6.5953 H   0  0  0  0  0  0  0  0  0  0  0  0
  1  2  1  0  0  0  0
  1  4  1  0  0  0  0
  1 13  1  0  0  0  0
  2  6  2  0  0  0  0
  3  4  2  0  0  0  0
  3  5  1  0  0  0  0
  5  6  1  0  0  0  0
  5  9  1  0  0  0  0
  6  7  1  0  0  0  0
  7  8  1  0  0  0  0
  7 10  2  3  0  0  0
  8  9  2  0  0  0  0
 10 15  1  0  0  0  0
 11 12  1  0  0  0  0
 11 13  2  0  0  0  0
 13 14  1  0  0  0  0
 15 16  2  0  0  0  0
 15 20  1  0  0  0  0
 16 17  1  0  0  0  0
 17 18  2  0  0  0  0
 17 21  1  0  0  0  0
 18 19  1  0  0  0  0
 19 20  2  0  0  0  0
  1 22  1  0  0  0  0
  2 23  1  0  0  0  0
  3 24  1  0  0  0  0
  4 25  1  0  0  0  0
  5 26  1  0  0  0  0
 10 27  1  0  0  0  0
 12 28  1  0  0  0  0
 12 29  1  0  0  0  0
 12 30  1  0  0  0  0
 14 31  1  0  0  0  0
 16 32  1  0  0  0  0
 18 33  1  0  0  0  0
 19 34  1  0  0  0  0
 20 35  1  0  0  0  0
 21 36  1  0  0  0  0
 21 37  1  0  0  0  0
 21 38  1  0  0  0  0
M  END
> <Name>
16

> <IC50[uM]>
0.17

$$$$
16
  -OEChem-05192314333D
 Structure written by MMmdl.
 38 40  0     1  0  0  0  0  0999 V2000
   -6.3886   12.3706  -12.0044 C   0  0  0  0  0  0  0  0  0  0  0  0
   -6.5217   11.8105  -10.7338 C   0  0  0  0  0  0  0  0  0  0  0  0
   -7.7267   10.5778  -13.0331 C   0  0  0  0  0  0  0  0  0  0  0  0
   -6.9997   11.7772  -13.1264 C   0  0  0  0  0  0  0  0  0  0  0  0
   -7.8245   10.0105  -11.7588 C   0  0  3  0  0  0  0  0  0  0  0  0
   -7.2447   10.6240  -10.5997 C   0  0  3  0  0  0  0  0  0  0  0  0
   -7.6157    9.7479   -9.5130 C   0  0  0  0  0  0  0  0  0  0  0  0
   -8.2818    8.7335   -9.9900 N   0  0  0  0  0  0  0  0  0  0  0  0
   -8.4155    8.8614  -11.3010 N   0  0  0  0  0  0  0  0  0  0  0  0
   -7.3377    9.8874   -8.0251 C   0  0  0  0  0  0  0  0  0  0  0  0
   -4.4115   13.6449  -11.4457 N   0  0  0  0  0  0  0  0  0  0  0  0
   -3.4644   14.7678  -11.5034 C   0  0  0  0  0  0  0  0  0  0  0  0
   -5.5490   13.6243  -12.1808 C   0  0  0  0  0  0  0  0  0  0  0  0
   -5.8784   14.5204  -12.9613 O   0  0  0  0  0  0  0  0  0  0  0  0
   -5.9596   10.4818   -7.7362 C   0  0  0  0  0  0  0  0  0  0  0  0
   -5.8460   11.7538   -7.1602 C   0  0  0  0  0  0  0  0  0  0  0  0
   -4.5819   12.3007   -6.9160 C   0  0  0  0  0  0  0  0  0  0  0  0
   -3.4335   11.5746   -7.2403 C   0  0  0  0  0  0  0  0  0  0  0  0
   -3.5461   10.3067   -7.8068 C   0  0  0  0  0  0  0  0  0  0  0  0
   -4.8068    9.7600   -8.0558 C   0  0  0  0  0  0  0  0  0  0  0  0
   -4.4568   13.6807   -6.3006 C   0  0  0  0  0  0  0  0  0  0  0  0
   -6.0750   12.2846   -9.8724 H   0  0  0  0  0  0  0  0  0  0  0  0
   -8.1843   10.1199  -13.8976 H   0  0  0  0  0  0  0  0  0  0  0  0
   -6.9067   12.2589  -14.0885 H   0  0  0  0  0  0  0  0  0  0  0  0
   -8.7599   10.5623  -11.5840 H   0  0  0  0  0  0  0  0  0  0  0  0
   -6.3227   10.0441  -10.7532 H   0  0  0  0  0  0  0  0  0  0  0  0
   -8.0380    9.5979   -7.2556 H   0  0  0  0  0  0  0  0  0  0  0  0
   -2.6189   14.5701  -10.8280 H   0  0  0  0  0  0  0  0  0  0  0  0
   -3.0927   14.8813  -12.5325 H   0  0  0  0  0  0  0  0  0  0  0  0
   -3.9729   15.6925  -11.1931 H   0  0  0  0  0  0  0  0  0  0  0  0
   -5.2336   15.2175  -12.9341 H   0  0  0  0  0  0  0  0  0  0  0  0
   -6.7345   12.3122   -6.9047 H   0  0  0  0  0  0  0  0  0  0  0  0
   -2.4573   11.9965   -7.0517 H   0  0  0  0  0  0  0  0  0  0  0  0
   -2.6569    9.7457   -8.0538 H   0  0  0  0  0  0  0  0  0  0  0  0
   -4.8908    8.7775   -8.4962 H   0  0  0  0  0  0  0  0  0  0  0  0
   -4.4264   13.5926   -5.2046 H   0  0  0  0  0  0  0  0  0  0  0  0
   -3.5315   14.1579   -6.6557 H   0  0  0  0  0  0  0  0  0  0  0  0
   -5.3217   14.2932   -6.5953 H   0  0  0  0  0  0  0  0  0  0  0  0
  1  2  2  0  0  0  0
  1  4  1  0  0  0  0
  1 13  1  0  0  0  0
  2  6  1  0  0  0  0
  3  4  2  0  0  0  0
  3  5  1  0  0  0  0
  5  6  1  0  0  0  0
  5  9  1  0  0  0  0
  6  7  1  0  0  0  0
  7  8  1  0  0  0  0
  7 10  2  3  0  0  0
  8  9  2  0  0  0  0
 10 15  1  0  0  0  0
 11 12  1  0  0  0  0
 11 13  2  0  0  0  0
 13 14  1  0  0  0  0
 15 16  2  0  0  0  0
 15 20  1  0  0  0  0
 16 17  1  0  0  0  0
 17 18  2  0  0  0  0
 17 21  1  0  0  0  0
 18 19  1  0  0  0  0
 19 20  2  0  0  0  0
  2 22  1  0  0  0  0
  3 23  1  0  0  0  0
  4 24  1  0  0  0  0
  5 25  1  0  0  0  0
  6 26  1  0  0  0  0
 10 27  1  0  0  0  0
 12 28  1  0  0  0  0
 12 29  1  0  0  0  0
 12 30  1  0  0  0  0
 14 31  1  0  0  0  0
 16 32  1  0  0  0  0
 18 33  1  0  0  0  0
 19 34  1  0  0  0  0
 20 35  1  0  0  0  0
 21 36  1  0  0  0  0
 21 37  1  0  0  0  0
 21 38  1  0  0  0  0
M  END
> <Name>
16

> <IC50[uM]>
0.17

$$$$
16
  -OEChem-05192314333D
 Structure written by MMmdl.
 38 40  0     1  0  0  0  0  0999 V2000
   -6.3886   12.3706  -12.0044 C   0  0  0  0  0  0  0  0  0  0  0  0
   -6.5217   11.8105  -10.7338 C   0  0  0  0  0  0  0  0  0  0  0  0
   -7.7267   10.5778  -13.0331 C   0  0  0  0  0  0  0  0  0  0  0  0
   -6.9997   11.7772  -13.1264 C   0  0  0  0  0  0  0  0  0  0  0  0
   -7.8245   10.0105  -11.7588 C   0  0  3  0  0  0  0  0  0  0  0  0
   -7.2447   10.6240  -10.5997 C   0  0  0  0  0  0  0  0  0  0  0  0
   -7.6157    9.7479   -9.5130 C   0  0  0  0  0  0  0  0  0  0  0  0
   -8.2818    8.7335   -9.9900 N   0  0  0  0  0  0  0  0  0  0  0  0
   -8.4155    8.8614  -11.3010 N   0  0  0  0  0  0  0  0  0  0  0  0
   -7.3377    9.8874   -8.0251 C   0  0  0  0  0  0  0  0  0  0  0  0
   -4.4115   13.6449  -11.4457 N   0  0  0  0  0  0  0  0  0  0  0  0
   -3.4644   14.7678  -11.5034 C   0  0  0  0  0  0  0  0  0  0  0  0
   -5.5490   13.6243  -12.1808 C   0  0  0  0  0  0  0  0  0  0  0  0
   -5.8784   14.5204  -12.9613 O   0  0  0  0  0  0  0  0  0  0  0  0
   -5.9596   10.4818   -7.7362 C   0  0  0  0  0  0  0  0  0  0  0  0
   -5.8460   11.7538   -7.1602 C   0  0  0  0  0  0  0  0  0  0  0  0
   -4.5819   12.3007   -6.9160 C   0  0  0  0  0  0  0  0  0  0  0  0
   -3.4335   11.5746   -7.2403 C   0  0  0  0  0  0  0  0  0  0  0  0
   -3.5461   10.3067   -7.8068 C   0  0  0  0  0  0  0  0  0  0  0  0
   -4.8068    9.7600   -8.0558 C   0  0  0  0  0  0  0  0  0  0  0  0
   -4.4568   13.6807   -6.3006 C   0  0  0  0  0  0  0  0  0  0  0  0
   -6.0750   12.2846   -9.8724 H   0  0  0  0  0  0  0  0  0  0  0  0
   -8.7478   10.7760  -13.3910 H   0  0  0  0  0  0  0  0  0  0  0  0
   -7.2438    9.8410  -13.6919 H   0  0  0  0  0  0  0  0  0  0  0  0
   -6.9067   12.2589  -14.0885 H   0  0  0  0  0  0  0  0  0  0  0  0
   -8.7599   10.5623  -11.5840 H   0  0  0  0  0  0  0  0  0  0  0  0
   -8.0380    9.5979   -7.2556 H   0  0  0  0  0  0  0  0  0  0  0  0
   -2.6189   14.5701  -10.8280 H   0  0  0  0  0  0  0  0  0  0  0  0
   -3.0927   14.8813  -12.5325 H   0  0  0  0  0  0  0  0  0  0  0  0
   -3.9729   15.6925  -11.1931 H   0  0  0  0  0  0  0  0  0  0  0  0
   -5.2336   15.2175  -12.9341 H   0  0  0  0  0  0  0  0  0  0  0  0
   -6.7345   12.3122   -6.9047 H   0  0  0  0  0  0  0  0  0  0  0  0
   -2.4573   11.9965   -7.0517 H   0  0  0  0  0  0  0  0  0  0  0  0
   -2.6569    9.7457   -8.0538 H   0  0  0  0  0  0  0  0  0  0  0  0
   -4.8908    8.7775   -8.4962 H   0  0  0  0  0  0  0  0  0  0  0  0
   -4.4264   13.5926   -5.2046 H   0  0  0  0  0  0  0  0  0  0  0  0
   -3.5315   14.1579   -6.6557 H   0  0  0  0  0  0  0  0  0  0  0  0
   -5.3217   14.2932   -6.5953 H   0  0  0  0  0  0  0  0  0  0  0  0
  1  2  1  0  0  0  0
  1  4  2  0  0  0  0
  1 13  1  0  0  0  0
  2  6  2  0  0  0  0
  3  4  1  0  0  0  0
  3  5  1  0  0  0  0
  5  6  1  0  0  0  0
  5  9  1  0  0  0  0
  6  7  1  0  0  0  0
  7  8  1  0  0  0  0
  7 10  2  3  0  0  0
  8  9  2  0  0  0  0
 10 15  1  0  0  0  0
 11 12  1  0  0  0  0
 11 13  2  0  0  0  0
 13 14  1  0  0  0  0
 15 16  2  0  0  0  0
 15 20  1  0  0  0  0
 16 17  1  0  0  0  0
 17 18  2  0  0  0  0
 17 21  1  0  0  0  0
 18 19  1  0  0  0  0
 19 20  2  0  0  0  0
  2 22  1  0  0  0  0
  3 23  1  0  0  0  0
  3 24  1  0  0  0  0
  4 25  1  0  0  0  0
  5 26  1  0  0  0  0
 10 27  1  0  0  0  0
 12 28  1  0  0  0  0
 12 29  1  0  0  0  0
 12 30  1  0  0  0  0
 14 31  1  0  0  0  0
 16 32  1  0  0  0  0
 18 33  1  0  0  0  0
 19 34  1  0  0  0  0
 20 35  1  0  0  0  0
 21 36  1  0  0  0  0
 21 37  1  0  0  0  0
 21 38  1  0  0  0  0
M  END
> <Name>
16

> <IC50[uM]>
0.17

$$$$
16
  -OEChem-05192314333D
 Structure written by MMmdl.
 38 40  0     1  0  0  0  0  0999 V2000
   -6.3886   12.3706  -12.0044 C   0  0  3  0  0  0  0  0  0  0  0  0
   -6.5217   11.8105  -10.7338 C   0  0  0  0  0  0  0  0  0  0  0  0
   -7.7267   10.5778  -13.0331 C   0  0  0  0  0  0  0  0  0  0  0  0
   -6.9997   11.7772  -13.1264 C   0  0  0  0  0  0  0  0  0  0  0  0
   -7.8245   10.0105  -11.7588 C   0  0  0  0  0  0  0  0  0  0  0  0
   -7.2447   10.6240  -10.5997 C   0  0  0  0  0  0  0  0  0  0  0  0
   -7.6157    9.7479   -9.5130 C   0  0  0  0  0  0  0  0  0  0  0  0
   -8.2818    8.7335   -9.9900 N   0  0  0  0  0  0  0  0  0  0  0  0
   -8.4155    8.8614  -11.3010 N   0  0  0  0  0  0  0  0  0  0  0  0
   -7.3377    9.8874   -8.0251 C   0  0  0  0  0  0  0  0  0  0  0  0
   -4.4115   13.6449  -11.4457 N   0  0  0  0  0  0  0  0  0  0  0  0
   -3.4644   14.7678  -11.5034 C   0  0  0  0  0  0  0  0  0  0  0  0
   -5.5490   13.6243  -12.1808 C   0  0  0  0  0  0  0  0  0  0  0  0
   -5.8784   14.5204  -12.9613 O   0  0  0  0  0  0  0  0  0  0  0  0
   -5.9596   10.4818   -7.7362 C   0  0  0  0  0  0  0  0  0  0  0  0
   -5.8460   11.7538   -7.1602 C   0  0  0  0  0  0  0  0  0  0  0  0
   -4.5819   12.3007   -6.9160 C   0  0  0  0  0  0  0  0  0  0  0  0
   -3.4335   11.5746   -7.2403 C   0  0  0  0  0  0  0  0  0  0  0  0
   -3.5461   10.3067   -7.8068 C   0  0  0  0  0  0  0  0  0  0  0  0
   -4.8068    9.7600   -8.0558 C   0  0  0  0  0  0  0  0  0  0  0  0
   -4.4568   13.6807   -6.3006 C   0  0  0  0  0  0  0  0  0  0  0  0
   -7.2839   12.9866  -11.8341 H   0  0  0  0  0  0  0  0  0  0  0  0
   -6.0750   12.2846   -9.8724 H   0  0  0  0  0  0  0  0  0  0  0  0
   -8.1843   10.1199  -13.8976 H   0  0  0  0  0  0  0  0  0  0  0  0
   -7.6950   12.5276  -13.5308 H   0  0  0  0  0  0  0  0  0  0  0  0
   -6.1951   11.5934  -13.8536 H   0  0  0  0  0  0  0  0  0  0  0  0
   -8.0380    9.5979   -7.2556 H   0  0  0  0  0  0  0  0  0  0  0  0
   -2.6189   14.5701  -10.8280 H   0  0  0  0  0  0  0  0  0  0  0  0
   -3.0927   14.8813  -12.5325 H   0  0  0  0  0  0  0  0  0  0  0  0
   -3.9729   15.6925  -11.1931 H   0  0  0  0  0  0  0  0  0  0  0  0
   -5.2336   15.2175  -12.9341 H   0  0  0  0  0  0  0  0  0  0  0  0
   -6.7345   12.3122   -6.9047 H   0  0  0  0  0  0  0  0  0  0  0  0
   -2.4573   11.9965   -7.0517 H   0  0  0  0  0  0  0  0  0  0  0  0
   -2.6569    9.7457   -8.0538 H   0  0  0  0  0  0  0  0  0  0  0  0
   -4.8908    8.7775   -8.4962 H   0  0  0  0  0  0  0  0  0  0  0  0
   -4.4264   13.5926   -5.2046 H   0  0  0  0  0  0  0  0  0  0  0  0
   -3.5315   14.1579   -6.6557 H   0  0  0  0  0  0  0  0  0  0  0  0
   -5.3217   14.2932   -6.5953 H   0  0  0  0  0  0  0  0  0  0  0  0
  1  2  1  0  0  0  0
  1  4  1  0  0  0  0
  1 13  1  0  0  0  0
  2  6  2  0  0  0  0
  3  4  1  0  0  0  0
  3  5  2  0  0  0  0
  5  6  1  0  0  0  0
  5  9  1  0  0  0  0
  6  7  1  0  0  0  0
  7  8  1  0  0  0  0
  7 10  2  3  0  0  0
  8  9  2  0  0  0  0
 10 15  1  0  0  0  0
 11 12  1  0  0  0  0
 11 13  2  0  0  0  0
 13 14  1  0  0  0  0
 15 16  2  0  0  0  0
 15 20  1  0  0  0  0
 16 17  1  0  0  0  0
 17 18  2  0  0  0  0
 17 21  1  0  0  0  0
 18 19  1  0  0  0  0
 19 20  2  0  0  0  0
  1 22  1  0  0  0  0
  2 23  1  0  0  0  0
  3 24  1  0  0  0  0
  4 25  1  0  0  0  0
  4 26  1  0  0  0  0
 10 27  1  0  0  0  0
 12 28  1  0  0  0  0
 12 29  1  0  0  0  0
 12 30  1  0  0  0  0
 14 31  1  0  0  0  0
 16 32  1  0  0  0  0
 18 33  1  0  0  0  0
 19 34  1  0  0  0  0
 20 35  1  0  0  0  0
 21 36  1  0  0  0  0
 21 37  1  0  0  0  0
 21 38  1  0  0  0  0
M  END
> <Name>
16

> <IC50[uM]>
0.17

$$$$
16
  -OEChem-05192314333D
 Structure written by MMmdl.
 38 40  0     1  0  0  0  0  0999 V2000
   -6.3886   12.3706  -12.0044 C   0  0  0  0  0  0  0  0  0  0  0  0
   -6.5217   11.8105  -10.7338 C   0  0  0  0  0  0  0  0  0  0  0  0
   -7.7267   10.5778  -13.0331 C   0  0  0  0  0  0  0  0  0  0  0  0
   -6.9997   11.7772  -13.1264 C   0  0  0  0  0  0  0  0  0  0  0  0
   -7.8245   10.0105  -11.7588 C   0  0  0  0  0  0  0  0  0  0  0  0
   -7.2447   10.6240  -10.5997 C   0  0  3  0  0  0  0  0  0  0  0  0
   -7.6157    9.7479   -9.5130 C   0  0  0  0  0  0  0  0  0  0  0  0
   -8.2818    8.7335   -9.9900 N   0  0  0  0  0  0  0  0  0  0  0  0
   -8.4155    8.8614  -11.3010 N   0  0  0  0  0  0  0  0  0  0  0  0
   -7.3377    9.8874   -8.0251 C   0  0  0  0  0  0  0  0  0  0  0  0
   -4.4115   13.6449  -11.4457 N   0  0  0  0  0  0  0  0  0  0  0  0
   -3.4644   14.7678  -11.5034 C   0  0  0  0  0  0  0  0  0  0  0  0
   -5.5490   13.6243  -12.1808 C   0  0  0  0  0  0  0  0  0  0  0  0
   -5.8784   14.5204  -12.9613 O   0  0  0  0  0  0  0  0  0  0  0  0
   -5.9596   10.4818   -7.7362 C   0  0  0  0  0  0  0  0  0  0  0  0
   -5.8460   11.7538   -7.1602 C   0  0  0  0  0  0  0  0  0  0  0  0
   -4.5819   12.3007   -6.9160 C   0  0  0  0  0  0  0  0  0  0  0  0
   -3.4335   11.5746   -7.2403 C   0  0  0  0  0  0  0  0  0  0  0  0
   -3.5461   10.3067   -7.8068 C   0  0  0  0  0  0  0  0  0  0  0  0
   -4.8068    9.7600   -8.0558 C   0  0  0  0  0  0  0  0  0  0  0  0
   -4.4568   13.6807   -6.3006 C   0  0  0  0  0  0  0  0  0  0  0  0
   -6.0750   12.2846   -9.8724 H   0  0  0  0  0  0  0  0  0  0  0  0
   -8.1843   10.1199  -13.8976 H   0  0  0  0  0  0  0  0  0  0  0  0
   -7.6950   12.5276  -13.5308 H   0  0  0  0  0  0  0  0  0  0  0  0
   -6.1951   11.5934  -13.8536 H   0  0  0  0  0  0  0  0  0  0  0  0
   -6.3227   10.0441  -10.7532 H   0  0  0  0  0  0  0  0  0  0  0  0
   -8.0380    9.5979   -7.2556 H   0  0  0  0  0  0  0  0  0  0  0  0
   -2.6189   14.5701  -10.8280 H   0  0  0  0  0  0  0  0  0  0  0  0
   -3.0927   14.8813  -12.5325 H   0  0  0  0  0  0  0  0  0  0  0  0
   -3.9729   15.6925  -11.1931 H   0  0  0  0  0  0  0  0  0  0  0  0
   -5.2336   15.2175  -12.9341 H   0  0  0  0  0  0  0  0  0  0  0  0
   -6.7345   12.3122   -6.9047 H   0  0  0  0  0  0  0  0  0  0  0  0
   -2.4573   11.9965   -7.0517 H   0  0  0  0  0  0  0  0  0  0  0  0
   -2.6569    9.7457   -8.0538 H   0  0  0  0  0  0  0  0  0  0  0  0
   -4.8908    8.7775   -8.4962 H   0  0  0  0  0  0  0  0  0  0  0  0
   -4.4264   13.5926   -5.2046 H   0  0  0  0  0  0  0  0  0  0  0  0
   -3.5315   14.1579   -6.6557 H   0  0  0  0  0  0  0  0  0  0  0  0
   -5.3217   14.2932   -6.5953 H   0  0  0  0  0  0  0  0  0  0  0  0
  1  2  2  0  0  0  0
  1  4  1  0  0  0  0
  1 13  1  0  0  0  0
  2  6  1  0  0  0  0
  3  4  1  0  0  0  0
  3  5  2  0  0  0  0
  5  6  1  0  0  0  0
  5  9  1  0  0  0  0
  6  7  1  0  0  0  0
  7  8  1  0  0  0  0
  7 10  2  3  0  0  0
  8  9  2  0  0  0  0
 10 15  1  0  0  0  0
 11 12  1  0  0  0  0
 11 13  2  0  0  0  0
 13 14  1  0  0  0  0
 15 16  2  0  0  0  0
 15 20  1  0  0  0  0
 16 17  1  0  0  0  0
 17 18  2  0  0  0  0
 17 21  1  0  0  0  0
 18 19  1  0  0  0  0
 19 20  2  0  0  0  0
  2 22  1  0  0  0  0
  3 23  1  0  0  0  0
  4 24  1  0  0  0  0
  4 25  1  0  0  0  0
  6 26  1  0  0  0  0
 10 27  1  0  0  0  0
 12 28  1  0  0  0  0
 12 29  1  0  0  0  0
 12 30  1  0  0  0  0
 14 31  1  0  0  0  0
 16 32  1  0  0  0  0
 18 33  1  0  0  0  0
 19 34  1  0  0  0  0
 20 35  1  0  0  0  0
 21 36  1  0  0  0  0
 21 37  1  0  0  0  0
 21 38  1  0  0  0  0
M  END
> <Name>
16

> <IC50[uM]>
0.17

$$$$
16
  -OEChem-05192314333D
 Structure written by MMmdl.
 38 40  0     0  0  0  0  0  0999 V2000
   -6.3886   12.3706  -12.0044 C   0  0  0  0  0  0  0  0  0  0  0  0
   -6.5217   11.8105  -10.7338 C   0  0  0  0  0  0  0  0  0  0  0  0
   -7.7267   10.5778  -13.0331 C   0  0  0  0  0  0  0  0  0  0  0  0
   -6.9997   11.7772  -13.1264 C   0  0  0  0  0  0  0  0  0  0  0  0
   -7.8245   10.0105  -11.7588 C   0  0  0  0  0  0  0  0  0  0  0  0
   -7.2447   10.6240  -10.5997 C   0  0  0  0  0  0  0  0  0  0  0  0
   -7.6157    9.7479   -9.5130 C   0  0  0  0  0  0  0  0  0  0  0  0
   -8.2818    8.7335   -9.9900 N   0  0  0  0  0  0  0  0  0  0  0  0
   -8.4155    8.8614  -11.3010 N   0  0  0  0  0  0  0  0  0  0  0  0
   -7.3377    9.8874   -8.0251 C   0  0  0  0  0  0  0  0  0  0  0  0
   -4.4115   13.6449  -11.4457 N   0  0  0  0  0  0  0  0  0  0  0  0
   -3.4644   14.7678  -11.5034 C   0  0  0  0  0  0  0  0  0  0  0  0
   -5.5490   13.6243  -12.1808 C   0  0  0  0  0  0  0  0  0  0  0  0
   -5.8784   14.5204  -12.9613 O   0  0  0  0  0  0  0  0  0  0  0  0
   -5.9596   10.4818   -7.7362 C   0  0  0  0  0  0  0  0  0  0  0  0
   -5.8460   11.7538   -7.1602 C   0  0  0  0  0  0  0  0  0  0  0  0
   -4.5819   12.3007   -6.9160 C   0  0  0  0  0  0  0  0  0  0  0  0
   -3.4335   11.5746   -7.2403 C   0  0  0  0  0  0  0  0  0  0  0  0
   -3.5461   10.3067   -7.8068 C   0  0  0  0  0  0  0  0  0  0  0  0
   -4.8068    9.7600   -8.0558 C   0  0  0  0  0  0  0  0  0  0  0  0
   -4.4568   13.6807   -6.3006 C   0  0  0  0  0  0  0  0  0  0  0  0
   -6.0750   12.2846   -9.8724 H   0  0  0  0  0  0  0  0  0  0  0  0
   -8.7478   10.7760  -13.3910 H   0  0  0  0  0  0  0  0  0  0  0  0
   -7.2438    9.8410  -13.6919 H   0  0  0  0  0  0  0  0  0  0  0  0
   -7.6950   12.5276  -13.5308 H   0  0  0  0  0  0  0  0  0  0  0  0
   -6.1951   11.5934  -13.8536 H   0  0  0  0  0  0  0  0  0  0  0  0
   -8.0380    9.5979   -7.2556 H   0  0  0  0  0  0  0  0  0  0  0  0
   -2.6189   14.5701  -10.8280 H   0  0  0  0  0  0  0  0  0  0  0  0
   -3.0927   14.8813  -12.5325 H   0  0  0  0  0  0  0  0  0  0  0  0
   -3.9729   15.6925  -11.1931 H   0  0  0  0  0  0  0  0  0  0  0  0
   -5.2336   15.2175  -12.9341 H   0  0  0  0  0  0  0  0  0  0  0  0
   -6.7345   12.3122   -6.9047 H   0  0  0  0  0  0  0  0  0  0  0  0
   -2.4573   11.9965   -7.0517 H   0  0  0  0  0  0  0  0  0  0  0  0
   -2.6569    9.7457   -8.0538 H   0  0  0  0  0  0  0  0  0  0  0  0
   -4.8908    8.7775   -8.4962 H   0  0  0  0  0  0  0  0  0  0  0  0
   -4.4264   13.5926   -5.2046 H   0  0  0  0  0  0  0  0  0  0  0  0
   -3.5315   14.1579   -6.6557 H   0  0  0  0  0  0  0  0  0  0  0  0
   -5.3217   14.2932   -6.5953 H   0  0  0  0  0  0  0  0  0  0  0  0
  1  2  2  0  0  0  0
  1  4  1  0  0  0  0
  1 13  1  0  0  0  0
  2  6  1  0  0  0  0
  3  4  1  0  0  0  0
  3  5  1  0  0  0  0
  5  6  2  0  0  0  0
  5  9  1  0  0  0  0
  6  7  1  0  0  0  0
  7  8  1  0  0  0  0
  7 10  2  3  0  0  0
  8  9  2  0  0  0  0
 10 15  1  0  0  0  0
 11 12  1  0  0  0  0
 11 13  2  0  0  0  0
 13 14  1  0  0  0  0
 15 16  2  0  0  0  0
 15 20  1  0  0  0  0
 16 17  1  0  0  0  0
 17 18  2  0  0  0  0
 17 21  1  0  0  0  0
 18 19  1  0  0  0  0
 19 20  2  0  0  0  0
  2 22  1  0  0  0  0
  3 23  1  0  0  0  0
  3 24  1  0  0  0  0
  4 25  1  0  0  0  0
  4 26  1  0  0  0  0
 10 27  1  0  0  0  0
 12 28  1  0  0  0  0
 12 29  1  0  0  0  0
 12 30  1  0  0  0  0
 14 31  1  0  0  0  0
 16 32  1  0  0  0  0
 18 33  1  0  0  0  0
 19 34  1  0  0  0  0
 20 35  1  0  0  0  0
 21 36  1  0  0  0  0
 21 37  1  0  0  0  0
 21 38  1  0  0  0  0
M  END
> <Name>
16

> <IC50[uM]>
0.17

$$$$
16
  -OEChem-05192314333D
 Structure written by MMmdl.
 38 40  0     1  0  0  0  0  0999 V2000
   -6.3886   12.3706  -12.0044 C   0  0  0  0  0  0  0  0  0  0  0  0
   -6.5217   11.8105  -10.7338 C   0  0  0  0  0  0  0  0  0  0  0  0
   -7.7267   10.5778  -13.0331 C   0  0  0  0  0  0  0  0  0  0  0  0
   -6.9997   11.7772  -13.1264 C   0  0  0  0  0  0  0  0  0  0  0  0
   -7.8245   10.0105  -11.7588 C   0  0  0  0  0  0  0  0  0  0  0  0
   -7.2447   10.6240  -10.5997 C   0  0  0  0  0  0  0  0  0  0  0  0
   -7.6157    9.7479   -9.5130 C   0  0  0  0  0  0  0  0  0  0  0  0
   -8.2818    8.7335   -9.9900 N   0  0  0  0  0  0  0  0  0  0  0  0
   -8.4155    8.8614  -11.3010 N   0  0  0  0  0  0  0  0  0  0  0  0
   -7.3377    9.8874   -8.0251 C   0  0  0  0  0  0  0  0  0  0  0  0
   -4.4115   13.6449  -11.4457 N   0  0  0  0  0  0  0  0  0  0  0  0
   -3.4644   14.7678  -11.5034 C   0  0  0  0  0  0  0  0  0  0  0  0
   -5.5490   13.6243  -12.1808 C   0  0  0  0  0  0  0  0  0  0  0  0
   -5.8784   14.5204  -12.9613 O   0  0  0  0  0  0  0  0  0  0  0  0
   -5.9596   10.4818   -7.7362 C   0  0  0  0  0  0  0  0  0  0  0  0
   -5.8460   11.7538   -7.1602 C   0  0  0  0  0  0  0  0  0  0  0  0
   -4.5819   12.3007   -6.9160 C   0  0  3  0  0  0  0  0  0  0  0  0
   -3.4335   11.5746   -7.2403 C   0  0  0  0  0  0  0  0  0  0  0  0
   -3.5461   10.3067   -7.8068 C   0  0  0  0  0  0  0  0  0  0  0  0
   -4.8068    9.7600   -8.0558 C   0  0  0  0  0  0  0  0  0  0  0  0
   -4.4568   13.6807   -6.3006 C   0  0  0  0  0  0  0  0  0  0  0  0
   -6.0750   12.2846   -9.8724 H   0  0  0  0  0  0  0  0  0  0  0  0
   -8.1843   10.1199  -13.8976 H   0  0  0  0  0  0  0  0  0  0  0  0
   -6.9067   12.2589  -14.0885 H   0  0  0  0  0  0  0  0  0  0  0  0
   -8.0380    9.5979   -7.2556 H   0  0  0  0  0  0  0  0  0  0  0  0
   -2.6189   14.5701  -10.8280 H   0  0  0  0  0  0  0  0  0  0  0  0
   -3.0927   14.8813  -12.5325 H   0  0  0  0  0  0  0  0  0  0  0  0
   -3.9729   15.6925  -11.1931 H   0  0  0  0  0  0  0  0  0  0  0  0
   -5.2336   15.2175  -12.9341 H   0  0  0  0  0  0  0  0  0  0  0  0
   -6.7345   12.3122   -6.9047 H   0  0  0  0  0  0  0  0  0  0  0  0
   -4.5818   11.8525   -5.9114 H   0  0  0  0  0  0  0  0  0  0  0  0
   -2.4573   11.9965   -7.0517 H   0  0  0  0  0  0  0  0  0  0  0  0
   -2.6569    9.7457   -8.0538 H   0  0  0  0  0  0  0  0  0  0  0  0
   -4.8589    8.8150   -7.4951 H   0  0  0  0  0  0  0  0  0  0  0  0
   -4.8535    9.5494   -9.1344 H   0  0  0  0  0  0  0  0  0  0  0  0
   -3.3931   13.9367   -6.1862 H   0  0  0  0  0  0  0  0  0  0  0  0
   -4.9432   14.4192   -6.9548 H   0  0  0  0  0  0  0  0  0  0  0  0
   -4.9436   13.6877   -5.3142 H   0  0  0  0  0  0  0  0  0  0  0  0
  1  2  2  0  0  0  0
  1  4  1  0  0  0  0
  1 13  1  0  0  0  0
  2  6  1  0  0  0  0
  3  4  2  0  0  0  0
  3  5  1  0  0  0  0
  5  6  2  0  0  0  0
  5  9  1  0  0  0  0
  6  7  1  0  0  0  0
  7  8  1  0  0  0  0
  7 10  2  3  0  0  0
  8  9  2  0  0  0  0
 10 15  1  0  0  0  0
 11 12  1  0  0  0  0
 11 13  2  0  0  0  0
 13 14  1  0  0  0  0
 15 16  2  0  0  0  0
 15 20  1  0  0  0  0
 16 17  1  0  0  0  0
 17 18  1  0  0  0  0
 17 21  1  0  0  0  0
 18 19  2  0  0  0  0
 19 20  1  0  0  0  0
  2 22  1  0  0  0  0
  3 23  1  0  0  0  0
  4 24  1  0  0  0  0
 10 25  1  0  0  0  0
 12 26  1  0  0  0  0
 12 27  1  0  0  0  0
 12 28  1  0  0  0  0
 14 29  1  0  0  0  0
 16 30  1  0  0  0  0
 17 31  1  0  0  0  0
 18 32  1  0  0  0  0
 19 33  1  0  0  0  0
 20 34  1  0  0  0  0
 20 35  1  0  0  0  0
 21 36  1  0  0  0  0
 21 37  1  0  0  0  0
 21 38  1  0  0  0  0
M  END
> <Name>
16

> <IC50[uM]>
0.17

$$$$
16
  -OEChem-05192314333D
 Structure written by MMmdl.
 38 40  0     1  0  0  0  0  0999 V2000
   -6.3886   12.3706  -12.0044 C   0  0  0  0  0  0  0  0  0  0  0  0
   -6.5217   11.8105  -10.7338 C   0  0  0  0  0  0  0  0  0  0  0  0
   -7.7267   10.5778  -13.0331 C   0  0  0  0  0  0  0  0  0  0  0  0
   -6.9997   11.7772  -13.1264 C   0  0  0  0  0  0  0  0  0  0  0  0
   -7.8245   10.0105  -11.7588 C   0  0  0  0  0  0  0  0  0  0  0  0
   -7.2447   10.6240  -10.5997 C   0  0  0  0  0  0  0  0  0  0  0  0
   -7.6157    9.7479   -9.5130 C   0  0  0  0  0  0  0  0  0  0  0  0
   -8.2818    8.7335   -9.9900 N   0  0  0  0  0  0  0  0  0  0  0  0
   -8.4155    8.8614  -11.3010 N   0  0  0  0  0  0  0  0  0  0  0  0
   -7.3377    9.8874   -8.0251 C   0  0  0  0  0  0  0  0  0  0  0  0
   -4.4115   13.6449  -11.4457 N   0  0  0  0  0  0  0  0  0  0  0  0
   -3.4644   14.7678  -11.5034 C   0  0  0  0  0  0  0  0  0  0  0  0
   -5.5490   13.6243  -12.1808 C   0  0  0  0  0  0  0  0  0  0  0  0
   -5.8784   14.5204  -12.9613 O   0  0  0  0  0  0  0  0  0  0  0  0
   -5.9596   10.4818   -7.7362 C   0  0  3  0  0  0  0  0  0  0  0  0
   -5.8460   11.7538   -7.1602 C   0  0  0  0  0  0  0  0  0  0  0  0
   -4.5819   12.3007   -6.9160 C   0  0  0  0  0  0  0  0  0  0  0  0
   -3.4335   11.5746   -7.2403 C   0  0  0  0  0  0  0  0  0  0  0  0
   -3.5461   10.3067   -7.8068 C   0  0  0  0  0  0  0  0  0  0  0  0
   -4.8068    9.7600   -8.0558 C   0  0  0  0  0  0  0  0  0  0  0  0
   -4.4568   13.6807   -6.3006 C   0  0  0  0  0  0  0  0  0  0  0  0
   -6.0750   12.2846   -9.8724 H   0  0  0  0  0  0  0  0  0  0  0  0
   -8.1843   10.1199  -13.8976 H   0  0  0  0  0  0  0  0  0  0  0  0
   -6.9067   12.2589  -14.0885 H   0  0  0  0  0  0  0  0  0  0  0  0
   -8.0380    9.5979   -7.2556 H   0  0  0  0  0  0  0  0  0  0  0  0
   -2.6189   14.5701  -10.8280 H   0  0  0  0  0  0  0  0  0  0  0  0
   -3.0927   14.8813  -12.5325 H   0  0  0  0  0  0  0  0  0  0  0  0
   -3.9729   15.6925  -11.1931 H   0  0  0  0  0  0  0  0  0  0  0  0
   -5.2336   15.2175  -12.9341 H   0  0  0  0  0  0  0  0  0  0  0  0
   -5.9704   10.0264   -6.7349 H   0  0  0  0  0  0  0  0  0  0  0  0
   -6.7345   12.3122   -6.9047 H   0  0  0  0  0  0  0  0  0  0  0  0
   -2.4573   11.9965   -7.0517 H   0  0  0  0  0  0  0  0  0  0  0  0
   -2.6569    9.7457   -8.0538 H   0  0  0  0  0  0  0  0  0  0  0  0
   -4.8589    8.8150   -7.4951 H   0  0  0  0  0  0  0  0  0  0  0  0
   -4.8535    9.5494   -9.1344 H   0  0  0  0  0  0  0  0  0  0  0  0
   -3.3931   13.9367   -6.1862 H   0  0  0  0  0  0  0  0  0  0  0  0
   -4.9432   14.4192   -6.9548 H   0  0  0  0  0  0  0  0  0  0  0  0
   -4.9436   13.6877   -5.3142 H   0  0  0  0  0  0  0  0  0  0  0  0
  1  2  2  0  0  0  0
  1  4  1  0  0  0  0
  1 13  1  0  0  0  0
  2  6  1  0  0  0  0
  3  4  2  0  0  0  0
  3  5  1  0  0  0  0
  5  6  2  0  0  0  0
  5  9  1  0  0  0  0
  6  7  1  0  0  0  0
  7  8  1  0  0  0  0
  7 10  2  3  0  0  0
  8  9  2  0  0  0  0
 10 15  1  0  0  0  0
 11 12  1  0  0  0  0
 11 13  2  0  0  0  0
 13 14  1  0  0  0  0
 15 16  1  0  0  0  0
 15 20  1  0  0  0  0
 16 17  2  0  0  0  0
 17 18  1  0  0  0  0
 17 21  1  0  0  0  0
 18 19  2  0  0  0  0
 19 20  1  0  0  0  0
  2 22  1  0  0  0  0
  3 23  1  0  0  0  0
  4 24  1  0  0  0  0
 10 25  1  0  0  0  0
 12 26  1  0  0  0  0
 12 27  1  0  0  0  0
 12 28  1  0  0  0  0
 14 29  1  0  0  0  0
 15 30  1  0  0  0  0
 16 31  1  0  0  0  0
 18 32  1  0  0  0  0
 19 33  1  0  0  0  0
 20 34  1  0  0  0  0
 20 35  1  0  0  0  0
 21 36  1  0  0  0  0
 21 37  1  0  0  0  0
 21 38  1  0  0  0  0
M  END
> <Name>
16

> <IC50[uM]>
0.17

$$$$
16
  -OEChem-05192314333D
 Structure written by MMmdl.
 38 40  0     1  0  0  0  0  0999 V2000
   -6.3886   12.3706  -12.0044 C   0  0  0  0  0  0  0  0  0  0  0  0
   -6.5217   11.8105  -10.7338 C   0  0  0  0  0  0  0  0  0  0  0  0
   -7.7267   10.5778  -13.0331 C   0  0  0  0  0  0  0  0  0  0  0  0
   -6.9997   11.7772  -13.1264 C   0  0  0  0  0  0  0  0  0  0  0  0
   -7.8245   10.0105  -11.7588 C   0  0  0  0  0  0  0  0  0  0  0  0
   -7.2447   10.6240  -10.5997 C   0  0  0  0  0  0  0  0  0  0  0  0
   -7.6157    9.7479   -9.5130 C   0  0  3  0  0  0  0  0  0  0  0  0
   -8.2818    8.7335   -9.9900 N   0  0  0  0  0  0  0  0  0  0  0  0
   -8.4155    8.8614  -11.3010 N   0  0  0  0  0  0  0  0  0  0  0  0
   -7.3377    9.8874   -8.0251 C   0  0  0  0  0  0  0  0  0  0  0  0
   -4.4115   13.6449  -11.4457 N   0  0  0  0  0  0  0  0  0  0  0  0
   -3.4644   14.7678  -11.5034 C   0  0  0  0  0  0  0  0  0  0  0  0
   -5.5490   13.6243  -12.1808 C   0  0  0  0  0  0  0  0  0  0  0  0
   -5.8784   14.5204  -12.9613 O   0  0  0  0  0  0  0  0  0  0  0  0
   -5.9596   10.4818   -7.7362 C   0  0  0  0  0  0  0  0  0  0  0  0
   -5.8460   11.7538   -7.1602 C   0  0  0  0  0  0  0  0  0  0  0  0
   -4.5819   12.3007   -6.9160 C   0  0  0  0  0  0  0  0  0  0  0  0
   -3.4335   11.5746   -7.2403 C   0  0  0  0  0  0  0  0  0  0  0  0
   -3.5461   10.3067   -7.8068 C   0  0  0  0  0  0  0  0  0  0  0  0
   -4.8068    9.7600   -8.0558 C   0  0  0  0  0  0  0  0  0  0  0  0
   -4.4568   13.6807   -6.3006 C   0  0  0  0  0  0  0  0  0  0  0  0
   -6.0750   12.2846   -9.8724 H   0  0  0  0  0  0  0  0  0  0  0  0
   -8.1843   10.1199  -13.8976 H   0  0  0  0  0  0  0  0  0  0  0  0
   -6.9067   12.2589  -14.0885 H   0  0  0  0  0  0  0  0  0  0  0  0
   -6.6751    9.1915   -9.6382 H   0  0  0  0  0  0  0  0  0  0  0  0
   -8.0380    9.5979   -7.2556 H   0  0  0  0  0  0  0  0  0  0  0  0
   -2.6189   14.5701  -10.8280 H   0  0  0  0  0  0  0  0  0  0  0  0
   -3.0927   14.8813  -12.5325 H   0  0  0  0  0  0  0  0  0  0  0  0
   -3.9729   15.6925  -11.1931 H   0  0  0  0  0  0  0  0  0  0  0  0
   -5.2336   15.2175  -12.9341 H   0  0  0  0  0  0  0  0  0  0  0  0
   -6.7345   12.3122   -6.9047 H   0  0  0  0  0  0  0  0  0  0  0  0
   -2.4573   11.9965   -7.0517 H   0  0  0  0  0  0  0  0  0  0  0  0
   -2.6569    9.7457   -8.0538 H   0  0  0  0  0  0  0  0  0  0  0  0
   -4.8589    8.8150   -7.4951 H   0  0  0  0  0  0  0  0  0  0  0  0
   -4.8535    9.5494   -9.1344 H   0  0  0  0  0  0  0  0  0  0  0  0
   -3.3931   13.9367   -6.1862 H   0  0  0  0  0  0  0  0  0  0  0  0
   -4.9432   14.4192   -6.9548 H   0  0  0  0  0  0  0  0  0  0  0  0
   -4.9436   13.6877   -5.3142 H   0  0  0  0  0  0  0  0  0  0  0  0
  1  2  2  0  0  0  0
  1  4  1  0  0  0  0
  1 13  1  0  0  0  0
  2  6  1  0  0  0  0
  3  4  2  0  0  0  0
  3  5  1  0  0  0  0
  5  6  2  0  0  0  0
  5  9  1  0  0  0  0
  6  7  1  0  0  0  0
  7  8  1  0  0  0  0
  7 10  1  0  0  0  0
  8  9  2  0  0  0  0
 10 15  2  3  0  0  0
 11 12  1  0  0  0  0
 11 13  2  0  0  0  0
 13 14  1  0  0  0  0
 15 16  1  0  0  0  0
 15 20  1  0  0  0  0
 16 17  2  0  0  0  0
 17 18  1  0  0  0  0
 17 21  1  0  0  0  0
 18 19  2  0  0  0  0
 19 20  1  0  0  0  0
  2 22  1  0  0  0  0
  3 23  1  0  0  0  0
  4 24  1  0  0  0  0
  7 25  1  0  0  0  0
 10 26  1  0  0  0  0
 12 27  1  0  0  0  0
 12 28  1  0  0  0  0
 12 29  1  0  0  0  0
 14 30  1  0  0  0  0
 16 31  1  0  0  0  0
 18 32  1  0  0  0  0
 19 33  1  0  0  0  0
 20 34  1  0  0  0  0
 20 35  1  0  0  0  0
 21 36  1  0  0  0  0
 21 37  1  0  0  0  0
 21 38  1  0  0  0  0
M  END
> <Name>
16

> <IC50[uM]>
0.17

$$$$
16
  -OEChem-05192314333D
 Structure written by MMmdl.
 38 40  0     0  0  0  0  0  0999 V2000
   -6.3886   12.3706  -12.0044 C   0  0  0  0  0  0  0  0  0  0  0  0
   -6.5217   11.8105  -10.7338 C   0  0  0  0  0  0  0  0  0  0  0  0
   -7.7267   10.5778  -13.0331 C   0  0  0  0  0  0  0  0  0  0  0  0
   -6.9997   11.7772  -13.1264 C   0  0  0  0  0  0  0  0  0  0  0  0
   -7.8245   10.0105  -11.7588 C   0  0  0  0  0  0  0  0  0  0  0  0
   -7.2447   10.6240  -10.5997 C   0  0  0  0  0  0  0  0  0  0  0  0
   -7.6157    9.7479   -9.5130 C   0  0  0  0  0  0  0  0  0  0  0  0
   -8.2818    8.7335   -9.9900 N   0  0  0  0  0  0  0  0  0  0  0  0
   -8.4155    8.8614  -11.3010 N   0  0  0  0  0  0  0  0  0  0  0  0
   -7.3377    9.8874   -8.0251 C   0  0  0  0  0  0  0  0  0  0  0  0
   -4.4115   13.6449  -11.4457 N   0  0  0  0  0  0  0  0  0  0  0  0
   -3.4644   14.7678  -11.5034 C   0  0  0  0  0  0  0  0  0  0  0  0
   -5.5490   13.6243  -12.1808 C   0  0  0  0  0  0  0  0  0  0  0  0
   -5.8784   14.5204  -12.9613 O   0  0  0  0  0  0  0  0  0  0  0  0
   -5.9596   10.4818   -7.7362 C   0  0  0  0  0  0  0  0  0  0  0  0
   -5.8460   11.7538   -7.1602 C   0  0  0  0  0  0  0  0  0  0  0  0
   -4.5819   12.3007   -6.9160 C   0  0  0  0  0  0  0  0  0  0  0  0
   -3.4335   11.5746   -7.2403 C   0  0  0  0  0  0  0  0  0  0  0  0
   -3.5461   10.3067   -7.8068 C   0  0  0  0  0  0  0  0  0  0  0  0
   -4.8068    9.7600   -8.0558 C   0  0  0  0  0  0  0  0  0  0  0  0
   -4.4568   13.6807   -6.3006 C   0  0  0  0  0  0  0  0  0  0  0  0
   -6.0750   12.2846   -9.8724 H   0  0  0  0  0  0  0  0  0  0  0  0
   -8.1843   10.1199  -13.8976 H   0  0  0  0  0  0  0  0  0  0  0  0
   -6.9067   12.2589  -14.0885 H   0  0  0  0  0  0  0  0  0  0  0  0
   -8.0380    9.5979   -7.2556 H   0  0  0  0  0  0  0  0  0  0  0  0
   -2.6189   14.5701  -10.8280 H   0  0  0  0  0  0  0  0  0  0  0  0
   -3.0927   14.8813  -12.5325 H   0  0  0  0  0  0  0  0  0  0  0  0
   -3.9729   15.6925  -11.1931 H   0  0  0  0  0  0  0  0  0  0  0  0
   -5.2336   15.2175  -12.9341 H   0  0  0  0  0  0  0  0  0  0  0  0
   -6.7345   12.3122   -6.9047 H   0  0  0  0  0  0  0  0  0  0  0  0
   -2.4573   11.9965   -7.0517 H   0  0  0  0  0  0  0  0  0  0  0  0
   -3.0200   10.3430   -8.7722 H   0  0  0  0  0  0  0  0  0  0  0  0
   -3.0264    9.6107   -7.1319 H   0  0  0  0  0  0  0  0  0  0  0  0
   -4.8589    8.8150   -7.4951 H   0  0  0  0  0  0  0  0  0  0  0  0
   -4.8535    9.5494   -9.1344 H   0  0  0  0  0  0  0  0  0  0  0  0
   -3.3931   13.9367   -6.1862 H   0  0  0  0  0  0  0  0  0  0  0  0
   -4.9432   14.4192   -6.9548 H   0  0  0  0  0  0  0  0  0  0  0  0
   -4.9436   13.6877   -5.3142 H   0  0  0  0  0  0  0  0  0  0  0  0
  1  2  2  0  0  0  0
  1  4  1  0  0  0  0
  1 13  1  0  0  0  0
  2  6  1  0  0  0  0
  3  4  2  0  0  0  0
  3  5  1  0  0  0  0
  5  6  2  0  0  0  0
  5  9  1  0  0  0  0
  6  7  1  0  0  0  0
  7  8  1  0  0  0  0
  7 10  2  3  0  0  0
  8  9  2  0  0  0  0
 10 15  1  0  0  0  0
 11 12  1  0  0  0  0
 11 13  2  0  0  0  0
 13 14  1  0  0  0  0
 15 16  2  0  0  0  0
 15 20  1  0  0  0  0
 16 17  1  0  0  0  0
 17 18  2  0  0  0  0
 17 21  1  0  0  0  0
 18 19  1  0  0  0  0
 19 20  1  0  0  0  0
  2 22  1  0  0  0  0
  3 23  1  0  0  0  0
  4 24  1  0  0  0  0
 10 25  1  0  0  0  0
 12 26  1  0  0  0  0
 12 27  1  0  0  0  0
 12 28  1  0  0  0  0
 14 29  1  0  0  0  0
 16 30  1  0  0  0  0
 18 31  1  0  0  0  0
 19 32  1  0  0  0  0
 19 33  1  0  0  0  0
 20 34  1  0  0  0  0
 20 35  1  0  0  0  0
 21 36  1  0  0  0  0
 21 37  1  0  0  0  0
 21 38  1  0  0  0  0
M  END
> <Name>
16

> <IC50[uM]>
0.17

$$$$
16
  -OEChem-05192314333D
 Structure written by MMmdl.
 38 40  0     1  0  0  0  0  0999 V2000
   -6.3886   12.3706  -12.0044 C   0  0  0  0  0  0  0  0  0  0  0  0
   -6.5217   11.8105  -10.7338 C   0  0  0  0  0  0  0  0  0  0  0  0
   -7.7267   10.5778  -13.0331 C   0  0  0  0  0  0  0  0  0  0  0  0
   -6.9997   11.7772  -13.1264 C   0  0  0  0  0  0  0  0  0  0  0  0
   -7.8245   10.0105  -11.7588 C   0  0  0  0  0  0  0  0  0  0  0  0
   -7.2447   10.6240  -10.5997 C   0  0  0  0  0  0  0  0  0  0  0  0
   -7.6157    9.7479   -9.5130 C   0  0  0  0  0  0  0  0  0  0  0  0
   -8.2818    8.7335   -9.9900 N   0  0  0  0  0  0  0  0  0  0  0  0
   -8.4155    8.8614  -11.3010 N   0  0  0  0  0  0  0  0  0  0  0  0
   -7.3377    9.8874   -8.0251 C   0  0  0  0  0  0  0  0  0  0  0  0
   -4.4115   13.6449  -11.4457 N   0  0  0  0  0  0  0  0  0  0  0  0
   -3.4644   14.7678  -11.5034 C   0  0  0  0  0  0  0  0  0  0  0  0
   -5.5490   13.6243  -12.1808 C   0  0  0  0  0  0  0  0  0  0  0  0
   -5.8784   14.5204  -12.9613 O   0  0  0  0  0  0  0  0  0  0  0  0
   -5.9596   10.4818   -7.7362 C   0  0  0  0  0  0  0  0  0  0  0  0
   -5.8460   11.7538   -7.1602 C   0  0  0  0  0  0  0  0  0  0  0  0
   -4.5819   12.3007   -6.9160 C   0  0  3  0  0  0  0  0  0  0  0  0
   -3.4335   11.5746   -7.2403 C   0  0  0  0  0  0  0  0  0  0  0  0
   -3.5461   10.3067   -7.8068 C   0  0  0  0  0  0  0  0  0  0  0  0
   -4.8068    9.7600   -8.0558 C   0  0  0  0  0  0  0  0  0  0  0  0
   -4.4568   13.6807   -6.3006 C   0  0  0  0  0  0  0  0  0  0  0  0
   -6.0750   12.2846   -9.8724 H   0  0  0  0  0  0  0  0  0  0  0  0
   -8.1843   10.1199  -13.8976 H   0  0  0  0  0  0  0  0  0  0  0  0
   -6.9067   12.2589  -14.0885 H   0  0  0  0  0  0  0  0  0  0  0  0
   -8.0380    9.5979   -7.2556 H   0  0  0  0  0  0  0  0  0  0  0  0
   -2.6189   14.5701  -10.8280 H   0  0  0  0  0  0  0  0  0  0  0  0
   -3.0927   14.8813  -12.5325 H   0  0  0  0  0  0  0  0  0  0  0  0
   -3.9729   15.6925  -11.1931 H   0  0  0  0  0  0  0  0  0  0  0  0
   -5.2336   15.2175  -12.9341 H   0  0  0  0  0  0  0  0  0  0  0  0
   -6.7345   12.3122   -6.9047 H   0  0  0  0  0  0  0  0  0  0  0  0
   -4.5818   11.8525   -5.9114 H   0  0  0  0  0  0  0  0  0  0  0  0
   -2.8594   12.1890   -7.9494 H   0  0  0  0  0  0  0  0  0  0  0  0
   -2.8596   11.4563   -6.3094 H   0  0  0  0  0  0  0  0  0  0  0  0
   -2.6569    9.7457   -8.0538 H   0  0  0  0  0  0  0  0  0  0  0  0
   -4.8908    8.7775   -8.4962 H   0  0  0  0  0  0  0  0  0  0  0  0
   -3.3931   13.9367   -6.1862 H   0  0  0  0  0  0  0  0  0  0  0  0
   -4.9432   14.4192   -6.9548 H   0  0  0  0  0  0  0  0  0  0  0  0
   -4.9436   13.6877   -5.3142 H   0  0  0  0  0  0  0  0  0  0  0  0
  1  2  2  0  0  0  0
  1  4  1  0  0  0  0
  1 13  1  0  0  0  0
  2  6  1  0  0  0  0
  3  4  2  0  0  0  0
  3  5  1  0  0  0  0
  5  6  2  0  0  0  0
  5  9  1  0  0  0  0
  6  7  1  0  0  0  0
  7  8  1  0  0  0  0
  7 10  2  3  0  0  0
  8  9  2  0  0  0  0
 10 15  1  0  0  0  0
 11 12  1  0  0  0  0
 11 13  2  0  0  0  0
 13 14  1  0  0  0  0
 15 16  2  0  0  0  0
 15 20  1  0  0  0  0
 16 17  1  0  0  0  0
 17 18  1  0  0  0  0
 17 21  1  0  0  0  0
 18 19  1  0  0  0  0
 19 20  2  0  0  0  0
  2 22  1  0  0  0  0
  3 23  1  0  0  0  0
  4 24  1  0  0  0  0
 10 25  1  0  0  0  0
 12 26  1  0  0  0  0
 12 27  1  0  0  0  0
 12 28  1  0  0  0  0
 14 29  1  0  0  0  0
 16 30  1  0  0  0  0
 17 31  1  0  0  0  0
 18 32  1  0  0  0  0
 18 33  1  0  0  0  0
 19 34  1  0  0  0  0
 20 35  1  0  0  0  0
 21 36  1  0  0  0  0
 21 37  1  0  0  0  0
 21 38  1  0  0  0  0
M  END
> <Name>
16

> <IC50[uM]>
0.17

$$$$
16
  -OEChem-05192314333D
 Structure written by MMmdl.
 38 40  0     1  0  0  0  0  0999 V2000
   -6.3886   12.3706  -12.0044 C   0  0  0  0  0  0  0  0  0  0  0  0
   -6.5217   11.8105  -10.7338 C   0  0  0  0  0  0  0  0  0  0  0  0
   -7.7267   10.5778  -13.0331 C   0  0  0  0  0  0  0  0  0  0  0  0
   -6.9997   11.7772  -13.1264 C   0  0  0  0  0  0  0  0  0  0  0  0
   -7.8245   10.0105  -11.7588 C   0  0  0  0  0  0  0  0  0  0  0  0
   -7.2447   10.6240  -10.5997 C   0  0  0  0  0  0  0  0  0  0  0  0
   -7.6157    9.7479   -9.5130 C   0  0  0  0  0  0  0  0  0  0  0  0
   -8.2818    8.7335   -9.9900 N   0  0  0  0  0  0  0  0  0  0  0  0
   -8.4155    8.8614  -11.3010 N   0  0  0  0  0  0  0  0  0  0  0  0
   -7.3377    9.8874   -8.0251 C   0  0  0  0  0  0  0  0  0  0  0  0
   -4.4115   13.6449  -11.4457 N   0  0  0  0  0  0  0  0  0  0  0  0
   -3.4644   14.7678  -11.5034 C   0  0  0  0  0  0  0  0  0  0  0  0
   -5.5490   13.6243  -12.1808 C   0  0  0  0  0  0  0  0  0  0  0  0
   -5.8784   14.5204  -12.9613 O   0  0  0  0  0  0  0  0  0  0  0  0
   -5.9596   10.4818   -7.7362 C   0  0  3  0  0  0  0  0  0  0  0  0
   -5.8460   11.7538   -7.1602 C   0  0  0  0  0  0  0  0  0  0  0  0
   -4.5819   12.3007   -6.9160 C   0  0  0  0  0  0  0  0  0  0  0  0
   -3.4335   11.5746   -7.2403 C   0  0  0  0  0  0  0  0  0  0  0  0
   -3.5461   10.3067   -7.8068 C   0  0  0  0  0  0  0  0  0  0  0  0
   -4.8068    9.7600   -8.0558 C   0  0  0  0  0  0  0  0  0  0  0  0
   -4.4568   13.6807   -6.3006 C   0  0  0  0  0  0  0  0  0  0  0  0
   -6.0750   12.2846   -9.8724 H   0  0  0  0  0  0  0  0  0  0  0  0
   -8.1843   10.1199  -13.8976 H   0  0  0  0  0  0  0  0  0  0  0  0
   -6.9067   12.2589  -14.0885 H   0  0  0  0  0  0  0  0  0  0  0  0
   -8.0380    9.5979   -7.2556 H   0  0  0  0  0  0  0  0  0  0  0  0
   -2.6189   14.5701  -10.8280 H   0  0  0  0  0  0  0  0  0  0  0  0
   -3.0927   14.8813  -12.5325 H   0  0  0  0  0  0  0  0  0  0  0  0
   -3.9729   15.6925  -11.1931 H   0  0  0  0  0  0  0  0  0  0  0  0
   -5.2336   15.2175  -12.9341 H   0  0  0  0  0  0  0  0  0  0  0  0
   -5.9704   10.0264   -6.7349 H   0  0  0  0  0  0  0  0  0  0  0  0
   -6.7345   12.3122   -6.9047 H   0  0  0  0  0  0  0  0  0  0  0  0
   -2.8594   12.1890   -7.9494 H   0  0  0  0  0  0  0  0  0  0  0  0
   -2.8596   11.4563   -6.3094 H   0  0  0  0  0  0  0  0  0  0  0  0
   -2.6569    9.7457   -8.0538 H   0  0  0  0  0  0  0  0  0  0  0  0
   -4.8908    8.7775   -8.4962 H   0  0  0  0  0  0  0  0  0  0  0  0
   -3.3931   13.9367   -6.1862 H   0  0  0  0  0  0  0  0  0  0  0  0
   -4.9432   14.4192   -6.9548 H   0  0  0  0  0  0  0  0  0  0  0  0
   -4.9436   13.6877   -5.3142 H   0  0  0  0  0  0  0  0  0  0  0  0
  1  2  2  0  0  0  0
  1  4  1  0  0  0  0
  1 13  1  0  0  0  0
  2  6  1  0  0  0  0
  3  4  2  0  0  0  0
  3  5  1  0  0  0  0
  5  6  2  0  0  0  0
  5  9  1  0  0  0  0
  6  7  1  0  0  0  0
  7  8  1  0  0  0  0
  7 10  2  3  0  0  0
  8  9  2  0  0  0  0
 10 15  1  0  0  0  0
 11 12  1  0  0  0  0
 11 13  2  0  0  0  0
 13 14  1  0  0  0  0
 15 16  1  0  0  0  0
 15 20  1  0  0  0  0
 16 17  2  0  0  0  0
 17 18  1  0  0  0  0
 17 21  1  0  0  0  0
 18 19  1  0  0  0  0
 19 20  2  0  0  0  0
  2 22  1  0  0  0  0
  3 23  1  0  0  0  0
  4 24  1  0  0  0  0
 10 25  1  0  0  0  0
 12 26  1  0  0  0  0
 12 27  1  0  0  0  0
 12 28  1  0  0  0  0
 14 29  1  0  0  0  0
 15 30  1  0  0  0  0
 16 31  1  0  0  0  0
 18 32  1  0  0  0  0
 18 33  1  0  0  0  0
 19 34  1  0  0  0  0
 20 35  1  0  0  0  0
 21 36  1  0  0  0  0
 21 37  1  0  0  0  0
 21 38  1  0  0  0  0
M  END
> <Name>
16

> <IC50[uM]>
0.17

$$$$
16
  -OEChem-05192314333D
 Structure written by MMmdl.
 38 40  0     1  0  0  0  0  0999 V2000
   -6.3886   12.3706  -12.0044 C   0  0  0  0  0  0  0  0  0  0  0  0
   -6.5217   11.8105  -10.7338 C   0  0  0  0  0  0  0  0  0  0  0  0
   -7.7267   10.5778  -13.0331 C   0  0  0  0  0  0  0  0  0  0  0  0
   -6.9997   11.7772  -13.1264 C   0  0  0  0  0  0  0  0  0  0  0  0
   -7.8245   10.0105  -11.7588 C   0  0  0  0  0  0  0  0  0  0  0  0
   -7.2447   10.6240  -10.5997 C   0  0  0  0  0  0  0  0  0  0  0  0
   -7.6157    9.7479   -9.5130 C   0  0  3  0  0  0  0  0  0  0  0  0
   -8.2818    8.7335   -9.9900 N   0  0  0  0  0  0  0  0  0  0  0  0
   -8.4155    8.8614  -11.3010 N   0  0  0  0  0  0  0  0  0  0  0  0
   -7.3377    9.8874   -8.0251 C   0  0  0  0  0  0  0  0  0  0  0  0
   -4.4115   13.6449  -11.4457 N   0  0  0  0  0  0  0  0  0  0  0  0
   -3.4644   14.7678  -11.5034 C   0  0  0  0  0  0  0  0  0  0  0  0
   -5.5490   13.6243  -12.1808 C   0  0  0  0  0  0  0  0  0  0  0  0
   -5.8784   14.5204  -12.9613 O   0  0  0  0  0  0  0  0  0  0  0  0
   -5.9596   10.4818   -7.7362 C   0  0  0  0  0  0  0  0  0  0  0  0
   -5.8460   11.7538   -7.1602 C   0  0  0  0  0  0  0  0  0  0  0  0
   -4.5819   12.3007   -6.9160 C   0  0  0  0  0  0  0  0  0  0  0  0
   -3.4335   11.5746   -7.2403 C   0  0  0  0  0  0  0  0  0  0  0  0
   -3.5461   10.3067   -7.8068 C   0  0  0  0  0  0  0  0  0  0  0  0
   -4.8068    9.7600   -8.0558 C   0  0  0  0  0  0  0  0  0  0  0  0
   -4.4568   13.6807   -6.3006 C   0  0  0  0  0  0  0  0  0  0  0  0
   -6.0750   12.2846   -9.8724 H   0  0  0  0  0  0  0  0  0  0  0  0
   -8.1843   10.1199  -13.8976 H   0  0  0  0  0  0  0  0  0  0  0  0
   -6.9067   12.2589  -14.0885 H   0  0  0  0  0  0  0  0  0  0  0  0
   -6.6751    9.1915   -9.6382 H   0  0  0  0  0  0  0  0  0  0  0  0
   -8.0380    9.5979   -7.2556 H   0  0  0  0  0  0  0  0  0  0  0  0
   -2.6189   14.5701  -10.8280 H   0  0  0  0  0  0  0  0  0  0  0  0
   -3.0927   14.8813  -12.5325 H   0  0  0  0  0  0  0  0  0  0  0  0
   -3.9729   15.6925  -11.1931 H   0  0  0  0  0  0  0  0  0  0  0  0
   -5.2336   15.2175  -12.9341 H   0  0  0  0  0  0  0  0  0  0  0  0
   -6.7345   12.3122   -6.9047 H   0  0  0  0  0  0  0  0  0  0  0  0
   -2.8594   12.1890   -7.9494 H   0  0  0  0  0  0  0  0  0  0  0  0
   -2.8596   11.4563   -6.3094 H   0  0  0  0  0  0  0  0  0  0  0  0
   -2.6569    9.7457   -8.0538 H   0  0  0  0  0  0  0  0  0  0  0  0
   -4.8908    8.7775   -8.4962 H   0  0  0  0  0  0  0  0  0  0  0  0
   -3.3931   13.9367   -6.1862 H   0  0  0  0  0  0  0  0  0  0  0  0
   -4.9432   14.4192   -6.9548 H   0  0  0  0  0  0  0  0  0  0  0  0
   -4.9436   13.6877   -5.3142 H   0  0  0  0  0  0  0  0  0  0  0  0
  1  2  2  0  0  0  0
  1  4  1  0  0  0  0
  1 13  1  0  0  0  0
  2  6  1  0  0  0  0
  3  4  2  0  0  0  0
  3  5  1  0  0  0  0
  5  6  2  0  0  0  0
  5  9  1  0  0  0  0
  6  7  1  0  0  0  0
  7  8  1  0  0  0  0
  7 10  1  0  0  0  0
  8  9  2  0  0  0  0
 10 15  2  3  0  0  0
 11 12  1  0  0  0  0
 11 13  2  0  0  0  0
 13 14  1  0  0  0  0
 15 16  1  0  0  0  0
 15 20  1  0  0  0  0
 16 17  2  0  0  0  0
 17 18  1  0  0  0  0
 17 21  1  0  0  0  0
 18 19  1  0  0  0  0
 19 20  2  0  0  0  0
  2 22  1  0  0  0  0
  3 23  1  0  0  0  0
  4 24  1  0  0  0  0
  7 25  1  0  0  0  0
 10 26  1  0  0  0  0
 12 27  1  0  0  0  0
 12 28  1  0  0  0  0
 12 29  1  0  0  0  0
 14 30  1  0  0  0  0
 16 31  1  0  0  0  0
 18 32  1  0  0  0  0
 18 33  1  0  0  0  0
 19 34  1  0  0  0  0
 20 35  1  0  0  0  0
 21 36  1  0  0  0  0
 21 37  1  0  0  0  0
 21 38  1  0  0  0  0
M  END
> <Name>
16

> <IC50[uM]>
0.17

$$$$
16
  -OEChem-05192314333D
 Structure written by MMmdl.
 38 40  0     0  0  0  0  0  0999 V2000
   -6.3886   12.3706  -12.0044 C   0  0  0  0  0  0  0  0  0  0  0  0
   -6.5217   11.8105  -10.7338 C   0  0  0  0  0  0  0  0  0  0  0  0
   -7.7267   10.5778  -13.0331 C   0  0  0  0  0  0  0  0  0  0  0  0
   -6.9997   11.7772  -13.1264 C   0  0  0  0  0  0  0  0  0  0  0  0
   -7.8245   10.0105  -11.7588 C   0  0  0  0  0  0  0  0  0  0  0  0
   -7.2447   10.6240  -10.5997 C   0  0  0  0  0  0  0  0  0  0  0  0
   -7.6157    9.7479   -9.5130 C   0  0  0  0  0  0  0  0  0  0  0  0
   -8.2818    8.7335   -9.9900 N   0  0  0  0  0  0  0  0  0  0  0  0
   -8.4155    8.8614  -11.3010 N   0  0  0  0  0  0  0  0  0  0  0  0
   -7.3377    9.8874   -8.0251 C   0  0  0  0  0  0  0  0  0  0  0  0
   -4.4115   13.6449  -11.4457 N   0  0  0  0  0  0  0  0  0  0  0  0
   -3.4644   14.7678  -11.5034 C   0  0  0  0  0  0  0  0  0  0  0  0
   -5.5490   13.6243  -12.1808 C   0  0  0  0  0  0  0  0  0  0  0  0
   -5.8784   14.5204  -12.9613 O   0  0  0  0  0  0  0  0  0  0  0  0
   -5.9596   10.4818   -7.7362 C   0  0  0  0  0  0  0  0  0  0  0  0
   -5.8460   11.7538   -7.1602 C   0  0  0  0  0  0  0  0  0  0  0  0
   -4.5819   12.3007   -6.9160 C   0  0  0  0  0  0  0  0  0  0  0  0
   -3.4335   11.5746   -7.2403 C   0  0  0  0  0  0  0  0  0  0  0  0
   -3.5461   10.3067   -7.8068 C   0  0  0  0  0  0  0  0  0  0  0  0
   -4.8068    9.7600   -8.0558 C   0  0  0  0  0  0  0  0  0  0  0  0
   -4.4568   13.6807   -6.3006 C   0  0  0  0  0  0  0  0  0  0  0  0
   -6.0750   12.2846   -9.8724 H   0  0  0  0  0  0  0  0  0  0  0  0
   -8.1843   10.1199  -13.8976 H   0  0  0  0  0  0  0  0  0  0  0  0
   -6.9067   12.2589  -14.0885 H   0  0  0  0  0  0  0  0  0  0  0  0
   -8.0380    9.5979   -7.2556 H   0  0  0  0  0  0  0  0  0  0  0  0
   -2.6189   14.5701  -10.8280 H   0  0  0  0  0  0  0  0  0  0  0  0
   -3.0927   14.8813  -12.5325 H   0  0  0  0  0  0  0  0  0  0  0  0
   -3.9729   15.6925  -11.1931 H   0  0  0  0  0  0  0  0  0  0  0  0
   -5.2336   15.2175  -12.9341 H   0  0  0  0  0  0  0  0  0  0  0  0
   -6.7345   12.3122   -6.9047 H   0  0  0  0  0  0  0  0  0  0  0  0
   -2.8594   12.1890   -7.9494 H   0  0  0  0  0  0  0  0  0  0  0  0
   -2.8596   11.4563   -6.3094 H   0  0  0  0  0  0  0  0  0  0  0  0
   -3.0200   10.3430   -8.7722 H   0  0  0  0  0  0  0  0  0  0  0  0
   -3.0264    9.6107   -7.1319 H   0  0  0  0  0  0  0  0  0  0  0  0
   -4.8908    8.7775   -8.4962 H   0  0  0  0  0  0  0  0  0  0  0  0
   -3.3931   13.9367   -6.1862 H   0  0  0  0  0  0  0  0  0  0  0  0
   -4.9432   14.4192   -6.9548 H   0  0  0  0  0  0  0  0  0  0  0  0
   -4.9436   13.6877   -5.3142 H   0  0  0  0  0  0  0  0  0  0  0  0
  1  2  2  0  0  0  0
  1  4  1  0  0  0  0
  1 13  1  0  0  0  0
  2  6  1  0  0  0  0
  3  4  2  0  0  0  0
  3  5  1  0  0  0  0
  5  6  2  0  0  0  0
  5  9  1  0  0  0  0
  6  7  1  0  0  0  0
  7  8  1  0  0  0  0
  7 10  2  3  0  0  0
  8  9  2  0  0  0  0
 10 15  1  0  0  0  0
 11 12  1  0  0  0  0
 11 13  2  0  0  0  0
 13 14  1  0  0  0  0
 15 16  1  0  0  0  0
 15 20  2  0  0  0  0
 16 17  2  0  0  0  0
 17 18  1  0  0  0  0
 17 21  1  0  0  0  0
 18 19  1  0  0  0  0
 19 20  1  0  0  0  0
  2 22  1  0  0  0  0
  3 23  1  0  0  0  0
  4 24  1  0  0  0  0
 10 25  1  0  0  0  0
 12 26  1  0  0  0  0
 12 27  1  0  0  0  0
 12 28  1  0  0  0  0
 14 29  1  0  0  0  0
 16 30  1  0  0  0  0
 18 31  1  0  0  0  0
 18 32  1  0  0  0  0
 19 33  1  0  0  0  0
 19 34  1  0  0  0  0
 20 35  1  0  0  0  0
 21 36  1  0  0  0  0
 21 37  1  0  0  0  0
 21 38  1  0  0  0  0
M  END
> <Name>
16

> <IC50[uM]>
0.17

$$$$
16
  -OEChem-05192314333D
 Structure written by MMmdl.
 38 40  0     1  0  0  0  0  0999 V2000
   -6.3886   12.3706  -12.0044 C   0  0  3  0  0  0  0  0  0  0  0  0
   -6.5217   11.8105  -10.7338 C   0  0  0  0  0  0  0  0  0  0  0  0
   -7.7267   10.5778  -13.0331 C   0  0  0  0  0  0  0  0  0  0  0  0
   -6.9997   11.7772  -13.1264 C   0  0  0  0  0  0  0  0  0  0  0  0
   -7.8245   10.0105  -11.7588 C   0  0  0  0  0  0  0  0  0  0  0  0
   -7.2447   10.6240  -10.5997 C   0  0  0  0  0  0  0  0  0  0  0  0
   -7.6157    9.7479   -9.5130 C   0  0  0  0  0  0  0  0  0  0  0  0
   -8.2818    8.7335   -9.9900 N   0  0  0  0  0  0  0  0  0  0  0  0
   -8.4155    8.8614  -11.3010 N   0  0  0  0  0  0  0  0  0  0  0  0
   -7.3377    9.8874   -8.0251 C   0  0  0  0  0  0  0  0  0  0  0  0
   -4.4115   13.6449  -11.4457 N   0  0  0  0  0  0  0  0  0  0  0  0
   -3.4644   14.7678  -11.5034 C   0  0  0  0  0  0  0  0  0  0  0  0
   -5.5490   13.6243  -12.1808 C   0  0  0  0  0  0  0  0  0  0  0  0
   -5.8784   14.5204  -12.9613 O   0  0  0  0  0  0  0  0  0  0  0  0
   -5.9596   10.4818   -7.7362 C   0  0  0  0  0  0  0  0  0  0  0  0
   -5.8460   11.7538   -7.1602 C   0  0  0  0  0  0  0  0  0  0  0  0
   -4.5819   12.3007   -6.9160 C   0  0  0  0  0  0  0  0  0  0  0  0
   -3.4335   11.5746   -7.2403 C   0  0  0  0  0  0  0  0  0  0  0  0
   -3.5461   10.3067   -7.8068 C   0  0  0  0  0  0  0  0  0  0  0  0
   -4.8068    9.7600   -8.0558 C   0  0  0  0  0  0  0  0  0  0  0  0
   -4.4568   13.6807   -6.3006 C   0  0  0  0  0  0  0  0  0  0  0  0
   -7.2839   12.9866  -11.8341 H   0  0  0  0  0  0  0  0  0  0  0  0
   -5.5067   11.6162  -10.3570 H   0  0  0  0  0  0  0  0  0  0  0  0
   -7.0113   12.5624  -10.0975 H   0  0  0  0  0  0  0  0  0  0  0  0
   -8.1843   10.1199  -13.8976 H   0  0  0  0  0  0  0  0  0  0  0  0
   -6.9067   12.2589  -14.0885 H   0  0  0  0  0  0  0  0  0  0  0  0
   -8.0380    9.5979   -7.2556 H   0  0  0  0  0  0  0  0  0  0  0  0
   -2.6189   14.5701  -10.8280 H   0  0  0  0  0  0  0  0  0  0  0  0
   -3.0927   14.8813  -12.5325 H   0  0  0  0  0  0  0  0  0  0  0  0
   -3.9729   15.6925  -11.1931 H   0  0  0  0  0  0  0  0  0  0  0  0
   -5.2336   15.2175  -12.9341 H   0  0  0  0  0  0  0  0  0  0  0  0
   -6.7345   12.3122   -6.9047 H   0  0  0  0  0  0  0  0  0  0  0  0
   -2.4573   11.9965   -7.0517 H   0  0  0  0  0  0  0  0  0  0  0  0
   -2.6569    9.7457   -8.0538 H   0  0  0  0  0  0  0  0  0  0  0  0
   -4.8908    8.7775   -8.4962 H   0  0  0  0  0  0  0  0  0  0  0  0
   -4.4264   13.5926   -5.2046 H   0  0  0  0  0  0  0  0  0  0  0  0
   -3.5315   14.1579   -6.6557 H   0  0  0  0  0  0  0  0  0  0  0  0
   -5.3217   14.2932   -6.5953 H   0  0  0  0  0  0  0  0  0  0  0  0
  1  2  1  0  0  0  0
  1  4  1  0  0  0  0
  1 13  1  0  0  0  0
  2  6  1  0  0  0  0
  3  4  2  0  0  0  0
  3  5  1  0  0  0  0
  5  6  2  0  0  0  0
  5  9  1  0  0  0  0
  6  7  1  0  0  0  0
  7  8  1  0  0  0  0
  7 10  2  3  0  0  0
  8  9  2  0  0  0  0
 10 15  1  0  0  0  0
 11 12  1  0  0  0  0
 11 13  2  0  0  0  0
 13 14  1  0  0  0  0
 15 16  2  0  0  0  0
 15 20  1  0  0  0  0
 16 17  1  0  0  0  0
 17 18  2  0  0  0  0
 17 21  1  0  0  0  0
 18 19  1  0  0  0  0
 19 20  2  0  0  0  0
  1 22  1  0  0  0  0
  2 23  1  0  0  0  0
  2 24  1  0  0  0  0
  3 25  1  0  0  0  0
  4 26  1  0  0  0  0
 10 27  1  0  0  0  0
 12 28  1  0  0  0  0
 12 29  1  0  0  0  0
 12 30  1  0  0  0  0
 14 31  1  0  0  0  0
 16 32  1  0  0  0  0
 18 33  1  0  0  0  0
 19 34  1  0  0  0  0
 20 35  1  0  0  0  0
 21 36  1  0  0  0  0
 21 37  1  0  0  0  0
 21 38  1  0  0  0  0
M  END
> <Name>
16

> <IC50[uM]>
0.17

$$$$
16
  -OEChem-05192314333D
 Structure written by MMmdl.
 38 40  0     1  0  0  0  0  0999 V2000
   -6.3886   12.3706  -12.0044 C   0  0  0  0  0  0  0  0  0  0  0  0
   -6.5217   11.8105  -10.7338 C   0  0  0  0  0  0  0  0  0  0  0  0
   -7.7267   10.5778  -13.0331 C   0  0  0  0  0  0  0  0  0  0  0  0
   -6.9997   11.7772  -13.1264 C   0  0  0  0  0  0  0  0  0  0  0  0
   -7.8245   10.0105  -11.7588 C   0  0  0  0  0  0  0  0  0  0  0  0
   -7.2447   10.6240  -10.5997 C   0  0  3  0  0  0  0  0  0  0  0  0
   -7.6157    9.7479   -9.5130 C   0  0  0  0  0  0  0  0  0  0  0  0
   -8.2818    8.7335   -9.9900 N   0  0  0  0  0  0  0  0  0  0  0  0
   -8.4155    8.8614  -11.3010 N   0  0  0  0  0  0  0  0  0  0  0  0
   -7.3377    9.8874   -8.0251 C   0  0  0  0  0  0  0  0  0  0  0  0
   -4.4115   13.6449  -11.4457 N   0  0  0  0  0  0  0  0  0  0  0  0
   -3.4644   14.7678  -11.5034 C   0  0  0  0  0  0  0  0  0  0  0  0
   -5.5490   13.6243  -12.1808 C   0  0  0  0  0  0  0  0  0  0  0  0
   -5.8784   14.5204  -12.9613 O   0  0  0  0  0  0  0  0  0  0  0  0
   -5.9596   10.4818   -7.7362 C   0  0  0  0  0  0  0  0  0  0  0  0
   -5.8460   11.7538   -7.1602 C   0  0  0  0  0  0  0  0  0  0  0  0
   -4.5819   12.3007   -6.9160 C   0  0  0  0  0  0  0  0  0  0  0  0
   -3.4335   11.5746   -7.2403 C   0  0  0  0  0  0  0  0  0  0  0  0
   -3.5461   10.3067   -7.8068 C   0  0  0  0  0  0  0  0  0  0  0  0
   -4.8068    9.7600   -8.0558 C   0  0  0  0  0  0  0  0  0  0  0  0
   -4.4568   13.6807   -6.3006 C   0  0  0  0  0  0  0  0  0  0  0  0
   -5.5067   11.6162  -10.3570 H   0  0  0  0  0  0  0  0  0  0  0  0
   -7.0113   12.5624  -10.0975 H   0  0  0  0  0  0  0  0  0  0  0  0
   -8.1843   10.1199  -13.8976 H   0  0  0  0  0  0  0  0  0  0  0  0
   -6.9067   12.2589  -14.0885 H   0  0  0  0  0  0  0  0  0  0  0  0
   -6.3227   10.0441  -10.7532 H   0  0  0  0  0  0  0  0  0  0  0  0
   -8.0380    9.5979   -7.2556 H   0  0  0  0  0  0  0  0  0  0  0  0
   -2.6189   14.5701  -10.8280 H   0  0  0  0  0  0  0  0  0  0  0  0
   -3.0927   14.8813  -12.5325 H   0  0  0  0  0  0  0  0  0  0  0  0
   -3.9729   15.6925  -11.1931 H   0  0  0  0  0  0  0  0  0  0  0  0
   -5.2336   15.2175  -12.9341 H   0  0  0  0  0  0  0  0  0  0  0  0
   -6.7345   12.3122   -6.9047 H   0  0  0  0  0  0  0  0  0  0  0  0
   -2.4573   11.9965   -7.0517 H   0  0  0  0  0  0  0  0  0  0  0  0
   -2.6569    9.7457   -8.0538 H   0  0  0  0  0  0  0  0  0  0  0  0
   -4.8908    8.7775   -8.4962 H   0  0  0  0  0  0  0  0  0  0  0  0
   -4.4264   13.5926   -5.2046 H   0  0  0  0  0  0  0  0  0  0  0  0
   -3.5315   14.1579   -6.6557 H   0  0  0  0  0  0  0  0  0  0  0  0
   -5.3217   14.2932   -6.5953 H   0  0  0  0  0  0  0  0  0  0  0  0
  1  2  1  0  0  0  0
  1  4  2  0  0  0  0
  1 13  1  0  0  0  0
  2  6  1  0  0  0  0
  3  4  1  0  0  0  0
  3  5  2  0  0  0  0
  5  6  1  0  0  0  0
  5  9  1  0  0  0  0
  6  7  1  0  0  0  0
  7  8  1  0  0  0  0
  7 10  2  3  0  0  0
  8  9  2  0  0  0  0
 10 15  1  0  0  0  0
 11 12  1  0  0  0  0
 11 13  2  0  0  0  0
 13 14  1  0  0  0  0
 15 16  2  0  0  0  0
 15 20  1  0  0  0  0
 16 17  1  0  0  0  0
 17 18  2  0  0  0  0
 17 21  1  0  0  0  0
 18 19  1  0  0  0  0
 19 20  2  0  0  0  0
  2 22  1  0  0  0  0
  2 23  1  0  0  0  0
  3 24  1  0  0  0  0
  4 25  1  0  0  0  0
  6 26  1  0  0  0  0
 10 27  1  0  0  0  0
 12 28  1  0  0  0  0
 12 29  1  0  0  0  0
 12 30  1  0  0  0  0
 14 31  1  0  0  0  0
 16 32  1  0  0  0  0
 18 33  1  0  0  0  0
 19 34  1  0  0  0  0
 20 35  1  0  0  0  0
 21 36  1  0  0  0  0
 21 37  1  0  0  0  0
 21 38  1  0  0  0  0
M  END
> <Name>
16

> <IC50[uM]>
0.17

$$$$
16
  -OEChem-05192314333D
 Structure written by MMmdl.
 38 40  0     0  0  0  0  0  0999 V2000
   -6.3886   12.3706  -12.0044 C   0  0  0  0  0  0  0  0  0  0  0  0
   -6.5217   11.8105  -10.7338 C   0  0  0  0  0  0  0  0  0  0  0  0
   -7.7267   10.5778  -13.0331 C   0  0  0  0  0  0  0  0  0  0  0  0
   -6.9997   11.7772  -13.1264 C   0  0  0  0  0  0  0  0  0  0  0  0
   -7.8245   10.0105  -11.7588 C   0  0  0  0  0  0  0  0  0  0  0  0
   -7.2447   10.6240  -10.5997 C   0  0  0  0  0  0  0  0  0  0  0  0
   -7.6157    9.7479   -9.5130 C   0  0  0  0  0  0  0  0  0  0  0  0
   -8.2818    8.7335   -9.9900 N   0  0  0  0  0  0  0  0  0  0  0  0
   -8.4155    8.8614  -11.3010 N   0  0  0  0  0  0  0  0  0  0  0  0
   -7.3377    9.8874   -8.0251 C   0  0  0  0  0  0  0  0  0  0  0  0
   -4.4115   13.6449  -11.4457 N   0  0  0  0  0  0  0  0  0  0  0  0
   -3.4644   14.7678  -11.5034 C   0  0  0  0  0  0  0  0  0  0  0  0
   -5.5490   13.6243  -12.1808 C   0  0  0  0  0  0  0  0  0  0  0  0
   -5.8784   14.5204  -12.9613 O   0  0  0  0  0  0  0  0  0  0  0  0
   -5.9596   10.4818   -7.7362 C   0  0  0  0  0  0  0  0  0  0  0  0
   -5.8460   11.7538   -7.1602 C   0  0  0  0  0  0  0  0  0  0  0  0
   -4.5819   12.3007   -6.9160 C   0  0  0  0  0  0  0  0  0  0  0  0
   -3.4335   11.5746   -7.2403 C   0  0  0  0  0  0  0  0  0  0  0  0
   -3.5461   10.3067   -7.8068 C   0  0  0  0  0  0  0  0  0  0  0  0
   -4.8068    9.7600   -8.0558 C   0  0  0  0  0  0  0  0  0  0  0  0
   -4.4568   13.6807   -6.3006 C   0  0  0  0  0  0  0  0  0  0  0  0
   -5.5067   11.6162  -10.3570 H   0  0  0  0  0  0  0  0  0  0  0  0
   -7.0113   12.5624  -10.0975 H   0  0  0  0  0  0  0  0  0  0  0  0
   -8.7478   10.7760  -13.3910 H   0  0  0  0  0  0  0  0  0  0  0  0
   -7.2438    9.8410  -13.6919 H   0  0  0  0  0  0  0  0  0  0  0  0
   -6.9067   12.2589  -14.0885 H   0  0  0  0  0  0  0  0  0  0  0  0
   -8.0380    9.5979   -7.2556 H   0  0  0  0  0  0  0  0  0  0  0  0
   -2.6189   14.5701  -10.8280 H   0  0  0  0  0  0  0  0  0  0  0  0
   -3.0927   14.8813  -12.5325 H   0  0  0  0  0  0  0  0  0  0  0  0
   -3.9729   15.6925  -11.1931 H   0  0  0  0  0  0  0  0  0  0  0  0
   -5.2336   15.2175  -12.9341 H   0  0  0  0  0  0  0  0  0  0  0  0
   -6.7345   12.3122   -6.9047 H   0  0  0  0  0  0  0  0  0  0  0  0
   -2.4573   11.9965   -7.0517 H   0  0  0  0  0  0  0  0  0  0  0  0
   -2.6569    9.7457   -8.0538 H   0  0  0  0  0  0  0  0  0  0  0  0
   -4.8908    8.7775   -8.4962 H   0  0  0  0  0  0  0  0  0  0  0  0
   -4.4264   13.5926   -5.2046 H   0  0  0  0  0  0  0  0  0  0  0  0
   -3.5315   14.1579   -6.6557 H   0  0  0  0  0  0  0  0  0  0  0  0
   -5.3217   14.2932   -6.5953 H   0  0  0  0  0  0  0  0  0  0  0  0
  1  2  1  0  0  0  0
  1  4  2  0  0  0  0
  1 13  1  0  0  0  0
  2  6  1  0  0  0  0
  3  4  1  0  0  0  0
  3  5  1  0  0  0  0
  5  6  2  0  0  0  0
  5  9  1  0  0  0  0
  6  7  1  0  0  0  0
  7  8  1  0  0  0  0
  7 10  2  3  0  0  0
  8  9  2  0  0  0  0
 10 15  1  0  0  0  0
 11 12  1  0  0  0  0
 11 13  2  0  0  0  0
 13 14  1  0  0  0  0
 15 16  2  0  0  0  0
 15 20  1  0  0  0  0
 16 17  1  0  0  0  0
 17 18  2  0  0  0  0
 17 21  1  0  0  0  0
 18 19  1  0  0  0  0
 19 20  2  0  0  0  0
  2 22  1  0  0  0  0
  2 23  1  0  0  0  0
  3 24  1  0  0  0  0
  3 25  1  0  0  0  0
  4 26  1  0  0  0  0
 10 27  1  0  0  0  0
 12 28  1  0  0  0  0
 12 29  1  0  0  0  0
 12 30  1  0  0  0  0
 14 31  1  0  0  0  0
 16 32  1  0  0  0  0
 18 33  1  0  0  0  0
 19 34  1  0  0  0  0
 20 35  1  0  0  0  0
 21 36  1  0  0  0  0
 21 37  1  0  0  0  0
 21 38  1  0  0  0  0
M  END
> <Name>
16

> <IC50[uM]>
0.17

$$$$
16
  -OEChem-05192314333D
 Structure written by MMmdl.
 38 40  0     1  0  0  0  0  0999 V2000
   -6.3886   12.3706  -12.0044 C   0  0  0  0  0  0  0  0  0  0  0  0
   -6.5217   11.8105  -10.7338 C   0  0  0  0  0  0  0  0  0  0  0  0
   -7.7267   10.5778  -13.0331 C   0  0  0  0  0  0  0  0  0  0  0  0
   -6.9997   11.7772  -13.1264 C   0  0  0  0  0  0  0  0  0  0  0  0
   -7.8245   10.0105  -11.7588 C   0  0  3  0  0  0  0  0  0  0  0  0
   -7.2447   10.6240  -10.5997 C   0  0  0  0  0  0  0  0  0  0  0  0
   -7.6157    9.7479   -9.5130 C   0  0  0  0  0  0  0  0  0  0  0  0
   -8.2818    8.7335   -9.9900 N   0  0  0  0  0  0  0  0  0  0  0  0
   -8.4155    8.8614  -11.3010 N   0  0  0  0  0  0  0  0  0  0  0  0
   -7.3377    9.8874   -8.0251 C   0  0  0  0  0  0  0  0  0  0  0  0
   -4.4115   13.6449  -11.4457 N   0  0  0  0  0  0  0  0  0  0  0  0
   -3.4644   14.7678  -11.5034 C   0  0  0  0  0  0  0  0  0  0  0  0
   -5.5490   13.6243  -12.1808 C   0  0  0  0  0  0  0  0  0  0  0  0
   -5.8784   14.5204  -12.9613 O   0  0  0  0  0  0  0  0  0  0  0  0
   -5.9596   10.4818   -7.7362 C   0  0  0  0  0  0  0  0  0  0  0  0
   -5.8460   11.7538   -7.1602 C   0  0  0  0  0  0  0  0  0  0  0  0
   -4.5819   12.3007   -6.9160 C   0  0  0  0  0  0  0  0  0  0  0  0
   -3.4335   11.5746   -7.2403 C   0  0  0  0  0  0  0  0  0  0  0  0
   -3.5461   10.3067   -7.8068 C   0  0  0  0  0  0  0  0  0  0  0  0
   -4.8068    9.7600   -8.0558 C   0  0  0  0  0  0  0  0  0  0  0  0
   -4.4568   13.6807   -6.3006 C   0  0  0  0  0  0  0  0  0  0  0  0
   -6.0750   12.2846   -9.8724 H   0  0  0  0  0  0  0  0  0  0  0  0
   -8.1843   10.1199  -13.8976 H   0  0  0  0  0  0  0  0  0  0  0  0
   -6.9067   12.2589  -14.0885 H   0  0  0  0  0  0  0  0  0  0  0  0
   -8.7599   10.5623  -11.5840 H   0  0  0  0  0  0  0  0  0  0  0  0
   -8.1032   10.5427   -7.5839 H   0  0  0  0  0  0  0  0  0  0  0  0
   -7.3958    8.8917   -7.5613 H   0  0  0  0  0  0  0  0  0  0  0  0
   -2.6189   14.5701  -10.8280 H   0  0  0  0  0  0  0  0  0  0  0  0
   -3.0927   14.8813  -12.5325 H   0  0  0  0  0  0  0  0  0  0  0  0
   -3.9729   15.6925  -11.1931 H   0  0  0  0  0  0  0  0  0  0  0  0
   -5.2336   15.2175  -12.9341 H   0  0  0  0  0  0  0  0  0  0  0  0
   -6.7345   12.3122   -6.9047 H   0  0  0  0  0  0  0  0  0  0  0  0
   -2.4573   11.9965   -7.0517 H   0  0  0  0  0  0  0  0  0  0  0  0
   -2.6569    9.7457   -8.0538 H   0  0  0  0  0  0  0  0  0  0  0  0
   -4.8908    8.7775   -8.4962 H   0  0  0  0  0  0  0  0  0  0  0  0
   -4.4264   13.5926   -5.2046 H   0  0  0  0  0  0  0  0  0  0  0  0
   -3.5315   14.1579   -6.6557 H   0  0  0  0  0  0  0  0  0  0  0  0
   -5.3217   14.2932   -6.5953 H   0  0  0  0  0  0  0  0  0  0  0  0
  1  2  2  0  0  0  0
  1  4  1  0  0  0  0
  1 13  1  0  0  0  0
  2  6  1  0  0  0  0
  3  4  2  0  0  0  0
  3  5  1  0  0  0  0
  5  6  1  0  0  0  0
  5  9  1  0  0  0  0
  6  7  2  0  0  0  0
  7  8  1  0  0  0  0
  7 10  1  0  0  0  0
  8  9  2  0  0  0  0
 10 15  1  0  0  0  0
 11 12  1  0  0  0  0
 11 13  2  0  0  0  0
 13 14  1  0  0  0  0
 15 16  2  0  0  0  0
 15 20  1  0  0  0  0
 16 17  1  0  0  0  0
 17 18  2  0  0  0  0
 17 21  1  0  0  0  0
 18 19  1  0  0  0  0
 19 20  2  0  0  0  0
  2 22  1  0  0  0  0
  3 23  1  0  0  0  0
  4 24  1  0  0  0  0
  5 25  1  0  0  0  0
 10 26  1  0  0  0  0
 10 27  1  0  0  0  0
 12 28  1  0  0  0  0
 12 29  1  0  0  0  0
 12 30  1  0  0  0  0
 14 31  1  0  0  0  0
 16 32  1  0  0  0  0
 18 33  1  0  0  0  0
 19 34  1  0  0  0  0
 20 35  1  0  0  0  0
 21 36  1  0  0  0  0
 21 37  1  0  0  0  0
 21 38  1  0  0  0  0
M  END
> <Name>
16

> <IC50[uM]>
0.17

$$$$
16
  -OEChem-05192314333D
 Structure written by MMmdl.
 38 40  0     0  0  0  0  0  0999 V2000
   -6.3886   12.3706  -12.0044 C   0  0  0  0  0  0  0  0  0  0  0  0
   -6.5217   11.8105  -10.7338 C   0  0  0  0  0  0  0  0  0  0  0  0
   -7.7267   10.5778  -13.0331 C   0  0  0  0  0  0  0  0  0  0  0  0
   -6.9997   11.7772  -13.1264 C   0  0  0  0  0  0  0  0  0  0  0  0
   -7.8245   10.0105  -11.7588 C   0  0  0  0  0  0  0  0  0  0  0  0
   -7.2447   10.6240  -10.5997 C   0  0  0  0  0  0  0  0  0  0  0  0
   -7.6157    9.7479   -9.5130 C   0  0  0  0  0  0  0  0  0  0  0  0
   -8.2818    8.7335   -9.9900 N   0  0  0  0  0  0  0  0  0  0  0  0
   -8.4155    8.8614  -11.3010 N   0  0  0  0  0  0  0  0  0  0  0  0
   -7.3377    9.8874   -8.0251 C   0  0  0  0  0  0  0  0  0  0  0  0
   -4.4115   13.6449  -11.4457 N   0  0  0  0  0  0  0  0  0  0  0  0
   -3.4644   14.7678  -11.5034 C   0  0  0  0  0  0  0  0  0  0  0  0
   -5.5490   13.6243  -12.1808 C   0  0  0  0  0  0  0  0  0  0  0  0
   -5.8784   14.5204  -12.9613 O   0  0  0  0  0  0  0  0  0  0  0  0
   -5.9596   10.4818   -7.7362 C   0  0  0  0  0  0  0  0  0  0  0  0
   -5.8460   11.7538   -7.1602 C   0  0  0  0  0  0  0  0  0  0  0  0
   -4.5819   12.3007   -6.9160 C   0  0  0  0  0  0  0  0  0  0  0  0
   -3.4335   11.5746   -7.2403 C   0  0  0  0  0  0  0  0  0  0  0  0
   -3.5461   10.3067   -7.8068 C   0  0  0  0  0  0  0  0  0  0  0  0
   -4.8068    9.7600   -8.0558 C   0  0  0  0  0  0  0  0  0  0  0  0
   -4.4568   13.6807   -6.3006 C   0  0  0  0  0  0  0  0  0  0  0  0
   -6.0750   12.2846   -9.8724 H   0  0  0  0  0  0  0  0  0  0  0  0
   -8.1843   10.1199  -13.8976 H   0  0  0  0  0  0  0  0  0  0  0  0
   -7.6950   12.5276  -13.5308 H   0  0  0  0  0  0  0  0  0  0  0  0
   -6.1951   11.5934  -13.8536 H   0  0  0  0  0  0  0  0  0  0  0  0
   -8.1032   10.5427   -7.5839 H   0  0  0  0  0  0  0  0  0  0  0  0
   -7.3958    8.8917   -7.5613 H   0  0  0  0  0  0  0  0  0  0  0  0
   -2.6189   14.5701  -10.8280 H   0  0  0  0  0  0  0  0  0  0  0  0
   -3.0927   14.8813  -12.5325 H   0  0  0  0  0  0  0  0  0  0  0  0
   -3.9729   15.6925  -11.1931 H   0  0  0  0  0  0  0  0  0  0  0  0
   -5.2336   15.2175  -12.9341 H   0  0  0  0  0  0  0  0  0  0  0  0
   -6.7345   12.3122   -6.9047 H   0  0  0  0  0  0  0  0  0  0  0  0
   -2.4573   11.9965   -7.0517 H   0  0  0  0  0  0  0  0  0  0  0  0
   -2.6569    9.7457   -8.0538 H   0  0  0  0  0  0  0  0  0  0  0  0
   -4.8908    8.7775   -8.4962 H   0  0  0  0  0  0  0  0  0  0  0  0
   -4.4264   13.5926   -5.2046 H   0  0  0  0  0  0  0  0  0  0  0  0
   -3.5315   14.1579   -6.6557 H   0  0  0  0  0  0  0  0  0  0  0  0
   -5.3217   14.2932   -6.5953 H   0  0  0  0  0  0  0  0  0  0  0  0
  1  2  2  0  0  0  0
  1  4  1  0  0  0  0
  1 13  1  0  0  0  0
  2  6  1  0  0  0  0
  3  4  1  0  0  0  0
  3  5  2  0  0  0  0
  5  6  1  0  0  0  0
  5  9  1  0  0  0  0
  6  7  2  0  0  0  0
  7  8  1  0  0  0  0
  7 10  1  0  0  0  0
  8  9  2  0  0  0  0
 10 15  1  0  0  0  0
 11 12  1  0  0  0  0
 11 13  2  0  0  0  0
 13 14  1  0  0  0  0
 15 16  2  0  0  0  0
 15 20  1  0  0  0  0
 16 17  1  0  0  0  0
 17 18  2  0  0  0  0
 17 21  1  0  0  0  0
 18 19  1  0  0  0  0
 19 20  2  0  0  0  0
  2 22  1  0  0  0  0
  3 23  1  0  0  0  0
  4 24  1  0  0  0  0
  4 25  1  0  0  0  0
 10 26  1  0  0  0  0
 10 27  1  0  0  0  0
 12 28  1  0  0  0  0
 12 29  1  0  0  0  0
 12 30  1  0  0  0  0
 14 31  1  0  0  0  0
 16 32  1  0  0  0  0
 18 33  1  0  0  0  0
 19 34  1  0  0  0  0
 20 35  1  0  0  0  0
 21 36  1  0  0  0  0
 21 37  1  0  0  0  0
 21 38  1  0  0  0  0
M  END
> <Name>
16

> <IC50[uM]>
0.17

$$$$
16
  -OEChem-05192314333D
 Structure written by MMmdl.
 38 40  0     0  0  0  0  0  0999 V2000
   -6.3886   12.3706  -12.0044 C   0  0  0  0  0  0  0  0  0  0  0  0
   -6.5217   11.8105  -10.7338 C   0  0  0  0  0  0  0  0  0  0  0  0
   -7.7267   10.5778  -13.0331 C   0  0  0  0  0  0  0  0  0  0  0  0
   -6.9997   11.7772  -13.1264 C   0  0  0  0  0  0  0  0  0  0  0  0
   -7.8245   10.0105  -11.7588 C   0  0  0  0  0  0  0  0  0  0  0  0
   -7.2447   10.6240  -10.5997 C   0  0  0  0  0  0  0  0  0  0  0  0
   -7.6157    9.7479   -9.5130 C   0  0  0  0  0  0  0  0  0  0  0  0
   -8.2818    8.7335   -9.9900 N   0  0  0  0  0  0  0  0  0  0  0  0
   -8.4155    8.8614  -11.3010 N   0  0  0  0  0  0  0  0  0  0  0  0
   -7.3377    9.8874   -8.0251 C   0  0  0  0  0  0  0  0  0  0  0  0
   -4.4115   13.6449  -11.4457 N   0  0  0  0  0  0  0  0  0  0  0  0
   -3.4644   14.7678  -11.5034 C   0  0  0  0  0  0  0  0  0  0  0  0
   -5.5490   13.6243  -12.1808 C   0  0  0  0  0  0  0  0  0  0  0  0
   -5.8784   14.5204  -12.9613 O   0  0  0  0  0  0  0  0  0  0  0  0
   -5.9596   10.4818   -7.7362 C   0  0  0  0  0  0  0  0  0  0  0  0
   -5.8460   11.7538   -7.1602 C   0  0  0  0  0  0  0  0  0  0  0  0
   -4.5819   12.3007   -6.9160 C   0  0  0  0  0  0  0  0  0  0  0  0
   -3.4335   11.5746   -7.2403 C   0  0  0  0  0  0  0  0  0  0  0  0
   -3.5461   10.3067   -7.8068 C   0  0  0  0  0  0  0  0  0  0  0  0
   -4.8068    9.7600   -8.0558 C   0  0  0  0  0  0  0  0  0  0  0  0
   -4.4568   13.6807   -6.3006 C   0  0  0  0  0  0  0  0  0  0  0  0
   -5.5067   11.6162  -10.3570 H   0  0  0  0  0  0  0  0  0  0  0  0
   -7.0113   12.5624  -10.0975 H   0  0  0  0  0  0  0  0  0  0  0  0
   -8.1843   10.1199  -13.8976 H   0  0  0  0  0  0  0  0  0  0  0  0
   -6.9067   12.2589  -14.0885 H   0  0  0  0  0  0  0  0  0  0  0  0
   -8.1032   10.5427   -7.5839 H   0  0  0  0  0  0  0  0  0  0  0  0
   -7.3958    8.8917   -7.5613 H   0  0  0  0  0  0  0  0  0  0  0  0
   -2.6189   14.5701  -10.8280 H   0  0  0  0  0  0  0  0  0  0  0  0
   -3.0927   14.8813  -12.5325 H   0  0  0  0  0  0  0  0  0  0  0  0
   -3.9729   15.6925  -11.1931 H   0  0  0  0  0  0  0  0  0  0  0  0
   -5.2336   15.2175  -12.9341 H   0  0  0  0  0  0  0  0  0  0  0  0
   -6.7345   12.3122   -6.9047 H   0  0  0  0  0  0  0  0  0  0  0  0
   -2.4573   11.9965   -7.0517 H   0  0  0  0  0  0  0  0  0  0  0  0
   -2.6569    9.7457   -8.0538 H   0  0  0  0  0  0  0  0  0  0  0  0
   -4.8908    8.7775   -8.4962 H   0  0  0  0  0  0  0  0  0  0  0  0
   -4.4264   13.5926   -5.2046 H   0  0  0  0  0  0  0  0  0  0  0  0
   -3.5315   14.1579   -6.6557 H   0  0  0  0  0  0  0  0  0  0  0  0
   -5.3217   14.2932   -6.5953 H   0  0  0  0  0  0  0  0  0  0  0  0
  1  2  1  0  0  0  0
  1  4  2  0  0  0  0
  1 13  1  0  0  0  0
  2  6  1  0  0  0  0
  3  4  1  0  0  0  0
  3  5  2  0  0  0  0
  5  6  1  0  0  0  0
  5  9  1  0  0  0  0
  6  7  2  0  0  0  0
  7  8  1  0  0  0  0
  7 10  1  0  0  0  0
  8  9  2  0  0  0  0
 10 15  1  0  0  0  0
 11 12  1  0  0  0  0
 11 13  2  0  0  0  0
 13 14  1  0  0  0  0
 15 16  2  0  0  0  0
 15 20  1  0  0  0  0
 16 17  1  0  0  0  0
 17 18  2  0  0  0  0
 17 21  1  0  0  0  0
 18 19  1  0  0  0  0
 19 20  2  0  0  0  0
  2 22  1  0  0  0  0
  2 23  1  0  0  0  0
  3 24  1  0  0  0  0
  4 25  1  0  0  0  0
 10 26  1  0  0  0  0
 10 27  1  0  0  0  0
 12 28  1  0  0  0  0
 12 29  1  0  0  0  0
 12 30  1  0  0  0  0
 14 31  1  0  0  0  0
 16 32  1  0  0  0  0
 18 33  1  0  0  0  0
 19 34  1  0  0  0  0
 20 35  1  0  0  0  0
 21 36  1  0  0  0  0
 21 37  1  0  0  0  0
 21 38  1  0  0  0  0
M  END
> <Name>
16

> <IC50[uM]>
0.17

$$$$
16
  -OEChem-05192314333D
 Structure written by MMmdl.
 38 40  0     1  0  0  0  0  0999 V2000
   -6.3886   12.3706  -12.0044 C   0  0  0  0  0  0  0  0  0  0  0  0
   -6.5217   11.8105  -10.7338 C   0  0  0  0  0  0  0  0  0  0  0  0
   -7.7267   10.5778  -13.0331 C   0  0  0  0  0  0  0  0  0  0  0  0
   -6.9997   11.7772  -13.1264 C   0  0  0  0  0  0  0  0  0  0  0  0
   -7.8245   10.0105  -11.7588 C   0  0  0  0  0  0  0  0  0  0  0  0
   -7.2447   10.6240  -10.5997 C   0  0  0  0  0  0  0  0  0  0  0  0
   -7.6157    9.7479   -9.5130 C   0  0  0  0  0  0  0  0  0  0  0  0
   -8.2818    8.7335   -9.9900 N   0  0  0  0  0  0  0  0  0  0  0  0
   -8.4155    8.8614  -11.3010 N   0  0  0  0  0  0  0  0  0  0  0  0
   -7.3377    9.8874   -8.0251 C   0  0  0  0  0  0  0  0  0  0  0  0
   -4.4115   13.6449  -11.4457 N   0  0  0  0  0  0  0  0  0  0  0  0
   -3.4644   14.7678  -11.5034 C   0  0  0  0  0  0  0  0  0  0  0  0
   -5.5490   13.6243  -12.1808 C   0  0  0  0  0  0  0  0  0  0  0  0
   -5.8784   14.5204  -12.9613 O   0  0  0  0  0  0  0  0  0  0  0  0
   -5.9596   10.4818   -7.7362 C   0  0  0  0  0  0  0  0  0  0  0  0
   -5.8460   11.7538   -7.1602 C   0  0  0  0  0  0  0  0  0  0  0  0
   -4.5819   12.3007   -6.9160 C   0  0  3  0  0  0  0  0  0  0  0  0
   -3.4335   11.5746   -7.2403 C   0  0  0  0  0  0  0  0  0  0  0  0
   -3.5461   10.3067   -7.8068 C   0  0  0  0  0  0  0  0  0  0  0  0
   -4.8068    9.7600   -8.0558 C   0  0  0  0  0  0  0  0  0  0  0  0
   -4.4568   13.6807   -6.3006 C   0  0  0  0  0  0  0  0  0  0  0  0
   -6.0750   12.2846   -9.8724 H   0  0  0  0  0  0  0  0  0  0  0  0
   -8.1843   10.1199  -13.8976 H   0  0  0  0  0  0  0  0  0  0  0  0
   -6.9067   12.2589  -14.0885 H   0  0  0  0  0  0  0  0  0  0  0  0
   -8.0380    9.5979   -7.2556 H   0  0  0  0  0  0  0  0  0  0  0  0
   -2.6189   14.5701  -10.8280 H   0  0  0  0  0  0  0  0  0  0  0  0
   -3.0927   14.8813  -12.5325 H   0  0  0  0  0  0  0  0  0  0  0  0
   -3.9729   15.6925  -11.1931 H   0  0  0  0  0  0  0  0  0  0  0  0
   -5.2336   15.2175  -12.9341 H   0  0  0  0  0  0  0  0  0  0  0  0
   -6.3708   12.4528   -7.8280 H   0  0  0  0  0  0  0  0  0  0  0  0
   -6.3661   11.7115   -6.1919 H   0  0  0  0  0  0  0  0  0  0  0  0
   -4.5818   11.8525   -5.9114 H   0  0  0  0  0  0  0  0  0  0  0  0
   -2.4573   11.9965   -7.0517 H   0  0  0  0  0  0  0  0  0  0  0  0
   -2.6569    9.7457   -8.0538 H   0  0  0  0  0  0  0  0  0  0  0  0
   -4.8908    8.7775   -8.4962 H   0  0  0  0  0  0  0  0  0  0  0  0
   -3.3931   13.9367   -6.1862 H   0  0  0  0  0  0  0  0  0  0  0  0
   -4.9432   14.4192   -6.9548 H   0  0  0  0  0  0  0  0  0  0  0  0
   -4.9436   13.6877   -5.3142 H   0  0  0  0  0  0  0  0  0  0  0  0
  1  2  2  0  0  0  0
  1  4  1  0  0  0  0
  1 13  1  0  0  0  0
  2  6  1  0  0  0  0
  3  4  2  0  0  0  0
  3  5  1  0  0  0  0
  5  6  2  0  0  0  0
  5  9  1  0  0  0  0
  6  7  1  0  0  0  0
  7  8  1  0  0  0  0
  7 10  2  3  0  0  0
  8  9  2  0  0  0  0
 10 15  1  0  0  0  0
 11 12  1  0  0  0  0
 11 13  2  0  0  0  0
 13 14  1  0  0  0  0
 15 16  1  0  0  0  0
 15 20  2  0  0  0  0
 16 17  1  0  0  0  0
 17 18  1  0  0  0  0
 17 21  1  0  0  0  0
 18 19  2  0  0  0  0
 19 20  1  0  0  0  0
  2 22  1  0  0  0  0
  3 23  1  0  0  0  0
  4 24  1  0  0  0  0
 10 25  1  0  0  0  0
 12 26  1  0  0  0  0
 12 27  1  0  0  0  0
 12 28  1  0  0  0  0
 14 29  1  0  0  0  0
 16 30  1  0  0  0  0
 16 31  1  0  0  0  0
 17 32  1  0  0  0  0
 18 33  1  0  0  0  0
 19 34  1  0  0  0  0
 20 35  1  0  0  0  0
 21 36  1  0  0  0  0
 21 37  1  0  0  0  0
 21 38  1  0  0  0  0
M  END
> <Name>
16

> <IC50[uM]>
0.17

$$$$
16
  -OEChem-05192314333D
 Structure written by MMmdl.
 38 40  0     1  0  0  0  0  0999 V2000
   -6.3886   12.3706  -12.0044 C   0  0  0  0  0  0  0  0  0  0  0  0
   -6.5217   11.8105  -10.7338 C   0  0  0  0  0  0  0  0  0  0  0  0
   -7.7267   10.5778  -13.0331 C   0  0  0  0  0  0  0  0  0  0  0  0
   -6.9997   11.7772  -13.1264 C   0  0  0  0  0  0  0  0  0  0  0  0
   -7.8245   10.0105  -11.7588 C   0  0  0  0  0  0  0  0  0  0  0  0
   -7.2447   10.6240  -10.5997 C   0  0  0  0  0  0  0  0  0  0  0  0
   -7.6157    9.7479   -9.5130 C   0  0  0  0  0  0  0  0  0  0  0  0
   -8.2818    8.7335   -9.9900 N   0  0  0  0  0  0  0  0  0  0  0  0
   -8.4155    8.8614  -11.3010 N   0  0  0  0  0  0  0  0  0  0  0  0
   -7.3377    9.8874   -8.0251 C   0  0  0  0  0  0  0  0  0  0  0  0
   -4.4115   13.6449  -11.4457 N   0  0  0  0  0  0  0  0  0  0  0  0
   -3.4644   14.7678  -11.5034 C   0  0  0  0  0  0  0  0  0  0  0  0
   -5.5490   13.6243  -12.1808 C   0  0  0  0  0  0  0  0  0  0  0  0
   -5.8784   14.5204  -12.9613 O   0  0  0  0  0  0  0  0  0  0  0  0
   -5.9596   10.4818   -7.7362 C   0  0  3  0  0  0  0  0  0  0  0  0
   -5.8460   11.7538   -7.1602 C   0  0  0  0  0  0  0  0  0  0  0  0
   -4.5819   12.3007   -6.9160 C   0  0  0  0  0  0  0  0  0  0  0  0
   -3.4335   11.5746   -7.2403 C   0  0  0  0  0  0  0  0  0  0  0  0
   -3.5461   10.3067   -7.8068 C   0  0  0  0  0  0  0  0  0  0  0  0
   -4.8068    9.7600   -8.0558 C   0  0  0  0  0  0  0  0  0  0  0  0
   -4.4568   13.6807   -6.3006 C   0  0  0  0  0  0  0  0  0  0  0  0
   -6.0750   12.2846   -9.8724 H   0  0  0  0  0  0  0  0  0  0  0  0
   -8.1843   10.1199  -13.8976 H   0  0  0  0  0  0  0  0  0  0  0  0
   -6.9067   12.2589  -14.0885 H   0  0  0  0  0  0  0  0  0  0  0  0
   -8.0380    9.5979   -7.2556 H   0  0  0  0  0  0  0  0  0  0  0  0
   -2.6189   14.5701  -10.8280 H   0  0  0  0  0  0  0  0  0  0  0  0
   -3.0927   14.8813  -12.5325 H   0  0  0  0  0  0  0  0  0  0  0  0
   -3.9729   15.6925  -11.1931 H   0  0  0  0  0  0  0  0  0  0  0  0
   -5.2336   15.2175  -12.9341 H   0  0  0  0  0  0  0  0  0  0  0  0
   -5.9704   10.0264   -6.7349 H   0  0  0  0  0  0  0  0  0  0  0  0
   -6.3708   12.4528   -7.8280 H   0  0  0  0  0  0  0  0  0  0  0  0
   -6.3661   11.7115   -6.1919 H   0  0  0  0  0  0  0  0  0  0  0  0
   -2.4573   11.9965   -7.0517 H   0  0  0  0  0  0  0  0  0  0  0  0
   -2.6569    9.7457   -8.0538 H   0  0  0  0  0  0  0  0  0  0  0  0
   -4.8908    8.7775   -8.4962 H   0  0  0  0  0  0  0  0  0  0  0  0
   -3.3931   13.9367   -6.1862 H   0  0  0  0  0  0  0  0  0  0  0  0
   -4.9432   14.4192   -6.9548 H   0  0  0  0  0  0  0  0  0  0  0  0
   -4.9436   13.6877   -5.3142 H   0  0  0  0  0  0  0  0  0  0  0  0
  1  2  2  0  0  0  0
  1  4  1  0  0  0  0
  1 13  1  0  0  0  0
  2  6  1  0  0  0  0
  3  4  2  0  0  0  0
  3  5  1  0  0  0  0
  5  6  2  0  0  0  0
  5  9  1  0  0  0  0
  6  7  1  0  0  0  0
  7  8  1  0  0  0  0
  7 10  2  3  0  0  0
  8  9  2  0  0  0  0
 10 15  1  0  0  0  0
 11 12  1  0  0  0  0
 11 13  2  0  0  0  0
 13 14  1  0  0  0  0
 15 16  1  0  0  0  0
 15 20  1  0  0  0  0
 16 17  1  0  0  0  0
 17 18  2  0  0  0  0
 17 21  1  0  0  0  0
 18 19  1  0  0  0  0
 19 20  2  0  0  0  0
  2 22  1  0  0  0  0
  3 23  1  0  0  0  0
  4 24  1  0  0  0  0
 10 25  1  0  0  0  0
 12 26  1  0  0  0  0
 12 27  1  0  0  0  0
 12 28  1  0  0  0  0
 14 29  1  0  0  0  0
 15 30  1  0  0  0  0
 16 31  1  0  0  0  0
 16 32  1  0  0  0  0
 18 33  1  0  0  0  0
 19 34  1  0  0  0  0
 20 35  1  0  0  0  0
 21 36  1  0  0  0  0
 21 37  1  0  0  0  0
 21 38  1  0  0  0  0
M  END
> <Name>
16

> <IC50[uM]>
0.17

$$$$
16
  -OEChem-05192314333D
 Structure written by MMmdl.
 38 40  0     1  0  0  0  0  0999 V2000
   -6.3886   12.3706  -12.0044 C   0  0  0  0  0  0  0  0  0  0  0  0
   -6.5217   11.8105  -10.7338 C   0  0  0  0  0  0  0  0  0  0  0  0
   -7.7267   10.5778  -13.0331 C   0  0  0  0  0  0  0  0  0  0  0  0
   -6.9997   11.7772  -13.1264 C   0  0  0  0  0  0  0  0  0  0  0  0
   -7.8245   10.0105  -11.7588 C   0  0  0  0  0  0  0  0  0  0  0  0
   -7.2447   10.6240  -10.5997 C   0  0  0  0  0  0  0  0  0  0  0  0
   -7.6157    9.7479   -9.5130 C   0  0  3  0  0  0  0  0  0  0  0  0
   -8.2818    8.7335   -9.9900 N   0  0  0  0  0  0  0  0  0  0  0  0
   -8.4155    8.8614  -11.3010 N   0  0  0  0  0  0  0  0  0  0  0  0
   -7.3377    9.8874   -8.0251 C   0  0  0  0  0  0  0  0  0  0  0  0
   -4.4115   13.6449  -11.4457 N   0  0  0  0  0  0  0  0  0  0  0  0
   -3.4644   14.7678  -11.5034 C   0  0  0  0  0  0  0  0  0  0  0  0
   -5.5490   13.6243  -12.1808 C   0  0  0  0  0  0  0  0  0  0  0  0
   -5.8784   14.5204  -12.9613 O   0  0  0  0  0  0  0  0  0  0  0  0
   -5.9596   10.4818   -7.7362 C   0  0  0  0  0  0  0  0  0  0  0  0
   -5.8460   11.7538   -7.1602 C   0  0  0  0  0  0  0  0  0  0  0  0
   -4.5819   12.3007   -6.9160 C   0  0  0  0  0  0  0  0  0  0  0  0
   -3.4335   11.5746   -7.2403 C   0  0  0  0  0  0  0  0  0  0  0  0
   -3.5461   10.3067   -7.8068 C   0  0  0  0  0  0  0  0  0  0  0  0
   -4.8068    9.7600   -8.0558 C   0  0  0  0  0  0  0  0  0  0  0  0
   -4.4568   13.6807   -6.3006 C   0  0  0  0  0  0  0  0  0  0  0  0
   -6.0750   12.2846   -9.8724 H   0  0  0  0  0  0  0  0  0  0  0  0
   -8.1843   10.1199  -13.8976 H   0  0  0  0  0  0  0  0  0  0  0  0
   -6.9067   12.2589  -14.0885 H   0  0  0  0  0  0  0  0  0  0  0  0
   -6.6751    9.1915   -9.6382 H   0  0  0  0  0  0  0  0  0  0  0  0
   -8.0380    9.5979   -7.2556 H   0  0  0  0  0  0  0  0  0  0  0  0
   -2.6189   14.5701  -10.8280 H   0  0  0  0  0  0  0  0  0  0  0  0
   -3.0927   14.8813  -12.5325 H   0  0  0  0  0  0  0  0  0  0  0  0
   -3.9729   15.6925  -11.1931 H   0  0  0  0  0  0  0  0  0  0  0  0
   -5.2336   15.2175  -12.9341 H   0  0  0  0  0  0  0  0  0  0  0  0
   -6.3708   12.4528   -7.8280 H   0  0  0  0  0  0  0  0  0  0  0  0
   -6.3661   11.7115   -6.1919 H   0  0  0  0  0  0  0  0  0  0  0  0
   -2.4573   11.9965   -7.0517 H   0  0  0  0  0  0  0  0  0  0  0  0
   -2.6569    9.7457   -8.0538 H   0  0  0  0  0  0  0  0  0  0  0  0
   -4.8908    8.7775   -8.4962 H   0  0  0  0  0  0  0  0  0  0  0  0
   -3.3931   13.9367   -6.1862 H   0  0  0  0  0  0  0  0  0  0  0  0
   -4.9432   14.4192   -6.9548 H   0  0  0  0  0  0  0  0  0  0  0  0
   -4.9436   13.6877   -5.3142 H   0  0  0  0  0  0  0  0  0  0  0  0
  1  2  2  0  0  0  0
  1  4  1  0  0  0  0
  1 13  1  0  0  0  0
  2  6  1  0  0  0  0
  3  4  2  0  0  0  0
  3  5  1  0  0  0  0
  5  6  2  0  0  0  0
  5  9  1  0  0  0  0
  6  7  1  0  0  0  0
  7  8  1  0  0  0  0
  7 10  1  0  0  0  0
  8  9  2  0  0  0  0
 10 15  2  3  0  0  0
 11 12  1  0  0  0  0
 11 13  2  0  0  0  0
 13 14  1  0  0  0  0
 15 16  1  0  0  0  0
 15 20  1  0  0  0  0
 16 17  1  0  0  0  0
 17 18  2  0  0  0  0
 17 21  1  0  0  0  0
 18 19  1  0  0  0  0
 19 20  2  0  0  0  0
  2 22  1  0  0  0  0
  3 23  1  0  0  0  0
  4 24  1  0  0  0  0
  7 25  1  0  0  0  0
 10 26  1  0  0  0  0
 12 27  1  0  0  0  0
 12 28  1  0  0  0  0
 12 29  1  0  0  0  0
 14 30  1  0  0  0  0
 16 31  1  0  0  0  0
 16 32  1  0  0  0  0
 18 33  1  0  0  0  0
 19 34  1  0  0  0  0
 20 35  1  0  0  0  0
 21 36  1  0  0  0  0
 21 37  1  0  0  0  0
 21 38  1  0  0  0  0
M  END
> <Name>
16

> <IC50[uM]>
0.17

$$$$
16
  -OEChem-05192314333D
 Structure written by MMmdl.
 38 40  0     0  0  0  0  0  0999 V2000
   -6.3886   12.3706  -12.0044 C   0  0  0  0  0  0  0  0  0  0  0  0
   -6.5217   11.8105  -10.7338 C   0  0  0  0  0  0  0  0  0  0  0  0
   -7.7267   10.5778  -13.0331 C   0  0  0  0  0  0  0  0  0  0  0  0
   -6.9997   11.7772  -13.1264 C   0  0  0  0  0  0  0  0  0  0  0  0
   -7.8245   10.0105  -11.7588 C   0  0  0  0  0  0  0  0  0  0  0  0
   -7.2447   10.6240  -10.5997 C   0  0  0  0  0  0  0  0  0  0  0  0
   -7.6157    9.7479   -9.5130 C   0  0  0  0  0  0  0  0  0  0  0  0
   -8.2818    8.7335   -9.9900 N   0  0  0  0  0  0  0  0  0  0  0  0
   -8.4155    8.8614  -11.3010 N   0  0  0  0  0  0  0  0  0  0  0  0
   -7.3377    9.8874   -8.0251 C   0  0  0  0  0  0  0  0  0  0  0  0
   -4.4115   13.6449  -11.4457 N   0  0  0  0  0  0  0  0  0  0  0  0
   -3.4644   14.7678  -11.5034 C   0  0  0  0  0  0  0  0  0  0  0  0
   -5.5490   13.6243  -12.1808 C   0  0  0  0  0  0  0  0  0  0  0  0
   -5.8784   14.5204  -12.9613 O   0  0  0  0  0  0  0  0  0  0  0  0
   -5.9596   10.4818   -7.7362 C   0  0  0  0  0  0  0  0  0  0  0  0
   -5.8460   11.7538   -7.1602 C   0  0  0  0  0  0  0  0  0  0  0  0
   -4.5819   12.3007   -6.9160 C   0  0  0  0  0  0  0  0  0  0  0  0
   -3.4335   11.5746   -7.2403 C   0  0  0  0  0  0  0  0  0  0  0  0
   -3.5461   10.3067   -7.8068 C   0  0  0  0  0  0  0  0  0  0  0  0
   -4.8068    9.7600   -8.0558 C   0  0  0  0  0  0  0  0  0  0  0  0
   -4.4568   13.6807   -6.3006 C   0  0  0  0  0  0  0  0  0  0  0  0
   -6.0750   12.2846   -9.8724 H   0  0  0  0  0  0  0  0  0  0  0  0
   -8.1843   10.1199  -13.8976 H   0  0  0  0  0  0  0  0  0  0  0  0
   -6.9067   12.2589  -14.0885 H   0  0  0  0  0  0  0  0  0  0  0  0
   -8.0380    9.5979   -7.2556 H   0  0  0  0  0  0  0  0  0  0  0  0
   -2.6189   14.5701  -10.8280 H   0  0  0  0  0  0  0  0  0  0  0  0
   -3.0927   14.8813  -12.5325 H   0  0  0  0  0  0  0  0  0  0  0  0
   -3.9729   15.6925  -11.1931 H   0  0  0  0  0  0  0  0  0  0  0  0
   -5.2336   15.2175  -12.9341 H   0  0  0  0  0  0  0  0  0  0  0  0
   -6.3708   12.4528   -7.8280 H   0  0  0  0  0  0  0  0  0  0  0  0
   -6.3661   11.7115   -6.1919 H   0  0  0  0  0  0  0  0  0  0  0  0
   -2.4573   11.9965   -7.0517 H   0  0  0  0  0  0  0  0  0  0  0  0
   -3.0200   10.3430   -8.7722 H   0  0  0  0  0  0  0  0  0  0  0  0
   -3.0264    9.6107   -7.1319 H   0  0  0  0  0  0  0  0  0  0  0  0
   -4.8908    8.7775   -8.4962 H   0  0  0  0  0  0  0  0  0  0  0  0
   -3.3931   13.9367   -6.1862 H   0  0  0  0  0  0  0  0  0  0  0  0
   -4.9432   14.4192   -6.9548 H   0  0  0  0  0  0  0  0  0  0  0  0
   -4.9436   13.6877   -5.3142 H   0  0  0  0  0  0  0  0  0  0  0  0
  1  2  2  0  0  0  0
  1  4  1  0  0  0  0
  1 13  1  0  0  0  0
  2  6  1  0  0  0  0
  3  4  2  0  0  0  0
  3  5  1  0  0  0  0
  5  6  2  0  0  0  0
  5  9  1  0  0  0  0
  6  7  1  0  0  0  0
  7  8  1  0  0  0  0
  7 10  2  3  0  0  0
  8  9  2  0  0  0  0
 10 15  1  0  0  0  0
 11 12  1  0  0  0  0
 11 13  2  0  0  0  0
 13 14  1  0  0  0  0
 15 16  1  0  0  0  0
 15 20  2  0  0  0  0
 16 17  1  0  0  0  0
 17 18  2  0  0  0  0
 17 21  1  0  0  0  0
 18 19  1  0  0  0  0
 19 20  1  0  0  0  0
  2 22  1  0  0  0  0
  3 23  1  0  0  0  0
  4 24  1  0  0  0  0
 10 25  1  0  0  0  0
 12 26  1  0  0  0  0
 12 27  1  0  0  0  0
 12 28  1  0  0  0  0
 14 29  1  0  0  0  0
 16 30  1  0  0  0  0
 16 31  1  0  0  0  0
 18 32  1  0  0  0  0
 19 33  1  0  0  0  0
 19 34  1  0  0  0  0
 20 35  1  0  0  0  0
 21 36  1  0  0  0  0
 21 37  1  0  0  0  0
 21 38  1  0  0  0  0
M  END
> <Name>
16

> <IC50[uM]>
0.17

$$$$
16
  -OEChem-05192314333D
 Structure written by MMmdl.
 38 40  0     1  0  0  0  0  0999 V2000
   -6.3886   12.3706  -12.0044 C   0  0  0  0  0  0  0  0  0  0  0  0
   -6.5217   11.8105  -10.7338 C   0  0  0  0  0  0  0  0  0  0  0  0
   -7.7267   10.5778  -13.0331 C   0  0  0  0  0  0  0  0  0  0  0  0
   -6.9997   11.7772  -13.1264 C   0  0  0  0  0  0  0  0  0  0  0  0
   -7.8245   10.0105  -11.7588 C   0  0  0  0  0  0  0  0  0  0  0  0
   -7.2447   10.6240  -10.5997 C   0  0  3  0  0  0  0  0  0  0  0  0
   -7.6157    9.7479   -9.5130 C   0  0  0  0  0  0  0  0  0  0  0  0
   -8.2818    8.7335   -9.9900 N   0  0  0  0  0  0  0  0  0  0  0  0
   -8.4155    8.8614  -11.3010 N   0  0  0  0  0  0  0  0  0  0  0  0
   -7.3377    9.8874   -8.0251 C   0  0  0  0  0  0  0  0  0  0  0  0
   -4.4115   13.6449  -11.4457 N   0  0  0  0  0  0  0  0  0  0  0  0
   -3.4644   14.7678  -11.5034 C   0  0  0  0  0  0  0  0  0  0  0  0
   -5.5490   13.6243  -12.1808 C   0  0  0  0  0  0  0  0  0  0  0  0
   -5.8784   14.5204  -12.9613 O   0  0  0  0  0  0  0  0  0  0  0  0
   -5.9596   10.4818   -7.7362 C   0  0  0  0  0  0  0  0  0  0  0  0
   -5.8460   11.7538   -7.1602 C   0  0  0  0  0  0  0  0  0  0  0  0
   -4.5819   12.3007   -6.9160 C   0  0  0  0  0  0  0  0  0  0  0  0
   -3.4335   11.5746   -7.2403 C   0  0  0  0  0  0  0  0  0  0  0  0
   -3.5461   10.3067   -7.8068 C   0  0  0  0  0  0  0  0  0  0  0  0
   -4.8068    9.7600   -8.0558 C   0  0  0  0  0  0  0  0  0  0  0  0
   -4.4568   13.6807   -6.3006 C   0  0  0  0  0  0  0  0  0  0  0  0
   -6.0750   12.2846   -9.8724 H   0  0  0  0  0  0  0  0  0  0  0  0
   -8.1843   10.1199  -13.8976 H   0  0  0  0  0  0  0  0  0  0  0  0
   -6.9067   12.2589  -14.0885 H   0  0  0  0  0  0  0  0  0  0  0  0
   -6.3227   10.0441  -10.7532 H   0  0  0  0  0  0  0  0  0  0  0  0
   -8.6382    7.9731   -9.4471 H   0  0  0  0  0  0  0  0  0  0  0  0
   -8.0380    9.5979   -7.2556 H   0  0  0  0  0  0  0  0  0  0  0  0
   -2.6189   14.5701  -10.8280 H   0  0  0  0  0  0  0  0  0  0  0  0
   -3.0927   14.8813  -12.5325 H   0  0  0  0  0  0  0  0  0  0  0  0
   -3.9729   15.6925  -11.1931 H   0  0  0  0  0  0  0  0  0  0  0  0
   -5.2336   15.2175  -12.9341 H   0  0  0  0  0  0  0  0  0  0  0  0
   -6.7345   12.3122   -6.9047 H   0  0  0  0  0  0  0  0  0  0  0  0
   -2.4573   11.9965   -7.0517 H   0  0  0  0  0  0  0  0  0  0  0  0
   -2.6569    9.7457   -8.0538 H   0  0  0  0  0  0  0  0  0  0  0  0
   -4.8908    8.7775   -8.4962 H   0  0  0  0  0  0  0  0  0  0  0  0
   -4.4264   13.5926   -5.2046 H   0  0  0  0  0  0  0  0  0  0  0  0
   -3.5315   14.1579   -6.6557 H   0  0  0  0  0  0  0  0  0  0  0  0
   -5.3217   14.2932   -6.5953 H   0  0  0  0  0  0  0  0  0  0  0  0
  1  2  2  0  0  0  0
  1  4  1  0  0  0  0
  1 13  1  0  0  0  0
  2  6  1  0  0  0  0
  3  4  2  0  0  0  0
  3  5  1  0  0  0  0
  5  6  1  0  0  0  0
  5  9  2  0  0  0  0
  6  7  1  0  0  0  0
  7  8  1  0  0  0  0
  7 10  2  3  0  0  0
  8  9  1  0  0  0  0
 10 15  1  0  0  0  0
 11 12  1  0  0  0  0
 11 13  2  0  0  0  0
 13 14  1  0  0  0  0
 15 16  2  0  0  0  0
 15 20  1  0  0  0  0
 16 17  1  0  0  0  0
 17 18  2  0  0  0  0
 17 21  1  0  0  0  0
 18 19  1  0  0  0  0
 19 20  2  0  0  0  0
  2 22  1  0  0  0  0
  3 23  1  0  0  0  0
  4 24  1  0  0  0  0
  6 25  1  0  0  0  0
  8 26  1  0  0  0  0
 10 27  1  0  0  0  0
 12 28  1  0  0  0  0
 12 29  1  0  0  0  0
 12 30  1  0  0  0  0
 14 31  1  0  0  0  0
 16 32  1  0  0  0  0
 18 33  1  0  0  0  0
 19 34  1  0  0  0  0
 20 35  1  0  0  0  0
 21 36  1  0  0  0  0
 21 37  1  0  0  0  0
 21 38  1  0  0  0  0
M  END
> <Name>
16

> <IC50[uM]>
0.17

$$$$
16
  -OEChem-05192314333D
 Structure written by MMmdl.
 38 40  0     1  0  0  0  0  0999 V2000
   -6.3886   12.3706  -12.0044 C   0  0  3  0  0  0  0  0  0  0  0  0
   -6.5217   11.8105  -10.7338 C   0  0  0  0  0  0  0  0  0  0  0  0
   -7.7267   10.5778  -13.0331 C   0  0  0  0  0  0  0  0  0  0  0  0
   -6.9997   11.7772  -13.1264 C   0  0  0  0  0  0  0  0  0  0  0  0
   -7.8245   10.0105  -11.7588 C   0  0  0  0  0  0  0  0  0  0  0  0
   -7.2447   10.6240  -10.5997 C   0  0  0  0  0  0  0  0  0  0  0  0
   -7.6157    9.7479   -9.5130 C   0  0  0  0  0  0  0  0  0  0  0  0
   -8.2818    8.7335   -9.9900 N   0  0  0  0  0  0  0  0  0  0  0  0
   -8.4155    8.8614  -11.3010 N   0  0  0  0  0  0  0  0  0  0  0  0
   -7.3377    9.8874   -8.0251 C   0  0  0  0  0  0  0  0  0  0  0  0
   -4.4115   13.6449  -11.4457 N   0  0  0  0  0  0  0  0  0  0  0  0
   -3.4644   14.7678  -11.5034 C   0  0  0  0  0  0  0  0  0  0  0  0
   -5.5490   13.6243  -12.1808 C   0  0  0  0  0  0  0  0  0  0  0  0
   -5.8784   14.5204  -12.9613 O   0  0  0  0  0  0  0  0  0  0  0  0
   -5.9596   10.4818   -7.7362 C   0  0  0  0  0  0  0  0  0  0  0  0
   -5.8460   11.7538   -7.1602 C   0  0  0  0  0  0  0  0  0  0  0  0
   -4.5819   12.3007   -6.9160 C   0  0  0  0  0  0  0  0  0  0  0  0
   -3.4335   11.5746   -7.2403 C   0  0  0  0  0  0  0  0  0  0  0  0
   -3.5461   10.3067   -7.8068 C   0  0  0  0  0  0  0  0  0  0  0  0
   -4.8068    9.7600   -8.0558 C   0  0  0  0  0  0  0  0  0  0  0  0
   -4.4568   13.6807   -6.3006 C   0  0  0  0  0  0  0  0  0  0  0  0
   -7.2839   12.9866  -11.8341 H   0  0  0  0  0  0  0  0  0  0  0  0
   -6.0750   12.2846   -9.8724 H   0  0  0  0  0  0  0  0  0  0  0  0
   -8.1843   10.1199  -13.8976 H   0  0  0  0  0  0  0  0  0  0  0  0
   -6.9067   12.2589  -14.0885 H   0  0  0  0  0  0  0  0  0  0  0  0
   -8.0380    9.5979   -7.2556 H   0  0  0  0  0  0  0  0  0  0  0  0
   -4.2095   12.8717  -10.8446 H   0  0  0  0  0  0  0  0  0  0  0  0
   -2.6189   14.5701  -10.8280 H   0  0  0  0  0  0  0  0  0  0  0  0
   -3.0927   14.8813  -12.5325 H   0  0  0  0  0  0  0  0  0  0  0  0
   -3.9729   15.6925  -11.1931 H   0  0  0  0  0  0  0  0  0  0  0  0
   -6.7345   12.3122   -6.9047 H   0  0  0  0  0  0  0  0  0  0  0  0
   -2.4573   11.9965   -7.0517 H   0  0  0  0  0  0  0  0  0  0  0  0
   -2.6569    9.7457   -8.0538 H   0  0  0  0  0  0  0  0  0  0  0  0
   -4.8589    8.8150   -7.4951 H   0  0  0  0  0  0  0  0  0  0  0  0
   -4.8535    9.5494   -9.1344 H   0  0  0  0  0  0  0  0  0  0  0  0
   -3.3931   13.9367   -6.1862 H   0  0  0  0  0  0  0  0  0  0  0  0
   -4.9432   14.4192   -6.9548 H   0  0  0  0  0  0  0  0  0  0  0  0
   -4.9436   13.6877   -5.3142 H   0  0  0  0  0  0  0  0  0  0  0  0
  1  2  1  0  0  0  0
  1  4  1  0  0  0  0
  1 13  1  0  0  0  0
  2  6  2  0  0  0  0
  3  4  2  0  0  0  0
  3  5  1  0  0  0  0
  5  6  1  0  0  0  0
  5  9  2  0  0  0  0
  6  7  1  0  0  0  0
  7  8  2  0  0  0  0
  7 10  1  0  0  0  0
  8  9  1  0  0  0  0
 10 15  2  3  0  0  0
 11 12  1  0  0  0  0
 11 13  1  0  0  0  0
 13 14  2  0  0  0  0
 15 16  1  0  0  0  0
 15 20  1  0  0  0  0
 16 17  2  0  0  0  0
 17 18  1  0  0  0  0
 17 21  1  0  0  0  0
 18 19  2  0  0  0  0
 19 20  1  0  0  0  0
  1 22  1  0  0  0  0
  2 23  1  0  0  0  0
  3 24  1  0  0  0  0
  4 25  1  0  0  0  0
 10 26  1  0  0  0  0
 11 27  1  0  0  0  0
 12 28  1  0  0  0  0
 12 29  1  0  0  0  0
 12 30  1  0  0  0  0
 16 31  1  0  0  0  0
 18 32  1  0  0  0  0
 19 33  1  0  0  0  0
 20 34  1  0  0  0  0
 20 35  1  0  0  0  0
 21 36  1  0  0  0  0
 21 37  1  0  0  0  0
 21 38  1  0  0  0  0
M  END
> <Name>
16

> <IC50[uM]>
0.17

$$$$
16
  -OEChem-05192314333D
 Structure written by MMmdl.
 38 40  0     1  0  0  0  0  0999 V2000
   -6.3886   12.3706  -12.0044 C   0  0  0  0  0  0  0  0  0  0  0  0
   -6.5217   11.8105  -10.7338 C   0  0  0  0  0  0  0  0  0  0  0  0
   -7.7267   10.5778  -13.0331 C   0  0  0  0  0  0  0  0  0  0  0  0
   -6.9997   11.7772  -13.1264 C   0  0  0  0  0  0  0  0  0  0  0  0
   -7.8245   10.0105  -11.7588 C   0  0  0  0  0  0  0  0  0  0  0  0
   -7.2447   10.6240  -10.5997 C   0  0  3  0  0  0  0  0  0  0  0  0
   -7.6157    9.7479   -9.5130 C   0  0  0  0  0  0  0  0  0  0  0  0
   -8.2818    8.7335   -9.9900 N   0  0  0  0  0  0  0  0  0  0  0  0
   -8.4155    8.8614  -11.3010 N   0  0  0  0  0  0  0  0  0  0  0  0
   -7.3377    9.8874   -8.0251 C   0  0  0  0  0  0  0  0  0  0  0  0
   -4.4115   13.6449  -11.4457 N   0  0  0  0  0  0  0  0  0  0  0  0
   -3.4644   14.7678  -11.5034 C   0  0  0  0  0  0  0  0  0  0  0  0
   -5.5490   13.6243  -12.1808 C   0  0  0  0  0  0  0  0  0  0  0  0
   -5.8784   14.5204  -12.9613 O   0  0  0  0  0  0  0  0  0  0  0  0
   -5.9596   10.4818   -7.7362 C   0  0  0  0  0  0  0  0  0  0  0  0
   -5.8460   11.7538   -7.1602 C   0  0  0  0  0  0  0  0  0  0  0  0
   -4.5819   12.3007   -6.9160 C   0  0  0  0  0  0  0  0  0  0  0  0
   -3.4335   11.5746   -7.2403 C   0  0  0  0  0  0  0  0  0  0  0  0
   -3.5461   10.3067   -7.8068 C   0  0  0  0  0  0  0  0  0  0  0  0
   -4.8068    9.7600   -8.0558 C   0  0  0  0  0  0  0  0  0  0  0  0
   -4.4568   13.6807   -6.3006 C   0  0  0  0  0  0  0  0  0  0  0  0
   -6.0750   12.2846   -9.8724 H   0  0  0  0  0  0  0  0  0  0  0  0
   -8.1843   10.1199  -13.8976 H   0  0  0  0  0  0  0  0  0  0  0  0
   -6.9067   12.2589  -14.0885 H   0  0  0  0  0  0  0  0  0  0  0  0
   -6.3227   10.0441  -10.7532 H   0  0  0  0  0  0  0  0  0  0  0  0
   -8.0380    9.5979   -7.2556 H   0  0  0  0  0  0  0  0  0  0  0  0
   -4.2095   12.8717  -10.8446 H   0  0  0  0  0  0  0  0  0  0  0  0
   -2.6189   14.5701  -10.8280 H   0  0  0  0  0  0  0  0  0  0  0  0
   -3.0927   14.8813  -12.5325 H   0  0  0  0  0  0  0  0  0  0  0  0
   -3.9729   15.6925  -11.1931 H   0  0  0  0  0  0  0  0  0  0  0  0
   -6.7345   12.3122   -6.9047 H   0  0  0  0  0  0  0  0  0  0  0  0
   -2.4573   11.9965   -7.0517 H   0  0  0  0  0  0  0  0  0  0  0  0
   -2.6569    9.7457   -8.0538 H   0  0  0  0  0  0  0  0  0  0  0  0
   -4.8589    8.8150   -7.4951 H   0  0  0  0  0  0  0  0  0  0  0  0
   -4.8535    9.5494   -9.1344 H   0  0  0  0  0  0  0  0  0  0  0  0
   -3.3931   13.9367   -6.1862 H   0  0  0  0  0  0  0  0  0  0  0  0
   -4.9432   14.4192   -6.9548 H   0  0  0  0  0  0  0  0  0  0  0  0
   -4.9436   13.6877   -5.3142 H   0  0  0  0  0  0  0  0  0  0  0  0
  1  2  2  0  0  0  0
  1  4  1  0  0  0  0
  1 13  1  0  0  0  0
  2  6  1  0  0  0  0
  3  4  2  0  0  0  0
  3  5  1  0  0  0  0
  5  6  1  0  0  0  0
  5  9  2  0  0  0  0
  6  7  1  0  0  0  0
  7  8  2  0  0  0  0
  7 10  1  0  0  0  0
  8  9  1  0  0  0  0
 10 15  2  3  0  0  0
 11 12  1  0  0  0  0
 11 13  1  0  0  0  0
 13 14  2  0  0  0  0
 15 16  1  0  0  0  0
 15 20  1  0  0  0  0
 16 17  2  0  0  0  0
 17 18  1  0  0  0  0
 17 21  1  0  0  0  0
 18 19  2  0  0  0  0
 19 20  1  0  0  0  0
  2 22  1  0  0  0  0
  3 23  1  0  0  0  0
  4 24  1  0  0  0  0
  6 25  1  0  0  0  0
 10 26  1  0  0  0  0
 11 27  1  0  0  0  0
 12 28  1  0  0  0  0
 12 29  1  0  0  0  0
 12 30  1  0  0  0  0
 16 31  1  0  0  0  0
 18 32  1  0  0  0  0
 19 33  1  0  0  0  0
 20 34  1  0  0  0  0
 20 35  1  0  0  0  0
 21 36  1  0  0  0  0
 21 37  1  0  0  0  0
 21 38  1  0  0  0  0
M  END
> <Name>
16

> <IC50[uM]>
0.17

$$$$
16
  -OEChem-05192314333D
 Structure written by MMmdl.
 38 40  0     0  0  0  0  0  0999 V2000
   -6.3886   12.3706  -12.0044 C   0  0  0  0  0  0  0  0  0  0  0  0
   -6.5217   11.8105  -10.7338 C   0  0  0  0  0  0  0  0  0  0  0  0
   -7.7267   10.5778  -13.0331 C   0  0  0  0  0  0  0  0  0  0  0  0
   -6.9997   11.7772  -13.1264 C   0  0  0  0  0  0  0  0  0  0  0  0
   -7.8245   10.0105  -11.7588 C   0  0  0  0  0  0  0  0  0  0  0  0
   -7.2447   10.6240  -10.5997 C   0  0  0  0  0  0  0  0  0  0  0  0
   -7.6157    9.7479   -9.5130 C   0  0  0  0  0  0  0  0  0  0  0  0
   -8.2818    8.7335   -9.9900 N   0  0  0  0  0  0  0  0  0  0  0  0
   -8.4155    8.8614  -11.3010 N   0  0  0  0  0  0  0  0  0  0  0  0
   -7.3377    9.8874   -8.0251 C   0  0  0  0  0  0  0  0  0  0  0  0
   -4.4115   13.6449  -11.4457 N   0  0  0  0  0  0  0  0  0  0  0  0
   -3.4644   14.7678  -11.5034 C   0  0  0  0  0  0  0  0  0  0  0  0
   -5.5490   13.6243  -12.1808 C   0  0  0  0  0  0  0  0  0  0  0  0
   -5.8784   14.5204  -12.9613 O   0  0  0  0  0  0  0  0  0  0  0  0
   -5.9596   10.4818   -7.7362 C   0  0  0  0  0  0  0  0  0  0  0  0
   -5.8460   11.7538   -7.1602 C   0  0  0  0  0  0  0  0  0  0  0  0
   -4.5819   12.3007   -6.9160 C   0  0  0  0  0  0  0  0  0  0  0  0
   -3.4335   11.5746   -7.2403 C   0  0  0  0  0  0  0  0  0  0  0  0
   -3.5461   10.3067   -7.8068 C   0  0  0  0  0  0  0  0  0  0  0  0
   -4.8068    9.7600   -8.0558 C   0  0  0  0  0  0  0  0  0  0  0  0
   -4.4568   13.6807   -6.3006 C   0  0  0  0  0  0  0  0  0  0  0  0
   -6.0750   12.2846   -9.8724 H   0  0  0  0  0  0  0  0  0  0  0  0
   -8.7478   10.7760  -13.3910 H   0  0  0  0  0  0  0  0  0  0  0  0
   -7.2438    9.8410  -13.6919 H   0  0  0  0  0  0  0  0  0  0  0  0
   -6.9067   12.2589  -14.0885 H   0  0  0  0  0  0  0  0  0  0  0  0
   -8.0380    9.5979   -7.2556 H   0  0  0  0  0  0  0  0  0  0  0  0
   -4.2095   12.8717  -10.8446 H   0  0  0  0  0  0  0  0  0  0  0  0
   -2.6189   14.5701  -10.8280 H   0  0  0  0  0  0  0  0  0  0  0  0
   -3.0927   14.8813  -12.5325 H   0  0  0  0  0  0  0  0  0  0  0  0
   -3.9729   15.6925  -11.1931 H   0  0  0  0  0  0  0  0  0  0  0  0
   -6.7345   12.3122   -6.9047 H   0  0  0  0  0  0  0  0  0  0  0  0
   -2.4573   11.9965   -7.0517 H   0  0  0  0  0  0  0  0  0  0  0  0
   -2.6569    9.7457   -8.0538 H   0  0  0  0  0  0  0  0  0  0  0  0
   -4.8589    8.8150   -7.4951 H   0  0  0  0  0  0  0  0  0  0  0  0
   -4.8535    9.5494   -9.1344 H   0  0  0  0  0  0  0  0  0  0  0  0
   -3.3931   13.9367   -6.1862 H   0  0  0  0  0  0  0  0  0  0  0  0
   -4.9432   14.4192   -6.9548 H   0  0  0  0  0  0  0  0  0  0  0  0
   -4.9436   13.6877   -5.3142 H   0  0  0  0  0  0  0  0  0  0  0  0
  1  2  1  0  0  0  0
  1  4  2  0  0  0  0
  1 13  1  0  0  0  0
  2  6  2  0  0  0  0
  3  4  1  0  0  0  0
  3  5  1  0  0  0  0
  5  6  1  0  0  0  0
  5  9  2  0  0  0  0
  6  7  1  0  0  0  0
  7  8  2  0  0  0  0
  7 10  1  0  0  0  0
  8  9  1  0  0  0  0
 10 15  2  3  0  0  0
 11 12  1  0  0  0  0
 11 13  1  0  0  0  0
 13 14  2  0  0  0  0
 15 16  1  0  0  0  0
 15 20  1  0  0  0  0
 16 17  2  0  0  0  0
 17 18  1  0  0  0  0
 17 21  1  0  0  0  0
 18 19  2  0  0  0  0
 19 20  1  0  0  0  0
  2 22  1  0  0  0  0
  3 23  1  0  0  0  0
  3 24  1  0  0  0  0
  4 25  1  0  0  0  0
 10 26  1  0  0  0  0
 11 27  1  0  0  0  0
 12 28  1  0  0  0  0
 12 29  1  0  0  0  0
 12 30  1  0  0  0  0
 16 31  1  0  0  0  0
 18 32  1  0  0  0  0
 19 33  1  0  0  0  0
 20 34  1  0  0  0  0
 20 35  1  0  0  0  0
 21 36  1  0  0  0  0
 21 37  1  0  0  0  0
 21 38  1  0  0  0  0
M  END
> <Name>
16

> <IC50[uM]>
0.17

$$$$
16
  -OEChem-05192314333D
 Structure written by MMmdl.
 38 40  0     1  0  0  0  0  0999 V2000
   -6.3886   12.3706  -12.0044 C   0  0  3  0  0  0  0  0  0  0  0  0
   -6.5217   11.8105  -10.7338 C   0  0  0  0  0  0  0  0  0  0  0  0
   -7.7267   10.5778  -13.0331 C   0  0  0  0  0  0  0  0  0  0  0  0
   -6.9997   11.7772  -13.1264 C   0  0  0  0  0  0  0  0  0  0  0  0
   -7.8245   10.0105  -11.7588 C   0  0  0  0  0  0  0  0  0  0  0  0
   -7.2447   10.6240  -10.5997 C   0  0  0  0  0  0  0  0  0  0  0  0
   -7.6157    9.7479   -9.5130 C   0  0  0  0  0  0  0  0  0  0  0  0
   -8.2818    8.7335   -9.9900 N   0  0  0  0  0  0  0  0  0  0  0  0
   -8.4155    8.8614  -11.3010 N   0  0  0  0  0  0  0  0  0  0  0  0
   -7.3377    9.8874   -8.0251 C   0  0  0  0  0  0  0  0  0  0  0  0
   -4.4115   13.6449  -11.4457 N   0  0  0  0  0  0  0  0  0  0  0  0
   -3.4644   14.7678  -11.5034 C   0  0  0  0  0  0  0  0  0  0  0  0
   -5.5490   13.6243  -12.1808 C   0  0  0  0  0  0  0  0  0  0  0  0
   -5.8784   14.5204  -12.9613 O   0  0  0  0  0  0  0  0  0  0  0  0
   -5.9596   10.4818   -7.7362 C   0  0  0  0  0  0  0  0  0  0  0  0
   -5.8460   11.7538   -7.1602 C   0  0  0  0  0  0  0  0  0  0  0  0
   -4.5819   12.3007   -6.9160 C   0  0  0  0  0  0  0  0  0  0  0  0
   -3.4335   11.5746   -7.2403 C   0  0  0  0  0  0  0  0  0  0  0  0
   -3.5461   10.3067   -7.8068 C   0  0  0  0  0  0  0  0  0  0  0  0
   -4.8068    9.7600   -8.0558 C   0  0  0  0  0  0  0  0  0  0  0  0
   -4.4568   13.6807   -6.3006 C   0  0  0  0  0  0  0  0  0  0  0  0
   -7.2839   12.9866  -11.8341 H   0  0  0  0  0  0  0  0  0  0  0  0
   -6.0750   12.2846   -9.8724 H   0  0  0  0  0  0  0  0  0  0  0  0
   -8.1843   10.1199  -13.8976 H   0  0  0  0  0  0  0  0  0  0  0  0
   -6.9067   12.2589  -14.0885 H   0  0  0  0  0  0  0  0  0  0  0  0
   -8.0380    9.5979   -7.2556 H   0  0  0  0  0  0  0  0  0  0  0  0
   -4.2095   12.8717  -10.8446 H   0  0  0  0  0  0  0  0  0  0  0  0
   -2.6189   14.5701  -10.8280 H   0  0  0  0  0  0  0  0  0  0  0  0
   -3.0927   14.8813  -12.5325 H   0  0  0  0  0  0  0  0  0  0  0  0
   -3.9729   15.6925  -11.1931 H   0  0  0  0  0  0  0  0  0  0  0  0
   -6.7345   12.3122   -6.9047 H   0  0  0  0  0  0  0  0  0  0  0  0
   -2.8594   12.1890   -7.9494 H   0  0  0  0  0  0  0  0  0  0  0  0
   -2.8596   11.4563   -6.3094 H   0  0  0  0  0  0  0  0  0  0  0  0
   -2.6569    9.7457   -8.0538 H   0  0  0  0  0  0  0  0  0  0  0  0
   -4.8908    8.7775   -8.4962 H   0  0  0  0  0  0  0  0  0  0  0  0
   -3.3931   13.9367   -6.1862 H   0  0  0  0  0  0  0  0  0  0  0  0
   -4.9432   14.4192   -6.9548 H   0  0  0  0  0  0  0  0  0  0  0  0
   -4.9436   13.6877   -5.3142 H   0  0  0  0  0  0  0  0  0  0  0  0
  1  2  1  0  0  0  0
  1  4  1  0  0  0  0
  1 13  1  0  0  0  0
  2  6  2  0  0  0  0
  3  4  2  0  0  0  0
  3  5  1  0  0  0  0
  5  6  1  0  0  0  0
  5  9  2  0  0  0  0
  6  7  1  0  0  0  0
  7  8  2  0  0  0  0
  7 10  1  0  0  0  0
  8  9  1  0  0  0  0
 10 15  2  3  0  0  0
 11 12  1  0  0  0  0
 11 13  1  0  0  0  0
 13 14  2  0  0  0  0
 15 16  1  0  0  0  0
 15 20  1  0  0  0  0
 16 17  2  0  0  0  0
 17 18  1  0  0  0  0
 17 21  1  0  0  0  0
 18 19  1  0  0  0  0
 19 20  2  0  0  0  0
  1 22  1  0  0  0  0
  2 23  1  0  0  0  0
  3 24  1  0  0  0  0
  4 25  1  0  0  0  0
 10 26  1  0  0  0  0
 11 27  1  0  0  0  0
 12 28  1  0  0  0  0
 12 29  1  0  0  0  0
 12 30  1  0  0  0  0
 16 31  1  0  0  0  0
 18 32  1  0  0  0  0
 18 33  1  0  0  0  0
 19 34  1  0  0  0  0
 20 35  1  0  0  0  0
 21 36  1  0  0  0  0
 21 37  1  0  0  0  0
 21 38  1  0  0  0  0
M  END
> <Name>
16

> <IC50[uM]>
0.17

$$$$
16
  -OEChem-05192314333D
 Structure written by MMmdl.
 38 40  0     1  0  0  0  0  0999 V2000
   -6.3886   12.3706  -12.0044 C   0  0  0  0  0  0  0  0  0  0  0  0
   -6.5217   11.8105  -10.7338 C   0  0  0  0  0  0  0  0  0  0  0  0
   -7.7267   10.5778  -13.0331 C   0  0  0  0  0  0  0  0  0  0  0  0
   -6.9997   11.7772  -13.1264 C   0  0  0  0  0  0  0  0  0  0  0  0
   -7.8245   10.0105  -11.7588 C   0  0  0  0  0  0  0  0  0  0  0  0
   -7.2447   10.6240  -10.5997 C   0  0  3  0  0  0  0  0  0  0  0  0
   -7.6157    9.7479   -9.5130 C   0  0  0  0  0  0  0  0  0  0  0  0
   -8.2818    8.7335   -9.9900 N   0  0  0  0  0  0  0  0  0  0  0  0
   -8.4155    8.8614  -11.3010 N   0  0  0  0  0  0  0  0  0  0  0  0
   -7.3377    9.8874   -8.0251 C   0  0  0  0  0  0  0  0  0  0  0  0
   -4.4115   13.6449  -11.4457 N   0  0  0  0  0  0  0  0  0  0  0  0
   -3.4644   14.7678  -11.5034 C   0  0  0  0  0  0  0  0  0  0  0  0
   -5.5490   13.6243  -12.1808 C   0  0  0  0  0  0  0  0  0  0  0  0
   -5.8784   14.5204  -12.9613 O   0  0  0  0  0  0  0  0  0  0  0  0
   -5.9596   10.4818   -7.7362 C   0  0  0  0  0  0  0  0  0  0  0  0
   -5.8460   11.7538   -7.1602 C   0  0  0  0  0  0  0  0  0  0  0  0
   -4.5819   12.3007   -6.9160 C   0  0  0  0  0  0  0  0  0  0  0  0
   -3.4335   11.5746   -7.2403 C   0  0  0  0  0  0  0  0  0  0  0  0
   -3.5461   10.3067   -7.8068 C   0  0  0  0  0  0  0  0  0  0  0  0
   -4.8068    9.7600   -8.0558 C   0  0  0  0  0  0  0  0  0  0  0  0
   -4.4568   13.6807   -6.3006 C   0  0  0  0  0  0  0  0  0  0  0  0
   -6.0750   12.2846   -9.8724 H   0  0  0  0  0  0  0  0  0  0  0  0
   -8.1843   10.1199  -13.8976 H   0  0  0  0  0  0  0  0  0  0  0  0
   -6.9067   12.2589  -14.0885 H   0  0  0  0  0  0  0  0  0  0  0  0
   -6.3227   10.0441  -10.7532 H   0  0  0  0  0  0  0  0  0  0  0  0
   -8.0380    9.5979   -7.2556 H   0  0  0  0  0  0  0  0  0  0  0  0
   -4.2095   12.8717  -10.8446 H   0  0  0  0  0  0  0  0  0  0  0  0
   -2.6189   14.5701  -10.8280 H   0  0  0  0  0  0  0  0  0  0  0  0
   -3.0927   14.8813  -12.5325 H   0  0  0  0  0  0  0  0  0  0  0  0
   -3.9729   15.6925  -11.1931 H   0  0  0  0  0  0  0  0  0  0  0  0
   -6.7345   12.3122   -6.9047 H   0  0  0  0  0  0  0  0  0  0  0  0
   -2.8594   12.1890   -7.9494 H   0  0  0  0  0  0  0  0  0  0  0  0
   -2.8596   11.4563   -6.3094 H   0  0  0  0  0  0  0  0  0  0  0  0
   -2.6569    9.7457   -8.0538 H   0  0  0  0  0  0  0  0  0  0  0  0
   -4.8908    8.7775   -8.4962 H   0  0  0  0  0  0  0  0  0  0  0  0
   -3.3931   13.9367   -6.1862 H   0  0  0  0  0  0  0  0  0  0  0  0
   -4.9432   14.4192   -6.9548 H   0  0  0  0  0  0  0  0  0  0  0  0
   -4.9436   13.6877   -5.3142 H   0  0  0  0  0  0  0  0  0  0  0  0
  1  2  2  0  0  0  0
  1  4  1  0  0  0  0
  1 13  1  0  0  0  0
  2  6  1  0  0  0  0
  3  4  2  0  0  0  0
  3  5  1  0  0  0  0
  5  6  1  0  0  0  0
  5  9  2  0  0  0  0
  6  7  1  0  0  0  0
  7  8  2  0  0  0  0
  7 10  1  0  0  0  0
  8  9  1  0  0  0  0
 10 15  2  3  0  0  0
 11 12  1  0  0  0  0
 11 13  1  0  0  0  0
 13 14  2  0  0  0  0
 15 16  1  0  0  0  0
 15 20  1  0  0  0  0
 16 17  2  0  0  0  0
 17 18  1  0  0  0  0
 17 21  1  0  0  0  0
 18 19  1  0  0  0  0
 19 20  2  0  0  0  0
  2 22  1  0  0  0  0
  3 23  1  0  0  0  0
  4 24  1  0  0  0  0
  6 25  1  0  0  0  0
 10 26  1  0  0  0  0
 11 27  1  0  0  0  0
 12 28  1  0  0  0  0
 12 29  1  0  0  0  0
 12 30  1  0  0  0  0
 16 31  1  0  0  0  0
 18 32  1  0  0  0  0
 18 33  1  0  0  0  0
 19 34  1  0  0  0  0
 20 35  1  0  0  0  0
 21 36  1  0  0  0  0
 21 37  1  0  0  0  0
 21 38  1  0  0  0  0
M  END
> <Name>
16

> <IC50[uM]>
0.17

$$$$
16
  -OEChem-05192314333D
 Structure written by MMmdl.
 38 40  0     0  0  0  0  0  0999 V2000
   -6.3886   12.3706  -12.0044 C   0  0  0  0  0  0  0  0  0  0  0  0
   -6.5217   11.8105  -10.7338 C   0  0  0  0  0  0  0  0  0  0  0  0
   -7.7267   10.5778  -13.0331 C   0  0  0  0  0  0  0  0  0  0  0  0
   -6.9997   11.7772  -13.1264 C   0  0  0  0  0  0  0  0  0  0  0  0
   -7.8245   10.0105  -11.7588 C   0  0  0  0  0  0  0  0  0  0  0  0
   -7.2447   10.6240  -10.5997 C   0  0  0  0  0  0  0  0  0  0  0  0
   -7.6157    9.7479   -9.5130 C   0  0  0  0  0  0  0  0  0  0  0  0
   -8.2818    8.7335   -9.9900 N   0  0  0  0  0  0  0  0  0  0  0  0
   -8.4155    8.8614  -11.3010 N   0  0  0  0  0  0  0  0  0  0  0  0
   -7.3377    9.8874   -8.0251 C   0  0  0  0  0  0  0  0  0  0  0  0
   -4.4115   13.6449  -11.4457 N   0  0  0  0  0  0  0  0  0  0  0  0
   -3.4644   14.7678  -11.5034 C   0  0  0  0  0  0  0  0  0  0  0  0
   -5.5490   13.6243  -12.1808 C   0  0  0  0  0  0  0  0  0  0  0  0
   -5.8784   14.5204  -12.9613 O   0  0  0  0  0  0  0  0  0  0  0  0
   -5.9596   10.4818   -7.7362 C   0  0  0  0  0  0  0  0  0  0  0  0
   -5.8460   11.7538   -7.1602 C   0  0  0  0  0  0  0  0  0  0  0  0
   -4.5819   12.3007   -6.9160 C   0  0  0  0  0  0  0  0  0  0  0  0
   -3.4335   11.5746   -7.2403 C   0  0  0  0  0  0  0  0  0  0  0  0
   -3.5461   10.3067   -7.8068 C   0  0  0  0  0  0  0  0  0  0  0  0
   -4.8068    9.7600   -8.0558 C   0  0  0  0  0  0  0  0  0  0  0  0
   -4.4568   13.6807   -6.3006 C   0  0  0  0  0  0  0  0  0  0  0  0
   -6.0750   12.2846   -9.8724 H   0  0  0  0  0  0  0  0  0  0  0  0
   -8.7478   10.7760  -13.3910 H   0  0  0  0  0  0  0  0  0  0  0  0
   -7.2438    9.8410  -13.6919 H   0  0  0  0  0  0  0  0  0  0  0  0
   -6.9067   12.2589  -14.0885 H   0  0  0  0  0  0  0  0  0  0  0  0
   -8.0380    9.5979   -7.2556 H   0  0  0  0  0  0  0  0  0  0  0  0
   -4.2095   12.8717  -10.8446 H   0  0  0  0  0  0  0  0  0  0  0  0
   -2.6189   14.5701  -10.8280 H   0  0  0  0  0  0  0  0  0  0  0  0
   -3.0927   14.8813  -12.5325 H   0  0  0  0  0  0  0  0  0  0  0  0
   -3.9729   15.6925  -11.1931 H   0  0  0  0  0  0  0  0  0  0  0  0
   -6.7345   12.3122   -6.9047 H   0  0  0  0  0  0  0  0  0  0  0  0
   -2.8594   12.1890   -7.9494 H   0  0  0  0  0  0  0  0  0  0  0  0
   -2.8596   11.4563   -6.3094 H   0  0  0  0  0  0  0  0  0  0  0  0
   -2.6569    9.7457   -8.0538 H   0  0  0  0  0  0  0  0  0  0  0  0
   -4.8908    8.7775   -8.4962 H   0  0  0  0  0  0  0  0  0  0  0  0
   -3.3931   13.9367   -6.1862 H   0  0  0  0  0  0  0  0  0  0  0  0
   -4.9432   14.4192   -6.9548 H   0  0  0  0  0  0  0  0  0  0  0  0
   -4.9436   13.6877   -5.3142 H   0  0  0  0  0  0  0  0  0  0  0  0
  1  2  1  0  0  0  0
  1  4  2  0  0  0  0
  1 13  1  0  0  0  0
  2  6  2  0  0  0  0
  3  4  1  0  0  0  0
  3  5  1  0  0  0  0
  5  6  1  0  0  0  0
  5  9  2  0  0  0  0
  6  7  1  0  0  0  0
  7  8  2  0  0  0  0
  7 10  1  0  0  0  0
  8  9  1  0  0  0  0
 10 15  2  3  0  0  0
 11 12  1  0  0  0  0
 11 13  1  0  0  0  0
 13 14  2  0  0  0  0
 15 16  1  0  0  0  0
 15 20  1  0  0  0  0
 16 17  2  0  0  0  0
 17 18  1  0  0  0  0
 17 21  1  0  0  0  0
 18 19  1  0  0  0  0
 19 20  2  0  0  0  0
  2 22  1  0  0  0  0
  3 23  1  0  0  0  0
  3 24  1  0  0  0  0
  4 25  1  0  0  0  0
 10 26  1  0  0  0  0
 11 27  1  0  0  0  0
 12 28  1  0  0  0  0
 12 29  1  0  0  0  0
 12 30  1  0  0  0  0
 16 31  1  0  0  0  0
 18 32  1  0  0  0  0
 18 33  1  0  0  0  0
 19 34  1  0  0  0  0
 20 35  1  0  0  0  0
 21 36  1  0  0  0  0
 21 37  1  0  0  0  0
 21 38  1  0  0  0  0
M  END
> <Name>
16

> <IC50[uM]>
0.17

$$$$
16
  -OEChem-05192314333D
 Structure written by MMmdl.
 38 40  0     1  0  0  0  0  0999 V2000
   -6.3886   12.3706  -12.0044 C   0  0  3  0  0  0  0  0  0  0  0  0
   -6.5217   11.8105  -10.7338 C   0  0  0  0  0  0  0  0  0  0  0  0
   -7.7267   10.5778  -13.0331 C   0  0  0  0  0  0  0  0  0  0  0  0
   -6.9997   11.7772  -13.1264 C   0  0  0  0  0  0  0  0  0  0  0  0
   -7.8245   10.0105  -11.7588 C   0  0  0  0  0  0  0  0  0  0  0  0
   -7.2447   10.6240  -10.5997 C   0  0  0  0  0  0  0  0  0  0  0  0
   -7.6157    9.7479   -9.5130 C   0  0  0  0  0  0  0  0  0  0  0  0
   -8.2818    8.7335   -9.9900 N   0  0  0  0  0  0  0  0  0  0  0  0
   -8.4155    8.8614  -11.3010 N   0  0  0  0  0  0  0  0  0  0  0  0
   -7.3377    9.8874   -8.0251 C   0  0  0  0  0  0  0  0  0  0  0  0
   -4.4115   13.6449  -11.4457 N   0  0  0  0  0  0  0  0  0  0  0  0
   -3.4644   14.7678  -11.5034 C   0  0  0  0  0  0  0  0  0  0  0  0
   -5.5490   13.6243  -12.1808 C   0  0  0  0  0  0  0  0  0  0  0  0
   -5.8784   14.5204  -12.9613 O   0  0  0  0  0  0  0  0  0  0  0  0
   -5.9596   10.4818   -7.7362 C   0  0  0  0  0  0  0  0  0  0  0  0
   -5.8460   11.7538   -7.1602 C   0  0  0  0  0  0  0  0  0  0  0  0
   -4.5819   12.3007   -6.9160 C   0  0  0  0  0  0  0  0  0  0  0  0
   -3.4335   11.5746   -7.2403 C   0  0  0  0  0  0  0  0  0  0  0  0
   -3.5461   10.3067   -7.8068 C   0  0  0  0  0  0  0  0  0  0  0  0
   -4.8068    9.7600   -8.0558 C   0  0  0  0  0  0  0  0  0  0  0  0
   -4.4568   13.6807   -6.3006 C   0  0  0  0  0  0  0  0  0  0  0  0
   -7.2839   12.9866  -11.8341 H   0  0  0  0  0  0  0  0  0  0  0  0
   -6.0750   12.2846   -9.8724 H   0  0  0  0  0  0  0  0  0  0  0  0
   -8.1843   10.1199  -13.8976 H   0  0  0  0  0  0  0  0  0  0  0  0
   -6.9067   12.2589  -14.0885 H   0  0  0  0  0  0  0  0  0  0  0  0
   -8.0380    9.5979   -7.2556 H   0  0  0  0  0  0  0  0  0  0  0  0
   -4.2095   12.8717  -10.8446 H   0  0  0  0  0  0  0  0  0  0  0  0
   -2.6189   14.5701  -10.8280 H   0  0  0  0  0  0  0  0  0  0  0  0
   -3.0927   14.8813  -12.5325 H   0  0  0  0  0  0  0  0  0  0  0  0
   -3.9729   15.6925  -11.1931 H   0  0  0  0  0  0  0  0  0  0  0  0
   -6.3708   12.4528   -7.8280 H   0  0  0  0  0  0  0  0  0  0  0  0
   -6.3661   11.7115   -6.1919 H   0  0  0  0  0  0  0  0  0  0  0  0
   -2.4573   11.9965   -7.0517 H   0  0  0  0  0  0  0  0  0  0  0  0
   -2.6569    9.7457   -8.0538 H   0  0  0  0  0  0  0  0  0  0  0  0
   -4.8908    8.7775   -8.4962 H   0  0  0  0  0  0  0  0  0  0  0  0
   -3.3931   13.9367   -6.1862 H   0  0  0  0  0  0  0  0  0  0  0  0
   -4.9432   14.4192   -6.9548 H   0  0  0  0  0  0  0  0  0  0  0  0
   -4.9436   13.6877   -5.3142 H   0  0  0  0  0  0  0  0  0  0  0  0
  1  2  1  0  0  0  0
  1  4  1  0  0  0  0
  1 13  1  0  0  0  0
  2  6  2  0  0  0  0
  3  4  2  0  0  0  0
  3  5  1  0  0  0  0
  5  6  1  0  0  0  0
  5  9  2  0  0  0  0
  6  7  1  0  0  0  0
  7  8  2  0  0  0  0
  7 10  1  0  0  0  0
  8  9  1  0  0  0  0
 10 15  2  3  0  0  0
 11 12  1  0  0  0  0
 11 13  1  0  0  0  0
 13 14  2  0  0  0  0
 15 16  1  0  0  0  0
 15 20  1  0  0  0  0
 16 17  1  0  0  0  0
 17 18  2  0  0  0  0
 17 21  1  0  0  0  0
 18 19  1  0  0  0  0
 19 20  2  0  0  0  0
  1 22  1  0  0  0  0
  2 23  1  0  0  0  0
  3 24  1  0  0  0  0
  4 25  1  0  0  0  0
 10 26  1  0  0  0  0
 11 27  1  0  0  0  0
 12 28  1  0  0  0  0
 12 29  1  0  0  0  0
 12 30  1  0  0  0  0
 16 31  1  0  0  0  0
 16 32  1  0  0  0  0
 18 33  1  0  0  0  0
 19 34  1  0  0  0  0
 20 35  1  0  0  0  0
 21 36  1  0  0  0  0
 21 37  1  0  0  0  0
 21 38  1  0  0  0  0
M  END
> <Name>
16

> <IC50[uM]>
0.17

$$$$
16
  -OEChem-05192314333D
 Structure written by MMmdl.
 38 40  0     1  0  0  0  0  0999 V2000
   -6.3886   12.3706  -12.0044 C   0  0  0  0  0  0  0  0  0  0  0  0
   -6.5217   11.8105  -10.7338 C   0  0  0  0  0  0  0  0  0  0  0  0
   -7.7267   10.5778  -13.0331 C   0  0  0  0  0  0  0  0  0  0  0  0
   -6.9997   11.7772  -13.1264 C   0  0  0  0  0  0  0  0  0  0  0  0
   -7.8245   10.0105  -11.7588 C   0  0  0  0  0  0  0  0  0  0  0  0
   -7.2447   10.6240  -10.5997 C   0  0  3  0  0  0  0  0  0  0  0  0
   -7.6157    9.7479   -9.5130 C   0  0  0  0  0  0  0  0  0  0  0  0
   -8.2818    8.7335   -9.9900 N   0  0  0  0  0  0  0  0  0  0  0  0
   -8.4155    8.8614  -11.3010 N   0  0  0  0  0  0  0  0  0  0  0  0
   -7.3377    9.8874   -8.0251 C   0  0  0  0  0  0  0  0  0  0  0  0
   -4.4115   13.6449  -11.4457 N   0  0  0  0  0  0  0  0  0  0  0  0
   -3.4644   14.7678  -11.5034 C   0  0  0  0  0  0  0  0  0  0  0  0
   -5.5490   13.6243  -12.1808 C   0  0  0  0  0  0  0  0  0  0  0  0
   -5.8784   14.5204  -12.9613 O   0  0  0  0  0  0  0  0  0  0  0  0
   -5.9596   10.4818   -7.7362 C   0  0  0  0  0  0  0  0  0  0  0  0
   -5.8460   11.7538   -7.1602 C   0  0  0  0  0  0  0  0  0  0  0  0
   -4.5819   12.3007   -6.9160 C   0  0  0  0  0  0  0  0  0  0  0  0
   -3.4335   11.5746   -7.2403 C   0  0  0  0  0  0  0  0  0  0  0  0
   -3.5461   10.3067   -7.8068 C   0  0  0  0  0  0  0  0  0  0  0  0
   -4.8068    9.7600   -8.0558 C   0  0  0  0  0  0  0  0  0  0  0  0
   -4.4568   13.6807   -6.3006 C   0  0  0  0  0  0  0  0  0  0  0  0
   -6.0750   12.2846   -9.8724 H   0  0  0  0  0  0  0  0  0  0  0  0
   -8.1843   10.1199  -13.8976 H   0  0  0  0  0  0  0  0  0  0  0  0
   -6.9067   12.2589  -14.0885 H   0  0  0  0  0  0  0  0  0  0  0  0
   -6.3227   10.0441  -10.7532 H   0  0  0  0  0  0  0  0  0  0  0  0
   -8.0380    9.5979   -7.2556 H   0  0  0  0  0  0  0  0  0  0  0  0
   -4.2095   12.8717  -10.8446 H   0  0  0  0  0  0  0  0  0  0  0  0
   -2.6189   14.5701  -10.8280 H   0  0  0  0  0  0  0  0  0  0  0  0
   -3.0927   14.8813  -12.5325 H   0  0  0  0  0  0  0  0  0  0  0  0
   -3.9729   15.6925  -11.1931 H   0  0  0  0  0  0  0  0  0  0  0  0
   -6.3708   12.4528   -7.8280 H   0  0  0  0  0  0  0  0  0  0  0  0
   -6.3661   11.7115   -6.1919 H   0  0  0  0  0  0  0  0  0  0  0  0
   -2.4573   11.9965   -7.0517 H   0  0  0  0  0  0  0  0  0  0  0  0
   -2.6569    9.7457   -8.0538 H   0  0  0  0  0  0  0  0  0  0  0  0
   -4.8908    8.7775   -8.4962 H   0  0  0  0  0  0  0  0  0  0  0  0
   -3.3931   13.9367   -6.1862 H   0  0  0  0  0  0  0  0  0  0  0  0
   -4.9432   14.4192   -6.9548 H   0  0  0  0  0  0  0  0  0  0  0  0
   -4.9436   13.6877   -5.3142 H   0  0  0  0  0  0  0  0  0  0  0  0
  1  2  2  0  0  0  0
  1  4  1  0  0  0  0
  1 13  1  0  0  0  0
  2  6  1  0  0  0  0
  3  4  2  0  0  0  0
  3  5  1  0  0  0  0
  5  6  1  0  0  0  0
  5  9  2  0  0  0  0
  6  7  1  0  0  0  0
  7  8  2  0  0  0  0
  7 10  1  0  0  0  0
  8  9  1  0  0  0  0
 10 15  2  3  0  0  0
 11 12  1  0  0  0  0
 11 13  1  0  0  0  0
 13 14  2  0  0  0  0
 15 16  1  0  0  0  0
 15 20  1  0  0  0  0
 16 17  1  0  0  0  0
 17 18  2  0  0  0  0
 17 21  1  0  0  0  0
 18 19  1  0  0  0  0
 19 20  2  0  0  0  0
  2 22  1  0  0  0  0
  3 23  1  0  0  0  0
  4 24  1  0  0  0  0
  6 25  1  0  0  0  0
 10 26  1  0  0  0  0
 11 27  1  0  0  0  0
 12 28  1  0  0  0  0
 12 29  1  0  0  0  0
 12 30  1  0  0  0  0
 16 31  1  0  0  0  0
 16 32  1  0  0  0  0
 18 33  1  0  0  0  0
 19 34  1  0  0  0  0
 20 35  1  0  0  0  0
 21 36  1  0  0  0  0
 21 37  1  0  0  0  0
 21 38  1  0  0  0  0
M  END
> <Name>
16

> <IC50[uM]>
0.17

$$$$
16
  -OEChem-05192314333D
 Structure written by MMmdl.
 38 40  0     0  0  0  0  0  0999 V2000
   -6.3886   12.3706  -12.0044 C   0  0  0  0  0  0  0  0  0  0  0  0
   -6.5217   11.8105  -10.7338 C   0  0  0  0  0  0  0  0  0  0  0  0
   -7.7267   10.5778  -13.0331 C   0  0  0  0  0  0  0  0  0  0  0  0
   -6.9997   11.7772  -13.1264 C   0  0  0  0  0  0  0  0  0  0  0  0
   -7.8245   10.0105  -11.7588 C   0  0  0  0  0  0  0  0  0  0  0  0
   -7.2447   10.6240  -10.5997 C   0  0  0  0  0  0  0  0  0  0  0  0
   -7.6157    9.7479   -9.5130 C   0  0  0  0  0  0  0  0  0  0  0  0
   -8.2818    8.7335   -9.9900 N   0  0  0  0  0  0  0  0  0  0  0  0
   -8.4155    8.8614  -11.3010 N   0  0  0  0  0  0  0  0  0  0  0  0
   -7.3377    9.8874   -8.0251 C   0  0  0  0  0  0  0  0  0  0  0  0
   -4.4115   13.6449  -11.4457 N   0  0  0  0  0  0  0  0  0  0  0  0
   -3.4644   14.7678  -11.5034 C   0  0  0  0  0  0  0  0  0  0  0  0
   -5.5490   13.6243  -12.1808 C   0  0  0  0  0  0  0  0  0  0  0  0
   -5.8784   14.5204  -12.9613 O   0  0  0  0  0  0  0  0  0  0  0  0
   -5.9596   10.4818   -7.7362 C   0  0  0  0  0  0  0  0  0  0  0  0
   -5.8460   11.7538   -7.1602 C   0  0  0  0  0  0  0  0  0  0  0  0
   -4.5819   12.3007   -6.9160 C   0  0  0  0  0  0  0  0  0  0  0  0
   -3.4335   11.5746   -7.2403 C   0  0  0  0  0  0  0  0  0  0  0  0
   -3.5461   10.3067   -7.8068 C   0  0  0  0  0  0  0  0  0  0  0  0
   -4.8068    9.7600   -8.0558 C   0  0  0  0  0  0  0  0  0  0  0  0
   -4.4568   13.6807   -6.3006 C   0  0  0  0  0  0  0  0  0  0  0  0
   -6.0750   12.2846   -9.8724 H   0  0  0  0  0  0  0  0  0  0  0  0
   -8.7478   10.7760  -13.3910 H   0  0  0  0  0  0  0  0  0  0  0  0
   -7.2438    9.8410  -13.6919 H   0  0  0  0  0  0  0  0  0  0  0  0
   -6.9067   12.2589  -14.0885 H   0  0  0  0  0  0  0  0  0  0  0  0
   -8.0380    9.5979   -7.2556 H   0  0  0  0  0  0  0  0  0  0  0  0
   -4.2095   12.8717  -10.8446 H   0  0  0  0  0  0  0  0  0  0  0  0
   -2.6189   14.5701  -10.8280 H   0  0  0  0  0  0  0  0  0  0  0  0
   -3.0927   14.8813  -12.5325 H   0  0  0  0  0  0  0  0  0  0  0  0
   -3.9729   15.6925  -11.1931 H   0  0  0  0  0  0  0  0  0  0  0  0
   -6.3708   12.4528   -7.8280 H   0  0  0  0  0  0  0  0  0  0  0  0
   -6.3661   11.7115   -6.1919 H   0  0  0  0  0  0  0  0  0  0  0  0
   -2.4573   11.9965   -7.0517 H   0  0  0  0  0  0  0  0  0  0  0  0
   -2.6569    9.7457   -8.0538 H   0  0  0  0  0  0  0  0  0  0  0  0
   -4.8908    8.7775   -8.4962 H   0  0  0  0  0  0  0  0  0  0  0  0
   -3.3931   13.9367   -6.1862 H   0  0  0  0  0  0  0  0  0  0  0  0
   -4.9432   14.4192   -6.9548 H   0  0  0  0  0  0  0  0  0  0  0  0
   -4.9436   13.6877   -5.3142 H   0  0  0  0  0  0  0  0  0  0  0  0
  1  2  1  0  0  0  0
  1  4  2  0  0  0  0
  1 13  1  0  0  0  0
  2  6  2  0  0  0  0
  3  4  1  0  0  0  0
  3  5  1  0  0  0  0
  5  6  1  0  0  0  0
  5  9  2  0  0  0  0
  6  7  1  0  0  0  0
  7  8  2  0  0  0  0
  7 10  1  0  0  0  0
  8  9  1  0  0  0  0
 10 15  2  3  0  0  0
 11 12  1  0  0  0  0
 11 13  1  0  0  0  0
 13 14  2  0  0  0  0
 15 16  1  0  0  0  0
 15 20  1  0  0  0  0
 16 17  1  0  0  0  0
 17 18  2  0  0  0  0
 17 21  1  0  0  0  0
 18 19  1  0  0  0  0
 19 20  2  0  0  0  0
  2 22  1  0  0  0  0
  3 23  1  0  0  0  0
  3 24  1  0  0  0  0
  4 25  1  0  0  0  0
 10 26  1  0  0  0  0
 11 27  1  0  0  0  0
 12 28  1  0  0  0  0
 12 29  1  0  0  0  0
 12 30  1  0  0  0  0
 16 31  1  0  0  0  0
 16 32  1  0  0  0  0
 18 33  1  0  0  0  0
 19 34  1  0  0  0  0
 20 35  1  0  0  0  0
 21 36  1  0  0  0  0
 21 37  1  0  0  0  0
 21 38  1  0  0  0  0
M  END
> <Name>
16

> <IC50[uM]>
0.17

$$$$
16
  -OEChem-05192314333D
 Structure written by MMmdl.
 38 40  0     1  0  0  0  0  0999 V2000
   -6.3886   12.3706  -12.0044 C   0  0  3  0  0  0  0  0  0  0  0  0
   -6.5217   11.8105  -10.7338 C   0  0  0  0  0  0  0  0  0  0  0  0
   -7.7267   10.5778  -13.0331 C   0  0  0  0  0  0  0  0  0  0  0  0
   -6.9997   11.7772  -13.1264 C   0  0  0  0  0  0  0  0  0  0  0  0
   -7.8245   10.0105  -11.7588 C   0  0  0  0  0  0  0  0  0  0  0  0
   -7.2447   10.6240  -10.5997 C   0  0  0  0  0  0  0  0  0  0  0  0
   -7.6157    9.7479   -9.5130 C   0  0  0  0  0  0  0  0  0  0  0  0
   -8.2818    8.7335   -9.9900 N   0  0  0  0  0  0  0  0  0  0  0  0
   -8.4155    8.8614  -11.3010 N   0  0  0  0  0  0  0  0  0  0  0  0
   -7.3377    9.8874   -8.0251 C   0  0  0  0  0  0  0  0  0  0  0  0
   -4.4115   13.6449  -11.4457 N   0  0  0  0  0  0  0  0  0  0  0  0
   -3.4644   14.7678  -11.5034 C   0  0  0  0  0  0  0  0  0  0  0  0
   -5.5490   13.6243  -12.1808 C   0  0  0  0  0  0  0  0  0  0  0  0
   -5.8784   14.5204  -12.9613 O   0  0  0  0  0  0  0  0  0  0  0  0
   -5.9596   10.4818   -7.7362 C   0  0  0  0  0  0  0  0  0  0  0  0
   -5.8460   11.7538   -7.1602 C   0  0  0  0  0  0  0  0  0  0  0  0
   -4.5819   12.3007   -6.9160 C   0  0  0  0  0  0  0  0  0  0  0  0
   -3.4335   11.5746   -7.2403 C   0  0  0  0  0  0  0  0  0  0  0  0
   -3.5461   10.3067   -7.8068 C   0  0  0  0  0  0  0  0  0  0  0  0
   -4.8068    9.7600   -8.0558 C   0  0  0  0  0  0  0  0  0  0  0  0
   -4.4568   13.6807   -6.3006 C   0  0  0  0  0  0  0  0  0  0  0  0
   -7.2839   12.9866  -11.8341 H   0  0  0  0  0  0  0  0  0  0  0  0
   -6.0750   12.2846   -9.8724 H   0  0  0  0  0  0  0  0  0  0  0  0
   -8.1843   10.1199  -13.8976 H   0  0  0  0  0  0  0  0  0  0  0  0
   -6.9067   12.2589  -14.0885 H   0  0  0  0  0  0  0  0  0  0  0  0
   -8.0380    9.5979   -7.2556 H   0  0  0  0  0  0  0  0  0  0  0  0
   -2.6189   14.5701  -10.8280 H   0  0  0  0  0  0  0  0  0  0  0  0
   -3.0927   14.8813  -12.5325 H   0  0  0  0  0  0  0  0  0  0  0  0
   -3.9729   15.6925  -11.1931 H   0  0  0  0  0  0  0  0  0  0  0  0
   -5.2336   15.2175  -12.9341 H   0  0  0  0  0  0  0  0  0  0  0  0
   -6.7345   12.3122   -6.9047 H   0  0  0  0  0  0  0  0  0  0  0  0
   -2.4573   11.9965   -7.0517 H   0  0  0  0  0  0  0  0  0  0  0  0
   -2.6569    9.7457   -8.0538 H   0  0  0  0  0  0  0  0  0  0  0  0
   -4.8589    8.8150   -7.4951 H   0  0  0  0  0  0  0  0  0  0  0  0
   -4.8535    9.5494   -9.1344 H   0  0  0  0  0  0  0  0  0  0  0  0
   -3.3931   13.9367   -6.1862 H   0  0  0  0  0  0  0  0  0  0  0  0
   -4.9432   14.4192   -6.9548 H   0  0  0  0  0  0  0  0  0  0  0  0
   -4.9436   13.6877   -5.3142 H   0  0  0  0  0  0  0  0  0  0  0  0
  1  2  1  0  0  0  0
  1  4  1  0  0  0  0
  1 13  1  0  0  0  0
  2  6  2  0  0  0  0
  3  4  2  0  0  0  0
  3  5  1  0  0  0  0
  5  6  1  0  0  0  0
  5  9  2  0  0  0  0
  6  7  1  0  0  0  0
  7  8  2  0  0  0  0
  7 10  1  0  0  0  0
  8  9  1  0  0  0  0
 10 15  2  3  0  0  0
 11 12  1  0  0  0  0
 11 13  2  0  0  0  0
 13 14  1  0  0  0  0
 15 16  1  0  0  0  0
 15 20  1  0  0  0  0
 16 17  2  0  0  0  0
 17 18  1  0  0  0  0
 17 21  1  0  0  0  0
 18 19  2  0  0  0  0
 19 20  1  0  0  0  0
  1 22  1  0  0  0  0
  2 23  1  0  0  0  0
  3 24  1  0  0  0  0
  4 25  1  0  0  0  0
 10 26  1  0  0  0  0
 12 27  1  0  0  0  0
 12 28  1  0  0  0  0
 12 29  1  0  0  0  0
 14 30  1  0  0  0  0
 16 31  1  0  0  0  0
 18 32  1  0  0  0  0
 19 33  1  0  0  0  0
 20 34  1  0  0  0  0
 20 35  1  0  0  0  0
 21 36  1  0  0  0  0
 21 37  1  0  0  0  0
 21 38  1  0  0  0  0
M  END
> <Name>
16

> <IC50[uM]>
0.17

$$$$
16
  -OEChem-05192314333D
 Structure written by MMmdl.
 38 40  0     1  0  0  0  0  0999 V2000
   -6.3886   12.3706  -12.0044 C   0  0  0  0  0  0  0  0  0  0  0  0
   -6.5217   11.8105  -10.7338 C   0  0  0  0  0  0  0  0  0  0  0  0
   -7.7267   10.5778  -13.0331 C   0  0  0  0  0  0  0  0  0  0  0  0
   -6.9997   11.7772  -13.1264 C   0  0  0  0  0  0  0  0  0  0  0  0
   -7.8245   10.0105  -11.7588 C   0  0  0  0  0  0  0  0  0  0  0  0
   -7.2447   10.6240  -10.5997 C   0  0  3  0  0  0  0  0  0  0  0  0
   -7.6157    9.7479   -9.5130 C   0  0  0  0  0  0  0  0  0  0  0  0
   -8.2818    8.7335   -9.9900 N   0  0  0  0  0  0  0  0  0  0  0  0
   -8.4155    8.8614  -11.3010 N   0  0  0  0  0  0  0  0  0  0  0  0
   -7.3377    9.8874   -8.0251 C   0  0  0  0  0  0  0  0  0  0  0  0
   -4.4115   13.6449  -11.4457 N   0  0  0  0  0  0  0  0  0  0  0  0
   -3.4644   14.7678  -11.5034 C   0  0  0  0  0  0  0  0  0  0  0  0
   -5.5490   13.6243  -12.1808 C   0  0  0  0  0  0  0  0  0  0  0  0
   -5.8784   14.5204  -12.9613 O   0  0  0  0  0  0  0  0  0  0  0  0
   -5.9596   10.4818   -7.7362 C   0  0  0  0  0  0  0  0  0  0  0  0
   -5.8460   11.7538   -7.1602 C   0  0  0  0  0  0  0  0  0  0  0  0
   -4.5819   12.3007   -6.9160 C   0  0  0  0  0  0  0  0  0  0  0  0
   -3.4335   11.5746   -7.2403 C   0  0  0  0  0  0  0  0  0  0  0  0
   -3.5461   10.3067   -7.8068 C   0  0  0  0  0  0  0  0  0  0  0  0
   -4.8068    9.7600   -8.0558 C   0  0  0  0  0  0  0  0  0  0  0  0
   -4.4568   13.6807   -6.3006 C   0  0  0  0  0  0  0  0  0  0  0  0
   -6.0750   12.2846   -9.8724 H   0  0  0  0  0  0  0  0  0  0  0  0
   -8.1843   10.1199  -13.8976 H   0  0  0  0  0  0  0  0  0  0  0  0
   -6.9067   12.2589  -14.0885 H   0  0  0  0  0  0  0  0  0  0  0  0
   -6.3227   10.0441  -10.7532 H   0  0  0  0  0  0  0  0  0  0  0  0
   -8.0380    9.5979   -7.2556 H   0  0  0  0  0  0  0  0  0  0  0  0
   -2.6189   14.5701  -10.8280 H   0  0  0  0  0  0  0  0  0  0  0  0
   -3.0927   14.8813  -12.5325 H   0  0  0  0  0  0  0  0  0  0  0  0
   -3.9729   15.6925  -11.1931 H   0  0  0  0  0  0  0  0  0  0  0  0
   -5.2336   15.2175  -12.9341 H   0  0  0  0  0  0  0  0  0  0  0  0
   -6.7345   12.3122   -6.9047 H   0  0  0  0  0  0  0  0  0  0  0  0
   -2.4573   11.9965   -7.0517 H   0  0  0  0  0  0  0  0  0  0  0  0
   -2.6569    9.7457   -8.0538 H   0  0  0  0  0  0  0  0  0  0  0  0
   -4.8589    8.8150   -7.4951 H   0  0  0  0  0  0  0  0  0  0  0  0
   -4.8535    9.5494   -9.1344 H   0  0  0  0  0  0  0  0  0  0  0  0
   -3.3931   13.9367   -6.1862 H   0  0  0  0  0  0  0  0  0  0  0  0
   -4.9432   14.4192   -6.9548 H   0  0  0  0  0  0  0  0  0  0  0  0
   -4.9436   13.6877   -5.3142 H   0  0  0  0  0  0  0  0  0  0  0  0
  1  2  2  0  0  0  0
  1  4  1  0  0  0  0
  1 13  1  0  0  0  0
  2  6  1  0  0  0  0
  3  4  2  0  0  0  0
  3  5  1  0  0  0  0
  5  6  1  0  0  0  0
  5  9  2  0  0  0  0
  6  7  1  0  0  0  0
  7  8  2  0  0  0  0
  7 10  1  0  0  0  0
  8  9  1  0  0  0  0
 10 15  2  3  0  0  0
 11 12  1  0  0  0  0
 11 13  2  0  0  0  0
 13 14  1  0  0  0  0
 15 16  1  0  0  0  0
 15 20  1  0  0  0  0
 16 17  2  0  0  0  0
 17 18  1  0  0  0  0
 17 21  1  0  0  0  0
 18 19  2  0  0  0  0
 19 20  1  0  0  0  0
  2 22  1  0  0  0  0
  3 23  1  0  0  0  0
  4 24  1  0  0  0  0
  6 25  1  0  0  0  0
 10 26  1  0  0  0  0
 12 27  1  0  0  0  0
 12 28  1  0  0  0  0
 12 29  1  0  0  0  0
 14 30  1  0  0  0  0
 16 31  1  0  0  0  0
 18 32  1  0  0  0  0
 19 33  1  0  0  0  0
 20 34  1  0  0  0  0
 20 35  1  0  0  0  0
 21 36  1  0  0  0  0
 21 37  1  0  0  0  0
 21 38  1  0  0  0  0
M  END
> <Name>
16

> <IC50[uM]>
0.17

$$$$
16
  -OEChem-05192314333D
 Structure written by MMmdl.
 38 40  0     0  0  0  0  0  0999 V2000
   -6.3886   12.3706  -12.0044 C   0  0  0  0  0  0  0  0  0  0  0  0
   -6.5217   11.8105  -10.7338 C   0  0  0  0  0  0  0  0  0  0  0  0
   -7.7267   10.5778  -13.0331 C   0  0  0  0  0  0  0  0  0  0  0  0
   -6.9997   11.7772  -13.1264 C   0  0  0  0  0  0  0  0  0  0  0  0
   -7.8245   10.0105  -11.7588 C   0  0  0  0  0  0  0  0  0  0  0  0
   -7.2447   10.6240  -10.5997 C   0  0  0  0  0  0  0  0  0  0  0  0
   -7.6157    9.7479   -9.5130 C   0  0  0  0  0  0  0  0  0  0  0  0
   -8.2818    8.7335   -9.9900 N   0  0  0  0  0  0  0  0  0  0  0  0
   -8.4155    8.8614  -11.3010 N   0  0  0  0  0  0  0  0  0  0  0  0
   -7.3377    9.8874   -8.0251 C   0  0  0  0  0  0  0  0  0  0  0  0
   -4.4115   13.6449  -11.4457 N   0  0  0  0  0  0  0  0  0  0  0  0
   -3.4644   14.7678  -11.5034 C   0  0  0  0  0  0  0  0  0  0  0  0
   -5.5490   13.6243  -12.1808 C   0  0  0  0  0  0  0  0  0  0  0  0
   -5.8784   14.5204  -12.9613 O   0  0  0  0  0  0  0  0  0  0  0  0
   -5.9596   10.4818   -7.7362 C   0  0  0  0  0  0  0  0  0  0  0  0
   -5.8460   11.7538   -7.1602 C   0  0  0  0  0  0  0  0  0  0  0  0
   -4.5819   12.3007   -6.9160 C   0  0  0  0  0  0  0  0  0  0  0  0
   -3.4335   11.5746   -7.2403 C   0  0  0  0  0  0  0  0  0  0  0  0
   -3.5461   10.3067   -7.8068 C   0  0  0  0  0  0  0  0  0  0  0  0
   -4.8068    9.7600   -8.0558 C   0  0  0  0  0  0  0  0  0  0  0  0
   -4.4568   13.6807   -6.3006 C   0  0  0  0  0  0  0  0  0  0  0  0
   -6.0750   12.2846   -9.8724 H   0  0  0  0  0  0  0  0  0  0  0  0
   -8.7478   10.7760  -13.3910 H   0  0  0  0  0  0  0  0  0  0  0  0
   -7.2438    9.8410  -13.6919 H   0  0  0  0  0  0  0  0  0  0  0  0
   -6.9067   12.2589  -14.0885 H   0  0  0  0  0  0  0  0  0  0  0  0
   -8.0380    9.5979   -7.2556 H   0  0  0  0  0  0  0  0  0  0  0  0
   -2.6189   14.5701  -10.8280 H   0  0  0  0  0  0  0  0  0  0  0  0
   -3.0927   14.8813  -12.5325 H   0  0  0  0  0  0  0  0  0  0  0  0
   -3.9729   15.6925  -11.1931 H   0  0  0  0  0  0  0  0  0  0  0  0
   -5.2336   15.2175  -12.9341 H   0  0  0  0  0  0  0  0  0  0  0  0
   -6.7345   12.3122   -6.9047 H   0  0  0  0  0  0  0  0  0  0  0  0
   -2.4573   11.9965   -7.0517 H   0  0  0  0  0  0  0  0  0  0  0  0
   -2.6569    9.7457   -8.0538 H   0  0  0  0  0  0  0  0  0  0  0  0
   -4.8589    8.8150   -7.4951 H   0  0  0  0  0  0  0  0  0  0  0  0
   -4.8535    9.5494   -9.1344 H   0  0  0  0  0  0  0  0  0  0  0  0
   -3.3931   13.9367   -6.1862 H   0  0  0  0  0  0  0  0  0  0  0  0
   -4.9432   14.4192   -6.9548 H   0  0  0  0  0  0  0  0  0  0  0  0
   -4.9436   13.6877   -5.3142 H   0  0  0  0  0  0  0  0  0  0  0  0
  1  2  1  0  0  0  0
  1  4  2  0  0  0  0
  1 13  1  0  0  0  0
  2  6  2  0  0  0  0
  3  4  1  0  0  0  0
  3  5  1  0  0  0  0
  5  6  1  0  0  0  0
  5  9  2  0  0  0  0
  6  7  1  0  0  0  0
  7  8  2  0  0  0  0
  7 10  1  0  0  0  0
  8  9  1  0  0  0  0
 10 15  2  3  0  0  0
 11 12  1  0  0  0  0
 11 13  2  0  0  0  0
 13 14  1  0  0  0  0
 15 16  1  0  0  0  0
 15 20  1  0  0  0  0
 16 17  2  0  0  0  0
 17 18  1  0  0  0  0
 17 21  1  0  0  0  0
 18 19  2  0  0  0  0
 19 20  1  0  0  0  0
  2 22  1  0  0  0  0
  3 23  1  0  0  0  0
  3 24  1  0  0  0  0
  4 25  1  0  0  0  0
 10 26  1  0  0  0  0
 12 27  1  0  0  0  0
 12 28  1  0  0  0  0
 12 29  1  0  0  0  0
 14 30  1  0  0  0  0
 16 31  1  0  0  0  0
 18 32  1  0  0  0  0
 19 33  1  0  0  0  0
 20 34  1  0  0  0  0
 20 35  1  0  0  0  0
 21 36  1  0  0  0  0
 21 37  1  0  0  0  0
 21 38  1  0  0  0  0
M  END
> <Name>
16

> <IC50[uM]>
0.17

$$$$
16
  -OEChem-05192314333D
 Structure written by MMmdl.
 38 40  0     1  0  0  0  0  0999 V2000
   -6.3886   12.3706  -12.0044 C   0  0  3  0  0  0  0  0  0  0  0  0
   -6.5217   11.8105  -10.7338 C   0  0  0  0  0  0  0  0  0  0  0  0
   -7.7267   10.5778  -13.0331 C   0  0  0  0  0  0  0  0  0  0  0  0
   -6.9997   11.7772  -13.1264 C   0  0  0  0  0  0  0  0  0  0  0  0
   -7.8245   10.0105  -11.7588 C   0  0  0  0  0  0  0  0  0  0  0  0
   -7.2447   10.6240  -10.5997 C   0  0  0  0  0  0  0  0  0  0  0  0
   -7.6157    9.7479   -9.5130 C   0  0  0  0  0  0  0  0  0  0  0  0
   -8.2818    8.7335   -9.9900 N   0  0  0  0  0  0  0  0  0  0  0  0
   -8.4155    8.8614  -11.3010 N   0  0  0  0  0  0  0  0  0  0  0  0
   -7.3377    9.8874   -8.0251 C   0  0  0  0  0  0  0  0  0  0  0  0
   -4.4115   13.6449  -11.4457 N   0  0  0  0  0  0  0  0  0  0  0  0
   -3.4644   14.7678  -11.5034 C   0  0  0  0  0  0  0  0  0  0  0  0
   -5.5490   13.6243  -12.1808 C   0  0  0  0  0  0  0  0  0  0  0  0
   -5.8784   14.5204  -12.9613 O   0  0  0  0  0  0  0  0  0  0  0  0
   -5.9596   10.4818   -7.7362 C   0  0  0  0  0  0  0  0  0  0  0  0
   -5.8460   11.7538   -7.1602 C   0  0  0  0  0  0  0  0  0  0  0  0
   -4.5819   12.3007   -6.9160 C   0  0  0  0  0  0  0  0  0  0  0  0
   -3.4335   11.5746   -7.2403 C   0  0  0  0  0  0  0  0  0  0  0  0
   -3.5461   10.3067   -7.8068 C   0  0  0  0  0  0  0  0  0  0  0  0
   -4.8068    9.7600   -8.0558 C   0  0  0  0  0  0  0  0  0  0  0  0
   -4.4568   13.6807   -6.3006 C   0  0  0  0  0  0  0  0  0  0  0  0
   -7.2839   12.9866  -11.8341 H   0  0  0  0  0  0  0  0  0  0  0  0
   -6.0750   12.2846   -9.8724 H   0  0  0  0  0  0  0  0  0  0  0  0
   -8.1843   10.1199  -13.8976 H   0  0  0  0  0  0  0  0  0  0  0  0
   -6.9067   12.2589  -14.0885 H   0  0  0  0  0  0  0  0  0  0  0  0
   -8.0380    9.5979   -7.2556 H   0  0  0  0  0  0  0  0  0  0  0  0
   -2.6189   14.5701  -10.8280 H   0  0  0  0  0  0  0  0  0  0  0  0
   -3.0927   14.8813  -12.5325 H   0  0  0  0  0  0  0  0  0  0  0  0
   -3.9729   15.6925  -11.1931 H   0  0  0  0  0  0  0  0  0  0  0  0
   -5.2336   15.2175  -12.9341 H   0  0  0  0  0  0  0  0  0  0  0  0
   -6.7345   12.3122   -6.9047 H   0  0  0  0  0  0  0  0  0  0  0  0
   -2.8594   12.1890   -7.9494 H   0  0  0  0  0  0  0  0  0  0  0  0
   -2.8596   11.4563   -6.3094 H   0  0  0  0  0  0  0  0  0  0  0  0
   -2.6569    9.7457   -8.0538 H   0  0  0  0  0  0  0  0  0  0  0  0
   -4.8908    8.7775   -8.4962 H   0  0  0  0  0  0  0  0  0  0  0  0
   -3.3931   13.9367   -6.1862 H   0  0  0  0  0  0  0  0  0  0  0  0
   -4.9432   14.4192   -6.9548 H   0  0  0  0  0  0  0  0  0  0  0  0
   -4.9436   13.6877   -5.3142 H   0  0  0  0  0  0  0  0  0  0  0  0
  1  2  1  0  0  0  0
  1  4  1  0  0  0  0
  1 13  1  0  0  0  0
  2  6  2  0  0  0  0
  3  4  2  0  0  0  0
  3  5  1  0  0  0  0
  5  6  1  0  0  0  0
  5  9  2  0  0  0  0
  6  7  1  0  0  0  0
  7  8  2  0  0  0  0
  7 10  1  0  0  0  0
  8  9  1  0  0  0  0
 10 15  2  3  0  0  0
 11 12  1  0  0  0  0
 11 13  2  0  0  0  0
 13 14  1  0  0  0  0
 15 16  1  0  0  0  0
 15 20  1  0  0  0  0
 16 17  2  0  0  0  0
 17 18  1  0  0  0  0
 17 21  1  0  0  0  0
 18 19  1  0  0  0  0
 19 20  2  0  0  0  0
  1 22  1  0  0  0  0
  2 23  1  0  0  0  0
  3 24  1  0  0  0  0
  4 25  1  0  0  0  0
 10 26  1  0  0  0  0
 12 27  1  0  0  0  0
 12 28  1  0  0  0  0
 12 29  1  0  0  0  0
 14 30  1  0  0  0  0
 16 31  1  0  0  0  0
 18 32  1  0  0  0  0
 18 33  1  0  0  0  0
 19 34  1  0  0  0  0
 20 35  1  0  0  0  0
 21 36  1  0  0  0  0
 21 37  1  0  0  0  0
 21 38  1  0  0  0  0
M  END
> <Name>
16

> <IC50[uM]>
0.17

$$$$
16
  -OEChem-05192314333D
 Structure written by MMmdl.
 38 40  0     1  0  0  0  0  0999 V2000
   -6.3886   12.3706  -12.0044 C   0  0  0  0  0  0  0  0  0  0  0  0
   -6.5217   11.8105  -10.7338 C   0  0  0  0  0  0  0  0  0  0  0  0
   -7.7267   10.5778  -13.0331 C   0  0  0  0  0  0  0  0  0  0  0  0
   -6.9997   11.7772  -13.1264 C   0  0  0  0  0  0  0  0  0  0  0  0
   -7.8245   10.0105  -11.7588 C   0  0  0  0  0  0  0  0  0  0  0  0
   -7.2447   10.6240  -10.5997 C   0  0  3  0  0  0  0  0  0  0  0  0
   -7.6157    9.7479   -9.5130 C   0  0  0  0  0  0  0  0  0  0  0  0
   -8.2818    8.7335   -9.9900 N   0  0  0  0  0  0  0  0  0  0  0  0
   -8.4155    8.8614  -11.3010 N   0  0  0  0  0  0  0  0  0  0  0  0
   -7.3377    9.8874   -8.0251 C   0  0  0  0  0  0  0  0  0  0  0  0
   -4.4115   13.6449  -11.4457 N   0  0  0  0  0  0  0  0  0  0  0  0
   -3.4644   14.7678  -11.5034 C   0  0  0  0  0  0  0  0  0  0  0  0
   -5.5490   13.6243  -12.1808 C   0  0  0  0  0  0  0  0  0  0  0  0
   -5.8784   14.5204  -12.9613 O   0  0  0  0  0  0  0  0  0  0  0  0
   -5.9596   10.4818   -7.7362 C   0  0  0  0  0  0  0  0  0  0  0  0
   -5.8460   11.7538   -7.1602 C   0  0  0  0  0  0  0  0  0  0  0  0
   -4.5819   12.3007   -6.9160 C   0  0  0  0  0  0  0  0  0  0  0  0
   -3.4335   11.5746   -7.2403 C   0  0  0  0  0  0  0  0  0  0  0  0
   -3.5461   10.3067   -7.8068 C   0  0  0  0  0  0  0  0  0  0  0  0
   -4.8068    9.7600   -8.0558 C   0  0  0  0  0  0  0  0  0  0  0  0
   -4.4568   13.6807   -6.3006 C   0  0  0  0  0  0  0  0  0  0  0  0
   -6.0750   12.2846   -9.8724 H   0  0  0  0  0  0  0  0  0  0  0  0
   -8.1843   10.1199  -13.8976 H   0  0  0  0  0  0  0  0  0  0  0  0
   -6.9067   12.2589  -14.0885 H   0  0  0  0  0  0  0  0  0  0  0  0
   -6.3227   10.0441  -10.7532 H   0  0  0  0  0  0  0  0  0  0  0  0
   -8.0380    9.5979   -7.2556 H   0  0  0  0  0  0  0  0  0  0  0  0
   -2.6189   14.5701  -10.8280 H   0  0  0  0  0  0  0  0  0  0  0  0
   -3.0927   14.8813  -12.5325 H   0  0  0  0  0  0  0  0  0  0  0  0
   -3.9729   15.6925  -11.1931 H   0  0  0  0  0  0  0  0  0  0  0  0
   -5.2336   15.2175  -12.9341 H   0  0  0  0  0  0  0  0  0  0  0  0
   -6.7345   12.3122   -6.9047 H   0  0  0  0  0  0  0  0  0  0  0  0
   -2.8594   12.1890   -7.9494 H   0  0  0  0  0  0  0  0  0  0  0  0
   -2.8596   11.4563   -6.3094 H   0  0  0  0  0  0  0  0  0  0  0  0
   -2.6569    9.7457   -8.0538 H   0  0  0  0  0  0  0  0  0  0  0  0
   -4.8908    8.7775   -8.4962 H   0  0  0  0  0  0  0  0  0  0  0  0
   -3.3931   13.9367   -6.1862 H   0  0  0  0  0  0  0  0  0  0  0  0
   -4.9432   14.4192   -6.9548 H   0  0  0  0  0  0  0  0  0  0  0  0
   -4.9436   13.6877   -5.3142 H   0  0  0  0  0  0  0  0  0  0  0  0
  1  2  2  0  0  0  0
  1  4  1  0  0  0  0
  1 13  1  0  0  0  0
  2  6  1  0  0  0  0
  3  4  2  0  0  0  0
  3  5  1  0  0  0  0
  5  6  1  0  0  0  0
  5  9  2  0  0  0  0
  6  7  1  0  0  0  0
  7  8  2  0  0  0  0
  7 10  1  0  0  0  0
  8  9  1  0  0  0  0
 10 15  2  3  0  0  0
 11 12  1  0  0  0  0
 11 13  2  0  0  0  0
 13 14  1  0  0  0  0
 15 16  1  0  0  0  0
 15 20  1  0  0  0  0
 16 17  2  0  0  0  0
 17 18  1  0  0  0  0
 17 21  1  0  0  0  0
 18 19  1  0  0  0  0
 19 20  2  0  0  0  0
  2 22  1  0  0  0  0
  3 23  1  0  0  0  0
  4 24  1  0  0  0  0
  6 25  1  0  0  0  0
 10 26  1  0  0  0  0
 12 27  1  0  0  0  0
 12 28  1  0  0  0  0
 12 29  1  0  0  0  0
 14 30  1  0  0  0  0
 16 31  1  0  0  0  0
 18 32  1  0  0  0  0
 18 33  1  0  0  0  0
 19 34  1  0  0  0  0
 20 35  1  0  0  0  0
 21 36  1  0  0  0  0
 21 37  1  0  0  0  0
 21 38  1  0  0  0  0
M  END
> <Name>
16

> <IC50[uM]>
0.17

$$$$
16
  -OEChem-05192314333D
 Structure written by MMmdl.
 38 40  0     0  0  0  0  0  0999 V2000
   -6.3886   12.3706  -12.0044 C   0  0  0  0  0  0  0  0  0  0  0  0
   -6.5217   11.8105  -10.7338 C   0  0  0  0  0  0  0  0  0  0  0  0
   -7.7267   10.5778  -13.0331 C   0  0  0  0  0  0  0  0  0  0  0  0
   -6.9997   11.7772  -13.1264 C   0  0  0  0  0  0  0  0  0  0  0  0
   -7.8245   10.0105  -11.7588 C   0  0  0  0  0  0  0  0  0  0  0  0
   -7.2447   10.6240  -10.5997 C   0  0  0  0  0  0  0  0  0  0  0  0
   -7.6157    9.7479   -9.5130 C   0  0  0  0  0  0  0  0  0  0  0  0
   -8.2818    8.7335   -9.9900 N   0  0  0  0  0  0  0  0  0  0  0  0
   -8.4155    8.8614  -11.3010 N   0  0  0  0  0  0  0  0  0  0  0  0
   -7.3377    9.8874   -8.0251 C   0  0  0  0  0  0  0  0  0  0  0  0
   -4.4115   13.6449  -11.4457 N   0  0  0  0  0  0  0  0  0  0  0  0
   -3.4644   14.7678  -11.5034 C   0  0  0  0  0  0  0  0  0  0  0  0
   -5.5490   13.6243  -12.1808 C   0  0  0  0  0  0  0  0  0  0  0  0
   -5.8784   14.5204  -12.9613 O   0  0  0  0  0  0  0  0  0  0  0  0
   -5.9596   10.4818   -7.7362 C   0  0  0  0  0  0  0  0  0  0  0  0
   -5.8460   11.7538   -7.1602 C   0  0  0  0  0  0  0  0  0  0  0  0
   -4.5819   12.3007   -6.9160 C   0  0  0  0  0  0  0  0  0  0  0  0
   -3.4335   11.5746   -7.2403 C   0  0  0  0  0  0  0  0  0  0  0  0
   -3.5461   10.3067   -7.8068 C   0  0  0  0  0  0  0  0  0  0  0  0
   -4.8068    9.7600   -8.0558 C   0  0  0  0  0  0  0  0  0  0  0  0
   -4.4568   13.6807   -6.3006 C   0  0  0  0  0  0  0  0  0  0  0  0
   -6.0750   12.2846   -9.8724 H   0  0  0  0  0  0  0  0  0  0  0  0
   -8.7478   10.7760  -13.3910 H   0  0  0  0  0  0  0  0  0  0  0  0
   -7.2438    9.8410  -13.6919 H   0  0  0  0  0  0  0  0  0  0  0  0
   -6.9067   12.2589  -14.0885 H   0  0  0  0  0  0  0  0  0  0  0  0
   -8.0380    9.5979   -7.2556 H   0  0  0  0  0  0  0  0  0  0  0  0
   -2.6189   14.5701  -10.8280 H   0  0  0  0  0  0  0  0  0  0  0  0
   -3.0927   14.8813  -12.5325 H   0  0  0  0  0  0  0  0  0  0  0  0
   -3.9729   15.6925  -11.1931 H   0  0  0  0  0  0  0  0  0  0  0  0
   -5.2336   15.2175  -12.9341 H   0  0  0  0  0  0  0  0  0  0  0  0
   -6.7345   12.3122   -6.9047 H   0  0  0  0  0  0  0  0  0  0  0  0
   -2.8594   12.1890   -7.9494 H   0  0  0  0  0  0  0  0  0  0  0  0
   -2.8596   11.4563   -6.3094 H   0  0  0  0  0  0  0  0  0  0  0  0
   -2.6569    9.7457   -8.0538 H   0  0  0  0  0  0  0  0  0  0  0  0
   -4.8908    8.7775   -8.4962 H   0  0  0  0  0  0  0  0  0  0  0  0
   -3.3931   13.9367   -6.1862 H   0  0  0  0  0  0  0  0  0  0  0  0
   -4.9432   14.4192   -6.9548 H   0  0  0  0  0  0  0  0  0  0  0  0
   -4.9436   13.6877   -5.3142 H   0  0  0  0  0  0  0  0  0  0  0  0
  1  2  1  0  0  0  0
  1  4  2  0  0  0  0
  1 13  1  0  0  0  0
  2  6  2  0  0  0  0
  3  4  1  0  0  0  0
  3  5  1  0  0  0  0
  5  6  1  0  0  0  0
  5  9  2  0  0  0  0
  6  7  1  0  0  0  0
  7  8  2  0  0  0  0
  7 10  1  0  0  0  0
  8  9  1  0  0  0  0
 10 15  2  3  0  0  0
 11 12  1  0  0  0  0
 11 13  2  0  0  0  0
 13 14  1  0  0  0  0
 15 16  1  0  0  0  0
 15 20  1  0  0  0  0
 16 17  2  0  0  0  0
 17 18  1  0  0  0  0
 17 21  1  0  0  0  0
 18 19  1  0  0  0  0
 19 20  2  0  0  0  0
  2 22  1  0  0  0  0
  3 23  1  0  0  0  0
  3 24  1  0  0  0  0
  4 25  1  0  0  0  0
 10 26  1  0  0  0  0
 12 27  1  0  0  0  0
 12 28  1  0  0  0  0
 12 29  1  0  0  0  0
 14 30  1  0  0  0  0
 16 31  1  0  0  0  0
 18 32  1  0  0  0  0
 18 33  1  0  0  0  0
 19 34  1  0  0  0  0
 20 35  1  0  0  0  0
 21 36  1  0  0  0  0
 21 37  1  0  0  0  0
 21 38  1  0  0  0  0
M  END
> <Name>
16

> <IC50[uM]>
0.17

$$$$
16
  -OEChem-05192314333D
 Structure written by MMmdl.
 38 40  0     1  0  0  0  0  0999 V2000
   -6.3886   12.3706  -12.0044 C   0  0  3  0  0  0  0  0  0  0  0  0
   -6.5217   11.8105  -10.7338 C   0  0  0  0  0  0  0  0  0  0  0  0
   -7.7267   10.5778  -13.0331 C   0  0  0  0  0  0  0  0  0  0  0  0
   -6.9997   11.7772  -13.1264 C   0  0  0  0  0  0  0  0  0  0  0  0
   -7.8245   10.0105  -11.7588 C   0  0  0  0  0  0  0  0  0  0  0  0
   -7.2447   10.6240  -10.5997 C   0  0  0  0  0  0  0  0  0  0  0  0
   -7.6157    9.7479   -9.5130 C   0  0  0  0  0  0  0  0  0  0  0  0
   -8.2818    8.7335   -9.9900 N   0  0  0  0  0  0  0  0  0  0  0  0
   -8.4155    8.8614  -11.3010 N   0  0  0  0  0  0  0  0  0  0  0  0
   -7.3377    9.8874   -8.0251 C   0  0  0  0  0  0  0  0  0  0  0  0
   -4.4115   13.6449  -11.4457 N   0  0  0  0  0  0  0  0  0  0  0  0
   -3.4644   14.7678  -11.5034 C   0  0  0  0  0  0  0  0  0  0  0  0
   -5.5490   13.6243  -12.1808 C   0  0  0  0  0  0  0  0  0  0  0  0
   -5.8784   14.5204  -12.9613 O   0  0  0  0  0  0  0  0  0  0  0  0
   -5.9596   10.4818   -7.7362 C   0  0  0  0  0  0  0  0  0  0  0  0
   -5.8460   11.7538   -7.1602 C   0  0  0  0  0  0  0  0  0  0  0  0
   -4.5819   12.3007   -6.9160 C   0  0  0  0  0  0  0  0  0  0  0  0
   -3.4335   11.5746   -7.2403 C   0  0  0  0  0  0  0  0  0  0  0  0
   -3.5461   10.3067   -7.8068 C   0  0  0  0  0  0  0  0  0  0  0  0
   -4.8068    9.7600   -8.0558 C   0  0  0  0  0  0  0  0  0  0  0  0
   -4.4568   13.6807   -6.3006 C   0  0  0  0  0  0  0  0  0  0  0  0
   -7.2839   12.9866  -11.8341 H   0  0  0  0  0  0  0  0  0  0  0  0
   -6.0750   12.2846   -9.8724 H   0  0  0  0  0  0  0  0  0  0  0  0
   -8.1843   10.1199  -13.8976 H   0  0  0  0  0  0  0  0  0  0  0  0
   -6.9067   12.2589  -14.0885 H   0  0  0  0  0  0  0  0  0  0  0  0
   -8.0380    9.5979   -7.2556 H   0  0  0  0  0  0  0  0  0  0  0  0
   -2.6189   14.5701  -10.8280 H   0  0  0  0  0  0  0  0  0  0  0  0
   -3.0927   14.8813  -12.5325 H   0  0  0  0  0  0  0  0  0  0  0  0
   -3.9729   15.6925  -11.1931 H   0  0  0  0  0  0  0  0  0  0  0  0
   -5.2336   15.2175  -12.9341 H   0  0  0  0  0  0  0  0  0  0  0  0
   -6.3708   12.4528   -7.8280 H   0  0  0  0  0  0  0  0  0  0  0  0
   -6.3661   11.7115   -6.1919 H   0  0  0  0  0  0  0  0  0  0  0  0
   -2.4573   11.9965   -7.0517 H   0  0  0  0  0  0  0  0  0  0  0  0
   -2.6569    9.7457   -8.0538 H   0  0  0  0  0  0  0  0  0  0  0  0
   -4.8908    8.7775   -8.4962 H   0  0  0  0  0  0  0  0  0  0  0  0
   -3.3931   13.9367   -6.1862 H   0  0  0  0  0  0  0  0  0  0  0  0
   -4.9432   14.4192   -6.9548 H   0  0  0  0  0  0  0  0  0  0  0  0
   -4.9436   13.6877   -5.3142 H   0  0  0  0  0  0  0  0  0  0  0  0
  1  2  1  0  0  0  0
  1  4  1  0  0  0  0
  1 13  1  0  0  0  0
  2  6  2  0  0  0  0
  3  4  2  0  0  0  0
  3  5  1  0  0  0  0
  5  6  1  0  0  0  0
  5  9  2  0  0  0  0
  6  7  1  0  0  0  0
  7  8  2  0  0  0  0
  7 10  1  0  0  0  0
  8  9  1  0  0  0  0
 10 15  2  3  0  0  0
 11 12  1  0  0  0  0
 11 13  2  0  0  0  0
 13 14  1  0  0  0  0
 15 16  1  0  0  0  0
 15 20  1  0  0  0  0
 16 17  1  0  0  0  0
 17 18  2  0  0  0  0
 17 21  1  0  0  0  0
 18 19  1  0  0  0  0
 19 20  2  0  0  0  0
  1 22  1  0  0  0  0
  2 23  1  0  0  0  0
  3 24  1  0  0  0  0
  4 25  1  0  0  0  0
 10 26  1  0  0  0  0
 12 27  1  0  0  0  0
 12 28  1  0  0  0  0
 12 29  1  0  0  0  0
 14 30  1  0  0  0  0
 16 31  1  0  0  0  0
 16 32  1  0  0  0  0
 18 33  1  0  0  0  0
 19 34  1  0  0  0  0
 20 35  1  0  0  0  0
 21 36  1  0  0  0  0
 21 37  1  0  0  0  0
 21 38  1  0  0  0  0
M  END
> <Name>
16

> <IC50[uM]>
0.17

$$$$
16
  -OEChem-05192314333D
 Structure written by MMmdl.
 38 40  0     1  0  0  0  0  0999 V2000
   -6.3886   12.3706  -12.0044 C   0  0  0  0  0  0  0  0  0  0  0  0
   -6.5217   11.8105  -10.7338 C   0  0  0  0  0  0  0  0  0  0  0  0
   -7.7267   10.5778  -13.0331 C   0  0  0  0  0  0  0  0  0  0  0  0
   -6.9997   11.7772  -13.1264 C   0  0  0  0  0  0  0  0  0  0  0  0
   -7.8245   10.0105  -11.7588 C   0  0  0  0  0  0  0  0  0  0  0  0
   -7.2447   10.6240  -10.5997 C   0  0  3  0  0  0  0  0  0  0  0  0
   -7.6157    9.7479   -9.5130 C   0  0  0  0  0  0  0  0  0  0  0  0
   -8.2818    8.7335   -9.9900 N   0  0  0  0  0  0  0  0  0  0  0  0
   -8.4155    8.8614  -11.3010 N   0  0  0  0  0  0  0  0  0  0  0  0
   -7.3377    9.8874   -8.0251 C   0  0  0  0  0  0  0  0  0  0  0  0
   -4.4115   13.6449  -11.4457 N   0  0  0  0  0  0  0  0  0  0  0  0
   -3.4644   14.7678  -11.5034 C   0  0  0  0  0  0  0  0  0  0  0  0
   -5.5490   13.6243  -12.1808 C   0  0  0  0  0  0  0  0  0  0  0  0
   -5.8784   14.5204  -12.9613 O   0  0  0  0  0  0  0  0  0  0  0  0
   -5.9596   10.4818   -7.7362 C   0  0  0  0  0  0  0  0  0  0  0  0
   -5.8460   11.7538   -7.1602 C   0  0  0  0  0  0  0  0  0  0  0  0
   -4.5819   12.3007   -6.9160 C   0  0  0  0  0  0  0  0  0  0  0  0
   -3.4335   11.5746   -7.2403 C   0  0  0  0  0  0  0  0  0  0  0  0
   -3.5461   10.3067   -7.8068 C   0  0  0  0  0  0  0  0  0  0  0  0
   -4.8068    9.7600   -8.0558 C   0  0  0  0  0  0  0  0  0  0  0  0
   -4.4568   13.6807   -6.3006 C   0  0  0  0  0  0  0  0  0  0  0  0
   -6.0750   12.2846   -9.8724 H   0  0  0  0  0  0  0  0  0  0  0  0
   -8.1843   10.1199  -13.8976 H   0  0  0  0  0  0  0  0  0  0  0  0
   -6.9067   12.2589  -14.0885 H   0  0  0  0  0  0  0  0  0  0  0  0
   -6.3227   10.0441  -10.7532 H   0  0  0  0  0  0  0  0  0  0  0  0
   -8.0380    9.5979   -7.2556 H   0  0  0  0  0  0  0  0  0  0  0  0
   -2.6189   14.5701  -10.8280 H   0  0  0  0  0  0  0  0  0  0  0  0
   -3.0927   14.8813  -12.5325 H   0  0  0  0  0  0  0  0  0  0  0  0
   -3.9729   15.6925  -11.1931 H   0  0  0  0  0  0  0  0  0  0  0  0
   -5.2336   15.2175  -12.9341 H   0  0  0  0  0  0  0  0  0  0  0  0
   -6.3708   12.4528   -7.8280 H   0  0  0  0  0  0  0  0  0  0  0  0
   -6.3661   11.7115   -6.1919 H   0  0  0  0  0  0  0  0  0  0  0  0
   -2.4573   11.9965   -7.0517 H   0  0  0  0  0  0  0  0  0  0  0  0
   -2.6569    9.7457   -8.0538 H   0  0  0  0  0  0  0  0  0  0  0  0
   -4.8908    8.7775   -8.4962 H   0  0  0  0  0  0  0  0  0  0  0  0
   -3.3931   13.9367   -6.1862 H   0  0  0  0  0  0  0  0  0  0  0  0
   -4.9432   14.4192   -6.9548 H   0  0  0  0  0  0  0  0  0  0  0  0
   -4.9436   13.6877   -5.3142 H   0  0  0  0  0  0  0  0  0  0  0  0
  1  2  2  0  0  0  0
  1  4  1  0  0  0  0
  1 13  1  0  0  0  0
  2  6  1  0  0  0  0
  3  4  2  0  0  0  0
  3  5  1  0  0  0  0
  5  6  1  0  0  0  0
  5  9  2  0  0  0  0
  6  7  1  0  0  0  0
  7  8  2  0  0  0  0
  7 10  1  0  0  0  0
  8  9  1  0  0  0  0
 10 15  2  3  0  0  0
 11 12  1  0  0  0  0
 11 13  2  0  0  0  0
 13 14  1  0  0  0  0
 15 16  1  0  0  0  0
 15 20  1  0  0  0  0
 16 17  1  0  0  0  0
 17 18  2  0  0  0  0
 17 21  1  0  0  0  0
 18 19  1  0  0  0  0
 19 20  2  0  0  0  0
  2 22  1  0  0  0  0
  3 23  1  0  0  0  0
  4 24  1  0  0  0  0
  6 25  1  0  0  0  0
 10 26  1  0  0  0  0
 12 27  1  0  0  0  0
 12 28  1  0  0  0  0
 12 29  1  0  0  0  0
 14 30  1  0  0  0  0
 16 31  1  0  0  0  0
 16 32  1  0  0  0  0
 18 33  1  0  0  0  0
 19 34  1  0  0  0  0
 20 35  1  0  0  0  0
 21 36  1  0  0  0  0
 21 37  1  0  0  0  0
 21 38  1  0  0  0  0
M  END
> <Name>
16

> <IC50[uM]>
0.17

$$$$
16
  -OEChem-05192314333D
 Structure written by MMmdl.
 38 40  0     0  0  0  0  0  0999 V2000
   -6.3886   12.3706  -12.0044 C   0  0  0  0  0  0  0  0  0  0  0  0
   -6.5217   11.8105  -10.7338 C   0  0  0  0  0  0  0  0  0  0  0  0
   -7.7267   10.5778  -13.0331 C   0  0  0  0  0  0  0  0  0  0  0  0
   -6.9997   11.7772  -13.1264 C   0  0  0  0  0  0  0  0  0  0  0  0
   -7.8245   10.0105  -11.7588 C   0  0  0  0  0  0  0  0  0  0  0  0
   -7.2447   10.6240  -10.5997 C   0  0  0  0  0  0  0  0  0  0  0  0
   -7.6157    9.7479   -9.5130 C   0  0  0  0  0  0  0  0  0  0  0  0
   -8.2818    8.7335   -9.9900 N   0  0  0  0  0  0  0  0  0  0  0  0
   -8.4155    8.8614  -11.3010 N   0  0  0  0  0  0  0  0  0  0  0  0
   -7.3377    9.8874   -8.0251 C   0  0  0  0  0  0  0  0  0  0  0  0
   -4.4115   13.6449  -11.4457 N   0  0  0  0  0  0  0  0  0  0  0  0
   -3.4644   14.7678  -11.5034 C   0  0  0  0  0  0  0  0  0  0  0  0
   -5.5490   13.6243  -12.1808 C   0  0  0  0  0  0  0  0  0  0  0  0
   -5.8784   14.5204  -12.9613 O   0  0  0  0  0  0  0  0  0  0  0  0
   -5.9596   10.4818   -7.7362 C   0  0  0  0  0  0  0  0  0  0  0  0
   -5.8460   11.7538   -7.1602 C   0  0  0  0  0  0  0  0  0  0  0  0
   -4.5819   12.3007   -6.9160 C   0  0  0  0  0  0  0  0  0  0  0  0
   -3.4335   11.5746   -7.2403 C   0  0  0  0  0  0  0  0  0  0  0  0
   -3.5461   10.3067   -7.8068 C   0  0  0  0  0  0  0  0  0  0  0  0
   -4.8068    9.7600   -8.0558 C   0  0  0  0  0  0  0  0  0  0  0  0
   -4.4568   13.6807   -6.3006 C   0  0  0  0  0  0  0  0  0  0  0  0
   -6.0750   12.2846   -9.8724 H   0  0  0  0  0  0  0  0  0  0  0  0
   -8.7478   10.7760  -13.3910 H   0  0  0  0  0  0  0  0  0  0  0  0
   -7.2438    9.8410  -13.6919 H   0  0  0  0  0  0  0  0  0  0  0  0
   -6.9067   12.2589  -14.0885 H   0  0  0  0  0  0  0  0  0  0  0  0
   -8.0380    9.5979   -7.2556 H   0  0  0  0  0  0  0  0  0  0  0  0
   -2.6189   14.5701  -10.8280 H   0  0  0  0  0  0  0  0  0  0  0  0
   -3.0927   14.8813  -12.5325 H   0  0  0  0  0  0  0  0  0  0  0  0
   -3.9729   15.6925  -11.1931 H   0  0  0  0  0  0  0  0  0  0  0  0
   -5.2336   15.2175  -12.9341 H   0  0  0  0  0  0  0  0  0  0  0  0
   -6.3708   12.4528   -7.8280 H   0  0  0  0  0  0  0  0  0  0  0  0
   -6.3661   11.7115   -6.1919 H   0  0  0  0  0  0  0  0  0  0  0  0
   -2.4573   11.9965   -7.0517 H   0  0  0  0  0  0  0  0  0  0  0  0
   -2.6569    9.7457   -8.0538 H   0  0  0  0  0  0  0  0  0  0  0  0
   -4.8908    8.7775   -8.4962 H   0  0  0  0  0  0  0  0  0  0  0  0
   -3.3931   13.9367   -6.1862 H   0  0  0  0  0  0  0  0  0  0  0  0
   -4.9432   14.4192   -6.9548 H   0  0  0  0  0  0  0  0  0  0  0  0
   -4.9436   13.6877   -5.3142 H   0  0  0  0  0  0  0  0  0  0  0  0
  1  2  1  0  0  0  0
  1  4  2  0  0  0  0
  1 13  1  0  0  0  0
  2  6  2  0  0  0  0
  3  4  1  0  0  0  0
  3  5  1  0  0  0  0
  5  6  1  0  0  0  0
  5  9  2  0  0  0  0
  6  7  1  0  0  0  0
  7  8  2  0  0  0  0
  7 10  1  0  0  0  0
  8  9  1  0  0  0  0
 10 15  2  3  0  0  0
 11 12  1  0  0  0  0
 11 13  2  0  0  0  0
 13 14  1  0  0  0  0
 15 16  1  0  0  0  0
 15 20  1  0  0  0  0
 16 17  1  0  0  0  0
 17 18  2  0  0  0  0
 17 21  1  0  0  0  0
 18 19  1  0  0  0  0
 19 20  2  0  0  0  0
  2 22  1  0  0  0  0
  3 23  1  0  0  0  0
  3 24  1  0  0  0  0
  4 25  1  0  0  0  0
 10 26  1  0  0  0  0
 12 27  1  0  0  0  0
 12 28  1  0  0  0  0
 12 29  1  0  0  0  0
 14 30  1  0  0  0  0
 16 31  1  0  0  0  0
 16 32  1  0  0  0  0
 18 33  1  0  0  0  0
 19 34  1  0  0  0  0
 20 35  1  0  0  0  0
 21 36  1  0  0  0  0
 21 37  1  0  0  0  0
 21 38  1  0  0  0  0
M  END
> <Name>
16

> <IC50[uM]>
0.17

$$$$
16
  -OEChem-05192314333D
 Structure written by MMmdl.
 38 40  0     1  0  0  0  0  0999 V2000
   -6.3886   12.3706  -12.0044 C   0  0  0  0  0  0  0  0  0  0  0  0
   -6.5217   11.8105  -10.7338 C   0  0  0  0  0  0  0  0  0  0  0  0
   -7.7267   10.5778  -13.0331 C   0  0  0  0  0  0  0  0  0  0  0  0
   -6.9997   11.7772  -13.1264 C   0  0  0  0  0  0  0  0  0  0  0  0
   -7.8245   10.0105  -11.7588 C   0  0  3  0  0  0  0  0  0  0  0  0
   -7.2447   10.6240  -10.5997 C   0  0  0  0  0  0  0  0  0  0  0  0
   -7.6157    9.7479   -9.5130 C   0  0  0  0  0  0  0  0  0  0  0  0
   -8.2818    8.7335   -9.9900 N   0  0  0  0  0  0  0  0  0  0  0  0
   -8.4155    8.8614  -11.3010 N   0  0  0  0  0  0  0  0  0  0  0  0
   -7.3377    9.8874   -8.0251 C   0  0  0  0  0  0  0  0  0  0  0  0
   -4.4115   13.6449  -11.4457 N   0  0  0  0  0  0  0  0  0  0  0  0
   -3.4644   14.7678  -11.5034 C   0  0  0  0  0  0  0  0  0  0  0  0
   -5.5490   13.6243  -12.1808 C   0  0  0  0  0  0  0  0  0  0  0  0
   -5.8784   14.5204  -12.9613 O   0  0  0  0  0  0  0  0  0  0  0  0
   -5.9596   10.4818   -7.7362 C   0  0  0  0  0  0  0  0  0  0  0  0
   -5.8460   11.7538   -7.1602 C   0  0  0  0  0  0  0  0  0  0  0  0
   -4.5819   12.3007   -6.9160 C   0  0  0  0  0  0  0  0  0  0  0  0
   -3.4335   11.5746   -7.2403 C   0  0  0  0  0  0  0  0  0  0  0  0
   -3.5461   10.3067   -7.8068 C   0  0  0  0  0  0  0  0  0  0  0  0
   -4.8068    9.7600   -8.0558 C   0  0  0  0  0  0  0  0  0  0  0  0
   -4.4568   13.6807   -6.3006 C   0  0  0  0  0  0  0  0  0  0  0  0
   -6.0750   12.2846   -9.8724 H   0  0  0  0  0  0  0  0  0  0  0  0
   -8.1843   10.1199  -13.8976 H   0  0  0  0  0  0  0  0  0  0  0  0
   -6.9067   12.2589  -14.0885 H   0  0  0  0  0  0  0  0  0  0  0  0
   -8.7599   10.5623  -11.5840 H   0  0  0  0  0  0  0  0  0  0  0  0
   -8.0380    9.5979   -7.2556 H   0  0  0  0  0  0  0  0  0  0  0  0
   -4.2095   12.8717  -10.8446 H   0  0  0  0  0  0  0  0  0  0  0  0
   -2.6189   14.5701  -10.8280 H   0  0  0  0  0  0  0  0  0  0  0  0
   -3.0927   14.8813  -12.5325 H   0  0  0  0  0  0  0  0  0  0  0  0
   -3.9729   15.6925  -11.1931 H   0  0  0  0  0  0  0  0  0  0  0  0
   -6.7345   12.3122   -6.9047 H   0  0  0  0  0  0  0  0  0  0  0  0
   -2.4573   11.9965   -7.0517 H   0  0  0  0  0  0  0  0  0  0  0  0
   -2.6569    9.7457   -8.0538 H   0  0  0  0  0  0  0  0  0  0  0  0
   -4.8589    8.8150   -7.4951 H   0  0  0  0  0  0  0  0  0  0  0  0
   -4.8535    9.5494   -9.1344 H   0  0  0  0  0  0  0  0  0  0  0  0
   -3.3931   13.9367   -6.1862 H   0  0  0  0  0  0  0  0  0  0  0  0
   -4.9432   14.4192   -6.9548 H   0  0  0  0  0  0  0  0  0  0  0  0
   -4.9436   13.6877   -5.3142 H   0  0  0  0  0  0  0  0  0  0  0  0
  1  2  2  0  0  0  0
  1  4  1  0  0  0  0
  1 13  1  0  0  0  0
  2  6  1  0  0  0  0
  3  4  2  0  0  0  0
  3  5  1  0  0  0  0
  5  6  1  0  0  0  0
  5  9  1  0  0  0  0
  6  7  2  0  0  0  0
  7  8  1  0  0  0  0
  7 10  1  0  0  0  0
  8  9  2  0  0  0  0
 10 15  2  3  0  0  0
 11 12  1  0  0  0  0
 11 13  1  0  0  0  0
 13 14  2  0  0  0  0
 15 16  1  0  0  0  0
 15 20  1  0  0  0  0
 16 17  2  0  0  0  0
 17 18  1  0  0  0  0
 17 21  1  0  0  0  0
 18 19  2  0  0  0  0
 19 20  1  0  0  0  0
  2 22  1  0  0  0  0
  3 23  1  0  0  0  0
  4 24  1  0  0  0  0
  5 25  1  0  0  0  0
 10 26  1  0  0  0  0
 11 27  1  0  0  0  0
 12 28  1  0  0  0  0
 12 29  1  0  0  0  0
 12 30  1  0  0  0  0
 16 31  1  0  0  0  0
 18 32  1  0  0  0  0
 19 33  1  0  0  0  0
 20 34  1  0  0  0  0
 20 35  1  0  0  0  0
 21 36  1  0  0  0  0
 21 37  1  0  0  0  0
 21 38  1  0  0  0  0
M  END
> <Name>
16

> <IC50[uM]>
0.17

$$$$
16
  -OEChem-05192314333D
 Structure written by MMmdl.
 38 40  0     0  0  0  0  0  0999 V2000
   -6.3886   12.3706  -12.0044 C   0  0  0  0  0  0  0  0  0  0  0  0
   -6.5217   11.8105  -10.7338 C   0  0  0  0  0  0  0  0  0  0  0  0
   -7.7267   10.5778  -13.0331 C   0  0  0  0  0  0  0  0  0  0  0  0
   -6.9997   11.7772  -13.1264 C   0  0  0  0  0  0  0  0  0  0  0  0
   -7.8245   10.0105  -11.7588 C   0  0  0  0  0  0  0  0  0  0  0  0
   -7.2447   10.6240  -10.5997 C   0  0  0  0  0  0  0  0  0  0  0  0
   -7.6157    9.7479   -9.5130 C   0  0  0  0  0  0  0  0  0  0  0  0
   -8.2818    8.7335   -9.9900 N   0  0  0  0  0  0  0  0  0  0  0  0
   -8.4155    8.8614  -11.3010 N   0  0  0  0  0  0  0  0  0  0  0  0
   -7.3377    9.8874   -8.0251 C   0  0  0  0  0  0  0  0  0  0  0  0
   -4.4115   13.6449  -11.4457 N   0  0  0  0  0  0  0  0  0  0  0  0
   -3.4644   14.7678  -11.5034 C   0  0  0  0  0  0  0  0  0  0  0  0
   -5.5490   13.6243  -12.1808 C   0  0  0  0  0  0  0  0  0  0  0  0
   -5.8784   14.5204  -12.9613 O   0  0  0  0  0  0  0  0  0  0  0  0
   -5.9596   10.4818   -7.7362 C   0  0  0  0  0  0  0  0  0  0  0  0
   -5.8460   11.7538   -7.1602 C   0  0  0  0  0  0  0  0  0  0  0  0
   -4.5819   12.3007   -6.9160 C   0  0  0  0  0  0  0  0  0  0  0  0
   -3.4335   11.5746   -7.2403 C   0  0  0  0  0  0  0  0  0  0  0  0
   -3.5461   10.3067   -7.8068 C   0  0  0  0  0  0  0  0  0  0  0  0
   -4.8068    9.7600   -8.0558 C   0  0  0  0  0  0  0  0  0  0  0  0
   -4.4568   13.6807   -6.3006 C   0  0  0  0  0  0  0  0  0  0  0  0
   -6.0750   12.2846   -9.8724 H   0  0  0  0  0  0  0  0  0  0  0  0
   -8.1843   10.1199  -13.8976 H   0  0  0  0  0  0  0  0  0  0  0  0
   -7.6950   12.5276  -13.5308 H   0  0  0  0  0  0  0  0  0  0  0  0
   -6.1951   11.5934  -13.8536 H   0  0  0  0  0  0  0  0  0  0  0  0
   -8.0380    9.5979   -7.2556 H   0  0  0  0  0  0  0  0  0  0  0  0
   -4.2095   12.8717  -10.8446 H   0  0  0  0  0  0  0  0  0  0  0  0
   -2.6189   14.5701  -10.8280 H   0  0  0  0  0  0  0  0  0  0  0  0
   -3.0927   14.8813  -12.5325 H   0  0  0  0  0  0  0  0  0  0  0  0
   -3.9729   15.6925  -11.1931 H   0  0  0  0  0  0  0  0  0  0  0  0
   -6.7345   12.3122   -6.9047 H   0  0  0  0  0  0  0  0  0  0  0  0
   -2.4573   11.9965   -7.0517 H   0  0  0  0  0  0  0  0  0  0  0  0
   -2.6569    9.7457   -8.0538 H   0  0  0  0  0  0  0  0  0  0  0  0
   -4.8589    8.8150   -7.4951 H   0  0  0  0  0  0  0  0  0  0  0  0
   -4.8535    9.5494   -9.1344 H   0  0  0  0  0  0  0  0  0  0  0  0
   -3.3931   13.9367   -6.1862 H   0  0  0  0  0  0  0  0  0  0  0  0
   -4.9432   14.4192   -6.9548 H   0  0  0  0  0  0  0  0  0  0  0  0
   -4.9436   13.6877   -5.3142 H   0  0  0  0  0  0  0  0  0  0  0  0
  1  2  2  0  0  0  0
  1  4  1  0  0  0  0
  1 13  1  0  0  0  0
  2  6  1  0  0  0  0
  3  4  1  0  0  0  0
  3  5  2  0  0  0  0
  5  6  1  0  0  0  0
  5  9  1  0  0  0  0
  6  7  2  0  0  0  0
  7  8  1  0  0  0  0
  7 10  1  0  0  0  0
  8  9  2  0  0  0  0
 10 15  2  3  0  0  0
 11 12  1  0  0  0  0
 11 13  1  0  0  0  0
 13 14  2  0  0  0  0
 15 16  1  0  0  0  0
 15 20  1  0  0  0  0
 16 17  2  0  0  0  0
 17 18  1  0  0  0  0
 17 21  1  0  0  0  0
 18 19  2  0  0  0  0
 19 20  1  0  0  0  0
  2 22  1  0  0  0  0
  3 23  1  0  0  0  0
  4 24  1  0  0  0  0
  4 25  1  0  0  0  0
 10 26  1  0  0  0  0
 11 27  1  0  0  0  0
 12 28  1  0  0  0  0
 12 29  1  0  0  0  0
 12 30  1  0  0  0  0
 16 31  1  0  0  0  0
 18 32  1  0  0  0  0
 19 33  1  0  0  0  0
 20 34  1  0  0  0  0
 20 35  1  0  0  0  0
 21 36  1  0  0  0  0
 21 37  1  0  0  0  0
 21 38  1  0  0  0  0
M  END
> <Name>
16

> <IC50[uM]>
0.17

$$$$
16
  -OEChem-05192314333D
 Structure written by MMmdl.
 38 40  0     1  0  0  0  0  0999 V2000
   -6.3886   12.3706  -12.0044 C   0  0  0  0  0  0  0  0  0  0  0  0
   -6.5217   11.8105  -10.7338 C   0  0  0  0  0  0  0  0  0  0  0  0
   -7.7267   10.5778  -13.0331 C   0  0  0  0  0  0  0  0  0  0  0  0
   -6.9997   11.7772  -13.1264 C   0  0  0  0  0  0  0  0  0  0  0  0
   -7.8245   10.0105  -11.7588 C   0  0  3  0  0  0  0  0  0  0  0  0
   -7.2447   10.6240  -10.5997 C   0  0  0  0  0  0  0  0  0  0  0  0
   -7.6157    9.7479   -9.5130 C   0  0  0  0  0  0  0  0  0  0  0  0
   -8.2818    8.7335   -9.9900 N   0  0  0  0  0  0  0  0  0  0  0  0
   -8.4155    8.8614  -11.3010 N   0  0  0  0  0  0  0  0  0  0  0  0
   -7.3377    9.8874   -8.0251 C   0  0  0  0  0  0  0  0  0  0  0  0
   -4.4115   13.6449  -11.4457 N   0  0  0  0  0  0  0  0  0  0  0  0
   -3.4644   14.7678  -11.5034 C   0  0  0  0  0  0  0  0  0  0  0  0
   -5.5490   13.6243  -12.1808 C   0  0  0  0  0  0  0  0  0  0  0  0
   -5.8784   14.5204  -12.9613 O   0  0  0  0  0  0  0  0  0  0  0  0
   -5.9596   10.4818   -7.7362 C   0  0  0  0  0  0  0  0  0  0  0  0
   -5.8460   11.7538   -7.1602 C   0  0  0  0  0  0  0  0  0  0  0  0
   -4.5819   12.3007   -6.9160 C   0  0  0  0  0  0  0  0  0  0  0  0
   -3.4335   11.5746   -7.2403 C   0  0  0  0  0  0  0  0  0  0  0  0
   -3.5461   10.3067   -7.8068 C   0  0  0  0  0  0  0  0  0  0  0  0
   -4.8068    9.7600   -8.0558 C   0  0  0  0  0  0  0  0  0  0  0  0
   -4.4568   13.6807   -6.3006 C   0  0  0  0  0  0  0  0  0  0  0  0
   -6.0750   12.2846   -9.8724 H   0  0  0  0  0  0  0  0  0  0  0  0
   -8.1843   10.1199  -13.8976 H   0  0  0  0  0  0  0  0  0  0  0  0
   -6.9067   12.2589  -14.0885 H   0  0  0  0  0  0  0  0  0  0  0  0
   -8.7599   10.5623  -11.5840 H   0  0  0  0  0  0  0  0  0  0  0  0
   -8.0380    9.5979   -7.2556 H   0  0  0  0  0  0  0  0  0  0  0  0
   -4.2095   12.8717  -10.8446 H   0  0  0  0  0  0  0  0  0  0  0  0
   -2.6189   14.5701  -10.8280 H   0  0  0  0  0  0  0  0  0  0  0  0
   -3.0927   14.8813  -12.5325 H   0  0  0  0  0  0  0  0  0  0  0  0
   -3.9729   15.6925  -11.1931 H   0  0  0  0  0  0  0  0  0  0  0  0
   -6.7345   12.3122   -6.9047 H   0  0  0  0  0  0  0  0  0  0  0  0
   -2.8594   12.1890   -7.9494 H   0  0  0  0  0  0  0  0  0  0  0  0
   -2.8596   11.4563   -6.3094 H   0  0  0  0  0  0  0  0  0  0  0  0
   -2.6569    9.7457   -8.0538 H   0  0  0  0  0  0  0  0  0  0  0  0
   -4.8908    8.7775   -8.4962 H   0  0  0  0  0  0  0  0  0  0  0  0
   -3.3931   13.9367   -6.1862 H   0  0  0  0  0  0  0  0  0  0  0  0
   -4.9432   14.4192   -6.9548 H   0  0  0  0  0  0  0  0  0  0  0  0
   -4.9436   13.6877   -5.3142 H   0  0  0  0  0  0  0  0  0  0  0  0
  1  2  2  0  0  0  0
  1  4  1  0  0  0  0
  1 13  1  0  0  0  0
  2  6  1  0  0  0  0
  3  4  2  0  0  0  0
  3  5  1  0  0  0  0
  5  6  1  0  0  0  0
  5  9  1  0  0  0  0
  6  7  2  0  0  0  0
  7  8  1  0  0  0  0
  7 10  1  0  0  0  0
  8  9  2  0  0  0  0
 10 15  2  3  0  0  0
 11 12  1  0  0  0  0
 11 13  1  0  0  0  0
 13 14  2  0  0  0  0
 15 16  1  0  0  0  0
 15 20  1  0  0  0  0
 16 17  2  0  0  0  0
 17 18  1  0  0  0  0
 17 21  1  0  0  0  0
 18 19  1  0  0  0  0
 19 20  2  0  0  0  0
  2 22  1  0  0  0  0
  3 23  1  0  0  0  0
  4 24  1  0  0  0  0
  5 25  1  0  0  0  0
 10 26  1  0  0  0  0
 11 27  1  0  0  0  0
 12 28  1  0  0  0  0
 12 29  1  0  0  0  0
 12 30  1  0  0  0  0
 16 31  1  0  0  0  0
 18 32  1  0  0  0  0
 18 33  1  0  0  0  0
 19 34  1  0  0  0  0
 20 35  1  0  0  0  0
 21 36  1  0  0  0  0
 21 37  1  0  0  0  0
 21 38  1  0  0  0  0
M  END
> <Name>
16

> <IC50[uM]>
0.17

$$$$
16
  -OEChem-05192314333D
 Structure written by MMmdl.
 38 40  0     0  0  0  0  0  0999 V2000
   -6.3886   12.3706  -12.0044 C   0  0  0  0  0  0  0  0  0  0  0  0
   -6.5217   11.8105  -10.7338 C   0  0  0  0  0  0  0  0  0  0  0  0
   -7.7267   10.5778  -13.0331 C   0  0  0  0  0  0  0  0  0  0  0  0
   -6.9997   11.7772  -13.1264 C   0  0  0  0  0  0  0  0  0  0  0  0
   -7.8245   10.0105  -11.7588 C   0  0  0  0  0  0  0  0  0  0  0  0
   -7.2447   10.6240  -10.5997 C   0  0  0  0  0  0  0  0  0  0  0  0
   -7.6157    9.7479   -9.5130 C   0  0  0  0  0  0  0  0  0  0  0  0
   -8.2818    8.7335   -9.9900 N   0  0  0  0  0  0  0  0  0  0  0  0
   -8.4155    8.8614  -11.3010 N   0  0  0  0  0  0  0  0  0  0  0  0
   -7.3377    9.8874   -8.0251 C   0  0  0  0  0  0  0  0  0  0  0  0
   -4.4115   13.6449  -11.4457 N   0  0  0  0  0  0  0  0  0  0  0  0
   -3.4644   14.7678  -11.5034 C   0  0  0  0  0  0  0  0  0  0  0  0
   -5.5490   13.6243  -12.1808 C   0  0  0  0  0  0  0  0  0  0  0  0
   -5.8784   14.5204  -12.9613 O   0  0  0  0  0  0  0  0  0  0  0  0
   -5.9596   10.4818   -7.7362 C   0  0  0  0  0  0  0  0  0  0  0  0
   -5.8460   11.7538   -7.1602 C   0  0  0  0  0  0  0  0  0  0  0  0
   -4.5819   12.3007   -6.9160 C   0  0  0  0  0  0  0  0  0  0  0  0
   -3.4335   11.5746   -7.2403 C   0  0  0  0  0  0  0  0  0  0  0  0
   -3.5461   10.3067   -7.8068 C   0  0  0  0  0  0  0  0  0  0  0  0
   -4.8068    9.7600   -8.0558 C   0  0  0  0  0  0  0  0  0  0  0  0
   -4.4568   13.6807   -6.3006 C   0  0  0  0  0  0  0  0  0  0  0  0
   -6.0750   12.2846   -9.8724 H   0  0  0  0  0  0  0  0  0  0  0  0
   -8.1843   10.1199  -13.8976 H   0  0  0  0  0  0  0  0  0  0  0  0
   -7.6950   12.5276  -13.5308 H   0  0  0  0  0  0  0  0  0  0  0  0
   -6.1951   11.5934  -13.8536 H   0  0  0  0  0  0  0  0  0  0  0  0
   -8.0380    9.5979   -7.2556 H   0  0  0  0  0  0  0  0  0  0  0  0
   -4.2095   12.8717  -10.8446 H   0  0  0  0  0  0  0  0  0  0  0  0
   -2.6189   14.5701  -10.8280 H   0  0  0  0  0  0  0  0  0  0  0  0
   -3.0927   14.8813  -12.5325 H   0  0  0  0  0  0  0  0  0  0  0  0
   -3.9729   15.6925  -11.1931 H   0  0  0  0  0  0  0  0  0  0  0  0
   -6.7345   12.3122   -6.9047 H   0  0  0  0  0  0  0  0  0  0  0  0
   -2.8594   12.1890   -7.9494 H   0  0  0  0  0  0  0  0  0  0  0  0
   -2.8596   11.4563   -6.3094 H   0  0  0  0  0  0  0  0  0  0  0  0
   -2.6569    9.7457   -8.0538 H   0  0  0  0  0  0  0  0  0  0  0  0
   -4.8908    8.7775   -8.4962 H   0  0  0  0  0  0  0  0  0  0  0  0
   -3.3931   13.9367   -6.1862 H   0  0  0  0  0  0  0  0  0  0  0  0
   -4.9432   14.4192   -6.9548 H   0  0  0  0  0  0  0  0  0  0  0  0
   -4.9436   13.6877   -5.3142 H   0  0  0  0  0  0  0  0  0  0  0  0
  1  2  2  0  0  0  0
  1  4  1  0  0  0  0
  1 13  1  0  0  0  0
  2  6  1  0  0  0  0
  3  4  1  0  0  0  0
  3  5  2  0  0  0  0
  5  6  1  0  0  0  0
  5  9  1  0  0  0  0
  6  7  2  0  0  0  0
  7  8  1  0  0  0  0
  7 10  1  0  0  0  0
  8  9  2  0  0  0  0
 10 15  2  3  0  0  0
 11 12  1  0  0  0  0
 11 13  1  0  0  0  0
 13 14  2  0  0  0  0
 15 16  1  0  0  0  0
 15 20  1  0  0  0  0
 16 17  2  0  0  0  0
 17 18  1  0  0  0  0
 17 21  1  0  0  0  0
 18 19  1  0  0  0  0
 19 20  2  0  0  0  0
  2 22  1  0  0  0  0
  3 23  1  0  0  0  0
  4 24  1  0  0  0  0
  4 25  1  0  0  0  0
 10 26  1  0  0  0  0
 11 27  1  0  0  0  0
 12 28  1  0  0  0  0
 12 29  1  0  0  0  0
 12 30  1  0  0  0  0
 16 31  1  0  0  0  0
 18 32  1  0  0  0  0
 18 33  1  0  0  0  0
 19 34  1  0  0  0  0
 20 35  1  0  0  0  0
 21 36  1  0  0  0  0
 21 37  1  0  0  0  0
 21 38  1  0  0  0  0
M  END
> <Name>
16

> <IC50[uM]>
0.17

$$$$
16
  -OEChem-05192314333D
 Structure written by MMmdl.
 38 40  0     0  0  0  0  0  0999 V2000
   -6.3886   12.3706  -12.0044 C   0  0  0  0  0  0  0  0  0  0  0  0
   -6.5217   11.8105  -10.7338 C   0  0  0  0  0  0  0  0  0  0  0  0
   -7.7267   10.5778  -13.0331 C   0  0  0  0  0  0  0  0  0  0  0  0
   -6.9997   11.7772  -13.1264 C   0  0  0  0  0  0  0  0  0  0  0  0
   -7.8245   10.0105  -11.7588 C   0  0  0  0  0  0  0  0  0  0  0  0
   -7.2447   10.6240  -10.5997 C   0  0  0  0  0  0  0  0  0  0  0  0
   -7.6157    9.7479   -9.5130 C   0  0  0  0  0  0  0  0  0  0  0  0
   -8.2818    8.7335   -9.9900 N   0  0  0  0  0  0  0  0  0  0  0  0
   -8.4155    8.8614  -11.3010 N   0  0  0  0  0  0  0  0  0  0  0  0
   -7.3377    9.8874   -8.0251 C   0  0  0  0  0  0  0  0  0  0  0  0
   -4.4115   13.6449  -11.4457 N   0  0  0  0  0  0  0  0  0  0  0  0
   -3.4644   14.7678  -11.5034 C   0  0  0  0  0  0  0  0  0  0  0  0
   -5.5490   13.6243  -12.1808 C   0  0  0  0  0  0  0  0  0  0  0  0
   -5.8784   14.5204  -12.9613 O   0  0  0  0  0  0  0  0  0  0  0  0
   -5.9596   10.4818   -7.7362 C   0  0  0  0  0  0  0  0  0  0  0  0
   -5.8460   11.7538   -7.1602 C   0  0  0  0  0  0  0  0  0  0  0  0
   -4.5819   12.3007   -6.9160 C   0  0  0  0  0  0  0  0  0  0  0  0
   -3.4335   11.5746   -7.2403 C   0  0  0  0  0  0  0  0  0  0  0  0
   -3.5461   10.3067   -7.8068 C   0  0  0  0  0  0  0  0  0  0  0  0
   -4.8068    9.7600   -8.0558 C   0  0  0  0  0  0  0  0  0  0  0  0
   -4.4568   13.6807   -6.3006 C   0  0  0  0  0  0  0  0  0  0  0  0
   -5.5067   11.6162  -10.3570 H   0  0  0  0  0  0  0  0  0  0  0  0
   -7.0113   12.5624  -10.0975 H   0  0  0  0  0  0  0  0  0  0  0  0
   -8.1843   10.1199  -13.8976 H   0  0  0  0  0  0  0  0  0  0  0  0
   -6.9067   12.2589  -14.0885 H   0  0  0  0  0  0  0  0  0  0  0  0
   -8.0380    9.5979   -7.2556 H   0  0  0  0  0  0  0  0  0  0  0  0
   -4.2095   12.8717  -10.8446 H   0  0  0  0  0  0  0  0  0  0  0  0
   -2.6189   14.5701  -10.8280 H   0  0  0  0  0  0  0  0  0  0  0  0
   -3.0927   14.8813  -12.5325 H   0  0  0  0  0  0  0  0  0  0  0  0
   -3.9729   15.6925  -11.1931 H   0  0  0  0  0  0  0  0  0  0  0  0
   -6.7345   12.3122   -6.9047 H   0  0  0  0  0  0  0  0  0  0  0  0
   -2.4573   11.9965   -7.0517 H   0  0  0  0  0  0  0  0  0  0  0  0
   -2.6569    9.7457   -8.0538 H   0  0  0  0  0  0  0  0  0  0  0  0
   -4.8589    8.8150   -7.4951 H   0  0  0  0  0  0  0  0  0  0  0  0
   -4.8535    9.5494   -9.1344 H   0  0  0  0  0  0  0  0  0  0  0  0
   -3.3931   13.9367   -6.1862 H   0  0  0  0  0  0  0  0  0  0  0  0
   -4.9432   14.4192   -6.9548 H   0  0  0  0  0  0  0  0  0  0  0  0
   -4.9436   13.6877   -5.3142 H   0  0  0  0  0  0  0  0  0  0  0  0
  1  2  1  0  0  0  0
  1  4  2  0  0  0  0
  1 13  1  0  0  0  0
  2  6  1  0  0  0  0
  3  4  1  0  0  0  0
  3  5  2  0  0  0  0
  5  6  1  0  0  0  0
  5  9  1  0  0  0  0
  6  7  2  0  0  0  0
  7  8  1  0  0  0  0
  7 10  1  0  0  0  0
  8  9  2  0  0  0  0
 10 15  2  3  0  0  0
 11 12  1  0  0  0  0
 11 13  1  0  0  0  0
 13 14  2  0  0  0  0
 15 16  1  0  0  0  0
 15 20  1  0  0  0  0
 16 17  2  0  0  0  0
 17 18  1  0  0  0  0
 17 21  1  0  0  0  0
 18 19  2  0  0  0  0
 19 20  1  0  0  0  0
  2 22  1  0  0  0  0
  2 23  1  0  0  0  0
  3 24  1  0  0  0  0
  4 25  1  0  0  0  0
 10 26  1  0  0  0  0
 11 27  1  0  0  0  0
 12 28  1  0  0  0  0
 12 29  1  0  0  0  0
 12 30  1  0  0  0  0
 16 31  1  0  0  0  0
 18 32  1  0  0  0  0
 19 33  1  0  0  0  0
 20 34  1  0  0  0  0
 20 35  1  0  0  0  0
 21 36  1  0  0  0  0
 21 37  1  0  0  0  0
 21 38  1  0  0  0  0
M  END
> <Name>
16

> <IC50[uM]>
0.17

$$$$
16
  -OEChem-05192314333D
 Structure written by MMmdl.
 38 40  0     0  0  0  0  0  0999 V2000
   -6.3886   12.3706  -12.0044 C   0  0  0  0  0  0  0  0  0  0  0  0
   -6.5217   11.8105  -10.7338 C   0  0  0  0  0  0  0  0  0  0  0  0
   -7.7267   10.5778  -13.0331 C   0  0  0  0  0  0  0  0  0  0  0  0
   -6.9997   11.7772  -13.1264 C   0  0  0  0  0  0  0  0  0  0  0  0
   -7.8245   10.0105  -11.7588 C   0  0  0  0  0  0  0  0  0  0  0  0
   -7.2447   10.6240  -10.5997 C   0  0  0  0  0  0  0  0  0  0  0  0
   -7.6157    9.7479   -9.5130 C   0  0  0  0  0  0  0  0  0  0  0  0
   -8.2818    8.7335   -9.9900 N   0  0  0  0  0  0  0  0  0  0  0  0
   -8.4155    8.8614  -11.3010 N   0  0  0  0  0  0  0  0  0  0  0  0
   -7.3377    9.8874   -8.0251 C   0  0  0  0  0  0  0  0  0  0  0  0
   -4.4115   13.6449  -11.4457 N   0  0  0  0  0  0  0  0  0  0  0  0
   -3.4644   14.7678  -11.5034 C   0  0  0  0  0  0  0  0  0  0  0  0
   -5.5490   13.6243  -12.1808 C   0  0  0  0  0  0  0  0  0  0  0  0
   -5.8784   14.5204  -12.9613 O   0  0  0  0  0  0  0  0  0  0  0  0
   -5.9596   10.4818   -7.7362 C   0  0  0  0  0  0  0  0  0  0  0  0
   -5.8460   11.7538   -7.1602 C   0  0  0  0  0  0  0  0  0  0  0  0
   -4.5819   12.3007   -6.9160 C   0  0  0  0  0  0  0  0  0  0  0  0
   -3.4335   11.5746   -7.2403 C   0  0  0  0  0  0  0  0  0  0  0  0
   -3.5461   10.3067   -7.8068 C   0  0  0  0  0  0  0  0  0  0  0  0
   -4.8068    9.7600   -8.0558 C   0  0  0  0  0  0  0  0  0  0  0  0
   -4.4568   13.6807   -6.3006 C   0  0  0  0  0  0  0  0  0  0  0  0
   -5.5067   11.6162  -10.3570 H   0  0  0  0  0  0  0  0  0  0  0  0
   -7.0113   12.5624  -10.0975 H   0  0  0  0  0  0  0  0  0  0  0  0
   -8.1843   10.1199  -13.8976 H   0  0  0  0  0  0  0  0  0  0  0  0
   -6.9067   12.2589  -14.0885 H   0  0  0  0  0  0  0  0  0  0  0  0
   -8.0380    9.5979   -7.2556 H   0  0  0  0  0  0  0  0  0  0  0  0
   -4.2095   12.8717  -10.8446 H   0  0  0  0  0  0  0  0  0  0  0  0
   -2.6189   14.5701  -10.8280 H   0  0  0  0  0  0  0  0  0  0  0  0
   -3.0927   14.8813  -12.5325 H   0  0  0  0  0  0  0  0  0  0  0  0
   -3.9729   15.6925  -11.1931 H   0  0  0  0  0  0  0  0  0  0  0  0
   -6.7345   12.3122   -6.9047 H   0  0  0  0  0  0  0  0  0  0  0  0
   -2.8594   12.1890   -7.9494 H   0  0  0  0  0  0  0  0  0  0  0  0
   -2.8596   11.4563   -6.3094 H   0  0  0  0  0  0  0  0  0  0  0  0
   -2.6569    9.7457   -8.0538 H   0  0  0  0  0  0  0  0  0  0  0  0
   -4.8908    8.7775   -8.4962 H   0  0  0  0  0  0  0  0  0  0  0  0
   -3.3931   13.9367   -6.1862 H   0  0  0  0  0  0  0  0  0  0  0  0
   -4.9432   14.4192   -6.9548 H   0  0  0  0  0  0  0  0  0  0  0  0
   -4.9436   13.6877   -5.3142 H   0  0  0  0  0  0  0  0  0  0  0  0
  1  2  1  0  0  0  0
  1  4  2  0  0  0  0
  1 13  1  0  0  0  0
  2  6  1  0  0  0  0
  3  4  1  0  0  0  0
  3  5  2  0  0  0  0
  5  6  1  0  0  0  0
  5  9  1  0  0  0  0
  6  7  2  0  0  0  0
  7  8  1  0  0  0  0
  7 10  1  0  0  0  0
  8  9  2  0  0  0  0
 10 15  2  3  0  0  0
 11 12  1  0  0  0  0
 11 13  1  0  0  0  0
 13 14  2  0  0  0  0
 15 16  1  0  0  0  0
 15 20  1  0  0  0  0
 16 17  2  0  0  0  0
 17 18  1  0  0  0  0
 17 21  1  0  0  0  0
 18 19  1  0  0  0  0
 19 20  2  0  0  0  0
  2 22  1  0  0  0  0
  2 23  1  0  0  0  0
  3 24  1  0  0  0  0
  4 25  1  0  0  0  0
 10 26  1  0  0  0  0
 11 27  1  0  0  0  0
 12 28  1  0  0  0  0
 12 29  1  0  0  0  0
 12 30  1  0  0  0  0
 16 31  1  0  0  0  0
 18 32  1  0  0  0  0
 18 33  1  0  0  0  0
 19 34  1  0  0  0  0
 20 35  1  0  0  0  0
 21 36  1  0  0  0  0
 21 37  1  0  0  0  0
 21 38  1  0  0  0  0
M  END
> <Name>
16

> <IC50[uM]>
0.17

$$$$
16
  -OEChem-05192314333D
 Structure written by MMmdl.
 38 40  0     1  0  0  0  0  0999 V2000
   -6.3886   12.3706  -12.0044 C   0  0  0  0  0  0  0  0  0  0  0  0
   -6.5217   11.8105  -10.7338 C   0  0  0  0  0  0  0  0  0  0  0  0
   -7.7267   10.5778  -13.0331 C   0  0  0  0  0  0  0  0  0  0  0  0
   -6.9997   11.7772  -13.1264 C   0  0  0  0  0  0  0  0  0  0  0  0
   -7.8245   10.0105  -11.7588 C   0  0  3  0  0  0  0  0  0  0  0  0
   -7.2447   10.6240  -10.5997 C   0  0  0  0  0  0  0  0  0  0  0  0
   -7.6157    9.7479   -9.5130 C   0  0  0  0  0  0  0  0  0  0  0  0
   -8.2818    8.7335   -9.9900 N   0  0  0  0  0  0  0  0  0  0  0  0
   -8.4155    8.8614  -11.3010 N   0  0  0  0  0  0  0  0  0  0  0  0
   -7.3377    9.8874   -8.0251 C   0  0  0  0  0  0  0  0  0  0  0  0
   -4.4115   13.6449  -11.4457 N   0  0  0  0  0  0  0  0  0  0  0  0
   -3.4644   14.7678  -11.5034 C   0  0  0  0  0  0  0  0  0  0  0  0
   -5.5490   13.6243  -12.1808 C   0  0  0  0  0  0  0  0  0  0  0  0
   -5.8784   14.5204  -12.9613 O   0  0  0  0  0  0  0  0  0  0  0  0
   -5.9596   10.4818   -7.7362 C   0  0  0  0  0  0  0  0  0  0  0  0
   -5.8460   11.7538   -7.1602 C   0  0  0  0  0  0  0  0  0  0  0  0
   -4.5819   12.3007   -6.9160 C   0  0  0  0  0  0  0  0  0  0  0  0
   -3.4335   11.5746   -7.2403 C   0  0  0  0  0  0  0  0  0  0  0  0
   -3.5461   10.3067   -7.8068 C   0  0  0  0  0  0  0  0  0  0  0  0
   -4.8068    9.7600   -8.0558 C   0  0  0  0  0  0  0  0  0  0  0  0
   -4.4568   13.6807   -6.3006 C   0  0  0  0  0  0  0  0  0  0  0  0
   -6.0750   12.2846   -9.8724 H   0  0  0  0  0  0  0  0  0  0  0  0
   -8.1843   10.1199  -13.8976 H   0  0  0  0  0  0  0  0  0  0  0  0
   -6.9067   12.2589  -14.0885 H   0  0  0  0  0  0  0  0  0  0  0  0
   -8.7599   10.5623  -11.5840 H   0  0  0  0  0  0  0  0  0  0  0  0
   -8.0380    9.5979   -7.2556 H   0  0  0  0  0  0  0  0  0  0  0  0
   -4.2095   12.8717  -10.8446 H   0  0  0  0  0  0  0  0  0  0  0  0
   -2.6189   14.5701  -10.8280 H   0  0  0  0  0  0  0  0  0  0  0  0
   -3.0927   14.8813  -12.5325 H   0  0  0  0  0  0  0  0  0  0  0  0
   -3.9729   15.6925  -11.1931 H   0  0  0  0  0  0  0  0  0  0  0  0
   -6.3708   12.4528   -7.8280 H   0  0  0  0  0  0  0  0  0  0  0  0
   -6.3661   11.7115   -6.1919 H   0  0  0  0  0  0  0  0  0  0  0  0
   -2.4573   11.9965   -7.0517 H   0  0  0  0  0  0  0  0  0  0  0  0
   -2.6569    9.7457   -8.0538 H   0  0  0  0  0  0  0  0  0  0  0  0
   -4.8908    8.7775   -8.4962 H   0  0  0  0  0  0  0  0  0  0  0  0
   -3.3931   13.9367   -6.1862 H   0  0  0  0  0  0  0  0  0  0  0  0
   -4.9432   14.4192   -6.9548 H   0  0  0  0  0  0  0  0  0  0  0  0
   -4.9436   13.6877   -5.3142 H   0  0  0  0  0  0  0  0  0  0  0  0
  1  2  2  0  0  0  0
  1  4  1  0  0  0  0
  1 13  1  0  0  0  0
  2  6  1  0  0  0  0
  3  4  2  0  0  0  0
  3  5  1  0  0  0  0
  5  6  1  0  0  0  0
  5  9  1  0  0  0  0
  6  7  2  0  0  0  0
  7  8  1  0  0  0  0
  7 10  1  0  0  0  0
  8  9  2  0  0  0  0
 10 15  2  3  0  0  0
 11 12  1  0  0  0  0
 11 13  1  0  0  0  0
 13 14  2  0  0  0  0
 15 16  1  0  0  0  0
 15 20  1  0  0  0  0
 16 17  1  0  0  0  0
 17 18  2  0  0  0  0
 17 21  1  0  0  0  0
 18 19  1  0  0  0  0
 19 20  2  0  0  0  0
  2 22  1  0  0  0  0
  3 23  1  0  0  0  0
  4 24  1  0  0  0  0
  5 25  1  0  0  0  0
 10 26  1  0  0  0  0
 11 27  1  0  0  0  0
 12 28  1  0  0  0  0
 12 29  1  0  0  0  0
 12 30  1  0  0  0  0
 16 31  1  0  0  0  0
 16 32  1  0  0  0  0
 18 33  1  0  0  0  0
 19 34  1  0  0  0  0
 20 35  1  0  0  0  0
 21 36  1  0  0  0  0
 21 37  1  0  0  0  0
 21 38  1  0  0  0  0
M  END
> <Name>
16

> <IC50[uM]>
0.17

$$$$
16
  -OEChem-05192314333D
 Structure written by MMmdl.
 38 40  0     0  0  0  0  0  0999 V2000
   -6.3886   12.3706  -12.0044 C   0  0  0  0  0  0  0  0  0  0  0  0
   -6.5217   11.8105  -10.7338 C   0  0  0  0  0  0  0  0  0  0  0  0
   -7.7267   10.5778  -13.0331 C   0  0  0  0  0  0  0  0  0  0  0  0
   -6.9997   11.7772  -13.1264 C   0  0  0  0  0  0  0  0  0  0  0  0
   -7.8245   10.0105  -11.7588 C   0  0  0  0  0  0  0  0  0  0  0  0
   -7.2447   10.6240  -10.5997 C   0  0  0  0  0  0  0  0  0  0  0  0
   -7.6157    9.7479   -9.5130 C   0  0  0  0  0  0  0  0  0  0  0  0
   -8.2818    8.7335   -9.9900 N   0  0  0  0  0  0  0  0  0  0  0  0
   -8.4155    8.8614  -11.3010 N   0  0  0  0  0  0  0  0  0  0  0  0
   -7.3377    9.8874   -8.0251 C   0  0  0  0  0  0  0  0  0  0  0  0
   -4.4115   13.6449  -11.4457 N   0  0  0  0  0  0  0  0  0  0  0  0
   -3.4644   14.7678  -11.5034 C   0  0  0  0  0  0  0  0  0  0  0  0
   -5.5490   13.6243  -12.1808 C   0  0  0  0  0  0  0  0  0  0  0  0
   -5.8784   14.5204  -12.9613 O   0  0  0  0  0  0  0  0  0  0  0  0
   -5.9596   10.4818   -7.7362 C   0  0  0  0  0  0  0  0  0  0  0  0
   -5.8460   11.7538   -7.1602 C   0  0  0  0  0  0  0  0  0  0  0  0
   -4.5819   12.3007   -6.9160 C   0  0  0  0  0  0  0  0  0  0  0  0
   -3.4335   11.5746   -7.2403 C   0  0  0  0  0  0  0  0  0  0  0  0
   -3.5461   10.3067   -7.8068 C   0  0  0  0  0  0  0  0  0  0  0  0
   -4.8068    9.7600   -8.0558 C   0  0  0  0  0  0  0  0  0  0  0  0
   -4.4568   13.6807   -6.3006 C   0  0  0  0  0  0  0  0  0  0  0  0
   -6.0750   12.2846   -9.8724 H   0  0  0  0  0  0  0  0  0  0  0  0
   -8.1843   10.1199  -13.8976 H   0  0  0  0  0  0  0  0  0  0  0  0
   -7.6950   12.5276  -13.5308 H   0  0  0  0  0  0  0  0  0  0  0  0
   -6.1951   11.5934  -13.8536 H   0  0  0  0  0  0  0  0  0  0  0  0
   -8.0380    9.5979   -7.2556 H   0  0  0  0  0  0  0  0  0  0  0  0
   -4.2095   12.8717  -10.8446 H   0  0  0  0  0  0  0  0  0  0  0  0
   -2.6189   14.5701  -10.8280 H   0  0  0  0  0  0  0  0  0  0  0  0
   -3.0927   14.8813  -12.5325 H   0  0  0  0  0  0  0  0  0  0  0  0
   -3.9729   15.6925  -11.1931 H   0  0  0  0  0  0  0  0  0  0  0  0
   -6.3708   12.4528   -7.8280 H   0  0  0  0  0  0  0  0  0  0  0  0
   -6.3661   11.7115   -6.1919 H   0  0  0  0  0  0  0  0  0  0  0  0
   -2.4573   11.9965   -7.0517 H   0  0  0  0  0  0  0  0  0  0  0  0
   -2.6569    9.7457   -8.0538 H   0  0  0  0  0  0  0  0  0  0  0  0
   -4.8908    8.7775   -8.4962 H   0  0  0  0  0  0  0  0  0  0  0  0
   -3.3931   13.9367   -6.1862 H   0  0  0  0  0  0  0  0  0  0  0  0
   -4.9432   14.4192   -6.9548 H   0  0  0  0  0  0  0  0  0  0  0  0
   -4.9436   13.6877   -5.3142 H   0  0  0  0  0  0  0  0  0  0  0  0
  1  2  2  0  0  0  0
  1  4  1  0  0  0  0
  1 13  1  0  0  0  0
  2  6  1  0  0  0  0
  3  4  1  0  0  0  0
  3  5  2  0  0  0  0
  5  6  1  0  0  0  0
  5  9  1  0  0  0  0
  6  7  2  0  0  0  0
  7  8  1  0  0  0  0
  7 10  1  0  0  0  0
  8  9  2  0  0  0  0
 10 15  2  3  0  0  0
 11 12  1  0  0  0  0
 11 13  1  0  0  0  0
 13 14  2  0  0  0  0
 15 16  1  0  0  0  0
 15 20  1  0  0  0  0
 16 17  1  0  0  0  0
 17 18  2  0  0  0  0
 17 21  1  0  0  0  0
 18 19  1  0  0  0  0
 19 20  2  0  0  0  0
  2 22  1  0  0  0  0
  3 23  1  0  0  0  0
  4 24  1  0  0  0  0
  4 25  1  0  0  0  0
 10 26  1  0  0  0  0
 11 27  1  0  0  0  0
 12 28  1  0  0  0  0
 12 29  1  0  0  0  0
 12 30  1  0  0  0  0
 16 31  1  0  0  0  0
 16 32  1  0  0  0  0
 18 33  1  0  0  0  0
 19 34  1  0  0  0  0
 20 35  1  0  0  0  0
 21 36  1  0  0  0  0
 21 37  1  0  0  0  0
 21 38  1  0  0  0  0
M  END
> <Name>
16

> <IC50[uM]>
0.17

$$$$
16
  -OEChem-05192314333D
 Structure written by MMmdl.
 38 40  0     0  0  0  0  0  0999 V2000
   -6.3886   12.3706  -12.0044 C   0  0  0  0  0  0  0  0  0  0  0  0
   -6.5217   11.8105  -10.7338 C   0  0  0  0  0  0  0  0  0  0  0  0
   -7.7267   10.5778  -13.0331 C   0  0  0  0  0  0  0  0  0  0  0  0
   -6.9997   11.7772  -13.1264 C   0  0  0  0  0  0  0  0  0  0  0  0
   -7.8245   10.0105  -11.7588 C   0  0  0  0  0  0  0  0  0  0  0  0
   -7.2447   10.6240  -10.5997 C   0  0  0  0  0  0  0  0  0  0  0  0
   -7.6157    9.7479   -9.5130 C   0  0  0  0  0  0  0  0  0  0  0  0
   -8.2818    8.7335   -9.9900 N   0  0  0  0  0  0  0  0  0  0  0  0
   -8.4155    8.8614  -11.3010 N   0  0  0  0  0  0  0  0  0  0  0  0
   -7.3377    9.8874   -8.0251 C   0  0  0  0  0  0  0  0  0  0  0  0
   -4.4115   13.6449  -11.4457 N   0  0  0  0  0  0  0  0  0  0  0  0
   -3.4644   14.7678  -11.5034 C   0  0  0  0  0  0  0  0  0  0  0  0
   -5.5490   13.6243  -12.1808 C   0  0  0  0  0  0  0  0  0  0  0  0
   -5.8784   14.5204  -12.9613 O   0  0  0  0  0  0  0  0  0  0  0  0
   -5.9596   10.4818   -7.7362 C   0  0  0  0  0  0  0  0  0  0  0  0
   -5.8460   11.7538   -7.1602 C   0  0  0  0  0  0  0  0  0  0  0  0
   -4.5819   12.3007   -6.9160 C   0  0  0  0  0  0  0  0  0  0  0  0
   -3.4335   11.5746   -7.2403 C   0  0  0  0  0  0  0  0  0  0  0  0
   -3.5461   10.3067   -7.8068 C   0  0  0  0  0  0  0  0  0  0  0  0
   -4.8068    9.7600   -8.0558 C   0  0  0  0  0  0  0  0  0  0  0  0
   -4.4568   13.6807   -6.3006 C   0  0  0  0  0  0  0  0  0  0  0  0
   -5.5067   11.6162  -10.3570 H   0  0  0  0  0  0  0  0  0  0  0  0
   -7.0113   12.5624  -10.0975 H   0  0  0  0  0  0  0  0  0  0  0  0
   -8.1843   10.1199  -13.8976 H   0  0  0  0  0  0  0  0  0  0  0  0
   -6.9067   12.2589  -14.0885 H   0  0  0  0  0  0  0  0  0  0  0  0
   -8.0380    9.5979   -7.2556 H   0  0  0  0  0  0  0  0  0  0  0  0
   -4.2095   12.8717  -10.8446 H   0  0  0  0  0  0  0  0  0  0  0  0
   -2.6189   14.5701  -10.8280 H   0  0  0  0  0  0  0  0  0  0  0  0
   -3.0927   14.8813  -12.5325 H   0  0  0  0  0  0  0  0  0  0  0  0
   -3.9729   15.6925  -11.1931 H   0  0  0  0  0  0  0  0  0  0  0  0
   -6.3708   12.4528   -7.8280 H   0  0  0  0  0  0  0  0  0  0  0  0
   -6.3661   11.7115   -6.1919 H   0  0  0  0  0  0  0  0  0  0  0  0
   -2.4573   11.9965   -7.0517 H   0  0  0  0  0  0  0  0  0  0  0  0
   -2.6569    9.7457   -8.0538 H   0  0  0  0  0  0  0  0  0  0  0  0
   -4.8908    8.7775   -8.4962 H   0  0  0  0  0  0  0  0  0  0  0  0
   -3.3931   13.9367   -6.1862 H   0  0  0  0  0  0  0  0  0  0  0  0
   -4.9432   14.4192   -6.9548 H   0  0  0  0  0  0  0  0  0  0  0  0
   -4.9436   13.6877   -5.3142 H   0  0  0  0  0  0  0  0  0  0  0  0
  1  2  1  0  0  0  0
  1  4  2  0  0  0  0
  1 13  1  0  0  0  0
  2  6  1  0  0  0  0
  3  4  1  0  0  0  0
  3  5  2  0  0  0  0
  5  6  1  0  0  0  0
  5  9  1  0  0  0  0
  6  7  2  0  0  0  0
  7  8  1  0  0  0  0
  7 10  1  0  0  0  0
  8  9  2  0  0  0  0
 10 15  2  3  0  0  0
 11 12  1  0  0  0  0
 11 13  1  0  0  0  0
 13 14  2  0  0  0  0
 15 16  1  0  0  0  0
 15 20  1  0  0  0  0
 16 17  1  0  0  0  0
 17 18  2  0  0  0  0
 17 21  1  0  0  0  0
 18 19  1  0  0  0  0
 19 20  2  0  0  0  0
  2 22  1  0  0  0  0
  2 23  1  0  0  0  0
  3 24  1  0  0  0  0
  4 25  1  0  0  0  0
 10 26  1  0  0  0  0
 11 27  1  0  0  0  0
 12 28  1  0  0  0  0
 12 29  1  0  0  0  0
 12 30  1  0  0  0  0
 16 31  1  0  0  0  0
 16 32  1  0  0  0  0
 18 33  1  0  0  0  0
 19 34  1  0  0  0  0
 20 35  1  0  0  0  0
 21 36  1  0  0  0  0
 21 37  1  0  0  0  0
 21 38  1  0  0  0  0
M  END
> <Name>
16

> <IC50[uM]>
0.17

$$$$
16
  -OEChem-05192314333D
 Structure written by MMmdl.
 38 40  0     1  0  0  0  0  0999 V2000
   -6.3886   12.3706  -12.0044 C   0  0  0  0  0  0  0  0  0  0  0  0
   -6.5217   11.8105  -10.7338 C   0  0  0  0  0  0  0  0  0  0  0  0
   -7.7267   10.5778  -13.0331 C   0  0  0  0  0  0  0  0  0  0  0  0
   -6.9997   11.7772  -13.1264 C   0  0  0  0  0  0  0  0  0  0  0  0
   -7.8245   10.0105  -11.7588 C   0  0  3  0  0  0  0  0  0  0  0  0
   -7.2447   10.6240  -10.5997 C   0  0  0  0  0  0  0  0  0  0  0  0
   -7.6157    9.7479   -9.5130 C   0  0  0  0  0  0  0  0  0  0  0  0
   -8.2818    8.7335   -9.9900 N   0  0  0  0  0  0  0  0  0  0  0  0
   -8.4155    8.8614  -11.3010 N   0  0  0  0  0  0  0  0  0  0  0  0
   -7.3377    9.8874   -8.0251 C   0  0  0  0  0  0  0  0  0  0  0  0
   -4.4115   13.6449  -11.4457 N   0  0  0  0  0  0  0  0  0  0  0  0
   -3.4644   14.7678  -11.5034 C   0  0  0  0  0  0  0  0  0  0  0  0
   -5.5490   13.6243  -12.1808 C   0  0  0  0  0  0  0  0  0  0  0  0
   -5.8784   14.5204  -12.9613 O   0  0  0  0  0  0  0  0  0  0  0  0
   -5.9596   10.4818   -7.7362 C   0  0  0  0  0  0  0  0  0  0  0  0
   -5.8460   11.7538   -7.1602 C   0  0  0  0  0  0  0  0  0  0  0  0
   -4.5819   12.3007   -6.9160 C   0  0  0  0  0  0  0  0  0  0  0  0
   -3.4335   11.5746   -7.2403 C   0  0  0  0  0  0  0  0  0  0  0  0
   -3.5461   10.3067   -7.8068 C   0  0  0  0  0  0  0  0  0  0  0  0
   -4.8068    9.7600   -8.0558 C   0  0  0  0  0  0  0  0  0  0  0  0
   -4.4568   13.6807   -6.3006 C   0  0  0  0  0  0  0  0  0  0  0  0
   -6.0750   12.2846   -9.8724 H   0  0  0  0  0  0  0  0  0  0  0  0
   -8.1843   10.1199  -13.8976 H   0  0  0  0  0  0  0  0  0  0  0  0
   -6.9067   12.2589  -14.0885 H   0  0  0  0  0  0  0  0  0  0  0  0
   -8.7599   10.5623  -11.5840 H   0  0  0  0  0  0  0  0  0  0  0  0
   -8.0380    9.5979   -7.2556 H   0  0  0  0  0  0  0  0  0  0  0  0
   -2.6189   14.5701  -10.8280 H   0  0  0  0  0  0  0  0  0  0  0  0
   -3.0927   14.8813  -12.5325 H   0  0  0  0  0  0  0  0  0  0  0  0
   -3.9729   15.6925  -11.1931 H   0  0  0  0  0  0  0  0  0  0  0  0
   -5.2336   15.2175  -12.9341 H   0  0  0  0  0  0  0  0  0  0  0  0
   -6.7345   12.3122   -6.9047 H   0  0  0  0  0  0  0  0  0  0  0  0
   -2.4573   11.9965   -7.0517 H   0  0  0  0  0  0  0  0  0  0  0  0
   -2.6569    9.7457   -8.0538 H   0  0  0  0  0  0  0  0  0  0  0  0
   -4.8589    8.8150   -7.4951 H   0  0  0  0  0  0  0  0  0  0  0  0
   -4.8535    9.5494   -9.1344 H   0  0  0  0  0  0  0  0  0  0  0  0
   -3.3931   13.9367   -6.1862 H   0  0  0  0  0  0  0  0  0  0  0  0
   -4.9432   14.4192   -6.9548 H   0  0  0  0  0  0  0  0  0  0  0  0
   -4.9436   13.6877   -5.3142 H   0  0  0  0  0  0  0  0  0  0  0  0
  1  2  2  0  0  0  0
  1  4  1  0  0  0  0
  1 13  1  0  0  0  0
  2  6  1  0  0  0  0
  3  4  2  0  0  0  0
  3  5  1  0  0  0  0
  5  6  1  0  0  0  0
  5  9  1  0  0  0  0
  6  7  2  0  0  0  0
  7  8  1  0  0  0  0
  7 10  1  0  0  0  0
  8  9  2  0  0  0  0
 10 15  2  3  0  0  0
 11 12  1  0  0  0  0
 11 13  2  0  0  0  0
 13 14  1  0  0  0  0
 15 16  1  0  0  0  0
 15 20  1  0  0  0  0
 16 17  2  0  0  0  0
 17 18  1  0  0  0  0
 17 21  1  0  0  0  0
 18 19  2  0  0  0  0
 19 20  1  0  0  0  0
  2 22  1  0  0  0  0
  3 23  1  0  0  0  0
  4 24  1  0  0  0  0
  5 25  1  0  0  0  0
 10 26  1  0  0  0  0
 12 27  1  0  0  0  0
 12 28  1  0  0  0  0
 12 29  1  0  0  0  0
 14 30  1  0  0  0  0
 16 31  1  0  0  0  0
 18 32  1  0  0  0  0
 19 33  1  0  0  0  0
 20 34  1  0  0  0  0
 20 35  1  0  0  0  0
 21 36  1  0  0  0  0
 21 37  1  0  0  0  0
 21 38  1  0  0  0  0
M  END
> <Name>
16

> <IC50[uM]>
0.17

$$$$
16
  -OEChem-05192314333D
 Structure written by MMmdl.
 38 40  0     0  0  0  0  0  0999 V2000
   -6.3886   12.3706  -12.0044 C   0  0  0  0  0  0  0  0  0  0  0  0
   -6.5217   11.8105  -10.7338 C   0  0  0  0  0  0  0  0  0  0  0  0
   -7.7267   10.5778  -13.0331 C   0  0  0  0  0  0  0  0  0  0  0  0
   -6.9997   11.7772  -13.1264 C   0  0  0  0  0  0  0  0  0  0  0  0
   -7.8245   10.0105  -11.7588 C   0  0  0  0  0  0  0  0  0  0  0  0
   -7.2447   10.6240  -10.5997 C   0  0  0  0  0  0  0  0  0  0  0  0
   -7.6157    9.7479   -9.5130 C   0  0  0  0  0  0  0  0  0  0  0  0
   -8.2818    8.7335   -9.9900 N   0  0  0  0  0  0  0  0  0  0  0  0
   -8.4155    8.8614  -11.3010 N   0  0  0  0  0  0  0  0  0  0  0  0
   -7.3377    9.8874   -8.0251 C   0  0  0  0  0  0  0  0  0  0  0  0
   -4.4115   13.6449  -11.4457 N   0  0  0  0  0  0  0  0  0  0  0  0
   -3.4644   14.7678  -11.5034 C   0  0  0  0  0  0  0  0  0  0  0  0
   -5.5490   13.6243  -12.1808 C   0  0  0  0  0  0  0  0  0  0  0  0
   -5.8784   14.5204  -12.9613 O   0  0  0  0  0  0  0  0  0  0  0  0
   -5.9596   10.4818   -7.7362 C   0  0  0  0  0  0  0  0  0  0  0  0
   -5.8460   11.7538   -7.1602 C   0  0  0  0  0  0  0  0  0  0  0  0
   -4.5819   12.3007   -6.9160 C   0  0  0  0  0  0  0  0  0  0  0  0
   -3.4335   11.5746   -7.2403 C   0  0  0  0  0  0  0  0  0  0  0  0
   -3.5461   10.3067   -7.8068 C   0  0  0  0  0  0  0  0  0  0  0  0
   -4.8068    9.7600   -8.0558 C   0  0  0  0  0  0  0  0  0  0  0  0
   -4.4568   13.6807   -6.3006 C   0  0  0  0  0  0  0  0  0  0  0  0
   -6.0750   12.2846   -9.8724 H   0  0  0  0  0  0  0  0  0  0  0  0
   -8.1843   10.1199  -13.8976 H   0  0  0  0  0  0  0  0  0  0  0  0
   -7.6950   12.5276  -13.5308 H   0  0  0  0  0  0  0  0  0  0  0  0
   -6.1951   11.5934  -13.8536 H   0  0  0  0  0  0  0  0  0  0  0  0
   -8.0380    9.5979   -7.2556 H   0  0  0  0  0  0  0  0  0  0  0  0
   -2.6189   14.5701  -10.8280 H   0  0  0  0  0  0  0  0  0  0  0  0
   -3.0927   14.8813  -12.5325 H   0  0  0  0  0  0  0  0  0  0  0  0
   -3.9729   15.6925  -11.1931 H   0  0  0  0  0  0  0  0  0  0  0  0
   -5.2336   15.2175  -12.9341 H   0  0  0  0  0  0  0  0  0  0  0  0
   -6.7345   12.3122   -6.9047 H   0  0  0  0  0  0  0  0  0  0  0  0
   -2.4573   11.9965   -7.0517 H   0  0  0  0  0  0  0  0  0  0  0  0
   -2.6569    9.7457   -8.0538 H   0  0  0  0  0  0  0  0  0  0  0  0
   -4.8589    8.8150   -7.4951 H   0  0  0  0  0  0  0  0  0  0  0  0
   -4.8535    9.5494   -9.1344 H   0  0  0  0  0  0  0  0  0  0  0  0
   -3.3931   13.9367   -6.1862 H   0  0  0  0  0  0  0  0  0  0  0  0
   -4.9432   14.4192   -6.9548 H   0  0  0  0  0  0  0  0  0  0  0  0
   -4.9436   13.6877   -5.3142 H   0  0  0  0  0  0  0  0  0  0  0  0
  1  2  2  0  0  0  0
  1  4  1  0  0  0  0
  1 13  1  0  0  0  0
  2  6  1  0  0  0  0
  3  4  1  0  0  0  0
  3  5  2  0  0  0  0
  5  6  1  0  0  0  0
  5  9  1  0  0  0  0
  6  7  2  0  0  0  0
  7  8  1  0  0  0  0
  7 10  1  0  0  0  0
  8  9  2  0  0  0  0
 10 15  2  3  0  0  0
 11 12  1  0  0  0  0
 11 13  2  0  0  0  0
 13 14  1  0  0  0  0
 15 16  1  0  0  0  0
 15 20  1  0  0  0  0
 16 17  2  0  0  0  0
 17 18  1  0  0  0  0
 17 21  1  0  0  0  0
 18 19  2  0  0  0  0
 19 20  1  0  0  0  0
  2 22  1  0  0  0  0
  3 23  1  0  0  0  0
  4 24  1  0  0  0  0
  4 25  1  0  0  0  0
 10 26  1  0  0  0  0
 12 27  1  0  0  0  0
 12 28  1  0  0  0  0
 12 29  1  0  0  0  0
 14 30  1  0  0  0  0
 16 31  1  0  0  0  0
 18 32  1  0  0  0  0
 19 33  1  0  0  0  0
 20 34  1  0  0  0  0
 20 35  1  0  0  0  0
 21 36  1  0  0  0  0
 21 37  1  0  0  0  0
 21 38  1  0  0  0  0
M  END
> <Name>
16

> <IC50[uM]>
0.17

$$$$
16
  -OEChem-05192314333D
 Structure written by MMmdl.
 38 40  0     1  0  0  0  0  0999 V2000
   -6.3886   12.3706  -12.0044 C   0  0  0  0  0  0  0  0  0  0  0  0
   -6.5217   11.8105  -10.7338 C   0  0  0  0  0  0  0  0  0  0  0  0
   -7.7267   10.5778  -13.0331 C   0  0  0  0  0  0  0  0  0  0  0  0
   -6.9997   11.7772  -13.1264 C   0  0  0  0  0  0  0  0  0  0  0  0
   -7.8245   10.0105  -11.7588 C   0  0  3  0  0  0  0  0  0  0  0  0
   -7.2447   10.6240  -10.5997 C   0  0  0  0  0  0  0  0  0  0  0  0
   -7.6157    9.7479   -9.5130 C   0  0  0  0  0  0  0  0  0  0  0  0
   -8.2818    8.7335   -9.9900 N   0  0  0  0  0  0  0  0  0  0  0  0
   -8.4155    8.8614  -11.3010 N   0  0  0  0  0  0  0  0  0  0  0  0
   -7.3377    9.8874   -8.0251 C   0  0  0  0  0  0  0  0  0  0  0  0
   -4.4115   13.6449  -11.4457 N   0  0  0  0  0  0  0  0  0  0  0  0
   -3.4644   14.7678  -11.5034 C   0  0  0  0  0  0  0  0  0  0  0  0
   -5.5490   13.6243  -12.1808 C   0  0  0  0  0  0  0  0  0  0  0  0
   -5.8784   14.5204  -12.9613 O   0  0  0  0  0  0  0  0  0  0  0  0
   -5.9596   10.4818   -7.7362 C   0  0  0  0  0  0  0  0  0  0  0  0
   -5.8460   11.7538   -7.1602 C   0  0  0  0  0  0  0  0  0  0  0  0
   -4.5819   12.3007   -6.9160 C   0  0  0  0  0  0  0  0  0  0  0  0
   -3.4335   11.5746   -7.2403 C   0  0  0  0  0  0  0  0  0  0  0  0
   -3.5461   10.3067   -7.8068 C   0  0  0  0  0  0  0  0  0  0  0  0
   -4.8068    9.7600   -8.0558 C   0  0  0  0  0  0  0  0  0  0  0  0
   -4.4568   13.6807   -6.3006 C   0  0  0  0  0  0  0  0  0  0  0  0
   -6.0750   12.2846   -9.8724 H   0  0  0  0  0  0  0  0  0  0  0  0
   -8.1843   10.1199  -13.8976 H   0  0  0  0  0  0  0  0  0  0  0  0
   -6.9067   12.2589  -14.0885 H   0  0  0  0  0  0  0  0  0  0  0  0
   -8.7599   10.5623  -11.5840 H   0  0  0  0  0  0  0  0  0  0  0  0
   -8.0380    9.5979   -7.2556 H   0  0  0  0  0  0  0  0  0  0  0  0
   -2.6189   14.5701  -10.8280 H   0  0  0  0  0  0  0  0  0  0  0  0
   -3.0927   14.8813  -12.5325 H   0  0  0  0  0  0  0  0  0  0  0  0
   -3.9729   15.6925  -11.1931 H   0  0  0  0  0  0  0  0  0  0  0  0
   -5.2336   15.2175  -12.9341 H   0  0  0  0  0  0  0  0  0  0  0  0
   -6.7345   12.3122   -6.9047 H   0  0  0  0  0  0  0  0  0  0  0  0
   -2.8594   12.1890   -7.9494 H   0  0  0  0  0  0  0  0  0  0  0  0
   -2.8596   11.4563   -6.3094 H   0  0  0  0  0  0  0  0  0  0  0  0
   -2.6569    9.7457   -8.0538 H   0  0  0  0  0  0  0  0  0  0  0  0
   -4.8908    8.7775   -8.4962 H   0  0  0  0  0  0  0  0  0  0  0  0
   -3.3931   13.9367   -6.1862 H   0  0  0  0  0  0  0  0  0  0  0  0
   -4.9432   14.4192   -6.9548 H   0  0  0  0  0  0  0  0  0  0  0  0
   -4.9436   13.6877   -5.3142 H   0  0  0  0  0  0  0  0  0  0  0  0
  1  2  2  0  0  0  0
  1  4  1  0  0  0  0
  1 13  1  0  0  0  0
  2  6  1  0  0  0  0
  3  4  2  0  0  0  0
  3  5  1  0  0  0  0
  5  6  1  0  0  0  0
  5  9  1  0  0  0  0
  6  7  2  0  0  0  0
  7  8  1  0  0  0  0
  7 10  1  0  0  0  0
  8  9  2  0  0  0  0
 10 15  2  3  0  0  0
 11 12  1  0  0  0  0
 11 13  2  0  0  0  0
 13 14  1  0  0  0  0
 15 16  1  0  0  0  0
 15 20  1  0  0  0  0
 16 17  2  0  0  0  0
 17 18  1  0  0  0  0
 17 21  1  0  0  0  0
 18 19  1  0  0  0  0
 19 20  2  0  0  0  0
  2 22  1  0  0  0  0
  3 23  1  0  0  0  0
  4 24  1  0  0  0  0
  5 25  1  0  0  0  0
 10 26  1  0  0  0  0
 12 27  1  0  0  0  0
 12 28  1  0  0  0  0
 12 29  1  0  0  0  0
 14 30  1  0  0  0  0
 16 31  1  0  0  0  0
 18 32  1  0  0  0  0
 18 33  1  0  0  0  0
 19 34  1  0  0  0  0
 20 35  1  0  0  0  0
 21 36  1  0  0  0  0
 21 37  1  0  0  0  0
 21 38  1  0  0  0  0
M  END
> <Name>
16

> <IC50[uM]>
0.17

$$$$
16
  -OEChem-05192314333D
 Structure written by MMmdl.
 38 40  0     0  0  0  0  0  0999 V2000
   -6.3886   12.3706  -12.0044 C   0  0  0  0  0  0  0  0  0  0  0  0
   -6.5217   11.8105  -10.7338 C   0  0  0  0  0  0  0  0  0  0  0  0
   -7.7267   10.5778  -13.0331 C   0  0  0  0  0  0  0  0  0  0  0  0
   -6.9997   11.7772  -13.1264 C   0  0  0  0  0  0  0  0  0  0  0  0
   -7.8245   10.0105  -11.7588 C   0  0  0  0  0  0  0  0  0  0  0  0
   -7.2447   10.6240  -10.5997 C   0  0  0  0  0  0  0  0  0  0  0  0
   -7.6157    9.7479   -9.5130 C   0  0  0  0  0  0  0  0  0  0  0  0
   -8.2818    8.7335   -9.9900 N   0  0  0  0  0  0  0  0  0  0  0  0
   -8.4155    8.8614  -11.3010 N   0  0  0  0  0  0  0  0  0  0  0  0
   -7.3377    9.8874   -8.0251 C   0  0  0  0  0  0  0  0  0  0  0  0
   -4.4115   13.6449  -11.4457 N   0  0  0  0  0  0  0  0  0  0  0  0
   -3.4644   14.7678  -11.5034 C   0  0  0  0  0  0  0  0  0  0  0  0
   -5.5490   13.6243  -12.1808 C   0  0  0  0  0  0  0  0  0  0  0  0
   -5.8784   14.5204  -12.9613 O   0  0  0  0  0  0  0  0  0  0  0  0
   -5.9596   10.4818   -7.7362 C   0  0  0  0  0  0  0  0  0  0  0  0
   -5.8460   11.7538   -7.1602 C   0  0  0  0  0  0  0  0  0  0  0  0
   -4.5819   12.3007   -6.9160 C   0  0  0  0  0  0  0  0  0  0  0  0
   -3.4335   11.5746   -7.2403 C   0  0  0  0  0  0  0  0  0  0  0  0
   -3.5461   10.3067   -7.8068 C   0  0  0  0  0  0  0  0  0  0  0  0
   -4.8068    9.7600   -8.0558 C   0  0  0  0  0  0  0  0  0  0  0  0
   -4.4568   13.6807   -6.3006 C   0  0  0  0  0  0  0  0  0  0  0  0
   -6.0750   12.2846   -9.8724 H   0  0  0  0  0  0  0  0  0  0  0  0
   -8.1843   10.1199  -13.8976 H   0  0  0  0  0  0  0  0  0  0  0  0
   -7.6950   12.5276  -13.5308 H   0  0  0  0  0  0  0  0  0  0  0  0
   -6.1951   11.5934  -13.8536 H   0  0  0  0  0  0  0  0  0  0  0  0
   -8.0380    9.5979   -7.2556 H   0  0  0  0  0  0  0  0  0  0  0  0
   -2.6189   14.5701  -10.8280 H   0  0  0  0  0  0  0  0  0  0  0  0
   -3.0927   14.8813  -12.5325 H   0  0  0  0  0  0  0  0  0  0  0  0
   -3.9729   15.6925  -11.1931 H   0  0  0  0  0  0  0  0  0  0  0  0
   -5.2336   15.2175  -12.9341 H   0  0  0  0  0  0  0  0  0  0  0  0
   -6.7345   12.3122   -6.9047 H   0  0  0  0  0  0  0  0  0  0  0  0
   -2.8594   12.1890   -7.9494 H   0  0  0  0  0  0  0  0  0  0  0  0
   -2.8596   11.4563   -6.3094 H   0  0  0  0  0  0  0  0  0  0  0  0
   -2.6569    9.7457   -8.0538 H   0  0  0  0  0  0  0  0  0  0  0  0
   -4.8908    8.7775   -8.4962 H   0  0  0  0  0  0  0  0  0  0  0  0
   -3.3931   13.9367   -6.1862 H   0  0  0  0  0  0  0  0  0  0  0  0
   -4.9432   14.4192   -6.9548 H   0  0  0  0  0  0  0  0  0  0  0  0
   -4.9436   13.6877   -5.3142 H   0  0  0  0  0  0  0  0  0  0  0  0
  1  2  2  0  0  0  0
  1  4  1  0  0  0  0
  1 13  1  0  0  0  0
  2  6  1  0  0  0  0
  3  4  1  0  0  0  0
  3  5  2  0  0  0  0
  5  6  1  0  0  0  0
  5  9  1  0  0  0  0
  6  7  2  0  0  0  0
  7  8  1  0  0  0  0
  7 10  1  0  0  0  0
  8  9  2  0  0  0  0
 10 15  2  3  0  0  0
 11 12  1  0  0  0  0
 11 13  2  0  0  0  0
 13 14  1  0  0  0  0
 15 16  1  0  0  0  0
 15 20  1  0  0  0  0
 16 17  2  0  0  0  0
 17 18  1  0  0  0  0
 17 21  1  0  0  0  0
 18 19  1  0  0  0  0
 19 20  2  0  0  0  0
  2 22  1  0  0  0  0
  3 23  1  0  0  0  0
  4 24  1  0  0  0  0
  4 25  1  0  0  0  0
 10 26  1  0  0  0  0
 12 27  1  0  0  0  0
 12 28  1  0  0  0  0
 12 29  1  0  0  0  0
 14 30  1  0  0  0  0
 16 31  1  0  0  0  0
 18 32  1  0  0  0  0
 18 33  1  0  0  0  0
 19 34  1  0  0  0  0
 20 35  1  0  0  0  0
 21 36  1  0  0  0  0
 21 37  1  0  0  0  0
 21 38  1  0  0  0  0
M  END
> <Name>
16

> <IC50[uM]>
0.17

$$$$
16
  -OEChem-05192314333D
 Structure written by MMmdl.
 38 40  0     0  0  0  0  0  0999 V2000
   -6.3886   12.3706  -12.0044 C   0  0  0  0  0  0  0  0  0  0  0  0
   -6.5217   11.8105  -10.7338 C   0  0  0  0  0  0  0  0  0  0  0  0
   -7.7267   10.5778  -13.0331 C   0  0  0  0  0  0  0  0  0  0  0  0
   -6.9997   11.7772  -13.1264 C   0  0  0  0  0  0  0  0  0  0  0  0
   -7.8245   10.0105  -11.7588 C   0  0  0  0  0  0  0  0  0  0  0  0
   -7.2447   10.6240  -10.5997 C   0  0  0  0  0  0  0  0  0  0  0  0
   -7.6157    9.7479   -9.5130 C   0  0  0  0  0  0  0  0  0  0  0  0
   -8.2818    8.7335   -9.9900 N   0  0  0  0  0  0  0  0  0  0  0  0
   -8.4155    8.8614  -11.3010 N   0  0  0  0  0  0  0  0  0  0  0  0
   -7.3377    9.8874   -8.0251 C   0  0  0  0  0  0  0  0  0  0  0  0
   -4.4115   13.6449  -11.4457 N   0  0  0  0  0  0  0  0  0  0  0  0
   -3.4644   14.7678  -11.5034 C   0  0  0  0  0  0  0  0  0  0  0  0
   -5.5490   13.6243  -12.1808 C   0  0  0  0  0  0  0  0  0  0  0  0
   -5.8784   14.5204  -12.9613 O   0  0  0  0  0  0  0  0  0  0  0  0
   -5.9596   10.4818   -7.7362 C   0  0  0  0  0  0  0  0  0  0  0  0
   -5.8460   11.7538   -7.1602 C   0  0  0  0  0  0  0  0  0  0  0  0
   -4.5819   12.3007   -6.9160 C   0  0  0  0  0  0  0  0  0  0  0  0
   -3.4335   11.5746   -7.2403 C   0  0  0  0  0  0  0  0  0  0  0  0
   -3.5461   10.3067   -7.8068 C   0  0  0  0  0  0  0  0  0  0  0  0
   -4.8068    9.7600   -8.0558 C   0  0  0  0  0  0  0  0  0  0  0  0
   -4.4568   13.6807   -6.3006 C   0  0  0  0  0  0  0  0  0  0  0  0
   -5.5067   11.6162  -10.3570 H   0  0  0  0  0  0  0  0  0  0  0  0
   -7.0113   12.5624  -10.0975 H   0  0  0  0  0  0  0  0  0  0  0  0
   -8.1843   10.1199  -13.8976 H   0  0  0  0  0  0  0  0  0  0  0  0
   -6.9067   12.2589  -14.0885 H   0  0  0  0  0  0  0  0  0  0  0  0
   -8.0380    9.5979   -7.2556 H   0  0  0  0  0  0  0  0  0  0  0  0
   -2.6189   14.5701  -10.8280 H   0  0  0  0  0  0  0  0  0  0  0  0
   -3.0927   14.8813  -12.5325 H   0  0  0  0  0  0  0  0  0  0  0  0
   -3.9729   15.6925  -11.1931 H   0  0  0  0  0  0  0  0  0  0  0  0
   -5.2336   15.2175  -12.9341 H   0  0  0  0  0  0  0  0  0  0  0  0
   -6.7345   12.3122   -6.9047 H   0  0  0  0  0  0  0  0  0  0  0  0
   -2.4573   11.9965   -7.0517 H   0  0  0  0  0  0  0  0  0  0  0  0
   -2.6569    9.7457   -8.0538 H   0  0  0  0  0  0  0  0  0  0  0  0
   -4.8589    8.8150   -7.4951 H   0  0  0  0  0  0  0  0  0  0  0  0
   -4.8535    9.5494   -9.1344 H   0  0  0  0  0  0  0  0  0  0  0  0
   -3.3931   13.9367   -6.1862 H   0  0  0  0  0  0  0  0  0  0  0  0
   -4.9432   14.4192   -6.9548 H   0  0  0  0  0  0  0  0  0  0  0  0
   -4.9436   13.6877   -5.3142 H   0  0  0  0  0  0  0  0  0  0  0  0
  1  2  1  0  0  0  0
  1  4  2  0  0  0  0
  1 13  1  0  0  0  0
  2  6  1  0  0  0  0
  3  4  1  0  0  0  0
  3  5  2  0  0  0  0
  5  6  1  0  0  0  0
  5  9  1  0  0  0  0
  6  7  2  0  0  0  0
  7  8  1  0  0  0  0
  7 10  1  0  0  0  0
  8  9  2  0  0  0  0
 10 15  2  3  0  0  0
 11 12  1  0  0  0  0
 11 13  2  0  0  0  0
 13 14  1  0  0  0  0
 15 16  1  0  0  0  0
 15 20  1  0  0  0  0
 16 17  2  0  0  0  0
 17 18  1  0  0  0  0
 17 21  1  0  0  0  0
 18 19  2  0  0  0  0
 19 20  1  0  0  0  0
  2 22  1  0  0  0  0
  2 23  1  0  0  0  0
  3 24  1  0  0  0  0
  4 25  1  0  0  0  0
 10 26  1  0  0  0  0
 12 27  1  0  0  0  0
 12 28  1  0  0  0  0
 12 29  1  0  0  0  0
 14 30  1  0  0  0  0
 16 31  1  0  0  0  0
 18 32  1  0  0  0  0
 19 33  1  0  0  0  0
 20 34  1  0  0  0  0
 20 35  1  0  0  0  0
 21 36  1  0  0  0  0
 21 37  1  0  0  0  0
 21 38  1  0  0  0  0
M  END
> <Name>
16

> <IC50[uM]>
0.17

$$$$
16
  -OEChem-05192314333D
 Structure written by MMmdl.
 38 40  0     0  0  0  0  0  0999 V2000
   -6.3886   12.3706  -12.0044 C   0  0  0  0  0  0  0  0  0  0  0  0
   -6.5217   11.8105  -10.7338 C   0  0  0  0  0  0  0  0  0  0  0  0
   -7.7267   10.5778  -13.0331 C   0  0  0  0  0  0  0  0  0  0  0  0
   -6.9997   11.7772  -13.1264 C   0  0  0  0  0  0  0  0  0  0  0  0
   -7.8245   10.0105  -11.7588 C   0  0  0  0  0  0  0  0  0  0  0  0
   -7.2447   10.6240  -10.5997 C   0  0  0  0  0  0  0  0  0  0  0  0
   -7.6157    9.7479   -9.5130 C   0  0  0  0  0  0  0  0  0  0  0  0
   -8.2818    8.7335   -9.9900 N   0  0  0  0  0  0  0  0  0  0  0  0
   -8.4155    8.8614  -11.3010 N   0  0  0  0  0  0  0  0  0  0  0  0
   -7.3377    9.8874   -8.0251 C   0  0  0  0  0  0  0  0  0  0  0  0
   -4.4115   13.6449  -11.4457 N   0  0  0  0  0  0  0  0  0  0  0  0
   -3.4644   14.7678  -11.5034 C   0  0  0  0  0  0  0  0  0  0  0  0
   -5.5490   13.6243  -12.1808 C   0  0  0  0  0  0  0  0  0  0  0  0
   -5.8784   14.5204  -12.9613 O   0  0  0  0  0  0  0  0  0  0  0  0
   -5.9596   10.4818   -7.7362 C   0  0  0  0  0  0  0  0  0  0  0  0
   -5.8460   11.7538   -7.1602 C   0  0  0  0  0  0  0  0  0  0  0  0
   -4.5819   12.3007   -6.9160 C   0  0  0  0  0  0  0  0  0  0  0  0
   -3.4335   11.5746   -7.2403 C   0  0  0  0  0  0  0  0  0  0  0  0
   -3.5461   10.3067   -7.8068 C   0  0  0  0  0  0  0  0  0  0  0  0
   -4.8068    9.7600   -8.0558 C   0  0  0  0  0  0  0  0  0  0  0  0
   -4.4568   13.6807   -6.3006 C   0  0  0  0  0  0  0  0  0  0  0  0
   -5.5067   11.6162  -10.3570 H   0  0  0  0  0  0  0  0  0  0  0  0
   -7.0113   12.5624  -10.0975 H   0  0  0  0  0  0  0  0  0  0  0  0
   -8.1843   10.1199  -13.8976 H   0  0  0  0  0  0  0  0  0  0  0  0
   -6.9067   12.2589  -14.0885 H   0  0  0  0  0  0  0  0  0  0  0  0
   -8.0380    9.5979   -7.2556 H   0  0  0  0  0  0  0  0  0  0  0  0
   -2.6189   14.5701  -10.8280 H   0  0  0  0  0  0  0  0  0  0  0  0
   -3.0927   14.8813  -12.5325 H   0  0  0  0  0  0  0  0  0  0  0  0
   -3.9729   15.6925  -11.1931 H   0  0  0  0  0  0  0  0  0  0  0  0
   -5.2336   15.2175  -12.9341 H   0  0  0  0  0  0  0  0  0  0  0  0
   -6.7345   12.3122   -6.9047 H   0  0  0  0  0  0  0  0  0  0  0  0
   -2.8594   12.1890   -7.9494 H   0  0  0  0  0  0  0  0  0  0  0  0
   -2.8596   11.4563   -6.3094 H   0  0  0  0  0  0  0  0  0  0  0  0
   -2.6569    9.7457   -8.0538 H   0  0  0  0  0  0  0  0  0  0  0  0
   -4.8908    8.7775   -8.4962 H   0  0  0  0  0  0  0  0  0  0  0  0
   -3.3931   13.9367   -6.1862 H   0  0  0  0  0  0  0  0  0  0  0  0
   -4.9432   14.4192   -6.9548 H   0  0  0  0  0  0  0  0  0  0  0  0
   -4.9436   13.6877   -5.3142 H   0  0  0  0  0  0  0  0  0  0  0  0
  1  2  1  0  0  0  0
  1  4  2  0  0  0  0
  1 13  1  0  0  0  0
  2  6  1  0  0  0  0
  3  4  1  0  0  0  0
  3  5  2  0  0  0  0
  5  6  1  0  0  0  0
  5  9  1  0  0  0  0
  6  7  2  0  0  0  0
  7  8  1  0  0  0  0
  7 10  1  0  0  0  0
  8  9  2  0  0  0  0
 10 15  2  3  0  0  0
 11 12  1  0  0  0  0
 11 13  2  0  0  0  0
 13 14  1  0  0  0  0
 15 16  1  0  0  0  0
 15 20  1  0  0  0  0
 16 17  2  0  0  0  0
 17 18  1  0  0  0  0
 17 21  1  0  0  0  0
 18 19  1  0  0  0  0
 19 20  2  0  0  0  0
  2 22  1  0  0  0  0
  2 23  1  0  0  0  0
  3 24  1  0  0  0  0
  4 25  1  0  0  0  0
 10 26  1  0  0  0  0
 12 27  1  0  0  0  0
 12 28  1  0  0  0  0
 12 29  1  0  0  0  0
 14 30  1  0  0  0  0
 16 31  1  0  0  0  0
 18 32  1  0  0  0  0
 18 33  1  0  0  0  0
 19 34  1  0  0  0  0
 20 35  1  0  0  0  0
 21 36  1  0  0  0  0
 21 37  1  0  0  0  0
 21 38  1  0  0  0  0
M  END
> <Name>
16

> <IC50[uM]>
0.17

$$$$
16
  -OEChem-05192314333D
 Structure written by MMmdl.
 38 40  0     1  0  0  0  0  0999 V2000
   -6.3886   12.3706  -12.0044 C   0  0  0  0  0  0  0  0  0  0  0  0
   -6.5217   11.8105  -10.7338 C   0  0  0  0  0  0  0  0  0  0  0  0
   -7.7267   10.5778  -13.0331 C   0  0  0  0  0  0  0  0  0  0  0  0
   -6.9997   11.7772  -13.1264 C   0  0  0  0  0  0  0  0  0  0  0  0
   -7.8245   10.0105  -11.7588 C   0  0  3  0  0  0  0  0  0  0  0  0
   -7.2447   10.6240  -10.5997 C   0  0  0  0  0  0  0  0  0  0  0  0
   -7.6157    9.7479   -9.5130 C   0  0  0  0  0  0  0  0  0  0  0  0
   -8.2818    8.7335   -9.9900 N   0  0  0  0  0  0  0  0  0  0  0  0
   -8.4155    8.8614  -11.3010 N   0  0  0  0  0  0  0  0  0  0  0  0
   -7.3377    9.8874   -8.0251 C   0  0  0  0  0  0  0  0  0  0  0  0
   -4.4115   13.6449  -11.4457 N   0  0  0  0  0  0  0  0  0  0  0  0
   -3.4644   14.7678  -11.5034 C   0  0  0  0  0  0  0  0  0  0  0  0
   -5.5490   13.6243  -12.1808 C   0  0  0  0  0  0  0  0  0  0  0  0
   -5.8784   14.5204  -12.9613 O   0  0  0  0  0  0  0  0  0  0  0  0
   -5.9596   10.4818   -7.7362 C   0  0  0  0  0  0  0  0  0  0  0  0
   -5.8460   11.7538   -7.1602 C   0  0  0  0  0  0  0  0  0  0  0  0
   -4.5819   12.3007   -6.9160 C   0  0  0  0  0  0  0  0  0  0  0  0
   -3.4335   11.5746   -7.2403 C   0  0  0  0  0  0  0  0  0  0  0  0
   -3.5461   10.3067   -7.8068 C   0  0  0  0  0  0  0  0  0  0  0  0
   -4.8068    9.7600   -8.0558 C   0  0  0  0  0  0  0  0  0  0  0  0
   -4.4568   13.6807   -6.3006 C   0  0  0  0  0  0  0  0  0  0  0  0
   -6.0750   12.2846   -9.8724 H   0  0  0  0  0  0  0  0  0  0  0  0
   -8.1843   10.1199  -13.8976 H   0  0  0  0  0  0  0  0  0  0  0  0
   -6.9067   12.2589  -14.0885 H   0  0  0  0  0  0  0  0  0  0  0  0
   -8.7599   10.5623  -11.5840 H   0  0  0  0  0  0  0  0  0  0  0  0
   -8.0380    9.5979   -7.2556 H   0  0  0  0  0  0  0  0  0  0  0  0
   -2.6189   14.5701  -10.8280 H   0  0  0  0  0  0  0  0  0  0  0  0
   -3.0927   14.8813  -12.5325 H   0  0  0  0  0  0  0  0  0  0  0  0
   -3.9729   15.6925  -11.1931 H   0  0  0  0  0  0  0  0  0  0  0  0
   -5.2336   15.2175  -12.9341 H   0  0  0  0  0  0  0  0  0  0  0  0
   -6.3708   12.4528   -7.8280 H   0  0  0  0  0  0  0  0  0  0  0  0
   -6.3661   11.7115   -6.1919 H   0  0  0  0  0  0  0  0  0  0  0  0
   -2.4573   11.9965   -7.0517 H   0  0  0  0  0  0  0  0  0  0  0  0
   -2.6569    9.7457   -8.0538 H   0  0  0  0  0  0  0  0  0  0  0  0
   -4.8908    8.7775   -8.4962 H   0  0  0  0  0  0  0  0  0  0  0  0
   -3.3931   13.9367   -6.1862 H   0  0  0  0  0  0  0  0  0  0  0  0
   -4.9432   14.4192   -6.9548 H   0  0  0  0  0  0  0  0  0  0  0  0
   -4.9436   13.6877   -5.3142 H   0  0  0  0  0  0  0  0  0  0  0  0
  1  2  2  0  0  0  0
  1  4  1  0  0  0  0
  1 13  1  0  0  0  0
  2  6  1  0  0  0  0
  3  4  2  0  0  0  0
  3  5  1  0  0  0  0
  5  6  1  0  0  0  0
  5  9  1  0  0  0  0
  6  7  2  0  0  0  0
  7  8  1  0  0  0  0
  7 10  1  0  0  0  0
  8  9  2  0  0  0  0
 10 15  2  3  0  0  0
 11 12  1  0  0  0  0
 11 13  2  0  0  0  0
 13 14  1  0  0  0  0
 15 16  1  0  0  0  0
 15 20  1  0  0  0  0
 16 17  1  0  0  0  0
 17 18  2  0  0  0  0
 17 21  1  0  0  0  0
 18 19  1  0  0  0  0
 19 20  2  0  0  0  0
  2 22  1  0  0  0  0
  3 23  1  0  0  0  0
  4 24  1  0  0  0  0
  5 25  1  0  0  0  0
 10 26  1  0  0  0  0
 12 27  1  0  0  0  0
 12 28  1  0  0  0  0
 12 29  1  0  0  0  0
 14 30  1  0  0  0  0
 16 31  1  0  0  0  0
 16 32  1  0  0  0  0
 18 33  1  0  0  0  0
 19 34  1  0  0  0  0
 20 35  1  0  0  0  0
 21 36  1  0  0  0  0
 21 37  1  0  0  0  0
 21 38  1  0  0  0  0
M  END
> <Name>
16

> <IC50[uM]>
0.17

$$$$
16
  -OEChem-05192314333D
 Structure written by MMmdl.
 38 40  0     0  0  0  0  0  0999 V2000
   -6.3886   12.3706  -12.0044 C   0  0  0  0  0  0  0  0  0  0  0  0
   -6.5217   11.8105  -10.7338 C   0  0  0  0  0  0  0  0  0  0  0  0
   -7.7267   10.5778  -13.0331 C   0  0  0  0  0  0  0  0  0  0  0  0
   -6.9997   11.7772  -13.1264 C   0  0  0  0  0  0  0  0  0  0  0  0
   -7.8245   10.0105  -11.7588 C   0  0  0  0  0  0  0  0  0  0  0  0
   -7.2447   10.6240  -10.5997 C   0  0  0  0  0  0  0  0  0  0  0  0
   -7.6157    9.7479   -9.5130 C   0  0  0  0  0  0  0  0  0  0  0  0
   -8.2818    8.7335   -9.9900 N   0  0  0  0  0  0  0  0  0  0  0  0
   -8.4155    8.8614  -11.3010 N   0  0  0  0  0  0  0  0  0  0  0  0
   -7.3377    9.8874   -8.0251 C   0  0  0  0  0  0  0  0  0  0  0  0
   -4.4115   13.6449  -11.4457 N   0  0  0  0  0  0  0  0  0  0  0  0
   -3.4644   14.7678  -11.5034 C   0  0  0  0  0  0  0  0  0  0  0  0
   -5.5490   13.6243  -12.1808 C   0  0  0  0  0  0  0  0  0  0  0  0
   -5.8784   14.5204  -12.9613 O   0  0  0  0  0  0  0  0  0  0  0  0
   -5.9596   10.4818   -7.7362 C   0  0  0  0  0  0  0  0  0  0  0  0
   -5.8460   11.7538   -7.1602 C   0  0  0  0  0  0  0  0  0  0  0  0
   -4.5819   12.3007   -6.9160 C   0  0  0  0  0  0  0  0  0  0  0  0
   -3.4335   11.5746   -7.2403 C   0  0  0  0  0  0  0  0  0  0  0  0
   -3.5461   10.3067   -7.8068 C   0  0  0  0  0  0  0  0  0  0  0  0
   -4.8068    9.7600   -8.0558 C   0  0  0  0  0  0  0  0  0  0  0  0
   -4.4568   13.6807   -6.3006 C   0  0  0  0  0  0  0  0  0  0  0  0
   -6.0750   12.2846   -9.8724 H   0  0  0  0  0  0  0  0  0  0  0  0
   -8.1843   10.1199  -13.8976 H   0  0  0  0  0  0  0  0  0  0  0  0
   -7.6950   12.5276  -13.5308 H   0  0  0  0  0  0  0  0  0  0  0  0
   -6.1951   11.5934  -13.8536 H   0  0  0  0  0  0  0  0  0  0  0  0
   -8.0380    9.5979   -7.2556 H   0  0  0  0  0  0  0  0  0  0  0  0
   -2.6189   14.5701  -10.8280 H   0  0  0  0  0  0  0  0  0  0  0  0
   -3.0927   14.8813  -12.5325 H   0  0  0  0  0  0  0  0  0  0  0  0
   -3.9729   15.6925  -11.1931 H   0  0  0  0  0  0  0  0  0  0  0  0
   -5.2336   15.2175  -12.9341 H   0  0  0  0  0  0  0  0  0  0  0  0
   -6.3708   12.4528   -7.8280 H   0  0  0  0  0  0  0  0  0  0  0  0
   -6.3661   11.7115   -6.1919 H   0  0  0  0  0  0  0  0  0  0  0  0
   -2.4573   11.9965   -7.0517 H   0  0  0  0  0  0  0  0  0  0  0  0
   -2.6569    9.7457   -8.0538 H   0  0  0  0  0  0  0  0  0  0  0  0
   -4.8908    8.7775   -8.4962 H   0  0  0  0  0  0  0  0  0  0  0  0
   -3.3931   13.9367   -6.1862 H   0  0  0  0  0  0  0  0  0  0  0  0
   -4.9432   14.4192   -6.9548 H   0  0  0  0  0  0  0  0  0  0  0  0
   -4.9436   13.6877   -5.3142 H   0  0  0  0  0  0  0  0  0  0  0  0
  1  2  2  0  0  0  0
  1  4  1  0  0  0  0
  1 13  1  0  0  0  0
  2  6  1  0  0  0  0
  3  4  1  0  0  0  0
  3  5  2  0  0  0  0
  5  6  1  0  0  0  0
  5  9  1  0  0  0  0
  6  7  2  0  0  0  0
  7  8  1  0  0  0  0
  7 10  1  0  0  0  0
  8  9  2  0  0  0  0
 10 15  2  3  0  0  0
 11 12  1  0  0  0  0
 11 13  2  0  0  0  0
 13 14  1  0  0  0  0
 15 16  1  0  0  0  0
 15 20  1  0  0  0  0
 16 17  1  0  0  0  0
 17 18  2  0  0  0  0
 17 21  1  0  0  0  0
 18 19  1  0  0  0  0
 19 20  2  0  0  0  0
  2 22  1  0  0  0  0
  3 23  1  0  0  0  0
  4 24  1  0  0  0  0
  4 25  1  0  0  0  0
 10 26  1  0  0  0  0
 12 27  1  0  0  0  0
 12 28  1  0  0  0  0
 12 29  1  0  0  0  0
 14 30  1  0  0  0  0
 16 31  1  0  0  0  0
 16 32  1  0  0  0  0
 18 33  1  0  0  0  0
 19 34  1  0  0  0  0
 20 35  1  0  0  0  0
 21 36  1  0  0  0  0
 21 37  1  0  0  0  0
 21 38  1  0  0  0  0
M  END
> <Name>
16

> <IC50[uM]>
0.17

$$$$
16
  -OEChem-05192314333D
 Structure written by MMmdl.
 38 40  0     0  0  0  0  0  0999 V2000
   -6.3886   12.3706  -12.0044 C   0  0  0  0  0  0  0  0  0  0  0  0
   -6.5217   11.8105  -10.7338 C   0  0  0  0  0  0  0  0  0  0  0  0
   -7.7267   10.5778  -13.0331 C   0  0  0  0  0  0  0  0  0  0  0  0
   -6.9997   11.7772  -13.1264 C   0  0  0  0  0  0  0  0  0  0  0  0
   -7.8245   10.0105  -11.7588 C   0  0  0  0  0  0  0  0  0  0  0  0
   -7.2447   10.6240  -10.5997 C   0  0  0  0  0  0  0  0  0  0  0  0
   -7.6157    9.7479   -9.5130 C   0  0  0  0  0  0  0  0  0  0  0  0
   -8.2818    8.7335   -9.9900 N   0  0  0  0  0  0  0  0  0  0  0  0
   -8.4155    8.8614  -11.3010 N   0  0  0  0  0  0  0  0  0  0  0  0
   -7.3377    9.8874   -8.0251 C   0  0  0  0  0  0  0  0  0  0  0  0
   -4.4115   13.6449  -11.4457 N   0  0  0  0  0  0  0  0  0  0  0  0
   -3.4644   14.7678  -11.5034 C   0  0  0  0  0  0  0  0  0  0  0  0
   -5.5490   13.6243  -12.1808 C   0  0  0  0  0  0  0  0  0  0  0  0
   -5.8784   14.5204  -12.9613 O   0  0  0  0  0  0  0  0  0  0  0  0
   -5.9596   10.4818   -7.7362 C   0  0  0  0  0  0  0  0  0  0  0  0
   -5.8460   11.7538   -7.1602 C   0  0  0  0  0  0  0  0  0  0  0  0
   -4.5819   12.3007   -6.9160 C   0  0  0  0  0  0  0  0  0  0  0  0
   -3.4335   11.5746   -7.2403 C   0  0  0  0  0  0  0  0  0  0  0  0
   -3.5461   10.3067   -7.8068 C   0  0  0  0  0  0  0  0  0  0  0  0
   -4.8068    9.7600   -8.0558 C   0  0  0  0  0  0  0  0  0  0  0  0
   -4.4568   13.6807   -6.3006 C   0  0  0  0  0  0  0  0  0  0  0  0
   -5.5067   11.6162  -10.3570 H   0  0  0  0  0  0  0  0  0  0  0  0
   -7.0113   12.5624  -10.0975 H   0  0  0  0  0  0  0  0  0  0  0  0
   -8.1843   10.1199  -13.8976 H   0  0  0  0  0  0  0  0  0  0  0  0
   -6.9067   12.2589  -14.0885 H   0  0  0  0  0  0  0  0  0  0  0  0
   -8.0380    9.5979   -7.2556 H   0  0  0  0  0  0  0  0  0  0  0  0
   -2.6189   14.5701  -10.8280 H   0  0  0  0  0  0  0  0  0  0  0  0
   -3.0927   14.8813  -12.5325 H   0  0  0  0  0  0  0  0  0  0  0  0
   -3.9729   15.6925  -11.1931 H   0  0  0  0  0  0  0  0  0  0  0  0
   -5.2336   15.2175  -12.9341 H   0  0  0  0  0  0  0  0  0  0  0  0
   -6.3708   12.4528   -7.8280 H   0  0  0  0  0  0  0  0  0  0  0  0
   -6.3661   11.7115   -6.1919 H   0  0  0  0  0  0  0  0  0  0  0  0
   -2.4573   11.9965   -7.0517 H   0  0  0  0  0  0  0  0  0  0  0  0
   -2.6569    9.7457   -8.0538 H   0  0  0  0  0  0  0  0  0  0  0  0
   -4.8908    8.7775   -8.4962 H   0  0  0  0  0  0  0  0  0  0  0  0
   -3.3931   13.9367   -6.1862 H   0  0  0  0  0  0  0  0  0  0  0  0
   -4.9432   14.4192   -6.9548 H   0  0  0  0  0  0  0  0  0  0  0  0
   -4.9436   13.6877   -5.3142 H   0  0  0  0  0  0  0  0  0  0  0  0
  1  2  1  0  0  0  0
  1  4  2  0  0  0  0
  1 13  1  0  0  0  0
  2  6  1  0  0  0  0
  3  4  1  0  0  0  0
  3  5  2  0  0  0  0
  5  6  1  0  0  0  0
  5  9  1  0  0  0  0
  6  7  2  0  0  0  0
  7  8  1  0  0  0  0
  7 10  1  0  0  0  0
  8  9  2  0  0  0  0
 10 15  2  3  0  0  0
 11 12  1  0  0  0  0
 11 13  2  0  0  0  0
 13 14  1  0  0  0  0
 15 16  1  0  0  0  0
 15 20  1  0  0  0  0
 16 17  1  0  0  0  0
 17 18  2  0  0  0  0
 17 21  1  0  0  0  0
 18 19  1  0  0  0  0
 19 20  2  0  0  0  0
  2 22  1  0  0  0  0
  2 23  1  0  0  0  0
  3 24  1  0  0  0  0
  4 25  1  0  0  0  0
 10 26  1  0  0  0  0
 12 27  1  0  0  0  0
 12 28  1  0  0  0  0
 12 29  1  0  0  0  0
 14 30  1  0  0  0  0
 16 31  1  0  0  0  0
 16 32  1  0  0  0  0
 18 33  1  0  0  0  0
 19 34  1  0  0  0  0
 20 35  1  0  0  0  0
 21 36  1  0  0  0  0
 21 37  1  0  0  0  0
 21 38  1  0  0  0  0
M  END
> <Name>
16

> <IC50[uM]>
0.17

$$$$
16
  -OEChem-05192314333D
 Structure written by MMmdl.
 38 40  0     0  0  0  0  0  0999 V2000
   -6.3886   12.3706  -12.0044 C   0  0  0  0  0  0  0  0  0  0  0  0
   -6.5217   11.8105  -10.7338 C   0  0  0  0  0  0  0  0  0  0  0  0
   -7.7267   10.5778  -13.0331 C   0  0  0  0  0  0  0  0  0  0  0  0
   -6.9997   11.7772  -13.1264 C   0  0  0  0  0  0  0  0  0  0  0  0
   -7.8245   10.0105  -11.7588 C   0  0  0  0  0  0  0  0  0  0  0  0
   -7.2447   10.6240  -10.5997 C   0  0  0  0  0  0  0  0  0  0  0  0
   -7.6157    9.7479   -9.5130 C   0  0  0  0  0  0  0  0  0  0  0  0
   -8.2818    8.7335   -9.9900 N   0  0  0  0  0  0  0  0  0  0  0  0
   -8.4155    8.8614  -11.3010 N   0  0  0  0  0  0  0  0  0  0  0  0
   -7.3377    9.8874   -8.0251 C   0  0  0  0  0  0  0  0  0  0  0  0
   -4.4115   13.6449  -11.4457 N   0  0  0  0  0  0  0  0  0  0  0  0
   -3.4644   14.7678  -11.5034 C   0  0  0  0  0  0  0  0  0  0  0  0
   -5.5490   13.6243  -12.1808 C   0  0  0  0  0  0  0  0  0  0  0  0
   -5.8784   14.5204  -12.9613 O   0  0  0  0  0  0  0  0  0  0  0  0
   -5.9596   10.4818   -7.7362 C   0  0  0  0  0  0  0  0  0  0  0  0
   -5.8460   11.7538   -7.1602 C   0  0  0  0  0  0  0  0  0  0  0  0
   -4.5819   12.3007   -6.9160 C   0  0  0  0  0  0  0  0  0  0  0  0
   -3.4335   11.5746   -7.2403 C   0  0  0  0  0  0  0  0  0  0  0  0
   -3.5461   10.3067   -7.8068 C   0  0  0  0  0  0  0  0  0  0  0  0
   -4.8068    9.7600   -8.0558 C   0  0  0  0  0  0  0  0  0  0  0  0
   -4.4568   13.6807   -6.3006 C   0  0  0  0  0  0  0  0  0  0  0  0
   -6.0750   12.2846   -9.8724 H   0  0  0  0  0  0  0  0  0  0  0  0
   -8.1843   10.1199  -13.8976 H   0  0  0  0  0  0  0  0  0  0  0  0
   -6.9067   12.2589  -14.0885 H   0  0  0  0  0  0  0  0  0  0  0  0
   -8.6382    7.9731   -9.4471 H   0  0  0  0  0  0  0  0  0  0  0  0
   -8.0380    9.5979   -7.2556 H   0  0  0  0  0  0  0  0  0  0  0  0
   -3.8948   12.8297  -11.7074 H   0  0  0  0  0  0  0  0  0  0  0  0
   -2.6189   14.5701  -10.8280 H   0  0  0  0  0  0  0  0  0  0  0  0
   -3.0927   14.8813  -12.5325 H   0  0  0  0  0  0  0  0  0  0  0  0
   -3.9729   15.6925  -11.1931 H   0  0  0  0  0  0  0  0  0  0  0  0
   -5.2336   15.2175  -12.9341 H   0  0  0  0  0  0  0  0  0  0  0  0
   -6.7345   12.3122   -6.9047 H   0  0  0  0  0  0  0  0  0  0  0  0
   -2.4573   11.9965   -7.0517 H   0  0  0  0  0  0  0  0  0  0  0  0
   -2.6569    9.7457   -8.0538 H   0  0  0  0  0  0  0  0  0  0  0  0
   -4.8908    8.7775   -8.4962 H   0  0  0  0  0  0  0  0  0  0  0  0
   -4.4264   13.5926   -5.2046 H   0  0  0  0  0  0  0  0  0  0  0  0
   -3.5315   14.1579   -6.6557 H   0  0  0  0  0  0  0  0  0  0  0  0
   -5.3217   14.2932   -6.5953 H   0  0  0  0  0  0  0  0  0  0  0  0
  1  2  1  0  0  0  0
  1  4  1  0  0  0  0
  1 13  2  3  0  0  0
  2  6  2  0  0  0  0
  3  4  2  0  0  0  0
  3  5  1  0  0  0  0
  5  6  1  0  0  0  0
  5  9  2  0  0  0  0
  6  7  1  0  0  0  0
  7  8  1  0  0  0  0
  7 10  2  3  0  0  0
  8  9  1  0  0  0  0
 10 15  1  0  0  0  0
 11 12  1  0  0  0  0
 11 13  1  0  0  0  0
 13 14  1  0  0  0  0
 15 16  2  0  0  0  0
 15 20  1  0  0  0  0
 16 17  1  0  0  0  0
 17 18  2  0  0  0  0
 17 21  1  0  0  0  0
 18 19  1  0  0  0  0
 19 20  2  0  0  0  0
  2 22  1  0  0  0  0
  3 23  1  0  0  0  0
  4 24  1  0  0  0  0
  8 25  1  0  0  0  0
 10 26  1  0  0  0  0
 11 27  1  0  0  0  0
 12 28  1  0  0  0  0
 12 29  1  0  0  0  0
 12 30  1  0  0  0  0
 14 31  1  0  0  0  0
 16 32  1  0  0  0  0
 18 33  1  0  0  0  0
 19 34  1  0  0  0  0
 20 35  1  0  0  0  0
 21 36  1  0  0  0  0
 21 37  1  0  0  0  0
 21 38  1  0  0  0  0
M  END
> <Name>
16

> <IC50[uM]>
0.17

$$$$
16
  -OEChem-05192314333D
 Structure written by MMmdl.
 38 40  0     1  0  0  0  0  0999 V2000
   -6.3886   12.3706  -12.0044 C   0  0  0  0  0  0  0  0  0  0  0  0
   -6.5217   11.8105  -10.7338 C   0  0  0  0  0  0  0  0  0  0  0  0
   -7.7267   10.5778  -13.0331 C   0  0  0  0  0  0  0  0  0  0  0  0
   -6.9997   11.7772  -13.1264 C   0  0  0  0  0  0  0  0  0  0  0  0
   -7.8245   10.0105  -11.7588 C   0  0  0  0  0  0  0  0  0  0  0  0
   -7.2447   10.6240  -10.5997 C   0  0  0  0  0  0  0  0  0  0  0  0
   -7.6157    9.7479   -9.5130 C   0  0  0  0  0  0  0  0  0  0  0  0
   -8.2818    8.7335   -9.9900 N   0  0  0  0  0  0  0  0  0  0  0  0
   -8.4155    8.8614  -11.3010 N   0  0  0  0  0  0  0  0  0  0  0  0
   -7.3377    9.8874   -8.0251 C   0  0  0  0  0  0  0  0  0  0  0  0
   -4.4115   13.6449  -11.4457 N   0  0  0  0  0  0  0  0  0  0  0  0
   -3.4644   14.7678  -11.5034 C   0  0  0  0  0  0  0  0  0  0  0  0
   -5.5490   13.6243  -12.1808 C   0  0  3  0  0  0  0  0  0  0  0  0
   -5.8784   14.5204  -12.9613 O   0  0  0  0  0  0  0  0  0  0  0  0
   -5.9596   10.4818   -7.7362 C   0  0  0  0  0  0  0  0  0  0  0  0
   -5.8460   11.7538   -7.1602 C   0  0  0  0  0  0  0  0  0  0  0  0
   -4.5819   12.3007   -6.9160 C   0  0  0  0  0  0  0  0  0  0  0  0
   -3.4335   11.5746   -7.2403 C   0  0  0  0  0  0  0  0  0  0  0  0
   -3.5461   10.3067   -7.8068 C   0  0  0  0  0  0  0  0  0  0  0  0
   -4.8068    9.7600   -8.0558 C   0  0  0  0  0  0  0  0  0  0  0  0
   -4.4568   13.6807   -6.3006 C   0  0  0  0  0  0  0  0  0  0  0  0
   -6.0750   12.2846   -9.8724 H   0  0  0  0  0  0  0  0  0  0  0  0
   -8.1843   10.1199  -13.8976 H   0  0  0  0  0  0  0  0  0  0  0  0
   -6.9067   12.2589  -14.0885 H   0  0  0  0  0  0  0  0  0  0  0  0
   -8.0380    9.5979   -7.2556 H   0  0  0  0  0  0  0  0  0  0  0  0
   -3.8948   12.8297  -11.7074 H   0  0  0  0  0  0  0  0  0  0  0  0
   -2.6189   14.5701  -10.8280 H   0  0  0  0  0  0  0  0  0  0  0  0
   -3.0927   14.8813  -12.5325 H   0  0  0  0  0  0  0  0  0  0  0  0
   -3.9729   15.6925  -11.1931 H   0  0  0  0  0  0  0  0  0  0  0  0
   -6.0975   14.1177  -11.3649 H   0  0  0  0  0  0  0  0  0  0  0  0
   -5.2336   15.2175  -12.9341 H   0  0  0  0  0  0  0  0  0  0  0  0
   -6.7345   12.3122   -6.9047 H   0  0  0  0  0  0  0  0  0  0  0  0
   -2.4573   11.9965   -7.0517 H   0  0  0  0  0  0  0  0  0  0  0  0
   -2.6569    9.7457   -8.0538 H   0  0  0  0  0  0  0  0  0  0  0  0
   -4.8908    8.7775   -8.4962 H   0  0  0  0  0  0  0  0  0  0  0  0
   -4.4264   13.5926   -5.2046 H   0  0  0  0  0  0  0  0  0  0  0  0
   -3.5315   14.1579   -6.6557 H   0  0  0  0  0  0  0  0  0  0  0  0
   -5.3217   14.2932   -6.5953 H   0  0  0  0  0  0  0  0  0  0  0  0
  1  2  2  0  0  0  0
  1  4  1  0  0  0  0
  1 13  1  0  0  0  0
  2  6  1  0  0  0  0
  3  4  2  0  0  0  0
  3  5  1  0  0  0  0
  5  6  2  0  0  0  0
  5  9  1  0  0  0  0
  6  7  1  0  0  0  0
  7  8  1  0  0  0  0
  7 10  2  3  0  0  0
  8  9  2  0  0  0  0
 10 15  1  0  0  0  0
 11 12  1  0  0  0  0
 11 13  1  0  0  0  0
 13 14  1  0  0  0  0
 15 16  2  0  0  0  0
 15 20  1  0  0  0  0
 16 17  1  0  0  0  0
 17 18  2  0  0  0  0
 17 21  1  0  0  0  0
 18 19  1  0  0  0  0
 19 20  2  0  0  0  0
  2 22  1  0  0  0  0
  3 23  1  0  0  0  0
  4 24  1  0  0  0  0
 10 25  1  0  0  0  0
 11 26  1  0  0  0  0
 12 27  1  0  0  0  0
 12 28  1  0  0  0  0
 12 29  1  0  0  0  0
 13 30  1  0  0  0  0
 14 31  1  0  0  0  0
 16 32  1  0  0  0  0
 18 33  1  0  0  0  0
 19 34  1  0  0  0  0
 20 35  1  0  0  0  0
 21 36  1  0  0  0  0
 21 37  1  0  0  0  0
 21 38  1  0  0  0  0
M  END
> <Name>
16

> <IC50[uM]>
0.17

$$$$
16
  -OEChem-05192314333D
 Structure written by MMmdl.
 38 40  0     0  0  0  0  0  0999 V2000
   -6.3886   12.3706  -12.0044 C   0  0  0  0  0  0  0  0  0  0  0  0
   -6.5217   11.8105  -10.7338 C   0  0  0  0  0  0  0  0  0  0  0  0
   -7.7267   10.5778  -13.0331 C   0  0  0  0  0  0  0  0  0  0  0  0
   -6.9997   11.7772  -13.1264 C   0  0  0  0  0  0  0  0  0  0  0  0
   -7.8245   10.0105  -11.7588 C   0  0  0  0  0  0  0  0  0  0  0  0
   -7.2447   10.6240  -10.5997 C   0  0  0  0  0  0  0  0  0  0  0  0
   -7.6157    9.7479   -9.5130 C   0  0  0  0  0  0  0  0  0  0  0  0
   -8.2818    8.7335   -9.9900 N   0  0  0  0  0  0  0  0  0  0  0  0
   -8.4155    8.8614  -11.3010 N   0  0  0  0  0  0  0  0  0  0  0  0
   -7.3377    9.8874   -8.0251 C   0  0  0  0  0  0  0  0  0  0  0  0
   -4.4115   13.6449  -11.4457 N   0  0  0  0  0  0  0  0  0  0  0  0
   -3.4644   14.7678  -11.5034 C   0  0  0  0  0  0  0  0  0  0  0  0
   -5.5490   13.6243  -12.1808 C   0  0  0  0  0  0  0  0  0  0  0  0
   -5.8784   14.5204  -12.9613 O   0  0  0  0  0  0  0  0  0  0  0  0
   -5.9596   10.4818   -7.7362 C   0  0  0  0  0  0  0  0  0  0  0  0
   -5.8460   11.7538   -7.1602 C   0  0  0  0  0  0  0  0  0  0  0  0
   -4.5819   12.3007   -6.9160 C   0  0  0  0  0  0  0  0  0  0  0  0
   -3.4335   11.5746   -7.2403 C   0  0  0  0  0  0  0  0  0  0  0  0
   -3.5461   10.3067   -7.8068 C   0  0  0  0  0  0  0  0  0  0  0  0
   -4.8068    9.7600   -8.0558 C   0  0  0  0  0  0  0  0  0  0  0  0
   -4.4568   13.6807   -6.3006 C   0  0  0  0  0  0  0  0  0  0  0  0
   -6.0750   12.2846   -9.8724 H   0  0  0  0  0  0  0  0  0  0  0  0
   -8.1843   10.1199  -13.8976 H   0  0  0  0  0  0  0  0  0  0  0  0
   -6.9067   12.2589  -14.0885 H   0  0  0  0  0  0  0  0  0  0  0  0
   -8.1032   10.5427   -7.5839 H   0  0  0  0  0  0  0  0  0  0  0  0
   -7.3958    8.8917   -7.5613 H   0  0  0  0  0  0  0  0  0  0  0  0
   -3.8948   12.8297  -11.7074 H   0  0  0  0  0  0  0  0  0  0  0  0
   -2.6189   14.5701  -10.8280 H   0  0  0  0  0  0  0  0  0  0  0  0
   -3.0927   14.8813  -12.5325 H   0  0  0  0  0  0  0  0  0  0  0  0
   -3.9729   15.6925  -11.1931 H   0  0  0  0  0  0  0  0  0  0  0  0
   -5.2336   15.2175  -12.9341 H   0  0  0  0  0  0  0  0  0  0  0  0
   -6.7345   12.3122   -6.9047 H   0  0  0  0  0  0  0  0  0  0  0  0
   -2.4573   11.9965   -7.0517 H   0  0  0  0  0  0  0  0  0  0  0  0
   -2.6569    9.7457   -8.0538 H   0  0  0  0  0  0  0  0  0  0  0  0
   -4.8908    8.7775   -8.4962 H   0  0  0  0  0  0  0  0  0  0  0  0
   -4.4264   13.5926   -5.2046 H   0  0  0  0  0  0  0  0  0  0  0  0
   -3.5315   14.1579   -6.6557 H   0  0  0  0  0  0  0  0  0  0  0  0
   -5.3217   14.2932   -6.5953 H   0  0  0  0  0  0  0  0  0  0  0  0
  1  2  1  0  0  0  0
  1  4  1  0  0  0  0
  1 13  2  3  0  0  0
  2  6  2  0  0  0  0
  3  4  2  0  0  0  0
  3  5  1  0  0  0  0
  5  6  1  0  0  0  0
  5  9  2  0  0  0  0
  6  7  1  0  0  0  0
  7  8  2  0  0  0  0
  7 10  1  0  0  0  0
  8  9  1  0  0  0  0
 10 15  1  0  0  0  0
 11 12  1  0  0  0  0
 11 13  1  0  0  0  0
 13 14  1  0  0  0  0
 15 16  2  0  0  0  0
 15 20  1  0  0  0  0
 16 17  1  0  0  0  0
 17 18  2  0  0  0  0
 17 21  1  0  0  0  0
 18 19  1  0  0  0  0
 19 20  2  0  0  0  0
  2 22  1  0  0  0  0
  3 23  1  0  0  0  0
  4 24  1  0  0  0  0
 10 25  1  0  0  0  0
 10 26  1  0  0  0  0
 11 27  1  0  0  0  0
 12 28  1  0  0  0  0
 12 29  1  0  0  0  0
 12 30  1  0  0  0  0
 14 31  1  0  0  0  0
 16 32  1  0  0  0  0
 18 33  1  0  0  0  0
 19 34  1  0  0  0  0
 20 35  1  0  0  0  0
 21 36  1  0  0  0  0
 21 37  1  0  0  0  0
 21 38  1  0  0  0  0
M  END
> <Name>
16

> <IC50[uM]>
0.17

$$$$
16
  -OEChem-05192314333D
 Structure written by MMmdl.
 38 40  0     1  0  0  0  0  0999 V2000
   -6.3886   12.3706  -12.0044 C   0  0  0  0  0  0  0  0  0  0  0  0
   -6.5217   11.8105  -10.7338 C   0  0  0  0  0  0  0  0  0  0  0  0
   -7.7267   10.5778  -13.0331 C   0  0  0  0  0  0  0  0  0  0  0  0
   -6.9997   11.7772  -13.1264 C   0  0  0  0  0  0  0  0  0  0  0  0
   -7.8245   10.0105  -11.7588 C   0  0  3  0  0  0  0  0  0  0  0  0
   -7.2447   10.6240  -10.5997 C   0  0  0  0  0  0  0  0  0  0  0  0
   -7.6157    9.7479   -9.5130 C   0  0  0  0  0  0  0  0  0  0  0  0
   -8.2818    8.7335   -9.9900 N   0  0  0  0  0  0  0  0  0  0  0  0
   -8.4155    8.8614  -11.3010 N   0  0  0  0  0  0  0  0  0  0  0  0
   -7.3377    9.8874   -8.0251 C   0  0  0  0  0  0  0  0  0  0  0  0
   -4.4115   13.6449  -11.4457 N   0  0  0  0  0  0  0  0  0  0  0  0
   -3.4644   14.7678  -11.5034 C   0  0  0  0  0  0  0  0  0  0  0  0
   -5.5490   13.6243  -12.1808 C   0  0  0  0  0  0  0  0  0  0  0  0
   -5.8784   14.5204  -12.9613 O   0  0  0  0  0  0  0  0  0  0  0  0
   -5.9596   10.4818   -7.7362 C   0  0  0  0  0  0  0  0  0  0  0  0
   -5.8460   11.7538   -7.1602 C   0  0  0  0  0  0  0  0  0  0  0  0
   -4.5819   12.3007   -6.9160 C   0  0  0  0  0  0  0  0  0  0  0  0
   -3.4335   11.5746   -7.2403 C   0  0  0  0  0  0  0  0  0  0  0  0
   -3.5461   10.3067   -7.8068 C   0  0  0  0  0  0  0  0  0  0  0  0
   -4.8068    9.7600   -8.0558 C   0  0  0  0  0  0  0  0  0  0  0  0
   -4.4568   13.6807   -6.3006 C   0  0  0  0  0  0  0  0  0  0  0  0
   -6.0750   12.2846   -9.8724 H   0  0  0  0  0  0  0  0  0  0  0  0
   -8.1843   10.1199  -13.8976 H   0  0  0  0  0  0  0  0  0  0  0  0
   -6.9067   12.2589  -14.0885 H   0  0  0  0  0  0  0  0  0  0  0  0
   -8.7599   10.5623  -11.5840 H   0  0  0  0  0  0  0  0  0  0  0  0
   -8.0380    9.5979   -7.2556 H   0  0  0  0  0  0  0  0  0  0  0  0
   -3.8948   12.8297  -11.7074 H   0  0  0  0  0  0  0  0  0  0  0  0
   -2.6189   14.5701  -10.8280 H   0  0  0  0  0  0  0  0  0  0  0  0
   -3.0927   14.8813  -12.5325 H   0  0  0  0  0  0  0  0  0  0  0  0
   -3.9729   15.6925  -11.1931 H   0  0  0  0  0  0  0  0  0  0  0  0
   -5.2336   15.2175  -12.9341 H   0  0  0  0  0  0  0  0  0  0  0  0
   -6.7345   12.3122   -6.9047 H   0  0  0  0  0  0  0  0  0  0  0  0
   -2.4573   11.9965   -7.0517 H   0  0  0  0  0  0  0  0  0  0  0  0
   -2.6569    9.7457   -8.0538 H   0  0  0  0  0  0  0  0  0  0  0  0
   -4.8908    8.7775   -8.4962 H   0  0  0  0  0  0  0  0  0  0  0  0
   -4.4264   13.5926   -5.2046 H   0  0  0  0  0  0  0  0  0  0  0  0
   -3.5315   14.1579   -6.6557 H   0  0  0  0  0  0  0  0  0  0  0  0
   -5.3217   14.2932   -6.5953 H   0  0  0  0  0  0  0  0  0  0  0  0
  1  2  1  0  0  0  0
  1  4  1  0  0  0  0
  1 13  2  3  0  0  0
  2  6  2  0  0  0  0
  3  4  2  0  0  0  0
  3  5  1  0  0  0  0
  5  6  1  0  0  0  0
  5  9  1  0  0  0  0
  6  7  1  0  0  0  0
  7  8  1  0  0  0  0
  7 10  2  3  0  0  0
  8  9  2  0  0  0  0
 10 15  1  0  0  0  0
 11 12  1  0  0  0  0
 11 13  1  0  0  0  0
 13 14  1  0  0  0  0
 15 16  2  0  0  0  0
 15 20  1  0  0  0  0
 16 17  1  0  0  0  0
 17 18  2  0  0  0  0
 17 21  1  0  0  0  0
 18 19  1  0  0  0  0
 19 20  2  0  0  0  0
  2 22  1  0  0  0  0
  3 23  1  0  0  0  0
  4 24  1  0  0  0  0
  5 25  1  0  0  0  0
 10 26  1  0  0  0  0
 11 27  1  0  0  0  0
 12 28  1  0  0  0  0
 12 29  1  0  0  0  0
 12 30  1  0  0  0  0
 14 31  1  0  0  0  0
 16 32  1  0  0  0  0
 18 33  1  0  0  0  0
 19 34  1  0  0  0  0
 20 35  1  0  0  0  0
 21 36  1  0  0  0  0
 21 37  1  0  0  0  0
 21 38  1  0  0  0  0
M  END
> <Name>
16

> <IC50[uM]>
0.17

$$$$
16
  -OEChem-05192314333D
 Structure written by MMmdl.
 38 40  0     0  0  0  0  0  0999 V2000
   -6.3886   12.3706  -12.0044 C   0  0  0  0  0  0  0  0  0  0  0  0
   -6.5217   11.8105  -10.7338 C   0  0  0  0  0  0  0  0  0  0  0  0
   -7.7267   10.5778  -13.0331 C   0  0  0  0  0  0  0  0  0  0  0  0
   -6.9997   11.7772  -13.1264 C   0  0  0  0  0  0  0  0  0  0  0  0
   -7.8245   10.0105  -11.7588 C   0  0  0  0  0  0  0  0  0  0  0  0
   -7.2447   10.6240  -10.5997 C   0  0  0  0  0  0  0  0  0  0  0  0
   -7.6157    9.7479   -9.5130 C   0  0  0  0  0  0  0  0  0  0  0  0
   -8.2818    8.7335   -9.9900 N   0  0  0  0  0  0  0  0  0  0  0  0
   -8.4155    8.8614  -11.3010 N   0  0  0  0  0  0  0  0  0  0  0  0
   -7.3377    9.8874   -8.0251 C   0  0  0  0  0  0  0  0  0  0  0  0
   -4.4115   13.6449  -11.4457 N   0  0  0  0  0  0  0  0  0  0  0  0
   -3.4644   14.7678  -11.5034 C   0  0  0  0  0  0  0  0  0  0  0  0
   -5.5490   13.6243  -12.1808 C   0  0  0  0  0  0  0  0  0  0  0  0
   -5.8784   14.5204  -12.9613 O   0  0  0  0  0  0  0  0  0  0  0  0
   -5.9596   10.4818   -7.7362 C   0  0  0  0  0  0  0  0  0  0  0  0
   -5.8460   11.7538   -7.1602 C   0  0  0  0  0  0  0  0  0  0  0  0
   -4.5819   12.3007   -6.9160 C   0  0  0  0  0  0  0  0  0  0  0  0
   -3.4335   11.5746   -7.2403 C   0  0  0  0  0  0  0  0  0  0  0  0
   -3.5461   10.3067   -7.8068 C   0  0  0  0  0  0  0  0  0  0  0  0
   -4.8068    9.7600   -8.0558 C   0  0  0  0  0  0  0  0  0  0  0  0
   -4.4568   13.6807   -6.3006 C   0  0  0  0  0  0  0  0  0  0  0  0
   -6.0750   12.2846   -9.8724 H   0  0  0  0  0  0  0  0  0  0  0  0
   -8.1843   10.1199  -13.8976 H   0  0  0  0  0  0  0  0  0  0  0  0
   -7.6950   12.5276  -13.5308 H   0  0  0  0  0  0  0  0  0  0  0  0
   -6.1951   11.5934  -13.8536 H   0  0  0  0  0  0  0  0  0  0  0  0
   -8.0380    9.5979   -7.2556 H   0  0  0  0  0  0  0  0  0  0  0  0
   -3.8948   12.8297  -11.7074 H   0  0  0  0  0  0  0  0  0  0  0  0
   -2.6189   14.5701  -10.8280 H   0  0  0  0  0  0  0  0  0  0  0  0
   -3.0927   14.8813  -12.5325 H   0  0  0  0  0  0  0  0  0  0  0  0
   -3.9729   15.6925  -11.1931 H   0  0  0  0  0  0  0  0  0  0  0  0
   -5.2336   15.2175  -12.9341 H   0  0  0  0  0  0  0  0  0  0  0  0
   -6.7345   12.3122   -6.9047 H   0  0  0  0  0  0  0  0  0  0  0  0
   -2.4573   11.9965   -7.0517 H   0  0  0  0  0  0  0  0  0  0  0  0
   -2.6569    9.7457   -8.0538 H   0  0  0  0  0  0  0  0  0  0  0  0
   -4.8908    8.7775   -8.4962 H   0  0  0  0  0  0  0  0  0  0  0  0
   -4.4264   13.5926   -5.2046 H   0  0  0  0  0  0  0  0  0  0  0  0
   -3.5315   14.1579   -6.6557 H   0  0  0  0  0  0  0  0  0  0  0  0
   -5.3217   14.2932   -6.5953 H   0  0  0  0  0  0  0  0  0  0  0  0
  1  2  1  0  0  0  0
  1  4  1  0  0  0  0
  1 13  2  3  0  0  0
  2  6  2  0  0  0  0
  3  4  1  0  0  0  0
  3  5  2  0  0  0  0
  5  6  1  0  0  0  0
  5  9  1  0  0  0  0
  6  7  1  0  0  0  0
  7  8  1  0  0  0  0
  7 10  2  3  0  0  0
  8  9  2  0  0  0  0
 10 15  1  0  0  0  0
 11 12  1  0  0  0  0
 11 13  1  0  0  0  0
 13 14  1  0  0  0  0
 15 16  2  0  0  0  0
 15 20  1  0  0  0  0
 16 17  1  0  0  0  0
 17 18  2  0  0  0  0
 17 21  1  0  0  0  0
 18 19  1  0  0  0  0
 19 20  2  0  0  0  0
  2 22  1  0  0  0  0
  3 23  1  0  0  0  0
  4 24  1  0  0  0  0
  4 25  1  0  0  0  0
 10 26  1  0  0  0  0
 11 27  1  0  0  0  0
 12 28  1  0  0  0  0
 12 29  1  0  0  0  0
 12 30  1  0  0  0  0
 14 31  1  0  0  0  0
 16 32  1  0  0  0  0
 18 33  1  0  0  0  0
 19 34  1  0  0  0  0
 20 35  1  0  0  0  0
 21 36  1  0  0  0  0
 21 37  1  0  0  0  0
 21 38  1  0  0  0  0
M  END
> <Name>
16

> <IC50[uM]>
0.17

$$$$
16
  -OEChem-05192314333D
 Structure written by MMmdl.
 38 40  0     0  0  0  0  0  0999 V2000
   -6.3886   12.3706  -12.0044 C   0  0  0  0  0  0  0  0  0  0  0  0
   -6.5217   11.8105  -10.7338 C   0  0  0  0  0  0  0  0  0  0  0  0
   -7.7267   10.5778  -13.0331 C   0  0  0  0  0  0  0  0  0  0  0  0
   -6.9997   11.7772  -13.1264 C   0  0  0  0  0  0  0  0  0  0  0  0
   -7.8245   10.0105  -11.7588 C   0  0  0  0  0  0  0  0  0  0  0  0
   -7.2447   10.6240  -10.5997 C   0  0  0  0  0  0  0  0  0  0  0  0
   -7.6157    9.7479   -9.5130 C   0  0  0  0  0  0  0  0  0  0  0  0
   -8.2818    8.7335   -9.9900 N   0  0  0  0  0  0  0  0  0  0  0  0
   -8.4155    8.8614  -11.3010 N   0  0  0  0  0  0  0  0  0  0  0  0
   -7.3377    9.8874   -8.0251 C   0  0  0  0  0  0  0  0  0  0  0  0
   -4.4115   13.6449  -11.4457 N   0  0  0  0  0  0  0  0  0  0  0  0
   -3.4644   14.7678  -11.5034 C   0  0  0  0  0  0  0  0  0  0  0  0
   -5.5490   13.6243  -12.1808 C   0  0  0  0  0  0  0  0  0  0  0  0
   -5.8784   14.5204  -12.9613 O   0  0  0  0  0  0  0  0  0  0  0  0
   -5.9596   10.4818   -7.7362 C   0  0  0  0  0  0  0  0  0  0  0  0
   -5.8460   11.7538   -7.1602 C   0  0  0  0  0  0  0  0  0  0  0  0
   -4.5819   12.3007   -6.9160 C   0  0  0  0  0  0  0  0  0  0  0  0
   -3.4335   11.5746   -7.2403 C   0  0  0  0  0  0  0  0  0  0  0  0
   -3.5461   10.3067   -7.8068 C   0  0  0  0  0  0  0  0  0  0  0  0
   -4.8068    9.7600   -8.0558 C   0  0  0  0  0  0  0  0  0  0  0  0
   -4.4568   13.6807   -6.3006 C   0  0  0  0  0  0  0  0  0  0  0  0
   -5.5067   11.6162  -10.3570 H   0  0  0  0  0  0  0  0  0  0  0  0
   -7.0113   12.5624  -10.0975 H   0  0  0  0  0  0  0  0  0  0  0  0
   -8.1843   10.1199  -13.8976 H   0  0  0  0  0  0  0  0  0  0  0  0
   -6.9067   12.2589  -14.0885 H   0  0  0  0  0  0  0  0  0  0  0  0
   -8.0380    9.5979   -7.2556 H   0  0  0  0  0  0  0  0  0  0  0  0
   -3.8948   12.8297  -11.7074 H   0  0  0  0  0  0  0  0  0  0  0  0
   -2.6189   14.5701  -10.8280 H   0  0  0  0  0  0  0  0  0  0  0  0
   -3.0927   14.8813  -12.5325 H   0  0  0  0  0  0  0  0  0  0  0  0
   -3.9729   15.6925  -11.1931 H   0  0  0  0  0  0  0  0  0  0  0  0
   -5.2336   15.2175  -12.9341 H   0  0  0  0  0  0  0  0  0  0  0  0
   -6.7345   12.3122   -6.9047 H   0  0  0  0  0  0  0  0  0  0  0  0
   -2.4573   11.9965   -7.0517 H   0  0  0  0  0  0  0  0  0  0  0  0
   -2.6569    9.7457   -8.0538 H   0  0  0  0  0  0  0  0  0  0  0  0
   -4.8908    8.7775   -8.4962 H   0  0  0  0  0  0  0  0  0  0  0  0
   -4.4264   13.5926   -5.2046 H   0  0  0  0  0  0  0  0  0  0  0  0
   -3.5315   14.1579   -6.6557 H   0  0  0  0  0  0  0  0  0  0  0  0
   -5.3217   14.2932   -6.5953 H   0  0  0  0  0  0  0  0  0  0  0  0
  1  2  1  0  0  0  0
  1  4  1  0  0  0  0
  1 13  2  3  0  0  0
  2  6  1  0  0  0  0
  3  4  2  0  0  0  0
  3  5  1  0  0  0  0
  5  6  2  0  0  0  0
  5  9  1  0  0  0  0
  6  7  1  0  0  0  0
  7  8  1  0  0  0  0
  7 10  2  3  0  0  0
  8  9  2  0  0  0  0
 10 15  1  0  0  0  0
 11 12  1  0  0  0  0
 11 13  1  0  0  0  0
 13 14  1  0  0  0  0
 15 16  2  0  0  0  0
 15 20  1  0  0  0  0
 16 17  1  0  0  0  0
 17 18  2  0  0  0  0
 17 21  1  0  0  0  0
 18 19  1  0  0  0  0
 19 20  2  0  0  0  0
  2 22  1  0  0  0  0
  2 23  1  0  0  0  0
  3 24  1  0  0  0  0
  4 25  1  0  0  0  0
 10 26  1  0  0  0  0
 11 27  1  0  0  0  0
 12 28  1  0  0  0  0
 12 29  1  0  0  0  0
 12 30  1  0  0  0  0
 14 31  1  0  0  0  0
 16 32  1  0  0  0  0
 18 33  1  0  0  0  0
 19 34  1  0  0  0  0
 20 35  1  0  0  0  0
 21 36  1  0  0  0  0
 21 37  1  0  0  0  0
 21 38  1  0  0  0  0
M  END
> <Name>
16

> <IC50[uM]>
0.17

$$$$
16
  -OEChem-05192314333D
 Structure written by MMmdl.
 38 40  0     0  0  0  0  0  0999 V2000
   -6.3886   12.3706  -12.0044 C   0  0  0  0  0  0  0  0  0  0  0  0
   -6.5217   11.8105  -10.7338 C   0  0  0  0  0  0  0  0  0  0  0  0
   -7.7267   10.5778  -13.0331 C   0  0  0  0  0  0  0  0  0  0  0  0
   -6.9997   11.7772  -13.1264 C   0  0  0  0  0  0  0  0  0  0  0  0
   -7.8245   10.0105  -11.7588 C   0  0  0  0  0  0  0  0  0  0  0  0
   -7.2447   10.6240  -10.5997 C   0  0  0  0  0  0  0  0  0  0  0  0
   -7.6157    9.7479   -9.5130 C   0  0  0  0  0  0  0  0  0  0  0  0
   -8.2818    8.7335   -9.9900 N   0  0  0  0  0  0  0  0  0  0  0  0
   -8.4155    8.8614  -11.3010 N   0  0  0  0  0  0  0  0  0  0  0  0
   -7.3377    9.8874   -8.0251 C   0  0  0  0  0  0  0  0  0  0  0  0
   -4.4115   13.6449  -11.4457 N   0  0  0  0  0  0  0  0  0  0  0  0
   -3.4644   14.7678  -11.5034 C   0  0  0  0  0  0  0  0  0  0  0  0
   -5.5490   13.6243  -12.1808 C   0  0  0  0  0  0  0  0  0  0  0  0
   -5.8784   14.5204  -12.9613 O   0  0  0  0  0  0  0  0  0  0  0  0
   -5.9596   10.4818   -7.7362 C   0  0  0  0  0  0  0  0  0  0  0  0
   -5.8460   11.7538   -7.1602 C   0  0  0  0  0  0  0  0  0  0  0  0
   -4.5819   12.3007   -6.9160 C   0  0  0  0  0  0  0  0  0  0  0  0
   -3.4335   11.5746   -7.2403 C   0  0  0  0  0  0  0  0  0  0  0  0
   -3.5461   10.3067   -7.8068 C   0  0  0  0  0  0  0  0  0  0  0  0
   -4.8068    9.7600   -8.0558 C   0  0  0  0  0  0  0  0  0  0  0  0
   -4.4568   13.6807   -6.3006 C   0  0  0  0  0  0  0  0  0  0  0  0
   -6.0750   12.2846   -9.8724 H   0  0  0  0  0  0  0  0  0  0  0  0
   -8.1843   10.1199  -13.8976 H   0  0  0  0  0  0  0  0  0  0  0  0
   -6.9067   12.2589  -14.0885 H   0  0  0  0  0  0  0  0  0  0  0  0
   -8.0380    9.5979   -7.2556 H   0  0  0  0  0  0  0  0  0  0  0  0
   -3.8948   12.8297  -11.7074 H   0  0  0  0  0  0  0  0  0  0  0  0
   -2.6189   14.5701  -10.8280 H   0  0  0  0  0  0  0  0  0  0  0  0
   -3.0927   14.8813  -12.5325 H   0  0  0  0  0  0  0  0  0  0  0  0
   -3.9729   15.6925  -11.1931 H   0  0  0  0  0  0  0  0  0  0  0  0
   -5.2336   15.2175  -12.9341 H   0  0  0  0  0  0  0  0  0  0  0  0
   -6.7345   12.3122   -6.9047 H   0  0  0  0  0  0  0  0  0  0  0  0
   -2.4573   11.9965   -7.0517 H   0  0  0  0  0  0  0  0  0  0  0  0
   -2.6569    9.7457   -8.0538 H   0  0  0  0  0  0  0  0  0  0  0  0
   -4.8589    8.8150   -7.4951 H   0  0  0  0  0  0  0  0  0  0  0  0
   -4.8535    9.5494   -9.1344 H   0  0  0  0  0  0  0  0  0  0  0  0
   -3.3931   13.9367   -6.1862 H   0  0  0  0  0  0  0  0  0  0  0  0
   -4.9432   14.4192   -6.9548 H   0  0  0  0  0  0  0  0  0  0  0  0
   -4.9436   13.6877   -5.3142 H   0  0  0  0  0  0  0  0  0  0  0  0
  1  2  1  0  0  0  0
  1  4  1  0  0  0  0
  1 13  2  3  0  0  0
  2  6  2  0  0  0  0
  3  4  2  0  0  0  0
  3  5  1  0  0  0  0
  5  6  1  0  0  0  0
  5  9  2  0  0  0  0
  6  7  1  0  0  0  0
  7  8  2  0  0  0  0
  7 10  1  0  0  0  0
  8  9  1  0  0  0  0
 10 15  2  3  0  0  0
 11 12  1  0  0  0  0
 11 13  1  0  0  0  0
 13 14  1  0  0  0  0
 15 16  1  0  0  0  0
 15 20  1  0  0  0  0
 16 17  2  0  0  0  0
 17 18  1  0  0  0  0
 17 21  1  0  0  0  0
 18 19  2  0  0  0  0
 19 20  1  0  0  0  0
  2 22  1  0  0  0  0
  3 23  1  0  0  0  0
  4 24  1  0  0  0  0
 10 25  1  0  0  0  0
 11 26  1  0  0  0  0
 12 27  1  0  0  0  0
 12 28  1  0  0  0  0
 12 29  1  0  0  0  0
 14 30  1  0  0  0  0
 16 31  1  0  0  0  0
 18 32  1  0  0  0  0
 19 33  1  0  0  0  0
 20 34  1  0  0  0  0
 20 35  1  0  0  0  0
 21 36  1  0  0  0  0
 21 37  1  0  0  0  0
 21 38  1  0  0  0  0
M  END
> <Name>
16

> <IC50[uM]>
0.17

$$$$
16
  -OEChem-05192314333D
 Structure written by MMmdl.
 38 40  0     0  0  0  0  0  0999 V2000
   -6.3886   12.3706  -12.0044 C   0  0  0  0  0  0  0  0  0  0  0  0
   -6.5217   11.8105  -10.7338 C   0  0  0  0  0  0  0  0  0  0  0  0
   -7.7267   10.5778  -13.0331 C   0  0  0  0  0  0  0  0  0  0  0  0
   -6.9997   11.7772  -13.1264 C   0  0  0  0  0  0  0  0  0  0  0  0
   -7.8245   10.0105  -11.7588 C   0  0  0  0  0  0  0  0  0  0  0  0
   -7.2447   10.6240  -10.5997 C   0  0  0  0  0  0  0  0  0  0  0  0
   -7.6157    9.7479   -9.5130 C   0  0  0  0  0  0  0  0  0  0  0  0
   -8.2818    8.7335   -9.9900 N   0  0  0  0  0  0  0  0  0  0  0  0
   -8.4155    8.8614  -11.3010 N   0  0  0  0  0  0  0  0  0  0  0  0
   -7.3377    9.8874   -8.0251 C   0  0  0  0  0  0  0  0  0  0  0  0
   -4.4115   13.6449  -11.4457 N   0  0  0  0  0  0  0  0  0  0  0  0
   -3.4644   14.7678  -11.5034 C   0  0  0  0  0  0  0  0  0  0  0  0
   -5.5490   13.6243  -12.1808 C   0  0  0  0  0  0  0  0  0  0  0  0
   -5.8784   14.5204  -12.9613 O   0  0  0  0  0  0  0  0  0  0  0  0
   -5.9596   10.4818   -7.7362 C   0  0  0  0  0  0  0  0  0  0  0  0
   -5.8460   11.7538   -7.1602 C   0  0  0  0  0  0  0  0  0  0  0  0
   -4.5819   12.3007   -6.9160 C   0  0  0  0  0  0  0  0  0  0  0  0
   -3.4335   11.5746   -7.2403 C   0  0  0  0  0  0  0  0  0  0  0  0
   -3.5461   10.3067   -7.8068 C   0  0  0  0  0  0  0  0  0  0  0  0
   -4.8068    9.7600   -8.0558 C   0  0  0  0  0  0  0  0  0  0  0  0
   -4.4568   13.6807   -6.3006 C   0  0  0  0  0  0  0  0  0  0  0  0
   -6.0750   12.2846   -9.8724 H   0  0  0  0  0  0  0  0  0  0  0  0
   -8.1843   10.1199  -13.8976 H   0  0  0  0  0  0  0  0  0  0  0  0
   -6.9067   12.2589  -14.0885 H   0  0  0  0  0  0  0  0  0  0  0  0
   -8.0380    9.5979   -7.2556 H   0  0  0  0  0  0  0  0  0  0  0  0
   -3.8948   12.8297  -11.7074 H   0  0  0  0  0  0  0  0  0  0  0  0
   -2.6189   14.5701  -10.8280 H   0  0  0  0  0  0  0  0  0  0  0  0
   -3.0927   14.8813  -12.5325 H   0  0  0  0  0  0  0  0  0  0  0  0
   -3.9729   15.6925  -11.1931 H   0  0  0  0  0  0  0  0  0  0  0  0
   -5.2336   15.2175  -12.9341 H   0  0  0  0  0  0  0  0  0  0  0  0
   -6.7345   12.3122   -6.9047 H   0  0  0  0  0  0  0  0  0  0  0  0
   -2.8594   12.1890   -7.9494 H   0  0  0  0  0  0  0  0  0  0  0  0
   -2.8596   11.4563   -6.3094 H   0  0  0  0  0  0  0  0  0  0  0  0
   -2.6569    9.7457   -8.0538 H   0  0  0  0  0  0  0  0  0  0  0  0
   -4.8908    8.7775   -8.4962 H   0  0  0  0  0  0  0  0  0  0  0  0
   -3.3931   13.9367   -6.1862 H   0  0  0  0  0  0  0  0  0  0  0  0
   -4.9432   14.4192   -6.9548 H   0  0  0  0  0  0  0  0  0  0  0  0
   -4.9436   13.6877   -5.3142 H   0  0  0  0  0  0  0  0  0  0  0  0
  1  2  1  0  0  0  0
  1  4  1  0  0  0  0
  1 13  2  3  0  0  0
  2  6  2  0  0  0  0
  3  4  2  0  0  0  0
  3  5  1  0  0  0  0
  5  6  1  0  0  0  0
  5  9  2  0  0  0  0
  6  7  1  0  0  0  0
  7  8  2  0  0  0  0
  7 10  1  0  0  0  0
  8  9  1  0  0  0  0
 10 15  2  3  0  0  0
 11 12  1  0  0  0  0
 11 13  1  0  0  0  0
 13 14  1  0  0  0  0
 15 16  1  0  0  0  0
 15 20  1  0  0  0  0
 16 17  2  0  0  0  0
 17 18  1  0  0  0  0
 17 21  1  0  0  0  0
 18 19  1  0  0  0  0
 19 20  2  0  0  0  0
  2 22  1  0  0  0  0
  3 23  1  0  0  0  0
  4 24  1  0  0  0  0
 10 25  1  0  0  0  0
 11 26  1  0  0  0  0
 12 27  1  0  0  0  0
 12 28  1  0  0  0  0
 12 29  1  0  0  0  0
 14 30  1  0  0  0  0
 16 31  1  0  0  0  0
 18 32  1  0  0  0  0
 18 33  1  0  0  0  0
 19 34  1  0  0  0  0
 20 35  1  0  0  0  0
 21 36  1  0  0  0  0
 21 37  1  0  0  0  0
 21 38  1  0  0  0  0
M  END
> <Name>
16

> <IC50[uM]>
0.17

$$$$
16
  -OEChem-05192314333D
 Structure written by MMmdl.
 38 40  0     0  0  0  0  0  0999 V2000
   -6.3886   12.3706  -12.0044 C   0  0  0  0  0  0  0  0  0  0  0  0
   -6.5217   11.8105  -10.7338 C   0  0  0  0  0  0  0  0  0  0  0  0
   -7.7267   10.5778  -13.0331 C   0  0  0  0  0  0  0  0  0  0  0  0
   -6.9997   11.7772  -13.1264 C   0  0  0  0  0  0  0  0  0  0  0  0
   -7.8245   10.0105  -11.7588 C   0  0  0  0  0  0  0  0  0  0  0  0
   -7.2447   10.6240  -10.5997 C   0  0  0  0  0  0  0  0  0  0  0  0
   -7.6157    9.7479   -9.5130 C   0  0  0  0  0  0  0  0  0  0  0  0
   -8.2818    8.7335   -9.9900 N   0  0  0  0  0  0  0  0  0  0  0  0
   -8.4155    8.8614  -11.3010 N   0  0  0  0  0  0  0  0  0  0  0  0
   -7.3377    9.8874   -8.0251 C   0  0  0  0  0  0  0  0  0  0  0  0
   -4.4115   13.6449  -11.4457 N   0  0  0  0  0  0  0  0  0  0  0  0
   -3.4644   14.7678  -11.5034 C   0  0  0  0  0  0  0  0  0  0  0  0
   -5.5490   13.6243  -12.1808 C   0  0  0  0  0  0  0  0  0  0  0  0
   -5.8784   14.5204  -12.9613 O   0  0  0  0  0  0  0  0  0  0  0  0
   -5.9596   10.4818   -7.7362 C   0  0  0  0  0  0  0  0  0  0  0  0
   -5.8460   11.7538   -7.1602 C   0  0  0  0  0  0  0  0  0  0  0  0
   -4.5819   12.3007   -6.9160 C   0  0  0  0  0  0  0  0  0  0  0  0
   -3.4335   11.5746   -7.2403 C   0  0  0  0  0  0  0  0  0  0  0  0
   -3.5461   10.3067   -7.8068 C   0  0  0  0  0  0  0  0  0  0  0  0
   -4.8068    9.7600   -8.0558 C   0  0  0  0  0  0  0  0  0  0  0  0
   -4.4568   13.6807   -6.3006 C   0  0  0  0  0  0  0  0  0  0  0  0
   -6.0750   12.2846   -9.8724 H   0  0  0  0  0  0  0  0  0  0  0  0
   -8.1843   10.1199  -13.8976 H   0  0  0  0  0  0  0  0  0  0  0  0
   -6.9067   12.2589  -14.0885 H   0  0  0  0  0  0  0  0  0  0  0  0
   -8.0380    9.5979   -7.2556 H   0  0  0  0  0  0  0  0  0  0  0  0
   -3.8948   12.8297  -11.7074 H   0  0  0  0  0  0  0  0  0  0  0  0
   -2.6189   14.5701  -10.8280 H   0  0  0  0  0  0  0  0  0  0  0  0
   -3.0927   14.8813  -12.5325 H   0  0  0  0  0  0  0  0  0  0  0  0
   -3.9729   15.6925  -11.1931 H   0  0  0  0  0  0  0  0  0  0  0  0
   -5.2336   15.2175  -12.9341 H   0  0  0  0  0  0  0  0  0  0  0  0
   -6.3708   12.4528   -7.8280 H   0  0  0  0  0  0  0  0  0  0  0  0
   -6.3661   11.7115   -6.1919 H   0  0  0  0  0  0  0  0  0  0  0  0
   -2.4573   11.9965   -7.0517 H   0  0  0  0  0  0  0  0  0  0  0  0
   -2.6569    9.7457   -8.0538 H   0  0  0  0  0  0  0  0  0  0  0  0
   -4.8908    8.7775   -8.4962 H   0  0  0  0  0  0  0  0  0  0  0  0
   -3.3931   13.9367   -6.1862 H   0  0  0  0  0  0  0  0  0  0  0  0
   -4.9432   14.4192   -6.9548 H   0  0  0  0  0  0  0  0  0  0  0  0
   -4.9436   13.6877   -5.3142 H   0  0  0  0  0  0  0  0  0  0  0  0
  1  2  1  0  0  0  0
  1  4  1  0  0  0  0
  1 13  2  3  0  0  0
  2  6  2  0  0  0  0
  3  4  2  0  0  0  0
  3  5  1  0  0  0  0
  5  6  1  0  0  0  0
  5  9  2  0  0  0  0
  6  7  1  0  0  0  0
  7  8  2  0  0  0  0
  7 10  1  0  0  0  0
  8  9  1  0  0  0  0
 10 15  2  3  0  0  0
 11 12  1  0  0  0  0
 11 13  1  0  0  0  0
 13 14  1  0  0  0  0
 15 16  1  0  0  0  0
 15 20  1  0  0  0  0
 16 17  1  0  0  0  0
 17 18  2  0  0  0  0
 17 21  1  0  0  0  0
 18 19  1  0  0  0  0
 19 20  2  0  0  0  0
  2 22  1  0  0  0  0
  3 23  1  0  0  0  0
  4 24  1  0  0  0  0
 10 25  1  0  0  0  0
 11 26  1  0  0  0  0
 12 27  1  0  0  0  0
 12 28  1  0  0  0  0
 12 29  1  0  0  0  0
 14 30  1  0  0  0  0
 16 31  1  0  0  0  0
 16 32  1  0  0  0  0
 18 33  1  0  0  0  0
 19 34  1  0  0  0  0
 20 35  1  0  0  0  0
 21 36  1  0  0  0  0
 21 37  1  0  0  0  0
 21 38  1  0  0  0  0
M  END
> <Name>
16

> <IC50[uM]>
0.17

$$$$
