45
  -OEChem-05192314333D
 Structure written by MMmdl.
 49 53  0     0  0  0  0  0  0999 V2000
   -6.4275   12.3453  -12.0176 C   0  0  0  0  0  0  0  0  0  0  0  0
   -6.6105   11.7832  -10.7429 C   0  0  0  0  0  0  0  0  0  0  0  0
   -7.7405   10.5587  -13.0479 C   0  0  0  0  0  0  0  0  0  0  0  0
   -7.0073   11.7527  -13.1387 C   0  0  0  0  0  0  0  0  0  0  0  0
   -7.8357    9.9872  -11.7695 C   0  0  0  0  0  0  0  0  0  0  0  0
   -7.2848   10.5993  -10.6252 C   0  0  0  0  0  0  0  0  0  0  0  0
   -7.6281    9.7307   -9.5318 C   0  0  0  0  0  0  0  0  0  0  0  0
   -8.2830    8.7083   -9.9969 N   0  0  0  0  0  0  0  0  0  0  0  0
   -8.4214    8.8369  -11.3125 N   0  0  0  0  0  0  0  0  0  0  0  0
   -7.3299    9.8861   -8.0415 C   0  0  0  0  0  0  0  0  0  0  0  0
   -4.6020   13.8371  -11.3112 N   0  0  0  0  0  0  0  0  0  0  0  0
   -5.6232   13.6419  -12.1798 C   0  0  0  0  0  0  0  0  0  0  0  0
   -5.9069   14.4516  -13.0592 O   0  0  0  0  0  0  0  0  0  0  0  0
   -5.9473   10.4903   -7.7303 C   0  0  0  0  0  0  0  0  0  0  0  0
   -5.8632   11.7421   -7.1195 C   0  0  0  0  0  0  0  0  0  0  0  0
   -4.5901   12.2560   -6.8332 C   0  0  0  0  0  0  0  0  0  0  0  0
   -3.4296   11.5300   -7.2115 C   0  0  0  0  0  0  0  0  0  0  0  0
   -3.5045   10.2730   -7.8164 C   0  0  0  0  0  0  0  0  0  0  0  0
   -4.7945    9.7703   -8.0537 C   0  0  0  0  0  0  0  0  0  0  0  0
   -4.0643   13.4351   -6.1976 C   0  0  0  0  0  0  0  0  0  0  0  0
   -2.7662   13.4536   -6.2615 N   0  0  0  0  0  0  0  0  0  0  0  0
   -2.3669   12.3336   -6.8391 N   0  0  0  0  0  0  0  0  0  0  0  0
   -0.9435   12.0941   -6.9881 C   0  0  0  0  0  0  0  0  0  0  0  0
   -4.0340   12.9997  -10.2404 C   0  0  0  0  0  0  0  0  0  0  0  0
   -3.1550   14.1929   -9.9451 C   0  0  0  0  0  0  0  0  0  0  0  0
   -3.8070   15.0441  -11.0419 C   0  0  0  0  0  0  0  0  0  0  0  0
   -3.4251   14.7437   -8.6708 O   0  0  0  0  0  0  0  0  0  0  0  0
   -4.8009   14.9943   -8.3397 C   0  0  0  0  0  0  0  0  0  0  0  0
   -6.2230   12.2805   -9.8660 H   0  0  0  0  0  0  0  0  0  0  0  0
   -8.2044   10.1062  -13.9119 H   0  0  0  0  0  0  0  0  0  0  0  0
   -6.8892   12.2248  -14.1028 H   0  0  0  0  0  0  0  0  0  0  0  0
   -8.6283    7.9452   -9.4506 H   0  0  0  0  0  0  0  0  0  0  0  0
   -8.0981   10.5401   -7.6030 H   0  0  0  0  0  0  0  0  0  0  0  0
   -7.3843    8.8919   -7.5740 H   0  0  0  0  0  0  0  0  0  0  0  0
   -6.7546   12.3002   -6.8738 H   0  0  0  0  0  0  0  0  0  0  0  0
   -2.6185    9.7178   -8.0869 H   0  0  0  0  0  0  0  0  0  0  0  0
   -4.8988    8.7932   -8.5018 H   0  0  0  0  0  0  0  0  0  0  0  0
   -4.6664   14.2006   -5.7309 H   0  0  0  0  0  0  0  0  0  0  0  0
   -0.3825   12.9417   -6.5674 H   0  0  0  0  0  0  0  0  0  0  0  0
   -0.6691   11.1721   -6.4547 H   0  0  0  0  0  0  0  0  0  0  0  0
   -0.6996   11.9867   -8.0553 H   0  0  0  0  0  0  0  0  0  0  0  0
   -4.7360   12.7267   -9.4387 H   0  0  0  0  0  0  0  0  0  0  0  0
   -3.5013   12.1004  -10.5834 H   0  0  0  0  0  0  0  0  0  0  0  0
   -2.0904   13.9978  -10.1413 H   0  0  0  0  0  0  0  0  0  0  0  0
   -3.1360   15.3560  -11.8558 H   0  0  0  0  0  0  0  0  0  0  0  0
   -4.3787   15.9133  -10.6846 H   0  0  0  0  0  0  0  0  0  0  0  0
   -4.8633   15.4195   -7.3271 H   0  0  0  0  0  0  0  0  0  0  0  0
   -5.2283   15.7048   -9.0625 H   0  0  0  0  0  0  0  0  0  0  0  0
   -5.3645   14.0504   -8.3763 H   0  0  0  0  0  0  0  0  0  0  0  0
  1  2  2  0  0  0  0
  1  4  1  0  0  0  0
  1 12  1  0  0  0  0
  2  6  1  0  0  0  0
  3  4  2  0  0  0  0
  3  5  1  0  0  0  0
  5  6  1  0  0  0  0
  5  9  2  0  0  0  0
  6  7  2  0  0  0  0
  7  8  1  0  0  0  0
  7 10  1  0  0  0  0
  8  9  1  0  0  0  0
 10 14  1  0  0  0  0
 11 12  1  0  0  0  0
 11 24  1  0  0  0  0
 11 26  1  0  0  0  0
 12 13  2  0  0  0  0
 14 15  2  0  0  0  0
 14 19  1  0  0  0  0
 15 16  1  0  0  0  0
 16 17  2  0  0  0  0
 16 20  1  0  0  0  0
 17 18  1  0  0  0  0
 17 22  1  0  0  0  0
 18 19  2  0  0  0  0
 20 21  2  0  0  0  0
 21 22  1  0  0  0  0
 22 23  1  0  0  0  0
 24 25  1  0  0  0  0
 25 26  1  0  0  0  0
 25 27  1  0  0  0  0
 27 28  1  0  0  0  0
  2 29  1  0  0  0  0
  3 30  1  0  0  0  0
  4 31  1  0  0  0  0
  8 32  1  0  0  0  0
 10 33  1  0  0  0  0
 10 34  1  0  0  0  0
 15 35  1  0  0  0  0
 18 36  1  0  0  0  0
 19 37  1  0  0  0  0
 20 38  1  0  0  0  0
 23 39  1  0  0  0  0
 23 40  1  0  0  0  0
 23 41  1  0  0  0  0
 24 42  1  0  0  0  0
 24 43  1  0  0  0  0
 25 44  1  0  0  0  0
 26 45  1  0  0  0  0
 26 46  1  0  0  0  0
 28 47  1  0  0  0  0
 28 48  1  0  0  0  0
 28 49  1  0  0  0  0
M  END
> <Name>
45

> <IC50[uM]>
0.007

$$$$
45
  -OEChem-05192314333D
 Structure written by MMmdl.
 49 53  0     0  0  0  0  0  0999 V2000
   -6.4275   12.3453  -12.0176 C   0  0  0  0  0  0  0  0  0  0  0  0
   -6.6105   11.7832  -10.7429 C   0  0  0  0  0  0  0  0  0  0  0  0
   -7.7405   10.5587  -13.0479 C   0  0  0  0  0  0  0  0  0  0  0  0
   -7.0073   11.7527  -13.1387 C   0  0  0  0  0  0  0  0  0  0  0  0
   -7.8357    9.9872  -11.7695 C   0  0  0  0  0  0  0  0  0  0  0  0
   -7.2848   10.5993  -10.6252 C   0  0  0  0  0  0  0  0  0  0  0  0
   -7.6281    9.7307   -9.5318 C   0  0  0  0  0  0  0  0  0  0  0  0
   -8.2830    8.7083   -9.9969 N   0  0  0  0  0  0  0  0  0  0  0  0
   -8.4214    8.8369  -11.3125 N   0  0  0  0  0  0  0  0  0  0  0  0
   -7.3299    9.8861   -8.0415 C   0  0  0  0  0  0  0  0  0  0  0  0
   -4.6020   13.8371  -11.3112 N   0  0  0  0  0  0  0  0  0  0  0  0
   -5.6232   13.6419  -12.1798 C   0  0  0  0  0  0  0  0  0  0  0  0
   -5.9069   14.4516  -13.0592 O   0  0  0  0  0  0  0  0  0  0  0  0
   -5.9473   10.4903   -7.7303 C   0  0  0  0  0  0  0  0  0  0  0  0
   -5.8632   11.7421   -7.1195 C   0  0  0  0  0  0  0  0  0  0  0  0
   -4.5901   12.2560   -6.8332 C   0  0  0  0  0  0  0  0  0  0  0  0
   -3.4296   11.5300   -7.2115 C   0  0  0  0  0  0  0  0  0  0  0  0
   -3.5045   10.2730   -7.8164 C   0  0  0  0  0  0  0  0  0  0  0  0
   -4.7945    9.7703   -8.0537 C   0  0  0  0  0  0  0  0  0  0  0  0
   -4.0643   13.4351   -6.1976 C   0  0  0  0  0  0  0  0  0  0  0  0
   -2.7662   13.4536   -6.2615 N   0  0  0  0  0  0  0  0  0  0  0  0
   -2.3669   12.3336   -6.8391 N   0  0  0  0  0  0  0  0  0  0  0  0
   -0.9435   12.0941   -6.9881 C   0  0  0  0  0  0  0  0  0  0  0  0
   -4.0340   12.9997  -10.2404 C   0  0  0  0  0  0  0  0  0  0  0  0
   -3.1550   14.1929   -9.9451 C   0  0  0  0  0  0  0  0  0  0  0  0
   -3.8070   15.0441  -11.0419 C   0  0  0  0  0  0  0  0  0  0  0  0
   -3.4251   14.7437   -8.6708 O   0  0  0  0  0  0  0  0  0  0  0  0
   -4.8009   14.9943   -8.3397 C   0  0  0  0  0  0  0  0  0  0  0  0
   -6.2230   12.2805   -9.8660 H   0  0  0  0  0  0  0  0  0  0  0  0
   -8.2044   10.1062  -13.9119 H   0  0  0  0  0  0  0  0  0  0  0  0
   -6.8892   12.2248  -14.1028 H   0  0  0  0  0  0  0  0  0  0  0  0
   -8.8941    8.1763  -11.8957 H   0  0  0  0  0  0  0  0  0  0  0  0
   -8.0981   10.5401   -7.6030 H   0  0  0  0  0  0  0  0  0  0  0  0
   -7.3843    8.8919   -7.5740 H   0  0  0  0  0  0  0  0  0  0  0  0
   -6.7546   12.3002   -6.8738 H   0  0  0  0  0  0  0  0  0  0  0  0
   -2.6185    9.7178   -8.0869 H   0  0  0  0  0  0  0  0  0  0  0  0
   -4.8988    8.7932   -8.5018 H   0  0  0  0  0  0  0  0  0  0  0  0
   -4.6664   14.2006   -5.7309 H   0  0  0  0  0  0  0  0  0  0  0  0
   -0.3825   12.9417   -6.5674 H   0  0  0  0  0  0  0  0  0  0  0  0
   -0.6691   11.1721   -6.4547 H   0  0  0  0  0  0  0  0  0  0  0  0
   -0.6996   11.9867   -8.0553 H   0  0  0  0  0  0  0  0  0  0  0  0
   -4.7360   12.7267   -9.4387 H   0  0  0  0  0  0  0  0  0  0  0  0
   -3.5013   12.1004  -10.5834 H   0  0  0  0  0  0  0  0  0  0  0  0
   -2.0904   13.9978  -10.1413 H   0  0  0  0  0  0  0  0  0  0  0  0
   -3.1360   15.3560  -11.8558 H   0  0  0  0  0  0  0  0  0  0  0  0
   -4.3787   15.9133  -10.6846 H   0  0  0  0  0  0  0  0  0  0  0  0
   -4.8633   15.4195   -7.3271 H   0  0  0  0  0  0  0  0  0  0  0  0
   -5.2283   15.7048   -9.0625 H   0  0  0  0  0  0  0  0  0  0  0  0
   -5.3645   14.0504   -8.3763 H   0  0  0  0  0  0  0  0  0  0  0  0
  1  2  2  0  0  0  0
  1  4  1  0  0  0  0
  1 12  1  0  0  0  0
  2  6  1  0  0  0  0
  3  4  2  0  0  0  0
  3  5  1  0  0  0  0
  5  6  2  0  0  0  0
  5  9  1  0  0  0  0
  6  7  1  0  0  0  0
  7  8  2  0  0  0  0
  7 10  1  0  0  0  0
  8  9  1  0  0  0  0
 10 14  1  0  0  0  0
 11 12  1  0  0  0  0
 11 24  1  0  0  0  0
 11 26  1  0  0  0  0
 12 13  2  0  0  0  0
 14 15  2  0  0  0  0
 14 19  1  0  0  0  0
 15 16  1  0  0  0  0
 16 17  2  0  0  0  0
 16 20  1  0  0  0  0
 17 18  1  0  0  0  0
 17 22  1  0  0  0  0
 18 19  2  0  0  0  0
 20 21  2  0  0  0  0
 21 22  1  0  0  0  0
 22 23  1  0  0  0  0
 24 25  1  0  0  0  0
 25 26  1  0  0  0  0
 25 27  1  0  0  0  0
 27 28  1  0  0  0  0
  2 29  1  0  0  0  0
  3 30  1  0  0  0  0
  4 31  1  0  0  0  0
  9 32  1  0  0  0  0
 10 33  1  0  0  0  0
 10 34  1  0  0  0  0
 15 35  1  0  0  0  0
 18 36  1  0  0  0  0
 19 37  1  0  0  0  0
 20 38  1  0  0  0  0
 23 39  1  0  0  0  0
 23 40  1  0  0  0  0
 23 41  1  0  0  0  0
 24 42  1  0  0  0  0
 24 43  1  0  0  0  0
 25 44  1  0  0  0  0
 26 45  1  0  0  0  0
 26 46  1  0  0  0  0
 28 47  1  0  0  0  0
 28 48  1  0  0  0  0
 28 49  1  0  0  0  0
M  END
> <Name>
45

> <IC50[uM]>
0.007

$$$$
45
  -OEChem-05192314333D
 Structure written by MMmdl.
 49 53  0     1  0  0  0  0  0999 V2000
   -6.4275   12.3453  -12.0176 C   0  0  0  0  0  0  0  0  0  0  0  0
   -6.6105   11.7832  -10.7429 C   0  0  0  0  0  0  0  0  0  0  0  0
   -7.7405   10.5587  -13.0479 C   0  0  0  0  0  0  0  0  0  0  0  0
   -7.0073   11.7527  -13.1387 C   0  0  0  0  0  0  0  0  0  0  0  0
   -7.8357    9.9872  -11.7695 C   0  0  0  0  0  0  0  0  0  0  0  0
   -7.2848   10.5993  -10.6252 C   0  0  0  0  0  0  0  0  0  0  0  0
   -7.6281    9.7307   -9.5318 C   0  0  3  0  0  0  0  0  0  0  0  0
   -8.2830    8.7083   -9.9969 N   0  0  0  0  0  0  0  0  0  0  0  0
   -8.4214    8.8369  -11.3125 N   0  0  0  0  0  0  0  0  0  0  0  0
   -7.3299    9.8861   -8.0415 C   0  0  0  0  0  0  0  0  0  0  0  0
   -4.6020   13.8371  -11.3112 N   0  0  0  0  0  0  0  0  0  0  0  0
   -5.6232   13.6419  -12.1798 C   0  0  0  0  0  0  0  0  0  0  0  0
   -5.9069   14.4516  -13.0592 O   0  0  0  0  0  0  0  0  0  0  0  0
   -5.9473   10.4903   -7.7303 C   0  0  0  0  0  0  0  0  0  0  0  0
   -5.8632   11.7421   -7.1195 C   0  0  0  0  0  0  0  0  0  0  0  0
   -4.5901   12.2560   -6.8332 C   0  0  0  0  0  0  0  0  0  0  0  0
   -3.4296   11.5300   -7.2115 C   0  0  0  0  0  0  0  0  0  0  0  0
   -3.5045   10.2730   -7.8164 C   0  0  0  0  0  0  0  0  0  0  0  0
   -4.7945    9.7703   -8.0537 C   0  0  0  0  0  0  0  0  0  0  0  0
   -4.0643   13.4351   -6.1976 C   0  0  0  0  0  0  0  0  0  0  0  0
   -2.7662   13.4536   -6.2615 N   0  0  0  0  0  0  0  0  0  0  0  0
   -2.3669   12.3336   -6.8391 N   0  0  0  0  0  0  0  0  0  0  0  0
   -0.9435   12.0941   -6.9881 C   0  0  0  0  0  0  0  0  0  0  0  0
   -4.0340   12.9997  -10.2404 C   0  0  0  0  0  0  0  0  0  0  0  0
   -3.1550   14.1929   -9.9451 C   0  0  0  0  0  0  0  0  0  0  0  0
   -3.8070   15.0441  -11.0419 C   0  0  0  0  0  0  0  0  0  0  0  0
   -3.4251   14.7437   -8.6708 O   0  0  0  0  0  0  0  0  0  0  0  0
   -4.8009   14.9943   -8.3397 C   0  0  0  0  0  0  0  0  0  0  0  0
   -6.2230   12.2805   -9.8660 H   0  0  0  0  0  0  0  0  0  0  0  0
   -8.2044   10.1062  -13.9119 H   0  0  0  0  0  0  0  0  0  0  0  0
   -6.8892   12.2248  -14.1028 H   0  0  0  0  0  0  0  0  0  0  0  0
   -6.6815    9.1866   -9.6655 H   0  0  0  0  0  0  0  0  0  0  0  0
   -8.0981   10.5401   -7.6030 H   0  0  0  0  0  0  0  0  0  0  0  0
   -7.3843    8.8919   -7.5740 H   0  0  0  0  0  0  0  0  0  0  0  0
   -6.7546   12.3002   -6.8738 H   0  0  0  0  0  0  0  0  0  0  0  0
   -2.6185    9.7178   -8.0869 H   0  0  0  0  0  0  0  0  0  0  0  0
   -4.8988    8.7932   -8.5018 H   0  0  0  0  0  0  0  0  0  0  0  0
   -4.6664   14.2006   -5.7309 H   0  0  0  0  0  0  0  0  0  0  0  0
   -0.3825   12.9417   -6.5674 H   0  0  0  0  0  0  0  0  0  0  0  0
   -0.6691   11.1721   -6.4547 H   0  0  0  0  0  0  0  0  0  0  0  0
   -0.6996   11.9867   -8.0553 H   0  0  0  0  0  0  0  0  0  0  0  0
   -4.7360   12.7267   -9.4387 H   0  0  0  0  0  0  0  0  0  0  0  0
   -3.5013   12.1004  -10.5834 H   0  0  0  0  0  0  0  0  0  0  0  0
   -2.0904   13.9978  -10.1413 H   0  0  0  0  0  0  0  0  0  0  0  0
   -3.1360   15.3560  -11.8558 H   0  0  0  0  0  0  0  0  0  0  0  0
   -4.3787   15.9133  -10.6846 H   0  0  0  0  0  0  0  0  0  0  0  0
   -4.8633   15.4195   -7.3271 H   0  0  0  0  0  0  0  0  0  0  0  0
   -5.2283   15.7048   -9.0625 H   0  0  0  0  0  0  0  0  0  0  0  0
   -5.3645   14.0504   -8.3763 H   0  0  0  0  0  0  0  0  0  0  0  0
  1  2  2  0  0  0  0
  1  4  1  0  0  0  0
  1 12  1  0  0  0  0
  2  6  1  0  0  0  0
  3  4  2  0  0  0  0
  3  5  1  0  0  0  0
  5  6  2  0  0  0  0
  5  9  1  0  0  0  0
  6  7  1  0  0  0  0
  7  8  1  0  0  0  0
  7 10  1  0  0  0  0
  8  9  2  0  0  0  0
 10 14  1  0  0  0  0
 11 12  1  0  0  0  0
 11 24  1  0  0  0  0
 11 26  1  0  0  0  0
 12 13  2  0  0  0  0
 14 15  2  0  0  0  0
 14 19  1  0  0  0  0
 15 16  1  0  0  0  0
 16 17  2  0  0  0  0
 16 20  1  0  0  0  0
 17 18  1  0  0  0  0
 17 22  1  0  0  0  0
 18 19  2  0  0  0  0
 20 21  2  0  0  0  0
 21 22  1  0  0  0  0
 22 23  1  0  0  0  0
 24 25  1  0  0  0  0
 25 26  1  0  0  0  0
 25 27  1  0  0  0  0
 27 28  1  0  0  0  0
  2 29  1  0  0  0  0
  3 30  1  0  0  0  0
  4 31  1  0  0  0  0
  7 32  1  0  0  0  0
 10 33  1  0  0  0  0
 10 34  1  0  0  0  0
 15 35  1  0  0  0  0
 18 36  1  0  0  0  0
 19 37  1  0  0  0  0
 20 38  1  0  0  0  0
 23 39  1  0  0  0  0
 23 40  1  0  0  0  0
 23 41  1  0  0  0  0
 24 42  1  0  0  0  0
 24 43  1  0  0  0  0
 25 44  1  0  0  0  0
 26 45  1  0  0  0  0
 26 46  1  0  0  0  0
 28 47  1  0  0  0  0
 28 48  1  0  0  0  0
 28 49  1  0  0  0  0
M  END
> <Name>
45

> <IC50[uM]>
0.007

$$$$
45
  -OEChem-05192314333D
 Structure written by MMmdl.
 49 53  0     0  0  0  0  0  0999 V2000
   -6.4275   12.3453  -12.0176 C   0  0  0  0  0  0  0  0  0  0  0  0
   -6.6105   11.7832  -10.7429 C   0  0  0  0  0  0  0  0  0  0  0  0
   -7.7405   10.5587  -13.0479 C   0  0  0  0  0  0  0  0  0  0  0  0
   -7.0073   11.7527  -13.1387 C   0  0  0  0  0  0  0  0  0  0  0  0
   -7.8357    9.9872  -11.7695 C   0  0  0  0  0  0  0  0  0  0  0  0
   -7.2848   10.5993  -10.6252 C   0  0  0  0  0  0  0  0  0  0  0  0
   -7.6281    9.7307   -9.5318 C   0  0  0  0  0  0  0  0  0  0  0  0
   -8.2830    8.7083   -9.9969 N   0  0  0  0  0  0  0  0  0  0  0  0
   -8.4214    8.8369  -11.3125 N   0  0  0  0  0  0  0  0  0  0  0  0
   -7.3299    9.8861   -8.0415 C   0  0  0  0  0  0  0  0  0  0  0  0
   -4.6020   13.8371  -11.3112 N   0  0  0  0  0  0  0  0  0  0  0  0
   -5.6232   13.6419  -12.1798 C   0  0  0  0  0  0  0  0  0  0  0  0
   -5.9069   14.4516  -13.0592 O   0  0  0  0  0  0  0  0  0  0  0  0
   -5.9473   10.4903   -7.7303 C   0  0  0  0  0  0  0  0  0  0  0  0
   -5.8632   11.7421   -7.1195 C   0  0  0  0  0  0  0  0  0  0  0  0
   -4.5901   12.2560   -6.8332 C   0  0  0  0  0  0  0  0  0  0  0  0
   -3.4296   11.5300   -7.2115 C   0  0  0  0  0  0  0  0  0  0  0  0
   -3.5045   10.2730   -7.8164 C   0  0  0  0  0  0  0  0  0  0  0  0
   -4.7945    9.7703   -8.0537 C   0  0  0  0  0  0  0  0  0  0  0  0
   -4.0643   13.4351   -6.1976 C   0  0  0  0  0  0  0  0  0  0  0  0
   -2.7662   13.4536   -6.2615 N   0  0  0  0  0  0  0  0  0  0  0  0
   -2.3669   12.3336   -6.8391 N   0  0  0  0  0  0  0  0  0  0  0  0
   -0.9435   12.0941   -6.9881 C   0  0  0  0  0  0  0  0  0  0  0  0
   -4.0340   12.9997  -10.2404 C   0  0  0  0  0  0  0  0  0  0  0  0
   -3.1550   14.1929   -9.9451 C   0  0  0  0  0  0  0  0  0  0  0  0
   -3.8070   15.0441  -11.0419 C   0  0  0  0  0  0  0  0  0  0  0  0
   -3.4251   14.7437   -8.6708 O   0  0  0  0  0  0  0  0  0  0  0  0
   -4.8009   14.9943   -8.3397 C   0  0  0  0  0  0  0  0  0  0  0  0
   -6.2230   12.2805   -9.8660 H   0  0  0  0  0  0  0  0  0  0  0  0
   -8.2044   10.1062  -13.9119 H   0  0  0  0  0  0  0  0  0  0  0  0
   -6.8892   12.2248  -14.1028 H   0  0  0  0  0  0  0  0  0  0  0  0
   -7.7791    7.8686   -9.7945 H   0  0  0  0  0  0  0  0  0  0  0  0
   -9.3959    8.8576  -11.5361 H   0  0  0  0  0  0  0  0  0  0  0  0
   -8.0293    9.5968   -7.2711 H   0  0  0  0  0  0  0  0  0  0  0  0
   -6.7546   12.3002   -6.8738 H   0  0  0  0  0  0  0  0  0  0  0  0
   -2.6185    9.7178   -8.0869 H   0  0  0  0  0  0  0  0  0  0  0  0
   -4.8988    8.7932   -8.5018 H   0  0  0  0  0  0  0  0  0  0  0  0
   -4.6664   14.2006   -5.7309 H   0  0  0  0  0  0  0  0  0  0  0  0
   -0.3825   12.9417   -6.5674 H   0  0  0  0  0  0  0  0  0  0  0  0
   -0.6691   11.1721   -6.4547 H   0  0  0  0  0  0  0  0  0  0  0  0
   -0.6996   11.9867   -8.0553 H   0  0  0  0  0  0  0  0  0  0  0  0
   -4.7360   12.7267   -9.4387 H   0  0  0  0  0  0  0  0  0  0  0  0
   -3.5013   12.1004  -10.5834 H   0  0  0  0  0  0  0  0  0  0  0  0
   -2.0904   13.9978  -10.1413 H   0  0  0  0  0  0  0  0  0  0  0  0
   -3.1360   15.3560  -11.8558 H   0  0  0  0  0  0  0  0  0  0  0  0
   -4.3787   15.9133  -10.6846 H   0  0  0  0  0  0  0  0  0  0  0  0
   -4.8633   15.4195   -7.3271 H   0  0  0  0  0  0  0  0  0  0  0  0
   -5.2283   15.7048   -9.0625 H   0  0  0  0  0  0  0  0  0  0  0  0
   -5.3645   14.0504   -8.3763 H   0  0  0  0  0  0  0  0  0  0  0  0
  1  2  2  0  0  0  0
  1  4  1  0  0  0  0
  1 12  1  0  0  0  0
  2  6  1  0  0  0  0
  3  4  2  0  0  0  0
  3  5  1  0  0  0  0
  5  6  2  0  0  0  0
  5  9  1  0  0  0  0
  6  7  1  0  0  0  0
  7  8  1  0  0  0  0
  7 10  2  3  0  0  0
  8  9  1  0  0  0  0
 10 14  1  0  0  0  0
 11 12  1  0  0  0  0
 11 24  1  0  0  0  0
 11 26  1  0  0  0  0
 12 13  2  0  0  0  0
 14 15  2  0  0  0  0
 14 19  1  0  0  0  0
 15 16  1  0  0  0  0
 16 17  2  0  0  0  0
 16 20  1  0  0  0  0
 17 18  1  0  0  0  0
 17 22  1  0  0  0  0
 18 19  2  0  0  0  0
 20 21  2  0  0  0  0
 21 22  1  0  0  0  0
 22 23  1  0  0  0  0
 24 25  1  0  0  0  0
 25 26  1  0  0  0  0
 25 27  1  0  0  0  0
 27 28  1  0  0  0  0
  2 29  1  0  0  0  0
  3 30  1  0  0  0  0
  4 31  1  0  0  0  0
  8 32  1  0  0  0  0
  9 33  1  0  0  0  0
 10 34  1  0  0  0  0
 15 35  1  0  0  0  0
 18 36  1  0  0  0  0
 19 37  1  0  0  0  0
 20 38  1  0  0  0  0
 23 39  1  0  0  0  0
 23 40  1  0  0  0  0
 23 41  1  0  0  0  0
 24 42  1  0  0  0  0
 24 43  1  0  0  0  0
 25 44  1  0  0  0  0
 26 45  1  0  0  0  0
 26 46  1  0  0  0  0
 28 47  1  0  0  0  0
 28 48  1  0  0  0  0
 28 49  1  0  0  0  0
M  END
> <Name>
45

> <IC50[uM]>
0.007

$$$$
45
  -OEChem-05192314333D
 Structure written by MMmdl.
 49 53  0     0  0  0  0  0  0999 V2000
   -6.4275   12.3453  -12.0176 C   0  0  0  0  0  0  0  0  0  0  0  0
   -6.6105   11.7832  -10.7429 C   0  0  0  0  0  0  0  0  0  0  0  0
   -7.7405   10.5587  -13.0479 C   0  0  0  0  0  0  0  0  0  0  0  0
   -7.0073   11.7527  -13.1387 C   0  0  0  0  0  0  0  0  0  0  0  0
   -7.8357    9.9872  -11.7695 C   0  0  0  0  0  0  0  0  0  0  0  0
   -7.2848   10.5993  -10.6252 C   0  0  0  0  0  0  0  0  0  0  0  0
   -7.6281    9.7307   -9.5318 C   0  0  0  0  0  0  0  0  0  0  0  0
   -8.2830    8.7083   -9.9969 N   0  0  0  0  0  0  0  0  0  0  0  0
   -8.4214    8.8369  -11.3125 N   0  0  0  0  0  0  0  0  0  0  0  0
   -7.3299    9.8861   -8.0415 C   0  0  0  0  0  0  0  0  0  0  0  0
   -4.6020   13.8371  -11.3112 N   0  0  0  0  0  0  0  0  0  0  0  0
   -5.6232   13.6419  -12.1798 C   0  0  0  0  0  0  0  0  0  0  0  0
   -5.9069   14.4516  -13.0592 O   0  0  0  0  0  0  0  0  0  0  0  0
   -5.9473   10.4903   -7.7303 C   0  0  0  0  0  0  0  0  0  0  0  0
   -5.8632   11.7421   -7.1195 C   0  0  0  0  0  0  0  0  0  0  0  0
   -4.5901   12.2560   -6.8332 C   0  0  0  0  0  0  0  0  0  0  0  0
   -3.4296   11.5300   -7.2115 C   0  0  0  0  0  0  0  0  0  0  0  0
   -3.5045   10.2730   -7.8164 C   0  0  0  0  0  0  0  0  0  0  0  0
   -4.7945    9.7703   -8.0537 C   0  0  0  0  0  0  0  0  0  0  0  0
   -4.0643   13.4351   -6.1976 C   0  0  0  0  0  0  0  0  0  0  0  0
   -2.7662   13.4536   -6.2615 N   0  0  0  0  0  0  0  0  0  0  0  0
   -2.3669   12.3336   -6.8391 N   0  0  0  0  0  0  0  0  0  0  0  0
   -0.9435   12.0941   -6.9881 C   0  0  0  0  0  0  0  0  0  0  0  0
   -4.0340   12.9997  -10.2404 C   0  0  0  0  0  0  0  0  0  0  0  0
   -3.1550   14.1929   -9.9451 C   0  0  0  0  0  0  0  0  0  0  0  0
   -3.8070   15.0441  -11.0419 C   0  0  0  0  0  0  0  0  0  0  0  0
   -3.4251   14.7437   -8.6708 O   0  0  0  0  0  0  0  0  0  0  0  0
   -4.8009   14.9943   -8.3397 C   0  0  0  0  0  0  0  0  0  0  0  0
   -6.2230   12.2805   -9.8660 H   0  0  0  0  0  0  0  0  0  0  0  0
   -8.2044   10.1062  -13.9119 H   0  0  0  0  0  0  0  0  0  0  0  0
   -6.8892   12.2248  -14.1028 H   0  0  0  0  0  0  0  0  0  0  0  0
   -8.6283    7.9452   -9.4506 H   0  0  0  0  0  0  0  0  0  0  0  0
   -8.0293    9.5968   -7.2711 H   0  0  0  0  0  0  0  0  0  0  0  0
   -6.3642   12.4628   -7.7826 H   0  0  0  0  0  0  0  0  0  0  0  0
   -6.4105   11.6778   -6.1675 H   0  0  0  0  0  0  0  0  0  0  0  0
   -2.6185    9.7178   -8.0869 H   0  0  0  0  0  0  0  0  0  0  0  0
   -4.8988    8.7932   -8.5018 H   0  0  0  0  0  0  0  0  0  0  0  0
   -4.6664   14.2006   -5.7309 H   0  0  0  0  0  0  0  0  0  0  0  0
   -0.3825   12.9417   -6.5674 H   0  0  0  0  0  0  0  0  0  0  0  0
   -0.6691   11.1721   -6.4547 H   0  0  0  0  0  0  0  0  0  0  0  0
   -0.6996   11.9867   -8.0553 H   0  0  0  0  0  0  0  0  0  0  0  0
   -4.7360   12.7267   -9.4387 H   0  0  0  0  0  0  0  0  0  0  0  0
   -3.5013   12.1004  -10.5834 H   0  0  0  0  0  0  0  0  0  0  0  0
   -2.0904   13.9978  -10.1413 H   0  0  0  0  0  0  0  0  0  0  0  0
   -3.1360   15.3560  -11.8558 H   0  0  0  0  0  0  0  0  0  0  0  0
   -4.3787   15.9133  -10.6846 H   0  0  0  0  0  0  0  0  0  0  0  0
   -4.8633   15.4195   -7.3271 H   0  0  0  0  0  0  0  0  0  0  0  0
   -5.2283   15.7048   -9.0625 H   0  0  0  0  0  0  0  0  0  0  0  0
   -5.3645   14.0504   -8.3763 H   0  0  0  0  0  0  0  0  0  0  0  0
  1  2  2  0  0  0  0
  1  4  1  0  0  0  0
  1 12  1  0  0  0  0
  2  6  1  0  0  0  0
  3  4  2  0  0  0  0
  3  5  1  0  0  0  0
  5  6  1  0  0  0  0
  5  9  2  0  0  0  0
  6  7  2  0  0  0  0
  7  8  1  0  0  0  0
  7 10  1  0  0  0  0
  8  9  1  0  0  0  0
 10 14  2  3  0  0  0
 11 12  1  0  0  0  0
 11 24  1  0  0  0  0
 11 26  1  0  0  0  0
 12 13  2  0  0  0  0
 14 15  1  0  0  0  0
 14 19  1  0  0  0  0
 15 16  1  0  0  0  0
 16 17  2  0  0  0  0
 16 20  1  0  0  0  0
 17 18  1  0  0  0  0
 17 22  1  0  0  0  0
 18 19  2  0  0  0  0
 20 21  2  0  0  0  0
 21 22  1  0  0  0  0
 22 23  1  0  0  0  0
 24 25  1  0  0  0  0
 25 26  1  0  0  0  0
 25 27  1  0  0  0  0
 27 28  1  0  0  0  0
  2 29  1  0  0  0  0
  3 30  1  0  0  0  0
  4 31  1  0  0  0  0
  8 32  1  0  0  0  0
 10 33  1  0  0  0  0
 15 34  1  0  0  0  0
 15 35  1  0  0  0  0
 18 36  1  0  0  0  0
 19 37  1  0  0  0  0
 20 38  1  0  0  0  0
 23 39  1  0  0  0  0
 23 40  1  0  0  0  0
 23 41  1  0  0  0  0
 24 42  1  0  0  0  0
 24 43  1  0  0  0  0
 25 44  1  0  0  0  0
 26 45  1  0  0  0  0
 26 46  1  0  0  0  0
 28 47  1  0  0  0  0
 28 48  1  0  0  0  0
 28 49  1  0  0  0  0
M  END
> <Name>
45

> <IC50[uM]>
0.007

$$$$
45
  -OEChem-05192314333D
 Structure written by MMmdl.
 49 53  0     0  0  0  0  0  0999 V2000
   -6.4275   12.3453  -12.0176 C   0  0  0  0  0  0  0  0  0  0  0  0
   -6.6105   11.7832  -10.7429 C   0  0  0  0  0  0  0  0  0  0  0  0
   -7.7405   10.5587  -13.0479 C   0  0  0  0  0  0  0  0  0  0  0  0
   -7.0073   11.7527  -13.1387 C   0  0  0  0  0  0  0  0  0  0  0  0
   -7.8357    9.9872  -11.7695 C   0  0  0  0  0  0  0  0  0  0  0  0
   -7.2848   10.5993  -10.6252 C   0  0  0  0  0  0  0  0  0  0  0  0
   -7.6281    9.7307   -9.5318 C   0  0  0  0  0  0  0  0  0  0  0  0
   -8.2830    8.7083   -9.9969 N   0  0  0  0  0  0  0  0  0  0  0  0
   -8.4214    8.8369  -11.3125 N   0  0  0  0  0  0  0  0  0  0  0  0
   -7.3299    9.8861   -8.0415 C   0  0  0  0  0  0  0  0  0  0  0  0
   -4.6020   13.8371  -11.3112 N   0  0  0  0  0  0  0  0  0  0  0  0
   -5.6232   13.6419  -12.1798 C   0  0  0  0  0  0  0  0  0  0  0  0
   -5.9069   14.4516  -13.0592 O   0  0  0  0  0  0  0  0  0  0  0  0
   -5.9473   10.4903   -7.7303 C   0  0  0  0  0  0  0  0  0  0  0  0
   -5.8632   11.7421   -7.1195 C   0  0  0  0  0  0  0  0  0  0  0  0
   -4.5901   12.2560   -6.8332 C   0  0  0  0  0  0  0  0  0  0  0  0
   -3.4296   11.5300   -7.2115 C   0  0  0  0  0  0  0  0  0  0  0  0
   -3.5045   10.2730   -7.8164 C   0  0  0  0  0  0  0  0  0  0  0  0
   -4.7945    9.7703   -8.0537 C   0  0  0  0  0  0  0  0  0  0  0  0
   -4.0643   13.4351   -6.1976 C   0  0  0  0  0  0  0  0  0  0  0  0
   -2.7662   13.4536   -6.2615 N   0  0  0  0  0  0  0  0  0  0  0  0
   -2.3669   12.3336   -6.8391 N   0  0  0  0  0  0  0  0  0  0  0  0
   -0.9435   12.0941   -6.9881 C   0  0  0  0  0  0  0  0  0  0  0  0
   -4.0340   12.9997  -10.2404 C   0  0  0  0  0  0  0  0  0  0  0  0
   -3.1550   14.1929   -9.9451 C   0  0  0  0  0  0  0  0  0  0  0  0
   -3.8070   15.0441  -11.0419 C   0  0  0  0  0  0  0  0  0  0  0  0
   -3.4251   14.7437   -8.6708 O   0  0  0  0  0  0  0  0  0  0  0  0
   -4.8009   14.9943   -8.3397 C   0  0  0  0  0  0  0  0  0  0  0  0
   -6.2230   12.2805   -9.8660 H   0  0  0  0  0  0  0  0  0  0  0  0
   -8.2044   10.1062  -13.9119 H   0  0  0  0  0  0  0  0  0  0  0  0
   -6.8892   12.2248  -14.1028 H   0  0  0  0  0  0  0  0  0  0  0  0
   -8.8941    8.1763  -11.8957 H   0  0  0  0  0  0  0  0  0  0  0  0
   -8.0293    9.5968   -7.2711 H   0  0  0  0  0  0  0  0  0  0  0  0
   -6.3642   12.4628   -7.7826 H   0  0  0  0  0  0  0  0  0  0  0  0
   -6.4105   11.6778   -6.1675 H   0  0  0  0  0  0  0  0  0  0  0  0
   -2.6185    9.7178   -8.0869 H   0  0  0  0  0  0  0  0  0  0  0  0
   -4.8988    8.7932   -8.5018 H   0  0  0  0  0  0  0  0  0  0  0  0
   -4.6664   14.2006   -5.7309 H   0  0  0  0  0  0  0  0  0  0  0  0
   -0.3825   12.9417   -6.5674 H   0  0  0  0  0  0  0  0  0  0  0  0
   -0.6691   11.1721   -6.4547 H   0  0  0  0  0  0  0  0  0  0  0  0
   -0.6996   11.9867   -8.0553 H   0  0  0  0  0  0  0  0  0  0  0  0
   -4.7360   12.7267   -9.4387 H   0  0  0  0  0  0  0  0  0  0  0  0
   -3.5013   12.1004  -10.5834 H   0  0  0  0  0  0  0  0  0  0  0  0
   -2.0904   13.9978  -10.1413 H   0  0  0  0  0  0  0  0  0  0  0  0
   -3.1360   15.3560  -11.8558 H   0  0  0  0  0  0  0  0  0  0  0  0
   -4.3787   15.9133  -10.6846 H   0  0  0  0  0  0  0  0  0  0  0  0
   -4.8633   15.4195   -7.3271 H   0  0  0  0  0  0  0  0  0  0  0  0
   -5.2283   15.7048   -9.0625 H   0  0  0  0  0  0  0  0  0  0  0  0
   -5.3645   14.0504   -8.3763 H   0  0  0  0  0  0  0  0  0  0  0  0
  1  2  2  0  0  0  0
  1  4  1  0  0  0  0
  1 12  1  0  0  0  0
  2  6  1  0  0  0  0
  3  4  2  0  0  0  0
  3  5  1  0  0  0  0
  5  6  2  0  0  0  0
  5  9  1  0  0  0  0
  6  7  1  0  0  0  0
  7  8  2  0  0  0  0
  7 10  1  0  0  0  0
  8  9  1  0  0  0  0
 10 14  2  3  0  0  0
 11 12  1  0  0  0  0
 11 24  1  0  0  0  0
 11 26  1  0  0  0  0
 12 13  2  0  0  0  0
 14 15  1  0  0  0  0
 14 19  1  0  0  0  0
 15 16  1  0  0  0  0
 16 17  2  0  0  0  0
 16 20  1  0  0  0  0
 17 18  1  0  0  0  0
 17 22  1  0  0  0  0
 18 19  2  0  0  0  0
 20 21  2  0  0  0  0
 21 22  1  0  0  0  0
 22 23  1  0  0  0  0
 24 25  1  0  0  0  0
 25 26  1  0  0  0  0
 25 27  1  0  0  0  0
 27 28  1  0  0  0  0
  2 29  1  0  0  0  0
  3 30  1  0  0  0  0
  4 31  1  0  0  0  0
  9 32  1  0  0  0  0
 10 33  1  0  0  0  0
 15 34  1  0  0  0  0
 15 35  1  0  0  0  0
 18 36  1  0  0  0  0
 19 37  1  0  0  0  0
 20 38  1  0  0  0  0
 23 39  1  0  0  0  0
 23 40  1  0  0  0  0
 23 41  1  0  0  0  0
 24 42  1  0  0  0  0
 24 43  1  0  0  0  0
 25 44  1  0  0  0  0
 26 45  1  0  0  0  0
 26 46  1  0  0  0  0
 28 47  1  0  0  0  0
 28 48  1  0  0  0  0
 28 49  1  0  0  0  0
M  END
> <Name>
45

> <IC50[uM]>
0.007

$$$$
45
  -OEChem-05192314333D
 Structure written by MMmdl.
 49 53  0     1  0  0  0  0  0999 V2000
   -6.4275   12.3453  -12.0176 C   0  0  3  0  0  0  0  0  0  0  0  0
   -6.6105   11.7832  -10.7429 C   0  0  0  0  0  0  0  0  0  0  0  0
   -7.7405   10.5587  -13.0479 C   0  0  0  0  0  0  0  0  0  0  0  0
   -7.0073   11.7527  -13.1387 C   0  0  0  0  0  0  0  0  0  0  0  0
   -7.8357    9.9872  -11.7695 C   0  0  0  0  0  0  0  0  0  0  0  0
   -7.2848   10.5993  -10.6252 C   0  0  0  0  0  0  0  0  0  0  0  0
   -7.6281    9.7307   -9.5318 C   0  0  0  0  0  0  0  0  0  0  0  0
   -8.2830    8.7083   -9.9969 N   0  0  0  0  0  0  0  0  0  0  0  0
   -8.4214    8.8369  -11.3125 N   0  0  0  0  0  0  0  0  0  0  0  0
   -7.3299    9.8861   -8.0415 C   0  0  0  0  0  0  0  0  0  0  0  0
   -4.6020   13.8371  -11.3112 N   0  0  0  0  0  0  0  0  0  0  0  0
   -5.6232   13.6419  -12.1798 C   0  0  0  0  0  0  0  0  0  0  0  0
   -5.9069   14.4516  -13.0592 O   0  0  0  0  0  0  0  0  0  0  0  0
   -5.9473   10.4903   -7.7303 C   0  0  0  0  0  0  0  0  0  0  0  0
   -5.8632   11.7421   -7.1195 C   0  0  0  0  0  0  0  0  0  0  0  0
   -4.5901   12.2560   -6.8332 C   0  0  0  0  0  0  0  0  0  0  0  0
   -3.4296   11.5300   -7.2115 C   0  0  0  0  0  0  0  0  0  0  0  0
   -3.5045   10.2730   -7.8164 C   0  0  0  0  0  0  0  0  0  0  0  0
   -4.7945    9.7703   -8.0537 C   0  0  0  0  0  0  0  0  0  0  0  0
   -4.0643   13.4351   -6.1976 C   0  0  0  0  0  0  0  0  0  0  0  0
   -2.7662   13.4536   -6.2615 N   0  0  0  0  0  0  0  0  0  0  0  0
   -2.3669   12.3336   -6.8391 N   0  0  0  0  0  0  0  0  0  0  0  0
   -0.9435   12.0941   -6.9881 C   0  0  0  0  0  0  0  0  0  0  0  0
   -4.0340   12.9997  -10.2404 C   0  0  0  0  0  0  0  0  0  0  0  0
   -3.1550   14.1929   -9.9451 C   0  0  0  0  0  0  0  0  0  0  0  0
   -3.8070   15.0441  -11.0419 C   0  0  0  0  0  0  0  0  0  0  0  0
   -3.4251   14.7437   -8.6708 O   0  0  0  0  0  0  0  0  0  0  0  0
   -4.8009   14.9943   -8.3397 C   0  0  0  0  0  0  0  0  0  0  0  0
   -5.5143   11.7492  -12.1613 H   0  0  0  0  0  0  0  0  0  0  0  0
   -6.2230   12.2805   -9.8660 H   0  0  0  0  0  0  0  0  0  0  0  0
   -8.2044   10.1062  -13.9119 H   0  0  0  0  0  0  0  0  0  0  0  0
   -6.8892   12.2248  -14.1028 H   0  0  0  0  0  0  0  0  0  0  0  0
   -8.6283    7.9452   -9.4506 H   0  0  0  0  0  0  0  0  0  0  0  0
   -8.0293    9.5968   -7.2711 H   0  0  0  0  0  0  0  0  0  0  0  0
   -6.7546   12.3002   -6.8738 H   0  0  0  0  0  0  0  0  0  0  0  0
   -2.6185    9.7178   -8.0869 H   0  0  0  0  0  0  0  0  0  0  0  0
   -4.8988    8.7932   -8.5018 H   0  0  0  0  0  0  0  0  0  0  0  0
   -4.6664   14.2006   -5.7309 H   0  0  0  0  0  0  0  0  0  0  0  0
   -0.3825   12.9417   -6.5674 H   0  0  0  0  0  0  0  0  0  0  0  0
   -0.6691   11.1721   -6.4547 H   0  0  0  0  0  0  0  0  0  0  0  0
   -0.6996   11.9867   -8.0553 H   0  0  0  0  0  0  0  0  0  0  0  0
   -4.7360   12.7267   -9.4387 H   0  0  0  0  0  0  0  0  0  0  0  0
   -3.5013   12.1004  -10.5834 H   0  0  0  0  0  0  0  0  0  0  0  0
   -2.0904   13.9978  -10.1413 H   0  0  0  0  0  0  0  0  0  0  0  0
   -3.1360   15.3560  -11.8558 H   0  0  0  0  0  0  0  0  0  0  0  0
   -4.3787   15.9133  -10.6846 H   0  0  0  0  0  0  0  0  0  0  0  0
   -4.8633   15.4195   -7.3271 H   0  0  0  0  0  0  0  0  0  0  0  0
   -5.2283   15.7048   -9.0625 H   0  0  0  0  0  0  0  0  0  0  0  0
   -5.3645   14.0504   -8.3763 H   0  0  0  0  0  0  0  0  0  0  0  0
  1  2  1  0  0  0  0
  1  4  1  0  0  0  0
  1 12  1  0  0  0  0
  2  6  2  0  0  0  0
  3  4  2  0  0  0  0
  3  5  1  0  0  0  0
  5  6  1  0  0  0  0
  5  9  2  0  0  0  0
  6  7  1  0  0  0  0
  7  8  1  0  0  0  0
  7 10  2  3  0  0  0
  8  9  1  0  0  0  0
 10 14  1  0  0  0  0
 11 12  1  0  0  0  0
 11 24  1  0  0  0  0
 11 26  1  0  0  0  0
 12 13  2  0  0  0  0
 14 15  2  0  0  0  0
 14 19  1  0  0  0  0
 15 16  1  0  0  0  0
 16 17  2  0  0  0  0
 16 20  1  0  0  0  0
 17 18  1  0  0  0  0
 17 22  1  0  0  0  0
 18 19  2  0  0  0  0
 20 21  2  0  0  0  0
 21 22  1  0  0  0  0
 22 23  1  0  0  0  0
 24 25  1  0  0  0  0
 25 26  1  0  0  0  0
 25 27  1  0  0  0  0
 27 28  1  0  0  0  0
  1 29  1  0  0  0  0
  2 30  1  0  0  0  0
  3 31  1  0  0  0  0
  4 32  1  0  0  0  0
  8 33  1  0  0  0  0
 10 34  1  0  0  0  0
 15 35  1  0  0  0  0
 18 36  1  0  0  0  0
 19 37  1  0  0  0  0
 20 38  1  0  0  0  0
 23 39  1  0  0  0  0
 23 40  1  0  0  0  0
 23 41  1  0  0  0  0
 24 42  1  0  0  0  0
 24 43  1  0  0  0  0
 25 44  1  0  0  0  0
 26 45  1  0  0  0  0
 26 46  1  0  0  0  0
 28 47  1  0  0  0  0
 28 48  1  0  0  0  0
 28 49  1  0  0  0  0
M  END
> <Name>
45

> <IC50[uM]>
0.007

$$$$
45
  -OEChem-05192314333D
 Structure written by MMmdl.
 49 53  0     0  0  0  0  0  0999 V2000
   -6.4275   12.3453  -12.0176 C   0  0  0  0  0  0  0  0  0  0  0  0
   -6.6105   11.7832  -10.7429 C   0  0  0  0  0  0  0  0  0  0  0  0
   -7.7405   10.5587  -13.0479 C   0  0  0  0  0  0  0  0  0  0  0  0
   -7.0073   11.7527  -13.1387 C   0  0  0  0  0  0  0  0  0  0  0  0
   -7.8357    9.9872  -11.7695 C   0  0  0  0  0  0  0  0  0  0  0  0
   -7.2848   10.5993  -10.6252 C   0  0  0  0  0  0  0  0  0  0  0  0
   -7.6281    9.7307   -9.5318 C   0  0  0  0  0  0  0  0  0  0  0  0
   -8.2830    8.7083   -9.9969 N   0  0  0  0  0  0  0  0  0  0  0  0
   -8.4214    8.8369  -11.3125 N   0  0  0  0  0  0  0  0  0  0  0  0
   -7.3299    9.8861   -8.0415 C   0  0  0  0  0  0  0  0  0  0  0  0
   -4.6020   13.8371  -11.3112 N   0  0  0  0  0  0  0  0  0  0  0  0
   -5.6232   13.6419  -12.1798 C   0  0  0  0  0  0  0  0  0  0  0  0
   -5.9069   14.4516  -13.0592 O   0  0  0  0  0  0  0  0  0  0  0  0
   -5.9473   10.4903   -7.7303 C   0  0  0  0  0  0  0  0  0  0  0  0
   -5.8632   11.7421   -7.1195 C   0  0  0  0  0  0  0  0  0  0  0  0
   -4.5901   12.2560   -6.8332 C   0  0  0  0  0  0  0  0  0  0  0  0
   -3.4296   11.5300   -7.2115 C   0  0  0  0  0  0  0  0  0  0  0  0
   -3.5045   10.2730   -7.8164 C   0  0  0  0  0  0  0  0  0  0  0  0
   -4.7945    9.7703   -8.0537 C   0  0  0  0  0  0  0  0  0  0  0  0
   -4.0643   13.4351   -6.1976 C   0  0  0  0  0  0  0  0  0  0  0  0
   -2.7662   13.4536   -6.2615 N   0  0  0  0  0  0  0  0  0  0  0  0
   -2.3669   12.3336   -6.8391 N   0  0  0  0  0  0  0  0  0  0  0  0
   -0.9435   12.0941   -6.9881 C   0  0  0  0  0  0  0  0  0  0  0  0
   -4.0340   12.9997  -10.2404 C   0  0  0  0  0  0  0  0  0  0  0  0
   -3.1550   14.1929   -9.9451 C   0  0  0  0  0  0  0  0  0  0  0  0
   -3.8070   15.0441  -11.0419 C   0  0  0  0  0  0  0  0  0  0  0  0
   -3.4251   14.7437   -8.6708 O   0  0  0  0  0  0  0  0  0  0  0  0
   -4.8009   14.9943   -8.3397 C   0  0  0  0  0  0  0  0  0  0  0  0
   -6.2230   12.2805   -9.8660 H   0  0  0  0  0  0  0  0  0  0  0  0
   -8.7619   10.7641  -13.4009 H   0  0  0  0  0  0  0  0  0  0  0  0
   -7.2647    9.8211  -13.7110 H   0  0  0  0  0  0  0  0  0  0  0  0
   -6.8892   12.2248  -14.1028 H   0  0  0  0  0  0  0  0  0  0  0  0
   -8.6283    7.9452   -9.4506 H   0  0  0  0  0  0  0  0  0  0  0  0
   -8.0293    9.5968   -7.2711 H   0  0  0  0  0  0  0  0  0  0  0  0
   -6.7546   12.3002   -6.8738 H   0  0  0  0  0  0  0  0  0  0  0  0
   -2.6185    9.7178   -8.0869 H   0  0  0  0  0  0  0  0  0  0  0  0
   -4.8988    8.7932   -8.5018 H   0  0  0  0  0  0  0  0  0  0  0  0
   -4.6664   14.2006   -5.7309 H   0  0  0  0  0  0  0  0  0  0  0  0
   -0.3825   12.9417   -6.5674 H   0  0  0  0  0  0  0  0  0  0  0  0
   -0.6691   11.1721   -6.4547 H   0  0  0  0  0  0  0  0  0  0  0  0
   -0.6996   11.9867   -8.0553 H   0  0  0  0  0  0  0  0  0  0  0  0
   -4.7360   12.7267   -9.4387 H   0  0  0  0  0  0  0  0  0  0  0  0
   -3.5013   12.1004  -10.5834 H   0  0  0  0  0  0  0  0  0  0  0  0
   -2.0904   13.9978  -10.1413 H   0  0  0  0  0  0  0  0  0  0  0  0
   -3.1360   15.3560  -11.8558 H   0  0  0  0  0  0  0  0  0  0  0  0
   -4.3787   15.9133  -10.6846 H   0  0  0  0  0  0  0  0  0  0  0  0
   -4.8633   15.4195   -7.3271 H   0  0  0  0  0  0  0  0  0  0  0  0
   -5.2283   15.7048   -9.0625 H   0  0  0  0  0  0  0  0  0  0  0  0
   -5.3645   14.0504   -8.3763 H   0  0  0  0  0  0  0  0  0  0  0  0
  1  2  1  0  0  0  0
  1  4  2  0  0  0  0
  1 12  1  0  0  0  0
  2  6  2  0  0  0  0
  3  4  1  0  0  0  0
  3  5  1  0  0  0  0
  5  6  1  0  0  0  0
  5  9  2  0  0  0  0
  6  7  1  0  0  0  0
  7  8  1  0  0  0  0
  7 10  2  3  0  0  0
  8  9  1  0  0  0  0
 10 14  1  0  0  0  0
 11 12  1  0  0  0  0
 11 24  1  0  0  0  0
 11 26  1  0  0  0  0
 12 13  2  0  0  0  0
 14 15  2  0  0  0  0
 14 19  1  0  0  0  0
 15 16  1  0  0  0  0
 16 17  2  0  0  0  0
 16 20  1  0  0  0  0
 17 18  1  0  0  0  0
 17 22  1  0  0  0  0
 18 19  2  0  0  0  0
 20 21  2  0  0  0  0
 21 22  1  0  0  0  0
 22 23  1  0  0  0  0
 24 25  1  0  0  0  0
 25 26  1  0  0  0  0
 25 27  1  0  0  0  0
 27 28  1  0  0  0  0
  2 29  1  0  0  0  0
  3 30  1  0  0  0  0
  3 31  1  0  0  0  0
  4 32  1  0  0  0  0
  8 33  1  0  0  0  0
 10 34  1  0  0  0  0
 15 35  1  0  0  0  0
 18 36  1  0  0  0  0
 19 37  1  0  0  0  0
 20 38  1  0  0  0  0
 23 39  1  0  0  0  0
 23 40  1  0  0  0  0
 23 41  1  0  0  0  0
 24 42  1  0  0  0  0
 24 43  1  0  0  0  0
 25 44  1  0  0  0  0
 26 45  1  0  0  0  0
 26 46  1  0  0  0  0
 28 47  1  0  0  0  0
 28 48  1  0  0  0  0
 28 49  1  0  0  0  0
M  END
> <Name>
45

> <IC50[uM]>
0.007

$$$$
45
  -OEChem-05192314333D
 Structure written by MMmdl.
 49 53  0     0  0  0  0  0  0999 V2000
   -6.4275   12.3453  -12.0176 C   0  0  0  0  0  0  0  0  0  0  0  0
   -6.6105   11.7832  -10.7429 C   0  0  0  0  0  0  0  0  0  0  0  0
   -7.7405   10.5587  -13.0479 C   0  0  0  0  0  0  0  0  0  0  0  0
   -7.0073   11.7527  -13.1387 C   0  0  0  0  0  0  0  0  0  0  0  0
   -7.8357    9.9872  -11.7695 C   0  0  0  0  0  0  0  0  0  0  0  0
   -7.2848   10.5993  -10.6252 C   0  0  0  0  0  0  0  0  0  0  0  0
   -7.6281    9.7307   -9.5318 C   0  0  0  0  0  0  0  0  0  0  0  0
   -8.2830    8.7083   -9.9969 N   0  0  0  0  0  0  0  0  0  0  0  0
   -8.4214    8.8369  -11.3125 N   0  0  0  0  0  0  0  0  0  0  0  0
   -7.3299    9.8861   -8.0415 C   0  0  0  0  0  0  0  0  0  0  0  0
   -4.6020   13.8371  -11.3112 N   0  0  0  0  0  0  0  0  0  0  0  0
   -5.6232   13.6419  -12.1798 C   0  0  0  0  0  0  0  0  0  0  0  0
   -5.9069   14.4516  -13.0592 O   0  0  0  0  0  0  0  0  0  0  0  0
   -5.9473   10.4903   -7.7303 C   0  0  0  0  0  0  0  0  0  0  0  0
   -5.8632   11.7421   -7.1195 C   0  0  0  0  0  0  0  0  0  0  0  0
   -4.5901   12.2560   -6.8332 C   0  0  0  0  0  0  0  0  0  0  0  0
   -3.4296   11.5300   -7.2115 C   0  0  0  0  0  0  0  0  0  0  0  0
   -3.5045   10.2730   -7.8164 C   0  0  0  0  0  0  0  0  0  0  0  0
   -4.7945    9.7703   -8.0537 C   0  0  0  0  0  0  0  0  0  0  0  0
   -4.0643   13.4351   -6.1976 C   0  0  0  0  0  0  0  0  0  0  0  0
   -2.7662   13.4536   -6.2615 N   0  0  0  0  0  0  0  0  0  0  0  0
   -2.3669   12.3336   -6.8391 N   0  0  0  0  0  0  0  0  0  0  0  0
   -0.9435   12.0941   -6.9881 C   0  0  0  0  0  0  0  0  0  0  0  0
   -4.0340   12.9997  -10.2404 C   0  0  0  0  0  0  0  0  0  0  0  0
   -3.1550   14.1929   -9.9451 C   0  0  0  0  0  0  0  0  0  0  0  0
   -3.8070   15.0441  -11.0419 C   0  0  0  0  0  0  0  0  0  0  0  0
   -3.4251   14.7437   -8.6708 O   0  0  0  0  0  0  0  0  0  0  0  0
   -4.8009   14.9943   -8.3397 C   0  0  0  0  0  0  0  0  0  0  0  0
   -6.2230   12.2805   -9.8660 H   0  0  0  0  0  0  0  0  0  0  0  0
   -8.2044   10.1062  -13.9119 H   0  0  0  0  0  0  0  0  0  0  0  0
   -6.8892   12.2248  -14.1028 H   0  0  0  0  0  0  0  0  0  0  0  0
   -8.6283    7.9452   -9.4506 H   0  0  0  0  0  0  0  0  0  0  0  0
   -8.0293    9.5968   -7.2711 H   0  0  0  0  0  0  0  0  0  0  0  0
   -6.7546   12.3002   -6.8738 H   0  0  0  0  0  0  0  0  0  0  0  0
   -2.6185    9.7178   -8.0869 H   0  0  0  0  0  0  0  0  0  0  0  0
   -4.8603    8.8218   -7.5006 H   0  0  0  0  0  0  0  0  0  0  0  0
   -4.8514    9.5697   -9.1338 H   0  0  0  0  0  0  0  0  0  0  0  0
   -4.6664   14.2006   -5.7309 H   0  0  0  0  0  0  0  0  0  0  0  0
   -0.3825   12.9417   -6.5674 H   0  0  0  0  0  0  0  0  0  0  0  0
   -0.6691   11.1721   -6.4547 H   0  0  0  0  0  0  0  0  0  0  0  0
   -0.6996   11.9867   -8.0553 H   0  0  0  0  0  0  0  0  0  0  0  0
   -4.7360   12.7267   -9.4387 H   0  0  0  0  0  0  0  0  0  0  0  0
   -3.5013   12.1004  -10.5834 H   0  0  0  0  0  0  0  0  0  0  0  0
   -2.0904   13.9978  -10.1413 H   0  0  0  0  0  0  0  0  0  0  0  0
   -3.1360   15.3560  -11.8558 H   0  0  0  0  0  0  0  0  0  0  0  0
   -4.3787   15.9133  -10.6846 H   0  0  0  0  0  0  0  0  0  0  0  0
   -4.8633   15.4195   -7.3271 H   0  0  0  0  0  0  0  0  0  0  0  0
   -5.2283   15.7048   -9.0625 H   0  0  0  0  0  0  0  0  0  0  0  0
   -5.3645   14.0504   -8.3763 H   0  0  0  0  0  0  0  0  0  0  0  0
  1  2  2  0  0  0  0
  1  4  1  0  0  0  0
  1 12  1  0  0  0  0
  2  6  1  0  0  0  0
  3  4  2  0  0  0  0
  3  5  1  0  0  0  0
  5  6  1  0  0  0  0
  5  9  2  0  0  0  0
  6  7  2  0  0  0  0
  7  8  1  0  0  0  0
  7 10  1  0  0  0  0
  8  9  1  0  0  0  0
 10 14  2  3  0  0  0
 11 12  1  0  0  0  0
 11 24  1  0  0  0  0
 11 26  1  0  0  0  0
 12 13  2  0  0  0  0
 14 15  1  0  0  0  0
 14 19  1  0  0  0  0
 15 16  2  0  0  0  0
 16 17  1  0  0  0  0
 16 20  1  0  0  0  0
 17 18  2  0  0  0  0
 17 22  1  0  0  0  0
 18 19  1  0  0  0  0
 20 21  2  0  0  0  0
 21 22  1  0  0  0  0
 22 23  1  0  0  0  0
 24 25  1  0  0  0  0
 25 26  1  0  0  0  0
 25 27  1  0  0  0  0
 27 28  1  0  0  0  0
  2 29  1  0  0  0  0
  3 30  1  0  0  0  0
  4 31  1  0  0  0  0
  8 32  1  0  0  0  0
 10 33  1  0  0  0  0
 15 34  1  0  0  0  0
 18 35  1  0  0  0  0
 19 36  1  0  0  0  0
 19 37  1  0  0  0  0
 20 38  1  0  0  0  0
 23 39  1  0  0  0  0
 23 40  1  0  0  0  0
 23 41  1  0  0  0  0
 24 42  1  0  0  0  0
 24 43  1  0  0  0  0
 25 44  1  0  0  0  0
 26 45  1  0  0  0  0
 26 46  1  0  0  0  0
 28 47  1  0  0  0  0
 28 48  1  0  0  0  0
 28 49  1  0  0  0  0
M  END
> <Name>
45

> <IC50[uM]>
0.007

$$$$
45
  -OEChem-05192314333D
 Structure written by MMmdl.
 49 53  0     0  0  0  0  0  0999 V2000
   -6.4275   12.3453  -12.0176 C   0  0  0  0  0  0  0  0  0  0  0  0
   -6.6105   11.7832  -10.7429 C   0  0  0  0  0  0  0  0  0  0  0  0
   -7.7405   10.5587  -13.0479 C   0  0  0  0  0  0  0  0  0  0  0  0
   -7.0073   11.7527  -13.1387 C   0  0  0  0  0  0  0  0  0  0  0  0
   -7.8357    9.9872  -11.7695 C   0  0  0  0  0  0  0  0  0  0  0  0
   -7.2848   10.5993  -10.6252 C   0  0  0  0  0  0  0  0  0  0  0  0
   -7.6281    9.7307   -9.5318 C   0  0  0  0  0  0  0  0  0  0  0  0
   -8.2830    8.7083   -9.9969 N   0  0  0  0  0  0  0  0  0  0  0  0
   -8.4214    8.8369  -11.3125 N   0  0  0  0  0  0  0  0  0  0  0  0
   -7.3299    9.8861   -8.0415 C   0  0  0  0  0  0  0  0  0  0  0  0
   -4.6020   13.8371  -11.3112 N   0  0  0  0  0  0  0  0  0  0  0  0
   -5.6232   13.6419  -12.1798 C   0  0  0  0  0  0  0  0  0  0  0  0
   -5.9069   14.4516  -13.0592 O   0  0  0  0  0  0  0  0  0  0  0  0
   -5.9473   10.4903   -7.7303 C   0  0  0  0  0  0  0  0  0  0  0  0
   -5.8632   11.7421   -7.1195 C   0  0  0  0  0  0  0  0  0  0  0  0
   -4.5901   12.2560   -6.8332 C   0  0  0  0  0  0  0  0  0  0  0  0
   -3.4296   11.5300   -7.2115 C   0  0  0  0  0  0  0  0  0  0  0  0
   -3.5045   10.2730   -7.8164 C   0  0  0  0  0  0  0  0  0  0  0  0
   -4.7945    9.7703   -8.0537 C   0  0  0  0  0  0  0  0  0  0  0  0
   -4.0643   13.4351   -6.1976 C   0  0  0  0  0  0  0  0  0  0  0  0
   -2.7662   13.4536   -6.2615 N   0  0  0  0  0  0  0  0  0  0  0  0
   -2.3669   12.3336   -6.8391 N   0  0  0  0  0  0  0  0  0  0  0  0
   -0.9435   12.0941   -6.9881 C   0  0  0  0  0  0  0  0  0  0  0  0
   -4.0340   12.9997  -10.2404 C   0  0  0  0  0  0  0  0  0  0  0  0
   -3.1550   14.1929   -9.9451 C   0  0  0  0  0  0  0  0  0  0  0  0
   -3.8070   15.0441  -11.0419 C   0  0  0  0  0  0  0  0  0  0  0  0
   -3.4251   14.7437   -8.6708 O   0  0  0  0  0  0  0  0  0  0  0  0
   -4.8009   14.9943   -8.3397 C   0  0  0  0  0  0  0  0  0  0  0  0
   -6.2230   12.2805   -9.8660 H   0  0  0  0  0  0  0  0  0  0  0  0
   -8.2044   10.1062  -13.9119 H   0  0  0  0  0  0  0  0  0  0  0  0
   -6.8892   12.2248  -14.1028 H   0  0  0  0  0  0  0  0  0  0  0  0
   -8.8941    8.1763  -11.8957 H   0  0  0  0  0  0  0  0  0  0  0  0
   -8.0293    9.5968   -7.2711 H   0  0  0  0  0  0  0  0  0  0  0  0
   -6.7546   12.3002   -6.8738 H   0  0  0  0  0  0  0  0  0  0  0  0
   -2.6185    9.7178   -8.0869 H   0  0  0  0  0  0  0  0  0  0  0  0
   -4.8603    8.8218   -7.5006 H   0  0  0  0  0  0  0  0  0  0  0  0
   -4.8514    9.5697   -9.1338 H   0  0  0  0  0  0  0  0  0  0  0  0
   -4.6664   14.2006   -5.7309 H   0  0  0  0  0  0  0  0  0  0  0  0
   -0.3825   12.9417   -6.5674 H   0  0  0  0  0  0  0  0  0  0  0  0
   -0.6691   11.1721   -6.4547 H   0  0  0  0  0  0  0  0  0  0  0  0
   -0.6996   11.9867   -8.0553 H   0  0  0  0  0  0  0  0  0  0  0  0
   -4.7360   12.7267   -9.4387 H   0  0  0  0  0  0  0  0  0  0  0  0
   -3.5013   12.1004  -10.5834 H   0  0  0  0  0  0  0  0  0  0  0  0
   -2.0904   13.9978  -10.1413 H   0  0  0  0  0  0  0  0  0  0  0  0
   -3.1360   15.3560  -11.8558 H   0  0  0  0  0  0  0  0  0  0  0  0
   -4.3787   15.9133  -10.6846 H   0  0  0  0  0  0  0  0  0  0  0  0
   -4.8633   15.4195   -7.3271 H   0  0  0  0  0  0  0  0  0  0  0  0
   -5.2283   15.7048   -9.0625 H   0  0  0  0  0  0  0  0  0  0  0  0
   -5.3645   14.0504   -8.3763 H   0  0  0  0  0  0  0  0  0  0  0  0
  1  2  2  0  0  0  0
  1  4  1  0  0  0  0
  1 12  1  0  0  0  0
  2  6  1  0  0  0  0
  3  4  2  0  0  0  0
  3  5  1  0  0  0  0
  5  6  2  0  0  0  0
  5  9  1  0  0  0  0
  6  7  1  0  0  0  0
  7  8  2  0  0  0  0
  7 10  1  0  0  0  0
  8  9  1  0  0  0  0
 10 14  2  3  0  0  0
 11 12  1  0  0  0  0
 11 24  1  0  0  0  0
 11 26  1  0  0  0  0
 12 13  2  0  0  0  0
 14 15  1  0  0  0  0
 14 19  1  0  0  0  0
 15 16  2  0  0  0  0
 16 17  1  0  0  0  0
 16 20  1  0  0  0  0
 17 18  2  0  0  0  0
 17 22  1  0  0  0  0
 18 19  1  0  0  0  0
 20 21  2  0  0  0  0
 21 22  1  0  0  0  0
 22 23  1  0  0  0  0
 24 25  1  0  0  0  0
 25 26  1  0  0  0  0
 25 27  1  0  0  0  0
 27 28  1  0  0  0  0
  2 29  1  0  0  0  0
  3 30  1  0  0  0  0
  4 31  1  0  0  0  0
  9 32  1  0  0  0  0
 10 33  1  0  0  0  0
 15 34  1  0  0  0  0
 18 35  1  0  0  0  0
 19 36  1  0  0  0  0
 19 37  1  0  0  0  0
 20 38  1  0  0  0  0
 23 39  1  0  0  0  0
 23 40  1  0  0  0  0
 23 41  1  0  0  0  0
 24 42  1  0  0  0  0
 24 43  1  0  0  0  0
 25 44  1  0  0  0  0
 26 45  1  0  0  0  0
 26 46  1  0  0  0  0
 28 47  1  0  0  0  0
 28 48  1  0  0  0  0
 28 49  1  0  0  0  0
M  END
> <Name>
45

> <IC50[uM]>
0.007

$$$$
45
  -OEChem-05192314333D
 Structure written by MMmdl.
 49 53  0     1  0  0  0  0  0999 V2000
   -6.4275   12.3453  -12.0176 C   0  0  0  0  0  0  0  0  0  0  0  0
   -6.6105   11.7832  -10.7429 C   0  0  0  0  0  0  0  0  0  0  0  0
   -7.7405   10.5587  -13.0479 C   0  0  0  0  0  0  0  0  0  0  0  0
   -7.0073   11.7527  -13.1387 C   0  0  0  0  0  0  0  0  0  0  0  0
   -7.8357    9.9872  -11.7695 C   0  0  0  0  0  0  0  0  0  0  0  0
   -7.2848   10.5993  -10.6252 C   0  0  0  0  0  0  0  0  0  0  0  0
   -7.6281    9.7307   -9.5318 C   0  0  0  0  0  0  0  0  0  0  0  0
   -8.2830    8.7083   -9.9969 N   0  0  0  0  0  0  0  0  0  0  0  0
   -8.4214    8.8369  -11.3125 N   0  0  0  0  0  0  0  0  0  0  0  0
   -7.3299    9.8861   -8.0415 C   0  0  0  0  0  0  0  0  0  0  0  0
   -4.6020   13.8371  -11.3112 N   0  0  0  0  0  0  0  0  0  0  0  0
   -5.6232   13.6419  -12.1798 C   0  0  0  0  0  0  0  0  0  0  0  0
   -5.9069   14.4516  -13.0592 O   0  0  0  0  0  0  0  0  0  0  0  0
   -5.9473   10.4903   -7.7303 C   0  0  0  0  0  0  0  0  0  0  0  0
   -5.8632   11.7421   -7.1195 C   0  0  0  0  0  0  0  0  0  0  0  0
   -4.5901   12.2560   -6.8332 C   0  0  0  0  0  0  0  0  0  0  0  0
   -3.4296   11.5300   -7.2115 C   0  0  0  0  0  0  0  0  0  0  0  0
   -3.5045   10.2730   -7.8164 C   0  0  0  0  0  0  0  0  0  0  0  0
   -4.7945    9.7703   -8.0537 C   0  0  0  0  0  0  0  0  0  0  0  0
   -4.0643   13.4351   -6.1976 C   0  0  0  0  0  0  0  0  0  0  0  0
   -2.7662   13.4536   -6.2615 N   0  0  0  0  0  0  0  0  0  0  0  0
   -2.3669   12.3336   -6.8391 N   0  0  3  0  0  0  0  0  0  0  0  0
   -0.9435   12.0941   -6.9881 C   0  0  0  0  0  0  0  0  0  0  0  0
   -4.0340   12.9997  -10.2404 C   0  0  0  0  0  0  0  0  0  0  0  0
   -3.1550   14.1929   -9.9451 C   0  0  0  0  0  0  0  0  0  0  0  0
   -3.8070   15.0441  -11.0419 C   0  0  0  0  0  0  0  0  0  0  0  0
   -3.4251   14.7437   -8.6708 O   0  0  0  0  0  0  0  0  0  0  0  0
   -4.8009   14.9943   -8.3397 C   0  0  0  0  0  0  0  0  0  0  0  0
   -6.2230   12.2805   -9.8660 H   0  0  0  0  0  0  0  0  0  0  0  0
   -8.2044   10.1062  -13.9119 H   0  0  0  0  0  0  0  0  0  0  0  0
   -6.8892   12.2248  -14.1028 H   0  0  0  0  0  0  0  0  0  0  0  0
   -8.0293    9.5968   -7.2711 H   0  0  0  0  0  0  0  0  0  0  0  0
   -6.7546   12.3002   -6.8738 H   0  0  0  0  0  0  0  0  0  0  0  0
   -2.6185    9.7178   -8.0869 H   0  0  0  0  0  0  0  0  0  0  0  0
   -4.8988    8.7932   -8.5018 H   0  0  0  0  0  0  0  0  0  0  0  0
   -4.4631   14.3263   -6.7043 H   0  0  0  0  0  0  0  0  0  0  0  0
   -4.3736   13.4442   -5.1420 H   0  0  0  0  0  0  0  0  0  0  0  0
   -2.4647   14.2395   -6.8014 H   0  0  0  0  0  0  0  0  0  0  0  0
   -0.3828   12.9479   -6.5800 H   0  0  0  0  0  0  0  0  0  0  0  0
   -0.6667   11.1796   -6.4431 H   0  0  0  0  0  0  0  0  0  0  0  0
   -0.7019   11.9728   -8.0544 H   0  0  0  0  0  0  0  0  0  0  0  0
   -4.7360   12.7267   -9.4387 H   0  0  0  0  0  0  0  0  0  0  0  0
   -3.5013   12.1004  -10.5834 H   0  0  0  0  0  0  0  0  0  0  0  0
   -2.0904   13.9978  -10.1413 H   0  0  0  0  0  0  0  0  0  0  0  0
   -3.1360   15.3560  -11.8558 H   0  0  0  0  0  0  0  0  0  0  0  0
   -4.3787   15.9133  -10.6846 H   0  0  0  0  0  0  0  0  0  0  0  0
   -4.8633   15.4195   -7.3271 H   0  0  0  0  0  0  0  0  0  0  0  0
   -5.2283   15.7048   -9.0625 H   0  0  0  0  0  0  0  0  0  0  0  0
   -5.3645   14.0504   -8.3763 H   0  0  0  0  0  0  0  0  0  0  0  0
  1  2  2  0  0  0  0
  1  4  1  0  0  0  0
  1 12  1  0  0  0  0
  2  6  1  0  0  0  0
  3  4  2  0  0  0  0
  3  5  1  0  0  0  0
  5  6  2  0  0  0  0
  5  9  1  0  0  0  0
  6  7  1  0  0  0  0
  7  8  1  0  0  0  0
  7 10  2  3  0  0  0
  8  9  2  0  0  0  0
 10 14  1  0  0  0  0
 11 12  1  0  0  0  0
 11 24  1  0  0  0  0
 11 26  1  0  0  0  0
 12 13  2  0  0  0  0
 14 15  2  0  0  0  0
 14 19  1  0  0  0  0
 15 16  1  0  0  0  0
 16 17  2  0  0  0  0
 16 20  1  0  0  0  0
 17 18  1  0  0  0  0
 17 22  1  0  0  0  0
 18 19  2  0  0  0  0
 20 21  1  0  0  0  0
 21 22  1  0  0  0  0
 22 23  1  0  0  0  0
 24 25  1  0  0  0  0
 25 26  1  0  0  0  0
 25 27  1  0  0  0  0
 27 28  1  0  0  0  0
  2 29  1  0  0  0  0
  3 30  1  0  0  0  0
  4 31  1  0  0  0  0
 10 32  1  0  0  0  0
 15 33  1  0  0  0  0
 18 34  1  0  0  0  0
 19 35  1  0  0  0  0
 20 36  1  0  0  0  0
 20 37  1  0  0  0  0
 21 38  1  0  0  0  0
 23 39  1  0  0  0  0
 23 40  1  0  0  0  0
 23 41  1  0  0  0  0
 24 42  1  0  0  0  0
 24 43  1  0  0  0  0
 25 44  1  0  0  0  0
 26 45  1  0  0  0  0
 26 46  1  0  0  0  0
 28 47  1  0  0  0  0
 28 48  1  0  0  0  0
 28 49  1  0  0  0  0
M  END
> <Name>
45

> <IC50[uM]>
0.007

$$$$
45
  -OEChem-05192314333D
 Structure written by MMmdl.
 49 53  0     0  0  0  0  0  0999 V2000
   -6.4275   12.3453  -12.0176 C   0  0  0  0  0  0  0  0  0  0  0  0
   -6.6105   11.7832  -10.7429 C   0  0  0  0  0  0  0  0  0  0  0  0
   -7.7405   10.5587  -13.0479 C   0  0  0  0  0  0  0  0  0  0  0  0
   -7.0073   11.7527  -13.1387 C   0  0  0  0  0  0  0  0  0  0  0  0
   -7.8357    9.9872  -11.7695 C   0  0  0  0  0  0  0  0  0  0  0  0
   -7.2848   10.5993  -10.6252 C   0  0  0  0  0  0  0  0  0  0  0  0
   -7.6281    9.7307   -9.5318 C   0  0  0  0  0  0  0  0  0  0  0  0
   -8.2830    8.7083   -9.9969 N   0  0  0  0  0  0  0  0  0  0  0  0
   -8.4214    8.8369  -11.3125 N   0  0  0  0  0  0  0  0  0  0  0  0
   -7.3299    9.8861   -8.0415 C   0  0  0  0  0  0  0  0  0  0  0  0
   -4.6020   13.8371  -11.3112 N   0  0  0  0  0  0  0  0  0  0  0  0
   -5.6232   13.6419  -12.1798 C   0  0  0  0  0  0  0  0  0  0  0  0
   -5.9069   14.4516  -13.0592 O   0  0  0  0  0  0  0  0  0  0  0  0
   -5.9473   10.4903   -7.7303 C   0  0  0  0  0  0  0  0  0  0  0  0
   -5.8632   11.7421   -7.1195 C   0  0  0  0  0  0  0  0  0  0  0  0
   -4.5901   12.2560   -6.8332 C   0  0  0  0  0  0  0  0  0  0  0  0
   -3.4296   11.5300   -7.2115 C   0  0  0  0  0  0  0  0  0  0  0  0
   -3.5045   10.2730   -7.8164 C   0  0  0  0  0  0  0  0  0  0  0  0
   -4.7945    9.7703   -8.0537 C   0  0  0  0  0  0  0  0  0  0  0  0
   -4.0643   13.4351   -6.1976 C   0  0  0  0  0  0  0  0  0  0  0  0
   -2.7662   13.4536   -6.2615 N   0  0  0  0  0  0  0  0  0  0  0  0
   -2.3669   12.3336   -6.8391 N   0  0  0  0  0  0  0  0  0  0  0  0
   -0.9435   12.0941   -6.9881 C   0  0  0  0  0  0  0  0  0  0  0  0
   -4.0340   12.9997  -10.2404 C   0  0  0  0  0  0  0  0  0  0  0  0
   -3.1550   14.1929   -9.9451 C   0  0  0  0  0  0  0  0  0  0  0  0
   -3.8070   15.0441  -11.0419 C   0  0  0  0  0  0  0  0  0  0  0  0
   -3.4251   14.7437   -8.6708 O   0  0  0  0  0  0  0  0  0  0  0  0
   -4.8009   14.9943   -8.3397 C   0  0  0  0  0  0  0  0  0  0  0  0
   -6.2230   12.2805   -9.8660 H   0  0  0  0  0  0  0  0  0  0  0  0
   -8.2044   10.1062  -13.9119 H   0  0  0  0  0  0  0  0  0  0  0  0
   -6.8892   12.2248  -14.1028 H   0  0  0  0  0  0  0  0  0  0  0  0
   -8.0293    9.5968   -7.2711 H   0  0  0  0  0  0  0  0  0  0  0  0
   -6.7546   12.3002   -6.8738 H   0  0  0  0  0  0  0  0  0  0  0  0
   -2.9865   10.3361   -8.7847 H   0  0  0  0  0  0  0  0  0  0  0  0
   -2.9806    9.5569   -7.1663 H   0  0  0  0  0  0  0  0  0  0  0  0
   -4.8603    8.8218   -7.5006 H   0  0  0  0  0  0  0  0  0  0  0  0
   -4.8514    9.5697   -9.1338 H   0  0  0  0  0  0  0  0  0  0  0  0
   -4.6664   14.2006   -5.7309 H   0  0  0  0  0  0  0  0  0  0  0  0
   -0.3825   12.9417   -6.5674 H   0  0  0  0  0  0  0  0  0  0  0  0
   -0.6691   11.1721   -6.4547 H   0  0  0  0  0  0  0  0  0  0  0  0
   -0.6996   11.9867   -8.0553 H   0  0  0  0  0  0  0  0  0  0  0  0
   -4.7360   12.7267   -9.4387 H   0  0  0  0  0  0  0  0  0  0  0  0
   -3.5013   12.1004  -10.5834 H   0  0  0  0  0  0  0  0  0  0  0  0
   -2.0904   13.9978  -10.1413 H   0  0  0  0  0  0  0  0  0  0  0  0
   -3.1360   15.3560  -11.8558 H   0  0  0  0  0  0  0  0  0  0  0  0
   -4.3787   15.9133  -10.6846 H   0  0  0  0  0  0  0  0  0  0  0  0
   -4.8633   15.4195   -7.3271 H   0  0  0  0  0  0  0  0  0  0  0  0
   -5.2283   15.7048   -9.0625 H   0  0  0  0  0  0  0  0  0  0  0  0
   -5.3645   14.0504   -8.3763 H   0  0  0  0  0  0  0  0  0  0  0  0
  1  2  2  0  0  0  0
  1  4  1  0  0  0  0
  1 12  1  0  0  0  0
  2  6  1  0  0  0  0
  3  4  2  0  0  0  0
  3  5  1  0  0  0  0
  5  6  2  0  0  0  0
  5  9  1  0  0  0  0
  6  7  1  0  0  0  0
  7  8  1  0  0  0  0
  7 10  2  3  0  0  0
  8  9  2  0  0  0  0
 10 14  1  0  0  0  0
 11 12  1  0  0  0  0
 11 24  1  0  0  0  0
 11 26  1  0  0  0  0
 12 13  2  0  0  0  0
 14 15  2  0  0  0  0
 14 19  1  0  0  0  0
 15 16  1  0  0  0  0
 16 17  2  0  0  0  0
 16 20  1  0  0  0  0
 17 18  1  0  0  0  0
 17 22  1  0  0  0  0
 18 19  1  0  0  0  0
 20 21  2  0  0  0  0
 21 22  1  0  0  0  0
 22 23  1  0  0  0  0
 24 25  1  0  0  0  0
 25 26  1  0  0  0  0
 25 27  1  0  0  0  0
 27 28  1  0  0  0  0
  2 29  1  0  0  0  0
  3 30  1  0  0  0  0
  4 31  1  0  0  0  0
 10 32  1  0  0  0  0
 15 33  1  0  0  0  0
 18 34  1  0  0  0  0
 18 35  1  0  0  0  0
 19 36  1  0  0  0  0
 19 37  1  0  0  0  0
 20 38  1  0  0  0  0
 23 39  1  0  0  0  0
 23 40  1  0  0  0  0
 23 41  1  0  0  0  0
 24 42  1  0  0  0  0
 24 43  1  0  0  0  0
 25 44  1  0  0  0  0
 26 45  1  0  0  0  0
 26 46  1  0  0  0  0
 28 47  1  0  0  0  0
 28 48  1  0  0  0  0
 28 49  1  0  0  0  0
M  END
> <Name>
45

> <IC50[uM]>
0.007

$$$$
45
  -OEChem-05192314333D
 Structure written by MMmdl.
 49 53  0     1  0  0  0  0  0999 V2000
   -6.4275   12.3453  -12.0176 C   0  0  0  0  0  0  0  0  0  0  0  0
   -6.6105   11.7832  -10.7429 C   0  0  0  0  0  0  0  0  0  0  0  0
   -7.7405   10.5587  -13.0479 C   0  0  0  0  0  0  0  0  0  0  0  0
   -7.0073   11.7527  -13.1387 C   0  0  0  0  0  0  0  0  0  0  0  0
   -7.8357    9.9872  -11.7695 C   0  0  0  0  0  0  0  0  0  0  0  0
   -7.2848   10.5993  -10.6252 C   0  0  0  0  0  0  0  0  0  0  0  0
   -7.6281    9.7307   -9.5318 C   0  0  0  0  0  0  0  0  0  0  0  0
   -8.2830    8.7083   -9.9969 N   0  0  0  0  0  0  0  0  0  0  0  0
   -8.4214    8.8369  -11.3125 N   0  0  0  0  0  0  0  0  0  0  0  0
   -7.3299    9.8861   -8.0415 C   0  0  0  0  0  0  0  0  0  0  0  0
   -4.6020   13.8371  -11.3112 N   0  0  0  0  0  0  0  0  0  0  0  0
   -5.6232   13.6419  -12.1798 C   0  0  0  0  0  0  0  0  0  0  0  0
   -5.9069   14.4516  -13.0592 O   0  0  0  0  0  0  0  0  0  0  0  0
   -5.9473   10.4903   -7.7303 C   0  0  3  0  0  0  0  0  0  0  0  0
   -5.8632   11.7421   -7.1195 C   0  0  0  0  0  0  0  0  0  0  0  0
   -4.5901   12.2560   -6.8332 C   0  0  0  0  0  0  0  0  0  0  0  0
   -3.4296   11.5300   -7.2115 C   0  0  0  0  0  0  0  0  0  0  0  0
   -3.5045   10.2730   -7.8164 C   0  0  0  0  0  0  0  0  0  0  0  0
   -4.7945    9.7703   -8.0537 C   0  0  0  0  0  0  0  0  0  0  0  0
   -4.0643   13.4351   -6.1976 C   0  0  0  0  0  0  0  0  0  0  0  0
   -2.7662   13.4536   -6.2615 N   0  0  0  0  0  0  0  0  0  0  0  0
   -2.3669   12.3336   -6.8391 N   0  0  0  0  0  0  0  0  0  0  0  0
   -0.9435   12.0941   -6.9881 C   0  0  0  0  0  0  0  0  0  0  0  0
   -4.0340   12.9997  -10.2404 C   0  0  0  0  0  0  0  0  0  0  0  0
   -3.1550   14.1929   -9.9451 C   0  0  0  0  0  0  0  0  0  0  0  0
   -3.8070   15.0441  -11.0419 C   0  0  0  0  0  0  0  0  0  0  0  0
   -3.4251   14.7437   -8.6708 O   0  0  0  0  0  0  0  0  0  0  0  0
   -4.8009   14.9943   -8.3397 C   0  0  0  0  0  0  0  0  0  0  0  0
   -6.2230   12.2805   -9.8660 H   0  0  0  0  0  0  0  0  0  0  0  0
   -8.2044   10.1062  -13.9119 H   0  0  0  0  0  0  0  0  0  0  0  0
   -6.8892   12.2248  -14.1028 H   0  0  0  0  0  0  0  0  0  0  0  0
   -8.0293    9.5968   -7.2711 H   0  0  0  0  0  0  0  0  0  0  0  0
   -5.9302   10.9688   -8.7206 H   0  0  0  0  0  0  0  0  0  0  0  0
   -6.3642   12.4628   -7.7826 H   0  0  0  0  0  0  0  0  0  0  0  0
   -6.4105   11.6778   -6.1675 H   0  0  0  0  0  0  0  0  0  0  0  0
   -2.6185    9.7178   -8.0869 H   0  0  0  0  0  0  0  0  0  0  0  0
   -4.8988    8.7932   -8.5018 H   0  0  0  0  0  0  0  0  0  0  0  0
   -4.6664   14.2006   -5.7309 H   0  0  0  0  0  0  0  0  0  0  0  0
   -0.3825   12.9417   -6.5674 H   0  0  0  0  0  0  0  0  0  0  0  0
   -0.6691   11.1721   -6.4547 H   0  0  0  0  0  0  0  0  0  0  0  0
   -0.6996   11.9867   -8.0553 H   0  0  0  0  0  0  0  0  0  0  0  0
   -4.7360   12.7267   -9.4387 H   0  0  0  0  0  0  0  0  0  0  0  0
   -3.5013   12.1004  -10.5834 H   0  0  0  0  0  0  0  0  0  0  0  0
   -2.0904   13.9978  -10.1413 H   0  0  0  0  0  0  0  0  0  0  0  0
   -3.1360   15.3560  -11.8558 H   0  0  0  0  0  0  0  0  0  0  0  0
   -4.3787   15.9133  -10.6846 H   0  0  0  0  0  0  0  0  0  0  0  0
   -4.8633   15.4195   -7.3271 H   0  0  0  0  0  0  0  0  0  0  0  0
   -5.2283   15.7048   -9.0625 H   0  0  0  0  0  0  0  0  0  0  0  0
   -5.3645   14.0504   -8.3763 H   0  0  0  0  0  0  0  0  0  0  0  0
  1  2  2  0  0  0  0
  1  4  1  0  0  0  0
  1 12  1  0  0  0  0
  2  6  1  0  0  0  0
  3  4  2  0  0  0  0
  3  5  1  0  0  0  0
  5  6  2  0  0  0  0
  5  9  1  0  0  0  0
  6  7  1  0  0  0  0
  7  8  1  0  0  0  0
  7 10  2  3  0  0  0
  8  9  2  0  0  0  0
 10 14  1  0  0  0  0
 11 12  1  0  0  0  0
 11 24  1  0  0  0  0
 11 26  1  0  0  0  0
 12 13  2  0  0  0  0
 14 15  1  0  0  0  0
 14 19  1  0  0  0  0
 15 16  1  0  0  0  0
 16 17  2  0  0  0  0
 16 20  1  0  0  0  0
 17 18  1  0  0  0  0
 17 22  1  0  0  0  0
 18 19  2  0  0  0  0
 20 21  2  0  0  0  0
 21 22  1  0  0  0  0
 22 23  1  0  0  0  0
 24 25  1  0  0  0  0
 25 26  1  0  0  0  0
 25 27  1  0  0  0  0
 27 28  1  0  0  0  0
  2 29  1  0  0  0  0
  3 30  1  0  0  0  0
  4 31  1  0  0  0  0
 10 32  1  0  0  0  0
 14 33  1  0  0  0  0
 15 34  1  0  0  0  0
 15 35  1  0  0  0  0
 18 36  1  0  0  0  0
 19 37  1  0  0  0  0
 20 38  1  0  0  0  0
 23 39  1  0  0  0  0
 23 40  1  0  0  0  0
 23 41  1  0  0  0  0
 24 42  1  0  0  0  0
 24 43  1  0  0  0  0
 25 44  1  0  0  0  0
 26 45  1  0  0  0  0
 26 46  1  0  0  0  0
 28 47  1  0  0  0  0
 28 48  1  0  0  0  0
 28 49  1  0  0  0  0
M  END
> <Name>
45

> <IC50[uM]>
0.007

$$$$
45
  -OEChem-05192314333D
 Structure written by MMmdl.
 49 53  0     1  0  0  0  0  0999 V2000
   -6.4275   12.3453  -12.0176 C   0  0  0  0  0  0  0  0  0  0  0  0
   -6.6105   11.7832  -10.7429 C   0  0  0  0  0  0  0  0  0  0  0  0
   -7.7405   10.5587  -13.0479 C   0  0  0  0  0  0  0  0  0  0  0  0
   -7.0073   11.7527  -13.1387 C   0  0  0  0  0  0  0  0  0  0  0  0
   -7.8357    9.9872  -11.7695 C   0  0  0  0  0  0  0  0  0  0  0  0
   -7.2848   10.5993  -10.6252 C   0  0  0  0  0  0  0  0  0  0  0  0
   -7.6281    9.7307   -9.5318 C   0  0  3  0  0  0  0  0  0  0  0  0
   -8.2830    8.7083   -9.9969 N   0  0  0  0  0  0  0  0  0  0  0  0
   -8.4214    8.8369  -11.3125 N   0  0  0  0  0  0  0  0  0  0  0  0
   -7.3299    9.8861   -8.0415 C   0  0  0  0  0  0  0  0  0  0  0  0
   -4.6020   13.8371  -11.3112 N   0  0  0  0  0  0  0  0  0  0  0  0
   -5.6232   13.6419  -12.1798 C   0  0  0  0  0  0  0  0  0  0  0  0
   -5.9069   14.4516  -13.0592 O   0  0  0  0  0  0  0  0  0  0  0  0
   -5.9473   10.4903   -7.7303 C   0  0  0  0  0  0  0  0  0  0  0  0
   -5.8632   11.7421   -7.1195 C   0  0  0  0  0  0  0  0  0  0  0  0
   -4.5901   12.2560   -6.8332 C   0  0  0  0  0  0  0  0  0  0  0  0
   -3.4296   11.5300   -7.2115 C   0  0  0  0  0  0  0  0  0  0  0  0
   -3.5045   10.2730   -7.8164 C   0  0  0  0  0  0  0  0  0  0  0  0
   -4.7945    9.7703   -8.0537 C   0  0  0  0  0  0  0  0  0  0  0  0
   -4.0643   13.4351   -6.1976 C   0  0  0  0  0  0  0  0  0  0  0  0
   -2.7662   13.4536   -6.2615 N   0  0  0  0  0  0  0  0  0  0  0  0
   -2.3669   12.3336   -6.8391 N   0  0  0  0  0  0  0  0  0  0  0  0
   -0.9435   12.0941   -6.9881 C   0  0  0  0  0  0  0  0  0  0  0  0
   -4.0340   12.9997  -10.2404 C   0  0  0  0  0  0  0  0  0  0  0  0
   -3.1550   14.1929   -9.9451 C   0  0  0  0  0  0  0  0  0  0  0  0
   -3.8070   15.0441  -11.0419 C   0  0  0  0  0  0  0  0  0  0  0  0
   -3.4251   14.7437   -8.6708 O   0  0  0  0  0  0  0  0  0  0  0  0
   -4.8009   14.9943   -8.3397 C   0  0  0  0  0  0  0  0  0  0  0  0
   -6.2230   12.2805   -9.8660 H   0  0  0  0  0  0  0  0  0  0  0  0
   -8.2044   10.1062  -13.9119 H   0  0  0  0  0  0  0  0  0  0  0  0
   -6.8892   12.2248  -14.1028 H   0  0  0  0  0  0  0  0  0  0  0  0
   -6.6815    9.1866   -9.6655 H   0  0  0  0  0  0  0  0  0  0  0  0
   -8.0293    9.5968   -7.2711 H   0  0  0  0  0  0  0  0  0  0  0  0
   -6.3642   12.4628   -7.7826 H   0  0  0  0  0  0  0  0  0  0  0  0
   -6.4105   11.6778   -6.1675 H   0  0  0  0  0  0  0  0  0  0  0  0
   -2.6185    9.7178   -8.0869 H   0  0  0  0  0  0  0  0  0  0  0  0
   -4.8988    8.7932   -8.5018 H   0  0  0  0  0  0  0  0  0  0  0  0
   -4.6664   14.2006   -5.7309 H   0  0  0  0  0  0  0  0  0  0  0  0
   -0.3825   12.9417   -6.5674 H   0  0  0  0  0  0  0  0  0  0  0  0
   -0.6691   11.1721   -6.4547 H   0  0  0  0  0  0  0  0  0  0  0  0
   -0.6996   11.9867   -8.0553 H   0  0  0  0  0  0  0  0  0  0  0  0
   -4.7360   12.7267   -9.4387 H   0  0  0  0  0  0  0  0  0  0  0  0
   -3.5013   12.1004  -10.5834 H   0  0  0  0  0  0  0  0  0  0  0  0
   -2.0904   13.9978  -10.1413 H   0  0  0  0  0  0  0  0  0  0  0  0
   -3.1360   15.3560  -11.8558 H   0  0  0  0  0  0  0  0  0  0  0  0
   -4.3787   15.9133  -10.6846 H   0  0  0  0  0  0  0  0  0  0  0  0
   -4.8633   15.4195   -7.3271 H   0  0  0  0  0  0  0  0  0  0  0  0
   -5.2283   15.7048   -9.0625 H   0  0  0  0  0  0  0  0  0  0  0  0
   -5.3645   14.0504   -8.3763 H   0  0  0  0  0  0  0  0  0  0  0  0
  1  2  2  0  0  0  0
  1  4  1  0  0  0  0
  1 12  1  0  0  0  0
  2  6  1  0  0  0  0
  3  4  2  0  0  0  0
  3  5  1  0  0  0  0
  5  6  2  0  0  0  0
  5  9  1  0  0  0  0
  6  7  1  0  0  0  0
  7  8  1  0  0  0  0
  7 10  1  0  0  0  0
  8  9  2  0  0  0  0
 10 14  2  3  0  0  0
 11 12  1  0  0  0  0
 11 24  1  0  0  0  0
 11 26  1  0  0  0  0
 12 13  2  0  0  0  0
 14 15  1  0  0  0  0
 14 19  1  0  0  0  0
 15 16  1  0  0  0  0
 16 17  2  0  0  0  0
 16 20  1  0  0  0  0
 17 18  1  0  0  0  0
 17 22  1  0  0  0  0
 18 19  2  0  0  0  0
 20 21  2  0  0  0  0
 21 22  1  0  0  0  0
 22 23  1  0  0  0  0
 24 25  1  0  0  0  0
 25 26  1  0  0  0  0
 25 27  1  0  0  0  0
 27 28  1  0  0  0  0
  2 29  1  0  0  0  0
  3 30  1  0  0  0  0
  4 31  1  0  0  0  0
  7 32  1  0  0  0  0
 10 33  1  0  0  0  0
 15 34  1  0  0  0  0
 15 35  1  0  0  0  0
 18 36  1  0  0  0  0
 19 37  1  0  0  0  0
 20 38  1  0  0  0  0
 23 39  1  0  0  0  0
 23 40  1  0  0  0  0
 23 41  1  0  0  0  0
 24 42  1  0  0  0  0
 24 43  1  0  0  0  0
 25 44  1  0  0  0  0
 26 45  1  0  0  0  0
 26 46  1  0  0  0  0
 28 47  1  0  0  0  0
 28 48  1  0  0  0  0
 28 49  1  0  0  0  0
M  END
> <Name>
45

> <IC50[uM]>
0.007

$$$$
45
  -OEChem-05192314333D
 Structure written by MMmdl.
 49 53  0     0  0  0  0  0  0999 V2000
   -6.4275   12.3453  -12.0176 C   0  0  0  0  0  0  0  0  0  0  0  0
   -6.6105   11.7832  -10.7429 C   0  0  0  0  0  0  0  0  0  0  0  0
   -7.7405   10.5587  -13.0479 C   0  0  0  0  0  0  0  0  0  0  0  0
   -7.0073   11.7527  -13.1387 C   0  0  0  0  0  0  0  0  0  0  0  0
   -7.8357    9.9872  -11.7695 C   0  0  0  0  0  0  0  0  0  0  0  0
   -7.2848   10.5993  -10.6252 C   0  0  0  0  0  0  0  0  0  0  0  0
   -7.6281    9.7307   -9.5318 C   0  0  0  0  0  0  0  0  0  0  0  0
   -8.2830    8.7083   -9.9969 N   0  0  0  0  0  0  0  0  0  0  0  0
   -8.4214    8.8369  -11.3125 N   0  0  0  0  0  0  0  0  0  0  0  0
   -7.3299    9.8861   -8.0415 C   0  0  0  0  0  0  0  0  0  0  0  0
   -4.6020   13.8371  -11.3112 N   0  0  0  0  0  0  0  0  0  0  0  0
   -5.6232   13.6419  -12.1798 C   0  0  0  0  0  0  0  0  0  0  0  0
   -5.9069   14.4516  -13.0592 O   0  0  0  0  0  0  0  0  0  0  0  0
   -5.9473   10.4903   -7.7303 C   0  0  0  0  0  0  0  0  0  0  0  0
   -5.8632   11.7421   -7.1195 C   0  0  0  0  0  0  0  0  0  0  0  0
   -4.5901   12.2560   -6.8332 C   0  0  0  0  0  0  0  0  0  0  0  0
   -3.4296   11.5300   -7.2115 C   0  0  0  0  0  0  0  0  0  0  0  0
   -3.5045   10.2730   -7.8164 C   0  0  0  0  0  0  0  0  0  0  0  0
   -4.7945    9.7703   -8.0537 C   0  0  0  0  0  0  0  0  0  0  0  0
   -4.0643   13.4351   -6.1976 C   0  0  0  0  0  0  0  0  0  0  0  0
   -2.7662   13.4536   -6.2615 N   0  0  0  0  0  0  0  0  0  0  0  0
   -2.3669   12.3336   -6.8391 N   0  0  0  0  0  0  0  0  0  0  0  0
   -0.9435   12.0941   -6.9881 C   0  0  0  0  0  0  0  0  0  0  0  0
   -4.0340   12.9997  -10.2404 C   0  0  0  0  0  0  0  0  0  0  0  0
   -3.1550   14.1929   -9.9451 C   0  0  0  0  0  0  0  0  0  0  0  0
   -3.8070   15.0441  -11.0419 C   0  0  0  0  0  0  0  0  0  0  0  0
   -3.4251   14.7437   -8.6708 O   0  0  0  0  0  0  0  0  0  0  0  0
   -4.8009   14.9943   -8.3397 C   0  0  0  0  0  0  0  0  0  0  0  0
   -6.2230   12.2805   -9.8660 H   0  0  0  0  0  0  0  0  0  0  0  0
   -8.2044   10.1062  -13.9119 H   0  0  0  0  0  0  0  0  0  0  0  0
   -6.8892   12.2248  -14.1028 H   0  0  0  0  0  0  0  0  0  0  0  0
   -8.0293    9.5968   -7.2711 H   0  0  0  0  0  0  0  0  0  0  0  0
   -6.3642   12.4628   -7.7826 H   0  0  0  0  0  0  0  0  0  0  0  0
   -6.4105   11.6778   -6.1675 H   0  0  0  0  0  0  0  0  0  0  0  0
   -2.9865   10.3361   -8.7847 H   0  0  0  0  0  0  0  0  0  0  0  0
   -2.9806    9.5569   -7.1663 H   0  0  0  0  0  0  0  0  0  0  0  0
   -4.8988    8.7932   -8.5018 H   0  0  0  0  0  0  0  0  0  0  0  0
   -4.6664   14.2006   -5.7309 H   0  0  0  0  0  0  0  0  0  0  0  0
   -0.3825   12.9417   -6.5674 H   0  0  0  0  0  0  0  0  0  0  0  0
   -0.6691   11.1721   -6.4547 H   0  0  0  0  0  0  0  0  0  0  0  0
   -0.6996   11.9867   -8.0553 H   0  0  0  0  0  0  0  0  0  0  0  0
   -4.7360   12.7267   -9.4387 H   0  0  0  0  0  0  0  0  0  0  0  0
   -3.5013   12.1004  -10.5834 H   0  0  0  0  0  0  0  0  0  0  0  0
   -2.0904   13.9978  -10.1413 H   0  0  0  0  0  0  0  0  0  0  0  0
   -3.1360   15.3560  -11.8558 H   0  0  0  0  0  0  0  0  0  0  0  0
   -4.3787   15.9133  -10.6846 H   0  0  0  0  0  0  0  0  0  0  0  0
   -4.8633   15.4195   -7.3271 H   0  0  0  0  0  0  0  0  0  0  0  0
   -5.2283   15.7048   -9.0625 H   0  0  0  0  0  0  0  0  0  0  0  0
   -5.3645   14.0504   -8.3763 H   0  0  0  0  0  0  0  0  0  0  0  0
  1  2  2  0  0  0  0
  1  4  1  0  0  0  0
  1 12  1  0  0  0  0
  2  6  1  0  0  0  0
  3  4  2  0  0  0  0
  3  5  1  0  0  0  0
  5  6  2  0  0  0  0
  5  9  1  0  0  0  0
  6  7  1  0  0  0  0
  7  8  1  0  0  0  0
  7 10  2  3  0  0  0
  8  9  2  0  0  0  0
 10 14  1  0  0  0  0
 11 12  1  0  0  0  0
 11 24  1  0  0  0  0
 11 26  1  0  0  0  0
 12 13  2  0  0  0  0
 14 15  1  0  0  0  0
 14 19  2  0  0  0  0
 15 16  1  0  0  0  0
 16 17  2  0  0  0  0
 16 20  1  0  0  0  0
 17 18  1  0  0  0  0
 17 22  1  0  0  0  0
 18 19  1  0  0  0  0
 20 21  2  0  0  0  0
 21 22  1  0  0  0  0
 22 23  1  0  0  0  0
 24 25  1  0  0  0  0
 25 26  1  0  0  0  0
 25 27  1  0  0  0  0
 27 28  1  0  0  0  0
  2 29  1  0  0  0  0
  3 30  1  0  0  0  0
  4 31  1  0  0  0  0
 10 32  1  0  0  0  0
 15 33  1  0  0  0  0
 15 34  1  0  0  0  0
 18 35  1  0  0  0  0
 18 36  1  0  0  0  0
 19 37  1  0  0  0  0
 20 38  1  0  0  0  0
 23 39  1  0  0  0  0
 23 40  1  0  0  0  0
 23 41  1  0  0  0  0
 24 42  1  0  0  0  0
 24 43  1  0  0  0  0
 25 44  1  0  0  0  0
 26 45  1  0  0  0  0
 26 46  1  0  0  0  0
 28 47  1  0  0  0  0
 28 48  1  0  0  0  0
 28 49  1  0  0  0  0
M  END
> <Name>
45

> <IC50[uM]>
0.007

$$$$
45
  -OEChem-05192314333D
 Structure written by MMmdl.
 49 53  0     1  0  0  0  0  0999 V2000
   -6.4275   12.3453  -12.0176 C   0  0  0  0  0  0  0  0  0  0  0  0
   -6.6105   11.7832  -10.7429 C   0  0  0  0  0  0  0  0  0  0  0  0
   -7.7405   10.5587  -13.0479 C   0  0  0  0  0  0  0  0  0  0  0  0
   -7.0073   11.7527  -13.1387 C   0  0  0  0  0  0  0  0  0  0  0  0
   -7.8357    9.9872  -11.7695 C   0  0  0  0  0  0  0  0  0  0  0  0
   -7.2848   10.5993  -10.6252 C   0  0  0  0  0  0  0  0  0  0  0  0
   -7.6281    9.7307   -9.5318 C   0  0  0  0  0  0  0  0  0  0  0  0
   -8.2830    8.7083   -9.9969 N   0  0  0  0  0  0  0  0  0  0  0  0
   -8.4214    8.8369  -11.3125 N   0  0  0  0  0  0  0  0  0  0  0  0
   -7.3299    9.8861   -8.0415 C   0  0  0  0  0  0  0  0  0  0  0  0
   -4.6020   13.8371  -11.3112 N   0  0  0  0  0  0  0  0  0  0  0  0
   -5.6232   13.6419  -12.1798 C   0  0  0  0  0  0  0  0  0  0  0  0
   -5.9069   14.4516  -13.0592 O   0  0  0  0  0  0  0  0  0  0  0  0
   -5.9473   10.4903   -7.7303 C   0  0  3  0  0  0  0  0  0  0  0  0
   -5.8632   11.7421   -7.1195 C   0  0  0  0  0  0  0  0  0  0  0  0
   -4.5901   12.2560   -6.8332 C   0  0  0  0  0  0  0  0  0  0  0  0
   -3.4296   11.5300   -7.2115 C   0  0  0  0  0  0  0  0  0  0  0  0
   -3.5045   10.2730   -7.8164 C   0  0  0  0  0  0  0  0  0  0  0  0
   -4.7945    9.7703   -8.0537 C   0  0  0  0  0  0  0  0  0  0  0  0
   -4.0643   13.4351   -6.1976 C   0  0  0  0  0  0  0  0  0  0  0  0
   -2.7662   13.4536   -6.2615 N   0  0  0  0  0  0  0  0  0  0  0  0
   -2.3669   12.3336   -6.8391 N   0  0  0  0  0  0  0  0  0  0  0  0
   -0.9435   12.0941   -6.9881 C   0  0  0  0  0  0  0  0  0  0  0  0
   -4.0340   12.9997  -10.2404 C   0  0  0  0  0  0  0  0  0  0  0  0
   -3.1550   14.1929   -9.9451 C   0  0  0  0  0  0  0  0  0  0  0  0
   -3.8070   15.0441  -11.0419 C   0  0  0  0  0  0  0  0  0  0  0  0
   -3.4251   14.7437   -8.6708 O   0  0  0  0  0  0  0  0  0  0  0  0
   -4.8009   14.9943   -8.3397 C   0  0  0  0  0  0  0  0  0  0  0  0
   -6.2230   12.2805   -9.8660 H   0  0  0  0  0  0  0  0  0  0  0  0
   -8.2044   10.1062  -13.9119 H   0  0  0  0  0  0  0  0  0  0  0  0
   -6.8892   12.2248  -14.1028 H   0  0  0  0  0  0  0  0  0  0  0  0
   -8.0293    9.5968   -7.2711 H   0  0  0  0  0  0  0  0  0  0  0  0
   -5.9302   10.9688   -8.7206 H   0  0  0  0  0  0  0  0  0  0  0  0
   -6.7546   12.3002   -6.8738 H   0  0  0  0  0  0  0  0  0  0  0  0
   -2.6185    9.7178   -8.0869 H   0  0  0  0  0  0  0  0  0  0  0  0
   -4.8603    8.8218   -7.5006 H   0  0  0  0  0  0  0  0  0  0  0  0
   -4.8514    9.5697   -9.1338 H   0  0  0  0  0  0  0  0  0  0  0  0
   -4.6664   14.2006   -5.7309 H   0  0  0  0  0  0  0  0  0  0  0  0
   -0.3825   12.9417   -6.5674 H   0  0  0  0  0  0  0  0  0  0  0  0
   -0.6691   11.1721   -6.4547 H   0  0  0  0  0  0  0  0  0  0  0  0
   -0.6996   11.9867   -8.0553 H   0  0  0  0  0  0  0  0  0  0  0  0
   -4.7360   12.7267   -9.4387 H   0  0  0  0  0  0  0  0  0  0  0  0
   -3.5013   12.1004  -10.5834 H   0  0  0  0  0  0  0  0  0  0  0  0
   -2.0904   13.9978  -10.1413 H   0  0  0  0  0  0  0  0  0  0  0  0
   -3.1360   15.3560  -11.8558 H   0  0  0  0  0  0  0  0  0  0  0  0
   -4.3787   15.9133  -10.6846 H   0  0  0  0  0  0  0  0  0  0  0  0
   -4.8633   15.4195   -7.3271 H   0  0  0  0  0  0  0  0  0  0  0  0
   -5.2283   15.7048   -9.0625 H   0  0  0  0  0  0  0  0  0  0  0  0
   -5.3645   14.0504   -8.3763 H   0  0  0  0  0  0  0  0  0  0  0  0
  1  2  2  0  0  0  0
  1  4  1  0  0  0  0
  1 12  1  0  0  0  0
  2  6  1  0  0  0  0
  3  4  2  0  0  0  0
  3  5  1  0  0  0  0
  5  6  2  0  0  0  0
  5  9  1  0  0  0  0
  6  7  1  0  0  0  0
  7  8  1  0  0  0  0
  7 10  2  3  0  0  0
  8  9  2  0  0  0  0
 10 14  1  0  0  0  0
 11 12  1  0  0  0  0
 11 24  1  0  0  0  0
 11 26  1  0  0  0  0
 12 13  2  0  0  0  0
 14 15  1  0  0  0  0
 14 19  1  0  0  0  0
 15 16  2  0  0  0  0
 16 17  1  0  0  0  0
 16 20  1  0  0  0  0
 17 18  2  0  0  0  0
 17 22  1  0  0  0  0
 18 19  1  0  0  0  0
 20 21  2  0  0  0  0
 21 22  1  0  0  0  0
 22 23  1  0  0  0  0
 24 25  1  0  0  0  0
 25 26  1  0  0  0  0
 25 27  1  0  0  0  0
 27 28  1  0  0  0  0
  2 29  1  0  0  0  0
  3 30  1  0  0  0  0
  4 31  1  0  0  0  0
 10 32  1  0  0  0  0
 14 33  1  0  0  0  0
 15 34  1  0  0  0  0
 18 35  1  0  0  0  0
 19 36  1  0  0  0  0
 19 37  1  0  0  0  0
 20 38  1  0  0  0  0
 23 39  1  0  0  0  0
 23 40  1  0  0  0  0
 23 41  1  0  0  0  0
 24 42  1  0  0  0  0
 24 43  1  0  0  0  0
 25 44  1  0  0  0  0
 26 45  1  0  0  0  0
 26 46  1  0  0  0  0
 28 47  1  0  0  0  0
 28 48  1  0  0  0  0
 28 49  1  0  0  0  0
M  END
> <Name>
45

> <IC50[uM]>
0.007

$$$$
45
  -OEChem-05192314333D
 Structure written by MMmdl.
 49 53  0     1  0  0  0  0  0999 V2000
   -6.4275   12.3453  -12.0176 C   0  0  0  0  0  0  0  0  0  0  0  0
   -6.6105   11.7832  -10.7429 C   0  0  0  0  0  0  0  0  0  0  0  0
   -7.7405   10.5587  -13.0479 C   0  0  0  0  0  0  0  0  0  0  0  0
   -7.0073   11.7527  -13.1387 C   0  0  0  0  0  0  0  0  0  0  0  0
   -7.8357    9.9872  -11.7695 C   0  0  0  0  0  0  0  0  0  0  0  0
   -7.2848   10.5993  -10.6252 C   0  0  0  0  0  0  0  0  0  0  0  0
   -7.6281    9.7307   -9.5318 C   0  0  3  0  0  0  0  0  0  0  0  0
   -8.2830    8.7083   -9.9969 N   0  0  0  0  0  0  0  0  0  0  0  0
   -8.4214    8.8369  -11.3125 N   0  0  0  0  0  0  0  0  0  0  0  0
   -7.3299    9.8861   -8.0415 C   0  0  0  0  0  0  0  0  0  0  0  0
   -4.6020   13.8371  -11.3112 N   0  0  0  0  0  0  0  0  0  0  0  0
   -5.6232   13.6419  -12.1798 C   0  0  0  0  0  0  0  0  0  0  0  0
   -5.9069   14.4516  -13.0592 O   0  0  0  0  0  0  0  0  0  0  0  0
   -5.9473   10.4903   -7.7303 C   0  0  0  0  0  0  0  0  0  0  0  0
   -5.8632   11.7421   -7.1195 C   0  0  0  0  0  0  0  0  0  0  0  0
   -4.5901   12.2560   -6.8332 C   0  0  0  0  0  0  0  0  0  0  0  0
   -3.4296   11.5300   -7.2115 C   0  0  0  0  0  0  0  0  0  0  0  0
   -3.5045   10.2730   -7.8164 C   0  0  0  0  0  0  0  0  0  0  0  0
   -4.7945    9.7703   -8.0537 C   0  0  0  0  0  0  0  0  0  0  0  0
   -4.0643   13.4351   -6.1976 C   0  0  0  0  0  0  0  0  0  0  0  0
   -2.7662   13.4536   -6.2615 N   0  0  0  0  0  0  0  0  0  0  0  0
   -2.3669   12.3336   -6.8391 N   0  0  0  0  0  0  0  0  0  0  0  0
   -0.9435   12.0941   -6.9881 C   0  0  0  0  0  0  0  0  0  0  0  0
   -4.0340   12.9997  -10.2404 C   0  0  0  0  0  0  0  0  0  0  0  0
   -3.1550   14.1929   -9.9451 C   0  0  0  0  0  0  0  0  0  0  0  0
   -3.8070   15.0441  -11.0419 C   0  0  0  0  0  0  0  0  0  0  0  0
   -3.4251   14.7437   -8.6708 O   0  0  0  0  0  0  0  0  0  0  0  0
   -4.8009   14.9943   -8.3397 C   0  0  0  0  0  0  0  0  0  0  0  0
   -6.2230   12.2805   -9.8660 H   0  0  0  0  0  0  0  0  0  0  0  0
   -8.2044   10.1062  -13.9119 H   0  0  0  0  0  0  0  0  0  0  0  0
   -6.8892   12.2248  -14.1028 H   0  0  0  0  0  0  0  0  0  0  0  0
   -6.6815    9.1866   -9.6655 H   0  0  0  0  0  0  0  0  0  0  0  0
   -8.0293    9.5968   -7.2711 H   0  0  0  0  0  0  0  0  0  0  0  0
   -6.7546   12.3002   -6.8738 H   0  0  0  0  0  0  0  0  0  0  0  0
   -2.6185    9.7178   -8.0869 H   0  0  0  0  0  0  0  0  0  0  0  0
   -4.8603    8.8218   -7.5006 H   0  0  0  0  0  0  0  0  0  0  0  0
   -4.8514    9.5697   -9.1338 H   0  0  0  0  0  0  0  0  0  0  0  0
   -4.6664   14.2006   -5.7309 H   0  0  0  0  0  0  0  0  0  0  0  0
   -0.3825   12.9417   -6.5674 H   0  0  0  0  0  0  0  0  0  0  0  0
   -0.6691   11.1721   -6.4547 H   0  0  0  0  0  0  0  0  0  0  0  0
   -0.6996   11.9867   -8.0553 H   0  0  0  0  0  0  0  0  0  0  0  0
   -4.7360   12.7267   -9.4387 H   0  0  0  0  0  0  0  0  0  0  0  0
   -3.5013   12.1004  -10.5834 H   0  0  0  0  0  0  0  0  0  0  0  0
   -2.0904   13.9978  -10.1413 H   0  0  0  0  0  0  0  0  0  0  0  0
   -3.1360   15.3560  -11.8558 H   0  0  0  0  0  0  0  0  0  0  0  0
   -4.3787   15.9133  -10.6846 H   0  0  0  0  0  0  0  0  0  0  0  0
   -4.8633   15.4195   -7.3271 H   0  0  0  0  0  0  0  0  0  0  0  0
   -5.2283   15.7048   -9.0625 H   0  0  0  0  0  0  0  0  0  0  0  0
   -5.3645   14.0504   -8.3763 H   0  0  0  0  0  0  0  0  0  0  0  0
  1  2  2  0  0  0  0
  1  4  1  0  0  0  0
  1 12  1  0  0  0  0
  2  6  1  0  0  0  0
  3  4  2  0  0  0  0
  3  5  1  0  0  0  0
  5  6  2  0  0  0  0
  5  9  1  0  0  0  0
  6  7  1  0  0  0  0
  7  8  1  0  0  0  0
  7 10  1  0  0  0  0
  8  9  2  0  0  0  0
 10 14  2  3  0  0  0
 11 12  1  0  0  0  0
 11 24  1  0  0  0  0
 11 26  1  0  0  0  0
 12 13  2  0  0  0  0
 14 15  1  0  0  0  0
 14 19  1  0  0  0  0
 15 16  2  0  0  0  0
 16 17  1  0  0  0  0
 16 20  1  0  0  0  0
 17 18  2  0  0  0  0
 17 22  1  0  0  0  0
 18 19  1  0  0  0  0
 20 21  2  0  0  0  0
 21 22  1  0  0  0  0
 22 23  1  0  0  0  0
 24 25  1  0  0  0  0
 25 26  1  0  0  0  0
 25 27  1  0  0  0  0
 27 28  1  0  0  0  0
  2 29  1  0  0  0  0
  3 30  1  0  0  0  0
  4 31  1  0  0  0  0
  7 32  1  0  0  0  0
 10 33  1  0  0  0  0
 15 34  1  0  0  0  0
 18 35  1  0  0  0  0
 19 36  1  0  0  0  0
 19 37  1  0  0  0  0
 20 38  1  0  0  0  0
 23 39  1  0  0  0  0
 23 40  1  0  0  0  0
 23 41  1  0  0  0  0
 24 42  1  0  0  0  0
 24 43  1  0  0  0  0
 25 44  1  0  0  0  0
 26 45  1  0  0  0  0
 26 46  1  0  0  0  0
 28 47  1  0  0  0  0
 28 48  1  0  0  0  0
 28 49  1  0  0  0  0
M  END
> <Name>
45

> <IC50[uM]>
0.007

$$$$
45
  -OEChem-05192314333D
 Structure written by MMmdl.
 49 53  0     1  0  0  0  0  0999 V2000
   -6.4275   12.3453  -12.0176 C   0  0  3  0  0  0  0  0  0  0  0  0
   -6.6105   11.7832  -10.7429 C   0  0  0  0  0  0  0  0  0  0  0  0
   -7.7405   10.5587  -13.0479 C   0  0  0  0  0  0  0  0  0  0  0  0
   -7.0073   11.7527  -13.1387 C   0  0  0  0  0  0  0  0  0  0  0  0
   -7.8357    9.9872  -11.7695 C   0  0  0  0  0  0  0  0  0  0  0  0
   -7.2848   10.5993  -10.6252 C   0  0  0  0  0  0  0  0  0  0  0  0
   -7.6281    9.7307   -9.5318 C   0  0  0  0  0  0  0  0  0  0  0  0
   -8.2830    8.7083   -9.9969 N   0  0  0  0  0  0  0  0  0  0  0  0
   -8.4214    8.8369  -11.3125 N   0  0  0  0  0  0  0  0  0  0  0  0
   -7.3299    9.8861   -8.0415 C   0  0  0  0  0  0  0  0  0  0  0  0
   -4.6020   13.8371  -11.3112 N   0  0  0  0  0  0  0  0  0  0  0  0
   -5.6232   13.6419  -12.1798 C   0  0  0  0  0  0  0  0  0  0  0  0
   -5.9069   14.4516  -13.0592 O   0  0  0  0  0  0  0  0  0  0  0  0
   -5.9473   10.4903   -7.7303 C   0  0  0  0  0  0  0  0  0  0  0  0
   -5.8632   11.7421   -7.1195 C   0  0  0  0  0  0  0  0  0  0  0  0
   -4.5901   12.2560   -6.8332 C   0  0  0  0  0  0  0  0  0  0  0  0
   -3.4296   11.5300   -7.2115 C   0  0  0  0  0  0  0  0  0  0  0  0
   -3.5045   10.2730   -7.8164 C   0  0  0  0  0  0  0  0  0  0  0  0
   -4.7945    9.7703   -8.0537 C   0  0  0  0  0  0  0  0  0  0  0  0
   -4.0643   13.4351   -6.1976 C   0  0  0  0  0  0  0  0  0  0  0  0
   -2.7662   13.4536   -6.2615 N   0  0  0  0  0  0  0  0  0  0  0  0
   -2.3669   12.3336   -6.8391 N   0  0  0  0  0  0  0  0  0  0  0  0
   -0.9435   12.0941   -6.9881 C   0  0  0  0  0  0  0  0  0  0  0  0
   -4.0340   12.9997  -10.2404 C   0  0  0  0  0  0  0  0  0  0  0  0
   -3.1550   14.1929   -9.9451 C   0  0  0  0  0  0  0  0  0  0  0  0
   -3.8070   15.0441  -11.0419 C   0  0  0  0  0  0  0  0  0  0  0  0
   -3.4251   14.7437   -8.6708 O   0  0  0  0  0  0  0  0  0  0  0  0
   -4.8009   14.9943   -8.3397 C   0  0  0  0  0  0  0  0  0  0  0  0
   -5.5143   11.7492  -12.1613 H   0  0  0  0  0  0  0  0  0  0  0  0
   -6.2230   12.2805   -9.8660 H   0  0  0  0  0  0  0  0  0  0  0  0
   -8.2044   10.1062  -13.9119 H   0  0  0  0  0  0  0  0  0  0  0  0
   -6.8892   12.2248  -14.1028 H   0  0  0  0  0  0  0  0  0  0  0  0
   -8.0981   10.5401   -7.6030 H   0  0  0  0  0  0  0  0  0  0  0  0
   -7.3843    8.8919   -7.5740 H   0  0  0  0  0  0  0  0  0  0  0  0
   -6.7546   12.3002   -6.8738 H   0  0  0  0  0  0  0  0  0  0  0  0
   -2.6185    9.7178   -8.0869 H   0  0  0  0  0  0  0  0  0  0  0  0
   -4.8988    8.7932   -8.5018 H   0  0  0  0  0  0  0  0  0  0  0  0
   -4.6664   14.2006   -5.7309 H   0  0  0  0  0  0  0  0  0  0  0  0
   -0.3825   12.9417   -6.5674 H   0  0  0  0  0  0  0  0  0  0  0  0
   -0.6691   11.1721   -6.4547 H   0  0  0  0  0  0  0  0  0  0  0  0
   -0.6996   11.9867   -8.0553 H   0  0  0  0  0  0  0  0  0  0  0  0
   -4.7360   12.7267   -9.4387 H   0  0  0  0  0  0  0  0  0  0  0  0
   -3.5013   12.1004  -10.5834 H   0  0  0  0  0  0  0  0  0  0  0  0
   -2.0904   13.9978  -10.1413 H   0  0  0  0  0  0  0  0  0  0  0  0
   -3.1360   15.3560  -11.8558 H   0  0  0  0  0  0  0  0  0  0  0  0
   -4.3787   15.9133  -10.6846 H   0  0  0  0  0  0  0  0  0  0  0  0
   -4.8633   15.4195   -7.3271 H   0  0  0  0  0  0  0  0  0  0  0  0
   -5.2283   15.7048   -9.0625 H   0  0  0  0  0  0  0  0  0  0  0  0
   -5.3645   14.0504   -8.3763 H   0  0  0  0  0  0  0  0  0  0  0  0
  1  2  1  0  0  0  0
  1  4  1  0  0  0  0
  1 12  1  0  0  0  0
  2  6  2  0  0  0  0
  3  4  2  0  0  0  0
  3  5  1  0  0  0  0
  5  6  1  0  0  0  0
  5  9  2  0  0  0  0
  6  7  1  0  0  0  0
  7  8  2  0  0  0  0
  7 10  1  0  0  0  0
  8  9  1  0  0  0  0
 10 14  1  0  0  0  0
 11 12  1  0  0  0  0
 11 24  1  0  0  0  0
 11 26  1  0  0  0  0
 12 13  2  0  0  0  0
 14 15  2  0  0  0  0
 14 19  1  0  0  0  0
 15 16  1  0  0  0  0
 16 17  2  0  0  0  0
 16 20  1  0  0  0  0
 17 18  1  0  0  0  0
 17 22  1  0  0  0  0
 18 19  2  0  0  0  0
 20 21  2  0  0  0  0
 21 22  1  0  0  0  0
 22 23  1  0  0  0  0
 24 25  1  0  0  0  0
 25 26  1  0  0  0  0
 25 27  1  0  0  0  0
 27 28  1  0  0  0  0
  1 29  1  0  0  0  0
  2 30  1  0  0  0  0
  3 31  1  0  0  0  0
  4 32  1  0  0  0  0
 10 33  1  0  0  0  0
 10 34  1  0  0  0  0
 15 35  1  0  0  0  0
 18 36  1  0  0  0  0
 19 37  1  0  0  0  0
 20 38  1  0  0  0  0
 23 39  1  0  0  0  0
 23 40  1  0  0  0  0
 23 41  1  0  0  0  0
 24 42  1  0  0  0  0
 24 43  1  0  0  0  0
 25 44  1  0  0  0  0
 26 45  1  0  0  0  0
 26 46  1  0  0  0  0
 28 47  1  0  0  0  0
 28 48  1  0  0  0  0
 28 49  1  0  0  0  0
M  END
> <Name>
45

> <IC50[uM]>
0.007

$$$$
45
  -OEChem-05192314333D
 Structure written by MMmdl.
 49 53  0     1  0  0  0  0  0999 V2000
   -6.4275   12.3453  -12.0176 C   0  0  0  0  0  0  0  0  0  0  0  0
   -6.6105   11.7832  -10.7429 C   0  0  0  0  0  0  0  0  0  0  0  0
   -7.7405   10.5587  -13.0479 C   0  0  0  0  0  0  0  0  0  0  0  0
   -7.0073   11.7527  -13.1387 C   0  0  0  0  0  0  0  0  0  0  0  0
   -7.8357    9.9872  -11.7695 C   0  0  0  0  0  0  0  0  0  0  0  0
   -7.2848   10.5993  -10.6252 C   0  0  3  0  0  0  0  0  0  0  0  0
   -7.6281    9.7307   -9.5318 C   0  0  0  0  0  0  0  0  0  0  0  0
   -8.2830    8.7083   -9.9969 N   0  0  0  0  0  0  0  0  0  0  0  0
   -8.4214    8.8369  -11.3125 N   0  0  0  0  0  0  0  0  0  0  0  0
   -7.3299    9.8861   -8.0415 C   0  0  0  0  0  0  0  0  0  0  0  0
   -4.6020   13.8371  -11.3112 N   0  0  0  0  0  0  0  0  0  0  0  0
   -5.6232   13.6419  -12.1798 C   0  0  0  0  0  0  0  0  0  0  0  0
   -5.9069   14.4516  -13.0592 O   0  0  0  0  0  0  0  0  0  0  0  0
   -5.9473   10.4903   -7.7303 C   0  0  0  0  0  0  0  0  0  0  0  0
   -5.8632   11.7421   -7.1195 C   0  0  0  0  0  0  0  0  0  0  0  0
   -4.5901   12.2560   -6.8332 C   0  0  0  0  0  0  0  0  0  0  0  0
   -3.4296   11.5300   -7.2115 C   0  0  0  0  0  0  0  0  0  0  0  0
   -3.5045   10.2730   -7.8164 C   0  0  0  0  0  0  0  0  0  0  0  0
   -4.7945    9.7703   -8.0537 C   0  0  0  0  0  0  0  0  0  0  0  0
   -4.0643   13.4351   -6.1976 C   0  0  0  0  0  0  0  0  0  0  0  0
   -2.7662   13.4536   -6.2615 N   0  0  0  0  0  0  0  0  0  0  0  0
   -2.3669   12.3336   -6.8391 N   0  0  0  0  0  0  0  0  0  0  0  0
   -0.9435   12.0941   -6.9881 C   0  0  0  0  0  0  0  0  0  0  0  0
   -4.0340   12.9997  -10.2404 C   0  0  0  0  0  0  0  0  0  0  0  0
   -3.1550   14.1929   -9.9451 C   0  0  0  0  0  0  0  0  0  0  0  0
   -3.8070   15.0441  -11.0419 C   0  0  0  0  0  0  0  0  0  0  0  0
   -3.4251   14.7437   -8.6708 O   0  0  0  0  0  0  0  0  0  0  0  0
   -4.8009   14.9943   -8.3397 C   0  0  0  0  0  0  0  0  0  0  0  0
   -6.2230   12.2805   -9.8660 H   0  0  0  0  0  0  0  0  0  0  0  0
   -8.2044   10.1062  -13.9119 H   0  0  0  0  0  0  0  0  0  0  0  0
   -6.8892   12.2248  -14.1028 H   0  0  0  0  0  0  0  0  0  0  0  0
   -6.3465   10.0453  -10.7758 H   0  0  0  0  0  0  0  0  0  0  0  0
   -8.0981   10.5401   -7.6030 H   0  0  0  0  0  0  0  0  0  0  0  0
   -7.3843    8.8919   -7.5740 H   0  0  0  0  0  0  0  0  0  0  0  0
   -6.7546   12.3002   -6.8738 H   0  0  0  0  0  0  0  0  0  0  0  0
   -2.6185    9.7178   -8.0869 H   0  0  0  0  0  0  0  0  0  0  0  0
   -4.8988    8.7932   -8.5018 H   0  0  0  0  0  0  0  0  0  0  0  0
   -4.6664   14.2006   -5.7309 H   0  0  0  0  0  0  0  0  0  0  0  0
   -0.3825   12.9417   -6.5674 H   0  0  0  0  0  0  0  0  0  0  0  0
   -0.6691   11.1721   -6.4547 H   0  0  0  0  0  0  0  0  0  0  0  0
   -0.6996   11.9867   -8.0553 H   0  0  0  0  0  0  0  0  0  0  0  0
   -4.7360   12.7267   -9.4387 H   0  0  0  0  0  0  0  0  0  0  0  0
   -3.5013   12.1004  -10.5834 H   0  0  0  0  0  0  0  0  0  0  0  0
   -2.0904   13.9978  -10.1413 H   0  0  0  0  0  0  0  0  0  0  0  0
   -3.1360   15.3560  -11.8558 H   0  0  0  0  0  0  0  0  0  0  0  0
   -4.3787   15.9133  -10.6846 H   0  0  0  0  0  0  0  0  0  0  0  0
   -4.8633   15.4195   -7.3271 H   0  0  0  0  0  0  0  0  0  0  0  0
   -5.2283   15.7048   -9.0625 H   0  0  0  0  0  0  0  0  0  0  0  0
   -5.3645   14.0504   -8.3763 H   0  0  0  0  0  0  0  0  0  0  0  0
  1  2  2  0  0  0  0
  1  4  1  0  0  0  0
  1 12  1  0  0  0  0
  2  6  1  0  0  0  0
  3  4  2  0  0  0  0
  3  5  1  0  0  0  0
  5  6  1  0  0  0  0
  5  9  2  0  0  0  0
  6  7  1  0  0  0  0
  7  8  2  0  0  0  0
  7 10  1  0  0  0  0
  8  9  1  0  0  0  0
 10 14  1  0  0  0  0
 11 12  1  0  0  0  0
 11 24  1  0  0  0  0
 11 26  1  0  0  0  0
 12 13  2  0  0  0  0
 14 15  2  0  0  0  0
 14 19  1  0  0  0  0
 15 16  1  0  0  0  0
 16 17  2  0  0  0  0
 16 20  1  0  0  0  0
 17 18  1  0  0  0  0
 17 22  1  0  0  0  0
 18 19  2  0  0  0  0
 20 21  2  0  0  0  0
 21 22  1  0  0  0  0
 22 23  1  0  0  0  0
 24 25  1  0  0  0  0
 25 26  1  0  0  0  0
 25 27  1  0  0  0  0
 27 28  1  0  0  0  0
  2 29  1  0  0  0  0
  3 30  1  0  0  0  0
  4 31  1  0  0  0  0
  6 32  1  0  0  0  0
 10 33  1  0  0  0  0
 10 34  1  0  0  0  0
 15 35  1  0  0  0  0
 18 36  1  0  0  0  0
 19 37  1  0  0  0  0
 20 38  1  0  0  0  0
 23 39  1  0  0  0  0
 23 40  1  0  0  0  0
 23 41  1  0  0  0  0
 24 42  1  0  0  0  0
 24 43  1  0  0  0  0
 25 44  1  0  0  0  0
 26 45  1  0  0  0  0
 26 46  1  0  0  0  0
 28 47  1  0  0  0  0
 28 48  1  0  0  0  0
 28 49  1  0  0  0  0
M  END
> <Name>
45

> <IC50[uM]>
0.007

$$$$
45
  -OEChem-05192314333D
 Structure written by MMmdl.
 49 53  0     0  0  0  0  0  0999 V2000
   -6.4275   12.3453  -12.0176 C   0  0  0  0  0  0  0  0  0  0  0  0
   -6.6105   11.7832  -10.7429 C   0  0  0  0  0  0  0  0  0  0  0  0
   -7.7405   10.5587  -13.0479 C   0  0  0  0  0  0  0  0  0  0  0  0
   -7.0073   11.7527  -13.1387 C   0  0  0  0  0  0  0  0  0  0  0  0
   -7.8357    9.9872  -11.7695 C   0  0  0  0  0  0  0  0  0  0  0  0
   -7.2848   10.5993  -10.6252 C   0  0  0  0  0  0  0  0  0  0  0  0
   -7.6281    9.7307   -9.5318 C   0  0  0  0  0  0  0  0  0  0  0  0
   -8.2830    8.7083   -9.9969 N   0  0  0  0  0  0  0  0  0  0  0  0
   -8.4214    8.8369  -11.3125 N   0  0  0  0  0  0  0  0  0  0  0  0
   -7.3299    9.8861   -8.0415 C   0  0  0  0  0  0  0  0  0  0  0  0
   -4.6020   13.8371  -11.3112 N   0  0  0  0  0  0  0  0  0  0  0  0
   -5.6232   13.6419  -12.1798 C   0  0  0  0  0  0  0  0  0  0  0  0
   -5.9069   14.4516  -13.0592 O   0  0  0  0  0  0  0  0  0  0  0  0
   -5.9473   10.4903   -7.7303 C   0  0  0  0  0  0  0  0  0  0  0  0
   -5.8632   11.7421   -7.1195 C   0  0  0  0  0  0  0  0  0  0  0  0
   -4.5901   12.2560   -6.8332 C   0  0  0  0  0  0  0  0  0  0  0  0
   -3.4296   11.5300   -7.2115 C   0  0  0  0  0  0  0  0  0  0  0  0
   -3.5045   10.2730   -7.8164 C   0  0  0  0  0  0  0  0  0  0  0  0
   -4.7945    9.7703   -8.0537 C   0  0  0  0  0  0  0  0  0  0  0  0
   -4.0643   13.4351   -6.1976 C   0  0  0  0  0  0  0  0  0  0  0  0
   -2.7662   13.4536   -6.2615 N   0  0  0  0  0  0  0  0  0  0  0  0
   -2.3669   12.3336   -6.8391 N   0  0  0  0  0  0  0  0  0  0  0  0
   -0.9435   12.0941   -6.9881 C   0  0  0  0  0  0  0  0  0  0  0  0
   -4.0340   12.9997  -10.2404 C   0  0  0  0  0  0  0  0  0  0  0  0
   -3.1550   14.1929   -9.9451 C   0  0  0  0  0  0  0  0  0  0  0  0
   -3.8070   15.0441  -11.0419 C   0  0  0  0  0  0  0  0  0  0  0  0
   -3.4251   14.7437   -8.6708 O   0  0  0  0  0  0  0  0  0  0  0  0
   -4.8009   14.9943   -8.3397 C   0  0  0  0  0  0  0  0  0  0  0  0
   -6.2230   12.2805   -9.8660 H   0  0  0  0  0  0  0  0  0  0  0  0
   -8.7619   10.7641  -13.4009 H   0  0  0  0  0  0  0  0  0  0  0  0
   -7.2647    9.8211  -13.7110 H   0  0  0  0  0  0  0  0  0  0  0  0
   -6.8892   12.2248  -14.1028 H   0  0  0  0  0  0  0  0  0  0  0  0
   -8.0981   10.5401   -7.6030 H   0  0  0  0  0  0  0  0  0  0  0  0
   -7.3843    8.8919   -7.5740 H   0  0  0  0  0  0  0  0  0  0  0  0
   -6.7546   12.3002   -6.8738 H   0  0  0  0  0  0  0  0  0  0  0  0
   -2.6185    9.7178   -8.0869 H   0  0  0  0  0  0  0  0  0  0  0  0
   -4.8988    8.7932   -8.5018 H   0  0  0  0  0  0  0  0  0  0  0  0
   -4.6664   14.2006   -5.7309 H   0  0  0  0  0  0  0  0  0  0  0  0
   -0.3825   12.9417   -6.5674 H   0  0  0  0  0  0  0  0  0  0  0  0
   -0.6691   11.1721   -6.4547 H   0  0  0  0  0  0  0  0  0  0  0  0
   -0.6996   11.9867   -8.0553 H   0  0  0  0  0  0  0  0  0  0  0  0
   -4.7360   12.7267   -9.4387 H   0  0  0  0  0  0  0  0  0  0  0  0
   -3.5013   12.1004  -10.5834 H   0  0  0  0  0  0  0  0  0  0  0  0
   -2.0904   13.9978  -10.1413 H   0  0  0  0  0  0  0  0  0  0  0  0
   -3.1360   15.3560  -11.8558 H   0  0  0  0  0  0  0  0  0  0  0  0
   -4.3787   15.9133  -10.6846 H   0  0  0  0  0  0  0  0  0  0  0  0
   -4.8633   15.4195   -7.3271 H   0  0  0  0  0  0  0  0  0  0  0  0
   -5.2283   15.7048   -9.0625 H   0  0  0  0  0  0  0  0  0  0  0  0
   -5.3645   14.0504   -8.3763 H   0  0  0  0  0  0  0  0  0  0  0  0
  1  2  1  0  0  0  0
  1  4  2  0  0  0  0
  1 12  1  0  0  0  0
  2  6  2  0  0  0  0
  3  4  1  0  0  0  0
  3  5  1  0  0  0  0
  5  6  1  0  0  0  0
  5  9  2  0  0  0  0
  6  7  1  0  0  0  0
  7  8  2  0  0  0  0
  7 10  1  0  0  0  0
  8  9  1  0  0  0  0
 10 14  1  0  0  0  0
 11 12  1  0  0  0  0
 11 24  1  0  0  0  0
 11 26  1  0  0  0  0
 12 13  2  0  0  0  0
 14 15  2  0  0  0  0
 14 19  1  0  0  0  0
 15 16  1  0  0  0  0
 16 17  2  0  0  0  0
 16 20  1  0  0  0  0
 17 18  1  0  0  0  0
 17 22  1  0  0  0  0
 18 19  2  0  0  0  0
 20 21  2  0  0  0  0
 21 22  1  0  0  0  0
 22 23  1  0  0  0  0
 24 25  1  0  0  0  0
 25 26  1  0  0  0  0
 25 27  1  0  0  0  0
 27 28  1  0  0  0  0
  2 29  1  0  0  0  0
  3 30  1  0  0  0  0
  3 31  1  0  0  0  0
  4 32  1  0  0  0  0
 10 33  1  0  0  0  0
 10 34  1  0  0  0  0
 15 35  1  0  0  0  0
 18 36  1  0  0  0  0
 19 37  1  0  0  0  0
 20 38  1  0  0  0  0
 23 39  1  0  0  0  0
 23 40  1  0  0  0  0
 23 41  1  0  0  0  0
 24 42  1  0  0  0  0
 24 43  1  0  0  0  0
 25 44  1  0  0  0  0
 26 45  1  0  0  0  0
 26 46  1  0  0  0  0
 28 47  1  0  0  0  0
 28 48  1  0  0  0  0
 28 49  1  0  0  0  0
M  END
> <Name>
45

> <IC50[uM]>
0.007

$$$$
45
  -OEChem-05192314333D
 Structure written by MMmdl.
 49 53  0     1  0  0  0  0  0999 V2000
   -6.4275   12.3453  -12.0176 C   0  0  3  0  0  0  0  0  0  0  0  0
   -6.6105   11.7832  -10.7429 C   0  0  0  0  0  0  0  0  0  0  0  0
   -7.7405   10.5587  -13.0479 C   0  0  0  0  0  0  0  0  0  0  0  0
   -7.0073   11.7527  -13.1387 C   0  0  0  0  0  0  0  0  0  0  0  0
   -7.8357    9.9872  -11.7695 C   0  0  3  0  0  0  0  0  0  0  0  0
   -7.2848   10.5993  -10.6252 C   0  0  0  0  0  0  0  0  0  0  0  0
   -7.6281    9.7307   -9.5318 C   0  0  0  0  0  0  0  0  0  0  0  0
   -8.2830    8.7083   -9.9969 N   0  0  0  0  0  0  0  0  0  0  0  0
   -8.4214    8.8369  -11.3125 N   0  0  0  0  0  0  0  0  0  0  0  0
   -7.3299    9.8861   -8.0415 C   0  0  0  0  0  0  0  0  0  0  0  0
   -4.6020   13.8371  -11.3112 N   0  0  0  0  0  0  0  0  0  0  0  0
   -5.6232   13.6419  -12.1798 C   0  0  0  0  0  0  0  0  0  0  0  0
   -5.9069   14.4516  -13.0592 O   0  0  0  0  0  0  0  0  0  0  0  0
   -5.9473   10.4903   -7.7303 C   0  0  0  0  0  0  0  0  0  0  0  0
   -5.8632   11.7421   -7.1195 C   0  0  0  0  0  0  0  0  0  0  0  0
   -4.5901   12.2560   -6.8332 C   0  0  0  0  0  0  0  0  0  0  0  0
   -3.4296   11.5300   -7.2115 C   0  0  0  0  0  0  0  0  0  0  0  0
   -3.5045   10.2730   -7.8164 C   0  0  0  0  0  0  0  0  0  0  0  0
   -4.7945    9.7703   -8.0537 C   0  0  0  0  0  0  0  0  0  0  0  0
   -4.0643   13.4351   -6.1976 C   0  0  0  0  0  0  0  0  0  0  0  0
   -2.7662   13.4536   -6.2615 N   0  0  0  0  0  0  0  0  0  0  0  0
   -2.3669   12.3336   -6.8391 N   0  0  0  0  0  0  0  0  0  0  0  0
   -0.9435   12.0941   -6.9881 C   0  0  0  0  0  0  0  0  0  0  0  0
   -4.0340   12.9997  -10.2404 C   0  0  0  0  0  0  0  0  0  0  0  0
   -3.1550   14.1929   -9.9451 C   0  0  0  0  0  0  0  0  0  0  0  0
   -3.8070   15.0441  -11.0419 C   0  0  0  0  0  0  0  0  0  0  0  0
   -3.4251   14.7437   -8.6708 O   0  0  0  0  0  0  0  0  0  0  0  0
   -4.8009   14.9943   -8.3397 C   0  0  0  0  0  0  0  0  0  0  0  0
   -5.5143   11.7492  -12.1613 H   0  0  0  0  0  0  0  0  0  0  0  0
   -6.2230   12.2805   -9.8660 H   0  0  0  0  0  0  0  0  0  0  0  0
   -8.2044   10.1062  -13.9119 H   0  0  0  0  0  0  0  0  0  0  0  0
   -6.8892   12.2248  -14.1028 H   0  0  0  0  0  0  0  0  0  0  0  0
   -6.8934    9.4451  -11.9376 H   0  0  0  0  0  0  0  0  0  0  0  0
   -8.0293    9.5968   -7.2711 H   0  0  0  0  0  0  0  0  0  0  0  0
   -6.7546   12.3002   -6.8738 H   0  0  0  0  0  0  0  0  0  0  0  0
   -2.6185    9.7178   -8.0869 H   0  0  0  0  0  0  0  0  0  0  0  0
   -4.8988    8.7932   -8.5018 H   0  0  0  0  0  0  0  0  0  0  0  0
   -4.6664   14.2006   -5.7309 H   0  0  0  0  0  0  0  0  0  0  0  0
   -0.3825   12.9417   -6.5674 H   0  0  0  0  0  0  0  0  0  0  0  0
   -0.6691   11.1721   -6.4547 H   0  0  0  0  0  0  0  0  0  0  0  0
   -0.6996   11.9867   -8.0553 H   0  0  0  0  0  0  0  0  0  0  0  0
   -4.7360   12.7267   -9.4387 H   0  0  0  0  0  0  0  0  0  0  0  0
   -3.5013   12.1004  -10.5834 H   0  0  0  0  0  0  0  0  0  0  0  0
   -2.0904   13.9978  -10.1413 H   0  0  0  0  0  0  0  0  0  0  0  0
   -3.1360   15.3560  -11.8558 H   0  0  0  0  0  0  0  0  0  0  0  0
   -4.3787   15.9133  -10.6846 H   0  0  0  0  0  0  0  0  0  0  0  0
   -4.8633   15.4195   -7.3271 H   0  0  0  0  0  0  0  0  0  0  0  0
   -5.2283   15.7048   -9.0625 H   0  0  0  0  0  0  0  0  0  0  0  0
   -5.3645   14.0504   -8.3763 H   0  0  0  0  0  0  0  0  0  0  0  0
  1  2  1  0  0  0  0
  1  4  1  0  0  0  0
  1 12  1  0  0  0  0
  2  6  2  0  0  0  0
  3  4  2  0  0  0  0
  3  5  1  0  0  0  0
  5  6  1  0  0  0  0
  5  9  1  0  0  0  0
  6  7  1  0  0  0  0
  7  8  1  0  0  0  0
  7 10  2  3  0  0  0
  8  9  2  0  0  0  0
 10 14  1  0  0  0  0
 11 12  1  0  0  0  0
 11 24  1  0  0  0  0
 11 26  1  0  0  0  0
 12 13  2  0  0  0  0
 14 15  2  0  0  0  0
 14 19  1  0  0  0  0
 15 16  1  0  0  0  0
 16 17  2  0  0  0  0
 16 20  1  0  0  0  0
 17 18  1  0  0  0  0
 17 22  1  0  0  0  0
 18 19  2  0  0  0  0
 20 21  2  0  0  0  0
 21 22  1  0  0  0  0
 22 23  1  0  0  0  0
 24 25  1  0  0  0  0
 25 26  1  0  0  0  0
 25 27  1  0  0  0  0
 27 28  1  0  0  0  0
  1 29  1  0  0  0  0
  2 30  1  0  0  0  0
  3 31  1  0  0  0  0
  4 32  1  0  0  0  0
  5 33  1  0  0  0  0
 10 34  1  0  0  0  0
 15 35  1  0  0  0  0
 18 36  1  0  0  0  0
 19 37  1  0  0  0  0
 20 38  1  0  0  0  0
 23 39  1  0  0  0  0
 23 40  1  0  0  0  0
 23 41  1  0  0  0  0
 24 42  1  0  0  0  0
 24 43  1  0  0  0  0
 25 44  1  0  0  0  0
 26 45  1  0  0  0  0
 26 46  1  0  0  0  0
 28 47  1  0  0  0  0
 28 48  1  0  0  0  0
 28 49  1  0  0  0  0
M  END
> <Name>
45

> <IC50[uM]>
0.007

$$$$
45
  -OEChem-05192314333D
 Structure written by MMmdl.
 49 53  0     1  0  0  0  0  0999 V2000
   -6.4275   12.3453  -12.0176 C   0  0  0  0  0  0  0  0  0  0  0  0
   -6.6105   11.7832  -10.7429 C   0  0  0  0  0  0  0  0  0  0  0  0
   -7.7405   10.5587  -13.0479 C   0  0  0  0  0  0  0  0  0  0  0  0
   -7.0073   11.7527  -13.1387 C   0  0  0  0  0  0  0  0  0  0  0  0
   -7.8357    9.9872  -11.7695 C   0  0  3  0  0  0  0  0  0  0  0  0
   -7.2848   10.5993  -10.6252 C   0  0  3  0  0  0  0  0  0  0  0  0
   -7.6281    9.7307   -9.5318 C   0  0  0  0  0  0  0  0  0  0  0  0
   -8.2830    8.7083   -9.9969 N   0  0  0  0  0  0  0  0  0  0  0  0
   -8.4214    8.8369  -11.3125 N   0  0  0  0  0  0  0  0  0  0  0  0
   -7.3299    9.8861   -8.0415 C   0  0  0  0  0  0  0  0  0  0  0  0
   -4.6020   13.8371  -11.3112 N   0  0  0  0  0  0  0  0  0  0  0  0
   -5.6232   13.6419  -12.1798 C   0  0  0  0  0  0  0  0  0  0  0  0
   -5.9069   14.4516  -13.0592 O   0  0  0  0  0  0  0  0  0  0  0  0
   -5.9473   10.4903   -7.7303 C   0  0  0  0  0  0  0  0  0  0  0  0
   -5.8632   11.7421   -7.1195 C   0  0  0  0  0  0  0  0  0  0  0  0
   -4.5901   12.2560   -6.8332 C   0  0  0  0  0  0  0  0  0  0  0  0
   -3.4296   11.5300   -7.2115 C   0  0  0  0  0  0  0  0  0  0  0  0
   -3.5045   10.2730   -7.8164 C   0  0  0  0  0  0  0  0  0  0  0  0
   -4.7945    9.7703   -8.0537 C   0  0  0  0  0  0  0  0  0  0  0  0
   -4.0643   13.4351   -6.1976 C   0  0  0  0  0  0  0  0  0  0  0  0
   -2.7662   13.4536   -6.2615 N   0  0  0  0  0  0  0  0  0  0  0  0
   -2.3669   12.3336   -6.8391 N   0  0  0  0  0  0  0  0  0  0  0  0
   -0.9435   12.0941   -6.9881 C   0  0  0  0  0  0  0  0  0  0  0  0
   -4.0340   12.9997  -10.2404 C   0  0  0  0  0  0  0  0  0  0  0  0
   -3.1550   14.1929   -9.9451 C   0  0  0  0  0  0  0  0  0  0  0  0
   -3.8070   15.0441  -11.0419 C   0  0  0  0  0  0  0  0  0  0  0  0
   -3.4251   14.7437   -8.6708 O   0  0  0  0  0  0  0  0  0  0  0  0
   -4.8009   14.9943   -8.3397 C   0  0  0  0  0  0  0  0  0  0  0  0
   -6.2230   12.2805   -9.8660 H   0  0  0  0  0  0  0  0  0  0  0  0
   -8.2044   10.1062  -13.9119 H   0  0  0  0  0  0  0  0  0  0  0  0
   -6.8892   12.2248  -14.1028 H   0  0  0  0  0  0  0  0  0  0  0  0
   -6.8934    9.4451  -11.9376 H   0  0  0  0  0  0  0  0  0  0  0  0
   -6.3465   10.0453  -10.7758 H   0  0  0  0  0  0  0  0  0  0  0  0
   -8.0293    9.5968   -7.2711 H   0  0  0  0  0  0  0  0  0  0  0  0
   -6.7546   12.3002   -6.8738 H   0  0  0  0  0  0  0  0  0  0  0  0
   -2.6185    9.7178   -8.0869 H   0  0  0  0  0  0  0  0  0  0  0  0
   -4.8988    8.7932   -8.5018 H   0  0  0  0  0  0  0  0  0  0  0  0
   -4.6664   14.2006   -5.7309 H   0  0  0  0  0  0  0  0  0  0  0  0
   -0.3825   12.9417   -6.5674 H   0  0  0  0  0  0  0  0  0  0  0  0
   -0.6691   11.1721   -6.4547 H   0  0  0  0  0  0  0  0  0  0  0  0
   -0.6996   11.9867   -8.0553 H   0  0  0  0  0  0  0  0  0  0  0  0
   -4.7360   12.7267   -9.4387 H   0  0  0  0  0  0  0  0  0  0  0  0
   -3.5013   12.1004  -10.5834 H   0  0  0  0  0  0  0  0  0  0  0  0
   -2.0904   13.9978  -10.1413 H   0  0  0  0  0  0  0  0  0  0  0  0
   -3.1360   15.3560  -11.8558 H   0  0  0  0  0  0  0  0  0  0  0  0
   -4.3787   15.9133  -10.6846 H   0  0  0  0  0  0  0  0  0  0  0  0
   -4.8633   15.4195   -7.3271 H   0  0  0  0  0  0  0  0  0  0  0  0
   -5.2283   15.7048   -9.0625 H   0  0  0  0  0  0  0  0  0  0  0  0
   -5.3645   14.0504   -8.3763 H   0  0  0  0  0  0  0  0  0  0  0  0
  1  2  2  0  0  0  0
  1  4  1  0  0  0  0
  1 12  1  0  0  0  0
  2  6  1  0  0  0  0
  3  4  2  0  0  0  0
  3  5  1  0  0  0  0
  5  6  1  0  0  0  0
  5  9  1  0  0  0  0
  6  7  1  0  0  0  0
  7  8  1  0  0  0  0
  7 10  2  3  0  0  0
  8  9  2  0  0  0  0
 10 14  1  0  0  0  0
 11 12  1  0  0  0  0
 11 24  1  0  0  0  0
 11 26  1  0  0  0  0
 12 13  2  0  0  0  0
 14 15  2  0  0  0  0
 14 19  1  0  0  0  0
 15 16  1  0  0  0  0
 16 17  2  0  0  0  0
 16 20  1  0  0  0  0
 17 18  1  0  0  0  0
 17 22  1  0  0  0  0
 18 19  2  0  0  0  0
 20 21  2  0  0  0  0
 21 22  1  0  0  0  0
 22 23  1  0  0  0  0
 24 25  1  0  0  0  0
 25 26  1  0  0  0  0
 25 27  1  0  0  0  0
 27 28  1  0  0  0  0
  2 29  1  0  0  0  0
  3 30  1  0  0  0  0
  4 31  1  0  0  0  0
  5 32  1  0  0  0  0
  6 33  1  0  0  0  0
 10 34  1  0  0  0  0
 15 35  1  0  0  0  0
 18 36  1  0  0  0  0
 19 37  1  0  0  0  0
 20 38  1  0  0  0  0
 23 39  1  0  0  0  0
 23 40  1  0  0  0  0
 23 41  1  0  0  0  0
 24 42  1  0  0  0  0
 24 43  1  0  0  0  0
 25 44  1  0  0  0  0
 26 45  1  0  0  0  0
 26 46  1  0  0  0  0
 28 47  1  0  0  0  0
 28 48  1  0  0  0  0
 28 49  1  0  0  0  0
M  END
> <Name>
45

> <IC50[uM]>
0.007

$$$$
45
  -OEChem-05192314333D
 Structure written by MMmdl.
 49 53  0     1  0  0  0  0  0999 V2000
   -6.4275   12.3453  -12.0176 C   0  0  0  0  0  0  0  0  0  0  0  0
   -6.6105   11.7832  -10.7429 C   0  0  0  0  0  0  0  0  0  0  0  0
   -7.7405   10.5587  -13.0479 C   0  0  0  0  0  0  0  0  0  0  0  0
   -7.0073   11.7527  -13.1387 C   0  0  0  0  0  0  0  0  0  0  0  0
   -7.8357    9.9872  -11.7695 C   0  0  3  0  0  0  0  0  0  0  0  0
   -7.2848   10.5993  -10.6252 C   0  0  0  0  0  0  0  0  0  0  0  0
   -7.6281    9.7307   -9.5318 C   0  0  0  0  0  0  0  0  0  0  0  0
   -8.2830    8.7083   -9.9969 N   0  0  0  0  0  0  0  0  0  0  0  0
   -8.4214    8.8369  -11.3125 N   0  0  0  0  0  0  0  0  0  0  0  0
   -7.3299    9.8861   -8.0415 C   0  0  0  0  0  0  0  0  0  0  0  0
   -4.6020   13.8371  -11.3112 N   0  0  0  0  0  0  0  0  0  0  0  0
   -5.6232   13.6419  -12.1798 C   0  0  0  0  0  0  0  0  0  0  0  0
   -5.9069   14.4516  -13.0592 O   0  0  0  0  0  0  0  0  0  0  0  0
   -5.9473   10.4903   -7.7303 C   0  0  0  0  0  0  0  0  0  0  0  0
   -5.8632   11.7421   -7.1195 C   0  0  0  0  0  0  0  0  0  0  0  0
   -4.5901   12.2560   -6.8332 C   0  0  0  0  0  0  0  0  0  0  0  0
   -3.4296   11.5300   -7.2115 C   0  0  0  0  0  0  0  0  0  0  0  0
   -3.5045   10.2730   -7.8164 C   0  0  0  0  0  0  0  0  0  0  0  0
   -4.7945    9.7703   -8.0537 C   0  0  0  0  0  0  0  0  0  0  0  0
   -4.0643   13.4351   -6.1976 C   0  0  0  0  0  0  0  0  0  0  0  0
   -2.7662   13.4536   -6.2615 N   0  0  0  0  0  0  0  0  0  0  0  0
   -2.3669   12.3336   -6.8391 N   0  0  0  0  0  0  0  0  0  0  0  0
   -0.9435   12.0941   -6.9881 C   0  0  0  0  0  0  0  0  0  0  0  0
   -4.0340   12.9997  -10.2404 C   0  0  0  0  0  0  0  0  0  0  0  0
   -3.1550   14.1929   -9.9451 C   0  0  0  0  0  0  0  0  0  0  0  0
   -3.8070   15.0441  -11.0419 C   0  0  0  0  0  0  0  0  0  0  0  0
   -3.4251   14.7437   -8.6708 O   0  0  0  0  0  0  0  0  0  0  0  0
   -4.8009   14.9943   -8.3397 C   0  0  0  0  0  0  0  0  0  0  0  0
   -6.2230   12.2805   -9.8660 H   0  0  0  0  0  0  0  0  0  0  0  0
   -8.7619   10.7641  -13.4009 H   0  0  0  0  0  0  0  0  0  0  0  0
   -7.2647    9.8211  -13.7110 H   0  0  0  0  0  0  0  0  0  0  0  0
   -6.8892   12.2248  -14.1028 H   0  0  0  0  0  0  0  0  0  0  0  0
   -6.8934    9.4451  -11.9376 H   0  0  0  0  0  0  0  0  0  0  0  0
   -8.0293    9.5968   -7.2711 H   0  0  0  0  0  0  0  0  0  0  0  0
   -6.7546   12.3002   -6.8738 H   0  0  0  0  0  0  0  0  0  0  0  0
   -2.6185    9.7178   -8.0869 H   0  0  0  0  0  0  0  0  0  0  0  0
   -4.8988    8.7932   -8.5018 H   0  0  0  0  0  0  0  0  0  0  0  0
   -4.6664   14.2006   -5.7309 H   0  0  0  0  0  0  0  0  0  0  0  0
   -0.3825   12.9417   -6.5674 H   0  0  0  0  0  0  0  0  0  0  0  0
   -0.6691   11.1721   -6.4547 H   0  0  0  0  0  0  0  0  0  0  0  0
   -0.6996   11.9867   -8.0553 H   0  0  0  0  0  0  0  0  0  0  0  0
   -4.7360   12.7267   -9.4387 H   0  0  0  0  0  0  0  0  0  0  0  0
   -3.5013   12.1004  -10.5834 H   0  0  0  0  0  0  0  0  0  0  0  0
   -2.0904   13.9978  -10.1413 H   0  0  0  0  0  0  0  0  0  0  0  0
   -3.1360   15.3560  -11.8558 H   0  0  0  0  0  0  0  0  0  0  0  0
   -4.3787   15.9133  -10.6846 H   0  0  0  0  0  0  0  0  0  0  0  0
   -4.8633   15.4195   -7.3271 H   0  0  0  0  0  0  0  0  0  0  0  0
   -5.2283   15.7048   -9.0625 H   0  0  0  0  0  0  0  0  0  0  0  0
   -5.3645   14.0504   -8.3763 H   0  0  0  0  0  0  0  0  0  0  0  0
  1  2  1  0  0  0  0
  1  4  2  0  0  0  0
  1 12  1  0  0  0  0
  2  6  2  0  0  0  0
  3  4  1  0  0  0  0
  3  5  1  0  0  0  0
  5  6  1  0  0  0  0
  5  9  1  0  0  0  0
  6  7  1  0  0  0  0
  7  8  1  0  0  0  0
  7 10  2  3  0  0  0
  8  9  2  0  0  0  0
 10 14  1  0  0  0  0
 11 12  1  0  0  0  0
 11 24  1  0  0  0  0
 11 26  1  0  0  0  0
 12 13  2  0  0  0  0
 14 15  2  0  0  0  0
 14 19  1  0  0  0  0
 15 16  1  0  0  0  0
 16 17  2  0  0  0  0
 16 20  1  0  0  0  0
 17 18  1  0  0  0  0
 17 22  1  0  0  0  0
 18 19  2  0  0  0  0
 20 21  2  0  0  0  0
 21 22  1  0  0  0  0
 22 23  1  0  0  0  0
 24 25  1  0  0  0  0
 25 26  1  0  0  0  0
 25 27  1  0  0  0  0
 27 28  1  0  0  0  0
  2 29  1  0  0  0  0
  3 30  1  0  0  0  0
  3 31  1  0  0  0  0
  4 32  1  0  0  0  0
  5 33  1  0  0  0  0
 10 34  1  0  0  0  0
 15 35  1  0  0  0  0
 18 36  1  0  0  0  0
 19 37  1  0  0  0  0
 20 38  1  0  0  0  0
 23 39  1  0  0  0  0
 23 40  1  0  0  0  0
 23 41  1  0  0  0  0
 24 42  1  0  0  0  0
 24 43  1  0  0  0  0
 25 44  1  0  0  0  0
 26 45  1  0  0  0  0
 26 46  1  0  0  0  0
 28 47  1  0  0  0  0
 28 48  1  0  0  0  0
 28 49  1  0  0  0  0
M  END
> <Name>
45

> <IC50[uM]>
0.007

$$$$
45
  -OEChem-05192314333D
 Structure written by MMmdl.
 49 53  0     1  0  0  0  0  0999 V2000
   -6.4275   12.3453  -12.0176 C   0  0  3  0  0  0  0  0  0  0  0  0
   -6.6105   11.7832  -10.7429 C   0  0  0  0  0  0  0  0  0  0  0  0
   -7.7405   10.5587  -13.0479 C   0  0  0  0  0  0  0  0  0  0  0  0
   -7.0073   11.7527  -13.1387 C   0  0  0  0  0  0  0  0  0  0  0  0
   -7.8357    9.9872  -11.7695 C   0  0  0  0  0  0  0  0  0  0  0  0
   -7.2848   10.5993  -10.6252 C   0  0  0  0  0  0  0  0  0  0  0  0
   -7.6281    9.7307   -9.5318 C   0  0  0  0  0  0  0  0  0  0  0  0
   -8.2830    8.7083   -9.9969 N   0  0  0  0  0  0  0  0  0  0  0  0
   -8.4214    8.8369  -11.3125 N   0  0  0  0  0  0  0  0  0  0  0  0
   -7.3299    9.8861   -8.0415 C   0  0  0  0  0  0  0  0  0  0  0  0
   -4.6020   13.8371  -11.3112 N   0  0  0  0  0  0  0  0  0  0  0  0
   -5.6232   13.6419  -12.1798 C   0  0  0  0  0  0  0  0  0  0  0  0
   -5.9069   14.4516  -13.0592 O   0  0  0  0  0  0  0  0  0  0  0  0
   -5.9473   10.4903   -7.7303 C   0  0  0  0  0  0  0  0  0  0  0  0
   -5.8632   11.7421   -7.1195 C   0  0  0  0  0  0  0  0  0  0  0  0
   -4.5901   12.2560   -6.8332 C   0  0  0  0  0  0  0  0  0  0  0  0
   -3.4296   11.5300   -7.2115 C   0  0  0  0  0  0  0  0  0  0  0  0
   -3.5045   10.2730   -7.8164 C   0  0  0  0  0  0  0  0  0  0  0  0
   -4.7945    9.7703   -8.0537 C   0  0  0  0  0  0  0  0  0  0  0  0
   -4.0643   13.4351   -6.1976 C   0  0  0  0  0  0  0  0  0  0  0  0
   -2.7662   13.4536   -6.2615 N   0  0  0  0  0  0  0  0  0  0  0  0
   -2.3669   12.3336   -6.8391 N   0  0  0  0  0  0  0  0  0  0  0  0
   -0.9435   12.0941   -6.9881 C   0  0  0  0  0  0  0  0  0  0  0  0
   -4.0340   12.9997  -10.2404 C   0  0  0  0  0  0  0  0  0  0  0  0
   -3.1550   14.1929   -9.9451 C   0  0  0  0  0  0  0  0  0  0  0  0
   -3.8070   15.0441  -11.0419 C   0  0  0  0  0  0  0  0  0  0  0  0
   -3.4251   14.7437   -8.6708 O   0  0  0  0  0  0  0  0  0  0  0  0
   -4.8009   14.9943   -8.3397 C   0  0  0  0  0  0  0  0  0  0  0  0
   -5.5143   11.7492  -12.1613 H   0  0  0  0  0  0  0  0  0  0  0  0
   -6.2230   12.2805   -9.8660 H   0  0  0  0  0  0  0  0  0  0  0  0
   -8.2044   10.1062  -13.9119 H   0  0  0  0  0  0  0  0  0  0  0  0
   -7.6892   12.5023  -13.5665 H   0  0  0  0  0  0  0  0  0  0  0  0
   -6.1865   11.5583  -13.8448 H   0  0  0  0  0  0  0  0  0  0  0  0
   -8.0293    9.5968   -7.2711 H   0  0  0  0  0  0  0  0  0  0  0  0
   -6.7546   12.3002   -6.8738 H   0  0  0  0  0  0  0  0  0  0  0  0
   -2.6185    9.7178   -8.0869 H   0  0  0  0  0  0  0  0  0  0  0  0
   -4.8988    8.7932   -8.5018 H   0  0  0  0  0  0  0  0  0  0  0  0
   -4.6664   14.2006   -5.7309 H   0  0  0  0  0  0  0  0  0  0  0  0
   -0.3825   12.9417   -6.5674 H   0  0  0  0  0  0  0  0  0  0  0  0
   -0.6691   11.1721   -6.4547 H   0  0  0  0  0  0  0  0  0  0  0  0
   -0.6996   11.9867   -8.0553 H   0  0  0  0  0  0  0  0  0  0  0  0
   -4.7360   12.7267   -9.4387 H   0  0  0  0  0  0  0  0  0  0  0  0
   -3.5013   12.1004  -10.5834 H   0  0  0  0  0  0  0  0  0  0  0  0
   -2.0904   13.9978  -10.1413 H   0  0  0  0  0  0  0  0  0  0  0  0
   -3.1360   15.3560  -11.8558 H   0  0  0  0  0  0  0  0  0  0  0  0
   -4.3787   15.9133  -10.6846 H   0  0  0  0  0  0  0  0  0  0  0  0
   -4.8633   15.4195   -7.3271 H   0  0  0  0  0  0  0  0  0  0  0  0
   -5.2283   15.7048   -9.0625 H   0  0  0  0  0  0  0  0  0  0  0  0
   -5.3645   14.0504   -8.3763 H   0  0  0  0  0  0  0  0  0  0  0  0
  1  2  1  0  0  0  0
  1  4  1  0  0  0  0
  1 12  1  0  0  0  0
  2  6  2  0  0  0  0
  3  4  1  0  0  0  0
  3  5  2  0  0  0  0
  5  6  1  0  0  0  0
  5  9  1  0  0  0  0
  6  7  1  0  0  0  0
  7  8  1  0  0  0  0
  7 10  2  3  0  0  0
  8  9  2  0  0  0  0
 10 14  1  0  0  0  0
 11 12  1  0  0  0  0
 11 24  1  0  0  0  0
 11 26  1  0  0  0  0
 12 13  2  0  0  0  0
 14 15  2  0  0  0  0
 14 19  1  0  0  0  0
 15 16  1  0  0  0  0
 16 17  2  0  0  0  0
 16 20  1  0  0  0  0
 17 18  1  0  0  0  0
 17 22  1  0  0  0  0
 18 19  2  0  0  0  0
 20 21  2  0  0  0  0
 21 22  1  0  0  0  0
 22 23  1  0  0  0  0
 24 25  1  0  0  0  0
 25 26  1  0  0  0  0
 25 27  1  0  0  0  0
 27 28  1  0  0  0  0
  1 29  1  0  0  0  0
  2 30  1  0  0  0  0
  3 31  1  0  0  0  0
  4 32  1  0  0  0  0
  4 33  1  0  0  0  0
 10 34  1  0  0  0  0
 15 35  1  0  0  0  0
 18 36  1  0  0  0  0
 19 37  1  0  0  0  0
 20 38  1  0  0  0  0
 23 39  1  0  0  0  0
 23 40  1  0  0  0  0
 23 41  1  0  0  0  0
 24 42  1  0  0  0  0
 24 43  1  0  0  0  0
 25 44  1  0  0  0  0
 26 45  1  0  0  0  0
 26 46  1  0  0  0  0
 28 47  1  0  0  0  0
 28 48  1  0  0  0  0
 28 49  1  0  0  0  0
M  END
> <Name>
45

> <IC50[uM]>
0.007

$$$$
45
  -OEChem-05192314333D
 Structure written by MMmdl.
 49 53  0     1  0  0  0  0  0999 V2000
   -6.4275   12.3453  -12.0176 C   0  0  0  0  0  0  0  0  0  0  0  0
   -6.6105   11.7832  -10.7429 C   0  0  0  0  0  0  0  0  0  0  0  0
   -7.7405   10.5587  -13.0479 C   0  0  0  0  0  0  0  0  0  0  0  0
   -7.0073   11.7527  -13.1387 C   0  0  0  0  0  0  0  0  0  0  0  0
   -7.8357    9.9872  -11.7695 C   0  0  0  0  0  0  0  0  0  0  0  0
   -7.2848   10.5993  -10.6252 C   0  0  3  0  0  0  0  0  0  0  0  0
   -7.6281    9.7307   -9.5318 C   0  0  0  0  0  0  0  0  0  0  0  0
   -8.2830    8.7083   -9.9969 N   0  0  0  0  0  0  0  0  0  0  0  0
   -8.4214    8.8369  -11.3125 N   0  0  0  0  0  0  0  0  0  0  0  0
   -7.3299    9.8861   -8.0415 C   0  0  0  0  0  0  0  0  0  0  0  0
   -4.6020   13.8371  -11.3112 N   0  0  0  0  0  0  0  0  0  0  0  0
   -5.6232   13.6419  -12.1798 C   0  0  0  0  0  0  0  0  0  0  0  0
   -5.9069   14.4516  -13.0592 O   0  0  0  0  0  0  0  0  0  0  0  0
   -5.9473   10.4903   -7.7303 C   0  0  0  0  0  0  0  0  0  0  0  0
   -5.8632   11.7421   -7.1195 C   0  0  0  0  0  0  0  0  0  0  0  0
   -4.5901   12.2560   -6.8332 C   0  0  0  0  0  0  0  0  0  0  0  0
   -3.4296   11.5300   -7.2115 C   0  0  0  0  0  0  0  0  0  0  0  0
   -3.5045   10.2730   -7.8164 C   0  0  0  0  0  0  0  0  0  0  0  0
   -4.7945    9.7703   -8.0537 C   0  0  0  0  0  0  0  0  0  0  0  0
   -4.0643   13.4351   -6.1976 C   0  0  0  0  0  0  0  0  0  0  0  0
   -2.7662   13.4536   -6.2615 N   0  0  0  0  0  0  0  0  0  0  0  0
   -2.3669   12.3336   -6.8391 N   0  0  0  0  0  0  0  0  0  0  0  0
   -0.9435   12.0941   -6.9881 C   0  0  0  0  0  0  0  0  0  0  0  0
   -4.0340   12.9997  -10.2404 C   0  0  0  0  0  0  0  0  0  0  0  0
   -3.1550   14.1929   -9.9451 C   0  0  0  0  0  0  0  0  0  0  0  0
   -3.8070   15.0441  -11.0419 C   0  0  0  0  0  0  0  0  0  0  0  0
   -3.4251   14.7437   -8.6708 O   0  0  0  0  0  0  0  0  0  0  0  0
   -4.8009   14.9943   -8.3397 C   0  0  0  0  0  0  0  0  0  0  0  0
   -6.2230   12.2805   -9.8660 H   0  0  0  0  0  0  0  0  0  0  0  0
   -8.2044   10.1062  -13.9119 H   0  0  0  0  0  0  0  0  0  0  0  0
   -7.6892   12.5023  -13.5665 H   0  0  0  0  0  0  0  0  0  0  0  0
   -6.1865   11.5583  -13.8448 H   0  0  0  0  0  0  0  0  0  0  0  0
   -6.3465   10.0453  -10.7758 H   0  0  0  0  0  0  0  0  0  0  0  0
   -8.0293    9.5968   -7.2711 H   0  0  0  0  0  0  0  0  0  0  0  0
   -6.7546   12.3002   -6.8738 H   0  0  0  0  0  0  0  0  0  0  0  0
   -2.6185    9.7178   -8.0869 H   0  0  0  0  0  0  0  0  0  0  0  0
   -4.8988    8.7932   -8.5018 H   0  0  0  0  0  0  0  0  0  0  0  0
   -4.6664   14.2006   -5.7309 H   0  0  0  0  0  0  0  0  0  0  0  0
   -0.3825   12.9417   -6.5674 H   0  0  0  0  0  0  0  0  0  0  0  0
   -0.6691   11.1721   -6.4547 H   0  0  0  0  0  0  0  0  0  0  0  0
   -0.6996   11.9867   -8.0553 H   0  0  0  0  0  0  0  0  0  0  0  0
   -4.7360   12.7267   -9.4387 H   0  0  0  0  0  0  0  0  0  0  0  0
   -3.5013   12.1004  -10.5834 H   0  0  0  0  0  0  0  0  0  0  0  0
   -2.0904   13.9978  -10.1413 H   0  0  0  0  0  0  0  0  0  0  0  0
   -3.1360   15.3560  -11.8558 H   0  0  0  0  0  0  0  0  0  0  0  0
   -4.3787   15.9133  -10.6846 H   0  0  0  0  0  0  0  0  0  0  0  0
   -4.8633   15.4195   -7.3271 H   0  0  0  0  0  0  0  0  0  0  0  0
   -5.2283   15.7048   -9.0625 H   0  0  0  0  0  0  0  0  0  0  0  0
   -5.3645   14.0504   -8.3763 H   0  0  0  0  0  0  0  0  0  0  0  0
  1  2  2  0  0  0  0
  1  4  1  0  0  0  0
  1 12  1  0  0  0  0
  2  6  1  0  0  0  0
  3  4  1  0  0  0  0
  3  5  2  0  0  0  0
  5  6  1  0  0  0  0
  5  9  1  0  0  0  0
  6  7  1  0  0  0  0
  7  8  1  0  0  0  0
  7 10  2  3  0  0  0
  8  9  2  0  0  0  0
 10 14  1  0  0  0  0
 11 12  1  0  0  0  0
 11 24  1  0  0  0  0
 11 26  1  0  0  0  0
 12 13  2  0  0  0  0
 14 15  2  0  0  0  0
 14 19  1  0  0  0  0
 15 16  1  0  0  0  0
 16 17  2  0  0  0  0
 16 20  1  0  0  0  0
 17 18  1  0  0  0  0
 17 22  1  0  0  0  0
 18 19  2  0  0  0  0
 20 21  2  0  0  0  0
 21 22  1  0  0  0  0
 22 23  1  0  0  0  0
 24 25  1  0  0  0  0
 25 26  1  0  0  0  0
 25 27  1  0  0  0  0
 27 28  1  0  0  0  0
  2 29  1  0  0  0  0
  3 30  1  0  0  0  0
  4 31  1  0  0  0  0
  4 32  1  0  0  0  0
  6 33  1  0  0  0  0
 10 34  1  0  0  0  0
 15 35  1  0  0  0  0
 18 36  1  0  0  0  0
 19 37  1  0  0  0  0
 20 38  1  0  0  0  0
 23 39  1  0  0  0  0
 23 40  1  0  0  0  0
 23 41  1  0  0  0  0
 24 42  1  0  0  0  0
 24 43  1  0  0  0  0
 25 44  1  0  0  0  0
 26 45  1  0  0  0  0
 26 46  1  0  0  0  0
 28 47  1  0  0  0  0
 28 48  1  0  0  0  0
 28 49  1  0  0  0  0
M  END
> <Name>
45

> <IC50[uM]>
0.007

$$$$
45
  -OEChem-05192314333D
 Structure written by MMmdl.
 49 53  0     0  0  0  0  0  0999 V2000
   -6.4275   12.3453  -12.0176 C   0  0  0  0  0  0  0  0  0  0  0  0
   -6.6105   11.7832  -10.7429 C   0  0  0  0  0  0  0  0  0  0  0  0
   -7.7405   10.5587  -13.0479 C   0  0  0  0  0  0  0  0  0  0  0  0
   -7.0073   11.7527  -13.1387 C   0  0  0  0  0  0  0  0  0  0  0  0
   -7.8357    9.9872  -11.7695 C   0  0  0  0  0  0  0  0  0  0  0  0
   -7.2848   10.5993  -10.6252 C   0  0  0  0  0  0  0  0  0  0  0  0
   -7.6281    9.7307   -9.5318 C   0  0  0  0  0  0  0  0  0  0  0  0
   -8.2830    8.7083   -9.9969 N   0  0  0  0  0  0  0  0  0  0  0  0
   -8.4214    8.8369  -11.3125 N   0  0  0  0  0  0  0  0  0  0  0  0
   -7.3299    9.8861   -8.0415 C   0  0  0  0  0  0  0  0  0  0  0  0
   -4.6020   13.8371  -11.3112 N   0  0  0  0  0  0  0  0  0  0  0  0
   -5.6232   13.6419  -12.1798 C   0  0  0  0  0  0  0  0  0  0  0  0
   -5.9069   14.4516  -13.0592 O   0  0  0  0  0  0  0  0  0  0  0  0
   -5.9473   10.4903   -7.7303 C   0  0  0  0  0  0  0  0  0  0  0  0
   -5.8632   11.7421   -7.1195 C   0  0  0  0  0  0  0  0  0  0  0  0
   -4.5901   12.2560   -6.8332 C   0  0  0  0  0  0  0  0  0  0  0  0
   -3.4296   11.5300   -7.2115 C   0  0  0  0  0  0  0  0  0  0  0  0
   -3.5045   10.2730   -7.8164 C   0  0  0  0  0  0  0  0  0  0  0  0
   -4.7945    9.7703   -8.0537 C   0  0  0  0  0  0  0  0  0  0  0  0
   -4.0643   13.4351   -6.1976 C   0  0  0  0  0  0  0  0  0  0  0  0
   -2.7662   13.4536   -6.2615 N   0  0  0  0  0  0  0  0  0  0  0  0
   -2.3669   12.3336   -6.8391 N   0  0  0  0  0  0  0  0  0  0  0  0
   -0.9435   12.0941   -6.9881 C   0  0  0  0  0  0  0  0  0  0  0  0
   -4.0340   12.9997  -10.2404 C   0  0  0  0  0  0  0  0  0  0  0  0
   -3.1550   14.1929   -9.9451 C   0  0  0  0  0  0  0  0  0  0  0  0
   -3.8070   15.0441  -11.0419 C   0  0  0  0  0  0  0  0  0  0  0  0
   -3.4251   14.7437   -8.6708 O   0  0  0  0  0  0  0  0  0  0  0  0
   -4.8009   14.9943   -8.3397 C   0  0  0  0  0  0  0  0  0  0  0  0
   -6.2230   12.2805   -9.8660 H   0  0  0  0  0  0  0  0  0  0  0  0
   -8.7619   10.7641  -13.4009 H   0  0  0  0  0  0  0  0  0  0  0  0
   -7.2647    9.8211  -13.7110 H   0  0  0  0  0  0  0  0  0  0  0  0
   -7.6892   12.5023  -13.5665 H   0  0  0  0  0  0  0  0  0  0  0  0
   -6.1865   11.5583  -13.8448 H   0  0  0  0  0  0  0  0  0  0  0  0
   -8.0293    9.5968   -7.2711 H   0  0  0  0  0  0  0  0  0  0  0  0
   -6.7546   12.3002   -6.8738 H   0  0  0  0  0  0  0  0  0  0  0  0
   -2.6185    9.7178   -8.0869 H   0  0  0  0  0  0  0  0  0  0  0  0
   -4.8988    8.7932   -8.5018 H   0  0  0  0  0  0  0  0  0  0  0  0
   -4.6664   14.2006   -5.7309 H   0  0  0  0  0  0  0  0  0  0  0  0
   -0.3825   12.9417   -6.5674 H   0  0  0  0  0  0  0  0  0  0  0  0
   -0.6691   11.1721   -6.4547 H   0  0  0  0  0  0  0  0  0  0  0  0
   -0.6996   11.9867   -8.0553 H   0  0  0  0  0  0  0  0  0  0  0  0
   -4.7360   12.7267   -9.4387 H   0  0  0  0  0  0  0  0  0  0  0  0
   -3.5013   12.1004  -10.5834 H   0  0  0  0  0  0  0  0  0  0  0  0
   -2.0904   13.9978  -10.1413 H   0  0  0  0  0  0  0  0  0  0  0  0
   -3.1360   15.3560  -11.8558 H   0  0  0  0  0  0  0  0  0  0  0  0
   -4.3787   15.9133  -10.6846 H   0  0  0  0  0  0  0  0  0  0  0  0
   -4.8633   15.4195   -7.3271 H   0  0  0  0  0  0  0  0  0  0  0  0
   -5.2283   15.7048   -9.0625 H   0  0  0  0  0  0  0  0  0  0  0  0
   -5.3645   14.0504   -8.3763 H   0  0  0  0  0  0  0  0  0  0  0  0
  1  2  2  0  0  0  0
  1  4  1  0  0  0  0
  1 12  1  0  0  0  0
  2  6  1  0  0  0  0
  3  4  1  0  0  0  0
  3  5  1  0  0  0  0
  5  6  2  0  0  0  0
  5  9  1  0  0  0  0
  6  7  1  0  0  0  0
  7  8  1  0  0  0  0
  7 10  2  3  0  0  0
  8  9  2  0  0  0  0
 10 14  1  0  0  0  0
 11 12  1  0  0  0  0
 11 24  1  0  0  0  0
 11 26  1  0  0  0  0
 12 13  2  0  0  0  0
 14 15  2  0  0  0  0
 14 19  1  0  0  0  0
 15 16  1  0  0  0  0
 16 17  2  0  0  0  0
 16 20  1  0  0  0  0
 17 18  1  0  0  0  0
 17 22  1  0  0  0  0
 18 19  2  0  0  0  0
 20 21  2  0  0  0  0
 21 22  1  0  0  0  0
 22 23  1  0  0  0  0
 24 25  1  0  0  0  0
 25 26  1  0  0  0  0
 25 27  1  0  0  0  0
 27 28  1  0  0  0  0
  2 29  1  0  0  0  0
  3 30  1  0  0  0  0
  3 31  1  0  0  0  0
  4 32  1  0  0  0  0
  4 33  1  0  0  0  0
 10 34  1  0  0  0  0
 15 35  1  0  0  0  0
 18 36  1  0  0  0  0
 19 37  1  0  0  0  0
 20 38  1  0  0  0  0
 23 39  1  0  0  0  0
 23 40  1  0  0  0  0
 23 41  1  0  0  0  0
 24 42  1  0  0  0  0
 24 43  1  0  0  0  0
 25 44  1  0  0  0  0
 26 45  1  0  0  0  0
 26 46  1  0  0  0  0
 28 47  1  0  0  0  0
 28 48  1  0  0  0  0
 28 49  1  0  0  0  0
M  END
> <Name>
45

> <IC50[uM]>
0.007

$$$$
45
  -OEChem-05192314333D
 Structure written by MMmdl.
 49 53  0     1  0  0  0  0  0999 V2000
   -6.4275   12.3453  -12.0176 C   0  0  3  0  0  0  0  0  0  0  0  0
   -6.6105   11.7832  -10.7429 C   0  0  0  0  0  0  0  0  0  0  0  0
   -7.7405   10.5587  -13.0479 C   0  0  0  0  0  0  0  0  0  0  0  0
   -7.0073   11.7527  -13.1387 C   0  0  0  0  0  0  0  0  0  0  0  0
   -7.8357    9.9872  -11.7695 C   0  0  0  0  0  0  0  0  0  0  0  0
   -7.2848   10.5993  -10.6252 C   0  0  0  0  0  0  0  0  0  0  0  0
   -7.6281    9.7307   -9.5318 C   0  0  0  0  0  0  0  0  0  0  0  0
   -8.2830    8.7083   -9.9969 N   0  0  0  0  0  0  0  0  0  0  0  0
   -8.4214    8.8369  -11.3125 N   0  0  0  0  0  0  0  0  0  0  0  0
   -7.3299    9.8861   -8.0415 C   0  0  0  0  0  0  0  0  0  0  0  0
   -4.6020   13.8371  -11.3112 N   0  0  0  0  0  0  0  0  0  0  0  0
   -5.6232   13.6419  -12.1798 C   0  0  0  0  0  0  0  0  0  0  0  0
   -5.9069   14.4516  -13.0592 O   0  0  0  0  0  0  0  0  0  0  0  0
   -5.9473   10.4903   -7.7303 C   0  0  0  0  0  0  0  0  0  0  0  0
   -5.8632   11.7421   -7.1195 C   0  0  0  0  0  0  0  0  0  0  0  0
   -4.5901   12.2560   -6.8332 C   0  0  0  0  0  0  0  0  0  0  0  0
   -3.4296   11.5300   -7.2115 C   0  0  0  0  0  0  0  0  0  0  0  0
   -3.5045   10.2730   -7.8164 C   0  0  0  0  0  0  0  0  0  0  0  0
   -4.7945    9.7703   -8.0537 C   0  0  0  0  0  0  0  0  0  0  0  0
   -4.0643   13.4351   -6.1976 C   0  0  0  0  0  0  0  0  0  0  0  0
   -2.7662   13.4536   -6.2615 N   0  0  0  0  0  0  0  0  0  0  0  0
   -2.3669   12.3336   -6.8391 N   0  0  0  0  0  0  0  0  0  0  0  0
   -0.9435   12.0941   -6.9881 C   0  0  0  0  0  0  0  0  0  0  0  0
   -4.0340   12.9997  -10.2404 C   0  0  0  0  0  0  0  0  0  0  0  0
   -3.1550   14.1929   -9.9451 C   0  0  0  0  0  0  0  0  0  0  0  0
   -3.8070   15.0441  -11.0419 C   0  0  0  0  0  0  0  0  0  0  0  0
   -3.4251   14.7437   -8.6708 O   0  0  0  0  0  0  0  0  0  0  0  0
   -4.8009   14.9943   -8.3397 C   0  0  0  0  0  0  0  0  0  0  0  0
   -5.5143   11.7492  -12.1613 H   0  0  0  0  0  0  0  0  0  0  0  0
   -5.6096   11.6267  -10.3142 H   0  0  0  0  0  0  0  0  0  0  0  0
   -7.1557   12.5246  -10.1403 H   0  0  0  0  0  0  0  0  0  0  0  0
   -8.2044   10.1062  -13.9119 H   0  0  0  0  0  0  0  0  0  0  0  0
   -6.8892   12.2248  -14.1028 H   0  0  0  0  0  0  0  0  0  0  0  0
   -8.0293    9.5968   -7.2711 H   0  0  0  0  0  0  0  0  0  0  0  0
   -6.7546   12.3002   -6.8738 H   0  0  0  0  0  0  0  0  0  0  0  0
   -2.6185    9.7178   -8.0869 H   0  0  0  0  0  0  0  0  0  0  0  0
   -4.8988    8.7932   -8.5018 H   0  0  0  0  0  0  0  0  0  0  0  0
   -4.6664   14.2006   -5.7309 H   0  0  0  0  0  0  0  0  0  0  0  0
   -0.3825   12.9417   -6.5674 H   0  0  0  0  0  0  0  0  0  0  0  0
   -0.6691   11.1721   -6.4547 H   0  0  0  0  0  0  0  0  0  0  0  0
   -0.6996   11.9867   -8.0553 H   0  0  0  0  0  0  0  0  0  0  0  0
   -4.7360   12.7267   -9.4387 H   0  0  0  0  0  0  0  0  0  0  0  0
   -3.5013   12.1004  -10.5834 H   0  0  0  0  0  0  0  0  0  0  0  0
   -2.0904   13.9978  -10.1413 H   0  0  0  0  0  0  0  0  0  0  0  0
   -3.1360   15.3560  -11.8558 H   0  0  0  0  0  0  0  0  0  0  0  0
   -4.3787   15.9133  -10.6846 H   0  0  0  0  0  0  0  0  0  0  0  0
   -4.8633   15.4195   -7.3271 H   0  0  0  0  0  0  0  0  0  0  0  0
   -5.2283   15.7048   -9.0625 H   0  0  0  0  0  0  0  0  0  0  0  0
   -5.3645   14.0504   -8.3763 H   0  0  0  0  0  0  0  0  0  0  0  0
  1  2  1  0  0  0  0
  1  4  1  0  0  0  0
  1 12  1  0  0  0  0
  2  6  1  0  0  0  0
  3  4  2  0  0  0  0
  3  5  1  0  0  0  0
  5  6  2  0  0  0  0
  5  9  1  0  0  0  0
  6  7  1  0  0  0  0
  7  8  1  0  0  0  0
  7 10  2  3  0  0  0
  8  9  2  0  0  0  0
 10 14  1  0  0  0  0
 11 12  1  0  0  0  0
 11 24  1  0  0  0  0
 11 26  1  0  0  0  0
 12 13  2  0  0  0  0
 14 15  2  0  0  0  0
 14 19  1  0  0  0  0
 15 16  1  0  0  0  0
 16 17  2  0  0  0  0
 16 20  1  0  0  0  0
 17 18  1  0  0  0  0
 17 22  1  0  0  0  0
 18 19  2  0  0  0  0
 20 21  2  0  0  0  0
 21 22  1  0  0  0  0
 22 23  1  0  0  0  0
 24 25  1  0  0  0  0
 25 26  1  0  0  0  0
 25 27  1  0  0  0  0
 27 28  1  0  0  0  0
  1 29  1  0  0  0  0
  2 30  1  0  0  0  0
  2 31  1  0  0  0  0
  3 32  1  0  0  0  0
  4 33  1  0  0  0  0
 10 34  1  0  0  0  0
 15 35  1  0  0  0  0
 18 36  1  0  0  0  0
 19 37  1  0  0  0  0
 20 38  1  0  0  0  0
 23 39  1  0  0  0  0
 23 40  1  0  0  0  0
 23 41  1  0  0  0  0
 24 42  1  0  0  0  0
 24 43  1  0  0  0  0
 25 44  1  0  0  0  0
 26 45  1  0  0  0  0
 26 46  1  0  0  0  0
 28 47  1  0  0  0  0
 28 48  1  0  0  0  0
 28 49  1  0  0  0  0
M  END
> <Name>
45

> <IC50[uM]>
0.007

$$$$
45
  -OEChem-05192314333D
 Structure written by MMmdl.
 49 53  0     1  0  0  0  0  0999 V2000
   -6.4275   12.3453  -12.0176 C   0  0  0  0  0  0  0  0  0  0  0  0
   -6.6105   11.7832  -10.7429 C   0  0  0  0  0  0  0  0  0  0  0  0
   -7.7405   10.5587  -13.0479 C   0  0  0  0  0  0  0  0  0  0  0  0
   -7.0073   11.7527  -13.1387 C   0  0  0  0  0  0  0  0  0  0  0  0
   -7.8357    9.9872  -11.7695 C   0  0  0  0  0  0  0  0  0  0  0  0
   -7.2848   10.5993  -10.6252 C   0  0  3  0  0  0  0  0  0  0  0  0
   -7.6281    9.7307   -9.5318 C   0  0  0  0  0  0  0  0  0  0  0  0
   -8.2830    8.7083   -9.9969 N   0  0  0  0  0  0  0  0  0  0  0  0
   -8.4214    8.8369  -11.3125 N   0  0  0  0  0  0  0  0  0  0  0  0
   -7.3299    9.8861   -8.0415 C   0  0  0  0  0  0  0  0  0  0  0  0
   -4.6020   13.8371  -11.3112 N   0  0  0  0  0  0  0  0  0  0  0  0
   -5.6232   13.6419  -12.1798 C   0  0  0  0  0  0  0  0  0  0  0  0
   -5.9069   14.4516  -13.0592 O   0  0  0  0  0  0  0  0  0  0  0  0
   -5.9473   10.4903   -7.7303 C   0  0  0  0  0  0  0  0  0  0  0  0
   -5.8632   11.7421   -7.1195 C   0  0  0  0  0  0  0  0  0  0  0  0
   -4.5901   12.2560   -6.8332 C   0  0  0  0  0  0  0  0  0  0  0  0
   -3.4296   11.5300   -7.2115 C   0  0  0  0  0  0  0  0  0  0  0  0
   -3.5045   10.2730   -7.8164 C   0  0  0  0  0  0  0  0  0  0  0  0
   -4.7945    9.7703   -8.0537 C   0  0  0  0  0  0  0  0  0  0  0  0
   -4.0643   13.4351   -6.1976 C   0  0  0  0  0  0  0  0  0  0  0  0
   -2.7662   13.4536   -6.2615 N   0  0  0  0  0  0  0  0  0  0  0  0
   -2.3669   12.3336   -6.8391 N   0  0  0  0  0  0  0  0  0  0  0  0
   -0.9435   12.0941   -6.9881 C   0  0  0  0  0  0  0  0  0  0  0  0
   -4.0340   12.9997  -10.2404 C   0  0  0  0  0  0  0  0  0  0  0  0
   -3.1550   14.1929   -9.9451 C   0  0  0  0  0  0  0  0  0  0  0  0
   -3.8070   15.0441  -11.0419 C   0  0  0  0  0  0  0  0  0  0  0  0
   -3.4251   14.7437   -8.6708 O   0  0  0  0  0  0  0  0  0  0  0  0
   -4.8009   14.9943   -8.3397 C   0  0  0  0  0  0  0  0  0  0  0  0
   -5.6096   11.6267  -10.3142 H   0  0  0  0  0  0  0  0  0  0  0  0
   -7.1557   12.5246  -10.1403 H   0  0  0  0  0  0  0  0  0  0  0  0
   -8.2044   10.1062  -13.9119 H   0  0  0  0  0  0  0  0  0  0  0  0
   -6.8892   12.2248  -14.1028 H   0  0  0  0  0  0  0  0  0  0  0  0
   -6.3465   10.0453  -10.7758 H   0  0  0  0  0  0  0  0  0  0  0  0
   -8.0293    9.5968   -7.2711 H   0  0  0  0  0  0  0  0  0  0  0  0
   -6.7546   12.3002   -6.8738 H   0  0  0  0  0  0  0  0  0  0  0  0
   -2.6185    9.7178   -8.0869 H   0  0  0  0  0  0  0  0  0  0  0  0
   -4.8988    8.7932   -8.5018 H   0  0  0  0  0  0  0  0  0  0  0  0
   -4.6664   14.2006   -5.7309 H   0  0  0  0  0  0  0  0  0  0  0  0
   -0.3825   12.9417   -6.5674 H   0  0  0  0  0  0  0  0  0  0  0  0
   -0.6691   11.1721   -6.4547 H   0  0  0  0  0  0  0  0  0  0  0  0
   -0.6996   11.9867   -8.0553 H   0  0  0  0  0  0  0  0  0  0  0  0
   -4.7360   12.7267   -9.4387 H   0  0  0  0  0  0  0  0  0  0  0  0
   -3.5013   12.1004  -10.5834 H   0  0  0  0  0  0  0  0  0  0  0  0
   -2.0904   13.9978  -10.1413 H   0  0  0  0  0  0  0  0  0  0  0  0
   -3.1360   15.3560  -11.8558 H   0  0  0  0  0  0  0  0  0  0  0  0
   -4.3787   15.9133  -10.6846 H   0  0  0  0  0  0  0  0  0  0  0  0
   -4.8633   15.4195   -7.3271 H   0  0  0  0  0  0  0  0  0  0  0  0
   -5.2283   15.7048   -9.0625 H   0  0  0  0  0  0  0  0  0  0  0  0
   -5.3645   14.0504   -8.3763 H   0  0  0  0  0  0  0  0  0  0  0  0
  1  2  1  0  0  0  0
  1  4  2  0  0  0  0
  1 12  1  0  0  0  0
  2  6  1  0  0  0  0
  3  4  1  0  0  0  0
  3  5  2  0  0  0  0
  5  6  1  0  0  0  0
  5  9  1  0  0  0  0
  6  7  1  0  0  0  0
  7  8  1  0  0  0  0
  7 10  2  3  0  0  0
  8  9  2  0  0  0  0
 10 14  1  0  0  0  0
 11 12  1  0  0  0  0
 11 24  1  0  0  0  0
 11 26  1  0  0  0  0
 12 13  2  0  0  0  0
 14 15  2  0  0  0  0
 14 19  1  0  0  0  0
 15 16  1  0  0  0  0
 16 17  2  0  0  0  0
 16 20  1  0  0  0  0
 17 18  1  0  0  0  0
 17 22  1  0  0  0  0
 18 19  2  0  0  0  0
 20 21  2  0  0  0  0
 21 22  1  0  0  0  0
 22 23  1  0  0  0  0
 24 25  1  0  0  0  0
 25 26  1  0  0  0  0
 25 27  1  0  0  0  0
 27 28  1  0  0  0  0
  2 29  1  0  0  0  0
  2 30  1  0  0  0  0
  3 31  1  0  0  0  0
  4 32  1  0  0  0  0
  6 33  1  0  0  0  0
 10 34  1  0  0  0  0
 15 35  1  0  0  0  0
 18 36  1  0  0  0  0
 19 37  1  0  0  0  0
 20 38  1  0  0  0  0
 23 39  1  0  0  0  0
 23 40  1  0  0  0  0
 23 41  1  0  0  0  0
 24 42  1  0  0  0  0
 24 43  1  0  0  0  0
 25 44  1  0  0  0  0
 26 45  1  0  0  0  0
 26 46  1  0  0  0  0
 28 47  1  0  0  0  0
 28 48  1  0  0  0  0
 28 49  1  0  0  0  0
M  END
> <Name>
45

> <IC50[uM]>
0.007

$$$$
45
  -OEChem-05192314333D
 Structure written by MMmdl.
 49 53  0     0  0  0  0  0  0999 V2000
   -6.4275   12.3453  -12.0176 C   0  0  0  0  0  0  0  0  0  0  0  0
   -6.6105   11.7832  -10.7429 C   0  0  0  0  0  0  0  0  0  0  0  0
   -7.7405   10.5587  -13.0479 C   0  0  0  0  0  0  0  0  0  0  0  0
   -7.0073   11.7527  -13.1387 C   0  0  0  0  0  0  0  0  0  0  0  0
   -7.8357    9.9872  -11.7695 C   0  0  0  0  0  0  0  0  0  0  0  0
   -7.2848   10.5993  -10.6252 C   0  0  0  0  0  0  0  0  0  0  0  0
   -7.6281    9.7307   -9.5318 C   0  0  0  0  0  0  0  0  0  0  0  0
   -8.2830    8.7083   -9.9969 N   0  0  0  0  0  0  0  0  0  0  0  0
   -8.4214    8.8369  -11.3125 N   0  0  0  0  0  0  0  0  0  0  0  0
   -7.3299    9.8861   -8.0415 C   0  0  0  0  0  0  0  0  0  0  0  0
   -4.6020   13.8371  -11.3112 N   0  0  0  0  0  0  0  0  0  0  0  0
   -5.6232   13.6419  -12.1798 C   0  0  0  0  0  0  0  0  0  0  0  0
   -5.9069   14.4516  -13.0592 O   0  0  0  0  0  0  0  0  0  0  0  0
   -5.9473   10.4903   -7.7303 C   0  0  0  0  0  0  0  0  0  0  0  0
   -5.8632   11.7421   -7.1195 C   0  0  0  0  0  0  0  0  0  0  0  0
   -4.5901   12.2560   -6.8332 C   0  0  0  0  0  0  0  0  0  0  0  0
   -3.4296   11.5300   -7.2115 C   0  0  0  0  0  0  0  0  0  0  0  0
   -3.5045   10.2730   -7.8164 C   0  0  0  0  0  0  0  0  0  0  0  0
   -4.7945    9.7703   -8.0537 C   0  0  0  0  0  0  0  0  0  0  0  0
   -4.0643   13.4351   -6.1976 C   0  0  0  0  0  0  0  0  0  0  0  0
   -2.7662   13.4536   -6.2615 N   0  0  0  0  0  0  0  0  0  0  0  0
   -2.3669   12.3336   -6.8391 N   0  0  0  0  0  0  0  0  0  0  0  0
   -0.9435   12.0941   -6.9881 C   0  0  0  0  0  0  0  0  0  0  0  0
   -4.0340   12.9997  -10.2404 C   0  0  0  0  0  0  0  0  0  0  0  0
   -3.1550   14.1929   -9.9451 C   0  0  0  0  0  0  0  0  0  0  0  0
   -3.8070   15.0441  -11.0419 C   0  0  0  0  0  0  0  0  0  0  0  0
   -3.4251   14.7437   -8.6708 O   0  0  0  0  0  0  0  0  0  0  0  0
   -4.8009   14.9943   -8.3397 C   0  0  0  0  0  0  0  0  0  0  0  0
   -5.6096   11.6267  -10.3142 H   0  0  0  0  0  0  0  0  0  0  0  0
   -7.1557   12.5246  -10.1403 H   0  0  0  0  0  0  0  0  0  0  0  0
   -8.7619   10.7641  -13.4009 H   0  0  0  0  0  0  0  0  0  0  0  0
   -7.2647    9.8211  -13.7110 H   0  0  0  0  0  0  0  0  0  0  0  0
   -6.8892   12.2248  -14.1028 H   0  0  0  0  0  0  0  0  0  0  0  0
   -8.0293    9.5968   -7.2711 H   0  0  0  0  0  0  0  0  0  0  0  0
   -6.7546   12.3002   -6.8738 H   0  0  0  0  0  0  0  0  0  0  0  0
   -2.6185    9.7178   -8.0869 H   0  0  0  0  0  0  0  0  0  0  0  0
   -4.8988    8.7932   -8.5018 H   0  0  0  0  0  0  0  0  0  0  0  0
   -4.6664   14.2006   -5.7309 H   0  0  0  0  0  0  0  0  0  0  0  0
   -0.3825   12.9417   -6.5674 H   0  0  0  0  0  0  0  0  0  0  0  0
   -0.6691   11.1721   -6.4547 H   0  0  0  0  0  0  0  0  0  0  0  0
   -0.6996   11.9867   -8.0553 H   0  0  0  0  0  0  0  0  0  0  0  0
   -4.7360   12.7267   -9.4387 H   0  0  0  0  0  0  0  0  0  0  0  0
   -3.5013   12.1004  -10.5834 H   0  0  0  0  0  0  0  0  0  0  0  0
   -2.0904   13.9978  -10.1413 H   0  0  0  0  0  0  0  0  0  0  0  0
   -3.1360   15.3560  -11.8558 H   0  0  0  0  0  0  0  0  0  0  0  0
   -4.3787   15.9133  -10.6846 H   0  0  0  0  0  0  0  0  0  0  0  0
   -4.8633   15.4195   -7.3271 H   0  0  0  0  0  0  0  0  0  0  0  0
   -5.2283   15.7048   -9.0625 H   0  0  0  0  0  0  0  0  0  0  0  0
   -5.3645   14.0504   -8.3763 H   0  0  0  0  0  0  0  0  0  0  0  0
  1  2  1  0  0  0  0
  1  4  2  0  0  0  0
  1 12  1  0  0  0  0
  2  6  1  0  0  0  0
  3  4  1  0  0  0  0
  3  5  1  0  0  0  0
  5  6  2  0  0  0  0
  5  9  1  0  0  0  0
  6  7  1  0  0  0  0
  7  8  1  0  0  0  0
  7 10  2  3  0  0  0
  8  9  2  0  0  0  0
 10 14  1  0  0  0  0
 11 12  1  0  0  0  0
 11 24  1  0  0  0  0
 11 26  1  0  0  0  0
 12 13  2  0  0  0  0
 14 15  2  0  0  0  0
 14 19  1  0  0  0  0
 15 16  1  0  0  0  0
 16 17  2  0  0  0  0
 16 20  1  0  0  0  0
 17 18  1  0  0  0  0
 17 22  1  0  0  0  0
 18 19  2  0  0  0  0
 20 21  2  0  0  0  0
 21 22  1  0  0  0  0
 22 23  1  0  0  0  0
 24 25  1  0  0  0  0
 25 26  1  0  0  0  0
 25 27  1  0  0  0  0
 27 28  1  0  0  0  0
  2 29  1  0  0  0  0
  2 30  1  0  0  0  0
  3 31  1  0  0  0  0
  3 32  1  0  0  0  0
  4 33  1  0  0  0  0
 10 34  1  0  0  0  0
 15 35  1  0  0  0  0
 18 36  1  0  0  0  0
 19 37  1  0  0  0  0
 20 38  1  0  0  0  0
 23 39  1  0  0  0  0
 23 40  1  0  0  0  0
 23 41  1  0  0  0  0
 24 42  1  0  0  0  0
 24 43  1  0  0  0  0
 25 44  1  0  0  0  0
 26 45  1  0  0  0  0
 26 46  1  0  0  0  0
 28 47  1  0  0  0  0
 28 48  1  0  0  0  0
 28 49  1  0  0  0  0
M  END
> <Name>
45

> <IC50[uM]>
0.007

$$$$
45
  -OEChem-05192314333D
 Structure written by MMmdl.
 49 53  0     1  0  0  0  0  0999 V2000
   -6.4275   12.3453  -12.0176 C   0  0  0  0  0  0  0  0  0  0  0  0
   -6.6105   11.7832  -10.7429 C   0  0  0  0  0  0  0  0  0  0  0  0
   -7.7405   10.5587  -13.0479 C   0  0  0  0  0  0  0  0  0  0  0  0
   -7.0073   11.7527  -13.1387 C   0  0  0  0  0  0  0  0  0  0  0  0
   -7.8357    9.9872  -11.7695 C   0  0  3  0  0  0  0  0  0  0  0  0
   -7.2848   10.5993  -10.6252 C   0  0  0  0  0  0  0  0  0  0  0  0
   -7.6281    9.7307   -9.5318 C   0  0  0  0  0  0  0  0  0  0  0  0
   -8.2830    8.7083   -9.9969 N   0  0  0  0  0  0  0  0  0  0  0  0
   -8.4214    8.8369  -11.3125 N   0  0  0  0  0  0  0  0  0  0  0  0
   -7.3299    9.8861   -8.0415 C   0  0  0  0  0  0  0  0  0  0  0  0
   -4.6020   13.8371  -11.3112 N   0  0  0  0  0  0  0  0  0  0  0  0
   -5.6232   13.6419  -12.1798 C   0  0  0  0  0  0  0  0  0  0  0  0
   -5.9069   14.4516  -13.0592 O   0  0  0  0  0  0  0  0  0  0  0  0
   -5.9473   10.4903   -7.7303 C   0  0  0  0  0  0  0  0  0  0  0  0
   -5.8632   11.7421   -7.1195 C   0  0  0  0  0  0  0  0  0  0  0  0
   -4.5901   12.2560   -6.8332 C   0  0  0  0  0  0  0  0  0  0  0  0
   -3.4296   11.5300   -7.2115 C   0  0  0  0  0  0  0  0  0  0  0  0
   -3.5045   10.2730   -7.8164 C   0  0  0  0  0  0  0  0  0  0  0  0
   -4.7945    9.7703   -8.0537 C   0  0  0  0  0  0  0  0  0  0  0  0
   -4.0643   13.4351   -6.1976 C   0  0  0  0  0  0  0  0  0  0  0  0
   -2.7662   13.4536   -6.2615 N   0  0  0  0  0  0  0  0  0  0  0  0
   -2.3669   12.3336   -6.8391 N   0  0  0  0  0  0  0  0  0  0  0  0
   -0.9435   12.0941   -6.9881 C   0  0  0  0  0  0  0  0  0  0  0  0
   -4.0340   12.9997  -10.2404 C   0  0  0  0  0  0  0  0  0  0  0  0
   -3.1550   14.1929   -9.9451 C   0  0  0  0  0  0  0  0  0  0  0  0
   -3.8070   15.0441  -11.0419 C   0  0  0  0  0  0  0  0  0  0  0  0
   -3.4251   14.7437   -8.6708 O   0  0  0  0  0  0  0  0  0  0  0  0
   -4.8009   14.9943   -8.3397 C   0  0  0  0  0  0  0  0  0  0  0  0
   -6.2230   12.2805   -9.8660 H   0  0  0  0  0  0  0  0  0  0  0  0
   -8.2044   10.1062  -13.9119 H   0  0  0  0  0  0  0  0  0  0  0  0
   -6.8892   12.2248  -14.1028 H   0  0  0  0  0  0  0  0  0  0  0  0
   -6.8934    9.4451  -11.9376 H   0  0  0  0  0  0  0  0  0  0  0  0
   -8.0981   10.5401   -7.6030 H   0  0  0  0  0  0  0  0  0  0  0  0
   -7.3843    8.8919   -7.5740 H   0  0  0  0  0  0  0  0  0  0  0  0
   -6.7546   12.3002   -6.8738 H   0  0  0  0  0  0  0  0  0  0  0  0
   -2.6185    9.7178   -8.0869 H   0  0  0  0  0  0  0  0  0  0  0  0
   -4.8988    8.7932   -8.5018 H   0  0  0  0  0  0  0  0  0  0  0  0
   -4.6664   14.2006   -5.7309 H   0  0  0  0  0  0  0  0  0  0  0  0
   -0.3825   12.9417   -6.5674 H   0  0  0  0  0  0  0  0  0  0  0  0
   -0.6691   11.1721   -6.4547 H   0  0  0  0  0  0  0  0  0  0  0  0
   -0.6996   11.9867   -8.0553 H   0  0  0  0  0  0  0  0  0  0  0  0
   -4.7360   12.7267   -9.4387 H   0  0  0  0  0  0  0  0  0  0  0  0
   -3.5013   12.1004  -10.5834 H   0  0  0  0  0  0  0  0  0  0  0  0
   -2.0904   13.9978  -10.1413 H   0  0  0  0  0  0  0  0  0  0  0  0
   -3.1360   15.3560  -11.8558 H   0  0  0  0  0  0  0  0  0  0  0  0
   -4.3787   15.9133  -10.6846 H   0  0  0  0  0  0  0  0  0  0  0  0
   -4.8633   15.4195   -7.3271 H   0  0  0  0  0  0  0  0  0  0  0  0
   -5.2283   15.7048   -9.0625 H   0  0  0  0  0  0  0  0  0  0  0  0
   -5.3645   14.0504   -8.3763 H   0  0  0  0  0  0  0  0  0  0  0  0
  1  2  2  0  0  0  0
  1  4  1  0  0  0  0
  1 12  1  0  0  0  0
  2  6  1  0  0  0  0
  3  4  2  0  0  0  0
  3  5  1  0  0  0  0
  5  6  1  0  0  0  0
  5  9  1  0  0  0  0
  6  7  2  0  0  0  0
  7  8  1  0  0  0  0
  7 10  1  0  0  0  0
  8  9  2  0  0  0  0
 10 14  1  0  0  0  0
 11 12  1  0  0  0  0
 11 24  1  0  0  0  0
 11 26  1  0  0  0  0
 12 13  2  0  0  0  0
 14 15  2  0  0  0  0
 14 19  1  0  0  0  0
 15 16  1  0  0  0  0
 16 17  2  0  0  0  0
 16 20  1  0  0  0  0
 17 18  1  0  0  0  0
 17 22  1  0  0  0  0
 18 19  2  0  0  0  0
 20 21  2  0  0  0  0
 21 22  1  0  0  0  0
 22 23  1  0  0  0  0
 24 25  1  0  0  0  0
 25 26  1  0  0  0  0
 25 27  1  0  0  0  0
 27 28  1  0  0  0  0
  2 29  1  0  0  0  0
  3 30  1  0  0  0  0
  4 31  1  0  0  0  0
  5 32  1  0  0  0  0
 10 33  1  0  0  0  0
 10 34  1  0  0  0  0
 15 35  1  0  0  0  0
 18 36  1  0  0  0  0
 19 37  1  0  0  0  0
 20 38  1  0  0  0  0
 23 39  1  0  0  0  0
 23 40  1  0  0  0  0
 23 41  1  0  0  0  0
 24 42  1  0  0  0  0
 24 43  1  0  0  0  0
 25 44  1  0  0  0  0
 26 45  1  0  0  0  0
 26 46  1  0  0  0  0
 28 47  1  0  0  0  0
 28 48  1  0  0  0  0
 28 49  1  0  0  0  0
M  END
> <Name>
45

> <IC50[uM]>
0.007

$$$$
45
  -OEChem-05192314333D
 Structure written by MMmdl.
 49 53  0     0  0  0  0  0  0999 V2000
   -6.4275   12.3453  -12.0176 C   0  0  0  0  0  0  0  0  0  0  0  0
   -6.6105   11.7832  -10.7429 C   0  0  0  0  0  0  0  0  0  0  0  0
   -7.7405   10.5587  -13.0479 C   0  0  0  0  0  0  0  0  0  0  0  0
   -7.0073   11.7527  -13.1387 C   0  0  0  0  0  0  0  0  0  0  0  0
   -7.8357    9.9872  -11.7695 C   0  0  0  0  0  0  0  0  0  0  0  0
   -7.2848   10.5993  -10.6252 C   0  0  0  0  0  0  0  0  0  0  0  0
   -7.6281    9.7307   -9.5318 C   0  0  0  0  0  0  0  0  0  0  0  0
   -8.2830    8.7083   -9.9969 N   0  0  0  0  0  0  0  0  0  0  0  0
   -8.4214    8.8369  -11.3125 N   0  0  0  0  0  0  0  0  0  0  0  0
   -7.3299    9.8861   -8.0415 C   0  0  0  0  0  0  0  0  0  0  0  0
   -4.6020   13.8371  -11.3112 N   0  0  0  0  0  0  0  0  0  0  0  0
   -5.6232   13.6419  -12.1798 C   0  0  0  0  0  0  0  0  0  0  0  0
   -5.9069   14.4516  -13.0592 O   0  0  0  0  0  0  0  0  0  0  0  0
   -5.9473   10.4903   -7.7303 C   0  0  0  0  0  0  0  0  0  0  0  0
   -5.8632   11.7421   -7.1195 C   0  0  0  0  0  0  0  0  0  0  0  0
   -4.5901   12.2560   -6.8332 C   0  0  0  0  0  0  0  0  0  0  0  0
   -3.4296   11.5300   -7.2115 C   0  0  0  0  0  0  0  0  0  0  0  0
   -3.5045   10.2730   -7.8164 C   0  0  0  0  0  0  0  0  0  0  0  0
   -4.7945    9.7703   -8.0537 C   0  0  0  0  0  0  0  0  0  0  0  0
   -4.0643   13.4351   -6.1976 C   0  0  0  0  0  0  0  0  0  0  0  0
   -2.7662   13.4536   -6.2615 N   0  0  0  0  0  0  0  0  0  0  0  0
   -2.3669   12.3336   -6.8391 N   0  0  0  0  0  0  0  0  0  0  0  0
   -0.9435   12.0941   -6.9881 C   0  0  0  0  0  0  0  0  0  0  0  0
   -4.0340   12.9997  -10.2404 C   0  0  0  0  0  0  0  0  0  0  0  0
   -3.1550   14.1929   -9.9451 C   0  0  0  0  0  0  0  0  0  0  0  0
   -3.8070   15.0441  -11.0419 C   0  0  0  0  0  0  0  0  0  0  0  0
   -3.4251   14.7437   -8.6708 O   0  0  0  0  0  0  0  0  0  0  0  0
   -4.8009   14.9943   -8.3397 C   0  0  0  0  0  0  0  0  0  0  0  0
   -6.2230   12.2805   -9.8660 H   0  0  0  0  0  0  0  0  0  0  0  0
   -8.2044   10.1062  -13.9119 H   0  0  0  0  0  0  0  0  0  0  0  0
   -7.6892   12.5023  -13.5665 H   0  0  0  0  0  0  0  0  0  0  0  0
   -6.1865   11.5583  -13.8448 H   0  0  0  0  0  0  0  0  0  0  0  0
   -8.0981   10.5401   -7.6030 H   0  0  0  0  0  0  0  0  0  0  0  0
   -7.3843    8.8919   -7.5740 H   0  0  0  0  0  0  0  0  0  0  0  0
   -6.7546   12.3002   -6.8738 H   0  0  0  0  0  0  0  0  0  0  0  0
   -2.6185    9.7178   -8.0869 H   0  0  0  0  0  0  0  0  0  0  0  0
   -4.8988    8.7932   -8.5018 H   0  0  0  0  0  0  0  0  0  0  0  0
   -4.6664   14.2006   -5.7309 H   0  0  0  0  0  0  0  0  0  0  0  0
   -0.3825   12.9417   -6.5674 H   0  0  0  0  0  0  0  0  0  0  0  0
   -0.6691   11.1721   -6.4547 H   0  0  0  0  0  0  0  0  0  0  0  0
   -0.6996   11.9867   -8.0553 H   0  0  0  0  0  0  0  0  0  0  0  0
   -4.7360   12.7267   -9.4387 H   0  0  0  0  0  0  0  0  0  0  0  0
   -3.5013   12.1004  -10.5834 H   0  0  0  0  0  0  0  0  0  0  0  0
   -2.0904   13.9978  -10.1413 H   0  0  0  0  0  0  0  0  0  0  0  0
   -3.1360   15.3560  -11.8558 H   0  0  0  0  0  0  0  0  0  0  0  0
   -4.3787   15.9133  -10.6846 H   0  0  0  0  0  0  0  0  0  0  0  0
   -4.8633   15.4195   -7.3271 H   0  0  0  0  0  0  0  0  0  0  0  0
   -5.2283   15.7048   -9.0625 H   0  0  0  0  0  0  0  0  0  0  0  0
   -5.3645   14.0504   -8.3763 H   0  0  0  0  0  0  0  0  0  0  0  0
  1  2  2  0  0  0  0
  1  4  1  0  0  0  0
  1 12  1  0  0  0  0
  2  6  1  0  0  0  0
  3  4  1  0  0  0  0
  3  5  2  0  0  0  0
  5  6  1  0  0  0  0
  5  9  1  0  0  0  0
  6  7  2  0  0  0  0
  7  8  1  0  0  0  0
  7 10  1  0  0  0  0
  8  9  2  0  0  0  0
 10 14  1  0  0  0  0
 11 12  1  0  0  0  0
 11 24  1  0  0  0  0
 11 26  1  0  0  0  0
 12 13  2  0  0  0  0
 14 15  2  0  0  0  0
 14 19  1  0  0  0  0
 15 16  1  0  0  0  0
 16 17  2  0  0  0  0
 16 20  1  0  0  0  0
 17 18  1  0  0  0  0
 17 22  1  0  0  0  0
 18 19  2  0  0  0  0
 20 21  2  0  0  0  0
 21 22  1  0  0  0  0
 22 23  1  0  0  0  0
 24 25  1  0  0  0  0
 25 26  1  0  0  0  0
 25 27  1  0  0  0  0
 27 28  1  0  0  0  0
  2 29  1  0  0  0  0
  3 30  1  0  0  0  0
  4 31  1  0  0  0  0
  4 32  1  0  0  0  0
 10 33  1  0  0  0  0
 10 34  1  0  0  0  0
 15 35  1  0  0  0  0
 18 36  1  0  0  0  0
 19 37  1  0  0  0  0
 20 38  1  0  0  0  0
 23 39  1  0  0  0  0
 23 40  1  0  0  0  0
 23 41  1  0  0  0  0
 24 42  1  0  0  0  0
 24 43  1  0  0  0  0
 25 44  1  0  0  0  0
 26 45  1  0  0  0  0
 26 46  1  0  0  0  0
 28 47  1  0  0  0  0
 28 48  1  0  0  0  0
 28 49  1  0  0  0  0
M  END
> <Name>
45

> <IC50[uM]>
0.007

$$$$
45
  -OEChem-05192314333D
 Structure written by MMmdl.
 49 53  0     0  0  0  0  0  0999 V2000
   -6.4275   12.3453  -12.0176 C   0  0  0  0  0  0  0  0  0  0  0  0
   -6.6105   11.7832  -10.7429 C   0  0  0  0  0  0  0  0  0  0  0  0
   -7.7405   10.5587  -13.0479 C   0  0  0  0  0  0  0  0  0  0  0  0
   -7.0073   11.7527  -13.1387 C   0  0  0  0  0  0  0  0  0  0  0  0
   -7.8357    9.9872  -11.7695 C   0  0  0  0  0  0  0  0  0  0  0  0
   -7.2848   10.5993  -10.6252 C   0  0  0  0  0  0  0  0  0  0  0  0
   -7.6281    9.7307   -9.5318 C   0  0  0  0  0  0  0  0  0  0  0  0
   -8.2830    8.7083   -9.9969 N   0  0  0  0  0  0  0  0  0  0  0  0
   -8.4214    8.8369  -11.3125 N   0  0  0  0  0  0  0  0  0  0  0  0
   -7.3299    9.8861   -8.0415 C   0  0  0  0  0  0  0  0  0  0  0  0
   -4.6020   13.8371  -11.3112 N   0  0  0  0  0  0  0  0  0  0  0  0
   -5.6232   13.6419  -12.1798 C   0  0  0  0  0  0  0  0  0  0  0  0
   -5.9069   14.4516  -13.0592 O   0  0  0  0  0  0  0  0  0  0  0  0
   -5.9473   10.4903   -7.7303 C   0  0  0  0  0  0  0  0  0  0  0  0
   -5.8632   11.7421   -7.1195 C   0  0  0  0  0  0  0  0  0  0  0  0
   -4.5901   12.2560   -6.8332 C   0  0  0  0  0  0  0  0  0  0  0  0
   -3.4296   11.5300   -7.2115 C   0  0  0  0  0  0  0  0  0  0  0  0
   -3.5045   10.2730   -7.8164 C   0  0  0  0  0  0  0  0  0  0  0  0
   -4.7945    9.7703   -8.0537 C   0  0  0  0  0  0  0  0  0  0  0  0
   -4.0643   13.4351   -6.1976 C   0  0  0  0  0  0  0  0  0  0  0  0
   -2.7662   13.4536   -6.2615 N   0  0  0  0  0  0  0  0  0  0  0  0
   -2.3669   12.3336   -6.8391 N   0  0  0  0  0  0  0  0  0  0  0  0
   -0.9435   12.0941   -6.9881 C   0  0  0  0  0  0  0  0  0  0  0  0
   -4.0340   12.9997  -10.2404 C   0  0  0  0  0  0  0  0  0  0  0  0
   -3.1550   14.1929   -9.9451 C   0  0  0  0  0  0  0  0  0  0  0  0
   -3.8070   15.0441  -11.0419 C   0  0  0  0  0  0  0  0  0  0  0  0
   -3.4251   14.7437   -8.6708 O   0  0  0  0  0  0  0  0  0  0  0  0
   -4.8009   14.9943   -8.3397 C   0  0  0  0  0  0  0  0  0  0  0  0
   -5.6096   11.6267  -10.3142 H   0  0  0  0  0  0  0  0  0  0  0  0
   -7.1557   12.5246  -10.1403 H   0  0  0  0  0  0  0  0  0  0  0  0
   -8.2044   10.1062  -13.9119 H   0  0  0  0  0  0  0  0  0  0  0  0
   -6.8892   12.2248  -14.1028 H   0  0  0  0  0  0  0  0  0  0  0  0
   -8.0981   10.5401   -7.6030 H   0  0  0  0  0  0  0  0  0  0  0  0
   -7.3843    8.8919   -7.5740 H   0  0  0  0  0  0  0  0  0  0  0  0
   -6.7546   12.3002   -6.8738 H   0  0  0  0  0  0  0  0  0  0  0  0
   -2.6185    9.7178   -8.0869 H   0  0  0  0  0  0  0  0  0  0  0  0
   -4.8988    8.7932   -8.5018 H   0  0  0  0  0  0  0  0  0  0  0  0
   -4.6664   14.2006   -5.7309 H   0  0  0  0  0  0  0  0  0  0  0  0
   -0.3825   12.9417   -6.5674 H   0  0  0  0  0  0  0  0  0  0  0  0
   -0.6691   11.1721   -6.4547 H   0  0  0  0  0  0  0  0  0  0  0  0
   -0.6996   11.9867   -8.0553 H   0  0  0  0  0  0  0  0  0  0  0  0
   -4.7360   12.7267   -9.4387 H   0  0  0  0  0  0  0  0  0  0  0  0
   -3.5013   12.1004  -10.5834 H   0  0  0  0  0  0  0  0  0  0  0  0
   -2.0904   13.9978  -10.1413 H   0  0  0  0  0  0  0  0  0  0  0  0
   -3.1360   15.3560  -11.8558 H   0  0  0  0  0  0  0  0  0  0  0  0
   -4.3787   15.9133  -10.6846 H   0  0  0  0  0  0  0  0  0  0  0  0
   -4.8633   15.4195   -7.3271 H   0  0  0  0  0  0  0  0  0  0  0  0
   -5.2283   15.7048   -9.0625 H   0  0  0  0  0  0  0  0  0  0  0  0
   -5.3645   14.0504   -8.3763 H   0  0  0  0  0  0  0  0  0  0  0  0
  1  2  1  0  0  0  0
  1  4  2  0  0  0  0
  1 12  1  0  0  0  0
  2  6  1  0  0  0  0
  3  4  1  0  0  0  0
  3  5  2  0  0  0  0
  5  6  1  0  0  0  0
  5  9  1  0  0  0  0
  6  7  2  0  0  0  0
  7  8  1  0  0  0  0
  7 10  1  0  0  0  0
  8  9  2  0  0  0  0
 10 14  1  0  0  0  0
 11 12  1  0  0  0  0
 11 24  1  0  0  0  0
 11 26  1  0  0  0  0
 12 13  2  0  0  0  0
 14 15  2  0  0  0  0
 14 19  1  0  0  0  0
 15 16  1  0  0  0  0
 16 17  2  0  0  0  0
 16 20  1  0  0  0  0
 17 18  1  0  0  0  0
 17 22  1  0  0  0  0
 18 19  2  0  0  0  0
 20 21  2  0  0  0  0
 21 22  1  0  0  0  0
 22 23  1  0  0  0  0
 24 25  1  0  0  0  0
 25 26  1  0  0  0  0
 25 27  1  0  0  0  0
 27 28  1  0  0  0  0
  2 29  1  0  0  0  0
  2 30  1  0  0  0  0
  3 31  1  0  0  0  0
  4 32  1  0  0  0  0
 10 33  1  0  0  0  0
 10 34  1  0  0  0  0
 15 35  1  0  0  0  0
 18 36  1  0  0  0  0
 19 37  1  0  0  0  0
 20 38  1  0  0  0  0
 23 39  1  0  0  0  0
 23 40  1  0  0  0  0
 23 41  1  0  0  0  0
 24 42  1  0  0  0  0
 24 43  1  0  0  0  0
 25 44  1  0  0  0  0
 26 45  1  0  0  0  0
 26 46  1  0  0  0  0
 28 47  1  0  0  0  0
 28 48  1  0  0  0  0
 28 49  1  0  0  0  0
M  END
> <Name>
45

> <IC50[uM]>
0.007

$$$$
45
  -OEChem-05192314333D
 Structure written by MMmdl.
 49 53  0     1  0  0  0  0  0999 V2000
   -6.4275   12.3453  -12.0176 C   0  0  0  0  0  0  0  0  0  0  0  0
   -6.6105   11.7832  -10.7429 C   0  0  0  0  0  0  0  0  0  0  0  0
   -7.7405   10.5587  -13.0479 C   0  0  0  0  0  0  0  0  0  0  0  0
   -7.0073   11.7527  -13.1387 C   0  0  0  0  0  0  0  0  0  0  0  0
   -7.8357    9.9872  -11.7695 C   0  0  0  0  0  0  0  0  0  0  0  0
   -7.2848   10.5993  -10.6252 C   0  0  3  0  0  0  0  0  0  0  0  0
   -7.6281    9.7307   -9.5318 C   0  0  0  0  0  0  0  0  0  0  0  0
   -8.2830    8.7083   -9.9969 N   0  0  0  0  0  0  0  0  0  0  0  0
   -8.4214    8.8369  -11.3125 N   0  0  0  0  0  0  0  0  0  0  0  0
   -7.3299    9.8861   -8.0415 C   0  0  0  0  0  0  0  0  0  0  0  0
   -4.6020   13.8371  -11.3112 N   0  0  0  0  0  0  0  0  0  0  0  0
   -5.6232   13.6419  -12.1798 C   0  0  0  0  0  0  0  0  0  0  0  0
   -5.9069   14.4516  -13.0592 O   0  0  0  0  0  0  0  0  0  0  0  0
   -5.9473   10.4903   -7.7303 C   0  0  0  0  0  0  0  0  0  0  0  0
   -5.8632   11.7421   -7.1195 C   0  0  0  0  0  0  0  0  0  0  0  0
   -4.5901   12.2560   -6.8332 C   0  0  0  0  0  0  0  0  0  0  0  0
   -3.4296   11.5300   -7.2115 C   0  0  0  0  0  0  0  0  0  0  0  0
   -3.5045   10.2730   -7.8164 C   0  0  0  0  0  0  0  0  0  0  0  0
   -4.7945    9.7703   -8.0537 C   0  0  0  0  0  0  0  0  0  0  0  0
   -4.0643   13.4351   -6.1976 C   0  0  0  0  0  0  0  0  0  0  0  0
   -2.7662   13.4536   -6.2615 N   0  0  0  0  0  0  0  0  0  0  0  0
   -2.3669   12.3336   -6.8391 N   0  0  0  0  0  0  0  0  0  0  0  0
   -0.9435   12.0941   -6.9881 C   0  0  0  0  0  0  0  0  0  0  0  0
   -4.0340   12.9997  -10.2404 C   0  0  0  0  0  0  0  0  0  0  0  0
   -3.1550   14.1929   -9.9451 C   0  0  0  0  0  0  0  0  0  0  0  0
   -3.8070   15.0441  -11.0419 C   0  0  0  0  0  0  0  0  0  0  0  0
   -3.4251   14.7437   -8.6708 O   0  0  0  0  0  0  0  0  0  0  0  0
   -4.8009   14.9943   -8.3397 C   0  0  0  0  0  0  0  0  0  0  0  0
   -6.2230   12.2805   -9.8660 H   0  0  0  0  0  0  0  0  0  0  0  0
   -8.2044   10.1062  -13.9119 H   0  0  0  0  0  0  0  0  0  0  0  0
   -6.8892   12.2248  -14.1028 H   0  0  0  0  0  0  0  0  0  0  0  0
   -6.3465   10.0453  -10.7758 H   0  0  0  0  0  0  0  0  0  0  0  0
   -8.6283    7.9452   -9.4506 H   0  0  0  0  0  0  0  0  0  0  0  0
   -8.0293    9.5968   -7.2711 H   0  0  0  0  0  0  0  0  0  0  0  0
   -6.7546   12.3002   -6.8738 H   0  0  0  0  0  0  0  0  0  0  0  0
   -2.6185    9.7178   -8.0869 H   0  0  0  0  0  0  0  0  0  0  0  0
   -4.8988    8.7932   -8.5018 H   0  0  0  0  0  0  0  0  0  0  0  0
   -4.6664   14.2006   -5.7309 H   0  0  0  0  0  0  0  0  0  0  0  0
   -0.3825   12.9417   -6.5674 H   0  0  0  0  0  0  0  0  0  0  0  0
   -0.6691   11.1721   -6.4547 H   0  0  0  0  0  0  0  0  0  0  0  0
   -0.6996   11.9867   -8.0553 H   0  0  0  0  0  0  0  0  0  0  0  0
   -4.7360   12.7267   -9.4387 H   0  0  0  0  0  0  0  0  0  0  0  0
   -3.5013   12.1004  -10.5834 H   0  0  0  0  0  0  0  0  0  0  0  0
   -2.0904   13.9978  -10.1413 H   0  0  0  0  0  0  0  0  0  0  0  0
   -3.1360   15.3560  -11.8558 H   0  0  0  0  0  0  0  0  0  0  0  0
   -4.3787   15.9133  -10.6846 H   0  0  0  0  0  0  0  0  0  0  0  0
   -4.8633   15.4195   -7.3271 H   0  0  0  0  0  0  0  0  0  0  0  0
   -5.2283   15.7048   -9.0625 H   0  0  0  0  0  0  0  0  0  0  0  0
   -5.3645   14.0504   -8.3763 H   0  0  0  0  0  0  0  0  0  0  0  0
  1  2  2  0  0  0  0
  1  4  1  0  0  0  0
  1 12  1  0  0  0  0
  2  6  1  0  0  0  0
  3  4  2  0  0  0  0
  3  5  1  0  0  0  0
  5  6  1  0  0  0  0
  5  9  2  0  0  0  0
  6  7  1  0  0  0  0
  7  8  1  0  0  0  0
  7 10  2  3  0  0  0
  8  9  1  0  0  0  0
 10 14  1  0  0  0  0
 11 12  1  0  0  0  0
 11 24  1  0  0  0  0
 11 26  1  0  0  0  0
 12 13  2  0  0  0  0
 14 15  2  0  0  0  0
 14 19  1  0  0  0  0
 15 16  1  0  0  0  0
 16 17  2  0  0  0  0
 16 20  1  0  0  0  0
 17 18  1  0  0  0  0
 17 22  1  0  0  0  0
 18 19  2  0  0  0  0
 20 21  2  0  0  0  0
 21 22  1  0  0  0  0
 22 23  1  0  0  0  0
 24 25  1  0  0  0  0
 25 26  1  0  0  0  0
 25 27  1  0  0  0  0
 27 28  1  0  0  0  0
  2 29  1  0  0  0  0
  3 30  1  0  0  0  0
  4 31  1  0  0  0  0
  6 32  1  0  0  0  0
  8 33  1  0  0  0  0
 10 34  1  0  0  0  0
 15 35  1  0  0  0  0
 18 36  1  0  0  0  0
 19 37  1  0  0  0  0
 20 38  1  0  0  0  0
 23 39  1  0  0  0  0
 23 40  1  0  0  0  0
 23 41  1  0  0  0  0
 24 42  1  0  0  0  0
 24 43  1  0  0  0  0
 25 44  1  0  0  0  0
 26 45  1  0  0  0  0
 26 46  1  0  0  0  0
 28 47  1  0  0  0  0
 28 48  1  0  0  0  0
 28 49  1  0  0  0  0
M  END
> <Name>
45

> <IC50[uM]>
0.007

$$$$
45
  -OEChem-05192314333D
 Structure written by MMmdl.
 49 53  0     1  0  0  0  0  0999 V2000
   -6.4275   12.3453  -12.0176 C   0  0  0  0  0  0  0  0  0  0  0  0
   -6.6105   11.7832  -10.7429 C   0  0  0  0  0  0  0  0  0  0  0  0
   -7.7405   10.5587  -13.0479 C   0  0  0  0  0  0  0  0  0  0  0  0
   -7.0073   11.7527  -13.1387 C   0  0  0  0  0  0  0  0  0  0  0  0
   -7.8357    9.9872  -11.7695 C   0  0  0  0  0  0  0  0  0  0  0  0
   -7.2848   10.5993  -10.6252 C   0  0  0  0  0  0  0  0  0  0  0  0
   -7.6281    9.7307   -9.5318 C   0  0  0  0  0  0  0  0  0  0  0  0
   -8.2830    8.7083   -9.9969 N   0  0  0  0  0  0  0  0  0  0  0  0
   -8.4214    8.8369  -11.3125 N   0  0  0  0  0  0  0  0  0  0  0  0
   -7.3299    9.8861   -8.0415 C   0  0  0  0  0  0  0  0  0  0  0  0
   -4.6020   13.8371  -11.3112 N   0  0  0  0  0  0  0  0  0  0  0  0
   -5.6232   13.6419  -12.1798 C   0  0  0  0  0  0  0  0  0  0  0  0
   -5.9069   14.4516  -13.0592 O   0  0  0  0  0  0  0  0  0  0  0  0
   -5.9473   10.4903   -7.7303 C   0  0  0  0  0  0  0  0  0  0  0  0
   -5.8632   11.7421   -7.1195 C   0  0  0  0  0  0  0  0  0  0  0  0
   -4.5901   12.2560   -6.8332 C   0  0  0  0  0  0  0  0  0  0  0  0
   -3.4296   11.5300   -7.2115 C   0  0  3  0  0  0  0  0  0  0  0  0
   -3.5045   10.2730   -7.8164 C   0  0  0  0  0  0  0  0  0  0  0  0
   -4.7945    9.7703   -8.0537 C   0  0  0  0  0  0  0  0  0  0  0  0
   -4.0643   13.4351   -6.1976 C   0  0  0  0  0  0  0  0  0  0  0  0
   -2.7662   13.4536   -6.2615 N   0  0  0  0  0  0  0  0  0  0  0  0
   -2.3669   12.3336   -6.8391 N   0  0  3  0  0  0  0  0  0  0  0  0
   -0.9435   12.0941   -6.9881 C   0  0  0  0  0  0  0  0  0  0  0  0
   -4.0340   12.9997  -10.2404 C   0  0  0  0  0  0  0  0  0  0  0  0
   -3.1550   14.1929   -9.9451 C   0  0  0  0  0  0  0  0  0  0  0  0
   -3.8070   15.0441  -11.0419 C   0  0  0  0  0  0  0  0  0  0  0  0
   -3.4251   14.7437   -8.6708 O   0  0  0  0  0  0  0  0  0  0  0  0
   -4.8009   14.9943   -8.3397 C   0  0  0  0  0  0  0  0  0  0  0  0
   -6.2230   12.2805   -9.8660 H   0  0  0  0  0  0  0  0  0  0  0  0
   -8.2044   10.1062  -13.9119 H   0  0  0  0  0  0  0  0  0  0  0  0
   -6.8892   12.2248  -14.1028 H   0  0  0  0  0  0  0  0  0  0  0  0
   -8.6283    7.9452   -9.4506 H   0  0  0  0  0  0  0  0  0  0  0  0
   -8.0293    9.5968   -7.2711 H   0  0  0  0  0  0  0  0  0  0  0  0
   -6.7546   12.3002   -6.8738 H   0  0  0  0  0  0  0  0  0  0  0  0
   -3.4490   12.0100   -8.2010 H   0  0  0  0  0  0  0  0  0  0  0  0
   -2.6185    9.7178   -8.0869 H   0  0  0  0  0  0  0  0  0  0  0  0
   -4.8988    8.7932   -8.5018 H   0  0  0  0  0  0  0  0  0  0  0  0
   -4.6664   14.2006   -5.7309 H   0  0  0  0  0  0  0  0  0  0  0  0
   -0.3825   12.9417   -6.5674 H   0  0  0  0  0  0  0  0  0  0  0  0
   -0.6691   11.1721   -6.4547 H   0  0  0  0  0  0  0  0  0  0  0  0
   -0.6996   11.9867   -8.0553 H   0  0  0  0  0  0  0  0  0  0  0  0
   -4.7360   12.7267   -9.4387 H   0  0  0  0  0  0  0  0  0  0  0  0
   -3.5013   12.1004  -10.5834 H   0  0  0  0  0  0  0  0  0  0  0  0
   -2.0904   13.9978  -10.1413 H   0  0  0  0  0  0  0  0  0  0  0  0
   -3.1360   15.3560  -11.8558 H   0  0  0  0  0  0  0  0  0  0  0  0
   -4.3787   15.9133  -10.6846 H   0  0  0  0  0  0  0  0  0  0  0  0
   -4.8633   15.4195   -7.3271 H   0  0  0  0  0  0  0  0  0  0  0  0
   -5.2283   15.7048   -9.0625 H   0  0  0  0  0  0  0  0  0  0  0  0
   -5.3645   14.0504   -8.3763 H   0  0  0  0  0  0  0  0  0  0  0  0
  1  2  2  0  0  0  0
  1  4  1  0  0  0  0
  1 12  1  0  0  0  0
  2  6  1  0  0  0  0
  3  4  2  0  0  0  0
  3  5  1  0  0  0  0
  5  6  1  0  0  0  0
  5  9  2  0  0  0  0
  6  7  2  0  0  0  0
  7  8  1  0  0  0  0
  7 10  1  0  0  0  0
  8  9  1  0  0  0  0
 10 14  2  3  0  0  0
 11 12  1  0  0  0  0
 11 24  1  0  0  0  0
 11 26  1  0  0  0  0
 12 13  2  0  0  0  0
 14 15  1  0  0  0  0
 14 19  1  0  0  0  0
 15 16  2  0  0  0  0
 16 17  1  0  0  0  0
 16 20  1  0  0  0  0
 17 18  1  0  0  0  0
 17 22  1  0  0  0  0
 18 19  2  0  0  0  0
 20 21  2  0  0  0  0
 21 22  1  0  0  0  0
 22 23  1  0  0  0  0
 24 25  1  0  0  0  0
 25 26  1  0  0  0  0
 25 27  1  0  0  0  0
 27 28  1  0  0  0  0
  2 29  1  0  0  0  0
  3 30  1  0  0  0  0
  4 31  1  0  0  0  0
  8 32  1  0  0  0  0
 10 33  1  0  0  0  0
 15 34  1  0  0  0  0
 17 35  1  0  0  0  0
 18 36  1  0  0  0  0
 19 37  1  0  0  0  0
 20 38  1  0  0  0  0
 23 39  1  0  0  0  0
 23 40  1  0  0  0  0
 23 41  1  0  0  0  0
 24 42  1  0  0  0  0
 24 43  1  0  0  0  0
 25 44  1  0  0  0  0
 26 45  1  0  0  0  0
 26 46  1  0  0  0  0
 28 47  1  0  0  0  0
 28 48  1  0  0  0  0
 28 49  1  0  0  0  0
M  END
> <Name>
45

> <IC50[uM]>
0.007

$$$$
45
  -OEChem-05192314333D
 Structure written by MMmdl.
 49 53  0     1  0  0  0  0  0999 V2000
   -6.4275   12.3453  -12.0176 C   0  0  0  0  0  0  0  0  0  0  0  0
   -6.6105   11.7832  -10.7429 C   0  0  0  0  0  0  0  0  0  0  0  0
   -7.7405   10.5587  -13.0479 C   0  0  0  0  0  0  0  0  0  0  0  0
   -7.0073   11.7527  -13.1387 C   0  0  0  0  0  0  0  0  0  0  0  0
   -7.8357    9.9872  -11.7695 C   0  0  0  0  0  0  0  0  0  0  0  0
   -7.2848   10.5993  -10.6252 C   0  0  0  0  0  0  0  0  0  0  0  0
   -7.6281    9.7307   -9.5318 C   0  0  0  0  0  0  0  0  0  0  0  0
   -8.2830    8.7083   -9.9969 N   0  0  0  0  0  0  0  0  0  0  0  0
   -8.4214    8.8369  -11.3125 N   0  0  0  0  0  0  0  0  0  0  0  0
   -7.3299    9.8861   -8.0415 C   0  0  0  0  0  0  0  0  0  0  0  0
   -4.6020   13.8371  -11.3112 N   0  0  0  0  0  0  0  0  0  0  0  0
   -5.6232   13.6419  -12.1798 C   0  0  0  0  0  0  0  0  0  0  0  0
   -5.9069   14.4516  -13.0592 O   0  0  0  0  0  0  0  0  0  0  0  0
   -5.9473   10.4903   -7.7303 C   0  0  0  0  0  0  0  0  0  0  0  0
   -5.8632   11.7421   -7.1195 C   0  0  0  0  0  0  0  0  0  0  0  0
   -4.5901   12.2560   -6.8332 C   0  0  0  0  0  0  0  0  0  0  0  0
   -3.4296   11.5300   -7.2115 C   0  0  3  0  0  0  0  0  0  0  0  0
   -3.5045   10.2730   -7.8164 C   0  0  0  0  0  0  0  0  0  0  0  0
   -4.7945    9.7703   -8.0537 C   0  0  0  0  0  0  0  0  0  0  0  0
   -4.0643   13.4351   -6.1976 C   0  0  0  0  0  0  0  0  0  0  0  0
   -2.7662   13.4536   -6.2615 N   0  0  0  0  0  0  0  0  0  0  0  0
   -2.3669   12.3336   -6.8391 N   0  0  3  0  0  0  0  0  0  0  0  0
   -0.9435   12.0941   -6.9881 C   0  0  0  0  0  0  0  0  0  0  0  0
   -4.0340   12.9997  -10.2404 C   0  0  0  0  0  0  0  0  0  0  0  0
   -3.1550   14.1929   -9.9451 C   0  0  0  0  0  0  0  0  0  0  0  0
   -3.8070   15.0441  -11.0419 C   0  0  0  0  0  0  0  0  0  0  0  0
   -3.4251   14.7437   -8.6708 O   0  0  0  0  0  0  0  0  0  0  0  0
   -4.8009   14.9943   -8.3397 C   0  0  0  0  0  0  0  0  0  0  0  0
   -6.2230   12.2805   -9.8660 H   0  0  0  0  0  0  0  0  0  0  0  0
   -8.2044   10.1062  -13.9119 H   0  0  0  0  0  0  0  0  0  0  0  0
   -6.8892   12.2248  -14.1028 H   0  0  0  0  0  0  0  0  0  0  0  0
   -8.8941    8.1763  -11.8957 H   0  0  0  0  0  0  0  0  0  0  0  0
   -8.0293    9.5968   -7.2711 H   0  0  0  0  0  0  0  0  0  0  0  0
   -6.7546   12.3002   -6.8738 H   0  0  0  0  0  0  0  0  0  0  0  0
   -3.4490   12.0100   -8.2010 H   0  0  0  0  0  0  0  0  0  0  0  0
   -2.6185    9.7178   -8.0869 H   0  0  0  0  0  0  0  0  0  0  0  0
   -4.8988    8.7932   -8.5018 H   0  0  0  0  0  0  0  0  0  0  0  0
   -4.6664   14.2006   -5.7309 H   0  0  0  0  0  0  0  0  0  0  0  0
   -0.3825   12.9417   -6.5674 H   0  0  0  0  0  0  0  0  0  0  0  0
   -0.6691   11.1721   -6.4547 H   0  0  0  0  0  0  0  0  0  0  0  0
   -0.6996   11.9867   -8.0553 H   0  0  0  0  0  0  0  0  0  0  0  0
   -4.7360   12.7267   -9.4387 H   0  0  0  0  0  0  0  0  0  0  0  0
   -3.5013   12.1004  -10.5834 H   0  0  0  0  0  0  0  0  0  0  0  0
   -2.0904   13.9978  -10.1413 H   0  0  0  0  0  0  0  0  0  0  0  0
   -3.1360   15.3560  -11.8558 H   0  0  0  0  0  0  0  0  0  0  0  0
   -4.3787   15.9133  -10.6846 H   0  0  0  0  0  0  0  0  0  0  0  0
   -4.8633   15.4195   -7.3271 H   0  0  0  0  0  0  0  0  0  0  0  0
   -5.2283   15.7048   -9.0625 H   0  0  0  0  0  0  0  0  0  0  0  0
   -5.3645   14.0504   -8.3763 H   0  0  0  0  0  0  0  0  0  0  0  0
  1  2  2  0  0  0  0
  1  4  1  0  0  0  0
  1 12  1  0  0  0  0
  2  6  1  0  0  0  0
  3  4  2  0  0  0  0
  3  5  1  0  0  0  0
  5  6  2  0  0  0  0
  5  9  1  0  0  0  0
  6  7  1  0  0  0  0
  7  8  2  0  0  0  0
  7 10  1  0  0  0  0
  8  9  1  0  0  0  0
 10 14  2  3  0  0  0
 11 12  1  0  0  0  0
 11 24  1  0  0  0  0
 11 26  1  0  0  0  0
 12 13  2  0  0  0  0
 14 15  1  0  0  0  0
 14 19  1  0  0  0  0
 15 16  2  0  0  0  0
 16 17  1  0  0  0  0
 16 20  1  0  0  0  0
 17 18  1  0  0  0  0
 17 22  1  0  0  0  0
 18 19  2  0  0  0  0
 20 21  2  0  0  0  0
 21 22  1  0  0  0  0
 22 23  1  0  0  0  0
 24 25  1  0  0  0  0
 25 26  1  0  0  0  0
 25 27  1  0  0  0  0
 27 28  1  0  0  0  0
  2 29  1  0  0  0  0
  3 30  1  0  0  0  0
  4 31  1  0  0  0  0
  9 32  1  0  0  0  0
 10 33  1  0  0  0  0
 15 34  1  0  0  0  0
 17 35  1  0  0  0  0
 18 36  1  0  0  0  0
 19 37  1  0  0  0  0
 20 38  1  0  0  0  0
 23 39  1  0  0  0  0
 23 40  1  0  0  0  0
 23 41  1  0  0  0  0
 24 42  1  0  0  0  0
 24 43  1  0  0  0  0
 25 44  1  0  0  0  0
 26 45  1  0  0  0  0
 26 46  1  0  0  0  0
 28 47  1  0  0  0  0
 28 48  1  0  0  0  0
 28 49  1  0  0  0  0
M  END
> <Name>
45

> <IC50[uM]>
0.007

$$$$
45
  -OEChem-05192314333D
 Structure written by MMmdl.
 49 53  0     1  0  0  0  0  0999 V2000
   -6.4275   12.3453  -12.0176 C   0  0  0  0  0  0  0  0  0  0  0  0
   -6.6105   11.7832  -10.7429 C   0  0  0  0  0  0  0  0  0  0  0  0
   -7.7405   10.5587  -13.0479 C   0  0  0  0  0  0  0  0  0  0  0  0
   -7.0073   11.7527  -13.1387 C   0  0  0  0  0  0  0  0  0  0  0  0
   -7.8357    9.9872  -11.7695 C   0  0  0  0  0  0  0  0  0  0  0  0
   -7.2848   10.5993  -10.6252 C   0  0  0  0  0  0  0  0  0  0  0  0
   -7.6281    9.7307   -9.5318 C   0  0  0  0  0  0  0  0  0  0  0  0
   -8.2830    8.7083   -9.9969 N   0  0  0  0  0  0  0  0  0  0  0  0
   -8.4214    8.8369  -11.3125 N   0  0  0  0  0  0  0  0  0  0  0  0
   -7.3299    9.8861   -8.0415 C   0  0  0  0  0  0  0  0  0  0  0  0
   -4.6020   13.8371  -11.3112 N   0  0  0  0  0  0  0  0  0  0  0  0
   -5.6232   13.6419  -12.1798 C   0  0  0  0  0  0  0  0  0  0  0  0
   -5.9069   14.4516  -13.0592 O   0  0  0  0  0  0  0  0  0  0  0  0
   -5.9473   10.4903   -7.7303 C   0  0  3  0  0  0  0  0  0  0  0  0
   -5.8632   11.7421   -7.1195 C   0  0  0  0  0  0  0  0  0  0  0  0
   -4.5901   12.2560   -6.8332 C   0  0  0  0  0  0  0  0  0  0  0  0
   -3.4296   11.5300   -7.2115 C   0  0  3  0  0  0  0  0  0  0  0  0
   -3.5045   10.2730   -7.8164 C   0  0  0  0  0  0  0  0  0  0  0  0
   -4.7945    9.7703   -8.0537 C   0  0  0  0  0  0  0  0  0  0  0  0
   -4.0643   13.4351   -6.1976 C   0  0  0  0  0  0  0  0  0  0  0  0
   -2.7662   13.4536   -6.2615 N   0  0  0  0  0  0  0  0  0  0  0  0
   -2.3669   12.3336   -6.8391 N   0  0  3  0  0  0  0  0  0  0  0  0
   -0.9435   12.0941   -6.9881 C   0  0  0  0  0  0  0  0  0  0  0  0
   -4.0340   12.9997  -10.2404 C   0  0  0  0  0  0  0  0  0  0  0  0
   -3.1550   14.1929   -9.9451 C   0  0  0  0  0  0  0  0  0  0  0  0
   -3.8070   15.0441  -11.0419 C   0  0  0  0  0  0  0  0  0  0  0  0
   -3.4251   14.7437   -8.6708 O   0  0  0  0  0  0  0  0  0  0  0  0
   -4.8009   14.9943   -8.3397 C   0  0  0  0  0  0  0  0  0  0  0  0
   -6.2230   12.2805   -9.8660 H   0  0  0  0  0  0  0  0  0  0  0  0
   -8.2044   10.1062  -13.9119 H   0  0  0  0  0  0  0  0  0  0  0  0
   -6.8892   12.2248  -14.1028 H   0  0  0  0  0  0  0  0  0  0  0  0
   -8.0293    9.5968   -7.2711 H   0  0  0  0  0  0  0  0  0  0  0  0
   -5.9302   10.9688   -8.7206 H   0  0  0  0  0  0  0  0  0  0  0  0
   -6.7546   12.3002   -6.8738 H   0  0  0  0  0  0  0  0  0  0  0  0
   -3.4490   12.0100   -8.2010 H   0  0  0  0  0  0  0  0  0  0  0  0
   -2.6185    9.7178   -8.0869 H   0  0  0  0  0  0  0  0  0  0  0  0
   -4.8988    8.7932   -8.5018 H   0  0  0  0  0  0  0  0  0  0  0  0
   -4.6664   14.2006   -5.7309 H   0  0  0  0  0  0  0  0  0  0  0  0
   -0.3825   12.9417   -6.5674 H   0  0  0  0  0  0  0  0  0  0  0  0
   -0.6691   11.1721   -6.4547 H   0  0  0  0  0  0  0  0  0  0  0  0
   -0.6996   11.9867   -8.0553 H   0  0  0  0  0  0  0  0  0  0  0  0
   -4.7360   12.7267   -9.4387 H   0  0  0  0  0  0  0  0  0  0  0  0
   -3.5013   12.1004  -10.5834 H   0  0  0  0  0  0  0  0  0  0  0  0
   -2.0904   13.9978  -10.1413 H   0  0  0  0  0  0  0  0  0  0  0  0
   -3.1360   15.3560  -11.8558 H   0  0  0  0  0  0  0  0  0  0  0  0
   -4.3787   15.9133  -10.6846 H   0  0  0  0  0  0  0  0  0  0  0  0
   -4.8633   15.4195   -7.3271 H   0  0  0  0  0  0  0  0  0  0  0  0
   -5.2283   15.7048   -9.0625 H   0  0  0  0  0  0  0  0  0  0  0  0
   -5.3645   14.0504   -8.3763 H   0  0  0  0  0  0  0  0  0  0  0  0
  1  2  2  0  0  0  0
  1  4  1  0  0  0  0
  1 12  1  0  0  0  0
  2  6  1  0  0  0  0
  3  4  2  0  0  0  0
  3  5  1  0  0  0  0
  5  6  2  0  0  0  0
  5  9  1  0  0  0  0
  6  7  1  0  0  0  0
  7  8  1  0  0  0  0
  7 10  2  3  0  0  0
  8  9  2  0  0  0  0
 10 14  1  0  0  0  0
 11 12  1  0  0  0  0
 11 24  1  0  0  0  0
 11 26  1  0  0  0  0
 12 13  2  0  0  0  0
 14 15  1  0  0  0  0
 14 19  1  0  0  0  0
 15 16  2  0  0  0  0
 16 17  1  0  0  0  0
 16 20  1  0  0  0  0
 17 18  1  0  0  0  0
 17 22  1  0  0  0  0
 18 19  2  0  0  0  0
 20 21  2  0  0  0  0
 21 22  1  0  0  0  0
 22 23  1  0  0  0  0
 24 25  1  0  0  0  0
 25 26  1  0  0  0  0
 25 27  1  0  0  0  0
 27 28  1  0  0  0  0
  2 29  1  0  0  0  0
  3 30  1  0  0  0  0
  4 31  1  0  0  0  0
 10 32  1  0  0  0  0
 14 33  1  0  0  0  0
 15 34  1  0  0  0  0
 17 35  1  0  0  0  0
 18 36  1  0  0  0  0
 19 37  1  0  0  0  0
 20 38  1  0  0  0  0
 23 39  1  0  0  0  0
 23 40  1  0  0  0  0
 23 41  1  0  0  0  0
 24 42  1  0  0  0  0
 24 43  1  0  0  0  0
 25 44  1  0  0  0  0
 26 45  1  0  0  0  0
 26 46  1  0  0  0  0
 28 47  1  0  0  0  0
 28 48  1  0  0  0  0
 28 49  1  0  0  0  0
M  END
> <Name>
45

> <IC50[uM]>
0.007

$$$$
45
  -OEChem-05192314333D
 Structure written by MMmdl.
 49 53  0     1  0  0  0  0  0999 V2000
   -6.4275   12.3453  -12.0176 C   0  0  0  0  0  0  0  0  0  0  0  0
   -6.6105   11.7832  -10.7429 C   0  0  0  0  0  0  0  0  0  0  0  0
   -7.7405   10.5587  -13.0479 C   0  0  0  0  0  0  0  0  0  0  0  0
   -7.0073   11.7527  -13.1387 C   0  0  0  0  0  0  0  0  0  0  0  0
   -7.8357    9.9872  -11.7695 C   0  0  0  0  0  0  0  0  0  0  0  0
   -7.2848   10.5993  -10.6252 C   0  0  0  0  0  0  0  0  0  0  0  0
   -7.6281    9.7307   -9.5318 C   0  0  0  0  0  0  0  0  0  0  0  0
   -8.2830    8.7083   -9.9969 N   0  0  0  0  0  0  0  0  0  0  0  0
   -8.4214    8.8369  -11.3125 N   0  0  0  0  0  0  0  0  0  0  0  0
   -7.3299    9.8861   -8.0415 C   0  0  0  0  0  0  0  0  0  0  0  0
   -4.6020   13.8371  -11.3112 N   0  0  0  0  0  0  0  0  0  0  0  0
   -5.6232   13.6419  -12.1798 C   0  0  0  0  0  0  0  0  0  0  0  0
   -5.9069   14.4516  -13.0592 O   0  0  0  0  0  0  0  0  0  0  0  0
   -5.9473   10.4903   -7.7303 C   0  0  0  0  0  0  0  0  0  0  0  0
   -5.8632   11.7421   -7.1195 C   0  0  0  0  0  0  0  0  0  0  0  0
   -4.5901   12.2560   -6.8332 C   0  0  3  0  0  0  0  0  0  0  0  0
   -3.4296   11.5300   -7.2115 C   0  0  3  0  0  0  0  0  0  0  0  0
   -3.5045   10.2730   -7.8164 C   0  0  0  0  0  0  0  0  0  0  0  0
   -4.7945    9.7703   -8.0537 C   0  0  0  0  0  0  0  0  0  0  0  0
   -4.0643   13.4351   -6.1976 C   0  0  0  0  0  0  0  0  0  0  0  0
   -2.7662   13.4536   -6.2615 N   0  0  0  0  0  0  0  0  0  0  0  0
   -2.3669   12.3336   -6.8391 N   0  0  3  0  0  0  0  0  0  0  0  0
   -0.9435   12.0941   -6.9881 C   0  0  0  0  0  0  0  0  0  0  0  0
   -4.0340   12.9997  -10.2404 C   0  0  0  0  0  0  0  0  0  0  0  0
   -3.1550   14.1929   -9.9451 C   0  0  0  0  0  0  0  0  0  0  0  0
   -3.8070   15.0441  -11.0419 C   0  0  0  0  0  0  0  0  0  0  0  0
   -3.4251   14.7437   -8.6708 O   0  0  0  0  0  0  0  0  0  0  0  0
   -4.8009   14.9943   -8.3397 C   0  0  0  0  0  0  0  0  0  0  0  0
   -6.2230   12.2805   -9.8660 H   0  0  0  0  0  0  0  0  0  0  0  0
   -8.2044   10.1062  -13.9119 H   0  0  0  0  0  0  0  0  0  0  0  0
   -6.8892   12.2248  -14.1028 H   0  0  0  0  0  0  0  0  0  0  0  0
   -8.0293    9.5968   -7.2711 H   0  0  0  0  0  0  0  0  0  0  0  0
   -6.7546   12.3002   -6.8738 H   0  0  0  0  0  0  0  0  0  0  0  0
   -4.5987   11.7370   -5.8634 H   0  0  0  0  0  0  0  0  0  0  0  0
   -3.4490   12.0100   -8.2010 H   0  0  0  0  0  0  0  0  0  0  0  0
   -2.6185    9.7178   -8.0869 H   0  0  0  0  0  0  0  0  0  0  0  0
   -4.8988    8.7932   -8.5018 H   0  0  0  0  0  0  0  0  0  0  0  0
   -4.6664   14.2006   -5.7309 H   0  0  0  0  0  0  0  0  0  0  0  0
   -0.3825   12.9417   -6.5674 H   0  0  0  0  0  0  0  0  0  0  0  0
   -0.6691   11.1721   -6.4547 H   0  0  0  0  0  0  0  0  0  0  0  0
   -0.6996   11.9867   -8.0553 H   0  0  0  0  0  0  0  0  0  0  0  0
   -4.7360   12.7267   -9.4387 H   0  0  0  0  0  0  0  0  0  0  0  0
   -3.5013   12.1004  -10.5834 H   0  0  0  0  0  0  0  0  0  0  0  0
   -2.0904   13.9978  -10.1413 H   0  0  0  0  0  0  0  0  0  0  0  0
   -3.1360   15.3560  -11.8558 H   0  0  0  0  0  0  0  0  0  0  0  0
   -4.3787   15.9133  -10.6846 H   0  0  0  0  0  0  0  0  0  0  0  0
   -4.8633   15.4195   -7.3271 H   0  0  0  0  0  0  0  0  0  0  0  0
   -5.2283   15.7048   -9.0625 H   0  0  0  0  0  0  0  0  0  0  0  0
   -5.3645   14.0504   -8.3763 H   0  0  0  0  0  0  0  0  0  0  0  0
  1  2  2  0  0  0  0
  1  4  1  0  0  0  0
  1 12  1  0  0  0  0
  2  6  1  0  0  0  0
  3  4  2  0  0  0  0
  3  5  1  0  0  0  0
  5  6  2  0  0  0  0
  5  9  1  0  0  0  0
  6  7  1  0  0  0  0
  7  8  1  0  0  0  0
  7 10  2  3  0  0  0
  8  9  2  0  0  0  0
 10 14  1  0  0  0  0
 11 12  1  0  0  0  0
 11 24  1  0  0  0  0
 11 26  1  0  0  0  0
 12 13  2  0  0  0  0
 14 15  2  0  0  0  0
 14 19  1  0  0  0  0
 15 16  1  0  0  0  0
 16 17  1  0  0  0  0
 16 20  1  0  0  0  0
 17 18  1  0  0  0  0
 17 22  1  0  0  0  0
 18 19  2  0  0  0  0
 20 21  2  0  0  0  0
 21 22  1  0  0  0  0
 22 23  1  0  0  0  0
 24 25  1  0  0  0  0
 25 26  1  0  0  0  0
 25 27  1  0  0  0  0
 27 28  1  0  0  0  0
  2 29  1  0  0  0  0
  3 30  1  0  0  0  0
  4 31  1  0  0  0  0
 10 32  1  0  0  0  0
 15 33  1  0  0  0  0
 16 34  1  0  0  0  0
 17 35  1  0  0  0  0
 18 36  1  0  0  0  0
 19 37  1  0  0  0  0
 20 38  1  0  0  0  0
 23 39  1  0  0  0  0
 23 40  1  0  0  0  0
 23 41  1  0  0  0  0
 24 42  1  0  0  0  0
 24 43  1  0  0  0  0
 25 44  1  0  0  0  0
 26 45  1  0  0  0  0
 26 46  1  0  0  0  0
 28 47  1  0  0  0  0
 28 48  1  0  0  0  0
 28 49  1  0  0  0  0
M  END
> <Name>
45

> <IC50[uM]>
0.007

$$$$
45
  -OEChem-05192314333D
 Structure written by MMmdl.
 49 53  0     1  0  0  0  0  0999 V2000
   -6.4275   12.3453  -12.0176 C   0  0  0  0  0  0  0  0  0  0  0  0
   -6.6105   11.7832  -10.7429 C   0  0  0  0  0  0  0  0  0  0  0  0
   -7.7405   10.5587  -13.0479 C   0  0  0  0  0  0  0  0  0  0  0  0
   -7.0073   11.7527  -13.1387 C   0  0  0  0  0  0  0  0  0  0  0  0
   -7.8357    9.9872  -11.7695 C   0  0  0  0  0  0  0  0  0  0  0  0
   -7.2848   10.5993  -10.6252 C   0  0  0  0  0  0  0  0  0  0  0  0
   -7.6281    9.7307   -9.5318 C   0  0  3  0  0  0  0  0  0  0  0  0
   -8.2830    8.7083   -9.9969 N   0  0  0  0  0  0  0  0  0  0  0  0
   -8.4214    8.8369  -11.3125 N   0  0  0  0  0  0  0  0  0  0  0  0
   -7.3299    9.8861   -8.0415 C   0  0  0  0  0  0  0  0  0  0  0  0
   -4.6020   13.8371  -11.3112 N   0  0  0  0  0  0  0  0  0  0  0  0
   -5.6232   13.6419  -12.1798 C   0  0  0  0  0  0  0  0  0  0  0  0
   -5.9069   14.4516  -13.0592 O   0  0  0  0  0  0  0  0  0  0  0  0
   -5.9473   10.4903   -7.7303 C   0  0  0  0  0  0  0  0  0  0  0  0
   -5.8632   11.7421   -7.1195 C   0  0  0  0  0  0  0  0  0  0  0  0
   -4.5901   12.2560   -6.8332 C   0  0  0  0  0  0  0  0  0  0  0  0
   -3.4296   11.5300   -7.2115 C   0  0  3  0  0  0  0  0  0  0  0  0
   -3.5045   10.2730   -7.8164 C   0  0  0  0  0  0  0  0  0  0  0  0
   -4.7945    9.7703   -8.0537 C   0  0  0  0  0  0  0  0  0  0  0  0
   -4.0643   13.4351   -6.1976 C   0  0  0  0  0  0  0  0  0  0  0  0
   -2.7662   13.4536   -6.2615 N   0  0  0  0  0  0  0  0  0  0  0  0
   -2.3669   12.3336   -6.8391 N   0  0  3  0  0  0  0  0  0  0  0  0
   -0.9435   12.0941   -6.9881 C   0  0  0  0  0  0  0  0  0  0  0  0
   -4.0340   12.9997  -10.2404 C   0  0  0  0  0  0  0  0  0  0  0  0
   -3.1550   14.1929   -9.9451 C   0  0  0  0  0  0  0  0  0  0  0  0
   -3.8070   15.0441  -11.0419 C   0  0  0  0  0  0  0  0  0  0  0  0
   -3.4251   14.7437   -8.6708 O   0  0  0  0  0  0  0  0  0  0  0  0
   -4.8009   14.9943   -8.3397 C   0  0  0  0  0  0  0  0  0  0  0  0
   -6.2230   12.2805   -9.8660 H   0  0  0  0  0  0  0  0  0  0  0  0
   -8.2044   10.1062  -13.9119 H   0  0  0  0  0  0  0  0  0  0  0  0
   -6.8892   12.2248  -14.1028 H   0  0  0  0  0  0  0  0  0  0  0  0
   -6.6815    9.1866   -9.6655 H   0  0  0  0  0  0  0  0  0  0  0  0
   -8.0293    9.5968   -7.2711 H   0  0  0  0  0  0  0  0  0  0  0  0
   -6.7546   12.3002   -6.8738 H   0  0  0  0  0  0  0  0  0  0  0  0
   -3.4490   12.0100   -8.2010 H   0  0  0  0  0  0  0  0  0  0  0  0
   -2.6185    9.7178   -8.0869 H   0  0  0  0  0  0  0  0  0  0  0  0
   -4.8988    8.7932   -8.5018 H   0  0  0  0  0  0  0  0  0  0  0  0
   -4.6664   14.2006   -5.7309 H   0  0  0  0  0  0  0  0  0  0  0  0
   -0.3825   12.9417   -6.5674 H   0  0  0  0  0  0  0  0  0  0  0  0
   -0.6691   11.1721   -6.4547 H   0  0  0  0  0  0  0  0  0  0  0  0
   -0.6996   11.9867   -8.0553 H   0  0  0  0  0  0  0  0  0  0  0  0
   -4.7360   12.7267   -9.4387 H   0  0  0  0  0  0  0  0  0  0  0  0
   -3.5013   12.1004  -10.5834 H   0  0  0  0  0  0  0  0  0  0  0  0
   -2.0904   13.9978  -10.1413 H   0  0  0  0  0  0  0  0  0  0  0  0
   -3.1360   15.3560  -11.8558 H   0  0  0  0  0  0  0  0  0  0  0  0
   -4.3787   15.9133  -10.6846 H   0  0  0  0  0  0  0  0  0  0  0  0
   -4.8633   15.4195   -7.3271 H   0  0  0  0  0  0  0  0  0  0  0  0
   -5.2283   15.7048   -9.0625 H   0  0  0  0  0  0  0  0  0  0  0  0
   -5.3645   14.0504   -8.3763 H   0  0  0  0  0  0  0  0  0  0  0  0
  1  2  2  0  0  0  0
  1  4  1  0  0  0  0
  1 12  1  0  0  0  0
  2  6  1  0  0  0  0
  3  4  2  0  0  0  0
  3  5  1  0  0  0  0
  5  6  2  0  0  0  0
  5  9  1  0  0  0  0
  6  7  1  0  0  0  0
  7  8  1  0  0  0  0
  7 10  1  0  0  0  0
  8  9  2  0  0  0  0
 10 14  2  3  0  0  0
 11 12  1  0  0  0  0
 11 24  1  0  0  0  0
 11 26  1  0  0  0  0
 12 13  2  0  0  0  0
 14 15  1  0  0  0  0
 14 19  1  0  0  0  0
 15 16  2  0  0  0  0
 16 17  1  0  0  0  0
 16 20  1  0  0  0  0
 17 18  1  0  0  0  0
 17 22  1  0  0  0  0
 18 19  2  0  0  0  0
 20 21  2  0  0  0  0
 21 22  1  0  0  0  0
 22 23  1  0  0  0  0
 24 25  1  0  0  0  0
 25 26  1  0  0  0  0
 25 27  1  0  0  0  0
 27 28  1  0  0  0  0
  2 29  1  0  0  0  0
  3 30  1  0  0  0  0
  4 31  1  0  0  0  0
  7 32  1  0  0  0  0
 10 33  1  0  0  0  0
 15 34  1  0  0  0  0
 17 35  1  0  0  0  0
 18 36  1  0  0  0  0
 19 37  1  0  0  0  0
 20 38  1  0  0  0  0
 23 39  1  0  0  0  0
 23 40  1  0  0  0  0
 23 41  1  0  0  0  0
 24 42  1  0  0  0  0
 24 43  1  0  0  0  0
 25 44  1  0  0  0  0
 26 45  1  0  0  0  0
 26 46  1  0  0  0  0
 28 47  1  0  0  0  0
 28 48  1  0  0  0  0
 28 49  1  0  0  0  0
M  END
> <Name>
45

> <IC50[uM]>
0.007

$$$$
45
  -OEChem-05192314333D
 Structure written by MMmdl.
 49 53  0     1  0  0  0  0  0999 V2000
   -6.4275   12.3453  -12.0176 C   0  0  0  0  0  0  0  0  0  0  0  0
   -6.6105   11.7832  -10.7429 C   0  0  0  0  0  0  0  0  0  0  0  0
   -7.7405   10.5587  -13.0479 C   0  0  0  0  0  0  0  0  0  0  0  0
   -7.0073   11.7527  -13.1387 C   0  0  0  0  0  0  0  0  0  0  0  0
   -7.8357    9.9872  -11.7695 C   0  0  0  0  0  0  0  0  0  0  0  0
   -7.2848   10.5993  -10.6252 C   0  0  0  0  0  0  0  0  0  0  0  0
   -7.6281    9.7307   -9.5318 C   0  0  0  0  0  0  0  0  0  0  0  0
   -8.2830    8.7083   -9.9969 N   0  0  0  0  0  0  0  0  0  0  0  0
   -8.4214    8.8369  -11.3125 N   0  0  0  0  0  0  0  0  0  0  0  0
   -7.3299    9.8861   -8.0415 C   0  0  0  0  0  0  0  0  0  0  0  0
   -4.6020   13.8371  -11.3112 N   0  0  0  0  0  0  0  0  0  0  0  0
   -5.6232   13.6419  -12.1798 C   0  0  0  0  0  0  0  0  0  0  0  0
   -5.9069   14.4516  -13.0592 O   0  0  0  0  0  0  0  0  0  0  0  0
   -5.9473   10.4903   -7.7303 C   0  0  0  0  0  0  0  0  0  0  0  0
   -5.8632   11.7421   -7.1195 C   0  0  0  0  0  0  0  0  0  0  0  0
   -4.5901   12.2560   -6.8332 C   0  0  0  0  0  0  0  0  0  0  0  0
   -3.4296   11.5300   -7.2115 C   0  0  3  0  0  0  0  0  0  0  0  0
   -3.5045   10.2730   -7.8164 C   0  0  0  0  0  0  0  0  0  0  0  0
   -4.7945    9.7703   -8.0537 C   0  0  0  0  0  0  0  0  0  0  0  0
   -4.0643   13.4351   -6.1976 C   0  0  0  0  0  0  0  0  0  0  0  0
   -2.7662   13.4536   -6.2615 N   0  0  0  0  0  0  0  0  0  0  0  0
   -2.3669   12.3336   -6.8391 N   0  0  3  0  0  0  0  0  0  0  0  0
   -0.9435   12.0941   -6.9881 C   0  0  0  0  0  0  0  0  0  0  0  0
   -4.0340   12.9997  -10.2404 C   0  0  0  0  0  0  0  0  0  0  0  0
   -3.1550   14.1929   -9.9451 C   0  0  0  0  0  0  0  0  0  0  0  0
   -3.8070   15.0441  -11.0419 C   0  0  0  0  0  0  0  0  0  0  0  0
   -3.4251   14.7437   -8.6708 O   0  0  0  0  0  0  0  0  0  0  0  0
   -4.8009   14.9943   -8.3397 C   0  0  0  0  0  0  0  0  0  0  0  0
   -6.2230   12.2805   -9.8660 H   0  0  0  0  0  0  0  0  0  0  0  0
   -8.2044   10.1062  -13.9119 H   0  0  0  0  0  0  0  0  0  0  0  0
   -6.8892   12.2248  -14.1028 H   0  0  0  0  0  0  0  0  0  0  0  0
   -8.0293    9.5968   -7.2711 H   0  0  0  0  0  0  0  0  0  0  0  0
   -6.7546   12.3002   -6.8738 H   0  0  0  0  0  0  0  0  0  0  0  0
   -3.4490   12.0100   -8.2010 H   0  0  0  0  0  0  0  0  0  0  0  0
   -2.9865   10.3361   -8.7847 H   0  0  0  0  0  0  0  0  0  0  0  0
   -2.9806    9.5569   -7.1663 H   0  0  0  0  0  0  0  0  0  0  0  0
   -4.8988    8.7932   -8.5018 H   0  0  0  0  0  0  0  0  0  0  0  0
   -4.6664   14.2006   -5.7309 H   0  0  0  0  0  0  0  0  0  0  0  0
   -0.3825   12.9417   -6.5674 H   0  0  0  0  0  0  0  0  0  0  0  0
   -0.6691   11.1721   -6.4547 H   0  0  0  0  0  0  0  0  0  0  0  0
   -0.6996   11.9867   -8.0553 H   0  0  0  0  0  0  0  0  0  0  0  0
   -4.7360   12.7267   -9.4387 H   0  0  0  0  0  0  0  0  0  0  0  0
   -3.5013   12.1004  -10.5834 H   0  0  0  0  0  0  0  0  0  0  0  0
   -2.0904   13.9978  -10.1413 H   0  0  0  0  0  0  0  0  0  0  0  0
   -3.1360   15.3560  -11.8558 H   0  0  0  0  0  0  0  0  0  0  0  0
   -4.3787   15.9133  -10.6846 H   0  0  0  0  0  0  0  0  0  0  0  0
   -4.8633   15.4195   -7.3271 H   0  0  0  0  0  0  0  0  0  0  0  0
   -5.2283   15.7048   -9.0625 H   0  0  0  0  0  0  0  0  0  0  0  0
   -5.3645   14.0504   -8.3763 H   0  0  0  0  0  0  0  0  0  0  0  0
  1  2  2  0  0  0  0
  1  4  1  0  0  0  0
  1 12  1  0  0  0  0
  2  6  1  0  0  0  0
  3  4  2  0  0  0  0
  3  5  1  0  0  0  0
  5  6  2  0  0  0  0
  5  9  1  0  0  0  0
  6  7  1  0  0  0  0
  7  8  1  0  0  0  0
  7 10  2  3  0  0  0
  8  9  2  0  0  0  0
 10 14  1  0  0  0  0
 11 12  1  0  0  0  0
 11 24  1  0  0  0  0
 11 26  1  0  0  0  0
 12 13  2  0  0  0  0
 14 15  1  0  0  0  0
 14 19  2  0  0  0  0
 15 16  2  0  0  0  0
 16 17  1  0  0  0  0
 16 20  1  0  0  0  0
 17 18  1  0  0  0  0
 17 22  1  0  0  0  0
 18 19  1  0  0  0  0
 20 21  2  0  0  0  0
 21 22  1  0  0  0  0
 22 23  1  0  0  0  0
 24 25  1  0  0  0  0
 25 26  1  0  0  0  0
 25 27  1  0  0  0  0
 27 28  1  0  0  0  0
  2 29  1  0  0  0  0
  3 30  1  0  0  0  0
  4 31  1  0  0  0  0
 10 32  1  0  0  0  0
 15 33  1  0  0  0  0
 17 34  1  0  0  0  0
 18 35  1  0  0  0  0
 18 36  1  0  0  0  0
 19 37  1  0  0  0  0
 20 38  1  0  0  0  0
 23 39  1  0  0  0  0
 23 40  1  0  0  0  0
 23 41  1  0  0  0  0
 24 42  1  0  0  0  0
 24 43  1  0  0  0  0
 25 44  1  0  0  0  0
 26 45  1  0  0  0  0
 26 46  1  0  0  0  0
 28 47  1  0  0  0  0
 28 48  1  0  0  0  0
 28 49  1  0  0  0  0
M  END
> <Name>
45

> <IC50[uM]>
0.007

$$$$
45
  -OEChem-05192314333D
 Structure written by MMmdl.
 49 53  0     1  0  0  0  0  0999 V2000
   -6.4275   12.3453  -12.0176 C   0  0  0  0  0  0  0  0  0  0  0  0
   -6.6105   11.7832  -10.7429 C   0  0  0  0  0  0  0  0  0  0  0  0
   -7.7405   10.5587  -13.0479 C   0  0  0  0  0  0  0  0  0  0  0  0
   -7.0073   11.7527  -13.1387 C   0  0  0  0  0  0  0  0  0  0  0  0
   -7.8357    9.9872  -11.7695 C   0  0  0  0  0  0  0  0  0  0  0  0
   -7.2848   10.5993  -10.6252 C   0  0  0  0  0  0  0  0  0  0  0  0
   -7.6281    9.7307   -9.5318 C   0  0  0  0  0  0  0  0  0  0  0  0
   -8.2830    8.7083   -9.9969 N   0  0  0  0  0  0  0  0  0  0  0  0
   -8.4214    8.8369  -11.3125 N   0  0  0  0  0  0  0  0  0  0  0  0
   -7.3299    9.8861   -8.0415 C   0  0  0  0  0  0  0  0  0  0  0  0
   -4.6020   13.8371  -11.3112 N   0  0  0  0  0  0  0  0  0  0  0  0
   -5.6232   13.6419  -12.1798 C   0  0  0  0  0  0  0  0  0  0  0  0
   -5.9069   14.4516  -13.0592 O   0  0  0  0  0  0  0  0  0  0  0  0
   -5.9473   10.4903   -7.7303 C   0  0  0  0  0  0  0  0  0  0  0  0
   -5.8632   11.7421   -7.1195 C   0  0  0  0  0  0  0  0  0  0  0  0
   -4.5901   12.2560   -6.8332 C   0  0  3  0  0  0  0  0  0  0  0  0
   -3.4296   11.5300   -7.2115 C   0  0  0  0  0  0  0  0  0  0  0  0
   -3.5045   10.2730   -7.8164 C   0  0  0  0  0  0  0  0  0  0  0  0
   -4.7945    9.7703   -8.0537 C   0  0  0  0  0  0  0  0  0  0  0  0
   -4.0643   13.4351   -6.1976 C   0  0  0  0  0  0  0  0  0  0  0  0
   -2.7662   13.4536   -6.2615 N   0  0  0  0  0  0  0  0  0  0  0  0
   -2.3669   12.3336   -6.8391 N   0  0  0  0  0  0  0  0  0  0  0  0
   -0.9435   12.0941   -6.9881 C   0  0  0  0  0  0  0  0  0  0  0  0
   -4.0340   12.9997  -10.2404 C   0  0  0  0  0  0  0  0  0  0  0  0
   -3.1550   14.1929   -9.9451 C   0  0  0  0  0  0  0  0  0  0  0  0
   -3.8070   15.0441  -11.0419 C   0  0  0  0  0  0  0  0  0  0  0  0
   -3.4251   14.7437   -8.6708 O   0  0  0  0  0  0  0  0  0  0  0  0
   -4.8009   14.9943   -8.3397 C   0  0  0  0  0  0  0  0  0  0  0  0
   -6.2230   12.2805   -9.8660 H   0  0  0  0  0  0  0  0  0  0  0  0
   -8.2044   10.1062  -13.9119 H   0  0  0  0  0  0  0  0  0  0  0  0
   -6.8892   12.2248  -14.1028 H   0  0  0  0  0  0  0  0  0  0  0  0
   -8.0293    9.5968   -7.2711 H   0  0  0  0  0  0  0  0  0  0  0  0
   -6.7546   12.3002   -6.8738 H   0  0  0  0  0  0  0  0  0  0  0  0
   -4.5987   11.7370   -5.8634 H   0  0  0  0  0  0  0  0  0  0  0  0
   -2.6185    9.7178   -8.0869 H   0  0  0  0  0  0  0  0  0  0  0  0
   -4.8603    8.8218   -7.5006 H   0  0  0  0  0  0  0  0  0  0  0  0
   -4.8514    9.5697   -9.1338 H   0  0  0  0  0  0  0  0  0  0  0  0
   -4.6664   14.2006   -5.7309 H   0  0  0  0  0  0  0  0  0  0  0  0
   -0.3825   12.9417   -6.5674 H   0  0  0  0  0  0  0  0  0  0  0  0
   -0.6691   11.1721   -6.4547 H   0  0  0  0  0  0  0  0  0  0  0  0
   -0.6996   11.9867   -8.0553 H   0  0  0  0  0  0  0  0  0  0  0  0
   -4.7360   12.7267   -9.4387 H   0  0  0  0  0  0  0  0  0  0  0  0
   -3.5013   12.1004  -10.5834 H   0  0  0  0  0  0  0  0  0  0  0  0
   -2.0904   13.9978  -10.1413 H   0  0  0  0  0  0  0  0  0  0  0  0
   -3.1360   15.3560  -11.8558 H   0  0  0  0  0  0  0  0  0  0  0  0
   -4.3787   15.9133  -10.6846 H   0  0  0  0  0  0  0  0  0  0  0  0
   -4.8633   15.4195   -7.3271 H   0  0  0  0  0  0  0  0  0  0  0  0
   -5.2283   15.7048   -9.0625 H   0  0  0  0  0  0  0  0  0  0  0  0
   -5.3645   14.0504   -8.3763 H   0  0  0  0  0  0  0  0  0  0  0  0
  1  2  2  0  0  0  0
  1  4  1  0  0  0  0
  1 12  1  0  0  0  0
  2  6  1  0  0  0  0
  3  4  2  0  0  0  0
  3  5  1  0  0  0  0
  5  6  2  0  0  0  0
  5  9  1  0  0  0  0
  6  7  1  0  0  0  0
  7  8  1  0  0  0  0
  7 10  2  3  0  0  0
  8  9  2  0  0  0  0
 10 14  1  0  0  0  0
 11 12  1  0  0  0  0
 11 24  1  0  0  0  0
 11 26  1  0  0  0  0
 12 13  2  0  0  0  0
 14 15  2  0  0  0  0
 14 19  1  0  0  0  0
 15 16  1  0  0  0  0
 16 17  1  0  0  0  0
 16 20  1  0  0  0  0
 17 18  2  0  0  0  0
 17 22  1  0  0  0  0
 18 19  1  0  0  0  0
 20 21  2  0  0  0  0
 21 22  1  0  0  0  0
 22 23  1  0  0  0  0
 24 25  1  0  0  0  0
 25 26  1  0  0  0  0
 25 27  1  0  0  0  0
 27 28  1  0  0  0  0
  2 29  1  0  0  0  0
  3 30  1  0  0  0  0
  4 31  1  0  0  0  0
 10 32  1  0  0  0  0
 15 33  1  0  0  0  0
 16 34  1  0  0  0  0
 18 35  1  0  0  0  0
 19 36  1  0  0  0  0
 19 37  1  0  0  0  0
 20 38  1  0  0  0  0
 23 39  1  0  0  0  0
 23 40  1  0  0  0  0
 23 41  1  0  0  0  0
 24 42  1  0  0  0  0
 24 43  1  0  0  0  0
 25 44  1  0  0  0  0
 26 45  1  0  0  0  0
 26 46  1  0  0  0  0
 28 47  1  0  0  0  0
 28 48  1  0  0  0  0
 28 49  1  0  0  0  0
M  END
> <Name>
45

> <IC50[uM]>
0.007

$$$$
45
  -OEChem-05192314333D
 Structure written by MMmdl.
 49 53  0     1  0  0  0  0  0999 V2000
   -6.4275   12.3453  -12.0176 C   0  0  0  0  0  0  0  0  0  0  0  0
   -6.6105   11.7832  -10.7429 C   0  0  0  0  0  0  0  0  0  0  0  0
   -7.7405   10.5587  -13.0479 C   0  0  0  0  0  0  0  0  0  0  0  0
   -7.0073   11.7527  -13.1387 C   0  0  0  0  0  0  0  0  0  0  0  0
   -7.8357    9.9872  -11.7695 C   0  0  0  0  0  0  0  0  0  0  0  0
   -7.2848   10.5993  -10.6252 C   0  0  0  0  0  0  0  0  0  0  0  0
   -7.6281    9.7307   -9.5318 C   0  0  0  0  0  0  0  0  0  0  0  0
   -8.2830    8.7083   -9.9969 N   0  0  0  0  0  0  0  0  0  0  0  0
   -8.4214    8.8369  -11.3125 N   0  0  0  0  0  0  0  0  0  0  0  0
   -7.3299    9.8861   -8.0415 C   0  0  0  0  0  0  0  0  0  0  0  0
   -4.6020   13.8371  -11.3112 N   0  0  0  0  0  0  0  0  0  0  0  0
   -5.6232   13.6419  -12.1798 C   0  0  0  0  0  0  0  0  0  0  0  0
   -5.9069   14.4516  -13.0592 O   0  0  0  0  0  0  0  0  0  0  0  0
   -5.9473   10.4903   -7.7303 C   0  0  0  0  0  0  0  0  0  0  0  0
   -5.8632   11.7421   -7.1195 C   0  0  0  0  0  0  0  0  0  0  0  0
   -4.5901   12.2560   -6.8332 C   0  0  3  0  0  0  0  0  0  0  0  0
   -3.4296   11.5300   -7.2115 C   0  0  0  0  0  0  0  0  0  0  0  0
   -3.5045   10.2730   -7.8164 C   0  0  0  0  0  0  0  0  0  0  0  0
   -4.7945    9.7703   -8.0537 C   0  0  0  0  0  0  0  0  0  0  0  0
   -4.0643   13.4351   -6.1976 C   0  0  0  0  0  0  0  0  0  0  0  0
   -2.7662   13.4536   -6.2615 N   0  0  0  0  0  0  0  0  0  0  0  0
   -2.3669   12.3336   -6.8391 N   0  0  0  0  0  0  0  0  0  0  0  0
   -0.9435   12.0941   -6.9881 C   0  0  0  0  0  0  0  0  0  0  0  0
   -4.0340   12.9997  -10.2404 C   0  0  0  0  0  0  0  0  0  0  0  0
   -3.1550   14.1929   -9.9451 C   0  0  0  0  0  0  0  0  0  0  0  0
   -3.8070   15.0441  -11.0419 C   0  0  0  0  0  0  0  0  0  0  0  0
   -3.4251   14.7437   -8.6708 O   0  0  0  0  0  0  0  0  0  0  0  0
   -4.8009   14.9943   -8.3397 C   0  0  0  0  0  0  0  0  0  0  0  0
   -6.2230   12.2805   -9.8660 H   0  0  0  0  0  0  0  0  0  0  0  0
   -8.2044   10.1062  -13.9119 H   0  0  0  0  0  0  0  0  0  0  0  0
   -6.8892   12.2248  -14.1028 H   0  0  0  0  0  0  0  0  0  0  0  0
   -8.0293    9.5968   -7.2711 H   0  0  0  0  0  0  0  0  0  0  0  0
   -6.3642   12.4628   -7.7826 H   0  0  0  0  0  0  0  0  0  0  0  0
   -6.4105   11.6778   -6.1675 H   0  0  0  0  0  0  0  0  0  0  0  0
   -4.5987   11.7370   -5.8634 H   0  0  0  0  0  0  0  0  0  0  0  0
   -2.6185    9.7178   -8.0869 H   0  0  0  0  0  0  0  0  0  0  0  0
   -4.8988    8.7932   -8.5018 H   0  0  0  0  0  0  0  0  0  0  0  0
   -4.6664   14.2006   -5.7309 H   0  0  0  0  0  0  0  0  0  0  0  0
   -0.3825   12.9417   -6.5674 H   0  0  0  0  0  0  0  0  0  0  0  0
   -0.6691   11.1721   -6.4547 H   0  0  0  0  0  0  0  0  0  0  0  0
   -0.6996   11.9867   -8.0553 H   0  0  0  0  0  0  0  0  0  0  0  0
   -4.7360   12.7267   -9.4387 H   0  0  0  0  0  0  0  0  0  0  0  0
   -3.5013   12.1004  -10.5834 H   0  0  0  0  0  0  0  0  0  0  0  0
   -2.0904   13.9978  -10.1413 H   0  0  0  0  0  0  0  0  0  0  0  0
   -3.1360   15.3560  -11.8558 H   0  0  0  0  0  0  0  0  0  0  0  0
   -4.3787   15.9133  -10.6846 H   0  0  0  0  0  0  0  0  0  0  0  0
   -4.8633   15.4195   -7.3271 H   0  0  0  0  0  0  0  0  0  0  0  0
   -5.2283   15.7048   -9.0625 H   0  0  0  0  0  0  0  0  0  0  0  0
   -5.3645   14.0504   -8.3763 H   0  0  0  0  0  0  0  0  0  0  0  0
  1  2  2  0  0  0  0
  1  4  1  0  0  0  0
  1 12  1  0  0  0  0
  2  6  1  0  0  0  0
  3  4  2  0  0  0  0
  3  5  1  0  0  0  0
  5  6  2  0  0  0  0
  5  9  1  0  0  0  0
  6  7  1  0  0  0  0
  7  8  1  0  0  0  0
  7 10  2  3  0  0  0
  8  9  2  0  0  0  0
 10 14  1  0  0  0  0
 11 12  1  0  0  0  0
 11 24  1  0  0  0  0
 11 26  1  0  0  0  0
 12 13  2  0  0  0  0
 14 15  1  0  0  0  0
 14 19  2  0  0  0  0
 15 16  1  0  0  0  0
 16 17  1  0  0  0  0
 16 20  1  0  0  0  0
 17 18  2  0  0  0  0
 17 22  1  0  0  0  0
 18 19  1  0  0  0  0
 20 21  2  0  0  0  0
 21 22  1  0  0  0  0
 22 23  1  0  0  0  0
 24 25  1  0  0  0  0
 25 26  1  0  0  0  0
 25 27  1  0  0  0  0
 27 28  1  0  0  0  0
  2 29  1  0  0  0  0
  3 30  1  0  0  0  0
  4 31  1  0  0  0  0
 10 32  1  0  0  0  0
 15 33  1  0  0  0  0
 15 34  1  0  0  0  0
 16 35  1  0  0  0  0
 18 36  1  0  0  0  0
 19 37  1  0  0  0  0
 20 38  1  0  0  0  0
 23 39  1  0  0  0  0
 23 40  1  0  0  0  0
 23 41  1  0  0  0  0
 24 42  1  0  0  0  0
 24 43  1  0  0  0  0
 25 44  1  0  0  0  0
 26 45  1  0  0  0  0
 26 46  1  0  0  0  0
 28 47  1  0  0  0  0
 28 48  1  0  0  0  0
 28 49  1  0  0  0  0
M  END
> <Name>
45

> <IC50[uM]>
0.007

$$$$
45
  -OEChem-05192314333D
 Structure written by MMmdl.
 49 53  0     1  0  0  0  0  0999 V2000
   -6.4275   12.3453  -12.0176 C   0  0  0  0  0  0  0  0  0  0  0  0
   -6.6105   11.7832  -10.7429 C   0  0  0  0  0  0  0  0  0  0  0  0
   -7.7405   10.5587  -13.0479 C   0  0  0  0  0  0  0  0  0  0  0  0
   -7.0073   11.7527  -13.1387 C   0  0  0  0  0  0  0  0  0  0  0  0
   -7.8357    9.9872  -11.7695 C   0  0  0  0  0  0  0  0  0  0  0  0
   -7.2848   10.5993  -10.6252 C   0  0  0  0  0  0  0  0  0  0  0  0
   -7.6281    9.7307   -9.5318 C   0  0  0  0  0  0  0  0  0  0  0  0
   -8.2830    8.7083   -9.9969 N   0  0  0  0  0  0  0  0  0  0  0  0
   -8.4214    8.8369  -11.3125 N   0  0  0  0  0  0  0  0  0  0  0  0
   -7.3299    9.8861   -8.0415 C   0  0  0  0  0  0  0  0  0  0  0  0
   -4.6020   13.8371  -11.3112 N   0  0  0  0  0  0  0  0  0  0  0  0
   -5.6232   13.6419  -12.1798 C   0  0  0  0  0  0  0  0  0  0  0  0
   -5.9069   14.4516  -13.0592 O   0  0  0  0  0  0  0  0  0  0  0  0
   -5.9473   10.4903   -7.7303 C   0  0  0  0  0  0  0  0  0  0  0  0
   -5.8632   11.7421   -7.1195 C   0  0  0  0  0  0  0  0  0  0  0  0
   -4.5901   12.2560   -6.8332 C   0  0  0  0  0  0  0  0  0  0  0  0
   -3.4296   11.5300   -7.2115 C   0  0  3  0  0  0  0  0  0  0  0  0
   -3.5045   10.2730   -7.8164 C   0  0  0  0  0  0  0  0  0  0  0  0
   -4.7945    9.7703   -8.0537 C   0  0  0  0  0  0  0  0  0  0  0  0
   -4.0643   13.4351   -6.1976 C   0  0  0  0  0  0  0  0  0  0  0  0
   -2.7662   13.4536   -6.2615 N   0  0  0  0  0  0  0  0  0  0  0  0
   -2.3669   12.3336   -6.8391 N   0  0  3  0  0  0  0  0  0  0  0  0
   -0.9435   12.0941   -6.9881 C   0  0  0  0  0  0  0  0  0  0  0  0
   -4.0340   12.9997  -10.2404 C   0  0  0  0  0  0  0  0  0  0  0  0
   -3.1550   14.1929   -9.9451 C   0  0  0  0  0  0  0  0  0  0  0  0
   -3.8070   15.0441  -11.0419 C   0  0  0  0  0  0  0  0  0  0  0  0
   -3.4251   14.7437   -8.6708 O   0  0  0  0  0  0  0  0  0  0  0  0
   -4.8009   14.9943   -8.3397 C   0  0  0  0  0  0  0  0  0  0  0  0
   -6.2230   12.2805   -9.8660 H   0  0  0  0  0  0  0  0  0  0  0  0
   -8.2044   10.1062  -13.9119 H   0  0  0  0  0  0  0  0  0  0  0  0
   -6.8892   12.2248  -14.1028 H   0  0  0  0  0  0  0  0  0  0  0  0
   -8.0293    9.5968   -7.2711 H   0  0  0  0  0  0  0  0  0  0  0  0
   -6.7546   12.3002   -6.8738 H   0  0  0  0  0  0  0  0  0  0  0  0
   -3.4490   12.0100   -8.2010 H   0  0  0  0  0  0  0  0  0  0  0  0
   -2.6185    9.7178   -8.0869 H   0  0  0  0  0  0  0  0  0  0  0  0
   -4.8988    8.7932   -8.5018 H   0  0  0  0  0  0  0  0  0  0  0  0
   -4.6664   14.2006   -5.7309 H   0  0  0  0  0  0  0  0  0  0  0  0
   -2.4647   14.2395   -6.8014 H   0  0  0  0  0  0  0  0  0  0  0  0
   -0.3828   12.9479   -6.5800 H   0  0  0  0  0  0  0  0  0  0  0  0
   -0.6667   11.1796   -6.4431 H   0  0  0  0  0  0  0  0  0  0  0  0
   -0.7019   11.9728   -8.0544 H   0  0  0  0  0  0  0  0  0  0  0  0
   -4.7360   12.7267   -9.4387 H   0  0  0  0  0  0  0  0  0  0  0  0
   -3.5013   12.1004  -10.5834 H   0  0  0  0  0  0  0  0  0  0  0  0
   -2.0904   13.9978  -10.1413 H   0  0  0  0  0  0  0  0  0  0  0  0
   -3.1360   15.3560  -11.8558 H   0  0  0  0  0  0  0  0  0  0  0  0
   -4.3787   15.9133  -10.6846 H   0  0  0  0  0  0  0  0  0  0  0  0
   -4.8633   15.4195   -7.3271 H   0  0  0  0  0  0  0  0  0  0  0  0
   -5.2283   15.7048   -9.0625 H   0  0  0  0  0  0  0  0  0  0  0  0
   -5.3645   14.0504   -8.3763 H   0  0  0  0  0  0  0  0  0  0  0  0
  1  2  2  0  0  0  0
  1  4  1  0  0  0  0
  1 12  1  0  0  0  0
  2  6  1  0  0  0  0
  3  4  2  0  0  0  0
  3  5  1  0  0  0  0
  5  6  2  0  0  0  0
  5  9  1  0  0  0  0
  6  7  1  0  0  0  0
  7  8  1  0  0  0  0
  7 10  2  3  0  0  0
  8  9  2  0  0  0  0
 10 14  1  0  0  0  0
 11 12  1  0  0  0  0
 11 24  1  0  0  0  0
 11 26  1  0  0  0  0
 12 13  2  0  0  0  0
 14 15  2  0  0  0  0
 14 19  1  0  0  0  0
 15 16  1  0  0  0  0
 16 17  1  0  0  0  0
 16 20  2  0  0  0  0
 17 18  1  0  0  0  0
 17 22  1  0  0  0  0
 18 19  2  0  0  0  0
 20 21  1  0  0  0  0
 21 22  1  0  0  0  0
 22 23  1  0  0  0  0
 24 25  1  0  0  0  0
 25 26  1  0  0  0  0
 25 27  1  0  0  0  0
 27 28  1  0  0  0  0
  2 29  1  0  0  0  0
  3 30  1  0  0  0  0
  4 31  1  0  0  0  0
 10 32  1  0  0  0  0
 15 33  1  0  0  0  0
 17 34  1  0  0  0  0
 18 35  1  0  0  0  0
 19 36  1  0  0  0  0
 20 37  1  0  0  0  0
 21 38  1  0  0  0  0
 23 39  1  0  0  0  0
 23 40  1  0  0  0  0
 23 41  1  0  0  0  0
 24 42  1  0  0  0  0
 24 43  1  0  0  0  0
 25 44  1  0  0  0  0
 26 45  1  0  0  0  0
 26 46  1  0  0  0  0
 28 47  1  0  0  0  0
 28 48  1  0  0  0  0
 28 49  1  0  0  0  0
M  END
> <Name>
45

> <IC50[uM]>
0.007

$$$$
45
  -OEChem-05192314333D
 Structure written by MMmdl.
 49 53  0     1  0  0  0  0  0999 V2000
   -6.4275   12.3453  -12.0176 C   0  0  0  0  0  0  0  0  0  0  0  0
   -6.6105   11.7832  -10.7429 C   0  0  0  0  0  0  0  0  0  0  0  0
   -7.7405   10.5587  -13.0479 C   0  0  0  0  0  0  0  0  0  0  0  0
   -7.0073   11.7527  -13.1387 C   0  0  0  0  0  0  0  0  0  0  0  0
   -7.8357    9.9872  -11.7695 C   0  0  0  0  0  0  0  0  0  0  0  0
   -7.2848   10.5993  -10.6252 C   0  0  0  0  0  0  0  0  0  0  0  0
   -7.6281    9.7307   -9.5318 C   0  0  0  0  0  0  0  0  0  0  0  0
   -8.2830    8.7083   -9.9969 N   0  0  0  0  0  0  0  0  0  0  0  0
   -8.4214    8.8369  -11.3125 N   0  0  0  0  0  0  0  0  0  0  0  0
   -7.3299    9.8861   -8.0415 C   0  0  0  0  0  0  0  0  0  0  0  0
   -4.6020   13.8371  -11.3112 N   0  0  0  0  0  0  0  0  0  0  0  0
   -5.6232   13.6419  -12.1798 C   0  0  0  0  0  0  0  0  0  0  0  0
   -5.9069   14.4516  -13.0592 O   0  0  0  0  0  0  0  0  0  0  0  0
   -5.9473   10.4903   -7.7303 C   0  0  0  0  0  0  0  0  0  0  0  0
   -5.8632   11.7421   -7.1195 C   0  0  0  0  0  0  0  0  0  0  0  0
   -4.5901   12.2560   -6.8332 C   0  0  0  0  0  0  0  0  0  0  0  0
   -3.4296   11.5300   -7.2115 C   0  0  0  0  0  0  0  0  0  0  0  0
   -3.5045   10.2730   -7.8164 C   0  0  0  0  0  0  0  0  0  0  0  0
   -4.7945    9.7703   -8.0537 C   0  0  0  0  0  0  0  0  0  0  0  0
   -4.0643   13.4351   -6.1976 C   0  0  0  0  0  0  0  0  0  0  0  0
   -2.7662   13.4536   -6.2615 N   0  0  0  0  0  0  0  0  0  0  0  0
   -2.3669   12.3336   -6.8391 N   0  0  3  0  0  0  0  0  0  0  0  0
   -0.9435   12.0941   -6.9881 C   0  0  0  0  0  0  0  0  0  0  0  0
   -4.0340   12.9997  -10.2404 C   0  0  0  0  0  0  0  0  0  0  0  0
   -3.1550   14.1929   -9.9451 C   0  0  0  0  0  0  0  0  0  0  0  0
   -3.8070   15.0441  -11.0419 C   0  0  0  0  0  0  0  0  0  0  0  0
   -3.4251   14.7437   -8.6708 O   0  0  0  0  0  0  0  0  0  0  0  0
   -4.8009   14.9943   -8.3397 C   0  0  0  0  0  0  0  0  0  0  0  0
   -6.2230   12.2805   -9.8660 H   0  0  0  0  0  0  0  0  0  0  0  0
   -8.2044   10.1062  -13.9119 H   0  0  0  0  0  0  0  0  0  0  0  0
   -6.8892   12.2248  -14.1028 H   0  0  0  0  0  0  0  0  0  0  0  0
   -8.0293    9.5968   -7.2711 H   0  0  0  0  0  0  0  0  0  0  0  0
   -6.7546   12.3002   -6.8738 H   0  0  0  0  0  0  0  0  0  0  0  0
   -2.6185    9.7178   -8.0869 H   0  0  0  0  0  0  0  0  0  0  0  0
   -4.8603    8.8218   -7.5006 H   0  0  0  0  0  0  0  0  0  0  0  0
   -4.8514    9.5697   -9.1338 H   0  0  0  0  0  0  0  0  0  0  0  0
   -4.6664   14.2006   -5.7309 H   0  0  0  0  0  0  0  0  0  0  0  0
   -2.4647   14.2395   -6.8014 H   0  0  0  0  0  0  0  0  0  0  0  0
   -0.3828   12.9479   -6.5800 H   0  0  0  0  0  0  0  0  0  0  0  0
   -0.6667   11.1796   -6.4431 H   0  0  0  0  0  0  0  0  0  0  0  0
   -0.7019   11.9728   -8.0544 H   0  0  0  0  0  0  0  0  0  0  0  0
   -4.7360   12.7267   -9.4387 H   0  0  0  0  0  0  0  0  0  0  0  0
   -3.5013   12.1004  -10.5834 H   0  0  0  0  0  0  0  0  0  0  0  0
   -2.0904   13.9978  -10.1413 H   0  0  0  0  0  0  0  0  0  0  0  0
   -3.1360   15.3560  -11.8558 H   0  0  0  0  0  0  0  0  0  0  0  0
   -4.3787   15.9133  -10.6846 H   0  0  0  0  0  0  0  0  0  0  0  0
   -4.8633   15.4195   -7.3271 H   0  0  0  0  0  0  0  0  0  0  0  0
   -5.2283   15.7048   -9.0625 H   0  0  0  0  0  0  0  0  0  0  0  0
   -5.3645   14.0504   -8.3763 H   0  0  0  0  0  0  0  0  0  0  0  0
  1  2  2  0  0  0  0
  1  4  1  0  0  0  0
  1 12  1  0  0  0  0
  2  6  1  0  0  0  0
  3  4  2  0  0  0  0
  3  5  1  0  0  0  0
  5  6  2  0  0  0  0
  5  9  1  0  0  0  0
  6  7  1  0  0  0  0
  7  8  1  0  0  0  0
  7 10  2  3  0  0  0
  8  9  2  0  0  0  0
 10 14  1  0  0  0  0
 11 12  1  0  0  0  0
 11 24  1  0  0  0  0
 11 26  1  0  0  0  0
 12 13  2  0  0  0  0
 14 15  2  0  0  0  0
 14 19  1  0  0  0  0
 15 16  1  0  0  0  0
 16 17  1  0  0  0  0
 16 20  2  0  0  0  0
 17 18  2  0  0  0  0
 17 22  1  0  0  0  0
 18 19  1  0  0  0  0
 20 21  1  0  0  0  0
 21 22  1  0  0  0  0
 22 23  1  0  0  0  0
 24 25  1  0  0  0  0
 25 26  1  0  0  0  0
 25 27  1  0  0  0  0
 27 28  1  0  0  0  0
  2 29  1  0  0  0  0
  3 30  1  0  0  0  0
  4 31  1  0  0  0  0
 10 32  1  0  0  0  0
 15 33  1  0  0  0  0
 18 34  1  0  0  0  0
 19 35  1  0  0  0  0
 19 36  1  0  0  0  0
 20 37  1  0  0  0  0
 21 38  1  0  0  0  0
 23 39  1  0  0  0  0
 23 40  1  0  0  0  0
 23 41  1  0  0  0  0
 24 42  1  0  0  0  0
 24 43  1  0  0  0  0
 25 44  1  0  0  0  0
 26 45  1  0  0  0  0
 26 46  1  0  0  0  0
 28 47  1  0  0  0  0
 28 48  1  0  0  0  0
 28 49  1  0  0  0  0
M  END
> <Name>
45

> <IC50[uM]>
0.007

$$$$
45
  -OEChem-05192314333D
 Structure written by MMmdl.
 49 53  0     1  0  0  0  0  0999 V2000
   -6.4275   12.3453  -12.0176 C   0  0  0  0  0  0  0  0  0  0  0  0
   -6.6105   11.7832  -10.7429 C   0  0  0  0  0  0  0  0  0  0  0  0
   -7.7405   10.5587  -13.0479 C   0  0  0  0  0  0  0  0  0  0  0  0
   -7.0073   11.7527  -13.1387 C   0  0  0  0  0  0  0  0  0  0  0  0
   -7.8357    9.9872  -11.7695 C   0  0  0  0  0  0  0  0  0  0  0  0
   -7.2848   10.5993  -10.6252 C   0  0  0  0  0  0  0  0  0  0  0  0
   -7.6281    9.7307   -9.5318 C   0  0  0  0  0  0  0  0  0  0  0  0
   -8.2830    8.7083   -9.9969 N   0  0  0  0  0  0  0  0  0  0  0  0
   -8.4214    8.8369  -11.3125 N   0  0  0  0  0  0  0  0  0  0  0  0
   -7.3299    9.8861   -8.0415 C   0  0  0  0  0  0  0  0  0  0  0  0
   -4.6020   13.8371  -11.3112 N   0  0  0  0  0  0  0  0  0  0  0  0
   -5.6232   13.6419  -12.1798 C   0  0  0  0  0  0  0  0  0  0  0  0
   -5.9069   14.4516  -13.0592 O   0  0  0  0  0  0  0  0  0  0  0  0
   -5.9473   10.4903   -7.7303 C   0  0  0  0  0  0  0  0  0  0  0  0
   -5.8632   11.7421   -7.1195 C   0  0  0  0  0  0  0  0  0  0  0  0
   -4.5901   12.2560   -6.8332 C   0  0  0  0  0  0  0  0  0  0  0  0
   -3.4296   11.5300   -7.2115 C   0  0  0  0  0  0  0  0  0  0  0  0
   -3.5045   10.2730   -7.8164 C   0  0  0  0  0  0  0  0  0  0  0  0
   -4.7945    9.7703   -8.0537 C   0  0  0  0  0  0  0  0  0  0  0  0
   -4.0643   13.4351   -6.1976 C   0  0  0  0  0  0  0  0  0  0  0  0
   -2.7662   13.4536   -6.2615 N   0  0  0  0  0  0  0  0  0  0  0  0
   -2.3669   12.3336   -6.8391 N   0  0  3  0  0  0  0  0  0  0  0  0
   -0.9435   12.0941   -6.9881 C   0  0  0  0  0  0  0  0  0  0  0  0
   -4.0340   12.9997  -10.2404 C   0  0  0  0  0  0  0  0  0  0  0  0
   -3.1550   14.1929   -9.9451 C   0  0  0  0  0  0  0  0  0  0  0  0
   -3.8070   15.0441  -11.0419 C   0  0  0  0  0  0  0  0  0  0  0  0
   -3.4251   14.7437   -8.6708 O   0  0  0  0  0  0  0  0  0  0  0  0
   -4.8009   14.9943   -8.3397 C   0  0  0  0  0  0  0  0  0  0  0  0
   -6.2230   12.2805   -9.8660 H   0  0  0  0  0  0  0  0  0  0  0  0
   -8.2044   10.1062  -13.9119 H   0  0  0  0  0  0  0  0  0  0  0  0
   -6.8892   12.2248  -14.1028 H   0  0  0  0  0  0  0  0  0  0  0  0
   -8.0293    9.5968   -7.2711 H   0  0  0  0  0  0  0  0  0  0  0  0
   -6.3642   12.4628   -7.7826 H   0  0  0  0  0  0  0  0  0  0  0  0
   -6.4105   11.6778   -6.1675 H   0  0  0  0  0  0  0  0  0  0  0  0
   -2.6185    9.7178   -8.0869 H   0  0  0  0  0  0  0  0  0  0  0  0
   -4.8988    8.7932   -8.5018 H   0  0  0  0  0  0  0  0  0  0  0  0
   -4.6664   14.2006   -5.7309 H   0  0  0  0  0  0  0  0  0  0  0  0
   -2.4647   14.2395   -6.8014 H   0  0  0  0  0  0  0  0  0  0  0  0
   -0.3828   12.9479   -6.5800 H   0  0  0  0  0  0  0  0  0  0  0  0
   -0.6667   11.1796   -6.4431 H   0  0  0  0  0  0  0  0  0  0  0  0
   -0.7019   11.9728   -8.0544 H   0  0  0  0  0  0  0  0  0  0  0  0
   -4.7360   12.7267   -9.4387 H   0  0  0  0  0  0  0  0  0  0  0  0
   -3.5013   12.1004  -10.5834 H   0  0  0  0  0  0  0  0  0  0  0  0
   -2.0904   13.9978  -10.1413 H   0  0  0  0  0  0  0  0  0  0  0  0
   -3.1360   15.3560  -11.8558 H   0  0  0  0  0  0  0  0  0  0  0  0
   -4.3787   15.9133  -10.6846 H   0  0  0  0  0  0  0  0  0  0  0  0
   -4.8633   15.4195   -7.3271 H   0  0  0  0  0  0  0  0  0  0  0  0
   -5.2283   15.7048   -9.0625 H   0  0  0  0  0  0  0  0  0  0  0  0
   -5.3645   14.0504   -8.3763 H   0  0  0  0  0  0  0  0  0  0  0  0
  1  2  2  0  0  0  0
  1  4  1  0  0  0  0
  1 12  1  0  0  0  0
  2  6  1  0  0  0  0
  3  4  2  0  0  0  0
  3  5  1  0  0  0  0
  5  6  2  0  0  0  0
  5  9  1  0  0  0  0
  6  7  1  0  0  0  0
  7  8  1  0  0  0  0
  7 10  2  3  0  0  0
  8  9  2  0  0  0  0
 10 14  1  0  0  0  0
 11 12  1  0  0  0  0
 11 24  1  0  0  0  0
 11 26  1  0  0  0  0
 12 13  2  0  0  0  0
 14 15  1  0  0  0  0
 14 19  2  0  0  0  0
 15 16  1  0  0  0  0
 16 17  1  0  0  0  0
 16 20  2  0  0  0  0
 17 18  2  0  0  0  0
 17 22  1  0  0  0  0
 18 19  1  0  0  0  0
 20 21  1  0  0  0  0
 21 22  1  0  0  0  0
 22 23  1  0  0  0  0
 24 25  1  0  0  0  0
 25 26  1  0  0  0  0
 25 27  1  0  0  0  0
 27 28  1  0  0  0  0
  2 29  1  0  0  0  0
  3 30  1  0  0  0  0
  4 31  1  0  0  0  0
 10 32  1  0  0  0  0
 15 33  1  0  0  0  0
 15 34  1  0  0  0  0
 18 35  1  0  0  0  0
 19 36  1  0  0  0  0
 20 37  1  0  0  0  0
 21 38  1  0  0  0  0
 23 39  1  0  0  0  0
 23 40  1  0  0  0  0
 23 41  1  0  0  0  0
 24 42  1  0  0  0  0
 24 43  1  0  0  0  0
 25 44  1  0  0  0  0
 26 45  1  0  0  0  0
 26 46  1  0  0  0  0
 28 47  1  0  0  0  0
 28 48  1  0  0  0  0
 28 49  1  0  0  0  0
M  END
> <Name>
45

> <IC50[uM]>
0.007

$$$$
45
  -OEChem-05192314333D
 Structure written by MMmdl.
 49 53  0     1  0  0  0  0  0999 V2000
   -6.4275   12.3453  -12.0176 C   0  0  3  0  0  0  0  0  0  0  0  0
   -6.6105   11.7832  -10.7429 C   0  0  0  0  0  0  0  0  0  0  0  0
   -7.7405   10.5587  -13.0479 C   0  0  0  0  0  0  0  0  0  0  0  0
   -7.0073   11.7527  -13.1387 C   0  0  0  0  0  0  0  0  0  0  0  0
   -7.8357    9.9872  -11.7695 C   0  0  0  0  0  0  0  0  0  0  0  0
   -7.2848   10.5993  -10.6252 C   0  0  0  0  0  0  0  0  0  0  0  0
   -7.6281    9.7307   -9.5318 C   0  0  0  0  0  0  0  0  0  0  0  0
   -8.2830    8.7083   -9.9969 N   0  0  0  0  0  0  0  0  0  0  0  0
   -8.4214    8.8369  -11.3125 N   0  0  0  0  0  0  0  0  0  0  0  0
   -7.3299    9.8861   -8.0415 C   0  0  0  0  0  0  0  0  0  0  0  0
   -4.6020   13.8371  -11.3112 N   0  0  0  0  0  0  0  0  0  0  0  0
   -5.6232   13.6419  -12.1798 C   0  0  0  0  0  0  0  0  0  0  0  0
   -5.9069   14.4516  -13.0592 O   0  0  0  0  0  0  0  0  0  0  0  0
   -5.9473   10.4903   -7.7303 C   0  0  0  0  0  0  0  0  0  0  0  0
   -5.8632   11.7421   -7.1195 C   0  0  0  0  0  0  0  0  0  0  0  0
   -4.5901   12.2560   -6.8332 C   0  0  0  0  0  0  0  0  0  0  0  0
   -3.4296   11.5300   -7.2115 C   0  0  0  0  0  0  0  0  0  0  0  0
   -3.5045   10.2730   -7.8164 C   0  0  0  0  0  0  0  0  0  0  0  0
   -4.7945    9.7703   -8.0537 C   0  0  0  0  0  0  0  0  0  0  0  0
   -4.0643   13.4351   -6.1976 C   0  0  0  0  0  0  0  0  0  0  0  0
   -2.7662   13.4536   -6.2615 N   0  0  0  0  0  0  0  0  0  0  0  0
   -2.3669   12.3336   -6.8391 N   0  0  0  0  0  0  0  0  0  0  0  0
   -0.9435   12.0941   -6.9881 C   0  0  0  0  0  0  0  0  0  0  0  0
   -4.0340   12.9997  -10.2404 C   0  0  0  0  0  0  0  0  0  0  0  0
   -3.1550   14.1929   -9.9451 C   0  0  0  0  0  0  0  0  0  0  0  0
   -3.8070   15.0441  -11.0419 C   0  0  0  0  0  0  0  0  0  0  0  0
   -3.4251   14.7437   -8.6708 O   0  0  0  0  0  0  0  0  0  0  0  0
   -4.8009   14.9943   -8.3397 C   0  0  0  0  0  0  0  0  0  0  0  0
   -5.5143   11.7492  -12.1613 H   0  0  0  0  0  0  0  0  0  0  0  0
   -6.2230   12.2805   -9.8660 H   0  0  0  0  0  0  0  0  0  0  0  0
   -8.2044   10.1062  -13.9119 H   0  0  0  0  0  0  0  0  0  0  0  0
   -6.8892   12.2248  -14.1028 H   0  0  0  0  0  0  0  0  0  0  0  0
   -8.0293    9.5968   -7.2711 H   0  0  0  0  0  0  0  0  0  0  0  0
   -6.3642   12.4628   -7.7826 H   0  0  0  0  0  0  0  0  0  0  0  0
   -6.4105   11.6778   -6.1675 H   0  0  0  0  0  0  0  0  0  0  0  0
   -2.6185    9.7178   -8.0869 H   0  0  0  0  0  0  0  0  0  0  0  0
   -4.8988    8.7932   -8.5018 H   0  0  0  0  0  0  0  0  0  0  0  0
   -4.6664   14.2006   -5.7309 H   0  0  0  0  0  0  0  0  0  0  0  0
   -0.3825   12.9417   -6.5674 H   0  0  0  0  0  0  0  0  0  0  0  0
   -0.6691   11.1721   -6.4547 H   0  0  0  0  0  0  0  0  0  0  0  0
   -0.6996   11.9867   -8.0553 H   0  0  0  0  0  0  0  0  0  0  0  0
   -4.7360   12.7267   -9.4387 H   0  0  0  0  0  0  0  0  0  0  0  0
   -3.5013   12.1004  -10.5834 H   0  0  0  0  0  0  0  0  0  0  0  0
   -2.0904   13.9978  -10.1413 H   0  0  0  0  0  0  0  0  0  0  0  0
   -3.1360   15.3560  -11.8558 H   0  0  0  0  0  0  0  0  0  0  0  0
   -4.3787   15.9133  -10.6846 H   0  0  0  0  0  0  0  0  0  0  0  0
   -4.8633   15.4195   -7.3271 H   0  0  0  0  0  0  0  0  0  0  0  0
   -5.2283   15.7048   -9.0625 H   0  0  0  0  0  0  0  0  0  0  0  0
   -5.3645   14.0504   -8.3763 H   0  0  0  0  0  0  0  0  0  0  0  0
  1  2  1  0  0  0  0
  1  4  1  0  0  0  0
  1 12  1  0  0  0  0
  2  6  2  0  0  0  0
  3  4  2  0  0  0  0
  3  5  1  0  0  0  0
  5  6  1  0  0  0  0
  5  9  2  0  0  0  0
  6  7  1  0  0  0  0
  7  8  2  0  0  0  0
  7 10  1  0  0  0  0
  8  9  1  0  0  0  0
 10 14  2  3  0  0  0
 11 12  1  0  0  0  0
 11 24  1  0  0  0  0
 11 26  1  0  0  0  0
 12 13  2  0  0  0  0
 14 15  1  0  0  0  0
 14 19  1  0  0  0  0
 15 16  1  0  0  0  0
 16 17  2  0  0  0  0
 16 20  1  0  0  0  0
 17 18  1  0  0  0  0
 17 22  1  0  0  0  0
 18 19  2  0  0  0  0
 20 21  2  0  0  0  0
 21 22  1  0  0  0  0
 22 23  1  0  0  0  0
 24 25  1  0  0  0  0
 25 26  1  0  0  0  0
 25 27  1  0  0  0  0
 27 28  1  0  0  0  0
  1 29  1  0  0  0  0
  2 30  1  0  0  0  0
  3 31  1  0  0  0  0
  4 32  1  0  0  0  0
 10 33  1  0  0  0  0
 15 34  1  0  0  0  0
 15 35  1  0  0  0  0
 18 36  1  0  0  0  0
 19 37  1  0  0  0  0
 20 38  1  0  0  0  0
 23 39  1  0  0  0  0
 23 40  1  0  0  0  0
 23 41  1  0  0  0  0
 24 42  1  0  0  0  0
 24 43  1  0  0  0  0
 25 44  1  0  0  0  0
 26 45  1  0  0  0  0
 26 46  1  0  0  0  0
 28 47  1  0  0  0  0
 28 48  1  0  0  0  0
 28 49  1  0  0  0  0
M  END
> <Name>
45

> <IC50[uM]>
0.007

$$$$
45
  -OEChem-05192314333D
 Structure written by MMmdl.
 49 53  0     1  0  0  0  0  0999 V2000
   -6.4275   12.3453  -12.0176 C   0  0  0  0  0  0  0  0  0  0  0  0
   -6.6105   11.7832  -10.7429 C   0  0  0  0  0  0  0  0  0  0  0  0
   -7.7405   10.5587  -13.0479 C   0  0  0  0  0  0  0  0  0  0  0  0
   -7.0073   11.7527  -13.1387 C   0  0  0  0  0  0  0  0  0  0  0  0
   -7.8357    9.9872  -11.7695 C   0  0  0  0  0  0  0  0  0  0  0  0
   -7.2848   10.5993  -10.6252 C   0  0  3  0  0  0  0  0  0  0  0  0
   -7.6281    9.7307   -9.5318 C   0  0  0  0  0  0  0  0  0  0  0  0
   -8.2830    8.7083   -9.9969 N   0  0  0  0  0  0  0  0  0  0  0  0
   -8.4214    8.8369  -11.3125 N   0  0  0  0  0  0  0  0  0  0  0  0
   -7.3299    9.8861   -8.0415 C   0  0  0  0  0  0  0  0  0  0  0  0
   -4.6020   13.8371  -11.3112 N   0  0  0  0  0  0  0  0  0  0  0  0
   -5.6232   13.6419  -12.1798 C   0  0  0  0  0  0  0  0  0  0  0  0
   -5.9069   14.4516  -13.0592 O   0  0  0  0  0  0  0  0  0  0  0  0
   -5.9473   10.4903   -7.7303 C   0  0  0  0  0  0  0  0  0  0  0  0
   -5.8632   11.7421   -7.1195 C   0  0  0  0  0  0  0  0  0  0  0  0
   -4.5901   12.2560   -6.8332 C   0  0  0  0  0  0  0  0  0  0  0  0
   -3.4296   11.5300   -7.2115 C   0  0  0  0  0  0  0  0  0  0  0  0
   -3.5045   10.2730   -7.8164 C   0  0  0  0  0  0  0  0  0  0  0  0
   -4.7945    9.7703   -8.0537 C   0  0  0  0  0  0  0  0  0  0  0  0
   -4.0643   13.4351   -6.1976 C   0  0  0  0  0  0  0  0  0  0  0  0
   -2.7662   13.4536   -6.2615 N   0  0  0  0  0  0  0  0  0  0  0  0
   -2.3669   12.3336   -6.8391 N   0  0  0  0  0  0  0  0  0  0  0  0
   -0.9435   12.0941   -6.9881 C   0  0  0  0  0  0  0  0  0  0  0  0
   -4.0340   12.9997  -10.2404 C   0  0  0  0  0  0  0  0  0  0  0  0
   -3.1550   14.1929   -9.9451 C   0  0  0  0  0  0  0  0  0  0  0  0
   -3.8070   15.0441  -11.0419 C   0  0  0  0  0  0  0  0  0  0  0  0
   -3.4251   14.7437   -8.6708 O   0  0  0  0  0  0  0  0  0  0  0  0
   -4.8009   14.9943   -8.3397 C   0  0  0  0  0  0  0  0  0  0  0  0
   -6.2230   12.2805   -9.8660 H   0  0  0  0  0  0  0  0  0  0  0  0
   -8.2044   10.1062  -13.9119 H   0  0  0  0  0  0  0  0  0  0  0  0
   -6.8892   12.2248  -14.1028 H   0  0  0  0  0  0  0  0  0  0  0  0
   -6.3465   10.0453  -10.7758 H   0  0  0  0  0  0  0  0  0  0  0  0
   -8.0293    9.5968   -7.2711 H   0  0  0  0  0  0  0  0  0  0  0  0
   -6.3642   12.4628   -7.7826 H   0  0  0  0  0  0  0  0  0  0  0  0
   -6.4105   11.6778   -6.1675 H   0  0  0  0  0  0  0  0  0  0  0  0
   -2.6185    9.7178   -8.0869 H   0  0  0  0  0  0  0  0  0  0  0  0
   -4.8988    8.7932   -8.5018 H   0  0  0  0  0  0  0  0  0  0  0  0
   -4.6664   14.2006   -5.7309 H   0  0  0  0  0  0  0  0  0  0  0  0
   -0.3825   12.9417   -6.5674 H   0  0  0  0  0  0  0  0  0  0  0  0
   -0.6691   11.1721   -6.4547 H   0  0  0  0  0  0  0  0  0  0  0  0
   -0.6996   11.9867   -8.0553 H   0  0  0  0  0  0  0  0  0  0  0  0
   -4.7360   12.7267   -9.4387 H   0  0  0  0  0  0  0  0  0  0  0  0
   -3.5013   12.1004  -10.5834 H   0  0  0  0  0  0  0  0  0  0  0  0
   -2.0904   13.9978  -10.1413 H   0  0  0  0  0  0  0  0  0  0  0  0
   -3.1360   15.3560  -11.8558 H   0  0  0  0  0  0  0  0  0  0  0  0
   -4.3787   15.9133  -10.6846 H   0  0  0  0  0  0  0  0  0  0  0  0
   -4.8633   15.4195   -7.3271 H   0  0  0  0  0  0  0  0  0  0  0  0
   -5.2283   15.7048   -9.0625 H   0  0  0  0  0  0  0  0  0  0  0  0
   -5.3645   14.0504   -8.3763 H   0  0  0  0  0  0  0  0  0  0  0  0
  1  2  2  0  0  0  0
  1  4  1  0  0  0  0
  1 12  1  0  0  0  0
  2  6  1  0  0  0  0
  3  4  2  0  0  0  0
  3  5  1  0  0  0  0
  5  6  1  0  0  0  0
  5  9  2  0  0  0  0
  6  7  1  0  0  0  0
  7  8  2  0  0  0  0
  7 10  1  0  0  0  0
  8  9  1  0  0  0  0
 10 14  2  3  0  0  0
 11 12  1  0  0  0  0
 11 24  1  0  0  0  0
 11 26  1  0  0  0  0
 12 13  2  0  0  0  0
 14 15  1  0  0  0  0
 14 19  1  0  0  0  0
 15 16  1  0  0  0  0
 16 17  2  0  0  0  0
 16 20  1  0  0  0  0
 17 18  1  0  0  0  0
 17 22  1  0  0  0  0
 18 19  2  0  0  0  0
 20 21  2  0  0  0  0
 21 22  1  0  0  0  0
 22 23  1  0  0  0  0
 24 25  1  0  0  0  0
 25 26  1  0  0  0  0
 25 27  1  0  0  0  0
 27 28  1  0  0  0  0
  2 29  1  0  0  0  0
  3 30  1  0  0  0  0
  4 31  1  0  0  0  0
  6 32  1  0  0  0  0
 10 33  1  0  0  0  0
 15 34  1  0  0  0  0
 15 35  1  0  0  0  0
 18 36  1  0  0  0  0
 19 37  1  0  0  0  0
 20 38  1  0  0  0  0
 23 39  1  0  0  0  0
 23 40  1  0  0  0  0
 23 41  1  0  0  0  0
 24 42  1  0  0  0  0
 24 43  1  0  0  0  0
 25 44  1  0  0  0  0
 26 45  1  0  0  0  0
 26 46  1  0  0  0  0
 28 47  1  0  0  0  0
 28 48  1  0  0  0  0
 28 49  1  0  0  0  0
M  END
> <Name>
45

> <IC50[uM]>
0.007

$$$$
45
  -OEChem-05192314333D
 Structure written by MMmdl.
 49 53  0     0  0  0  0  0  0999 V2000
   -6.4275   12.3453  -12.0176 C   0  0  0  0  0  0  0  0  0  0  0  0
   -6.6105   11.7832  -10.7429 C   0  0  0  0  0  0  0  0  0  0  0  0
   -7.7405   10.5587  -13.0479 C   0  0  0  0  0  0  0  0  0  0  0  0
   -7.0073   11.7527  -13.1387 C   0  0  0  0  0  0  0  0  0  0  0  0
   -7.8357    9.9872  -11.7695 C   0  0  0  0  0  0  0  0  0  0  0  0
   -7.2848   10.5993  -10.6252 C   0  0  0  0  0  0  0  0  0  0  0  0
   -7.6281    9.7307   -9.5318 C   0  0  0  0  0  0  0  0  0  0  0  0
   -8.2830    8.7083   -9.9969 N   0  0  0  0  0  0  0  0  0  0  0  0
   -8.4214    8.8369  -11.3125 N   0  0  0  0  0  0  0  0  0  0  0  0
   -7.3299    9.8861   -8.0415 C   0  0  0  0  0  0  0  0  0  0  0  0
   -4.6020   13.8371  -11.3112 N   0  0  0  0  0  0  0  0  0  0  0  0
   -5.6232   13.6419  -12.1798 C   0  0  0  0  0  0  0  0  0  0  0  0
   -5.9069   14.4516  -13.0592 O   0  0  0  0  0  0  0  0  0  0  0  0
   -5.9473   10.4903   -7.7303 C   0  0  0  0  0  0  0  0  0  0  0  0
   -5.8632   11.7421   -7.1195 C   0  0  0  0  0  0  0  0  0  0  0  0
   -4.5901   12.2560   -6.8332 C   0  0  0  0  0  0  0  0  0  0  0  0
   -3.4296   11.5300   -7.2115 C   0  0  0  0  0  0  0  0  0  0  0  0
   -3.5045   10.2730   -7.8164 C   0  0  0  0  0  0  0  0  0  0  0  0
   -4.7945    9.7703   -8.0537 C   0  0  0  0  0  0  0  0  0  0  0  0
   -4.0643   13.4351   -6.1976 C   0  0  0  0  0  0  0  0  0  0  0  0
   -2.7662   13.4536   -6.2615 N   0  0  0  0  0  0  0  0  0  0  0  0
   -2.3669   12.3336   -6.8391 N   0  0  0  0  0  0  0  0  0  0  0  0
   -0.9435   12.0941   -6.9881 C   0  0  0  0  0  0  0  0  0  0  0  0
   -4.0340   12.9997  -10.2404 C   0  0  0  0  0  0  0  0  0  0  0  0
   -3.1550   14.1929   -9.9451 C   0  0  0  0  0  0  0  0  0  0  0  0
   -3.8070   15.0441  -11.0419 C   0  0  0  0  0  0  0  0  0  0  0  0
   -3.4251   14.7437   -8.6708 O   0  0  0  0  0  0  0  0  0  0  0  0
   -4.8009   14.9943   -8.3397 C   0  0  0  0  0  0  0  0  0  0  0  0
   -6.2230   12.2805   -9.8660 H   0  0  0  0  0  0  0  0  0  0  0  0
   -8.7619   10.7641  -13.4009 H   0  0  0  0  0  0  0  0  0  0  0  0
   -7.2647    9.8211  -13.7110 H   0  0  0  0  0  0  0  0  0  0  0  0
   -6.8892   12.2248  -14.1028 H   0  0  0  0  0  0  0  0  0  0  0  0
   -8.0293    9.5968   -7.2711 H   0  0  0  0  0  0  0  0  0  0  0  0
   -6.3642   12.4628   -7.7826 H   0  0  0  0  0  0  0  0  0  0  0  0
   -6.4105   11.6778   -6.1675 H   0  0  0  0  0  0  0  0  0  0  0  0
   -2.6185    9.7178   -8.0869 H   0  0  0  0  0  0  0  0  0  0  0  0
   -4.8988    8.7932   -8.5018 H   0  0  0  0  0  0  0  0  0  0  0  0
   -4.6664   14.2006   -5.7309 H   0  0  0  0  0  0  0  0  0  0  0  0
   -0.3825   12.9417   -6.5674 H   0  0  0  0  0  0  0  0  0  0  0  0
   -0.6691   11.1721   -6.4547 H   0  0  0  0  0  0  0  0  0  0  0  0
   -0.6996   11.9867   -8.0553 H   0  0  0  0  0  0  0  0  0  0  0  0
   -4.7360   12.7267   -9.4387 H   0  0  0  0  0  0  0  0  0  0  0  0
   -3.5013   12.1004  -10.5834 H   0  0  0  0  0  0  0  0  0  0  0  0
   -2.0904   13.9978  -10.1413 H   0  0  0  0  0  0  0  0  0  0  0  0
   -3.1360   15.3560  -11.8558 H   0  0  0  0  0  0  0  0  0  0  0  0
   -4.3787   15.9133  -10.6846 H   0  0  0  0  0  0  0  0  0  0  0  0
   -4.8633   15.4195   -7.3271 H   0  0  0  0  0  0  0  0  0  0  0  0
   -5.2283   15.7048   -9.0625 H   0  0  0  0  0  0  0  0  0  0  0  0
   -5.3645   14.0504   -8.3763 H   0  0  0  0  0  0  0  0  0  0  0  0
  1  2  1  0  0  0  0
  1  4  2  0  0  0  0
  1 12  1  0  0  0  0
  2  6  2  0  0  0  0
  3  4  1  0  0  0  0
  3  5  1  0  0  0  0
  5  6  1  0  0  0  0
  5  9  2  0  0  0  0
  6  7  1  0  0  0  0
  7  8  2  0  0  0  0
  7 10  1  0  0  0  0
  8  9  1  0  0  0  0
 10 14  2  3  0  0  0
 11 12  1  0  0  0  0
 11 24  1  0  0  0  0
 11 26  1  0  0  0  0
 12 13  2  0  0  0  0
 14 15  1  0  0  0  0
 14 19  1  0  0  0  0
 15 16  1  0  0  0  0
 16 17  2  0  0  0  0
 16 20  1  0  0  0  0
 17 18  1  0  0  0  0
 17 22  1  0  0  0  0
 18 19  2  0  0  0  0
 20 21  2  0  0  0  0
 21 22  1  0  0  0  0
 22 23  1  0  0  0  0
 24 25  1  0  0  0  0
 25 26  1  0  0  0  0
 25 27  1  0  0  0  0
 27 28  1  0  0  0  0
  2 29  1  0  0  0  0
  3 30  1  0  0  0  0
  3 31  1  0  0  0  0
  4 32  1  0  0  0  0
 10 33  1  0  0  0  0
 15 34  1  0  0  0  0
 15 35  1  0  0  0  0
 18 36  1  0  0  0  0
 19 37  1  0  0  0  0
 20 38  1  0  0  0  0
 23 39  1  0  0  0  0
 23 40  1  0  0  0  0
 23 41  1  0  0  0  0
 24 42  1  0  0  0  0
 24 43  1  0  0  0  0
 25 44  1  0  0  0  0
 26 45  1  0  0  0  0
 26 46  1  0  0  0  0
 28 47  1  0  0  0  0
 28 48  1  0  0  0  0
 28 49  1  0  0  0  0
M  END
> <Name>
45

> <IC50[uM]>
0.007

$$$$
45
  -OEChem-05192314333D
 Structure written by MMmdl.
 49 53  0     1  0  0  0  0  0999 V2000
   -6.4275   12.3453  -12.0176 C   0  0  0  0  0  0  0  0  0  0  0  0
   -6.6105   11.7832  -10.7429 C   0  0  0  0  0  0  0  0  0  0  0  0
   -7.7405   10.5587  -13.0479 C   0  0  0  0  0  0  0  0  0  0  0  0
   -7.0073   11.7527  -13.1387 C   0  0  0  0  0  0  0  0  0  0  0  0
   -7.8357    9.9872  -11.7695 C   0  0  3  0  0  0  0  0  0  0  0  0
   -7.2848   10.5993  -10.6252 C   0  0  0  0  0  0  0  0  0  0  0  0
   -7.6281    9.7307   -9.5318 C   0  0  0  0  0  0  0  0  0  0  0  0
   -8.2830    8.7083   -9.9969 N   0  0  0  0  0  0  0  0  0  0  0  0
   -8.4214    8.8369  -11.3125 N   0  0  0  0  0  0  0  0  0  0  0  0
   -7.3299    9.8861   -8.0415 C   0  0  0  0  0  0  0  0  0  0  0  0
   -4.6020   13.8371  -11.3112 N   0  0  0  0  0  0  0  0  0  0  0  0
   -5.6232   13.6419  -12.1798 C   0  0  0  0  0  0  0  0  0  0  0  0
   -5.9069   14.4516  -13.0592 O   0  0  0  0  0  0  0  0  0  0  0  0
   -5.9473   10.4903   -7.7303 C   0  0  0  0  0  0  0  0  0  0  0  0
   -5.8632   11.7421   -7.1195 C   0  0  0  0  0  0  0  0  0  0  0  0
   -4.5901   12.2560   -6.8332 C   0  0  0  0  0  0  0  0  0  0  0  0
   -3.4296   11.5300   -7.2115 C   0  0  0  0  0  0  0  0  0  0  0  0
   -3.5045   10.2730   -7.8164 C   0  0  0  0  0  0  0  0  0  0  0  0
   -4.7945    9.7703   -8.0537 C   0  0  0  0  0  0  0  0  0  0  0  0
   -4.0643   13.4351   -6.1976 C   0  0  0  0  0  0  0  0  0  0  0  0
   -2.7662   13.4536   -6.2615 N   0  0  0  0  0  0  0  0  0  0  0  0
   -2.3669   12.3336   -6.8391 N   0  0  0  0  0  0  0  0  0  0  0  0
   -0.9435   12.0941   -6.9881 C   0  0  0  0  0  0  0  0  0  0  0  0
   -4.0340   12.9997  -10.2404 C   0  0  0  0  0  0  0  0  0  0  0  0
   -3.1550   14.1929   -9.9451 C   0  0  0  0  0  0  0  0  0  0  0  0
   -3.8070   15.0441  -11.0419 C   0  0  0  0  0  0  0  0  0  0  0  0
   -3.4251   14.7437   -8.6708 O   0  0  0  0  0  0  0  0  0  0  0  0
   -4.8009   14.9943   -8.3397 C   0  0  0  0  0  0  0  0  0  0  0  0
   -6.2230   12.2805   -9.8660 H   0  0  0  0  0  0  0  0  0  0  0  0
   -8.2044   10.1062  -13.9119 H   0  0  0  0  0  0  0  0  0  0  0  0
   -6.8892   12.2248  -14.1028 H   0  0  0  0  0  0  0  0  0  0  0  0
   -6.8934    9.4451  -11.9376 H   0  0  0  0  0  0  0  0  0  0  0  0
   -8.0293    9.5968   -7.2711 H   0  0  0  0  0  0  0  0  0  0  0  0
   -6.3642   12.4628   -7.7826 H   0  0  0  0  0  0  0  0  0  0  0  0
   -6.4105   11.6778   -6.1675 H   0  0  0  0  0  0  0  0  0  0  0  0
   -2.6185    9.7178   -8.0869 H   0  0  0  0  0  0  0  0  0  0  0  0
   -4.8988    8.7932   -8.5018 H   0  0  0  0  0  0  0  0  0  0  0  0
   -4.6664   14.2006   -5.7309 H   0  0  0  0  0  0  0  0  0  0  0  0
   -0.3825   12.9417   -6.5674 H   0  0  0  0  0  0  0  0  0  0  0  0
   -0.6691   11.1721   -6.4547 H   0  0  0  0  0  0  0  0  0  0  0  0
   -0.6996   11.9867   -8.0553 H   0  0  0  0  0  0  0  0  0  0  0  0
   -4.7360   12.7267   -9.4387 H   0  0  0  0  0  0  0  0  0  0  0  0
   -3.5013   12.1004  -10.5834 H   0  0  0  0  0  0  0  0  0  0  0  0
   -2.0904   13.9978  -10.1413 H   0  0  0  0  0  0  0  0  0  0  0  0
   -3.1360   15.3560  -11.8558 H   0  0  0  0  0  0  0  0  0  0  0  0
   -4.3787   15.9133  -10.6846 H   0  0  0  0  0  0  0  0  0  0  0  0
   -4.8633   15.4195   -7.3271 H   0  0  0  0  0  0  0  0  0  0  0  0
   -5.2283   15.7048   -9.0625 H   0  0  0  0  0  0  0  0  0  0  0  0
   -5.3645   14.0504   -8.3763 H   0  0  0  0  0  0  0  0  0  0  0  0
  1  2  2  0  0  0  0
  1  4  1  0  0  0  0
  1 12  1  0  0  0  0
  2  6  1  0  0  0  0
  3  4  2  0  0  0  0
  3  5  1  0  0  0  0
  5  6  1  0  0  0  0
  5  9  1  0  0  0  0
  6  7  2  0  0  0  0
  7  8  1  0  0  0  0
  7 10  1  0  0  0  0
  8  9  2  0  0  0  0
 10 14  2  3  0  0  0
 11 12  1  0  0  0  0
 11 24  1  0  0  0  0
 11 26  1  0  0  0  0
 12 13  2  0  0  0  0
 14 15  1  0  0  0  0
 14 19  1  0  0  0  0
 15 16  1  0  0  0  0
 16 17  2  0  0  0  0
 16 20  1  0  0  0  0
 17 18  1  0  0  0  0
 17 22  1  0  0  0  0
 18 19  2  0  0  0  0
 20 21  2  0  0  0  0
 21 22  1  0  0  0  0
 22 23  1  0  0  0  0
 24 25  1  0  0  0  0
 25 26  1  0  0  0  0
 25 27  1  0  0  0  0
 27 28  1  0  0  0  0
  2 29  1  0  0  0  0
  3 30  1  0  0  0  0
  4 31  1  0  0  0  0
  5 32  1  0  0  0  0
 10 33  1  0  0  0  0
 15 34  1  0  0  0  0
 15 35  1  0  0  0  0
 18 36  1  0  0  0  0
 19 37  1  0  0  0  0
 20 38  1  0  0  0  0
 23 39  1  0  0  0  0
 23 40  1  0  0  0  0
 23 41  1  0  0  0  0
 24 42  1  0  0  0  0
 24 43  1  0  0  0  0
 25 44  1  0  0  0  0
 26 45  1  0  0  0  0
 26 46  1  0  0  0  0
 28 47  1  0  0  0  0
 28 48  1  0  0  0  0
 28 49  1  0  0  0  0
M  END
> <Name>
45

> <IC50[uM]>
0.007

$$$$
45
  -OEChem-05192314333D
 Structure written by MMmdl.
 49 53  0     0  0  0  0  0  0999 V2000
   -6.4275   12.3453  -12.0176 C   0  0  0  0  0  0  0  0  0  0  0  0
   -6.6105   11.7832  -10.7429 C   0  0  0  0  0  0  0  0  0  0  0  0
   -7.7405   10.5587  -13.0479 C   0  0  0  0  0  0  0  0  0  0  0  0
   -7.0073   11.7527  -13.1387 C   0  0  0  0  0  0  0  0  0  0  0  0
   -7.8357    9.9872  -11.7695 C   0  0  0  0  0  0  0  0  0  0  0  0
   -7.2848   10.5993  -10.6252 C   0  0  0  0  0  0  0  0  0  0  0  0
   -7.6281    9.7307   -9.5318 C   0  0  0  0  0  0  0  0  0  0  0  0
   -8.2830    8.7083   -9.9969 N   0  0  0  0  0  0  0  0  0  0  0  0
   -8.4214    8.8369  -11.3125 N   0  0  0  0  0  0  0  0  0  0  0  0
   -7.3299    9.8861   -8.0415 C   0  0  0  0  0  0  0  0  0  0  0  0
   -4.6020   13.8371  -11.3112 N   0  0  0  0  0  0  0  0  0  0  0  0
   -5.6232   13.6419  -12.1798 C   0  0  0  0  0  0  0  0  0  0  0  0
   -5.9069   14.4516  -13.0592 O   0  0  0  0  0  0  0  0  0  0  0  0
   -5.9473   10.4903   -7.7303 C   0  0  0  0  0  0  0  0  0  0  0  0
   -5.8632   11.7421   -7.1195 C   0  0  0  0  0  0  0  0  0  0  0  0
   -4.5901   12.2560   -6.8332 C   0  0  0  0  0  0  0  0  0  0  0  0
   -3.4296   11.5300   -7.2115 C   0  0  0  0  0  0  0  0  0  0  0  0
   -3.5045   10.2730   -7.8164 C   0  0  0  0  0  0  0  0  0  0  0  0
   -4.7945    9.7703   -8.0537 C   0  0  0  0  0  0  0  0  0  0  0  0
   -4.0643   13.4351   -6.1976 C   0  0  0  0  0  0  0  0  0  0  0  0
   -2.7662   13.4536   -6.2615 N   0  0  0  0  0  0  0  0  0  0  0  0
   -2.3669   12.3336   -6.8391 N   0  0  0  0  0  0  0  0  0  0  0  0
   -0.9435   12.0941   -6.9881 C   0  0  0  0  0  0  0  0  0  0  0  0
   -4.0340   12.9997  -10.2404 C   0  0  0  0  0  0  0  0  0  0  0  0
   -3.1550   14.1929   -9.9451 C   0  0  0  0  0  0  0  0  0  0  0  0
   -3.8070   15.0441  -11.0419 C   0  0  0  0  0  0  0  0  0  0  0  0
   -3.4251   14.7437   -8.6708 O   0  0  0  0  0  0  0  0  0  0  0  0
   -4.8009   14.9943   -8.3397 C   0  0  0  0  0  0  0  0  0  0  0  0
   -6.2230   12.2805   -9.8660 H   0  0  0  0  0  0  0  0  0  0  0  0
   -8.2044   10.1062  -13.9119 H   0  0  0  0  0  0  0  0  0  0  0  0
   -7.6892   12.5023  -13.5665 H   0  0  0  0  0  0  0  0  0  0  0  0
   -6.1865   11.5583  -13.8448 H   0  0  0  0  0  0  0  0  0  0  0  0
   -8.0293    9.5968   -7.2711 H   0  0  0  0  0  0  0  0  0  0  0  0
   -6.3642   12.4628   -7.7826 H   0  0  0  0  0  0  0  0  0  0  0  0
   -6.4105   11.6778   -6.1675 H   0  0  0  0  0  0  0  0  0  0  0  0
   -2.6185    9.7178   -8.0869 H   0  0  0  0  0  0  0  0  0  0  0  0
   -4.8988    8.7932   -8.5018 H   0  0  0  0  0  0  0  0  0  0  0  0
   -4.6664   14.2006   -5.7309 H   0  0  0  0  0  0  0  0  0  0  0  0
   -0.3825   12.9417   -6.5674 H   0  0  0  0  0  0  0  0  0  0  0  0
   -0.6691   11.1721   -6.4547 H   0  0  0  0  0  0  0  0  0  0  0  0
   -0.6996   11.9867   -8.0553 H   0  0  0  0  0  0  0  0  0  0  0  0
   -4.7360   12.7267   -9.4387 H   0  0  0  0  0  0  0  0  0  0  0  0
   -3.5013   12.1004  -10.5834 H   0  0  0  0  0  0  0  0  0  0  0  0
   -2.0904   13.9978  -10.1413 H   0  0  0  0  0  0  0  0  0  0  0  0
   -3.1360   15.3560  -11.8558 H   0  0  0  0  0  0  0  0  0  0  0  0
   -4.3787   15.9133  -10.6846 H   0  0  0  0  0  0  0  0  0  0  0  0
   -4.8633   15.4195   -7.3271 H   0  0  0  0  0  0  0  0  0  0  0  0
   -5.2283   15.7048   -9.0625 H   0  0  0  0  0  0  0  0  0  0  0  0
   -5.3645   14.0504   -8.3763 H   0  0  0  0  0  0  0  0  0  0  0  0
  1  2  2  0  0  0  0
  1  4  1  0  0  0  0
  1 12  1  0  0  0  0
  2  6  1  0  0  0  0
  3  4  1  0  0  0  0
  3  5  2  0  0  0  0
  5  6  1  0  0  0  0
  5  9  1  0  0  0  0
  6  7  2  0  0  0  0
  7  8  1  0  0  0  0
  7 10  1  0  0  0  0
  8  9  2  0  0  0  0
 10 14  2  3  0  0  0
 11 12  1  0  0  0  0
 11 24  1  0  0  0  0
 11 26  1  0  0  0  0
 12 13  2  0  0  0  0
 14 15  1  0  0  0  0
 14 19  1  0  0  0  0
 15 16  1  0  0  0  0
 16 17  2  0  0  0  0
 16 20  1  0  0  0  0
 17 18  1  0  0  0  0
 17 22  1  0  0  0  0
 18 19  2  0  0  0  0
 20 21  2  0  0  0  0
 21 22  1  0  0  0  0
 22 23  1  0  0  0  0
 24 25  1  0  0  0  0
 25 26  1  0  0  0  0
 25 27  1  0  0  0  0
 27 28  1  0  0  0  0
  2 29  1  0  0  0  0
  3 30  1  0  0  0  0
  4 31  1  0  0  0  0
  4 32  1  0  0  0  0
 10 33  1  0  0  0  0
 15 34  1  0  0  0  0
 15 35  1  0  0  0  0
 18 36  1  0  0  0  0
 19 37  1  0  0  0  0
 20 38  1  0  0  0  0
 23 39  1  0  0  0  0
 23 40  1  0  0  0  0
 23 41  1  0  0  0  0
 24 42  1  0  0  0  0
 24 43  1  0  0  0  0
 25 44  1  0  0  0  0
 26 45  1  0  0  0  0
 26 46  1  0  0  0  0
 28 47  1  0  0  0  0
 28 48  1  0  0  0  0
 28 49  1  0  0  0  0
M  END
> <Name>
45

> <IC50[uM]>
0.007

$$$$
45
  -OEChem-05192314333D
 Structure written by MMmdl.
 49 53  0     0  0  0  0  0  0999 V2000
   -6.4275   12.3453  -12.0176 C   0  0  0  0  0  0  0  0  0  0  0  0
   -6.6105   11.7832  -10.7429 C   0  0  0  0  0  0  0  0  0  0  0  0
   -7.7405   10.5587  -13.0479 C   0  0  0  0  0  0  0  0  0  0  0  0
   -7.0073   11.7527  -13.1387 C   0  0  0  0  0  0  0  0  0  0  0  0
   -7.8357    9.9872  -11.7695 C   0  0  0  0  0  0  0  0  0  0  0  0
   -7.2848   10.5993  -10.6252 C   0  0  0  0  0  0  0  0  0  0  0  0
   -7.6281    9.7307   -9.5318 C   0  0  0  0  0  0  0  0  0  0  0  0
   -8.2830    8.7083   -9.9969 N   0  0  0  0  0  0  0  0  0  0  0  0
   -8.4214    8.8369  -11.3125 N   0  0  0  0  0  0  0  0  0  0  0  0
   -7.3299    9.8861   -8.0415 C   0  0  0  0  0  0  0  0  0  0  0  0
   -4.6020   13.8371  -11.3112 N   0  0  0  0  0  0  0  0  0  0  0  0
   -5.6232   13.6419  -12.1798 C   0  0  0  0  0  0  0  0  0  0  0  0
   -5.9069   14.4516  -13.0592 O   0  0  0  0  0  0  0  0  0  0  0  0
   -5.9473   10.4903   -7.7303 C   0  0  0  0  0  0  0  0  0  0  0  0
   -5.8632   11.7421   -7.1195 C   0  0  0  0  0  0  0  0  0  0  0  0
   -4.5901   12.2560   -6.8332 C   0  0  0  0  0  0  0  0  0  0  0  0
   -3.4296   11.5300   -7.2115 C   0  0  0  0  0  0  0  0  0  0  0  0
   -3.5045   10.2730   -7.8164 C   0  0  0  0  0  0  0  0  0  0  0  0
   -4.7945    9.7703   -8.0537 C   0  0  0  0  0  0  0  0  0  0  0  0
   -4.0643   13.4351   -6.1976 C   0  0  0  0  0  0  0  0  0  0  0  0
   -2.7662   13.4536   -6.2615 N   0  0  0  0  0  0  0  0  0  0  0  0
   -2.3669   12.3336   -6.8391 N   0  0  0  0  0  0  0  0  0  0  0  0
   -0.9435   12.0941   -6.9881 C   0  0  0  0  0  0  0  0  0  0  0  0
   -4.0340   12.9997  -10.2404 C   0  0  0  0  0  0  0  0  0  0  0  0
   -3.1550   14.1929   -9.9451 C   0  0  0  0  0  0  0  0  0  0  0  0
   -3.8070   15.0441  -11.0419 C   0  0  0  0  0  0  0  0  0  0  0  0
   -3.4251   14.7437   -8.6708 O   0  0  0  0  0  0  0  0  0  0  0  0
   -4.8009   14.9943   -8.3397 C   0  0  0  0  0  0  0  0  0  0  0  0
   -5.6096   11.6267  -10.3142 H   0  0  0  0  0  0  0  0  0  0  0  0
   -7.1557   12.5246  -10.1403 H   0  0  0  0  0  0  0  0  0  0  0  0
   -8.2044   10.1062  -13.9119 H   0  0  0  0  0  0  0  0  0  0  0  0
   -6.8892   12.2248  -14.1028 H   0  0  0  0  0  0  0  0  0  0  0  0
   -8.0293    9.5968   -7.2711 H   0  0  0  0  0  0  0  0  0  0  0  0
   -6.3642   12.4628   -7.7826 H   0  0  0  0  0  0  0  0  0  0  0  0
   -6.4105   11.6778   -6.1675 H   0  0  0  0  0  0  0  0  0  0  0  0
   -2.6185    9.7178   -8.0869 H   0  0  0  0  0  0  0  0  0  0  0  0
   -4.8988    8.7932   -8.5018 H   0  0  0  0  0  0  0  0  0  0  0  0
   -4.6664   14.2006   -5.7309 H   0  0  0  0  0  0  0  0  0  0  0  0
   -0.3825   12.9417   -6.5674 H   0  0  0  0  0  0  0  0  0  0  0  0
   -0.6691   11.1721   -6.4547 H   0  0  0  0  0  0  0  0  0  0  0  0
   -0.6996   11.9867   -8.0553 H   0  0  0  0  0  0  0  0  0  0  0  0
   -4.7360   12.7267   -9.4387 H   0  0  0  0  0  0  0  0  0  0  0  0
   -3.5013   12.1004  -10.5834 H   0  0  0  0  0  0  0  0  0  0  0  0
   -2.0904   13.9978  -10.1413 H   0  0  0  0  0  0  0  0  0  0  0  0
   -3.1360   15.3560  -11.8558 H   0  0  0  0  0  0  0  0  0  0  0  0
   -4.3787   15.9133  -10.6846 H   0  0  0  0  0  0  0  0  0  0  0  0
   -4.8633   15.4195   -7.3271 H   0  0  0  0  0  0  0  0  0  0  0  0
   -5.2283   15.7048   -9.0625 H   0  0  0  0  0  0  0  0  0  0  0  0
   -5.3645   14.0504   -8.3763 H   0  0  0  0  0  0  0  0  0  0  0  0
  1  2  1  0  0  0  0
  1  4  2  0  0  0  0
  1 12  1  0  0  0  0
  2  6  1  0  0  0  0
  3  4  1  0  0  0  0
  3  5  2  0  0  0  0
  5  6  1  0  0  0  0
  5  9  1  0  0  0  0
  6  7  2  0  0  0  0
  7  8  1  0  0  0  0
  7 10  1  0  0  0  0
  8  9  2  0  0  0  0
 10 14  2  3  0  0  0
 11 12  1  0  0  0  0
 11 24  1  0  0  0  0
 11 26  1  0  0  0  0
 12 13  2  0  0  0  0
 14 15  1  0  0  0  0
 14 19  1  0  0  0  0
 15 16  1  0  0  0  0
 16 17  2  0  0  0  0
 16 20  1  0  0  0  0
 17 18  1  0  0  0  0
 17 22  1  0  0  0  0
 18 19  2  0  0  0  0
 20 21  2  0  0  0  0
 21 22  1  0  0  0  0
 22 23  1  0  0  0  0
 24 25  1  0  0  0  0
 25 26  1  0  0  0  0
 25 27  1  0  0  0  0
 27 28  1  0  0  0  0
  2 29  1  0  0  0  0
  2 30  1  0  0  0  0
  3 31  1  0  0  0  0
  4 32  1  0  0  0  0
 10 33  1  0  0  0  0
 15 34  1  0  0  0  0
 15 35  1  0  0  0  0
 18 36  1  0  0  0  0
 19 37  1  0  0  0  0
 20 38  1  0  0  0  0
 23 39  1  0  0  0  0
 23 40  1  0  0  0  0
 23 41  1  0  0  0  0
 24 42  1  0  0  0  0
 24 43  1  0  0  0  0
 25 44  1  0  0  0  0
 26 45  1  0  0  0  0
 26 46  1  0  0  0  0
 28 47  1  0  0  0  0
 28 48  1  0  0  0  0
 28 49  1  0  0  0  0
M  END
> <Name>
45

> <IC50[uM]>
0.007

$$$$
45
  -OEChem-05192314333D
 Structure written by MMmdl.
 49 53  0     1  0  0  0  0  0999 V2000
   -6.4275   12.3453  -12.0176 C   0  0  3  0  0  0  0  0  0  0  0  0
   -6.6105   11.7832  -10.7429 C   0  0  0  0  0  0  0  0  0  0  0  0
   -7.7405   10.5587  -13.0479 C   0  0  0  0  0  0  0  0  0  0  0  0
   -7.0073   11.7527  -13.1387 C   0  0  0  0  0  0  0  0  0  0  0  0
   -7.8357    9.9872  -11.7695 C   0  0  0  0  0  0  0  0  0  0  0  0
   -7.2848   10.5993  -10.6252 C   0  0  0  0  0  0  0  0  0  0  0  0
   -7.6281    9.7307   -9.5318 C   0  0  0  0  0  0  0  0  0  0  0  0
   -8.2830    8.7083   -9.9969 N   0  0  0  0  0  0  0  0  0  0  0  0
   -8.4214    8.8369  -11.3125 N   0  0  0  0  0  0  0  0  0  0  0  0
   -7.3299    9.8861   -8.0415 C   0  0  0  0  0  0  0  0  0  0  0  0
   -4.6020   13.8371  -11.3112 N   0  0  0  0  0  0  0  0  0  0  0  0
   -5.6232   13.6419  -12.1798 C   0  0  0  0  0  0  0  0  0  0  0  0
   -5.9069   14.4516  -13.0592 O   0  0  0  0  0  0  0  0  0  0  0  0
   -5.9473   10.4903   -7.7303 C   0  0  0  0  0  0  0  0  0  0  0  0
   -5.8632   11.7421   -7.1195 C   0  0  0  0  0  0  0  0  0  0  0  0
   -4.5901   12.2560   -6.8332 C   0  0  0  0  0  0  0  0  0  0  0  0
   -3.4296   11.5300   -7.2115 C   0  0  0  0  0  0  0  0  0  0  0  0
   -3.5045   10.2730   -7.8164 C   0  0  0  0  0  0  0  0  0  0  0  0
   -4.7945    9.7703   -8.0537 C   0  0  0  0  0  0  0  0  0  0  0  0
   -4.0643   13.4351   -6.1976 C   0  0  0  0  0  0  0  0  0  0  0  0
   -2.7662   13.4536   -6.2615 N   0  0  0  0  0  0  0  0  0  0  0  0
   -2.3669   12.3336   -6.8391 N   0  0  0  0  0  0  0  0  0  0  0  0
   -0.9435   12.0941   -6.9881 C   0  0  0  0  0  0  0  0  0  0  0  0
   -4.0340   12.9997  -10.2404 C   0  0  0  0  0  0  0  0  0  0  0  0
   -3.1550   14.1929   -9.9451 C   0  0  0  0  0  0  0  0  0  0  0  0
   -3.8070   15.0441  -11.0419 C   0  0  0  0  0  0  0  0  0  0  0  0
   -3.4251   14.7437   -8.6708 O   0  0  0  0  0  0  0  0  0  0  0  0
   -4.8009   14.9943   -8.3397 C   0  0  0  0  0  0  0  0  0  0  0  0
   -5.5143   11.7492  -12.1613 H   0  0  0  0  0  0  0  0  0  0  0  0
   -6.2230   12.2805   -9.8660 H   0  0  0  0  0  0  0  0  0  0  0  0
   -8.2044   10.1062  -13.9119 H   0  0  0  0  0  0  0  0  0  0  0  0
   -6.8892   12.2248  -14.1028 H   0  0  0  0  0  0  0  0  0  0  0  0
   -8.0293    9.5968   -7.2711 H   0  0  0  0  0  0  0  0  0  0  0  0
   -6.7546   12.3002   -6.8738 H   0  0  0  0  0  0  0  0  0  0  0  0
   -2.6185    9.7178   -8.0869 H   0  0  0  0  0  0  0  0  0  0  0  0
   -4.8603    8.8218   -7.5006 H   0  0  0  0  0  0  0  0  0  0  0  0
   -4.8514    9.5697   -9.1338 H   0  0  0  0  0  0  0  0  0  0  0  0
   -4.6664   14.2006   -5.7309 H   0  0  0  0  0  0  0  0  0  0  0  0
   -0.3825   12.9417   -6.5674 H   0  0  0  0  0  0  0  0  0  0  0  0
   -0.6691   11.1721   -6.4547 H   0  0  0  0  0  0  0  0  0  0  0  0
   -0.6996   11.9867   -8.0553 H   0  0  0  0  0  0  0  0  0  0  0  0
   -4.7360   12.7267   -9.4387 H   0  0  0  0  0  0  0  0  0  0  0  0
   -3.5013   12.1004  -10.5834 H   0  0  0  0  0  0  0  0  0  0  0  0
   -2.0904   13.9978  -10.1413 H   0  0  0  0  0  0  0  0  0  0  0  0
   -3.1360   15.3560  -11.8558 H   0  0  0  0  0  0  0  0  0  0  0  0
   -4.3787   15.9133  -10.6846 H   0  0  0  0  0  0  0  0  0  0  0  0
   -4.8633   15.4195   -7.3271 H   0  0  0  0  0  0  0  0  0  0  0  0
   -5.2283   15.7048   -9.0625 H   0  0  0  0  0  0  0  0  0  0  0  0
   -5.3645   14.0504   -8.3763 H   0  0  0  0  0  0  0  0  0  0  0  0
  1  2  1  0  0  0  0
  1  4  1  0  0  0  0
  1 12  1  0  0  0  0
  2  6  2  0  0  0  0
  3  4  2  0  0  0  0
  3  5  1  0  0  0  0
  5  6  1  0  0  0  0
  5  9  2  0  0  0  0
  6  7  1  0  0  0  0
  7  8  2  0  0  0  0
  7 10  1  0  0  0  0
  8  9  1  0  0  0  0
 10 14  2  3  0  0  0
 11 12  1  0  0  0  0
 11 24  1  0  0  0  0
 11 26  1  0  0  0  0
 12 13  2  0  0  0  0
 14 15  1  0  0  0  0
 14 19  1  0  0  0  0
 15 16  2  0  0  0  0
 16 17  1  0  0  0  0
 16 20  1  0  0  0  0
 17 18  2  0  0  0  0
 17 22  1  0  0  0  0
 18 19  1  0  0  0  0
 20 21  2  0  0  0  0
 21 22  1  0  0  0  0
 22 23  1  0  0  0  0
 24 25  1  0  0  0  0
 25 26  1  0  0  0  0
 25 27  1  0  0  0  0
 27 28  1  0  0  0  0
  1 29  1  0  0  0  0
  2 30  1  0  0  0  0
  3 31  1  0  0  0  0
  4 32  1  0  0  0  0
 10 33  1  0  0  0  0
 15 34  1  0  0  0  0
 18 35  1  0  0  0  0
 19 36  1  0  0  0  0
 19 37  1  0  0  0  0
 20 38  1  0  0  0  0
 23 39  1  0  0  0  0
 23 40  1  0  0  0  0
 23 41  1  0  0  0  0
 24 42  1  0  0  0  0
 24 43  1  0  0  0  0
 25 44  1  0  0  0  0
 26 45  1  0  0  0  0
 26 46  1  0  0  0  0
 28 47  1  0  0  0  0
 28 48  1  0  0  0  0
 28 49  1  0  0  0  0
M  END
> <Name>
45

> <IC50[uM]>
0.007

$$$$
45
  -OEChem-05192314333D
 Structure written by MMmdl.
 49 53  0     1  0  0  0  0  0999 V2000
   -6.4275   12.3453  -12.0176 C   0  0  0  0  0  0  0  0  0  0  0  0
   -6.6105   11.7832  -10.7429 C   0  0  0  0  0  0  0  0  0  0  0  0
   -7.7405   10.5587  -13.0479 C   0  0  0  0  0  0  0  0  0  0  0  0
   -7.0073   11.7527  -13.1387 C   0  0  0  0  0  0  0  0  0  0  0  0
   -7.8357    9.9872  -11.7695 C   0  0  0  0  0  0  0  0  0  0  0  0
   -7.2848   10.5993  -10.6252 C   0  0  3  0  0  0  0  0  0  0  0  0
   -7.6281    9.7307   -9.5318 C   0  0  0  0  0  0  0  0  0  0  0  0
   -8.2830    8.7083   -9.9969 N   0  0  0  0  0  0  0  0  0  0  0  0
   -8.4214    8.8369  -11.3125 N   0  0  0  0  0  0  0  0  0  0  0  0
   -7.3299    9.8861   -8.0415 C   0  0  0  0  0  0  0  0  0  0  0  0
   -4.6020   13.8371  -11.3112 N   0  0  0  0  0  0  0  0  0  0  0  0
   -5.6232   13.6419  -12.1798 C   0  0  0  0  0  0  0  0  0  0  0  0
   -5.9069   14.4516  -13.0592 O   0  0  0  0  0  0  0  0  0  0  0  0
   -5.9473   10.4903   -7.7303 C   0  0  0  0  0  0  0  0  0  0  0  0
   -5.8632   11.7421   -7.1195 C   0  0  0  0  0  0  0  0  0  0  0  0
   -4.5901   12.2560   -6.8332 C   0  0  0  0  0  0  0  0  0  0  0  0
   -3.4296   11.5300   -7.2115 C   0  0  0  0  0  0  0  0  0  0  0  0
   -3.5045   10.2730   -7.8164 C   0  0  0  0  0  0  0  0  0  0  0  0
   -4.7945    9.7703   -8.0537 C   0  0  0  0  0  0  0  0  0  0  0  0
   -4.0643   13.4351   -6.1976 C   0  0  0  0  0  0  0  0  0  0  0  0
   -2.7662   13.4536   -6.2615 N   0  0  0  0  0  0  0  0  0  0  0  0
   -2.3669   12.3336   -6.8391 N   0  0  0  0  0  0  0  0  0  0  0  0
   -0.9435   12.0941   -6.9881 C   0  0  0  0  0  0  0  0  0  0  0  0
   -4.0340   12.9997  -10.2404 C   0  0  0  0  0  0  0  0  0  0  0  0
   -3.1550   14.1929   -9.9451 C   0  0  0  0  0  0  0  0  0  0  0  0
   -3.8070   15.0441  -11.0419 C   0  0  0  0  0  0  0  0  0  0  0  0
   -3.4251   14.7437   -8.6708 O   0  0  0  0  0  0  0  0  0  0  0  0
   -4.8009   14.9943   -8.3397 C   0  0  0  0  0  0  0  0  0  0  0  0
   -6.2230   12.2805   -9.8660 H   0  0  0  0  0  0  0  0  0  0  0  0
   -8.2044   10.1062  -13.9119 H   0  0  0  0  0  0  0  0  0  0  0  0
   -6.8892   12.2248  -14.1028 H   0  0  0  0  0  0  0  0  0  0  0  0
   -6.3465   10.0453  -10.7758 H   0  0  0  0  0  0  0  0  0  0  0  0
   -8.0293    9.5968   -7.2711 H   0  0  0  0  0  0  0  0  0  0  0  0
   -6.7546   12.3002   -6.8738 H   0  0  0  0  0  0  0  0  0  0  0  0
   -2.6185    9.7178   -8.0869 H   0  0  0  0  0  0  0  0  0  0  0  0
   -4.8603    8.8218   -7.5006 H   0  0  0  0  0  0  0  0  0  0  0  0
   -4.8514    9.5697   -9.1338 H   0  0  0  0  0  0  0  0  0  0  0  0
   -4.6664   14.2006   -5.7309 H   0  0  0  0  0  0  0  0  0  0  0  0
   -0.3825   12.9417   -6.5674 H   0  0  0  0  0  0  0  0  0  0  0  0
   -0.6691   11.1721   -6.4547 H   0  0  0  0  0  0  0  0  0  0  0  0
   -0.6996   11.9867   -8.0553 H   0  0  0  0  0  0  0  0  0  0  0  0
   -4.7360   12.7267   -9.4387 H   0  0  0  0  0  0  0  0  0  0  0  0
   -3.5013   12.1004  -10.5834 H   0  0  0  0  0  0  0  0  0  0  0  0
   -2.0904   13.9978  -10.1413 H   0  0  0  0  0  0  0  0  0  0  0  0
   -3.1360   15.3560  -11.8558 H   0  0  0  0  0  0  0  0  0  0  0  0
   -4.3787   15.9133  -10.6846 H   0  0  0  0  0  0  0  0  0  0  0  0
   -4.8633   15.4195   -7.3271 H   0  0  0  0  0  0  0  0  0  0  0  0
   -5.2283   15.7048   -9.0625 H   0  0  0  0  0  0  0  0  0  0  0  0
   -5.3645   14.0504   -8.3763 H   0  0  0  0  0  0  0  0  0  0  0  0
  1  2  2  0  0  0  0
  1  4  1  0  0  0  0
  1 12  1  0  0  0  0
  2  6  1  0  0  0  0
  3  4  2  0  0  0  0
  3  5  1  0  0  0  0
  5  6  1  0  0  0  0
  5  9  2  0  0  0  0
  6  7  1  0  0  0  0
  7  8  2  0  0  0  0
  7 10  1  0  0  0  0
  8  9  1  0  0  0  0
 10 14  2  3  0  0  0
 11 12  1  0  0  0  0
 11 24  1  0  0  0  0
 11 26  1  0  0  0  0
 12 13  2  0  0  0  0
 14 15  1  0  0  0  0
 14 19  1  0  0  0  0
 15 16  2  0  0  0  0
 16 17  1  0  0  0  0
 16 20  1  0  0  0  0
 17 18  2  0  0  0  0
 17 22  1  0  0  0  0
 18 19  1  0  0  0  0
 20 21  2  0  0  0  0
 21 22  1  0  0  0  0
 22 23  1  0  0  0  0
 24 25  1  0  0  0  0
 25 26  1  0  0  0  0
 25 27  1  0  0  0  0
 27 28  1  0  0  0  0
  2 29  1  0  0  0  0
  3 30  1  0  0  0  0
  4 31  1  0  0  0  0
  6 32  1  0  0  0  0
 10 33  1  0  0  0  0
 15 34  1  0  0  0  0
 18 35  1  0  0  0  0
 19 36  1  0  0  0  0
 19 37  1  0  0  0  0
 20 38  1  0  0  0  0
 23 39  1  0  0  0  0
 23 40  1  0  0  0  0
 23 41  1  0  0  0  0
 24 42  1  0  0  0  0
 24 43  1  0  0  0  0
 25 44  1  0  0  0  0
 26 45  1  0  0  0  0
 26 46  1  0  0  0  0
 28 47  1  0  0  0  0
 28 48  1  0  0  0  0
 28 49  1  0  0  0  0
M  END
> <Name>
45

> <IC50[uM]>
0.007

$$$$
45
  -OEChem-05192314333D
 Structure written by MMmdl.
 49 53  0     0  0  0  0  0  0999 V2000
   -6.4275   12.3453  -12.0176 C   0  0  0  0  0  0  0  0  0  0  0  0
   -6.6105   11.7832  -10.7429 C   0  0  0  0  0  0  0  0  0  0  0  0
   -7.7405   10.5587  -13.0479 C   0  0  0  0  0  0  0  0  0  0  0  0
   -7.0073   11.7527  -13.1387 C   0  0  0  0  0  0  0  0  0  0  0  0
   -7.8357    9.9872  -11.7695 C   0  0  0  0  0  0  0  0  0  0  0  0
   -7.2848   10.5993  -10.6252 C   0  0  0  0  0  0  0  0  0  0  0  0
   -7.6281    9.7307   -9.5318 C   0  0  0  0  0  0  0  0  0  0  0  0
   -8.2830    8.7083   -9.9969 N   0  0  0  0  0  0  0  0  0  0  0  0
   -8.4214    8.8369  -11.3125 N   0  0  0  0  0  0  0  0  0  0  0  0
   -7.3299    9.8861   -8.0415 C   0  0  0  0  0  0  0  0  0  0  0  0
   -4.6020   13.8371  -11.3112 N   0  0  0  0  0  0  0  0  0  0  0  0
   -5.6232   13.6419  -12.1798 C   0  0  0  0  0  0  0  0  0  0  0  0
   -5.9069   14.4516  -13.0592 O   0  0  0  0  0  0  0  0  0  0  0  0
   -5.9473   10.4903   -7.7303 C   0  0  0  0  0  0  0  0  0  0  0  0
   -5.8632   11.7421   -7.1195 C   0  0  0  0  0  0  0  0  0  0  0  0
   -4.5901   12.2560   -6.8332 C   0  0  0  0  0  0  0  0  0  0  0  0
   -3.4296   11.5300   -7.2115 C   0  0  0  0  0  0  0  0  0  0  0  0
   -3.5045   10.2730   -7.8164 C   0  0  0  0  0  0  0  0  0  0  0  0
   -4.7945    9.7703   -8.0537 C   0  0  0  0  0  0  0  0  0  0  0  0
   -4.0643   13.4351   -6.1976 C   0  0  0  0  0  0  0  0  0  0  0  0
   -2.7662   13.4536   -6.2615 N   0  0  0  0  0  0  0  0  0  0  0  0
   -2.3669   12.3336   -6.8391 N   0  0  0  0  0  0  0  0  0  0  0  0
   -0.9435   12.0941   -6.9881 C   0  0  0  0  0  0  0  0  0  0  0  0
   -4.0340   12.9997  -10.2404 C   0  0  0  0  0  0  0  0  0  0  0  0
   -3.1550   14.1929   -9.9451 C   0  0  0  0  0  0  0  0  0  0  0  0
   -3.8070   15.0441  -11.0419 C   0  0  0  0  0  0  0  0  0  0  0  0
   -3.4251   14.7437   -8.6708 O   0  0  0  0  0  0  0  0  0  0  0  0
   -4.8009   14.9943   -8.3397 C   0  0  0  0  0  0  0  0  0  0  0  0
   -6.2230   12.2805   -9.8660 H   0  0  0  0  0  0  0  0  0  0  0  0
   -8.7619   10.7641  -13.4009 H   0  0  0  0  0  0  0  0  0  0  0  0
   -7.2647    9.8211  -13.7110 H   0  0  0  0  0  0  0  0  0  0  0  0
   -6.8892   12.2248  -14.1028 H   0  0  0  0  0  0  0  0  0  0  0  0
   -8.0293    9.5968   -7.2711 H   0  0  0  0  0  0  0  0  0  0  0  0
   -6.7546   12.3002   -6.8738 H   0  0  0  0  0  0  0  0  0  0  0  0
   -2.6185    9.7178   -8.0869 H   0  0  0  0  0  0  0  0  0  0  0  0
   -4.8603    8.8218   -7.5006 H   0  0  0  0  0  0  0  0  0  0  0  0
   -4.8514    9.5697   -9.1338 H   0  0  0  0  0  0  0  0  0  0  0  0
   -4.6664   14.2006   -5.7309 H   0  0  0  0  0  0  0  0  0  0  0  0
   -0.3825   12.9417   -6.5674 H   0  0  0  0  0  0  0  0  0  0  0  0
   -0.6691   11.1721   -6.4547 H   0  0  0  0  0  0  0  0  0  0  0  0
   -0.6996   11.9867   -8.0553 H   0  0  0  0  0  0  0  0  0  0  0  0
   -4.7360   12.7267   -9.4387 H   0  0  0  0  0  0  0  0  0  0  0  0
   -3.5013   12.1004  -10.5834 H   0  0  0  0  0  0  0  0  0  0  0  0
   -2.0904   13.9978  -10.1413 H   0  0  0  0  0  0  0  0  0  0  0  0
   -3.1360   15.3560  -11.8558 H   0  0  0  0  0  0  0  0  0  0  0  0
   -4.3787   15.9133  -10.6846 H   0  0  0  0  0  0  0  0  0  0  0  0
   -4.8633   15.4195   -7.3271 H   0  0  0  0  0  0  0  0  0  0  0  0
   -5.2283   15.7048   -9.0625 H   0  0  0  0  0  0  0  0  0  0  0  0
   -5.3645   14.0504   -8.3763 H   0  0  0  0  0  0  0  0  0  0  0  0
  1  2  1  0  0  0  0
  1  4  2  0  0  0  0
  1 12  1  0  0  0  0
  2  6  2  0  0  0  0
  3  4  1  0  0  0  0
  3  5  1  0  0  0  0
  5  6  1  0  0  0  0
  5  9  2  0  0  0  0
  6  7  1  0  0  0  0
  7  8  2  0  0  0  0
  7 10  1  0  0  0  0
  8  9  1  0  0  0  0
 10 14  2  3  0  0  0
 11 12  1  0  0  0  0
 11 24  1  0  0  0  0
 11 26  1  0  0  0  0
 12 13  2  0  0  0  0
 14 15  1  0  0  0  0
 14 19  1  0  0  0  0
 15 16  2  0  0  0  0
 16 17  1  0  0  0  0
 16 20  1  0  0  0  0
 17 18  2  0  0  0  0
 17 22  1  0  0  0  0
 18 19  1  0  0  0  0
 20 21  2  0  0  0  0
 21 22  1  0  0  0  0
 22 23  1  0  0  0  0
 24 25  1  0  0  0  0
 25 26  1  0  0  0  0
 25 27  1  0  0  0  0
 27 28  1  0  0  0  0
  2 29  1  0  0  0  0
  3 30  1  0  0  0  0
  3 31  1  0  0  0  0
  4 32  1  0  0  0  0
 10 33  1  0  0  0  0
 15 34  1  0  0  0  0
 18 35  1  0  0  0  0
 19 36  1  0  0  0  0
 19 37  1  0  0  0  0
 20 38  1  0  0  0  0
 23 39  1  0  0  0  0
 23 40  1  0  0  0  0
 23 41  1  0  0  0  0
 24 42  1  0  0  0  0
 24 43  1  0  0  0  0
 25 44  1  0  0  0  0
 26 45  1  0  0  0  0
 26 46  1  0  0  0  0
 28 47  1  0  0  0  0
 28 48  1  0  0  0  0
 28 49  1  0  0  0  0
M  END
> <Name>
45

> <IC50[uM]>
0.007

$$$$
45
  -OEChem-05192314333D
 Structure written by MMmdl.
 49 53  0     1  0  0  0  0  0999 V2000
   -6.4275   12.3453  -12.0176 C   0  0  0  0  0  0  0  0  0  0  0  0
   -6.6105   11.7832  -10.7429 C   0  0  0  0  0  0  0  0  0  0  0  0
   -7.7405   10.5587  -13.0479 C   0  0  0  0  0  0  0  0  0  0  0  0
   -7.0073   11.7527  -13.1387 C   0  0  0  0  0  0  0  0  0  0  0  0
   -7.8357    9.9872  -11.7695 C   0  0  3  0  0  0  0  0  0  0  0  0
   -7.2848   10.5993  -10.6252 C   0  0  0  0  0  0  0  0  0  0  0  0
   -7.6281    9.7307   -9.5318 C   0  0  0  0  0  0  0  0  0  0  0  0
   -8.2830    8.7083   -9.9969 N   0  0  0  0  0  0  0  0  0  0  0  0
   -8.4214    8.8369  -11.3125 N   0  0  0  0  0  0  0  0  0  0  0  0
   -7.3299    9.8861   -8.0415 C   0  0  0  0  0  0  0  0  0  0  0  0
   -4.6020   13.8371  -11.3112 N   0  0  0  0  0  0  0  0  0  0  0  0
   -5.6232   13.6419  -12.1798 C   0  0  0  0  0  0  0  0  0  0  0  0
   -5.9069   14.4516  -13.0592 O   0  0  0  0  0  0  0  0  0  0  0  0
   -5.9473   10.4903   -7.7303 C   0  0  0  0  0  0  0  0  0  0  0  0
   -5.8632   11.7421   -7.1195 C   0  0  0  0  0  0  0  0  0  0  0  0
   -4.5901   12.2560   -6.8332 C   0  0  0  0  0  0  0  0  0  0  0  0
   -3.4296   11.5300   -7.2115 C   0  0  0  0  0  0  0  0  0  0  0  0
   -3.5045   10.2730   -7.8164 C   0  0  0  0  0  0  0  0  0  0  0  0
   -4.7945    9.7703   -8.0537 C   0  0  0  0  0  0  0  0  0  0  0  0
   -4.0643   13.4351   -6.1976 C   0  0  0  0  0  0  0  0  0  0  0  0
   -2.7662   13.4536   -6.2615 N   0  0  0  0  0  0  0  0  0  0  0  0
   -2.3669   12.3336   -6.8391 N   0  0  0  0  0  0  0  0  0  0  0  0
   -0.9435   12.0941   -6.9881 C   0  0  0  0  0  0  0  0  0  0  0  0
   -4.0340   12.9997  -10.2404 C   0  0  0  0  0  0  0  0  0  0  0  0
   -3.1550   14.1929   -9.9451 C   0  0  0  0  0  0  0  0  0  0  0  0
   -3.8070   15.0441  -11.0419 C   0  0  0  0  0  0  0  0  0  0  0  0
   -3.4251   14.7437   -8.6708 O   0  0  0  0  0  0  0  0  0  0  0  0
   -4.8009   14.9943   -8.3397 C   0  0  0  0  0  0  0  0  0  0  0  0
   -6.2230   12.2805   -9.8660 H   0  0  0  0  0  0  0  0  0  0  0  0
   -8.2044   10.1062  -13.9119 H   0  0  0  0  0  0  0  0  0  0  0  0
   -6.8892   12.2248  -14.1028 H   0  0  0  0  0  0  0  0  0  0  0  0
   -6.8934    9.4451  -11.9376 H   0  0  0  0  0  0  0  0  0  0  0  0
   -8.0293    9.5968   -7.2711 H   0  0  0  0  0  0  0  0  0  0  0  0
   -6.7546   12.3002   -6.8738 H   0  0  0  0  0  0  0  0  0  0  0  0
   -2.6185    9.7178   -8.0869 H   0  0  0  0  0  0  0  0  0  0  0  0
   -4.8603    8.8218   -7.5006 H   0  0  0  0  0  0  0  0  0  0  0  0
   -4.8514    9.5697   -9.1338 H   0  0  0  0  0  0  0  0  0  0  0  0
   -4.6664   14.2006   -5.7309 H   0  0  0  0  0  0  0  0  0  0  0  0
   -0.3825   12.9417   -6.5674 H   0  0  0  0  0  0  0  0  0  0  0  0
   -0.6691   11.1721   -6.4547 H   0  0  0  0  0  0  0  0  0  0  0  0
   -0.6996   11.9867   -8.0553 H   0  0  0  0  0  0  0  0  0  0  0  0
   -4.7360   12.7267   -9.4387 H   0  0  0  0  0  0  0  0  0  0  0  0
   -3.5013   12.1004  -10.5834 H   0  0  0  0  0  0  0  0  0  0  0  0
   -2.0904   13.9978  -10.1413 H   0  0  0  0  0  0  0  0  0  0  0  0
   -3.1360   15.3560  -11.8558 H   0  0  0  0  0  0  0  0  0  0  0  0
   -4.3787   15.9133  -10.6846 H   0  0  0  0  0  0  0  0  0  0  0  0
   -4.8633   15.4195   -7.3271 H   0  0  0  0  0  0  0  0  0  0  0  0
   -5.2283   15.7048   -9.0625 H   0  0  0  0  0  0  0  0  0  0  0  0
   -5.3645   14.0504   -8.3763 H   0  0  0  0  0  0  0  0  0  0  0  0
  1  2  2  0  0  0  0
  1  4  1  0  0  0  0
  1 12  1  0  0  0  0
  2  6  1  0  0  0  0
  3  4  2  0  0  0  0
  3  5  1  0  0  0  0
  5  6  1  0  0  0  0
  5  9  1  0  0  0  0
  6  7  2  0  0  0  0
  7  8  1  0  0  0  0
  7 10  1  0  0  0  0
  8  9  2  0  0  0  0
 10 14  2  3  0  0  0
 11 12  1  0  0  0  0
 11 24  1  0  0  0  0
 11 26  1  0  0  0  0
 12 13  2  0  0  0  0
 14 15  1  0  0  0  0
 14 19  1  0  0  0  0
 15 16  2  0  0  0  0
 16 17  1  0  0  0  0
 16 20  1  0  0  0  0
 17 18  2  0  0  0  0
 17 22  1  0  0  0  0
 18 19  1  0  0  0  0
 20 21  2  0  0  0  0
 21 22  1  0  0  0  0
 22 23  1  0  0  0  0
 24 25  1  0  0  0  0
 25 26  1  0  0  0  0
 25 27  1  0  0  0  0
 27 28  1  0  0  0  0
  2 29  1  0  0  0  0
  3 30  1  0  0  0  0
  4 31  1  0  0  0  0
  5 32  1  0  0  0  0
 10 33  1  0  0  0  0
 15 34  1  0  0  0  0
 18 35  1  0  0  0  0
 19 36  1  0  0  0  0
 19 37  1  0  0  0  0
 20 38  1  0  0  0  0
 23 39  1  0  0  0  0
 23 40  1  0  0  0  0
 23 41  1  0  0  0  0
 24 42  1  0  0  0  0
 24 43  1  0  0  0  0
 25 44  1  0  0  0  0
 26 45  1  0  0  0  0
 26 46  1  0  0  0  0
 28 47  1  0  0  0  0
 28 48  1  0  0  0  0
 28 49  1  0  0  0  0
M  END
> <Name>
45

> <IC50[uM]>
0.007

$$$$
45
  -OEChem-05192314333D
 Structure written by MMmdl.
 49 53  0     0  0  0  0  0  0999 V2000
   -6.4275   12.3453  -12.0176 C   0  0  0  0  0  0  0  0  0  0  0  0
   -6.6105   11.7832  -10.7429 C   0  0  0  0  0  0  0  0  0  0  0  0
   -7.7405   10.5587  -13.0479 C   0  0  0  0  0  0  0  0  0  0  0  0
   -7.0073   11.7527  -13.1387 C   0  0  0  0  0  0  0  0  0  0  0  0
   -7.8357    9.9872  -11.7695 C   0  0  0  0  0  0  0  0  0  0  0  0
   -7.2848   10.5993  -10.6252 C   0  0  0  0  0  0  0  0  0  0  0  0
   -7.6281    9.7307   -9.5318 C   0  0  0  0  0  0  0  0  0  0  0  0
   -8.2830    8.7083   -9.9969 N   0  0  0  0  0  0  0  0  0  0  0  0
   -8.4214    8.8369  -11.3125 N   0  0  0  0  0  0  0  0  0  0  0  0
   -7.3299    9.8861   -8.0415 C   0  0  0  0  0  0  0  0  0  0  0  0
   -4.6020   13.8371  -11.3112 N   0  0  0  0  0  0  0  0  0  0  0  0
   -5.6232   13.6419  -12.1798 C   0  0  0  0  0  0  0  0  0  0  0  0
   -5.9069   14.4516  -13.0592 O   0  0  0  0  0  0  0  0  0  0  0  0
   -5.9473   10.4903   -7.7303 C   0  0  0  0  0  0  0  0  0  0  0  0
   -5.8632   11.7421   -7.1195 C   0  0  0  0  0  0  0  0  0  0  0  0
   -4.5901   12.2560   -6.8332 C   0  0  0  0  0  0  0  0  0  0  0  0
   -3.4296   11.5300   -7.2115 C   0  0  0  0  0  0  0  0  0  0  0  0
   -3.5045   10.2730   -7.8164 C   0  0  0  0  0  0  0  0  0  0  0  0
   -4.7945    9.7703   -8.0537 C   0  0  0  0  0  0  0  0  0  0  0  0
   -4.0643   13.4351   -6.1976 C   0  0  0  0  0  0  0  0  0  0  0  0
   -2.7662   13.4536   -6.2615 N   0  0  0  0  0  0  0  0  0  0  0  0
   -2.3669   12.3336   -6.8391 N   0  0  0  0  0  0  0  0  0  0  0  0
   -0.9435   12.0941   -6.9881 C   0  0  0  0  0  0  0  0  0  0  0  0
   -4.0340   12.9997  -10.2404 C   0  0  0  0  0  0  0  0  0  0  0  0
   -3.1550   14.1929   -9.9451 C   0  0  0  0  0  0  0  0  0  0  0  0
   -3.8070   15.0441  -11.0419 C   0  0  0  0  0  0  0  0  0  0  0  0
   -3.4251   14.7437   -8.6708 O   0  0  0  0  0  0  0  0  0  0  0  0
   -4.8009   14.9943   -8.3397 C   0  0  0  0  0  0  0  0  0  0  0  0
   -6.2230   12.2805   -9.8660 H   0  0  0  0  0  0  0  0  0  0  0  0
   -8.2044   10.1062  -13.9119 H   0  0  0  0  0  0  0  0  0  0  0  0
   -7.6892   12.5023  -13.5665 H   0  0  0  0  0  0  0  0  0  0  0  0
   -6.1865   11.5583  -13.8448 H   0  0  0  0  0  0  0  0  0  0  0  0
   -8.0293    9.5968   -7.2711 H   0  0  0  0  0  0  0  0  0  0  0  0
   -6.7546   12.3002   -6.8738 H   0  0  0  0  0  0  0  0  0  0  0  0
   -2.6185    9.7178   -8.0869 H   0  0  0  0  0  0  0  0  0  0  0  0
   -4.8603    8.8218   -7.5006 H   0  0  0  0  0  0  0  0  0  0  0  0
   -4.8514    9.5697   -9.1338 H   0  0  0  0  0  0  0  0  0  0  0  0
   -4.6664   14.2006   -5.7309 H   0  0  0  0  0  0  0  0  0  0  0  0
   -0.3825   12.9417   -6.5674 H   0  0  0  0  0  0  0  0  0  0  0  0
   -0.6691   11.1721   -6.4547 H   0  0  0  0  0  0  0  0  0  0  0  0
   -0.6996   11.9867   -8.0553 H   0  0  0  0  0  0  0  0  0  0  0  0
   -4.7360   12.7267   -9.4387 H   0  0  0  0  0  0  0  0  0  0  0  0
   -3.5013   12.1004  -10.5834 H   0  0  0  0  0  0  0  0  0  0  0  0
   -2.0904   13.9978  -10.1413 H   0  0  0  0  0  0  0  0  0  0  0  0
   -3.1360   15.3560  -11.8558 H   0  0  0  0  0  0  0  0  0  0  0  0
   -4.3787   15.9133  -10.6846 H   0  0  0  0  0  0  0  0  0  0  0  0
   -4.8633   15.4195   -7.3271 H   0  0  0  0  0  0  0  0  0  0  0  0
   -5.2283   15.7048   -9.0625 H   0  0  0  0  0  0  0  0  0  0  0  0
   -5.3645   14.0504   -8.3763 H   0  0  0  0  0  0  0  0  0  0  0  0
  1  2  2  0  0  0  0
  1  4  1  0  0  0  0
  1 12  1  0  0  0  0
  2  6  1  0  0  0  0
  3  4  1  0  0  0  0
  3  5  2  0  0  0  0
  5  6  1  0  0  0  0
  5  9  1  0  0  0  0
  6  7  2  0  0  0  0
  7  8  1  0  0  0  0
  7 10  1  0  0  0  0
  8  9  2  0  0  0  0
 10 14  2  3  0  0  0
 11 12  1  0  0  0  0
 11 24  1  0  0  0  0
 11 26  1  0  0  0  0
 12 13  2  0  0  0  0
 14 15  1  0  0  0  0
 14 19  1  0  0  0  0
 15 16  2  0  0  0  0
 16 17  1  0  0  0  0
 16 20  1  0  0  0  0
 17 18  2  0  0  0  0
 17 22  1  0  0  0  0
 18 19  1  0  0  0  0
 20 21  2  0  0  0  0
 21 22  1  0  0  0  0
 22 23  1  0  0  0  0
 24 25  1  0  0  0  0
 25 26  1  0  0  0  0
 25 27  1  0  0  0  0
 27 28  1  0  0  0  0
  2 29  1  0  0  0  0
  3 30  1  0  0  0  0
  4 31  1  0  0  0  0
  4 32  1  0  0  0  0
 10 33  1  0  0  0  0
 15 34  1  0  0  0  0
 18 35  1  0  0  0  0
 19 36  1  0  0  0  0
 19 37  1  0  0  0  0
 20 38  1  0  0  0  0
 23 39  1  0  0  0  0
 23 40  1  0  0  0  0
 23 41  1  0  0  0  0
 24 42  1  0  0  0  0
 24 43  1  0  0  0  0
 25 44  1  0  0  0  0
 26 45  1  0  0  0  0
 26 46  1  0  0  0  0
 28 47  1  0  0  0  0
 28 48  1  0  0  0  0
 28 49  1  0  0  0  0
M  END
> <Name>
45

> <IC50[uM]>
0.007

$$$$
45
  -OEChem-05192314333D
 Structure written by MMmdl.
 49 53  0     0  0  0  0  0  0999 V2000
   -6.4275   12.3453  -12.0176 C   0  0  0  0  0  0  0  0  0  0  0  0
   -6.6105   11.7832  -10.7429 C   0  0  0  0  0  0  0  0  0  0  0  0
   -7.7405   10.5587  -13.0479 C   0  0  0  0  0  0  0  0  0  0  0  0
   -7.0073   11.7527  -13.1387 C   0  0  0  0  0  0  0  0  0  0  0  0
   -7.8357    9.9872  -11.7695 C   0  0  0  0  0  0  0  0  0  0  0  0
   -7.2848   10.5993  -10.6252 C   0  0  0  0  0  0  0  0  0  0  0  0
   -7.6281    9.7307   -9.5318 C   0  0  0  0  0  0  0  0  0  0  0  0
   -8.2830    8.7083   -9.9969 N   0  0  0  0  0  0  0  0  0  0  0  0
   -8.4214    8.8369  -11.3125 N   0  0  0  0  0  0  0  0  0  0  0  0
   -7.3299    9.8861   -8.0415 C   0  0  0  0  0  0  0  0  0  0  0  0
   -4.6020   13.8371  -11.3112 N   0  0  0  0  0  0  0  0  0  0  0  0
   -5.6232   13.6419  -12.1798 C   0  0  0  0  0  0  0  0  0  0  0  0
   -5.9069   14.4516  -13.0592 O   0  0  0  0  0  0  0  0  0  0  0  0
   -5.9473   10.4903   -7.7303 C   0  0  0  0  0  0  0  0  0  0  0  0
   -5.8632   11.7421   -7.1195 C   0  0  0  0  0  0  0  0  0  0  0  0
   -4.5901   12.2560   -6.8332 C   0  0  0  0  0  0  0  0  0  0  0  0
   -3.4296   11.5300   -7.2115 C   0  0  0  0  0  0  0  0  0  0  0  0
   -3.5045   10.2730   -7.8164 C   0  0  0  0  0  0  0  0  0  0  0  0
   -4.7945    9.7703   -8.0537 C   0  0  0  0  0  0  0  0  0  0  0  0
   -4.0643   13.4351   -6.1976 C   0  0  0  0  0  0  0  0  0  0  0  0
   -2.7662   13.4536   -6.2615 N   0  0  0  0  0  0  0  0  0  0  0  0
   -2.3669   12.3336   -6.8391 N   0  0  0  0  0  0  0  0  0  0  0  0
   -0.9435   12.0941   -6.9881 C   0  0  0  0  0  0  0  0  0  0  0  0
   -4.0340   12.9997  -10.2404 C   0  0  0  0  0  0  0  0  0  0  0  0
   -3.1550   14.1929   -9.9451 C   0  0  0  0  0  0  0  0  0  0  0  0
   -3.8070   15.0441  -11.0419 C   0  0  0  0  0  0  0  0  0  0  0  0
   -3.4251   14.7437   -8.6708 O   0  0  0  0  0  0  0  0  0  0  0  0
   -4.8009   14.9943   -8.3397 C   0  0  0  0  0  0  0  0  0  0  0  0
   -5.6096   11.6267  -10.3142 H   0  0  0  0  0  0  0  0  0  0  0  0
   -7.1557   12.5246  -10.1403 H   0  0  0  0  0  0  0  0  0  0  0  0
   -8.2044   10.1062  -13.9119 H   0  0  0  0  0  0  0  0  0  0  0  0
   -6.8892   12.2248  -14.1028 H   0  0  0  0  0  0  0  0  0  0  0  0
   -8.0293    9.5968   -7.2711 H   0  0  0  0  0  0  0  0  0  0  0  0
   -6.7546   12.3002   -6.8738 H   0  0  0  0  0  0  0  0  0  0  0  0
   -2.6185    9.7178   -8.0869 H   0  0  0  0  0  0  0  0  0  0  0  0
   -4.8603    8.8218   -7.5006 H   0  0  0  0  0  0  0  0  0  0  0  0
   -4.8514    9.5697   -9.1338 H   0  0  0  0  0  0  0  0  0  0  0  0
   -4.6664   14.2006   -5.7309 H   0  0  0  0  0  0  0  0  0  0  0  0
   -0.3825   12.9417   -6.5674 H   0  0  0  0  0  0  0  0  0  0  0  0
   -0.6691   11.1721   -6.4547 H   0  0  0  0  0  0  0  0  0  0  0  0
   -0.6996   11.9867   -8.0553 H   0  0  0  0  0  0  0  0  0  0  0  0
   -4.7360   12.7267   -9.4387 H   0  0  0  0  0  0  0  0  0  0  0  0
   -3.5013   12.1004  -10.5834 H   0  0  0  0  0  0  0  0  0  0  0  0
   -2.0904   13.9978  -10.1413 H   0  0  0  0  0  0  0  0  0  0  0  0
   -3.1360   15.3560  -11.8558 H   0  0  0  0  0  0  0  0  0  0  0  0
   -4.3787   15.9133  -10.6846 H   0  0  0  0  0  0  0  0  0  0  0  0
   -4.8633   15.4195   -7.3271 H   0  0  0  0  0  0  0  0  0  0  0  0
   -5.2283   15.7048   -9.0625 H   0  0  0  0  0  0  0  0  0  0  0  0
   -5.3645   14.0504   -8.3763 H   0  0  0  0  0  0  0  0  0  0  0  0
  1  2  1  0  0  0  0
  1  4  2  0  0  0  0
  1 12  1  0  0  0  0
  2  6  1  0  0  0  0
  3  4  1  0  0  0  0
  3  5  2  0  0  0  0
  5  6  1  0  0  0  0
  5  9  1  0  0  0  0
  6  7  2  0  0  0  0
  7  8  1  0  0  0  0
  7 10  1  0  0  0  0
  8  9  2  0  0  0  0
 10 14  2  3  0  0  0
 11 12  1  0  0  0  0
 11 24  1  0  0  0  0
 11 26  1  0  0  0  0
 12 13  2  0  0  0  0
 14 15  1  0  0  0  0
 14 19  1  0  0  0  0
 15 16  2  0  0  0  0
 16 17  1  0  0  0  0
 16 20  1  0  0  0  0
 17 18  2  0  0  0  0
 17 22  1  0  0  0  0
 18 19  1  0  0  0  0
 20 21  2  0  0  0  0
 21 22  1  0  0  0  0
 22 23  1  0  0  0  0
 24 25  1  0  0  0  0
 25 26  1  0  0  0  0
 25 27  1  0  0  0  0
 27 28  1  0  0  0  0
  2 29  1  0  0  0  0
  2 30  1  0  0  0  0
  3 31  1  0  0  0  0
  4 32  1  0  0  0  0
 10 33  1  0  0  0  0
 15 34  1  0  0  0  0
 18 35  1  0  0  0  0
 19 36  1  0  0  0  0
 19 37  1  0  0  0  0
 20 38  1  0  0  0  0
 23 39  1  0  0  0  0
 23 40  1  0  0  0  0
 23 41  1  0  0  0  0
 24 42  1  0  0  0  0
 24 43  1  0  0  0  0
 25 44  1  0  0  0  0
 26 45  1  0  0  0  0
 26 46  1  0  0  0  0
 28 47  1  0  0  0  0
 28 48  1  0  0  0  0
 28 49  1  0  0  0  0
M  END
> <Name>
45

> <IC50[uM]>
0.007

$$$$
45
  -OEChem-05192314333D
 Structure written by MMmdl.
 49 53  0     1  0  0  0  0  0999 V2000
   -6.4275   12.3453  -12.0176 C   0  0  3  0  0  0  0  0  0  0  0  0
   -6.6105   11.7832  -10.7429 C   0  0  0  0  0  0  0  0  0  0  0  0
   -7.7405   10.5587  -13.0479 C   0  0  0  0  0  0  0  0  0  0  0  0
   -7.0073   11.7527  -13.1387 C   0  0  0  0  0  0  0  0  0  0  0  0
   -7.8357    9.9872  -11.7695 C   0  0  0  0  0  0  0  0  0  0  0  0
   -7.2848   10.5993  -10.6252 C   0  0  0  0  0  0  0  0  0  0  0  0
   -7.6281    9.7307   -9.5318 C   0  0  0  0  0  0  0  0  0  0  0  0
   -8.2830    8.7083   -9.9969 N   0  0  0  0  0  0  0  0  0  0  0  0
   -8.4214    8.8369  -11.3125 N   0  0  0  0  0  0  0  0  0  0  0  0
   -7.3299    9.8861   -8.0415 C   0  0  0  0  0  0  0  0  0  0  0  0
   -4.6020   13.8371  -11.3112 N   0  0  0  0  0  0  0  0  0  0  0  0
   -5.6232   13.6419  -12.1798 C   0  0  0  0  0  0  0  0  0  0  0  0
   -5.9069   14.4516  -13.0592 O   0  0  0  0  0  0  0  0  0  0  0  0
   -5.9473   10.4903   -7.7303 C   0  0  0  0  0  0  0  0  0  0  0  0
   -5.8632   11.7421   -7.1195 C   0  0  0  0  0  0  0  0  0  0  0  0
   -4.5901   12.2560   -6.8332 C   0  0  0  0  0  0  0  0  0  0  0  0
   -3.4296   11.5300   -7.2115 C   0  0  3  0  0  0  0  0  0  0  0  0
   -3.5045   10.2730   -7.8164 C   0  0  0  0  0  0  0  0  0  0  0  0
   -4.7945    9.7703   -8.0537 C   0  0  0  0  0  0  0  0  0  0  0  0
   -4.0643   13.4351   -6.1976 C   0  0  0  0  0  0  0  0  0  0  0  0
   -2.7662   13.4536   -6.2615 N   0  0  0  0  0  0  0  0  0  0  0  0
   -2.3669   12.3336   -6.8391 N   0  0  3  0  0  0  0  0  0  0  0  0
   -0.9435   12.0941   -6.9881 C   0  0  0  0  0  0  0  0  0  0  0  0
   -4.0340   12.9997  -10.2404 C   0  0  0  0  0  0  0  0  0  0  0  0
   -3.1550   14.1929   -9.9451 C   0  0  0  0  0  0  0  0  0  0  0  0
   -3.8070   15.0441  -11.0419 C   0  0  0  0  0  0  0  0  0  0  0  0
   -3.4251   14.7437   -8.6708 O   0  0  0  0  0  0  0  0  0  0  0  0
   -4.8009   14.9943   -8.3397 C   0  0  0  0  0  0  0  0  0  0  0  0
   -5.5143   11.7492  -12.1613 H   0  0  0  0  0  0  0  0  0  0  0  0
   -6.2230   12.2805   -9.8660 H   0  0  0  0  0  0  0  0  0  0  0  0
   -8.2044   10.1062  -13.9119 H   0  0  0  0  0  0  0  0  0  0  0  0
   -6.8892   12.2248  -14.1028 H   0  0  0  0  0  0  0  0  0  0  0  0
   -8.0293    9.5968   -7.2711 H   0  0  0  0  0  0  0  0  0  0  0  0
   -6.7546   12.3002   -6.8738 H   0  0  0  0  0  0  0  0  0  0  0  0
   -3.4490   12.0100   -8.2010 H   0  0  0  0  0  0  0  0  0  0  0  0
   -2.6185    9.7178   -8.0869 H   0  0  0  0  0  0  0  0  0  0  0  0
   -4.8988    8.7932   -8.5018 H   0  0  0  0  0  0  0  0  0  0  0  0
   -4.6664   14.2006   -5.7309 H   0  0  0  0  0  0  0  0  0  0  0  0
   -0.3825   12.9417   -6.5674 H   0  0  0  0  0  0  0  0  0  0  0  0
   -0.6691   11.1721   -6.4547 H   0  0  0  0  0  0  0  0  0  0  0  0
   -0.6996   11.9867   -8.0553 H   0  0  0  0  0  0  0  0  0  0  0  0
   -4.7360   12.7267   -9.4387 H   0  0  0  0  0  0  0  0  0  0  0  0
   -3.5013   12.1004  -10.5834 H   0  0  0  0  0  0  0  0  0  0  0  0
   -2.0904   13.9978  -10.1413 H   0  0  0  0  0  0  0  0  0  0  0  0
   -3.1360   15.3560  -11.8558 H   0  0  0  0  0  0  0  0  0  0  0  0
   -4.3787   15.9133  -10.6846 H   0  0  0  0  0  0  0  0  0  0  0  0
   -4.8633   15.4195   -7.3271 H   0  0  0  0  0  0  0  0  0  0  0  0
   -5.2283   15.7048   -9.0625 H   0  0  0  0  0  0  0  0  0  0  0  0
   -5.3645   14.0504   -8.3763 H   0  0  0  0  0  0  0  0  0  0  0  0
  1  2  1  0  0  0  0
  1  4  1  0  0  0  0
  1 12  1  0  0  0  0
  2  6  2  0  0  0  0
  3  4  2  0  0  0  0
  3  5  1  0  0  0  0
  5  6  1  0  0  0  0
  5  9  2  0  0  0  0
  6  7  1  0  0  0  0
  7  8  2  0  0  0  0
  7 10  1  0  0  0  0
  8  9  1  0  0  0  0
 10 14  2  3  0  0  0
 11 12  1  0  0  0  0
 11 24  1  0  0  0  0
 11 26  1  0  0  0  0
 12 13  2  0  0  0  0
 14 15  1  0  0  0  0
 14 19  1  0  0  0  0
 15 16  2  0  0  0  0
 16 17  1  0  0  0  0
 16 20  1  0  0  0  0
 17 18  1  0  0  0  0
 17 22  1  0  0  0  0
 18 19  2  0  0  0  0
 20 21  2  0  0  0  0
 21 22  1  0  0  0  0
 22 23  1  0  0  0  0
 24 25  1  0  0  0  0
 25 26  1  0  0  0  0
 25 27  1  0  0  0  0
 27 28  1  0  0  0  0
  1 29  1  0  0  0  0
  2 30  1  0  0  0  0
  3 31  1  0  0  0  0
  4 32  1  0  0  0  0
 10 33  1  0  0  0  0
 15 34  1  0  0  0  0
 17 35  1  0  0  0  0
 18 36  1  0  0  0  0
 19 37  1  0  0  0  0
 20 38  1  0  0  0  0
 23 39  1  0  0  0  0
 23 40  1  0  0  0  0
 23 41  1  0  0  0  0
 24 42  1  0  0  0  0
 24 43  1  0  0  0  0
 25 44  1  0  0  0  0
 26 45  1  0  0  0  0
 26 46  1  0  0  0  0
 28 47  1  0  0  0  0
 28 48  1  0  0  0  0
 28 49  1  0  0  0  0
M  END
> <Name>
45

> <IC50[uM]>
0.007

$$$$
45
  -OEChem-05192314333D
 Structure written by MMmdl.
 49 53  0     1  0  0  0  0  0999 V2000
   -6.4275   12.3453  -12.0176 C   0  0  0  0  0  0  0  0  0  0  0  0
   -6.6105   11.7832  -10.7429 C   0  0  0  0  0  0  0  0  0  0  0  0
   -7.7405   10.5587  -13.0479 C   0  0  0  0  0  0  0  0  0  0  0  0
   -7.0073   11.7527  -13.1387 C   0  0  0  0  0  0  0  0  0  0  0  0
   -7.8357    9.9872  -11.7695 C   0  0  0  0  0  0  0  0  0  0  0  0
   -7.2848   10.5993  -10.6252 C   0  0  3  0  0  0  0  0  0  0  0  0
   -7.6281    9.7307   -9.5318 C   0  0  0  0  0  0  0  0  0  0  0  0
   -8.2830    8.7083   -9.9969 N   0  0  0  0  0  0  0  0  0  0  0  0
   -8.4214    8.8369  -11.3125 N   0  0  0  0  0  0  0  0  0  0  0  0
   -7.3299    9.8861   -8.0415 C   0  0  0  0  0  0  0  0  0  0  0  0
   -4.6020   13.8371  -11.3112 N   0  0  0  0  0  0  0  0  0  0  0  0
   -5.6232   13.6419  -12.1798 C   0  0  0  0  0  0  0  0  0  0  0  0
   -5.9069   14.4516  -13.0592 O   0  0  0  0  0  0  0  0  0  0  0  0
   -5.9473   10.4903   -7.7303 C   0  0  0  0  0  0  0  0  0  0  0  0
   -5.8632   11.7421   -7.1195 C   0  0  0  0  0  0  0  0  0  0  0  0
   -4.5901   12.2560   -6.8332 C   0  0  0  0  0  0  0  0  0  0  0  0
   -3.4296   11.5300   -7.2115 C   0  0  3  0  0  0  0  0  0  0  0  0
   -3.5045   10.2730   -7.8164 C   0  0  0  0  0  0  0  0  0  0  0  0
   -4.7945    9.7703   -8.0537 C   0  0  0  0  0  0  0  0  0  0  0  0
   -4.0643   13.4351   -6.1976 C   0  0  0  0  0  0  0  0  0  0  0  0
   -2.7662   13.4536   -6.2615 N   0  0  0  0  0  0  0  0  0  0  0  0
   -2.3669   12.3336   -6.8391 N   0  0  3  0  0  0  0  0  0  0  0  0
   -0.9435   12.0941   -6.9881 C   0  0  0  0  0  0  0  0  0  0  0  0
   -4.0340   12.9997  -10.2404 C   0  0  0  0  0  0  0  0  0  0  0  0
   -3.1550   14.1929   -9.9451 C   0  0  0  0  0  0  0  0  0  0  0  0
   -3.8070   15.0441  -11.0419 C   0  0  0  0  0  0  0  0  0  0  0  0
   -3.4251   14.7437   -8.6708 O   0  0  0  0  0  0  0  0  0  0  0  0
   -4.8009   14.9943   -8.3397 C   0  0  0  0  0  0  0  0  0  0  0  0
   -6.2230   12.2805   -9.8660 H   0  0  0  0  0  0  0  0  0  0  0  0
   -8.2044   10.1062  -13.9119 H   0  0  0  0  0  0  0  0  0  0  0  0
   -6.8892   12.2248  -14.1028 H   0  0  0  0  0  0  0  0  0  0  0  0
   -6.3465   10.0453  -10.7758 H   0  0  0  0  0  0  0  0  0  0  0  0
   -8.0293    9.5968   -7.2711 H   0  0  0  0  0  0  0  0  0  0  0  0
   -6.7546   12.3002   -6.8738 H   0  0  0  0  0  0  0  0  0  0  0  0
   -3.4490   12.0100   -8.2010 H   0  0  0  0  0  0  0  0  0  0  0  0
   -2.6185    9.7178   -8.0869 H   0  0  0  0  0  0  0  0  0  0  0  0
   -4.8988    8.7932   -8.5018 H   0  0  0  0  0  0  0  0  0  0  0  0
   -4.6664   14.2006   -5.7309 H   0  0  0  0  0  0  0  0  0  0  0  0
   -0.3825   12.9417   -6.5674 H   0  0  0  0  0  0  0  0  0  0  0  0
   -0.6691   11.1721   -6.4547 H   0  0  0  0  0  0  0  0  0  0  0  0
   -0.6996   11.9867   -8.0553 H   0  0  0  0  0  0  0  0  0  0  0  0
   -4.7360   12.7267   -9.4387 H   0  0  0  0  0  0  0  0  0  0  0  0
   -3.5013   12.1004  -10.5834 H   0  0  0  0  0  0  0  0  0  0  0  0
   -2.0904   13.9978  -10.1413 H   0  0  0  0  0  0  0  0  0  0  0  0
   -3.1360   15.3560  -11.8558 H   0  0  0  0  0  0  0  0  0  0  0  0
   -4.3787   15.9133  -10.6846 H   0  0  0  0  0  0  0  0  0  0  0  0
   -4.8633   15.4195   -7.3271 H   0  0  0  0  0  0  0  0  0  0  0  0
   -5.2283   15.7048   -9.0625 H   0  0  0  0  0  0  0  0  0  0  0  0
   -5.3645   14.0504   -8.3763 H   0  0  0  0  0  0  0  0  0  0  0  0
  1  2  2  0  0  0  0
  1  4  1  0  0  0  0
  1 12  1  0  0  0  0
  2  6  1  0  0  0  0
  3  4  2  0  0  0  0
  3  5  1  0  0  0  0
  5  6  1  0  0  0  0
  5  9  2  0  0  0  0
  6  7  1  0  0  0  0
  7  8  2  0  0  0  0
  7 10  1  0  0  0  0
  8  9  1  0  0  0  0
 10 14  2  3  0  0  0
 11 12  1  0  0  0  0
 11 24  1  0  0  0  0
 11 26  1  0  0  0  0
 12 13  2  0  0  0  0
 14 15  1  0  0  0  0
 14 19  1  0  0  0  0
 15 16  2  0  0  0  0
 16 17  1  0  0  0  0
 16 20  1  0  0  0  0
 17 18  1  0  0  0  0
 17 22  1  0  0  0  0
 18 19  2  0  0  0  0
 20 21  2  0  0  0  0
 21 22  1  0  0  0  0
 22 23  1  0  0  0  0
 24 25  1  0  0  0  0
 25 26  1  0  0  0  0
 25 27  1  0  0  0  0
 27 28  1  0  0  0  0
  2 29  1  0  0  0  0
  3 30  1  0  0  0  0
  4 31  1  0  0  0  0
  6 32  1  0  0  0  0
 10 33  1  0  0  0  0
 15 34  1  0  0  0  0
 17 35  1  0  0  0  0
 18 36  1  0  0  0  0
 19 37  1  0  0  0  0
 20 38  1  0  0  0  0
 23 39  1  0  0  0  0
 23 40  1  0  0  0  0
 23 41  1  0  0  0  0
 24 42  1  0  0  0  0
 24 43  1  0  0  0  0
 25 44  1  0  0  0  0
 26 45  1  0  0  0  0
 26 46  1  0  0  0  0
 28 47  1  0  0  0  0
 28 48  1  0  0  0  0
 28 49  1  0  0  0  0
M  END
> <Name>
45

> <IC50[uM]>
0.007

$$$$
45
  -OEChem-05192314333D
 Structure written by MMmdl.
 49 53  0     1  0  0  0  0  0999 V2000
   -6.4275   12.3453  -12.0176 C   0  0  0  0  0  0  0  0  0  0  0  0
   -6.6105   11.7832  -10.7429 C   0  0  0  0  0  0  0  0  0  0  0  0
   -7.7405   10.5587  -13.0479 C   0  0  0  0  0  0  0  0  0  0  0  0
   -7.0073   11.7527  -13.1387 C   0  0  0  0  0  0  0  0  0  0  0  0
   -7.8357    9.9872  -11.7695 C   0  0  0  0  0  0  0  0  0  0  0  0
   -7.2848   10.5993  -10.6252 C   0  0  0  0  0  0  0  0  0  0  0  0
   -7.6281    9.7307   -9.5318 C   0  0  0  0  0  0  0  0  0  0  0  0
   -8.2830    8.7083   -9.9969 N   0  0  0  0  0  0  0  0  0  0  0  0
   -8.4214    8.8369  -11.3125 N   0  0  0  0  0  0  0  0  0  0  0  0
   -7.3299    9.8861   -8.0415 C   0  0  0  0  0  0  0  0  0  0  0  0
   -4.6020   13.8371  -11.3112 N   0  0  0  0  0  0  0  0  0  0  0  0
   -5.6232   13.6419  -12.1798 C   0  0  0  0  0  0  0  0  0  0  0  0
   -5.9069   14.4516  -13.0592 O   0  0  0  0  0  0  0  0  0  0  0  0
   -5.9473   10.4903   -7.7303 C   0  0  0  0  0  0  0  0  0  0  0  0
   -5.8632   11.7421   -7.1195 C   0  0  0  0  0  0  0  0  0  0  0  0
   -4.5901   12.2560   -6.8332 C   0  0  0  0  0  0  0  0  0  0  0  0
   -3.4296   11.5300   -7.2115 C   0  0  3  0  0  0  0  0  0  0  0  0
   -3.5045   10.2730   -7.8164 C   0  0  0  0  0  0  0  0  0  0  0  0
   -4.7945    9.7703   -8.0537 C   0  0  0  0  0  0  0  0  0  0  0  0
   -4.0643   13.4351   -6.1976 C   0  0  0  0  0  0  0  0  0  0  0  0
   -2.7662   13.4536   -6.2615 N   0  0  0  0  0  0  0  0  0  0  0  0
   -2.3669   12.3336   -6.8391 N   0  0  3  0  0  0  0  0  0  0  0  0
   -0.9435   12.0941   -6.9881 C   0  0  0  0  0  0  0  0  0  0  0  0
   -4.0340   12.9997  -10.2404 C   0  0  0  0  0  0  0  0  0  0  0  0
   -3.1550   14.1929   -9.9451 C   0  0  0  0  0  0  0  0  0  0  0  0
   -3.8070   15.0441  -11.0419 C   0  0  0  0  0  0  0  0  0  0  0  0
   -3.4251   14.7437   -8.6708 O   0  0  0  0  0  0  0  0  0  0  0  0
   -4.8009   14.9943   -8.3397 C   0  0  0  0  0  0  0  0  0  0  0  0
   -6.2230   12.2805   -9.8660 H   0  0  0  0  0  0  0  0  0  0  0  0
   -8.7619   10.7641  -13.4009 H   0  0  0  0  0  0  0  0  0  0  0  0
   -7.2647    9.8211  -13.7110 H   0  0  0  0  0  0  0  0  0  0  0  0
   -6.8892   12.2248  -14.1028 H   0  0  0  0  0  0  0  0  0  0  0  0
   -8.0293    9.5968   -7.2711 H   0  0  0  0  0  0  0  0  0  0  0  0
   -6.7546   12.3002   -6.8738 H   0  0  0  0  0  0  0  0  0  0  0  0
   -3.4490   12.0100   -8.2010 H   0  0  0  0  0  0  0  0  0  0  0  0
   -2.6185    9.7178   -8.0869 H   0  0  0  0  0  0  0  0  0  0  0  0
   -4.8988    8.7932   -8.5018 H   0  0  0  0  0  0  0  0  0  0  0  0
   -4.6664   14.2006   -5.7309 H   0  0  0  0  0  0  0  0  0  0  0  0
   -0.3825   12.9417   -6.5674 H   0  0  0  0  0  0  0  0  0  0  0  0
   -0.6691   11.1721   -6.4547 H   0  0  0  0  0  0  0  0  0  0  0  0
   -0.6996   11.9867   -8.0553 H   0  0  0  0  0  0  0  0  0  0  0  0
   -4.7360   12.7267   -9.4387 H   0  0  0  0  0  0  0  0  0  0  0  0
   -3.5013   12.1004  -10.5834 H   0  0  0  0  0  0  0  0  0  0  0  0
   -2.0904   13.9978  -10.1413 H   0  0  0  0  0  0  0  0  0  0  0  0
   -3.1360   15.3560  -11.8558 H   0  0  0  0  0  0  0  0  0  0  0  0
   -4.3787   15.9133  -10.6846 H   0  0  0  0  0  0  0  0  0  0  0  0
   -4.8633   15.4195   -7.3271 H   0  0  0  0  0  0  0  0  0  0  0  0
   -5.2283   15.7048   -9.0625 H   0  0  0  0  0  0  0  0  0  0  0  0
   -5.3645   14.0504   -8.3763 H   0  0  0  0  0  0  0  0  0  0  0  0
  1  2  1  0  0  0  0
  1  4  2  0  0  0  0
  1 12  1  0  0  0  0
  2  6  2  0  0  0  0
  3  4  1  0  0  0  0
  3  5  1  0  0  0  0
  5  6  1  0  0  0  0
  5  9  2  0  0  0  0
  6  7  1  0  0  0  0
  7  8  2  0  0  0  0
  7 10  1  0  0  0  0
  8  9  1  0  0  0  0
 10 14  2  3  0  0  0
 11 12  1  0  0  0  0
 11 24  1  0  0  0  0
 11 26  1  0  0  0  0
 12 13  2  0  0  0  0
 14 15  1  0  0  0  0
 14 19  1  0  0  0  0
 15 16  2  0  0  0  0
 16 17  1  0  0  0  0
 16 20  1  0  0  0  0
 17 18  1  0  0  0  0
 17 22  1  0  0  0  0
 18 19  2  0  0  0  0
 20 21  2  0  0  0  0
 21 22  1  0  0  0  0
 22 23  1  0  0  0  0
 24 25  1  0  0  0  0
 25 26  1  0  0  0  0
 25 27  1  0  0  0  0
 27 28  1  0  0  0  0
  2 29  1  0  0  0  0
  3 30  1  0  0  0  0
  3 31  1  0  0  0  0
  4 32  1  0  0  0  0
 10 33  1  0  0  0  0
 15 34  1  0  0  0  0
 17 35  1  0  0  0  0
 18 36  1  0  0  0  0
 19 37  1  0  0  0  0
 20 38  1  0  0  0  0
 23 39  1  0  0  0  0
 23 40  1  0  0  0  0
 23 41  1  0  0  0  0
 24 42  1  0  0  0  0
 24 43  1  0  0  0  0
 25 44  1  0  0  0  0
 26 45  1  0  0  0  0
 26 46  1  0  0  0  0
 28 47  1  0  0  0  0
 28 48  1  0  0  0  0
 28 49  1  0  0  0  0
M  END
> <Name>
45

> <IC50[uM]>
0.007

$$$$
45
  -OEChem-05192314333D
 Structure written by MMmdl.
 49 53  0     1  0  0  0  0  0999 V2000
   -6.4275   12.3453  -12.0176 C   0  0  0  0  0  0  0  0  0  0  0  0
   -6.6105   11.7832  -10.7429 C   0  0  0  0  0  0  0  0  0  0  0  0
   -7.7405   10.5587  -13.0479 C   0  0  0  0  0  0  0  0  0  0  0  0
   -7.0073   11.7527  -13.1387 C   0  0  0  0  0  0  0  0  0  0  0  0
   -7.8357    9.9872  -11.7695 C   0  0  3  0  0  0  0  0  0  0  0  0
   -7.2848   10.5993  -10.6252 C   0  0  0  0  0  0  0  0  0  0  0  0
   -7.6281    9.7307   -9.5318 C   0  0  0  0  0  0  0  0  0  0  0  0
   -8.2830    8.7083   -9.9969 N   0  0  0  0  0  0  0  0  0  0  0  0
   -8.4214    8.8369  -11.3125 N   0  0  0  0  0  0  0  0  0  0  0  0
   -7.3299    9.8861   -8.0415 C   0  0  0  0  0  0  0  0  0  0  0  0
   -4.6020   13.8371  -11.3112 N   0  0  0  0  0  0  0  0  0  0  0  0
   -5.6232   13.6419  -12.1798 C   0  0  0  0  0  0  0  0  0  0  0  0
   -5.9069   14.4516  -13.0592 O   0  0  0  0  0  0  0  0  0  0  0  0
   -5.9473   10.4903   -7.7303 C   0  0  0  0  0  0  0  0  0  0  0  0
   -5.8632   11.7421   -7.1195 C   0  0  0  0  0  0  0  0  0  0  0  0
   -4.5901   12.2560   -6.8332 C   0  0  0  0  0  0  0  0  0  0  0  0
   -3.4296   11.5300   -7.2115 C   0  0  3  0  0  0  0  0  0  0  0  0
   -3.5045   10.2730   -7.8164 C   0  0  0  0  0  0  0  0  0  0  0  0
   -4.7945    9.7703   -8.0537 C   0  0  0  0  0  0  0  0  0  0  0  0
   -4.0643   13.4351   -6.1976 C   0  0  0  0  0  0  0  0  0  0  0  0
   -2.7662   13.4536   -6.2615 N   0  0  0  0  0  0  0  0  0  0  0  0
   -2.3669   12.3336   -6.8391 N   0  0  3  0  0  0  0  0  0  0  0  0
   -0.9435   12.0941   -6.9881 C   0  0  0  0  0  0  0  0  0  0  0  0
   -4.0340   12.9997  -10.2404 C   0  0  0  0  0  0  0  0  0  0  0  0
   -3.1550   14.1929   -9.9451 C   0  0  0  0  0  0  0  0  0  0  0  0
   -3.8070   15.0441  -11.0419 C   0  0  0  0  0  0  0  0  0  0  0  0
   -3.4251   14.7437   -8.6708 O   0  0  0  0  0  0  0  0  0  0  0  0
   -4.8009   14.9943   -8.3397 C   0  0  0  0  0  0  0  0  0  0  0  0
   -6.2230   12.2805   -9.8660 H   0  0  0  0  0  0  0  0  0  0  0  0
   -8.2044   10.1062  -13.9119 H   0  0  0  0  0  0  0  0  0  0  0  0
   -6.8892   12.2248  -14.1028 H   0  0  0  0  0  0  0  0  0  0  0  0
   -6.8934    9.4451  -11.9376 H   0  0  0  0  0  0  0  0  0  0  0  0
   -8.0293    9.5968   -7.2711 H   0  0  0  0  0  0  0  0  0  0  0  0
   -6.7546   12.3002   -6.8738 H   0  0  0  0  0  0  0  0  0  0  0  0
   -3.4490   12.0100   -8.2010 H   0  0  0  0  0  0  0  0  0  0  0  0
   -2.6185    9.7178   -8.0869 H   0  0  0  0  0  0  0  0  0  0  0  0
   -4.8988    8.7932   -8.5018 H   0  0  0  0  0  0  0  0  0  0  0  0
   -4.6664   14.2006   -5.7309 H   0  0  0  0  0  0  0  0  0  0  0  0
   -0.3825   12.9417   -6.5674 H   0  0  0  0  0  0  0  0  0  0  0  0
   -0.6691   11.1721   -6.4547 H   0  0  0  0  0  0  0  0  0  0  0  0
   -0.6996   11.9867   -8.0553 H   0  0  0  0  0  0  0  0  0  0  0  0
   -4.7360   12.7267   -9.4387 H   0  0  0  0  0  0  0  0  0  0  0  0
   -3.5013   12.1004  -10.5834 H   0  0  0  0  0  0  0  0  0  0  0  0
   -2.0904   13.9978  -10.1413 H   0  0  0  0  0  0  0  0  0  0  0  0
   -3.1360   15.3560  -11.8558 H   0  0  0  0  0  0  0  0  0  0  0  0
   -4.3787   15.9133  -10.6846 H   0  0  0  0  0  0  0  0  0  0  0  0
   -4.8633   15.4195   -7.3271 H   0  0  0  0  0  0  0  0  0  0  0  0
   -5.2283   15.7048   -9.0625 H   0  0  0  0  0  0  0  0  0  0  0  0
   -5.3645   14.0504   -8.3763 H   0  0  0  0  0  0  0  0  0  0  0  0
  1  2  2  0  0  0  0
  1  4  1  0  0  0  0
  1 12  1  0  0  0  0
  2  6  1  0  0  0  0
  3  4  2  0  0  0  0
  3  5  1  0  0  0  0
  5  6  1  0  0  0  0
  5  9  1  0  0  0  0
  6  7  2  0  0  0  0
  7  8  1  0  0  0  0
  7 10  1  0  0  0  0
  8  9  2  0  0  0  0
 10 14  2  3  0  0  0
 11 12  1  0  0  0  0
 11 24  1  0  0  0  0
 11 26  1  0  0  0  0
 12 13  2  0  0  0  0
 14 15  1  0  0  0  0
 14 19  1  0  0  0  0
 15 16  2  0  0  0  0
 16 17  1  0  0  0  0
 16 20  1  0  0  0  0
 17 18  1  0  0  0  0
 17 22  1  0  0  0  0
 18 19  2  0  0  0  0
 20 21  2  0  0  0  0
 21 22  1  0  0  0  0
 22 23  1  0  0  0  0
 24 25  1  0  0  0  0
 25 26  1  0  0  0  0
 25 27  1  0  0  0  0
 27 28  1  0  0  0  0
  2 29  1  0  0  0  0
  3 30  1  0  0  0  0
  4 31  1  0  0  0  0
  5 32  1  0  0  0  0
 10 33  1  0  0  0  0
 15 34  1  0  0  0  0
 17 35  1  0  0  0  0
 18 36  1  0  0  0  0
 19 37  1  0  0  0  0
 20 38  1  0  0  0  0
 23 39  1  0  0  0  0
 23 40  1  0  0  0  0
 23 41  1  0  0  0  0
 24 42  1  0  0  0  0
 24 43  1  0  0  0  0
 25 44  1  0  0  0  0
 26 45  1  0  0  0  0
 26 46  1  0  0  0  0
 28 47  1  0  0  0  0
 28 48  1  0  0  0  0
 28 49  1  0  0  0  0
M  END
> <Name>
45

> <IC50[uM]>
0.007

$$$$
45
  -OEChem-05192314333D
 Structure written by MMmdl.
 49 53  0     1  0  0  0  0  0999 V2000
   -6.4275   12.3453  -12.0176 C   0  0  0  0  0  0  0  0  0  0  0  0
   -6.6105   11.7832  -10.7429 C   0  0  0  0  0  0  0  0  0  0  0  0
   -7.7405   10.5587  -13.0479 C   0  0  0  0  0  0  0  0  0  0  0  0
   -7.0073   11.7527  -13.1387 C   0  0  0  0  0  0  0  0  0  0  0  0
   -7.8357    9.9872  -11.7695 C   0  0  0  0  0  0  0  0  0  0  0  0
   -7.2848   10.5993  -10.6252 C   0  0  0  0  0  0  0  0  0  0  0  0
   -7.6281    9.7307   -9.5318 C   0  0  0  0  0  0  0  0  0  0  0  0
   -8.2830    8.7083   -9.9969 N   0  0  0  0  0  0  0  0  0  0  0  0
   -8.4214    8.8369  -11.3125 N   0  0  0  0  0  0  0  0  0  0  0  0
   -7.3299    9.8861   -8.0415 C   0  0  0  0  0  0  0  0  0  0  0  0
   -4.6020   13.8371  -11.3112 N   0  0  0  0  0  0  0  0  0  0  0  0
   -5.6232   13.6419  -12.1798 C   0  0  0  0  0  0  0  0  0  0  0  0
   -5.9069   14.4516  -13.0592 O   0  0  0  0  0  0  0  0  0  0  0  0
   -5.9473   10.4903   -7.7303 C   0  0  0  0  0  0  0  0  0  0  0  0
   -5.8632   11.7421   -7.1195 C   0  0  0  0  0  0  0  0  0  0  0  0
   -4.5901   12.2560   -6.8332 C   0  0  0  0  0  0  0  0  0  0  0  0
   -3.4296   11.5300   -7.2115 C   0  0  3  0  0  0  0  0  0  0  0  0
   -3.5045   10.2730   -7.8164 C   0  0  0  0  0  0  0  0  0  0  0  0
   -4.7945    9.7703   -8.0537 C   0  0  0  0  0  0  0  0  0  0  0  0
   -4.0643   13.4351   -6.1976 C   0  0  0  0  0  0  0  0  0  0  0  0
   -2.7662   13.4536   -6.2615 N   0  0  0  0  0  0  0  0  0  0  0  0
   -2.3669   12.3336   -6.8391 N   0  0  3  0  0  0  0  0  0  0  0  0
   -0.9435   12.0941   -6.9881 C   0  0  0  0  0  0  0  0  0  0  0  0
   -4.0340   12.9997  -10.2404 C   0  0  0  0  0  0  0  0  0  0  0  0
   -3.1550   14.1929   -9.9451 C   0  0  0  0  0  0  0  0  0  0  0  0
   -3.8070   15.0441  -11.0419 C   0  0  0  0  0  0  0  0  0  0  0  0
   -3.4251   14.7437   -8.6708 O   0  0  0  0  0  0  0  0  0  0  0  0
   -4.8009   14.9943   -8.3397 C   0  0  0  0  0  0  0  0  0  0  0  0
   -6.2230   12.2805   -9.8660 H   0  0  0  0  0  0  0  0  0  0  0  0
   -8.2044   10.1062  -13.9119 H   0  0  0  0  0  0  0  0  0  0  0  0
   -7.6892   12.5023  -13.5665 H   0  0  0  0  0  0  0  0  0  0  0  0
   -6.1865   11.5583  -13.8448 H   0  0  0  0  0  0  0  0  0  0  0  0
   -8.0293    9.5968   -7.2711 H   0  0  0  0  0  0  0  0  0  0  0  0
   -6.7546   12.3002   -6.8738 H   0  0  0  0  0  0  0  0  0  0  0  0
   -3.4490   12.0100   -8.2010 H   0  0  0  0  0  0  0  0  0  0  0  0
   -2.6185    9.7178   -8.0869 H   0  0  0  0  0  0  0  0  0  0  0  0
   -4.8988    8.7932   -8.5018 H   0  0  0  0  0  0  0  0  0  0  0  0
   -4.6664   14.2006   -5.7309 H   0  0  0  0  0  0  0  0  0  0  0  0
   -0.3825   12.9417   -6.5674 H   0  0  0  0  0  0  0  0  0  0  0  0
   -0.6691   11.1721   -6.4547 H   0  0  0  0  0  0  0  0  0  0  0  0
   -0.6996   11.9867   -8.0553 H   0  0  0  0  0  0  0  0  0  0  0  0
   -4.7360   12.7267   -9.4387 H   0  0  0  0  0  0  0  0  0  0  0  0
   -3.5013   12.1004  -10.5834 H   0  0  0  0  0  0  0  0  0  0  0  0
   -2.0904   13.9978  -10.1413 H   0  0  0  0  0  0  0  0  0  0  0  0
   -3.1360   15.3560  -11.8558 H   0  0  0  0  0  0  0  0  0  0  0  0
   -4.3787   15.9133  -10.6846 H   0  0  0  0  0  0  0  0  0  0  0  0
   -4.8633   15.4195   -7.3271 H   0  0  0  0  0  0  0  0  0  0  0  0
   -5.2283   15.7048   -9.0625 H   0  0  0  0  0  0  0  0  0  0  0  0
   -5.3645   14.0504   -8.3763 H   0  0  0  0  0  0  0  0  0  0  0  0
  1  2  2  0  0  0  0
  1  4  1  0  0  0  0
  1 12  1  0  0  0  0
  2  6  1  0  0  0  0
  3  4  1  0  0  0  0
  3  5  2  0  0  0  0
  5  6  1  0  0  0  0
  5  9  1  0  0  0  0
  6  7  2  0  0  0  0
  7  8  1  0  0  0  0
  7 10  1  0  0  0  0
  8  9  2  0  0  0  0
 10 14  2  3  0  0  0
 11 12  1  0  0  0  0
 11 24  1  0  0  0  0
 11 26  1  0  0  0  0
 12 13  2  0  0  0  0
 14 15  1  0  0  0  0
 14 19  1  0  0  0  0
 15 16  2  0  0  0  0
 16 17  1  0  0  0  0
 16 20  1  0  0  0  0
 17 18  1  0  0  0  0
 17 22  1  0  0  0  0
 18 19  2  0  0  0  0
 20 21  2  0  0  0  0
 21 22  1  0  0  0  0
 22 23  1  0  0  0  0
 24 25  1  0  0  0  0
 25 26  1  0  0  0  0
 25 27  1  0  0  0  0
 27 28  1  0  0  0  0
  2 29  1  0  0  0  0
  3 30  1  0  0  0  0
  4 31  1  0  0  0  0
  4 32  1  0  0  0  0
 10 33  1  0  0  0  0
 15 34  1  0  0  0  0
 17 35  1  0  0  0  0
 18 36  1  0  0  0  0
 19 37  1  0  0  0  0
 20 38  1  0  0  0  0
 23 39  1  0  0  0  0
 23 40  1  0  0  0  0
 23 41  1  0  0  0  0
 24 42  1  0  0  0  0
 24 43  1  0  0  0  0
 25 44  1  0  0  0  0
 26 45  1  0  0  0  0
 26 46  1  0  0  0  0
 28 47  1  0  0  0  0
 28 48  1  0  0  0  0
 28 49  1  0  0  0  0
M  END
> <Name>
45

> <IC50[uM]>
0.007

$$$$
45
  -OEChem-05192314333D
 Structure written by MMmdl.
 49 53  0     1  0  0  0  0  0999 V2000
   -6.4275   12.3453  -12.0176 C   0  0  0  0  0  0  0  0  0  0  0  0
   -6.6105   11.7832  -10.7429 C   0  0  0  0  0  0  0  0  0  0  0  0
   -7.7405   10.5587  -13.0479 C   0  0  0  0  0  0  0  0  0  0  0  0
   -7.0073   11.7527  -13.1387 C   0  0  0  0  0  0  0  0  0  0  0  0
   -7.8357    9.9872  -11.7695 C   0  0  0  0  0  0  0  0  0  0  0  0
   -7.2848   10.5993  -10.6252 C   0  0  0  0  0  0  0  0  0  0  0  0
   -7.6281    9.7307   -9.5318 C   0  0  0  0  0  0  0  0  0  0  0  0
   -8.2830    8.7083   -9.9969 N   0  0  0  0  0  0  0  0  0  0  0  0
   -8.4214    8.8369  -11.3125 N   0  0  0  0  0  0  0  0  0  0  0  0
   -7.3299    9.8861   -8.0415 C   0  0  0  0  0  0  0  0  0  0  0  0
   -4.6020   13.8371  -11.3112 N   0  0  0  0  0  0  0  0  0  0  0  0
   -5.6232   13.6419  -12.1798 C   0  0  0  0  0  0  0  0  0  0  0  0
   -5.9069   14.4516  -13.0592 O   0  0  0  0  0  0  0  0  0  0  0  0
   -5.9473   10.4903   -7.7303 C   0  0  0  0  0  0  0  0  0  0  0  0
   -5.8632   11.7421   -7.1195 C   0  0  0  0  0  0  0  0  0  0  0  0
   -4.5901   12.2560   -6.8332 C   0  0  0  0  0  0  0  0  0  0  0  0
   -3.4296   11.5300   -7.2115 C   0  0  3  0  0  0  0  0  0  0  0  0
   -3.5045   10.2730   -7.8164 C   0  0  0  0  0  0  0  0  0  0  0  0
   -4.7945    9.7703   -8.0537 C   0  0  0  0  0  0  0  0  0  0  0  0
   -4.0643   13.4351   -6.1976 C   0  0  0  0  0  0  0  0  0  0  0  0
   -2.7662   13.4536   -6.2615 N   0  0  0  0  0  0  0  0  0  0  0  0
   -2.3669   12.3336   -6.8391 N   0  0  3  0  0  0  0  0  0  0  0  0
   -0.9435   12.0941   -6.9881 C   0  0  0  0  0  0  0  0  0  0  0  0
   -4.0340   12.9997  -10.2404 C   0  0  0  0  0  0  0  0  0  0  0  0
   -3.1550   14.1929   -9.9451 C   0  0  0  0  0  0  0  0  0  0  0  0
   -3.8070   15.0441  -11.0419 C   0  0  0  0  0  0  0  0  0  0  0  0
   -3.4251   14.7437   -8.6708 O   0  0  0  0  0  0  0  0  0  0  0  0
   -4.8009   14.9943   -8.3397 C   0  0  0  0  0  0  0  0  0  0  0  0
   -5.6096   11.6267  -10.3142 H   0  0  0  0  0  0  0  0  0  0  0  0
   -7.1557   12.5246  -10.1403 H   0  0  0  0  0  0  0  0  0  0  0  0
   -8.2044   10.1062  -13.9119 H   0  0  0  0  0  0  0  0  0  0  0  0
   -6.8892   12.2248  -14.1028 H   0  0  0  0  0  0  0  0  0  0  0  0
   -8.0293    9.5968   -7.2711 H   0  0  0  0  0  0  0  0  0  0  0  0
   -6.7546   12.3002   -6.8738 H   0  0  0  0  0  0  0  0  0  0  0  0
   -3.4490   12.0100   -8.2010 H   0  0  0  0  0  0  0  0  0  0  0  0
   -2.6185    9.7178   -8.0869 H   0  0  0  0  0  0  0  0  0  0  0  0
   -4.8988    8.7932   -8.5018 H   0  0  0  0  0  0  0  0  0  0  0  0
   -4.6664   14.2006   -5.7309 H   0  0  0  0  0  0  0  0  0  0  0  0
   -0.3825   12.9417   -6.5674 H   0  0  0  0  0  0  0  0  0  0  0  0
   -0.6691   11.1721   -6.4547 H   0  0  0  0  0  0  0  0  0  0  0  0
   -0.6996   11.9867   -8.0553 H   0  0  0  0  0  0  0  0  0  0  0  0
   -4.7360   12.7267   -9.4387 H   0  0  0  0  0  0  0  0  0  0  0  0
   -3.5013   12.1004  -10.5834 H   0  0  0  0  0  0  0  0  0  0  0  0
   -2.0904   13.9978  -10.1413 H   0  0  0  0  0  0  0  0  0  0  0  0
   -3.1360   15.3560  -11.8558 H   0  0  0  0  0  0  0  0  0  0  0  0
   -4.3787   15.9133  -10.6846 H   0  0  0  0  0  0  0  0  0  0  0  0
   -4.8633   15.4195   -7.3271 H   0  0  0  0  0  0  0  0  0  0  0  0
   -5.2283   15.7048   -9.0625 H   0  0  0  0  0  0  0  0  0  0  0  0
   -5.3645   14.0504   -8.3763 H   0  0  0  0  0  0  0  0  0  0  0  0
  1  2  1  0  0  0  0
  1  4  2  0  0  0  0
  1 12  1  0  0  0  0
  2  6  1  0  0  0  0
  3  4  1  0  0  0  0
  3  5  2  0  0  0  0
  5  6  1  0  0  0  0
  5  9  1  0  0  0  0
  6  7  2  0  0  0  0
  7  8  1  0  0  0  0
  7 10  1  0  0  0  0
  8  9  2  0  0  0  0
 10 14  2  3  0  0  0
 11 12  1  0  0  0  0
 11 24  1  0  0  0  0
 11 26  1  0  0  0  0
 12 13  2  0  0  0  0
 14 15  1  0  0  0  0
 14 19  1  0  0  0  0
 15 16  2  0  0  0  0
 16 17  1  0  0  0  0
 16 20  1  0  0  0  0
 17 18  1  0  0  0  0
 17 22  1  0  0  0  0
 18 19  2  0  0  0  0
 20 21  2  0  0  0  0
 21 22  1  0  0  0  0
 22 23  1  0  0  0  0
 24 25  1  0  0  0  0
 25 26  1  0  0  0  0
 25 27  1  0  0  0  0
 27 28  1  0  0  0  0
  2 29  1  0  0  0  0
  2 30  1  0  0  0  0
  3 31  1  0  0  0  0
  4 32  1  0  0  0  0
 10 33  1  0  0  0  0
 15 34  1  0  0  0  0
 17 35  1  0  0  0  0
 18 36  1  0  0  0  0
 19 37  1  0  0  0  0
 20 38  1  0  0  0  0
 23 39  1  0  0  0  0
 23 40  1  0  0  0  0
 23 41  1  0  0  0  0
 24 42  1  0  0  0  0
 24 43  1  0  0  0  0
 25 44  1  0  0  0  0
 26 45  1  0  0  0  0
 26 46  1  0  0  0  0
 28 47  1  0  0  0  0
 28 48  1  0  0  0  0
 28 49  1  0  0  0  0
M  END
> <Name>
45

> <IC50[uM]>
0.007

$$$$
45
  -OEChem-05192314333D
 Structure written by MMmdl.
 49 53  0     0  0  0  0  0  0999 V2000
   -6.4275   12.3453  -12.0176 C   0  0  0  0  0  0  0  0  0  0  0  0
   -6.6105   11.7832  -10.7429 C   0  0  0  0  0  0  0  0  0  0  0  0
   -7.7405   10.5587  -13.0479 C   0  0  0  0  0  0  0  0  0  0  0  0
   -7.0073   11.7527  -13.1387 C   0  0  0  0  0  0  0  0  0  0  0  0
   -7.8357    9.9872  -11.7695 C   0  0  0  0  0  0  0  0  0  0  0  0
   -7.2848   10.5993  -10.6252 C   0  0  0  0  0  0  0  0  0  0  0  0
   -7.6281    9.7307   -9.5318 C   0  0  0  0  0  0  0  0  0  0  0  0
   -8.2830    8.7083   -9.9969 N   0  0  0  0  0  0  0  0  0  0  0  0
   -8.4214    8.8369  -11.3125 N   0  0  0  0  0  0  0  0  0  0  0  0
   -7.3299    9.8861   -8.0415 C   0  0  0  0  0  0  0  0  0  0  0  0
   -4.6020   13.8371  -11.3112 N   0  0  0  0  0  0  0  0  0  0  0  0
   -5.6232   13.6419  -12.1798 C   0  0  0  0  0  0  0  0  0  0  0  0
   -5.9069   14.4516  -13.0592 O   0  0  0  0  0  0  0  0  0  0  0  0
   -5.9473   10.4903   -7.7303 C   0  0  0  0  0  0  0  0  0  0  0  0
   -5.8632   11.7421   -7.1195 C   0  0  0  0  0  0  0  0  0  0  0  0
   -4.5901   12.2560   -6.8332 C   0  0  0  0  0  0  0  0  0  0  0  0
   -3.4296   11.5300   -7.2115 C   0  0  0  0  0  0  0  0  0  0  0  0
   -3.5045   10.2730   -7.8164 C   0  0  0  0  0  0  0  0  0  0  0  0
   -4.7945    9.7703   -8.0537 C   0  0  0  0  0  0  0  0  0  0  0  0
   -4.0643   13.4351   -6.1976 C   0  0  0  0  0  0  0  0  0  0  0  0
   -2.7662   13.4536   -6.2615 N   0  0  0  0  0  0  0  0  0  0  0  0
   -2.3669   12.3336   -6.8391 N   0  0  0  0  0  0  0  0  0  0  0  0
   -0.9435   12.0941   -6.9881 C   0  0  0  0  0  0  0  0  0  0  0  0
   -4.0340   12.9997  -10.2404 C   0  0  0  0  0  0  0  0  0  0  0  0
   -3.1550   14.1929   -9.9451 C   0  0  0  0  0  0  0  0  0  0  0  0
   -3.8070   15.0441  -11.0419 C   0  0  0  0  0  0  0  0  0  0  0  0
   -3.4251   14.7437   -8.6708 O   0  0  0  0  0  0  0  0  0  0  0  0
   -4.8009   14.9943   -8.3397 C   0  0  0  0  0  0  0  0  0  0  0  0
   -6.2230   12.2805   -9.8660 H   0  0  0  0  0  0  0  0  0  0  0  0
   -8.2044   10.1062  -13.9119 H   0  0  0  0  0  0  0  0  0  0  0  0
   -6.8892   12.2248  -14.1028 H   0  0  0  0  0  0  0  0  0  0  0  0
   -8.6283    7.9452   -9.4506 H   0  0  0  0  0  0  0  0  0  0  0  0
   -8.0293    9.5968   -7.2711 H   0  0  0  0  0  0  0  0  0  0  0  0
   -5.3107   15.1899  -13.0148 H   0  0  0  0  0  0  0  0  0  0  0  0
   -6.7546   12.3002   -6.8738 H   0  0  0  0  0  0  0  0  0  0  0  0
   -2.6185    9.7178   -8.0869 H   0  0  0  0  0  0  0  0  0  0  0  0
   -4.8988    8.7932   -8.5018 H   0  0  0  0  0  0  0  0  0  0  0  0
   -4.6664   14.2006   -5.7309 H   0  0  0  0  0  0  0  0  0  0  0  0
   -0.3825   12.9417   -6.5674 H   0  0  0  0  0  0  0  0  0  0  0  0
   -0.6691   11.1721   -6.4547 H   0  0  0  0  0  0  0  0  0  0  0  0
   -0.6996   11.9867   -8.0553 H   0  0  0  0  0  0  0  0  0  0  0  0
   -4.7360   12.7267   -9.4387 H   0  0  0  0  0  0  0  0  0  0  0  0
   -3.5013   12.1004  -10.5834 H   0  0  0  0  0  0  0  0  0  0  0  0
   -2.0904   13.9978  -10.1413 H   0  0  0  0  0  0  0  0  0  0  0  0
   -3.1360   15.3560  -11.8558 H   0  0  0  0  0  0  0  0  0  0  0  0
   -4.3787   15.9133  -10.6846 H   0  0  0  0  0  0  0  0  0  0  0  0
   -4.8633   15.4195   -7.3271 H   0  0  0  0  0  0  0  0  0  0  0  0
   -5.2283   15.7048   -9.0625 H   0  0  0  0  0  0  0  0  0  0  0  0
   -5.3645   14.0504   -8.3763 H   0  0  0  0  0  0  0  0  0  0  0  0
  1  2  1  0  0  0  0
  1  4  1  0  0  0  0
  1 12  2  3  0  0  0
  2  6  2  0  0  0  0
  3  4  2  0  0  0  0
  3  5  1  0  0  0  0
  5  6  1  0  0  0  0
  5  9  2  0  0  0  0
  6  7  1  0  0  0  0
  7  8  1  0  0  0  0
  7 10  2  3  0  0  0
  8  9  1  0  0  0  0
 10 14  1  0  0  0  0
 11 12  1  0  0  0  0
 11 24  1  0  0  0  0
 11 26  1  0  0  0  0
 12 13  1  0  0  0  0
 14 15  2  0  0  0  0
 14 19  1  0  0  0  0
 15 16  1  0  0  0  0
 16 17  2  0  0  0  0
 16 20  1  0  0  0  0
 17 18  1  0  0  0  0
 17 22  1  0  0  0  0
 18 19  2  0  0  0  0
 20 21  2  0  0  0  0
 21 22  1  0  0  0  0
 22 23  1  0  0  0  0
 24 25  1  0  0  0  0
 25 26  1  0  0  0  0
 25 27  1  0  0  0  0
 27 28  1  0  0  0  0
  2 29  1  0  0  0  0
  3 30  1  0  0  0  0
  4 31  1  0  0  0  0
  8 32  1  0  0  0  0
 10 33  1  0  0  0  0
 13 34  1  0  0  0  0
 15 35  1  0  0  0  0
 18 36  1  0  0  0  0
 19 37  1  0  0  0  0
 20 38  1  0  0  0  0
 23 39  1  0  0  0  0
 23 40  1  0  0  0  0
 23 41  1  0  0  0  0
 24 42  1  0  0  0  0
 24 43  1  0  0  0  0
 25 44  1  0  0  0  0
 26 45  1  0  0  0  0
 26 46  1  0  0  0  0
 28 47  1  0  0  0  0
 28 48  1  0  0  0  0
 28 49  1  0  0  0  0
M  END
> <Name>
45

> <IC50[uM]>
0.007

$$$$
45
  -OEChem-05192314333D
 Structure written by MMmdl.
 49 53  0     1  0  0  0  0  0999 V2000
   -6.4275   12.3453  -12.0176 C   0  0  0  0  0  0  0  0  0  0  0  0
   -6.6105   11.7832  -10.7429 C   0  0  0  0  0  0  0  0  0  0  0  0
   -7.7405   10.5587  -13.0479 C   0  0  0  0  0  0  0  0  0  0  0  0
   -7.0073   11.7527  -13.1387 C   0  0  0  0  0  0  0  0  0  0  0  0
   -7.8357    9.9872  -11.7695 C   0  0  0  0  0  0  0  0  0  0  0  0
   -7.2848   10.5993  -10.6252 C   0  0  0  0  0  0  0  0  0  0  0  0
   -7.6281    9.7307   -9.5318 C   0  0  0  0  0  0  0  0  0  0  0  0
   -8.2830    8.7083   -9.9969 N   0  0  0  0  0  0  0  0  0  0  0  0
   -8.4214    8.8369  -11.3125 N   0  0  0  0  0  0  0  0  0  0  0  0
   -7.3299    9.8861   -8.0415 C   0  0  0  0  0  0  0  0  0  0  0  0
   -4.6020   13.8371  -11.3112 N   0  0  0  0  0  0  0  0  0  0  0  0
   -5.6232   13.6419  -12.1798 C   0  0  3  0  0  0  0  0  0  0  0  0
   -5.9069   14.4516  -13.0592 O   0  0  0  0  0  0  0  0  0  0  0  0
   -5.9473   10.4903   -7.7303 C   0  0  0  0  0  0  0  0  0  0  0  0
   -5.8632   11.7421   -7.1195 C   0  0  0  0  0  0  0  0  0  0  0  0
   -4.5901   12.2560   -6.8332 C   0  0  0  0  0  0  0  0  0  0  0  0
   -3.4296   11.5300   -7.2115 C   0  0  0  0  0  0  0  0  0  0  0  0
   -3.5045   10.2730   -7.8164 C   0  0  0  0  0  0  0  0  0  0  0  0
   -4.7945    9.7703   -8.0537 C   0  0  0  0  0  0  0  0  0  0  0  0
   -4.0643   13.4351   -6.1976 C   0  0  0  0  0  0  0  0  0  0  0  0
   -2.7662   13.4536   -6.2615 N   0  0  0  0  0  0  0  0  0  0  0  0
   -2.3669   12.3336   -6.8391 N   0  0  0  0  0  0  0  0  0  0  0  0
   -0.9435   12.0941   -6.9881 C   0  0  0  0  0  0  0  0  0  0  0  0
   -4.0340   12.9997  -10.2404 C   0  0  0  0  0  0  0  0  0  0  0  0
   -3.1550   14.1929   -9.9451 C   0  0  0  0  0  0  0  0  0  0  0  0
   -3.8070   15.0441  -11.0419 C   0  0  0  0  0  0  0  0  0  0  0  0
   -3.4251   14.7437   -8.6708 O   0  0  0  0  0  0  0  0  0  0  0  0
   -4.8009   14.9943   -8.3397 C   0  0  0  0  0  0  0  0  0  0  0  0
   -6.2230   12.2805   -9.8660 H   0  0  0  0  0  0  0  0  0  0  0  0
   -8.2044   10.1062  -13.9119 H   0  0  0  0  0  0  0  0  0  0  0  0
   -6.8892   12.2248  -14.1028 H   0  0  0  0  0  0  0  0  0  0  0  0
   -8.0293    9.5968   -7.2711 H   0  0  0  0  0  0  0  0  0  0  0  0
   -4.9376   13.1304  -12.8714 H   0  0  0  0  0  0  0  0  0  0  0  0
   -5.3107   15.1899  -13.0148 H   0  0  0  0  0  0  0  0  0  0  0  0
   -6.7546   12.3002   -6.8738 H   0  0  0  0  0  0  0  0  0  0  0  0
   -2.6185    9.7178   -8.0869 H   0  0  0  0  0  0  0  0  0  0  0  0
   -4.8988    8.7932   -8.5018 H   0  0  0  0  0  0  0  0  0  0  0  0
   -4.6664   14.2006   -5.7309 H   0  0  0  0  0  0  0  0  0  0  0  0
   -0.3825   12.9417   -6.5674 H   0  0  0  0  0  0  0  0  0  0  0  0
   -0.6691   11.1721   -6.4547 H   0  0  0  0  0  0  0  0  0  0  0  0
   -0.6996   11.9867   -8.0553 H   0  0  0  0  0  0  0  0  0  0  0  0
   -4.7360   12.7267   -9.4387 H   0  0  0  0  0  0  0  0  0  0  0  0
   -3.5013   12.1004  -10.5834 H   0  0  0  0  0  0  0  0  0  0  0  0
   -2.0904   13.9978  -10.1413 H   0  0  0  0  0  0  0  0  0  0  0  0
   -3.1360   15.3560  -11.8558 H   0  0  0  0  0  0  0  0  0  0  0  0
   -4.3787   15.9133  -10.6846 H   0  0  0  0  0  0  0  0  0  0  0  0
   -4.8633   15.4195   -7.3271 H   0  0  0  0  0  0  0  0  0  0  0  0
   -5.2283   15.7048   -9.0625 H   0  0  0  0  0  0  0  0  0  0  0  0
   -5.3645   14.0504   -8.3763 H   0  0  0  0  0  0  0  0  0  0  0  0
  1  2  2  0  0  0  0
  1  4  1  0  0  0  0
  1 12  1  0  0  0  0
  2  6  1  0  0  0  0
  3  4  2  0  0  0  0
  3  5  1  0  0  0  0
  5  6  2  0  0  0  0
  5  9  1  0  0  0  0
  6  7  1  0  0  0  0
  7  8  1  0  0  0  0
  7 10  2  3  0  0  0
  8  9  2  0  0  0  0
 10 14  1  0  0  0  0
 11 12  1  0  0  0  0
 11 24  1  0  0  0  0
 11 26  1  0  0  0  0
 12 13  1  0  0  0  0
 14 15  2  0  0  0  0
 14 19  1  0  0  0  0
 15 16  1  0  0  0  0
 16 17  2  0  0  0  0
 16 20  1  0  0  0  0
 17 18  1  0  0  0  0
 17 22  1  0  0  0  0
 18 19  2  0  0  0  0
 20 21  2  0  0  0  0
 21 22  1  0  0  0  0
 22 23  1  0  0  0  0
 24 25  1  0  0  0  0
 25 26  1  0  0  0  0
 25 27  1  0  0  0  0
 27 28  1  0  0  0  0
  2 29  1  0  0  0  0
  3 30  1  0  0  0  0
  4 31  1  0  0  0  0
 10 32  1  0  0  0  0
 12 33  1  0  0  0  0
 13 34  1  0  0  0  0
 15 35  1  0  0  0  0
 18 36  1  0  0  0  0
 19 37  1  0  0  0  0
 20 38  1  0  0  0  0
 23 39  1  0  0  0  0
 23 40  1  0  0  0  0
 23 41  1  0  0  0  0
 24 42  1  0  0  0  0
 24 43  1  0  0  0  0
 25 44  1  0  0  0  0
 26 45  1  0  0  0  0
 26 46  1  0  0  0  0
 28 47  1  0  0  0  0
 28 48  1  0  0  0  0
 28 49  1  0  0  0  0
M  END
> <Name>
45

> <IC50[uM]>
0.007

$$$$
45
  -OEChem-05192314333D
 Structure written by MMmdl.
 49 53  0     0  0  0  0  0  0999 V2000
   -6.4275   12.3453  -12.0176 C   0  0  0  0  0  0  0  0  0  0  0  0
   -6.6105   11.7832  -10.7429 C   0  0  0  0  0  0  0  0  0  0  0  0
   -7.7405   10.5587  -13.0479 C   0  0  0  0  0  0  0  0  0  0  0  0
   -7.0073   11.7527  -13.1387 C   0  0  0  0  0  0  0  0  0  0  0  0
   -7.8357    9.9872  -11.7695 C   0  0  0  0  0  0  0  0  0  0  0  0
   -7.2848   10.5993  -10.6252 C   0  0  0  0  0  0  0  0  0  0  0  0
   -7.6281    9.7307   -9.5318 C   0  0  0  0  0  0  0  0  0  0  0  0
   -8.2830    8.7083   -9.9969 N   0  0  0  0  0  0  0  0  0  0  0  0
   -8.4214    8.8369  -11.3125 N   0  0  0  0  0  0  0  0  0  0  0  0
   -7.3299    9.8861   -8.0415 C   0  0  0  0  0  0  0  0  0  0  0  0
   -4.6020   13.8371  -11.3112 N   0  0  0  0  0  0  0  0  0  0  0  0
   -5.6232   13.6419  -12.1798 C   0  0  0  0  0  0  0  0  0  0  0  0
   -5.9069   14.4516  -13.0592 O   0  0  0  0  0  0  0  0  0  0  0  0
   -5.9473   10.4903   -7.7303 C   0  0  0  0  0  0  0  0  0  0  0  0
   -5.8632   11.7421   -7.1195 C   0  0  0  0  0  0  0  0  0  0  0  0
   -4.5901   12.2560   -6.8332 C   0  0  0  0  0  0  0  0  0  0  0  0
   -3.4296   11.5300   -7.2115 C   0  0  0  0  0  0  0  0  0  0  0  0
   -3.5045   10.2730   -7.8164 C   0  0  0  0  0  0  0  0  0  0  0  0
   -4.7945    9.7703   -8.0537 C   0  0  0  0  0  0  0  0  0  0  0  0
   -4.0643   13.4351   -6.1976 C   0  0  0  0  0  0  0  0  0  0  0  0
   -2.7662   13.4536   -6.2615 N   0  0  0  0  0  0  0  0  0  0  0  0
   -2.3669   12.3336   -6.8391 N   0  0  0  0  0  0  0  0  0  0  0  0
   -0.9435   12.0941   -6.9881 C   0  0  0  0  0  0  0  0  0  0  0  0
   -4.0340   12.9997  -10.2404 C   0  0  0  0  0  0  0  0  0  0  0  0
   -3.1550   14.1929   -9.9451 C   0  0  0  0  0  0  0  0  0  0  0  0
   -3.8070   15.0441  -11.0419 C   0  0  0  0  0  0  0  0  0  0  0  0
   -3.4251   14.7437   -8.6708 O   0  0  0  0  0  0  0  0  0  0  0  0
   -4.8009   14.9943   -8.3397 C   0  0  0  0  0  0  0  0  0  0  0  0
   -6.2230   12.2805   -9.8660 H   0  0  0  0  0  0  0  0  0  0  0  0
   -8.2044   10.1062  -13.9119 H   0  0  0  0  0  0  0  0  0  0  0  0
   -6.8892   12.2248  -14.1028 H   0  0  0  0  0  0  0  0  0  0  0  0
   -8.0981   10.5401   -7.6030 H   0  0  0  0  0  0  0  0  0  0  0  0
   -7.3843    8.8919   -7.5740 H   0  0  0  0  0  0  0  0  0  0  0  0
   -5.3107   15.1899  -13.0148 H   0  0  0  0  0  0  0  0  0  0  0  0
   -6.7546   12.3002   -6.8738 H   0  0  0  0  0  0  0  0  0  0  0  0
   -2.6185    9.7178   -8.0869 H   0  0  0  0  0  0  0  0  0  0  0  0
   -4.8988    8.7932   -8.5018 H   0  0  0  0  0  0  0  0  0  0  0  0
   -4.6664   14.2006   -5.7309 H   0  0  0  0  0  0  0  0  0  0  0  0
   -0.3825   12.9417   -6.5674 H   0  0  0  0  0  0  0  0  0  0  0  0
   -0.6691   11.1721   -6.4547 H   0  0  0  0  0  0  0  0  0  0  0  0
   -0.6996   11.9867   -8.0553 H   0  0  0  0  0  0  0  0  0  0  0  0
   -4.7360   12.7267   -9.4387 H   0  0  0  0  0  0  0  0  0  0  0  0
   -3.5013   12.1004  -10.5834 H   0  0  0  0  0  0  0  0  0  0  0  0
   -2.0904   13.9978  -10.1413 H   0  0  0  0  0  0  0  0  0  0  0  0
   -3.1360   15.3560  -11.8558 H   0  0  0  0  0  0  0  0  0  0  0  0
   -4.3787   15.9133  -10.6846 H   0  0  0  0  0  0  0  0  0  0  0  0
   -4.8633   15.4195   -7.3271 H   0  0  0  0  0  0  0  0  0  0  0  0
   -5.2283   15.7048   -9.0625 H   0  0  0  0  0  0  0  0  0  0  0  0
   -5.3645   14.0504   -8.3763 H   0  0  0  0  0  0  0  0  0  0  0  0
  1  2  1  0  0  0  0
  1  4  1  0  0  0  0
  1 12  2  3  0  0  0
  2  6  2  0  0  0  0
  3  4  2  0  0  0  0
  3  5  1  0  0  0  0
  5  6  1  0  0  0  0
  5  9  2  0  0  0  0
  6  7  1  0  0  0  0
  7  8  2  0  0  0  0
  7 10  1  0  0  0  0
  8  9  1  0  0  0  0
 10 14  1  0  0  0  0
 11 12  1  0  0  0  0
 11 24  1  0  0  0  0
 11 26  1  0  0  0  0
 12 13  1  0  0  0  0
 14 15  2  0  0  0  0
 14 19  1  0  0  0  0
 15 16  1  0  0  0  0
 16 17  2  0  0  0  0
 16 20  1  0  0  0  0
 17 18  1  0  0  0  0
 17 22  1  0  0  0  0
 18 19  2  0  0  0  0
 20 21  2  0  0  0  0
 21 22  1  0  0  0  0
 22 23  1  0  0  0  0
 24 25  1  0  0  0  0
 25 26  1  0  0  0  0
 25 27  1  0  0  0  0
 27 28  1  0  0  0  0
  2 29  1  0  0  0  0
  3 30  1  0  0  0  0
  4 31  1  0  0  0  0
 10 32  1  0  0  0  0
 10 33  1  0  0  0  0
 13 34  1  0  0  0  0
 15 35  1  0  0  0  0
 18 36  1  0  0  0  0
 19 37  1  0  0  0  0
 20 38  1  0  0  0  0
 23 39  1  0  0  0  0
 23 40  1  0  0  0  0
 23 41  1  0  0  0  0
 24 42  1  0  0  0  0
 24 43  1  0  0  0  0
 25 44  1  0  0  0  0
 26 45  1  0  0  0  0
 26 46  1  0  0  0  0
 28 47  1  0  0  0  0
 28 48  1  0  0  0  0
 28 49  1  0  0  0  0
M  END
> <Name>
45

> <IC50[uM]>
0.007

$$$$
45
  -OEChem-05192314333D
 Structure written by MMmdl.
 49 53  0     0  0  0  0  0  0999 V2000
   -6.4275   12.3453  -12.0176 C   0  0  0  0  0  0  0  0  0  0  0  0
   -6.6105   11.7832  -10.7429 C   0  0  0  0  0  0  0  0  0  0  0  0
   -7.7405   10.5587  -13.0479 C   0  0  0  0  0  0  0  0  0  0  0  0
   -7.0073   11.7527  -13.1387 C   0  0  0  0  0  0  0  0  0  0  0  0
   -7.8357    9.9872  -11.7695 C   0  0  0  0  0  0  0  0  0  0  0  0
   -7.2848   10.5993  -10.6252 C   0  0  0  0  0  0  0  0  0  0  0  0
   -7.6281    9.7307   -9.5318 C   0  0  0  0  0  0  0  0  0  0  0  0
   -8.2830    8.7083   -9.9969 N   0  0  0  0  0  0  0  0  0  0  0  0
   -8.4214    8.8369  -11.3125 N   0  0  0  0  0  0  0  0  0  0  0  0
   -7.3299    9.8861   -8.0415 C   0  0  0  0  0  0  0  0  0  0  0  0
   -4.6020   13.8371  -11.3112 N   0  0  0  0  0  0  0  0  0  0  0  0
   -5.6232   13.6419  -12.1798 C   0  0  0  0  0  0  0  0  0  0  0  0
   -5.9069   14.4516  -13.0592 O   0  0  0  0  0  0  0  0  0  0  0  0
   -5.9473   10.4903   -7.7303 C   0  0  0  0  0  0  0  0  0  0  0  0
   -5.8632   11.7421   -7.1195 C   0  0  0  0  0  0  0  0  0  0  0  0
   -4.5901   12.2560   -6.8332 C   0  0  0  0  0  0  0  0  0  0  0  0
   -3.4296   11.5300   -7.2115 C   0  0  0  0  0  0  0  0  0  0  0  0
   -3.5045   10.2730   -7.8164 C   0  0  0  0  0  0  0  0  0  0  0  0
   -4.7945    9.7703   -8.0537 C   0  0  0  0  0  0  0  0  0  0  0  0
   -4.0643   13.4351   -6.1976 C   0  0  0  0  0  0  0  0  0  0  0  0
   -2.7662   13.4536   -6.2615 N   0  0  0  0  0  0  0  0  0  0  0  0
   -2.3669   12.3336   -6.8391 N   0  0  0  0  0  0  0  0  0  0  0  0
   -0.9435   12.0941   -6.9881 C   0  0  0  0  0  0  0  0  0  0  0  0
   -4.0340   12.9997  -10.2404 C   0  0  0  0  0  0  0  0  0  0  0  0
   -3.1550   14.1929   -9.9451 C   0  0  0  0  0  0  0  0  0  0  0  0
   -3.8070   15.0441  -11.0419 C   0  0  0  0  0  0  0  0  0  0  0  0
   -3.4251   14.7437   -8.6708 O   0  0  0  0  0  0  0  0  0  0  0  0
   -4.8009   14.9943   -8.3397 C   0  0  0  0  0  0  0  0  0  0  0  0
   -6.2230   12.2805   -9.8660 H   0  0  0  0  0  0  0  0  0  0  0  0
   -8.2044   10.1062  -13.9119 H   0  0  0  0  0  0  0  0  0  0  0  0
   -6.8892   12.2248  -14.1028 H   0  0  0  0  0  0  0  0  0  0  0  0
   -8.0293    9.5968   -7.2711 H   0  0  0  0  0  0  0  0  0  0  0  0
   -5.3107   15.1899  -13.0148 H   0  0  0  0  0  0  0  0  0  0  0  0
   -6.3642   12.4628   -7.7826 H   0  0  0  0  0  0  0  0  0  0  0  0
   -6.4105   11.6778   -6.1675 H   0  0  0  0  0  0  0  0  0  0  0  0
   -2.6185    9.7178   -8.0869 H   0  0  0  0  0  0  0  0  0  0  0  0
   -4.8988    8.7932   -8.5018 H   0  0  0  0  0  0  0  0  0  0  0  0
   -4.6664   14.2006   -5.7309 H   0  0  0  0  0  0  0  0  0  0  0  0
   -0.3825   12.9417   -6.5674 H   0  0  0  0  0  0  0  0  0  0  0  0
   -0.6691   11.1721   -6.4547 H   0  0  0  0  0  0  0  0  0  0  0  0
   -0.6996   11.9867   -8.0553 H   0  0  0  0  0  0  0  0  0  0  0  0
   -4.7360   12.7267   -9.4387 H   0  0  0  0  0  0  0  0  0  0  0  0
   -3.5013   12.1004  -10.5834 H   0  0  0  0  0  0  0  0  0  0  0  0
   -2.0904   13.9978  -10.1413 H   0  0  0  0  0  0  0  0  0  0  0  0
   -3.1360   15.3560  -11.8558 H   0  0  0  0  0  0  0  0  0  0  0  0
   -4.3787   15.9133  -10.6846 H   0  0  0  0  0  0  0  0  0  0  0  0
   -4.8633   15.4195   -7.3271 H   0  0  0  0  0  0  0  0  0  0  0  0
   -5.2283   15.7048   -9.0625 H   0  0  0  0  0  0  0  0  0  0  0  0
   -5.3645   14.0504   -8.3763 H   0  0  0  0  0  0  0  0  0  0  0  0
  1  2  1  0  0  0  0
  1  4  1  0  0  0  0
  1 12  2  3  0  0  0
  2  6  2  0  0  0  0
  3  4  2  0  0  0  0
  3  5  1  0  0  0  0
  5  6  1  0  0  0  0
  5  9  2  0  0  0  0
  6  7  1  0  0  0  0
  7  8  2  0  0  0  0
  7 10  1  0  0  0  0
  8  9  1  0  0  0  0
 10 14  2  3  0  0  0
 11 12  1  0  0  0  0
 11 24  1  0  0  0  0
 11 26  1  0  0  0  0
 12 13  1  0  0  0  0
 14 15  1  0  0  0  0
 14 19  1  0  0  0  0
 15 16  1  0  0  0  0
 16 17  2  0  0  0  0
 16 20  1  0  0  0  0
 17 18  1  0  0  0  0
 17 22  1  0  0  0  0
 18 19  2  0  0  0  0
 20 21  2  0  0  0  0
 21 22  1  0  0  0  0
 22 23  1  0  0  0  0
 24 25  1  0  0  0  0
 25 26  1  0  0  0  0
 25 27  1  0  0  0  0
 27 28  1  0  0  0  0
  2 29  1  0  0  0  0
  3 30  1  0  0  0  0
  4 31  1  0  0  0  0
 10 32  1  0  0  0  0
 13 33  1  0  0  0  0
 15 34  1  0  0  0  0
 15 35  1  0  0  0  0
 18 36  1  0  0  0  0
 19 37  1  0  0  0  0
 20 38  1  0  0  0  0
 23 39  1  0  0  0  0
 23 40  1  0  0  0  0
 23 41  1  0  0  0  0
 24 42  1  0  0  0  0
 24 43  1  0  0  0  0
 25 44  1  0  0  0  0
 26 45  1  0  0  0  0
 26 46  1  0  0  0  0
 28 47  1  0  0  0  0
 28 48  1  0  0  0  0
 28 49  1  0  0  0  0
M  END
> <Name>
45

> <IC50[uM]>
0.007

$$$$
45
  -OEChem-05192314333D
 Structure written by MMmdl.
 49 53  0     0  0  0  0  0  0999 V2000
   -6.4275   12.3453  -12.0176 C   0  0  0  0  0  0  0  0  0  0  0  0
   -6.6105   11.7832  -10.7429 C   0  0  0  0  0  0  0  0  0  0  0  0
   -7.7405   10.5587  -13.0479 C   0  0  0  0  0  0  0  0  0  0  0  0
   -7.0073   11.7527  -13.1387 C   0  0  0  0  0  0  0  0  0  0  0  0
   -7.8357    9.9872  -11.7695 C   0  0  0  0  0  0  0  0  0  0  0  0
   -7.2848   10.5993  -10.6252 C   0  0  0  0  0  0  0  0  0  0  0  0
   -7.6281    9.7307   -9.5318 C   0  0  0  0  0  0  0  0  0  0  0  0
   -8.2830    8.7083   -9.9969 N   0  0  0  0  0  0  0  0  0  0  0  0
   -8.4214    8.8369  -11.3125 N   0  0  0  0  0  0  0  0  0  0  0  0
   -7.3299    9.8861   -8.0415 C   0  0  0  0  0  0  0  0  0  0  0  0
   -4.6020   13.8371  -11.3112 N   0  0  0  0  0  0  0  0  0  0  0  0
   -5.6232   13.6419  -12.1798 C   0  0  0  0  0  0  0  0  0  0  0  0
   -5.9069   14.4516  -13.0592 O   0  0  0  0  0  0  0  0  0  0  0  0
   -5.9473   10.4903   -7.7303 C   0  0  0  0  0  0  0  0  0  0  0  0
   -5.8632   11.7421   -7.1195 C   0  0  0  0  0  0  0  0  0  0  0  0
   -4.5901   12.2560   -6.8332 C   0  0  0  0  0  0  0  0  0  0  0  0
   -3.4296   11.5300   -7.2115 C   0  0  0  0  0  0  0  0  0  0  0  0
   -3.5045   10.2730   -7.8164 C   0  0  0  0  0  0  0  0  0  0  0  0
   -4.7945    9.7703   -8.0537 C   0  0  0  0  0  0  0  0  0  0  0  0
   -4.0643   13.4351   -6.1976 C   0  0  0  0  0  0  0  0  0  0  0  0
   -2.7662   13.4536   -6.2615 N   0  0  0  0  0  0  0  0  0  0  0  0
   -2.3669   12.3336   -6.8391 N   0  0  0  0  0  0  0  0  0  0  0  0
   -0.9435   12.0941   -6.9881 C   0  0  0  0  0  0  0  0  0  0  0  0
   -4.0340   12.9997  -10.2404 C   0  0  0  0  0  0  0  0  0  0  0  0
   -3.1550   14.1929   -9.9451 C   0  0  0  0  0  0  0  0  0  0  0  0
   -3.8070   15.0441  -11.0419 C   0  0  0  0  0  0  0  0  0  0  0  0
   -3.4251   14.7437   -8.6708 O   0  0  0  0  0  0  0  0  0  0  0  0
   -4.8009   14.9943   -8.3397 C   0  0  0  0  0  0  0  0  0  0  0  0
   -6.2230   12.2805   -9.8660 H   0  0  0  0  0  0  0  0  0  0  0  0
   -8.2044   10.1062  -13.9119 H   0  0  0  0  0  0  0  0  0  0  0  0
   -6.8892   12.2248  -14.1028 H   0  0  0  0  0  0  0  0  0  0  0  0
   -8.0293    9.5968   -7.2711 H   0  0  0  0  0  0  0  0  0  0  0  0
   -5.3107   15.1899  -13.0148 H   0  0  0  0  0  0  0  0  0  0  0  0
   -6.7546   12.3002   -6.8738 H   0  0  0  0  0  0  0  0  0  0  0  0
   -2.6185    9.7178   -8.0869 H   0  0  0  0  0  0  0  0  0  0  0  0
   -4.8603    8.8218   -7.5006 H   0  0  0  0  0  0  0  0  0  0  0  0
   -4.8514    9.5697   -9.1338 H   0  0  0  0  0  0  0  0  0  0  0  0
   -4.6664   14.2006   -5.7309 H   0  0  0  0  0  0  0  0  0  0  0  0
   -0.3825   12.9417   -6.5674 H   0  0  0  0  0  0  0  0  0  0  0  0
   -0.6691   11.1721   -6.4547 H   0  0  0  0  0  0  0  0  0  0  0  0
   -0.6996   11.9867   -8.0553 H   0  0  0  0  0  0  0  0  0  0  0  0
   -4.7360   12.7267   -9.4387 H   0  0  0  0  0  0  0  0  0  0  0  0
   -3.5013   12.1004  -10.5834 H   0  0  0  0  0  0  0  0  0  0  0  0
   -2.0904   13.9978  -10.1413 H   0  0  0  0  0  0  0  0  0  0  0  0
   -3.1360   15.3560  -11.8558 H   0  0  0  0  0  0  0  0  0  0  0  0
   -4.3787   15.9133  -10.6846 H   0  0  0  0  0  0  0  0  0  0  0  0
   -4.8633   15.4195   -7.3271 H   0  0  0  0  0  0  0  0  0  0  0  0
   -5.2283   15.7048   -9.0625 H   0  0  0  0  0  0  0  0  0  0  0  0
   -5.3645   14.0504   -8.3763 H   0  0  0  0  0  0  0  0  0  0  0  0
  1  2  1  0  0  0  0
  1  4  1  0  0  0  0
  1 12  2  3  0  0  0
  2  6  2  0  0  0  0
  3  4  2  0  0  0  0
  3  5  1  0  0  0  0
  5  6  1  0  0  0  0
  5  9  2  0  0  0  0
  6  7  1  0  0  0  0
  7  8  2  0  0  0  0
  7 10  1  0  0  0  0
  8  9  1  0  0  0  0
 10 14  2  3  0  0  0
 11 12  1  0  0  0  0
 11 24  1  0  0  0  0
 11 26  1  0  0  0  0
 12 13  1  0  0  0  0
 14 15  1  0  0  0  0
 14 19  1  0  0  0  0
 15 16  2  0  0  0  0
 16 17  1  0  0  0  0
 16 20  1  0  0  0  0
 17 18  2  0  0  0  0
 17 22  1  0  0  0  0
 18 19  1  0  0  0  0
 20 21  2  0  0  0  0
 21 22  1  0  0  0  0
 22 23  1  0  0  0  0
 24 25  1  0  0  0  0
 25 26  1  0  0  0  0
 25 27  1  0  0  0  0
 27 28  1  0  0  0  0
  2 29  1  0  0  0  0
  3 30  1  0  0  0  0
  4 31  1  0  0  0  0
 10 32  1  0  0  0  0
 13 33  1  0  0  0  0
 15 34  1  0  0  0  0
 18 35  1  0  0  0  0
 19 36  1  0  0  0  0
 19 37  1  0  0  0  0
 20 38  1  0  0  0  0
 23 39  1  0  0  0  0
 23 40  1  0  0  0  0
 23 41  1  0  0  0  0
 24 42  1  0  0  0  0
 24 43  1  0  0  0  0
 25 44  1  0  0  0  0
 26 45  1  0  0  0  0
 26 46  1  0  0  0  0
 28 47  1  0  0  0  0
 28 48  1  0  0  0  0
 28 49  1  0  0  0  0
M  END
> <Name>
45

> <IC50[uM]>
0.007

$$$$
45
  -OEChem-05192314333D
 Structure written by MMmdl.
 49 53  0     1  0  0  0  0  0999 V2000
   -6.4275   12.3453  -12.0176 C   0  0  0  0  0  0  0  0  0  0  0  0
   -6.6105   11.7832  -10.7429 C   0  0  0  0  0  0  0  0  0  0  0  0
   -7.7405   10.5587  -13.0479 C   0  0  0  0  0  0  0  0  0  0  0  0
   -7.0073   11.7527  -13.1387 C   0  0  0  0  0  0  0  0  0  0  0  0
   -7.8357    9.9872  -11.7695 C   0  0  3  0  0  0  0  0  0  0  0  0
   -7.2848   10.5993  -10.6252 C   0  0  0  0  0  0  0  0  0  0  0  0
   -7.6281    9.7307   -9.5318 C   0  0  0  0  0  0  0  0  0  0  0  0
   -8.2830    8.7083   -9.9969 N   0  0  0  0  0  0  0  0  0  0  0  0
   -8.4214    8.8369  -11.3125 N   0  0  0  0  0  0  0  0  0  0  0  0
   -7.3299    9.8861   -8.0415 C   0  0  0  0  0  0  0  0  0  0  0  0
   -4.6020   13.8371  -11.3112 N   0  0  0  0  0  0  0  0  0  0  0  0
   -5.6232   13.6419  -12.1798 C   0  0  0  0  0  0  0  0  0  0  0  0
   -5.9069   14.4516  -13.0592 O   0  0  0  0  0  0  0  0  0  0  0  0
   -5.9473   10.4903   -7.7303 C   0  0  0  0  0  0  0  0  0  0  0  0
   -5.8632   11.7421   -7.1195 C   0  0  0  0  0  0  0  0  0  0  0  0
   -4.5901   12.2560   -6.8332 C   0  0  0  0  0  0  0  0  0  0  0  0
   -3.4296   11.5300   -7.2115 C   0  0  0  0  0  0  0  0  0  0  0  0
   -3.5045   10.2730   -7.8164 C   0  0  0  0  0  0  0  0  0  0  0  0
   -4.7945    9.7703   -8.0537 C   0  0  0  0  0  0  0  0  0  0  0  0
   -4.0643   13.4351   -6.1976 C   0  0  0  0  0  0  0  0  0  0  0  0
   -2.7662   13.4536   -6.2615 N   0  0  0  0  0  0  0  0  0  0  0  0
   -2.3669   12.3336   -6.8391 N   0  0  0  0  0  0  0  0  0  0  0  0
   -0.9435   12.0941   -6.9881 C   0  0  0  0  0  0  0  0  0  0  0  0
   -4.0340   12.9997  -10.2404 C   0  0  0  0  0  0  0  0  0  0  0  0
   -3.1550   14.1929   -9.9451 C   0  0  0  0  0  0  0  0  0  0  0  0
   -3.8070   15.0441  -11.0419 C   0  0  0  0  0  0  0  0  0  0  0  0
   -3.4251   14.7437   -8.6708 O   0  0  0  0  0  0  0  0  0  0  0  0
   -4.8009   14.9943   -8.3397 C   0  0  0  0  0  0  0  0  0  0  0  0
   -6.2230   12.2805   -9.8660 H   0  0  0  0  0  0  0  0  0  0  0  0
   -8.2044   10.1062  -13.9119 H   0  0  0  0  0  0  0  0  0  0  0  0
   -6.8892   12.2248  -14.1028 H   0  0  0  0  0  0  0  0  0  0  0  0
   -6.8934    9.4451  -11.9376 H   0  0  0  0  0  0  0  0  0  0  0  0
   -8.0293    9.5968   -7.2711 H   0  0  0  0  0  0  0  0  0  0  0  0
   -5.3107   15.1899  -13.0148 H   0  0  0  0  0  0  0  0  0  0  0  0
   -6.7546   12.3002   -6.8738 H   0  0  0  0  0  0  0  0  0  0  0  0
   -2.6185    9.7178   -8.0869 H   0  0  0  0  0  0  0  0  0  0  0  0
   -4.8988    8.7932   -8.5018 H   0  0  0  0  0  0  0  0  0  0  0  0
   -4.6664   14.2006   -5.7309 H   0  0  0  0  0  0  0  0  0  0  0  0
   -0.3825   12.9417   -6.5674 H   0  0  0  0  0  0  0  0  0  0  0  0
   -0.6691   11.1721   -6.4547 H   0  0  0  0  0  0  0  0  0  0  0  0
   -0.6996   11.9867   -8.0553 H   0  0  0  0  0  0  0  0  0  0  0  0
   -4.7360   12.7267   -9.4387 H   0  0  0  0  0  0  0  0  0  0  0  0
   -3.5013   12.1004  -10.5834 H   0  0  0  0  0  0  0  0  0  0  0  0
   -2.0904   13.9978  -10.1413 H   0  0  0  0  0  0  0  0  0  0  0  0
   -3.1360   15.3560  -11.8558 H   0  0  0  0  0  0  0  0  0  0  0  0
   -4.3787   15.9133  -10.6846 H   0  0  0  0  0  0  0  0  0  0  0  0
   -4.8633   15.4195   -7.3271 H   0  0  0  0  0  0  0  0  0  0  0  0
   -5.2283   15.7048   -9.0625 H   0  0  0  0  0  0  0  0  0  0  0  0
   -5.3645   14.0504   -8.3763 H   0  0  0  0  0  0  0  0  0  0  0  0
  1  2  1  0  0  0  0
  1  4  1  0  0  0  0
  1 12  2  3  0  0  0
  2  6  2  0  0  0  0
  3  4  2  0  0  0  0
  3  5  1  0  0  0  0
  5  6  1  0  0  0  0
  5  9  1  0  0  0  0
  6  7  1  0  0  0  0
  7  8  1  0  0  0  0
  7 10  2  3  0  0  0
  8  9  2  0  0  0  0
 10 14  1  0  0  0  0
 11 12  1  0  0  0  0
 11 24  1  0  0  0  0
 11 26  1  0  0  0  0
 12 13  1  0  0  0  0
 14 15  2  0  0  0  0
 14 19  1  0  0  0  0
 15 16  1  0  0  0  0
 16 17  2  0  0  0  0
 16 20  1  0  0  0  0
 17 18  1  0  0  0  0
 17 22  1  0  0  0  0
 18 19  2  0  0  0  0
 20 21  2  0  0  0  0
 21 22  1  0  0  0  0
 22 23  1  0  0  0  0
 24 25  1  0  0  0  0
 25 26  1  0  0  0  0
 25 27  1  0  0  0  0
 27 28  1  0  0  0  0
  2 29  1  0  0  0  0
  3 30  1  0  0  0  0
  4 31  1  0  0  0  0
  5 32  1  0  0  0  0
 10 33  1  0  0  0  0
 13 34  1  0  0  0  0
 15 35  1  0  0  0  0
 18 36  1  0  0  0  0
 19 37  1  0  0  0  0
 20 38  1  0  0  0  0
 23 39  1  0  0  0  0
 23 40  1  0  0  0  0
 23 41  1  0  0  0  0
 24 42  1  0  0  0  0
 24 43  1  0  0  0  0
 25 44  1  0  0  0  0
 26 45  1  0  0  0  0
 26 46  1  0  0  0  0
 28 47  1  0  0  0  0
 28 48  1  0  0  0  0
 28 49  1  0  0  0  0
M  END
> <Name>
45

> <IC50[uM]>
0.007

$$$$
45
  -OEChem-05192314333D
 Structure written by MMmdl.
 49 53  0     0  0  0  0  0  0999 V2000
   -6.4275   12.3453  -12.0176 C   0  0  0  0  0  0  0  0  0  0  0  0
   -6.6105   11.7832  -10.7429 C   0  0  0  0  0  0  0  0  0  0  0  0
   -7.7405   10.5587  -13.0479 C   0  0  0  0  0  0  0  0  0  0  0  0
   -7.0073   11.7527  -13.1387 C   0  0  0  0  0  0  0  0  0  0  0  0
   -7.8357    9.9872  -11.7695 C   0  0  0  0  0  0  0  0  0  0  0  0
   -7.2848   10.5993  -10.6252 C   0  0  0  0  0  0  0  0  0  0  0  0
   -7.6281    9.7307   -9.5318 C   0  0  0  0  0  0  0  0  0  0  0  0
   -8.2830    8.7083   -9.9969 N   0  0  0  0  0  0  0  0  0  0  0  0
   -8.4214    8.8369  -11.3125 N   0  0  0  0  0  0  0  0  0  0  0  0
   -7.3299    9.8861   -8.0415 C   0  0  0  0  0  0  0  0  0  0  0  0
   -4.6020   13.8371  -11.3112 N   0  0  0  0  0  0  0  0  0  0  0  0
   -5.6232   13.6419  -12.1798 C   0  0  0  0  0  0  0  0  0  0  0  0
   -5.9069   14.4516  -13.0592 O   0  0  0  0  0  0  0  0  0  0  0  0
   -5.9473   10.4903   -7.7303 C   0  0  0  0  0  0  0  0  0  0  0  0
   -5.8632   11.7421   -7.1195 C   0  0  0  0  0  0  0  0  0  0  0  0
   -4.5901   12.2560   -6.8332 C   0  0  0  0  0  0  0  0  0  0  0  0
   -3.4296   11.5300   -7.2115 C   0  0  0  0  0  0  0  0  0  0  0  0
   -3.5045   10.2730   -7.8164 C   0  0  0  0  0  0  0  0  0  0  0  0
   -4.7945    9.7703   -8.0537 C   0  0  0  0  0  0  0  0  0  0  0  0
   -4.0643   13.4351   -6.1976 C   0  0  0  0  0  0  0  0  0  0  0  0
   -2.7662   13.4536   -6.2615 N   0  0  0  0  0  0  0  0  0  0  0  0
   -2.3669   12.3336   -6.8391 N   0  0  0  0  0  0  0  0  0  0  0  0
   -0.9435   12.0941   -6.9881 C   0  0  0  0  0  0  0  0  0  0  0  0
   -4.0340   12.9997  -10.2404 C   0  0  0  0  0  0  0  0  0  0  0  0
   -3.1550   14.1929   -9.9451 C   0  0  0  0  0  0  0  0  0  0  0  0
   -3.8070   15.0441  -11.0419 C   0  0  0  0  0  0  0  0  0  0  0  0
   -3.4251   14.7437   -8.6708 O   0  0  0  0  0  0  0  0  0  0  0  0
   -4.8009   14.9943   -8.3397 C   0  0  0  0  0  0  0  0  0  0  0  0
   -6.2230   12.2805   -9.8660 H   0  0  0  0  0  0  0  0  0  0  0  0
   -8.2044   10.1062  -13.9119 H   0  0  0  0  0  0  0  0  0  0  0  0
   -7.6892   12.5023  -13.5665 H   0  0  0  0  0  0  0  0  0  0  0  0
   -6.1865   11.5583  -13.8448 H   0  0  0  0  0  0  0  0  0  0  0  0
   -8.0293    9.5968   -7.2711 H   0  0  0  0  0  0  0  0  0  0  0  0
   -5.3107   15.1899  -13.0148 H   0  0  0  0  0  0  0  0  0  0  0  0
   -6.7546   12.3002   -6.8738 H   0  0  0  0  0  0  0  0  0  0  0  0
   -2.6185    9.7178   -8.0869 H   0  0  0  0  0  0  0  0  0  0  0  0
   -4.8988    8.7932   -8.5018 H   0  0  0  0  0  0  0  0  0  0  0  0
   -4.6664   14.2006   -5.7309 H   0  0  0  0  0  0  0  0  0  0  0  0
   -0.3825   12.9417   -6.5674 H   0  0  0  0  0  0  0  0  0  0  0  0
   -0.6691   11.1721   -6.4547 H   0  0  0  0  0  0  0  0  0  0  0  0
   -0.6996   11.9867   -8.0553 H   0  0  0  0  0  0  0  0  0  0  0  0
   -4.7360   12.7267   -9.4387 H   0  0  0  0  0  0  0  0  0  0  0  0
   -3.5013   12.1004  -10.5834 H   0  0  0  0  0  0  0  0  0  0  0  0
   -2.0904   13.9978  -10.1413 H   0  0  0  0  0  0  0  0  0  0  0  0
   -3.1360   15.3560  -11.8558 H   0  0  0  0  0  0  0  0  0  0  0  0
   -4.3787   15.9133  -10.6846 H   0  0  0  0  0  0  0  0  0  0  0  0
   -4.8633   15.4195   -7.3271 H   0  0  0  0  0  0  0  0  0  0  0  0
   -5.2283   15.7048   -9.0625 H   0  0  0  0  0  0  0  0  0  0  0  0
   -5.3645   14.0504   -8.3763 H   0  0  0  0  0  0  0  0  0  0  0  0
  1  2  1  0  0  0  0
  1  4  1  0  0  0  0
  1 12  2  3  0  0  0
  2  6  2  0  0  0  0
  3  4  1  0  0  0  0
  3  5  2  0  0  0  0
  5  6  1  0  0  0  0
  5  9  1  0  0  0  0
  6  7  1  0  0  0  0
  7  8  1  0  0  0  0
  7 10  2  3  0  0  0
  8  9  2  0  0  0  0
 10 14  1  0  0  0  0
 11 12  1  0  0  0  0
 11 24  1  0  0  0  0
 11 26  1  0  0  0  0
 12 13  1  0  0  0  0
 14 15  2  0  0  0  0
 14 19  1  0  0  0  0
 15 16  1  0  0  0  0
 16 17  2  0  0  0  0
 16 20  1  0  0  0  0
 17 18  1  0  0  0  0
 17 22  1  0  0  0  0
 18 19  2  0  0  0  0
 20 21  2  0  0  0  0
 21 22  1  0  0  0  0
 22 23  1  0  0  0  0
 24 25  1  0  0  0  0
 25 26  1  0  0  0  0
 25 27  1  0  0  0  0
 27 28  1  0  0  0  0
  2 29  1  0  0  0  0
  3 30  1  0  0  0  0
  4 31  1  0  0  0  0
  4 32  1  0  0  0  0
 10 33  1  0  0  0  0
 13 34  1  0  0  0  0
 15 35  1  0  0  0  0
 18 36  1  0  0  0  0
 19 37  1  0  0  0  0
 20 38  1  0  0  0  0
 23 39  1  0  0  0  0
 23 40  1  0  0  0  0
 23 41  1  0  0  0  0
 24 42  1  0  0  0  0
 24 43  1  0  0  0  0
 25 44  1  0  0  0  0
 26 45  1  0  0  0  0
 26 46  1  0  0  0  0
 28 47  1  0  0  0  0
 28 48  1  0  0  0  0
 28 49  1  0  0  0  0
M  END
> <Name>
45

> <IC50[uM]>
0.007

$$$$
45
  -OEChem-05192314333D
 Structure written by MMmdl.
 49 53  0     0  0  0  0  0  0999 V2000
   -6.4275   12.3453  -12.0176 C   0  0  0  0  0  0  0  0  0  0  0  0
   -6.6105   11.7832  -10.7429 C   0  0  0  0  0  0  0  0  0  0  0  0
   -7.7405   10.5587  -13.0479 C   0  0  0  0  0  0  0  0  0  0  0  0
   -7.0073   11.7527  -13.1387 C   0  0  0  0  0  0  0  0  0  0  0  0
   -7.8357    9.9872  -11.7695 C   0  0  0  0  0  0  0  0  0  0  0  0
   -7.2848   10.5993  -10.6252 C   0  0  0  0  0  0  0  0  0  0  0  0
   -7.6281    9.7307   -9.5318 C   0  0  0  0  0  0  0  0  0  0  0  0
   -8.2830    8.7083   -9.9969 N   0  0  0  0  0  0  0  0  0  0  0  0
   -8.4214    8.8369  -11.3125 N   0  0  0  0  0  0  0  0  0  0  0  0
   -7.3299    9.8861   -8.0415 C   0  0  0  0  0  0  0  0  0  0  0  0
   -4.6020   13.8371  -11.3112 N   0  0  0  0  0  0  0  0  0  0  0  0
   -5.6232   13.6419  -12.1798 C   0  0  0  0  0  0  0  0  0  0  0  0
   -5.9069   14.4516  -13.0592 O   0  0  0  0  0  0  0  0  0  0  0  0
   -5.9473   10.4903   -7.7303 C   0  0  0  0  0  0  0  0  0  0  0  0
   -5.8632   11.7421   -7.1195 C   0  0  0  0  0  0  0  0  0  0  0  0
   -4.5901   12.2560   -6.8332 C   0  0  0  0  0  0  0  0  0  0  0  0
   -3.4296   11.5300   -7.2115 C   0  0  0  0  0  0  0  0  0  0  0  0
   -3.5045   10.2730   -7.8164 C   0  0  0  0  0  0  0  0  0  0  0  0
   -4.7945    9.7703   -8.0537 C   0  0  0  0  0  0  0  0  0  0  0  0
   -4.0643   13.4351   -6.1976 C   0  0  0  0  0  0  0  0  0  0  0  0
   -2.7662   13.4536   -6.2615 N   0  0  0  0  0  0  0  0  0  0  0  0
   -2.3669   12.3336   -6.8391 N   0  0  0  0  0  0  0  0  0  0  0  0
   -0.9435   12.0941   -6.9881 C   0  0  0  0  0  0  0  0  0  0  0  0
   -4.0340   12.9997  -10.2404 C   0  0  0  0  0  0  0  0  0  0  0  0
   -3.1550   14.1929   -9.9451 C   0  0  0  0  0  0  0  0  0  0  0  0
   -3.8070   15.0441  -11.0419 C   0  0  0  0  0  0  0  0  0  0  0  0
   -3.4251   14.7437   -8.6708 O   0  0  0  0  0  0  0  0  0  0  0  0
   -4.8009   14.9943   -8.3397 C   0  0  0  0  0  0  0  0  0  0  0  0
   -5.6096   11.6267  -10.3142 H   0  0  0  0  0  0  0  0  0  0  0  0
   -7.1557   12.5246  -10.1403 H   0  0  0  0  0  0  0  0  0  0  0  0
   -8.2044   10.1062  -13.9119 H   0  0  0  0  0  0  0  0  0  0  0  0
   -6.8892   12.2248  -14.1028 H   0  0  0  0  0  0  0  0  0  0  0  0
   -8.0293    9.5968   -7.2711 H   0  0  0  0  0  0  0  0  0  0  0  0
   -5.3107   15.1899  -13.0148 H   0  0  0  0  0  0  0  0  0  0  0  0
   -6.7546   12.3002   -6.8738 H   0  0  0  0  0  0  0  0  0  0  0  0
   -2.6185    9.7178   -8.0869 H   0  0  0  0  0  0  0  0  0  0  0  0
   -4.8988    8.7932   -8.5018 H   0  0  0  0  0  0  0  0  0  0  0  0
   -4.6664   14.2006   -5.7309 H   0  0  0  0  0  0  0  0  0  0  0  0
   -0.3825   12.9417   -6.5674 H   0  0  0  0  0  0  0  0  0  0  0  0
   -0.6691   11.1721   -6.4547 H   0  0  0  0  0  0  0  0  0  0  0  0
   -0.6996   11.9867   -8.0553 H   0  0  0  0  0  0  0  0  0  0  0  0
   -4.7360   12.7267   -9.4387 H   0  0  0  0  0  0  0  0  0  0  0  0
   -3.5013   12.1004  -10.5834 H   0  0  0  0  0  0  0  0  0  0  0  0
   -2.0904   13.9978  -10.1413 H   0  0  0  0  0  0  0  0  0  0  0  0
   -3.1360   15.3560  -11.8558 H   0  0  0  0  0  0  0  0  0  0  0  0
   -4.3787   15.9133  -10.6846 H   0  0  0  0  0  0  0  0  0  0  0  0
   -4.8633   15.4195   -7.3271 H   0  0  0  0  0  0  0  0  0  0  0  0
   -5.2283   15.7048   -9.0625 H   0  0  0  0  0  0  0  0  0  0  0  0
   -5.3645   14.0504   -8.3763 H   0  0  0  0  0  0  0  0  0  0  0  0
  1  2  1  0  0  0  0
  1  4  1  0  0  0  0
  1 12  2  3  0  0  0
  2  6  1  0  0  0  0
  3  4  2  0  0  0  0
  3  5  1  0  0  0  0
  5  6  2  0  0  0  0
  5  9  1  0  0  0  0
  6  7  1  0  0  0  0
  7  8  1  0  0  0  0
  7 10  2  3  0  0  0
  8  9  2  0  0  0  0
 10 14  1  0  0  0  0
 11 12  1  0  0  0  0
 11 24  1  0  0  0  0
 11 26  1  0  0  0  0
 12 13  1  0  0  0  0
 14 15  2  0  0  0  0
 14 19  1  0  0  0  0
 15 16  1  0  0  0  0
 16 17  2  0  0  0  0
 16 20  1  0  0  0  0
 17 18  1  0  0  0  0
 17 22  1  0  0  0  0
 18 19  2  0  0  0  0
 20 21  2  0  0  0  0
 21 22  1  0  0  0  0
 22 23  1  0  0  0  0
 24 25  1  0  0  0  0
 25 26  1  0  0  0  0
 25 27  1  0  0  0  0
 27 28  1  0  0  0  0
  2 29  1  0  0  0  0
  2 30  1  0  0  0  0
  3 31  1  0  0  0  0
  4 32  1  0  0  0  0
 10 33  1  0  0  0  0
 13 34  1  0  0  0  0
 15 35  1  0  0  0  0
 18 36  1  0  0  0  0
 19 37  1  0  0  0  0
 20 38  1  0  0  0  0
 23 39  1  0  0  0  0
 23 40  1  0  0  0  0
 23 41  1  0  0  0  0
 24 42  1  0  0  0  0
 24 43  1  0  0  0  0
 25 44  1  0  0  0  0
 26 45  1  0  0  0  0
 26 46  1  0  0  0  0
 28 47  1  0  0  0  0
 28 48  1  0  0  0  0
 28 49  1  0  0  0  0
M  END
> <Name>
45

> <IC50[uM]>
0.007

$$$$
45
  -OEChem-05192314333D
 Structure written by MMmdl.
 49 53  0     1  0  0  0  0  0999 V2000
   -6.4275   12.3453  -12.0176 C   0  0  0  0  0  0  0  0  0  0  0  0
   -6.6105   11.7832  -10.7429 C   0  0  0  0  0  0  0  0  0  0  0  0
   -7.7405   10.5587  -13.0479 C   0  0  0  0  0  0  0  0  0  0  0  0
   -7.0073   11.7527  -13.1387 C   0  0  0  0  0  0  0  0  0  0  0  0
   -7.8357    9.9872  -11.7695 C   0  0  0  0  0  0  0  0  0  0  0  0
   -7.2848   10.5993  -10.6252 C   0  0  0  0  0  0  0  0  0  0  0  0
   -7.6281    9.7307   -9.5318 C   0  0  0  0  0  0  0  0  0  0  0  0
   -8.2830    8.7083   -9.9969 N   0  0  0  0  0  0  0  0  0  0  0  0
   -8.4214    8.8369  -11.3125 N   0  0  0  0  0  0  0  0  0  0  0  0
   -7.3299    9.8861   -8.0415 C   0  0  0  0  0  0  0  0  0  0  0  0
   -4.6020   13.8371  -11.3112 N   0  0  0  0  0  0  0  0  0  0  0  0
   -5.6232   13.6419  -12.1798 C   0  0  0  0  0  0  0  0  0  0  0  0
   -5.9069   14.4516  -13.0592 O   0  0  0  0  0  0  0  0  0  0  0  0
   -5.9473   10.4903   -7.7303 C   0  0  0  0  0  0  0  0  0  0  0  0
   -5.8632   11.7421   -7.1195 C   0  0  0  0  0  0  0  0  0  0  0  0
   -4.5901   12.2560   -6.8332 C   0  0  0  0  0  0  0  0  0  0  0  0
   -3.4296   11.5300   -7.2115 C   0  0  3  0  0  0  0  0  0  0  0  0
   -3.5045   10.2730   -7.8164 C   0  0  0  0  0  0  0  0  0  0  0  0
   -4.7945    9.7703   -8.0537 C   0  0  0  0  0  0  0  0  0  0  0  0
   -4.0643   13.4351   -6.1976 C   0  0  0  0  0  0  0  0  0  0  0  0
   -2.7662   13.4536   -6.2615 N   0  0  0  0  0  0  0  0  0  0  0  0
   -2.3669   12.3336   -6.8391 N   0  0  3  0  0  0  0  0  0  0  0  0
   -0.9435   12.0941   -6.9881 C   0  0  0  0  0  0  0  0  0  0  0  0
   -4.0340   12.9997  -10.2404 C   0  0  0  0  0  0  0  0  0  0  0  0
   -3.1550   14.1929   -9.9451 C   0  0  0  0  0  0  0  0  0  0  0  0
   -3.8070   15.0441  -11.0419 C   0  0  0  0  0  0  0  0  0  0  0  0
   -3.4251   14.7437   -8.6708 O   0  0  0  0  0  0  0  0  0  0  0  0
   -4.8009   14.9943   -8.3397 C   0  0  0  0  0  0  0  0  0  0  0  0
   -6.2230   12.2805   -9.8660 H   0  0  0  0  0  0  0  0  0  0  0  0
   -8.2044   10.1062  -13.9119 H   0  0  0  0  0  0  0  0  0  0  0  0
   -6.8892   12.2248  -14.1028 H   0  0  0  0  0  0  0  0  0  0  0  0
   -8.0293    9.5968   -7.2711 H   0  0  0  0  0  0  0  0  0  0  0  0
   -5.3107   15.1899  -13.0148 H   0  0  0  0  0  0  0  0  0  0  0  0
   -6.7546   12.3002   -6.8738 H   0  0  0  0  0  0  0  0  0  0  0  0
   -3.4490   12.0100   -8.2010 H   0  0  0  0  0  0  0  0  0  0  0  0
   -2.6185    9.7178   -8.0869 H   0  0  0  0  0  0  0  0  0  0  0  0
   -4.8988    8.7932   -8.5018 H   0  0  0  0  0  0  0  0  0  0  0  0
   -4.6664   14.2006   -5.7309 H   0  0  0  0  0  0  0  0  0  0  0  0
   -0.3825   12.9417   -6.5674 H   0  0  0  0  0  0  0  0  0  0  0  0
   -0.6691   11.1721   -6.4547 H   0  0  0  0  0  0  0  0  0  0  0  0
   -0.6996   11.9867   -8.0553 H   0  0  0  0  0  0  0  0  0  0  0  0
   -4.7360   12.7267   -9.4387 H   0  0  0  0  0  0  0  0  0  0  0  0
   -3.5013   12.1004  -10.5834 H   0  0  0  0  0  0  0  0  0  0  0  0
   -2.0904   13.9978  -10.1413 H   0  0  0  0  0  0  0  0  0  0  0  0
   -3.1360   15.3560  -11.8558 H   0  0  0  0  0  0  0  0  0  0  0  0
   -4.3787   15.9133  -10.6846 H   0  0  0  0  0  0  0  0  0  0  0  0
   -4.8633   15.4195   -7.3271 H   0  0  0  0  0  0  0  0  0  0  0  0
   -5.2283   15.7048   -9.0625 H   0  0  0  0  0  0  0  0  0  0  0  0
   -5.3645   14.0504   -8.3763 H   0  0  0  0  0  0  0  0  0  0  0  0
  1  2  1  0  0  0  0
  1  4  1  0  0  0  0
  1 12  2  3  0  0  0
  2  6  2  0  0  0  0
  3  4  2  0  0  0  0
  3  5  1  0  0  0  0
  5  6  1  0  0  0  0
  5  9  2  0  0  0  0
  6  7  1  0  0  0  0
  7  8  2  0  0  0  0
  7 10  1  0  0  0  0
  8  9  1  0  0  0  0
 10 14  2  3  0  0  0
 11 12  1  0  0  0  0
 11 24  1  0  0  0  0
 11 26  1  0  0  0  0
 12 13  1  0  0  0  0
 14 15  1  0  0  0  0
 14 19  1  0  0  0  0
 15 16  2  0  0  0  0
 16 17  1  0  0  0  0
 16 20  1  0  0  0  0
 17 18  1  0  0  0  0
 17 22  1  0  0  0  0
 18 19  2  0  0  0  0
 20 21  2  0  0  0  0
 21 22  1  0  0  0  0
 22 23  1  0  0  0  0
 24 25  1  0  0  0  0
 25 26  1  0  0  0  0
 25 27  1  0  0  0  0
 27 28  1  0  0  0  0
  2 29  1  0  0  0  0
  3 30  1  0  0  0  0
  4 31  1  0  0  0  0
 10 32  1  0  0  0  0
 13 33  1  0  0  0  0
 15 34  1  0  0  0  0
 17 35  1  0  0  0  0
 18 36  1  0  0  0  0
 19 37  1  0  0  0  0
 20 38  1  0  0  0  0
 23 39  1  0  0  0  0
 23 40  1  0  0  0  0
 23 41  1  0  0  0  0
 24 42  1  0  0  0  0
 24 43  1  0  0  0  0
 25 44  1  0  0  0  0
 26 45  1  0  0  0  0
 26 46  1  0  0  0  0
 28 47  1  0  0  0  0
 28 48  1  0  0  0  0
 28 49  1  0  0  0  0
M  END
> <Name>
45

> <IC50[uM]>
0.007

$$$$
