32
  -OEChem-05192314333D
 Structure written by MMmdl.
 42 45  0     0  0  0  0  0  0999 V2000
   -6.3767   12.3649  -12.0150 C   0  0  0  0  0  0  0  0  0  0  0  0
   -6.5300   11.8201  -10.7355 C   0  0  0  0  0  0  0  0  0  0  0  0
   -7.7235   10.5758  -13.0283 C   0  0  0  0  0  0  0  0  0  0  0  0
   -6.9848   11.7731  -13.1297 C   0  0  0  0  0  0  0  0  0  0  0  0
   -7.8178   10.0121  -11.7526 C   0  0  0  0  0  0  0  0  0  0  0  0
   -7.2522   10.6205  -10.6098 C   0  0  0  0  0  0  0  0  0  0  0  0
   -7.6101    9.7439   -9.5117 C   0  0  0  0  0  0  0  0  0  0  0  0
   -8.2784    8.7249   -9.9778 N   0  0  0  0  0  0  0  0  0  0  0  0
   -8.4134    8.8570  -11.2978 N   0  0  0  0  0  0  0  0  0  0  0  0
   -7.3337    9.8935   -8.0288 C   0  0  0  0  0  0  0  0  0  0  0  0
   -4.4165   13.6746  -11.4876 N   0  0  0  0  0  0  0  0  0  0  0  0
   -5.5534   13.6276  -12.1919 C   0  0  0  0  0  0  0  0  0  0  0  0
   -5.9234   14.5178  -12.9405 O   0  0  0  0  0  0  0  0  0  0  0  0
   -5.9640   10.4853   -7.7356 C   0  0  0  0  0  0  0  0  0  0  0  0
   -4.8116    9.7640   -8.0536 C   0  0  0  0  0  0  0  0  0  0  0  0
   -3.5500   10.3127   -7.8058 C   0  0  0  0  0  0  0  0  0  0  0  0
   -3.4411   11.5873   -7.2364 C   0  0  0  0  0  0  0  0  0  0  0  0
   -4.5925   12.3023   -6.9174 C   0  0  0  0  0  0  0  0  0  0  0  0
   -5.8510   11.7510   -7.1622 C   0  0  0  0  0  0  0  0  0  0  0  0
   -2.0968   12.1763   -6.9669 C   0  0  0  0  0  0  0  0  0  0  0  0
   -1.7702   13.4221   -6.4317 C   0  0  0  0  0  0  0  0  0  0  0  0
   -0.4283   13.4864   -6.3849 N   0  0  0  0  0  0  0  0  0  0  0  0
    0.1730   12.4042   -6.8287 N   0  0  0  0  0  0  0  0  0  0  0  0
   -0.8019   11.5974   -7.2024 C   0  0  0  0  0  0  0  0  0  0  0  0
    0.3914   14.5951   -5.9029 C   0  0  0  0  0  0  0  0  0  0  0  0
   -6.1059   12.3069   -9.8697 H   0  0  0  0  0  0  0  0  0  0  0  0
   -8.1905   10.1197  -13.8887 H   0  0  0  0  0  0  0  0  0  0  0  0
   -6.8851   12.2475  -14.0948 H   0  0  0  0  0  0  0  0  0  0  0  0
   -8.6329    7.9657   -9.4320 H   0  0  0  0  0  0  0  0  0  0  0  0
   -8.1002   10.5520   -7.5942 H   0  0  0  0  0  0  0  0  0  0  0  0
   -7.3942    8.9006   -7.5592 H   0  0  0  0  0  0  0  0  0  0  0  0
   -3.8167   14.4716  -11.5590 H   0  0  0  0  0  0  0  0  0  0  0  0
   -4.1667   12.9127  -10.8899 H   0  0  0  0  0  0  0  0  0  0  0  0
   -4.8950    8.7804   -8.4918 H   0  0  0  0  0  0  0  0  0  0  0  0
   -2.6597    9.7538   -8.0534 H   0  0  0  0  0  0  0  0  0  0  0  0
   -4.5115   13.2861   -6.4794 H   0  0  0  0  0  0  0  0  0  0  0  0
   -6.7408   12.3071   -6.9064 H   0  0  0  0  0  0  0  0  0  0  0  0
   -2.4626   14.1882   -6.1155 H   0  0  0  0  0  0  0  0  0  0  0  0
   -0.6459   10.6195   -7.6335 H   0  0  0  0  0  0  0  0  0  0  0  0
    1.4555   14.3315   -5.9935 H   0  0  0  0  0  0  0  0  0  0  0  0
    0.1837   15.4928   -6.5038 H   0  0  0  0  0  0  0  0  0  0  0  0
    0.1522   14.7964   -4.8483 H   0  0  0  0  0  0  0  0  0  0  0  0
  1  2  2  0  0  0  0
  1  4  1  0  0  0  0
  1 12  1  0  0  0  0
  2  6  1  0  0  0  0
  3  4  2  0  0  0  0
  3  5  1  0  0  0  0
  5  6  1  0  0  0  0
  5  9  2  0  0  0  0
  6  7  2  0  0  0  0
  7  8  1  0  0  0  0
  7 10  1  0  0  0  0
  8  9  1  0  0  0  0
 10 14  1  0  0  0  0
 11 12  1  0  0  0  0
 12 13  2  0  0  0  0
 14 15  2  0  0  0  0
 14 19  1  0  0  0  0
 15 16  1  0  0  0  0
 16 17  2  0  0  0  0
 17 18  1  0  0  0  0
 17 20  1  0  0  0  0
 18 19  2  0  0  0  0
 20 21  2  0  0  0  0
 20 24  1  0  0  0  0
 21 22  1  0  0  0  0
 22 23  1  0  0  0  0
 22 25  1  0  0  0  0
 23 24  2  0  0  0  0
  2 26  1  0  0  0  0
  3 27  1  0  0  0  0
  4 28  1  0  0  0  0
  8 29  1  0  0  0  0
 10 30  1  0  0  0  0
 10 31  1  0  0  0  0
 11 32  1  0  0  0  0
 11 33  1  0  0  0  0
 15 34  1  0  0  0  0
 16 35  1  0  0  0  0
 18 36  1  0  0  0  0
 19 37  1  0  0  0  0
 21 38  1  0  0  0  0
 24 39  1  0  0  0  0
 25 40  1  0  0  0  0
 25 41  1  0  0  0  0
 25 42  1  0  0  0  0
M  END
> <Name>
32

> <IC50[uM]>
0.11

$$$$
32
  -OEChem-05192314333D
 Structure written by MMmdl.
 42 45  0     0  0  0  0  0  0999 V2000
   -6.3767   12.3649  -12.0150 C   0  0  0  0  0  0  0  0  0  0  0  0
   -6.5300   11.8201  -10.7355 C   0  0  0  0  0  0  0  0  0  0  0  0
   -7.7235   10.5758  -13.0283 C   0  0  0  0  0  0  0  0  0  0  0  0
   -6.9848   11.7731  -13.1297 C   0  0  0  0  0  0  0  0  0  0  0  0
   -7.8178   10.0121  -11.7526 C   0  0  0  0  0  0  0  0  0  0  0  0
   -7.2522   10.6205  -10.6098 C   0  0  0  0  0  0  0  0  0  0  0  0
   -7.6101    9.7439   -9.5117 C   0  0  0  0  0  0  0  0  0  0  0  0
   -8.2784    8.7249   -9.9778 N   0  0  0  0  0  0  0  0  0  0  0  0
   -8.4134    8.8570  -11.2978 N   0  0  0  0  0  0  0  0  0  0  0  0
   -7.3337    9.8935   -8.0288 C   0  0  0  0  0  0  0  0  0  0  0  0
   -4.4165   13.6746  -11.4876 N   0  0  0  0  0  0  0  0  0  0  0  0
   -5.5534   13.6276  -12.1919 C   0  0  0  0  0  0  0  0  0  0  0  0
   -5.9234   14.5178  -12.9405 O   0  0  0  0  0  0  0  0  0  0  0  0
   -5.9640   10.4853   -7.7356 C   0  0  0  0  0  0  0  0  0  0  0  0
   -4.8116    9.7640   -8.0536 C   0  0  0  0  0  0  0  0  0  0  0  0
   -3.5500   10.3127   -7.8058 C   0  0  0  0  0  0  0  0  0  0  0  0
   -3.4411   11.5873   -7.2364 C   0  0  0  0  0  0  0  0  0  0  0  0
   -4.5925   12.3023   -6.9174 C   0  0  0  0  0  0  0  0  0  0  0  0
   -5.8510   11.7510   -7.1622 C   0  0  0  0  0  0  0  0  0  0  0  0
   -2.0968   12.1763   -6.9669 C   0  0  0  0  0  0  0  0  0  0  0  0
   -1.7702   13.4221   -6.4317 C   0  0  0  0  0  0  0  0  0  0  0  0
   -0.4283   13.4864   -6.3849 N   0  0  0  0  0  0  0  0  0  0  0  0
    0.1730   12.4042   -6.8287 N   0  0  0  0  0  0  0  0  0  0  0  0
   -0.8019   11.5974   -7.2024 C   0  0  0  0  0  0  0  0  0  0  0  0
    0.3914   14.5951   -5.9029 C   0  0  0  0  0  0  0  0  0  0  0  0
   -6.1059   12.3069   -9.8697 H   0  0  0  0  0  0  0  0  0  0  0  0
   -8.1905   10.1197  -13.8887 H   0  0  0  0  0  0  0  0  0  0  0  0
   -6.8851   12.2475  -14.0948 H   0  0  0  0  0  0  0  0  0  0  0  0
   -8.8876    8.1998  -11.8837 H   0  0  0  0  0  0  0  0  0  0  0  0
   -8.1002   10.5520   -7.5942 H   0  0  0  0  0  0  0  0  0  0  0  0
   -7.3942    8.9006   -7.5592 H   0  0  0  0  0  0  0  0  0  0  0  0
   -3.8167   14.4716  -11.5590 H   0  0  0  0  0  0  0  0  0  0  0  0
   -4.1667   12.9127  -10.8899 H   0  0  0  0  0  0  0  0  0  0  0  0
   -4.8950    8.7804   -8.4918 H   0  0  0  0  0  0  0  0  0  0  0  0
   -2.6597    9.7538   -8.0534 H   0  0  0  0  0  0  0  0  0  0  0  0
   -4.5115   13.2861   -6.4794 H   0  0  0  0  0  0  0  0  0  0  0  0
   -6.7408   12.3071   -6.9064 H   0  0  0  0  0  0  0  0  0  0  0  0
   -2.4626   14.1882   -6.1155 H   0  0  0  0  0  0  0  0  0  0  0  0
   -0.6459   10.6195   -7.6335 H   0  0  0  0  0  0  0  0  0  0  0  0
    1.4555   14.3315   -5.9935 H   0  0  0  0  0  0  0  0  0  0  0  0
    0.1837   15.4928   -6.5038 H   0  0  0  0  0  0  0  0  0  0  0  0
    0.1522   14.7964   -4.8483 H   0  0  0  0  0  0  0  0  0  0  0  0
  1  2  2  0  0  0  0
  1  4  1  0  0  0  0
  1 12  1  0  0  0  0
  2  6  1  0  0  0  0
  3  4  2  0  0  0  0
  3  5  1  0  0  0  0
  5  6  2  0  0  0  0
  5  9  1  0  0  0  0
  6  7  1  0  0  0  0
  7  8  2  0  0  0  0
  7 10  1  0  0  0  0
  8  9  1  0  0  0  0
 10 14  1  0  0  0  0
 11 12  1  0  0  0  0
 12 13  2  0  0  0  0
 14 15  2  0  0  0  0
 14 19  1  0  0  0  0
 15 16  1  0  0  0  0
 16 17  2  0  0  0  0
 17 18  1  0  0  0  0
 17 20  1  0  0  0  0
 18 19  2  0  0  0  0
 20 21  2  0  0  0  0
 20 24  1  0  0  0  0
 21 22  1  0  0  0  0
 22 23  1  0  0  0  0
 22 25  1  0  0  0  0
 23 24  2  0  0  0  0
  2 26  1  0  0  0  0
  3 27  1  0  0  0  0
  4 28  1  0  0  0  0
  9 29  1  0  0  0  0
 10 30  1  0  0  0  0
 10 31  1  0  0  0  0
 11 32  1  0  0  0  0
 11 33  1  0  0  0  0
 15 34  1  0  0  0  0
 16 35  1  0  0  0  0
 18 36  1  0  0  0  0
 19 37  1  0  0  0  0
 21 38  1  0  0  0  0
 24 39  1  0  0  0  0
 25 40  1  0  0  0  0
 25 41  1  0  0  0  0
 25 42  1  0  0  0  0
M  END
> <Name>
32

> <IC50[uM]>
0.11

$$$$
32
  -OEChem-05192314333D
 Structure written by MMmdl.
 42 45  0     0  0  0  0  0  0999 V2000
   -6.3767   12.3649  -12.0150 C   0  0  0  0  0  0  0  0  0  0  0  0
   -6.5300   11.8201  -10.7355 C   0  0  0  0  0  0  0  0  0  0  0  0
   -7.7235   10.5758  -13.0283 C   0  0  0  0  0  0  0  0  0  0  0  0
   -6.9848   11.7731  -13.1297 C   0  0  0  0  0  0  0  0  0  0  0  0
   -7.8178   10.0121  -11.7526 C   0  0  0  0  0  0  0  0  0  0  0  0
   -7.2522   10.6205  -10.6098 C   0  0  0  0  0  0  0  0  0  0  0  0
   -7.6101    9.7439   -9.5117 C   0  0  0  0  0  0  0  0  0  0  0  0
   -8.2784    8.7249   -9.9778 N   0  0  0  0  0  0  0  0  0  0  0  0
   -8.4134    8.8570  -11.2978 N   0  0  0  0  0  0  0  0  0  0  0  0
   -7.3337    9.8935   -8.0288 C   0  0  0  0  0  0  0  0  0  0  0  0
   -4.4165   13.6746  -11.4876 N   0  0  0  0  0  0  0  0  0  0  0  0
   -5.5534   13.6276  -12.1919 C   0  0  0  0  0  0  0  0  0  0  0  0
   -5.9234   14.5178  -12.9405 O   0  0  0  0  0  0  0  0  0  0  0  0
   -5.9640   10.4853   -7.7356 C   0  0  0  0  0  0  0  0  0  0  0  0
   -4.8116    9.7640   -8.0536 C   0  0  0  0  0  0  0  0  0  0  0  0
   -3.5500   10.3127   -7.8058 C   0  0  0  0  0  0  0  0  0  0  0  0
   -3.4411   11.5873   -7.2364 C   0  0  0  0  0  0  0  0  0  0  0  0
   -4.5925   12.3023   -6.9174 C   0  0  0  0  0  0  0  0  0  0  0  0
   -5.8510   11.7510   -7.1622 C   0  0  0  0  0  0  0  0  0  0  0  0
   -2.0968   12.1763   -6.9669 C   0  0  0  0  0  0  0  0  0  0  0  0
   -1.7702   13.4221   -6.4317 C   0  0  0  0  0  0  0  0  0  0  0  0
   -0.4283   13.4864   -6.3849 N   0  0  0  0  0  0  0  0  0  0  0  0
    0.1730   12.4042   -6.8287 N   0  0  0  0  0  0  0  0  0  0  0  0
   -0.8019   11.5974   -7.2024 C   0  0  0  0  0  0  0  0  0  0  0  0
    0.3914   14.5951   -5.9029 C   0  0  0  0  0  0  0  0  0  0  0  0
   -6.1059   12.3069   -9.8697 H   0  0  0  0  0  0  0  0  0  0  0  0
   -8.1905   10.1197  -13.8887 H   0  0  0  0  0  0  0  0  0  0  0  0
   -6.8851   12.2475  -14.0948 H   0  0  0  0  0  0  0  0  0  0  0  0
   -8.6329    7.9657   -9.4320 H   0  0  0  0  0  0  0  0  0  0  0  0
   -8.1002   10.5520   -7.5942 H   0  0  0  0  0  0  0  0  0  0  0  0
   -7.3942    8.9006   -7.5592 H   0  0  0  0  0  0  0  0  0  0  0  0
   -3.9109   14.5222  -11.6486 H   0  0  0  0  0  0  0  0  0  0  0  0
   -5.2907   15.2263  -12.9277 H   0  0  0  0  0  0  0  0  0  0  0  0
   -4.8950    8.7804   -8.4918 H   0  0  0  0  0  0  0  0  0  0  0  0
   -2.6597    9.7538   -8.0534 H   0  0  0  0  0  0  0  0  0  0  0  0
   -4.5115   13.2861   -6.4794 H   0  0  0  0  0  0  0  0  0  0  0  0
   -6.7408   12.3071   -6.9064 H   0  0  0  0  0  0  0  0  0  0  0  0
   -2.4626   14.1882   -6.1155 H   0  0  0  0  0  0  0  0  0  0  0  0
   -0.6459   10.6195   -7.6335 H   0  0  0  0  0  0  0  0  0  0  0  0
    1.4555   14.3315   -5.9935 H   0  0  0  0  0  0  0  0  0  0  0  0
    0.1837   15.4928   -6.5038 H   0  0  0  0  0  0  0  0  0  0  0  0
    0.1522   14.7964   -4.8483 H   0  0  0  0  0  0  0  0  0  0  0  0
  1  2  2  0  0  0  0
  1  4  1  0  0  0  0
  1 12  1  0  0  0  0
  2  6  1  0  0  0  0
  3  4  2  0  0  0  0
  3  5  1  0  0  0  0
  5  6  1  0  0  0  0
  5  9  2  0  0  0  0
  6  7  2  0  0  0  0
  7  8  1  0  0  0  0
  7 10  1  0  0  0  0
  8  9  1  0  0  0  0
 10 14  1  0  0  0  0
 11 12  2  0  0  0  0
 12 13  1  0  0  0  0
 14 15  2  0  0  0  0
 14 19  1  0  0  0  0
 15 16  1  0  0  0  0
 16 17  2  0  0  0  0
 17 18  1  0  0  0  0
 17 20  1  0  0  0  0
 18 19  2  0  0  0  0
 20 21  2  0  0  0  0
 20 24  1  0  0  0  0
 21 22  1  0  0  0  0
 22 23  1  0  0  0  0
 22 25  1  0  0  0  0
 23 24  2  0  0  0  0
  2 26  1  0  0  0  0
  3 27  1  0  0  0  0
  4 28  1  0  0  0  0
  8 29  1  0  0  0  0
 10 30  1  0  0  0  0
 10 31  1  0  0  0  0
 11 32  1  0  0  0  0
 13 33  1  0  0  0  0
 15 34  1  0  0  0  0
 16 35  1  0  0  0  0
 18 36  1  0  0  0  0
 19 37  1  0  0  0  0
 21 38  1  0  0  0  0
 24 39  1  0  0  0  0
 25 40  1  0  0  0  0
 25 41  1  0  0  0  0
 25 42  1  0  0  0  0
M  END
> <Name>
32

> <IC50[uM]>
0.11

$$$$
32
  -OEChem-05192314333D
 Structure written by MMmdl.
 42 45  0     0  0  0  0  0  0999 V2000
   -6.3767   12.3649  -12.0150 C   0  0  0  0  0  0  0  0  0  0  0  0
   -6.5300   11.8201  -10.7355 C   0  0  0  0  0  0  0  0  0  0  0  0
   -7.7235   10.5758  -13.0283 C   0  0  0  0  0  0  0  0  0  0  0  0
   -6.9848   11.7731  -13.1297 C   0  0  0  0  0  0  0  0  0  0  0  0
   -7.8178   10.0121  -11.7526 C   0  0  0  0  0  0  0  0  0  0  0  0
   -7.2522   10.6205  -10.6098 C   0  0  0  0  0  0  0  0  0  0  0  0
   -7.6101    9.7439   -9.5117 C   0  0  0  0  0  0  0  0  0  0  0  0
   -8.2784    8.7249   -9.9778 N   0  0  0  0  0  0  0  0  0  0  0  0
   -8.4134    8.8570  -11.2978 N   0  0  0  0  0  0  0  0  0  0  0  0
   -7.3337    9.8935   -8.0288 C   0  0  0  0  0  0  0  0  0  0  0  0
   -4.4165   13.6746  -11.4876 N   0  0  0  0  0  0  0  0  0  0  0  0
   -5.5534   13.6276  -12.1919 C   0  0  0  0  0  0  0  0  0  0  0  0
   -5.9234   14.5178  -12.9405 O   0  0  0  0  0  0  0  0  0  0  0  0
   -5.9640   10.4853   -7.7356 C   0  0  0  0  0  0  0  0  0  0  0  0
   -4.8116    9.7640   -8.0536 C   0  0  0  0  0  0  0  0  0  0  0  0
   -3.5500   10.3127   -7.8058 C   0  0  0  0  0  0  0  0  0  0  0  0
   -3.4411   11.5873   -7.2364 C   0  0  0  0  0  0  0  0  0  0  0  0
   -4.5925   12.3023   -6.9174 C   0  0  0  0  0  0  0  0  0  0  0  0
   -5.8510   11.7510   -7.1622 C   0  0  0  0  0  0  0  0  0  0  0  0
   -2.0968   12.1763   -6.9669 C   0  0  0  0  0  0  0  0  0  0  0  0
   -1.7702   13.4221   -6.4317 C   0  0  0  0  0  0  0  0  0  0  0  0
   -0.4283   13.4864   -6.3849 N   0  0  0  0  0  0  0  0  0  0  0  0
    0.1730   12.4042   -6.8287 N   0  0  0  0  0  0  0  0  0  0  0  0
   -0.8019   11.5974   -7.2024 C   0  0  0  0  0  0  0  0  0  0  0  0
    0.3914   14.5951   -5.9029 C   0  0  0  0  0  0  0  0  0  0  0  0
   -6.1059   12.3069   -9.8697 H   0  0  0  0  0  0  0  0  0  0  0  0
   -8.1905   10.1197  -13.8887 H   0  0  0  0  0  0  0  0  0  0  0  0
   -6.8851   12.2475  -14.0948 H   0  0  0  0  0  0  0  0  0  0  0  0
   -8.8876    8.1998  -11.8837 H   0  0  0  0  0  0  0  0  0  0  0  0
   -8.1002   10.5520   -7.5942 H   0  0  0  0  0  0  0  0  0  0  0  0
   -7.3942    8.9006   -7.5592 H   0  0  0  0  0  0  0  0  0  0  0  0
   -3.9109   14.5222  -11.6486 H   0  0  0  0  0  0  0  0  0  0  0  0
   -5.2907   15.2263  -12.9277 H   0  0  0  0  0  0  0  0  0  0  0  0
   -4.8950    8.7804   -8.4918 H   0  0  0  0  0  0  0  0  0  0  0  0
   -2.6597    9.7538   -8.0534 H   0  0  0  0  0  0  0  0  0  0  0  0
   -4.5115   13.2861   -6.4794 H   0  0  0  0  0  0  0  0  0  0  0  0
   -6.7408   12.3071   -6.9064 H   0  0  0  0  0  0  0  0  0  0  0  0
   -2.4626   14.1882   -6.1155 H   0  0  0  0  0  0  0  0  0  0  0  0
   -0.6459   10.6195   -7.6335 H   0  0  0  0  0  0  0  0  0  0  0  0
    1.4555   14.3315   -5.9935 H   0  0  0  0  0  0  0  0  0  0  0  0
    0.1837   15.4928   -6.5038 H   0  0  0  0  0  0  0  0  0  0  0  0
    0.1522   14.7964   -4.8483 H   0  0  0  0  0  0  0  0  0  0  0  0
  1  2  2  0  0  0  0
  1  4  1  0  0  0  0
  1 12  1  0  0  0  0
  2  6  1  0  0  0  0
  3  4  2  0  0  0  0
  3  5  1  0  0  0  0
  5  6  2  0  0  0  0
  5  9  1  0  0  0  0
  6  7  1  0  0  0  0
  7  8  2  0  0  0  0
  7 10  1  0  0  0  0
  8  9  1  0  0  0  0
 10 14  1  0  0  0  0
 11 12  2  0  0  0  0
 12 13  1  0  0  0  0
 14 15  2  0  0  0  0
 14 19  1  0  0  0  0
 15 16  1  0  0  0  0
 16 17  2  0  0  0  0
 17 18  1  0  0  0  0
 17 20  1  0  0  0  0
 18 19  2  0  0  0  0
 20 21  2  0  0  0  0
 20 24  1  0  0  0  0
 21 22  1  0  0  0  0
 22 23  1  0  0  0  0
 22 25  1  0  0  0  0
 23 24  2  0  0  0  0
  2 26  1  0  0  0  0
  3 27  1  0  0  0  0
  4 28  1  0  0  0  0
  9 29  1  0  0  0  0
 10 30  1  0  0  0  0
 10 31  1  0  0  0  0
 11 32  1  0  0  0  0
 13 33  1  0  0  0  0
 15 34  1  0  0  0  0
 16 35  1  0  0  0  0
 18 36  1  0  0  0  0
 19 37  1  0  0  0  0
 21 38  1  0  0  0  0
 24 39  1  0  0  0  0
 25 40  1  0  0  0  0
 25 41  1  0  0  0  0
 25 42  1  0  0  0  0
M  END
> <Name>
32

> <IC50[uM]>
0.11

$$$$
32
  -OEChem-05192314333D
 Structure written by MMmdl.
 42 45  0     1  0  0  0  0  0999 V2000
   -6.3767   12.3649  -12.0150 C   0  0  0  0  0  0  0  0  0  0  0  0
   -6.5300   11.8201  -10.7355 C   0  0  0  0  0  0  0  0  0  0  0  0
   -7.7235   10.5758  -13.0283 C   0  0  0  0  0  0  0  0  0  0  0  0
   -6.9848   11.7731  -13.1297 C   0  0  0  0  0  0  0  0  0  0  0  0
   -7.8178   10.0121  -11.7526 C   0  0  0  0  0  0  0  0  0  0  0  0
   -7.2522   10.6205  -10.6098 C   0  0  0  0  0  0  0  0  0  0  0  0
   -7.6101    9.7439   -9.5117 C   0  0  3  0  0  0  0  0  0  0  0  0
   -8.2784    8.7249   -9.9778 N   0  0  0  0  0  0  0  0  0  0  0  0
   -8.4134    8.8570  -11.2978 N   0  0  0  0  0  0  0  0  0  0  0  0
   -7.3337    9.8935   -8.0288 C   0  0  0  0  0  0  0  0  0  0  0  0
   -4.4165   13.6746  -11.4876 N   0  0  0  0  0  0  0  0  0  0  0  0
   -5.5534   13.6276  -12.1919 C   0  0  0  0  0  0  0  0  0  0  0  0
   -5.9234   14.5178  -12.9405 O   0  0  0  0  0  0  0  0  0  0  0  0
   -5.9640   10.4853   -7.7356 C   0  0  0  0  0  0  0  0  0  0  0  0
   -4.8116    9.7640   -8.0536 C   0  0  0  0  0  0  0  0  0  0  0  0
   -3.5500   10.3127   -7.8058 C   0  0  0  0  0  0  0  0  0  0  0  0
   -3.4411   11.5873   -7.2364 C   0  0  0  0  0  0  0  0  0  0  0  0
   -4.5925   12.3023   -6.9174 C   0  0  0  0  0  0  0  0  0  0  0  0
   -5.8510   11.7510   -7.1622 C   0  0  0  0  0  0  0  0  0  0  0  0
   -2.0968   12.1763   -6.9669 C   0  0  0  0  0  0  0  0  0  0  0  0
   -1.7702   13.4221   -6.4317 C   0  0  0  0  0  0  0  0  0  0  0  0
   -0.4283   13.4864   -6.3849 N   0  0  0  0  0  0  0  0  0  0  0  0
    0.1730   12.4042   -6.8287 N   0  0  0  0  0  0  0  0  0  0  0  0
   -0.8019   11.5974   -7.2024 C   0  0  0  0  0  0  0  0  0  0  0  0
    0.3914   14.5951   -5.9029 C   0  0  0  0  0  0  0  0  0  0  0  0
   -6.1059   12.3069   -9.8697 H   0  0  0  0  0  0  0  0  0  0  0  0
   -8.1905   10.1197  -13.8887 H   0  0  0  0  0  0  0  0  0  0  0  0
   -6.8851   12.2475  -14.0948 H   0  0  0  0  0  0  0  0  0  0  0  0
   -6.6672    9.1915   -9.6375 H   0  0  0  0  0  0  0  0  0  0  0  0
   -8.1002   10.5520   -7.5942 H   0  0  0  0  0  0  0  0  0  0  0  0
   -7.3942    8.9006   -7.5592 H   0  0  0  0  0  0  0  0  0  0  0  0
   -3.8167   14.4716  -11.5590 H   0  0  0  0  0  0  0  0  0  0  0  0
   -4.1667   12.9127  -10.8899 H   0  0  0  0  0  0  0  0  0  0  0  0
   -4.8950    8.7804   -8.4918 H   0  0  0  0  0  0  0  0  0  0  0  0
   -2.6597    9.7538   -8.0534 H   0  0  0  0  0  0  0  0  0  0  0  0
   -4.5115   13.2861   -6.4794 H   0  0  0  0  0  0  0  0  0  0  0  0
   -6.7408   12.3071   -6.9064 H   0  0  0  0  0  0  0  0  0  0  0  0
   -2.4626   14.1882   -6.1155 H   0  0  0  0  0  0  0  0  0  0  0  0
   -0.6459   10.6195   -7.6335 H   0  0  0  0  0  0  0  0  0  0  0  0
    1.4555   14.3315   -5.9935 H   0  0  0  0  0  0  0  0  0  0  0  0
    0.1837   15.4928   -6.5038 H   0  0  0  0  0  0  0  0  0  0  0  0
    0.1522   14.7964   -4.8483 H   0  0  0  0  0  0  0  0  0  0  0  0
  1  2  2  0  0  0  0
  1  4  1  0  0  0  0
  1 12  1  0  0  0  0
  2  6  1  0  0  0  0
  3  4  2  0  0  0  0
  3  5  1  0  0  0  0
  5  6  2  0  0  0  0
  5  9  1  0  0  0  0
  6  7  1  0  0  0  0
  7  8  1  0  0  0  0
  7 10  1  0  0  0  0
  8  9  2  0  0  0  0
 10 14  1  0  0  0  0
 11 12  1  0  0  0  0
 12 13  2  0  0  0  0
 14 15  2  0  0  0  0
 14 19  1  0  0  0  0
 15 16  1  0  0  0  0
 16 17  2  0  0  0  0
 17 18  1  0  0  0  0
 17 20  1  0  0  0  0
 18 19  2  0  0  0  0
 20 21  2  0  0  0  0
 20 24  1  0  0  0  0
 21 22  1  0  0  0  0
 22 23  1  0  0  0  0
 22 25  1  0  0  0  0
 23 24  2  0  0  0  0
  2 26  1  0  0  0  0
  3 27  1  0  0  0  0
  4 28  1  0  0  0  0
  7 29  1  0  0  0  0
 10 30  1  0  0  0  0
 10 31  1  0  0  0  0
 11 32  1  0  0  0  0
 11 33  1  0  0  0  0
 15 34  1  0  0  0  0
 16 35  1  0  0  0  0
 18 36  1  0  0  0  0
 19 37  1  0  0  0  0
 21 38  1  0  0  0  0
 24 39  1  0  0  0  0
 25 40  1  0  0  0  0
 25 41  1  0  0  0  0
 25 42  1  0  0  0  0
M  END
> <Name>
32

> <IC50[uM]>
0.11

$$$$
32
  -OEChem-05192314333D
 Structure written by MMmdl.
 42 45  0     1  0  0  0  0  0999 V2000
   -6.3767   12.3649  -12.0150 C   0  0  0  0  0  0  0  0  0  0  0  0
   -6.5300   11.8201  -10.7355 C   0  0  0  0  0  0  0  0  0  0  0  0
   -7.7235   10.5758  -13.0283 C   0  0  0  0  0  0  0  0  0  0  0  0
   -6.9848   11.7731  -13.1297 C   0  0  0  0  0  0  0  0  0  0  0  0
   -7.8178   10.0121  -11.7526 C   0  0  0  0  0  0  0  0  0  0  0  0
   -7.2522   10.6205  -10.6098 C   0  0  0  0  0  0  0  0  0  0  0  0
   -7.6101    9.7439   -9.5117 C   0  0  3  0  0  0  0  0  0  0  0  0
   -8.2784    8.7249   -9.9778 N   0  0  0  0  0  0  0  0  0  0  0  0
   -8.4134    8.8570  -11.2978 N   0  0  0  0  0  0  0  0  0  0  0  0
   -7.3337    9.8935   -8.0288 C   0  0  0  0  0  0  0  0  0  0  0  0
   -4.4165   13.6746  -11.4876 N   0  0  0  0  0  0  0  0  0  0  0  0
   -5.5534   13.6276  -12.1919 C   0  0  0  0  0  0  0  0  0  0  0  0
   -5.9234   14.5178  -12.9405 O   0  0  0  0  0  0  0  0  0  0  0  0
   -5.9640   10.4853   -7.7356 C   0  0  0  0  0  0  0  0  0  0  0  0
   -4.8116    9.7640   -8.0536 C   0  0  0  0  0  0  0  0  0  0  0  0
   -3.5500   10.3127   -7.8058 C   0  0  0  0  0  0  0  0  0  0  0  0
   -3.4411   11.5873   -7.2364 C   0  0  0  0  0  0  0  0  0  0  0  0
   -4.5925   12.3023   -6.9174 C   0  0  0  0  0  0  0  0  0  0  0  0
   -5.8510   11.7510   -7.1622 C   0  0  0  0  0  0  0  0  0  0  0  0
   -2.0968   12.1763   -6.9669 C   0  0  0  0  0  0  0  0  0  0  0  0
   -1.7702   13.4221   -6.4317 C   0  0  0  0  0  0  0  0  0  0  0  0
   -0.4283   13.4864   -6.3849 N   0  0  0  0  0  0  0  0  0  0  0  0
    0.1730   12.4042   -6.8287 N   0  0  0  0  0  0  0  0  0  0  0  0
   -0.8019   11.5974   -7.2024 C   0  0  0  0  0  0  0  0  0  0  0  0
    0.3914   14.5951   -5.9029 C   0  0  0  0  0  0  0  0  0  0  0  0
   -6.1059   12.3069   -9.8697 H   0  0  0  0  0  0  0  0  0  0  0  0
   -8.1905   10.1197  -13.8887 H   0  0  0  0  0  0  0  0  0  0  0  0
   -6.8851   12.2475  -14.0948 H   0  0  0  0  0  0  0  0  0  0  0  0
   -6.6672    9.1915   -9.6375 H   0  0  0  0  0  0  0  0  0  0  0  0
   -8.1002   10.5520   -7.5942 H   0  0  0  0  0  0  0  0  0  0  0  0
   -7.3942    8.9006   -7.5592 H   0  0  0  0  0  0  0  0  0  0  0  0
   -3.9109   14.5222  -11.6486 H   0  0  0  0  0  0  0  0  0  0  0  0
   -5.2907   15.2263  -12.9277 H   0  0  0  0  0  0  0  0  0  0  0  0
   -4.8950    8.7804   -8.4918 H   0  0  0  0  0  0  0  0  0  0  0  0
   -2.6597    9.7538   -8.0534 H   0  0  0  0  0  0  0  0  0  0  0  0
   -4.5115   13.2861   -6.4794 H   0  0  0  0  0  0  0  0  0  0  0  0
   -6.7408   12.3071   -6.9064 H   0  0  0  0  0  0  0  0  0  0  0  0
   -2.4626   14.1882   -6.1155 H   0  0  0  0  0  0  0  0  0  0  0  0
   -0.6459   10.6195   -7.6335 H   0  0  0  0  0  0  0  0  0  0  0  0
    1.4555   14.3315   -5.9935 H   0  0  0  0  0  0  0  0  0  0  0  0
    0.1837   15.4928   -6.5038 H   0  0  0  0  0  0  0  0  0  0  0  0
    0.1522   14.7964   -4.8483 H   0  0  0  0  0  0  0  0  0  0  0  0
  1  2  2  0  0  0  0
  1  4  1  0  0  0  0
  1 12  1  0  0  0  0
  2  6  1  0  0  0  0
  3  4  2  0  0  0  0
  3  5  1  0  0  0  0
  5  6  2  0  0  0  0
  5  9  1  0  0  0  0
  6  7  1  0  0  0  0
  7  8  1  0  0  0  0
  7 10  1  0  0  0  0
  8  9  2  0  0  0  0
 10 14  1  0  0  0  0
 11 12  2  0  0  0  0
 12 13  1  0  0  0  0
 14 15  2  0  0  0  0
 14 19  1  0  0  0  0
 15 16  1  0  0  0  0
 16 17  2  0  0  0  0
 17 18  1  0  0  0  0
 17 20  1  0  0  0  0
 18 19  2  0  0  0  0
 20 21  2  0  0  0  0
 20 24  1  0  0  0  0
 21 22  1  0  0  0  0
 22 23  1  0  0  0  0
 22 25  1  0  0  0  0
 23 24  2  0  0  0  0
  2 26  1  0  0  0  0
  3 27  1  0  0  0  0
  4 28  1  0  0  0  0
  7 29  1  0  0  0  0
 10 30  1  0  0  0  0
 10 31  1  0  0  0  0
 11 32  1  0  0  0  0
 13 33  1  0  0  0  0
 15 34  1  0  0  0  0
 16 35  1  0  0  0  0
 18 36  1  0  0  0  0
 19 37  1  0  0  0  0
 21 38  1  0  0  0  0
 24 39  1  0  0  0  0
 25 40  1  0  0  0  0
 25 41  1  0  0  0  0
 25 42  1  0  0  0  0
M  END
> <Name>
32

> <IC50[uM]>
0.11

$$$$
32
  -OEChem-05192314333D
 Structure written by MMmdl.
 42 45  0     0  0  0  0  0  0999 V2000
   -6.3767   12.3649  -12.0150 C   0  0  0  0  0  0  0  0  0  0  0  0
   -6.5300   11.8201  -10.7355 C   0  0  0  0  0  0  0  0  0  0  0  0
   -7.7235   10.5758  -13.0283 C   0  0  0  0  0  0  0  0  0  0  0  0
   -6.9848   11.7731  -13.1297 C   0  0  0  0  0  0  0  0  0  0  0  0
   -7.8178   10.0121  -11.7526 C   0  0  0  0  0  0  0  0  0  0  0  0
   -7.2522   10.6205  -10.6098 C   0  0  0  0  0  0  0  0  0  0  0  0
   -7.6101    9.7439   -9.5117 C   0  0  0  0  0  0  0  0  0  0  0  0
   -8.2784    8.7249   -9.9778 N   0  0  0  0  0  0  0  0  0  0  0  0
   -8.4134    8.8570  -11.2978 N   0  0  0  0  0  0  0  0  0  0  0  0
   -7.3337    9.8935   -8.0288 C   0  0  0  0  0  0  0  0  0  0  0  0
   -4.4165   13.6746  -11.4876 N   0  0  0  0  0  0  0  0  0  0  0  0
   -5.5534   13.6276  -12.1919 C   0  0  0  0  0  0  0  0  0  0  0  0
   -5.9234   14.5178  -12.9405 O   0  0  0  0  0  0  0  0  0  0  0  0
   -5.9640   10.4853   -7.7356 C   0  0  0  0  0  0  0  0  0  0  0  0
   -4.8116    9.7640   -8.0536 C   0  0  0  0  0  0  0  0  0  0  0  0
   -3.5500   10.3127   -7.8058 C   0  0  0  0  0  0  0  0  0  0  0  0
   -3.4411   11.5873   -7.2364 C   0  0  0  0  0  0  0  0  0  0  0  0
   -4.5925   12.3023   -6.9174 C   0  0  0  0  0  0  0  0  0  0  0  0
   -5.8510   11.7510   -7.1622 C   0  0  0  0  0  0  0  0  0  0  0  0
   -2.0968   12.1763   -6.9669 C   0  0  0  0  0  0  0  0  0  0  0  0
   -1.7702   13.4221   -6.4317 C   0  0  0  0  0  0  0  0  0  0  0  0
   -0.4283   13.4864   -6.3849 N   0  0  0  0  0  0  0  0  0  0  0  0
    0.1730   12.4042   -6.8287 N   0  0  0  0  0  0  0  0  0  0  0  0
   -0.8019   11.5974   -7.2024 C   0  0  0  0  0  0  0  0  0  0  0  0
    0.3914   14.5951   -5.9029 C   0  0  0  0  0  0  0  0  0  0  0  0
   -6.1059   12.3069   -9.8697 H   0  0  0  0  0  0  0  0  0  0  0  0
   -8.1905   10.1197  -13.8887 H   0  0  0  0  0  0  0  0  0  0  0  0
   -6.8851   12.2475  -14.0948 H   0  0  0  0  0  0  0  0  0  0  0  0
   -7.7842    7.8795   -9.7749 H   0  0  0  0  0  0  0  0  0  0  0  0
   -9.3872    8.8827  -11.5239 H   0  0  0  0  0  0  0  0  0  0  0  0
   -8.0369    9.6092   -7.2600 H   0  0  0  0  0  0  0  0  0  0  0  0
   -3.8167   14.4716  -11.5590 H   0  0  0  0  0  0  0  0  0  0  0  0
   -4.1667   12.9127  -10.8899 H   0  0  0  0  0  0  0  0  0  0  0  0
   -4.8950    8.7804   -8.4918 H   0  0  0  0  0  0  0  0  0  0  0  0
   -2.6597    9.7538   -8.0534 H   0  0  0  0  0  0  0  0  0  0  0  0
   -4.5115   13.2861   -6.4794 H   0  0  0  0  0  0  0  0  0  0  0  0
   -6.7408   12.3071   -6.9064 H   0  0  0  0  0  0  0  0  0  0  0  0
   -2.4626   14.1882   -6.1155 H   0  0  0  0  0  0  0  0  0  0  0  0
   -0.6459   10.6195   -7.6335 H   0  0  0  0  0  0  0  0  0  0  0  0
    1.4555   14.3315   -5.9935 H   0  0  0  0  0  0  0  0  0  0  0  0
    0.1837   15.4928   -6.5038 H   0  0  0  0  0  0  0  0  0  0  0  0
    0.1522   14.7964   -4.8483 H   0  0  0  0  0  0  0  0  0  0  0  0
  1  2  2  0  0  0  0
  1  4  1  0  0  0  0
  1 12  1  0  0  0  0
  2  6  1  0  0  0  0
  3  4  2  0  0  0  0
  3  5  1  0  0  0  0
  5  6  2  0  0  0  0
  5  9  1  0  0  0  0
  6  7  1  0  0  0  0
  7  8  1  0  0  0  0
  7 10  2  3  0  0  0
  8  9  1  0  0  0  0
 10 14  1  0  0  0  0
 11 12  1  0  0  0  0
 12 13  2  0  0  0  0
 14 15  2  0  0  0  0
 14 19  1  0  0  0  0
 15 16  1  0  0  0  0
 16 17  2  0  0  0  0
 17 18  1  0  0  0  0
 17 20  1  0  0  0  0
 18 19  2  0  0  0  0
 20 21  2  0  0  0  0
 20 24  1  0  0  0  0
 21 22  1  0  0  0  0
 22 23  1  0  0  0  0
 22 25  1  0  0  0  0
 23 24  2  0  0  0  0
  2 26  1  0  0  0  0
  3 27  1  0  0  0  0
  4 28  1  0  0  0  0
  8 29  1  0  0  0  0
  9 30  1  0  0  0  0
 10 31  1  0  0  0  0
 11 32  1  0  0  0  0
 11 33  1  0  0  0  0
 15 34  1  0  0  0  0
 16 35  1  0  0  0  0
 18 36  1  0  0  0  0
 19 37  1  0  0  0  0
 21 38  1  0  0  0  0
 24 39  1  0  0  0  0
 25 40  1  0  0  0  0
 25 41  1  0  0  0  0
 25 42  1  0  0  0  0
M  END
> <Name>
32

> <IC50[uM]>
0.11

$$$$
32
  -OEChem-05192314333D
 Structure written by MMmdl.
 42 45  0     0  0  0  0  0  0999 V2000
   -6.3767   12.3649  -12.0150 C   0  0  0  0  0  0  0  0  0  0  0  0
   -6.5300   11.8201  -10.7355 C   0  0  0  0  0  0  0  0  0  0  0  0
   -7.7235   10.5758  -13.0283 C   0  0  0  0  0  0  0  0  0  0  0  0
   -6.9848   11.7731  -13.1297 C   0  0  0  0  0  0  0  0  0  0  0  0
   -7.8178   10.0121  -11.7526 C   0  0  0  0  0  0  0  0  0  0  0  0
   -7.2522   10.6205  -10.6098 C   0  0  0  0  0  0  0  0  0  0  0  0
   -7.6101    9.7439   -9.5117 C   0  0  0  0  0  0  0  0  0  0  0  0
   -8.2784    8.7249   -9.9778 N   0  0  0  0  0  0  0  0  0  0  0  0
   -8.4134    8.8570  -11.2978 N   0  0  0  0  0  0  0  0  0  0  0  0
   -7.3337    9.8935   -8.0288 C   0  0  0  0  0  0  0  0  0  0  0  0
   -4.4165   13.6746  -11.4876 N   0  0  0  0  0  0  0  0  0  0  0  0
   -5.5534   13.6276  -12.1919 C   0  0  0  0  0  0  0  0  0  0  0  0
   -5.9234   14.5178  -12.9405 O   0  0  0  0  0  0  0  0  0  0  0  0
   -5.9640   10.4853   -7.7356 C   0  0  0  0  0  0  0  0  0  0  0  0
   -4.8116    9.7640   -8.0536 C   0  0  0  0  0  0  0  0  0  0  0  0
   -3.5500   10.3127   -7.8058 C   0  0  0  0  0  0  0  0  0  0  0  0
   -3.4411   11.5873   -7.2364 C   0  0  0  0  0  0  0  0  0  0  0  0
   -4.5925   12.3023   -6.9174 C   0  0  0  0  0  0  0  0  0  0  0  0
   -5.8510   11.7510   -7.1622 C   0  0  0  0  0  0  0  0  0  0  0  0
   -2.0968   12.1763   -6.9669 C   0  0  0  0  0  0  0  0  0  0  0  0
   -1.7702   13.4221   -6.4317 C   0  0  0  0  0  0  0  0  0  0  0  0
   -0.4283   13.4864   -6.3849 N   0  0  0  0  0  0  0  0  0  0  0  0
    0.1730   12.4042   -6.8287 N   0  0  0  0  0  0  0  0  0  0  0  0
   -0.8019   11.5974   -7.2024 C   0  0  0  0  0  0  0  0  0  0  0  0
    0.3914   14.5951   -5.9029 C   0  0  0  0  0  0  0  0  0  0  0  0
   -6.1059   12.3069   -9.8697 H   0  0  0  0  0  0  0  0  0  0  0  0
   -8.1905   10.1197  -13.8887 H   0  0  0  0  0  0  0  0  0  0  0  0
   -6.8851   12.2475  -14.0948 H   0  0  0  0  0  0  0  0  0  0  0  0
   -7.7842    7.8795   -9.7749 H   0  0  0  0  0  0  0  0  0  0  0  0
   -9.3872    8.8827  -11.5239 H   0  0  0  0  0  0  0  0  0  0  0  0
   -8.0369    9.6092   -7.2600 H   0  0  0  0  0  0  0  0  0  0  0  0
   -3.9109   14.5222  -11.6486 H   0  0  0  0  0  0  0  0  0  0  0  0
   -5.2907   15.2263  -12.9277 H   0  0  0  0  0  0  0  0  0  0  0  0
   -4.8950    8.7804   -8.4918 H   0  0  0  0  0  0  0  0  0  0  0  0
   -2.6597    9.7538   -8.0534 H   0  0  0  0  0  0  0  0  0  0  0  0
   -4.5115   13.2861   -6.4794 H   0  0  0  0  0  0  0  0  0  0  0  0
   -6.7408   12.3071   -6.9064 H   0  0  0  0  0  0  0  0  0  0  0  0
   -2.4626   14.1882   -6.1155 H   0  0  0  0  0  0  0  0  0  0  0  0
   -0.6459   10.6195   -7.6335 H   0  0  0  0  0  0  0  0  0  0  0  0
    1.4555   14.3315   -5.9935 H   0  0  0  0  0  0  0  0  0  0  0  0
    0.1837   15.4928   -6.5038 H   0  0  0  0  0  0  0  0  0  0  0  0
    0.1522   14.7964   -4.8483 H   0  0  0  0  0  0  0  0  0  0  0  0
  1  2  2  0  0  0  0
  1  4  1  0  0  0  0
  1 12  1  0  0  0  0
  2  6  1  0  0  0  0
  3  4  2  0  0  0  0
  3  5  1  0  0  0  0
  5  6  2  0  0  0  0
  5  9  1  0  0  0  0
  6  7  1  0  0  0  0
  7  8  1  0  0  0  0
  7 10  2  3  0  0  0
  8  9  1  0  0  0  0
 10 14  1  0  0  0  0
 11 12  2  0  0  0  0
 12 13  1  0  0  0  0
 14 15  2  0  0  0  0
 14 19  1  0  0  0  0
 15 16  1  0  0  0  0
 16 17  2  0  0  0  0
 17 18  1  0  0  0  0
 17 20  1  0  0  0  0
 18 19  2  0  0  0  0
 20 21  2  0  0  0  0
 20 24  1  0  0  0  0
 21 22  1  0  0  0  0
 22 23  1  0  0  0  0
 22 25  1  0  0  0  0
 23 24  2  0  0  0  0
  2 26  1  0  0  0  0
  3 27  1  0  0  0  0
  4 28  1  0  0  0  0
  8 29  1  0  0  0  0
  9 30  1  0  0  0  0
 10 31  1  0  0  0  0
 11 32  1  0  0  0  0
 13 33  1  0  0  0  0
 15 34  1  0  0  0  0
 16 35  1  0  0  0  0
 18 36  1  0  0  0  0
 19 37  1  0  0  0  0
 21 38  1  0  0  0  0
 24 39  1  0  0  0  0
 25 40  1  0  0  0  0
 25 41  1  0  0  0  0
 25 42  1  0  0  0  0
M  END
> <Name>
32

> <IC50[uM]>
0.11

$$$$
32
  -OEChem-05192314333D
 Structure written by MMmdl.
 42 45  0     1  0  0  0  0  0999 V2000
   -6.3767   12.3649  -12.0150 C   0  0  3  0  0  0  0  0  0  0  0  0
   -6.5300   11.8201  -10.7355 C   0  0  0  0  0  0  0  0  0  0  0  0
   -7.7235   10.5758  -13.0283 C   0  0  0  0  0  0  0  0  0  0  0  0
   -6.9848   11.7731  -13.1297 C   0  0  0  0  0  0  0  0  0  0  0  0
   -7.8178   10.0121  -11.7526 C   0  0  0  0  0  0  0  0  0  0  0  0
   -7.2522   10.6205  -10.6098 C   0  0  0  0  0  0  0  0  0  0  0  0
   -7.6101    9.7439   -9.5117 C   0  0  0  0  0  0  0  0  0  0  0  0
   -8.2784    8.7249   -9.9778 N   0  0  0  0  0  0  0  0  0  0  0  0
   -8.4134    8.8570  -11.2978 N   0  0  0  0  0  0  0  0  0  0  0  0
   -7.3337    9.8935   -8.0288 C   0  0  0  0  0  0  0  0  0  0  0  0
   -4.4165   13.6746  -11.4876 N   0  0  0  0  0  0  0  0  0  0  0  0
   -5.5534   13.6276  -12.1919 C   0  0  0  0  0  0  0  0  0  0  0  0
   -5.9234   14.5178  -12.9405 O   0  0  0  0  0  0  0  0  0  0  0  0
   -5.9640   10.4853   -7.7356 C   0  0  0  0  0  0  0  0  0  0  0  0
   -4.8116    9.7640   -8.0536 C   0  0  0  0  0  0  0  0  0  0  0  0
   -3.5500   10.3127   -7.8058 C   0  0  0  0  0  0  0  0  0  0  0  0
   -3.4411   11.5873   -7.2364 C   0  0  0  0  0  0  0  0  0  0  0  0
   -4.5925   12.3023   -6.9174 C   0  0  0  0  0  0  0  0  0  0  0  0
   -5.8510   11.7510   -7.1622 C   0  0  0  0  0  0  0  0  0  0  0  0
   -2.0968   12.1763   -6.9669 C   0  0  0  0  0  0  0  0  0  0  0  0
   -1.7702   13.4221   -6.4317 C   0  0  0  0  0  0  0  0  0  0  0  0
   -0.4283   13.4864   -6.3849 N   0  0  0  0  0  0  0  0  0  0  0  0
    0.1730   12.4042   -6.8287 N   0  0  0  0  0  0  0  0  0  0  0  0
   -0.8019   11.5974   -7.2024 C   0  0  0  0  0  0  0  0  0  0  0  0
    0.3914   14.5951   -5.9029 C   0  0  0  0  0  0  0  0  0  0  0  0
   -5.4777   11.7513  -12.1737 H   0  0  0  0  0  0  0  0  0  0  0  0
   -6.1059   12.3069   -9.8697 H   0  0  0  0  0  0  0  0  0  0  0  0
   -8.1905   10.1197  -13.8887 H   0  0  0  0  0  0  0  0  0  0  0  0
   -6.8851   12.2475  -14.0948 H   0  0  0  0  0  0  0  0  0  0  0  0
   -8.6329    7.9657   -9.4320 H   0  0  0  0  0  0  0  0  0  0  0  0
   -8.0369    9.6092   -7.2600 H   0  0  0  0  0  0  0  0  0  0  0  0
   -3.8167   14.4716  -11.5590 H   0  0  0  0  0  0  0  0  0  0  0  0
   -4.1667   12.9127  -10.8899 H   0  0  0  0  0  0  0  0  0  0  0  0
   -4.8950    8.7804   -8.4918 H   0  0  0  0  0  0  0  0  0  0  0  0
   -2.6597    9.7538   -8.0534 H   0  0  0  0  0  0  0  0  0  0  0  0
   -4.5115   13.2861   -6.4794 H   0  0  0  0  0  0  0  0  0  0  0  0
   -6.7408   12.3071   -6.9064 H   0  0  0  0  0  0  0  0  0  0  0  0
   -2.4626   14.1882   -6.1155 H   0  0  0  0  0  0  0  0  0  0  0  0
   -0.6459   10.6195   -7.6335 H   0  0  0  0  0  0  0  0  0  0  0  0
    1.4555   14.3315   -5.9935 H   0  0  0  0  0  0  0  0  0  0  0  0
    0.1837   15.4928   -6.5038 H   0  0  0  0  0  0  0  0  0  0  0  0
    0.1522   14.7964   -4.8483 H   0  0  0  0  0  0  0  0  0  0  0  0
  1  2  1  0  0  0  0
  1  4  1  0  0  0  0
  1 12  1  0  0  0  0
  2  6  2  0  0  0  0
  3  4  2  0  0  0  0
  3  5  1  0  0  0  0
  5  6  1  0  0  0  0
  5  9  2  0  0  0  0
  6  7  1  0  0  0  0
  7  8  1  0  0  0  0
  7 10  2  3  0  0  0
  8  9  1  0  0  0  0
 10 14  1  0  0  0  0
 11 12  1  0  0  0  0
 12 13  2  0  0  0  0
 14 15  2  0  0  0  0
 14 19  1  0  0  0  0
 15 16  1  0  0  0  0
 16 17  2  0  0  0  0
 17 18  1  0  0  0  0
 17 20  1  0  0  0  0
 18 19  2  0  0  0  0
 20 21  2  0  0  0  0
 20 24  1  0  0  0  0
 21 22  1  0  0  0  0
 22 23  1  0  0  0  0
 22 25  1  0  0  0  0
 23 24  2  0  0  0  0
  1 26  1  0  0  0  0
  2 27  1  0  0  0  0
  3 28  1  0  0  0  0
  4 29  1  0  0  0  0
  8 30  1  0  0  0  0
 10 31  1  0  0  0  0
 11 32  1  0  0  0  0
 11 33  1  0  0  0  0
 15 34  1  0  0  0  0
 16 35  1  0  0  0  0
 18 36  1  0  0  0  0
 19 37  1  0  0  0  0
 21 38  1  0  0  0  0
 24 39  1  0  0  0  0
 25 40  1  0  0  0  0
 25 41  1  0  0  0  0
 25 42  1  0  0  0  0
M  END
> <Name>
32

> <IC50[uM]>
0.11

$$$$
32
  -OEChem-05192314333D
 Structure written by MMmdl.
 42 45  0     0  0  0  0  0  0999 V2000
   -6.3767   12.3649  -12.0150 C   0  0  0  0  0  0  0  0  0  0  0  0
   -6.5300   11.8201  -10.7355 C   0  0  0  0  0  0  0  0  0  0  0  0
   -7.7235   10.5758  -13.0283 C   0  0  0  0  0  0  0  0  0  0  0  0
   -6.9848   11.7731  -13.1297 C   0  0  0  0  0  0  0  0  0  0  0  0
   -7.8178   10.0121  -11.7526 C   0  0  0  0  0  0  0  0  0  0  0  0
   -7.2522   10.6205  -10.6098 C   0  0  0  0  0  0  0  0  0  0  0  0
   -7.6101    9.7439   -9.5117 C   0  0  0  0  0  0  0  0  0  0  0  0
   -8.2784    8.7249   -9.9778 N   0  0  0  0  0  0  0  0  0  0  0  0
   -8.4134    8.8570  -11.2978 N   0  0  0  0  0  0  0  0  0  0  0  0
   -7.3337    9.8935   -8.0288 C   0  0  0  0  0  0  0  0  0  0  0  0
   -4.4165   13.6746  -11.4876 N   0  0  0  0  0  0  0  0  0  0  0  0
   -5.5534   13.6276  -12.1919 C   0  0  0  0  0  0  0  0  0  0  0  0
   -5.9234   14.5178  -12.9405 O   0  0  0  0  0  0  0  0  0  0  0  0
   -5.9640   10.4853   -7.7356 C   0  0  0  0  0  0  0  0  0  0  0  0
   -4.8116    9.7640   -8.0536 C   0  0  0  0  0  0  0  0  0  0  0  0
   -3.5500   10.3127   -7.8058 C   0  0  0  0  0  0  0  0  0  0  0  0
   -3.4411   11.5873   -7.2364 C   0  0  0  0  0  0  0  0  0  0  0  0
   -4.5925   12.3023   -6.9174 C   0  0  0  0  0  0  0  0  0  0  0  0
   -5.8510   11.7510   -7.1622 C   0  0  0  0  0  0  0  0  0  0  0  0
   -2.0968   12.1763   -6.9669 C   0  0  0  0  0  0  0  0  0  0  0  0
   -1.7702   13.4221   -6.4317 C   0  0  0  0  0  0  0  0  0  0  0  0
   -0.4283   13.4864   -6.3849 N   0  0  0  0  0  0  0  0  0  0  0  0
    0.1730   12.4042   -6.8287 N   0  0  0  0  0  0  0  0  0  0  0  0
   -0.8019   11.5974   -7.2024 C   0  0  0  0  0  0  0  0  0  0  0  0
    0.3914   14.5951   -5.9029 C   0  0  0  0  0  0  0  0  0  0  0  0
   -6.1059   12.3069   -9.8697 H   0  0  0  0  0  0  0  0  0  0  0  0
   -8.7452   10.7816  -13.3800 H   0  0  0  0  0  0  0  0  0  0  0  0
   -7.2510    9.8336  -13.6885 H   0  0  0  0  0  0  0  0  0  0  0  0
   -6.8851   12.2475  -14.0948 H   0  0  0  0  0  0  0  0  0  0  0  0
   -8.6329    7.9657   -9.4320 H   0  0  0  0  0  0  0  0  0  0  0  0
   -8.0369    9.6092   -7.2600 H   0  0  0  0  0  0  0  0  0  0  0  0
   -3.8167   14.4716  -11.5590 H   0  0  0  0  0  0  0  0  0  0  0  0
   -4.1667   12.9127  -10.8899 H   0  0  0  0  0  0  0  0  0  0  0  0
   -4.8950    8.7804   -8.4918 H   0  0  0  0  0  0  0  0  0  0  0  0
   -2.6597    9.7538   -8.0534 H   0  0  0  0  0  0  0  0  0  0  0  0
   -4.5115   13.2861   -6.4794 H   0  0  0  0  0  0  0  0  0  0  0  0
   -6.7408   12.3071   -6.9064 H   0  0  0  0  0  0  0  0  0  0  0  0
   -2.4626   14.1882   -6.1155 H   0  0  0  0  0  0  0  0  0  0  0  0
   -0.6459   10.6195   -7.6335 H   0  0  0  0  0  0  0  0  0  0  0  0
    1.4555   14.3315   -5.9935 H   0  0  0  0  0  0  0  0  0  0  0  0
    0.1837   15.4928   -6.5038 H   0  0  0  0  0  0  0  0  0  0  0  0
    0.1522   14.7964   -4.8483 H   0  0  0  0  0  0  0  0  0  0  0  0
  1  2  1  0  0  0  0
  1  4  2  0  0  0  0
  1 12  1  0  0  0  0
  2  6  2  0  0  0  0
  3  4  1  0  0  0  0
  3  5  1  0  0  0  0
  5  6  1  0  0  0  0
  5  9  2  0  0  0  0
  6  7  1  0  0  0  0
  7  8  1  0  0  0  0
  7 10  2  3  0  0  0
  8  9  1  0  0  0  0
 10 14  1  0  0  0  0
 11 12  1  0  0  0  0
 12 13  2  0  0  0  0
 14 15  2  0  0  0  0
 14 19  1  0  0  0  0
 15 16  1  0  0  0  0
 16 17  2  0  0  0  0
 17 18  1  0  0  0  0
 17 20  1  0  0  0  0
 18 19  2  0  0  0  0
 20 21  2  0  0  0  0
 20 24  1  0  0  0  0
 21 22  1  0  0  0  0
 22 23  1  0  0  0  0
 22 25  1  0  0  0  0
 23 24  2  0  0  0  0
  2 26  1  0  0  0  0
  3 27  1  0  0  0  0
  3 28  1  0  0  0  0
  4 29  1  0  0  0  0
  8 30  1  0  0  0  0
 10 31  1  0  0  0  0
 11 32  1  0  0  0  0
 11 33  1  0  0  0  0
 15 34  1  0  0  0  0
 16 35  1  0  0  0  0
 18 36  1  0  0  0  0
 19 37  1  0  0  0  0
 21 38  1  0  0  0  0
 24 39  1  0  0  0  0
 25 40  1  0  0  0  0
 25 41  1  0  0  0  0
 25 42  1  0  0  0  0
M  END
> <Name>
32

> <IC50[uM]>
0.11

$$$$
32
  -OEChem-05192314333D
 Structure written by MMmdl.
 42 45  0     1  0  0  0  0  0999 V2000
   -6.3767   12.3649  -12.0150 C   0  0  3  0  0  0  0  0  0  0  0  0
   -6.5300   11.8201  -10.7355 C   0  0  0  0  0  0  0  0  0  0  0  0
   -7.7235   10.5758  -13.0283 C   0  0  0  0  0  0  0  0  0  0  0  0
   -6.9848   11.7731  -13.1297 C   0  0  0  0  0  0  0  0  0  0  0  0
   -7.8178   10.0121  -11.7526 C   0  0  0  0  0  0  0  0  0  0  0  0
   -7.2522   10.6205  -10.6098 C   0  0  0  0  0  0  0  0  0  0  0  0
   -7.6101    9.7439   -9.5117 C   0  0  0  0  0  0  0  0  0  0  0  0
   -8.2784    8.7249   -9.9778 N   0  0  0  0  0  0  0  0  0  0  0  0
   -8.4134    8.8570  -11.2978 N   0  0  0  0  0  0  0  0  0  0  0  0
   -7.3337    9.8935   -8.0288 C   0  0  0  0  0  0  0  0  0  0  0  0
   -4.4165   13.6746  -11.4876 N   0  0  0  0  0  0  0  0  0  0  0  0
   -5.5534   13.6276  -12.1919 C   0  0  0  0  0  0  0  0  0  0  0  0
   -5.9234   14.5178  -12.9405 O   0  0  0  0  0  0  0  0  0  0  0  0
   -5.9640   10.4853   -7.7356 C   0  0  0  0  0  0  0  0  0  0  0  0
   -4.8116    9.7640   -8.0536 C   0  0  0  0  0  0  0  0  0  0  0  0
   -3.5500   10.3127   -7.8058 C   0  0  0  0  0  0  0  0  0  0  0  0
   -3.4411   11.5873   -7.2364 C   0  0  0  0  0  0  0  0  0  0  0  0
   -4.5925   12.3023   -6.9174 C   0  0  0  0  0  0  0  0  0  0  0  0
   -5.8510   11.7510   -7.1622 C   0  0  0  0  0  0  0  0  0  0  0  0
   -2.0968   12.1763   -6.9669 C   0  0  0  0  0  0  0  0  0  0  0  0
   -1.7702   13.4221   -6.4317 C   0  0  0  0  0  0  0  0  0  0  0  0
   -0.4283   13.4864   -6.3849 N   0  0  0  0  0  0  0  0  0  0  0  0
    0.1730   12.4042   -6.8287 N   0  0  0  0  0  0  0  0  0  0  0  0
   -0.8019   11.5974   -7.2024 C   0  0  0  0  0  0  0  0  0  0  0  0
    0.3914   14.5951   -5.9029 C   0  0  0  0  0  0  0  0  0  0  0  0
   -5.4777   11.7513  -12.1737 H   0  0  0  0  0  0  0  0  0  0  0  0
   -6.1059   12.3069   -9.8697 H   0  0  0  0  0  0  0  0  0  0  0  0
   -8.1905   10.1197  -13.8887 H   0  0  0  0  0  0  0  0  0  0  0  0
   -6.8851   12.2475  -14.0948 H   0  0  0  0  0  0  0  0  0  0  0  0
   -8.6329    7.9657   -9.4320 H   0  0  0  0  0  0  0  0  0  0  0  0
   -8.0369    9.6092   -7.2600 H   0  0  0  0  0  0  0  0  0  0  0  0
   -3.9109   14.5222  -11.6486 H   0  0  0  0  0  0  0  0  0  0  0  0
   -5.2907   15.2263  -12.9277 H   0  0  0  0  0  0  0  0  0  0  0  0
   -4.8950    8.7804   -8.4918 H   0  0  0  0  0  0  0  0  0  0  0  0
   -2.6597    9.7538   -8.0534 H   0  0  0  0  0  0  0  0  0  0  0  0
   -4.5115   13.2861   -6.4794 H   0  0  0  0  0  0  0  0  0  0  0  0
   -6.7408   12.3071   -6.9064 H   0  0  0  0  0  0  0  0  0  0  0  0
   -2.4626   14.1882   -6.1155 H   0  0  0  0  0  0  0  0  0  0  0  0
   -0.6459   10.6195   -7.6335 H   0  0  0  0  0  0  0  0  0  0  0  0
    1.4555   14.3315   -5.9935 H   0  0  0  0  0  0  0  0  0  0  0  0
    0.1837   15.4928   -6.5038 H   0  0  0  0  0  0  0  0  0  0  0  0
    0.1522   14.7964   -4.8483 H   0  0  0  0  0  0  0  0  0  0  0  0
  1  2  1  0  0  0  0
  1  4  1  0  0  0  0
  1 12  1  0  0  0  0
  2  6  2  0  0  0  0
  3  4  2  0  0  0  0
  3  5  1  0  0  0  0
  5  6  1  0  0  0  0
  5  9  2  0  0  0  0
  6  7  1  0  0  0  0
  7  8  1  0  0  0  0
  7 10  2  3  0  0  0
  8  9  1  0  0  0  0
 10 14  1  0  0  0  0
 11 12  2  0  0  0  0
 12 13  1  0  0  0  0
 14 15  2  0  0  0  0
 14 19  1  0  0  0  0
 15 16  1  0  0  0  0
 16 17  2  0  0  0  0
 17 18  1  0  0  0  0
 17 20  1  0  0  0  0
 18 19  2  0  0  0  0
 20 21  2  0  0  0  0
 20 24  1  0  0  0  0
 21 22  1  0  0  0  0
 22 23  1  0  0  0  0
 22 25  1  0  0  0  0
 23 24  2  0  0  0  0
  1 26  1  0  0  0  0
  2 27  1  0  0  0  0
  3 28  1  0  0  0  0
  4 29  1  0  0  0  0
  8 30  1  0  0  0  0
 10 31  1  0  0  0  0
 11 32  1  0  0  0  0
 13 33  1  0  0  0  0
 15 34  1  0  0  0  0
 16 35  1  0  0  0  0
 18 36  1  0  0  0  0
 19 37  1  0  0  0  0
 21 38  1  0  0  0  0
 24 39  1  0  0  0  0
 25 40  1  0  0  0  0
 25 41  1  0  0  0  0
 25 42  1  0  0  0  0
M  END
> <Name>
32

> <IC50[uM]>
0.11

$$$$
32
  -OEChem-05192314333D
 Structure written by MMmdl.
 42 45  0     0  0  0  0  0  0999 V2000
   -6.3767   12.3649  -12.0150 C   0  0  0  0  0  0  0  0  0  0  0  0
   -6.5300   11.8201  -10.7355 C   0  0  0  0  0  0  0  0  0  0  0  0
   -7.7235   10.5758  -13.0283 C   0  0  0  0  0  0  0  0  0  0  0  0
   -6.9848   11.7731  -13.1297 C   0  0  0  0  0  0  0  0  0  0  0  0
   -7.8178   10.0121  -11.7526 C   0  0  0  0  0  0  0  0  0  0  0  0
   -7.2522   10.6205  -10.6098 C   0  0  0  0  0  0  0  0  0  0  0  0
   -7.6101    9.7439   -9.5117 C   0  0  0  0  0  0  0  0  0  0  0  0
   -8.2784    8.7249   -9.9778 N   0  0  0  0  0  0  0  0  0  0  0  0
   -8.4134    8.8570  -11.2978 N   0  0  0  0  0  0  0  0  0  0  0  0
   -7.3337    9.8935   -8.0288 C   0  0  0  0  0  0  0  0  0  0  0  0
   -4.4165   13.6746  -11.4876 N   0  0  0  0  0  0  0  0  0  0  0  0
   -5.5534   13.6276  -12.1919 C   0  0  0  0  0  0  0  0  0  0  0  0
   -5.9234   14.5178  -12.9405 O   0  0  0  0  0  0  0  0  0  0  0  0
   -5.9640   10.4853   -7.7356 C   0  0  0  0  0  0  0  0  0  0  0  0
   -4.8116    9.7640   -8.0536 C   0  0  0  0  0  0  0  0  0  0  0  0
   -3.5500   10.3127   -7.8058 C   0  0  0  0  0  0  0  0  0  0  0  0
   -3.4411   11.5873   -7.2364 C   0  0  0  0  0  0  0  0  0  0  0  0
   -4.5925   12.3023   -6.9174 C   0  0  0  0  0  0  0  0  0  0  0  0
   -5.8510   11.7510   -7.1622 C   0  0  0  0  0  0  0  0  0  0  0  0
   -2.0968   12.1763   -6.9669 C   0  0  0  0  0  0  0  0  0  0  0  0
   -1.7702   13.4221   -6.4317 C   0  0  0  0  0  0  0  0  0  0  0  0
   -0.4283   13.4864   -6.3849 N   0  0  0  0  0  0  0  0  0  0  0  0
    0.1730   12.4042   -6.8287 N   0  0  0  0  0  0  0  0  0  0  0  0
   -0.8019   11.5974   -7.2024 C   0  0  0  0  0  0  0  0  0  0  0  0
    0.3914   14.5951   -5.9029 C   0  0  0  0  0  0  0  0  0  0  0  0
   -6.1059   12.3069   -9.8697 H   0  0  0  0  0  0  0  0  0  0  0  0
   -8.7452   10.7816  -13.3800 H   0  0  0  0  0  0  0  0  0  0  0  0
   -7.2510    9.8336  -13.6885 H   0  0  0  0  0  0  0  0  0  0  0  0
   -6.8851   12.2475  -14.0948 H   0  0  0  0  0  0  0  0  0  0  0  0
   -8.6329    7.9657   -9.4320 H   0  0  0  0  0  0  0  0  0  0  0  0
   -8.0369    9.6092   -7.2600 H   0  0  0  0  0  0  0  0  0  0  0  0
   -3.9109   14.5222  -11.6486 H   0  0  0  0  0  0  0  0  0  0  0  0
   -5.2907   15.2263  -12.9277 H   0  0  0  0  0  0  0  0  0  0  0  0
   -4.8950    8.7804   -8.4918 H   0  0  0  0  0  0  0  0  0  0  0  0
   -2.6597    9.7538   -8.0534 H   0  0  0  0  0  0  0  0  0  0  0  0
   -4.5115   13.2861   -6.4794 H   0  0  0  0  0  0  0  0  0  0  0  0
   -6.7408   12.3071   -6.9064 H   0  0  0  0  0  0  0  0  0  0  0  0
   -2.4626   14.1882   -6.1155 H   0  0  0  0  0  0  0  0  0  0  0  0
   -0.6459   10.6195   -7.6335 H   0  0  0  0  0  0  0  0  0  0  0  0
    1.4555   14.3315   -5.9935 H   0  0  0  0  0  0  0  0  0  0  0  0
    0.1837   15.4928   -6.5038 H   0  0  0  0  0  0  0  0  0  0  0  0
    0.1522   14.7964   -4.8483 H   0  0  0  0  0  0  0  0  0  0  0  0
  1  2  1  0  0  0  0
  1  4  2  0  0  0  0
  1 12  1  0  0  0  0
  2  6  2  0  0  0  0
  3  4  1  0  0  0  0
  3  5  1  0  0  0  0
  5  6  1  0  0  0  0
  5  9  2  0  0  0  0
  6  7  1  0  0  0  0
  7  8  1  0  0  0  0
  7 10  2  3  0  0  0
  8  9  1  0  0  0  0
 10 14  1  0  0  0  0
 11 12  2  0  0  0  0
 12 13  1  0  0  0  0
 14 15  2  0  0  0  0
 14 19  1  0  0  0  0
 15 16  1  0  0  0  0
 16 17  2  0  0  0  0
 17 18  1  0  0  0  0
 17 20  1  0  0  0  0
 18 19  2  0  0  0  0
 20 21  2  0  0  0  0
 20 24  1  0  0  0  0
 21 22  1  0  0  0  0
 22 23  1  0  0  0  0
 22 25  1  0  0  0  0
 23 24  2  0  0  0  0
  2 26  1  0  0  0  0
  3 27  1  0  0  0  0
  3 28  1  0  0  0  0
  4 29  1  0  0  0  0
  8 30  1  0  0  0  0
 10 31  1  0  0  0  0
 11 32  1  0  0  0  0
 13 33  1  0  0  0  0
 15 34  1  0  0  0  0
 16 35  1  0  0  0  0
 18 36  1  0  0  0  0
 19 37  1  0  0  0  0
 21 38  1  0  0  0  0
 24 39  1  0  0  0  0
 25 40  1  0  0  0  0
 25 41  1  0  0  0  0
 25 42  1  0  0  0  0
M  END
> <Name>
32

> <IC50[uM]>
0.11

$$$$
32
  -OEChem-05192314333D
 Structure written by MMmdl.
 42 45  0     1  0  0  0  0  0999 V2000
   -6.3767   12.3649  -12.0150 C   0  0  0  0  0  0  0  0  0  0  0  0
   -6.5300   11.8201  -10.7355 C   0  0  0  0  0  0  0  0  0  0  0  0
   -7.7235   10.5758  -13.0283 C   0  0  0  0  0  0  0  0  0  0  0  0
   -6.9848   11.7731  -13.1297 C   0  0  0  0  0  0  0  0  0  0  0  0
   -7.8178   10.0121  -11.7526 C   0  0  0  0  0  0  0  0  0  0  0  0
   -7.2522   10.6205  -10.6098 C   0  0  0  0  0  0  0  0  0  0  0  0
   -7.6101    9.7439   -9.5117 C   0  0  0  0  0  0  0  0  0  0  0  0
   -8.2784    8.7249   -9.9778 N   0  0  0  0  0  0  0  0  0  0  0  0
   -8.4134    8.8570  -11.2978 N   0  0  0  0  0  0  0  0  0  0  0  0
   -7.3337    9.8935   -8.0288 C   0  0  0  0  0  0  0  0  0  0  0  0
   -4.4165   13.6746  -11.4876 N   0  0  0  0  0  0  0  0  0  0  0  0
   -5.5534   13.6276  -12.1919 C   0  0  0  0  0  0  0  0  0  0  0  0
   -5.9234   14.5178  -12.9405 O   0  0  0  0  0  0  0  0  0  0  0  0
   -5.9640   10.4853   -7.7356 C   0  0  0  0  0  0  0  0  0  0  0  0
   -4.8116    9.7640   -8.0536 C   0  0  0  0  0  0  0  0  0  0  0  0
   -3.5500   10.3127   -7.8058 C   0  0  0  0  0  0  0  0  0  0  0  0
   -3.4411   11.5873   -7.2364 C   0  0  0  0  0  0  0  0  0  0  0  0
   -4.5925   12.3023   -6.9174 C   0  0  0  0  0  0  0  0  0  0  0  0
   -5.8510   11.7510   -7.1622 C   0  0  0  0  0  0  0  0  0  0  0  0
   -2.0968   12.1763   -6.9669 C   0  0  0  0  0  0  0  0  0  0  0  0
   -1.7702   13.4221   -6.4317 C   0  0  0  0  0  0  0  0  0  0  0  0
   -0.4283   13.4864   -6.3849 N   0  0  3  0  0  0  0  0  0  0  0  0
    0.1730   12.4042   -6.8287 N   0  0  0  0  0  0  0  0  0  0  0  0
   -0.8019   11.5974   -7.2024 C   0  0  0  0  0  0  0  0  0  0  0  0
    0.3914   14.5951   -5.9029 C   0  0  0  0  0  0  0  0  0  0  0  0
   -6.1059   12.3069   -9.8697 H   0  0  0  0  0  0  0  0  0  0  0  0
   -8.1905   10.1197  -13.8887 H   0  0  0  0  0  0  0  0  0  0  0  0
   -6.8851   12.2475  -14.0948 H   0  0  0  0  0  0  0  0  0  0  0  0
   -8.6329    7.9657   -9.4320 H   0  0  0  0  0  0  0  0  0  0  0  0
   -8.0369    9.6092   -7.2600 H   0  0  0  0  0  0  0  0  0  0  0  0
   -3.8167   14.4716  -11.5590 H   0  0  0  0  0  0  0  0  0  0  0  0
   -4.1667   12.9127  -10.8899 H   0  0  0  0  0  0  0  0  0  0  0  0
   -4.8950    8.7804   -8.4918 H   0  0  0  0  0  0  0  0  0  0  0  0
   -2.6597    9.7538   -8.0534 H   0  0  0  0  0  0  0  0  0  0  0  0
   -4.5115   13.2861   -6.4794 H   0  0  0  0  0  0  0  0  0  0  0  0
   -6.7408   12.3071   -6.9064 H   0  0  0  0  0  0  0  0  0  0  0  0
   -2.1654   14.2245   -7.0720 H   0  0  0  0  0  0  0  0  0  0  0  0
   -2.1893   13.5208   -5.4195 H   0  0  0  0  0  0  0  0  0  0  0  0
   -0.6459   10.6195   -7.6335 H   0  0  0  0  0  0  0  0  0  0  0  0
    1.4555   14.3315   -5.9935 H   0  0  0  0  0  0  0  0  0  0  0  0
    0.1837   15.4928   -6.5038 H   0  0  0  0  0  0  0  0  0  0  0  0
    0.1522   14.7964   -4.8483 H   0  0  0  0  0  0  0  0  0  0  0  0
  1  2  2  0  0  0  0
  1  4  1  0  0  0  0
  1 12  1  0  0  0  0
  2  6  1  0  0  0  0
  3  4  2  0  0  0  0
  3  5  1  0  0  0  0
  5  6  1  0  0  0  0
  5  9  2  0  0  0  0
  6  7  2  0  0  0  0
  7  8  1  0  0  0  0
  7 10  1  0  0  0  0
  8  9  1  0  0  0  0
 10 14  2  0  0  0  0
 11 12  1  0  0  0  0
 12 13  2  0  0  0  0
 14 15  1  0  0  0  0
 14 19  1  0  0  0  0
 15 16  2  0  0  0  0
 16 17  1  0  0  0  0
 17 18  1  0  0  0  0
 17 20  2  0  0  0  0
 18 19  2  0  0  0  0
 20 21  1  0  0  0  0
 20 24  1  0  0  0  0
 21 22  1  0  0  0  0
 22 23  1  0  0  0  0
 22 25  1  0  0  0  0
 23 24  2  0  0  0  0
  2 26  1  0  0  0  0
  3 27  1  0  0  0  0
  4 28  1  0  0  0  0
  8 29  1  0  0  0  0
 10 30  1  0  0  0  0
 11 31  1  0  0  0  0
 11 32  1  0  0  0  0
 15 33  1  0  0  0  0
 16 34  1  0  0  0  0
 18 35  1  0  0  0  0
 19 36  1  0  0  0  0
 21 37  1  0  0  0  0
 21 38  1  0  0  0  0
 24 39  1  0  0  0  0
 25 40  1  0  0  0  0
 25 41  1  0  0  0  0
 25 42  1  0  0  0  0
M  END
> <Name>
32

> <IC50[uM]>
0.11

$$$$
32
  -OEChem-05192314333D
 Structure written by MMmdl.
 42 45  0     1  0  0  0  0  0999 V2000
   -6.3767   12.3649  -12.0150 C   0  0  0  0  0  0  0  0  0  0  0  0
   -6.5300   11.8201  -10.7355 C   0  0  0  0  0  0  0  0  0  0  0  0
   -7.7235   10.5758  -13.0283 C   0  0  0  0  0  0  0  0  0  0  0  0
   -6.9848   11.7731  -13.1297 C   0  0  0  0  0  0  0  0  0  0  0  0
   -7.8178   10.0121  -11.7526 C   0  0  0  0  0  0  0  0  0  0  0  0
   -7.2522   10.6205  -10.6098 C   0  0  0  0  0  0  0  0  0  0  0  0
   -7.6101    9.7439   -9.5117 C   0  0  0  0  0  0  0  0  0  0  0  0
   -8.2784    8.7249   -9.9778 N   0  0  0  0  0  0  0  0  0  0  0  0
   -8.4134    8.8570  -11.2978 N   0  0  0  0  0  0  0  0  0  0  0  0
   -7.3337    9.8935   -8.0288 C   0  0  0  0  0  0  0  0  0  0  0  0
   -4.4165   13.6746  -11.4876 N   0  0  0  0  0  0  0  0  0  0  0  0
   -5.5534   13.6276  -12.1919 C   0  0  0  0  0  0  0  0  0  0  0  0
   -5.9234   14.5178  -12.9405 O   0  0  0  0  0  0  0  0  0  0  0  0
   -5.9640   10.4853   -7.7356 C   0  0  0  0  0  0  0  0  0  0  0  0
   -4.8116    9.7640   -8.0536 C   0  0  0  0  0  0  0  0  0  0  0  0
   -3.5500   10.3127   -7.8058 C   0  0  0  0  0  0  0  0  0  0  0  0
   -3.4411   11.5873   -7.2364 C   0  0  0  0  0  0  0  0  0  0  0  0
   -4.5925   12.3023   -6.9174 C   0  0  0  0  0  0  0  0  0  0  0  0
   -5.8510   11.7510   -7.1622 C   0  0  0  0  0  0  0  0  0  0  0  0
   -2.0968   12.1763   -6.9669 C   0  0  0  0  0  0  0  0  0  0  0  0
   -1.7702   13.4221   -6.4317 C   0  0  0  0  0  0  0  0  0  0  0  0
   -0.4283   13.4864   -6.3849 N   0  0  3  0  0  0  0  0  0  0  0  0
    0.1730   12.4042   -6.8287 N   0  0  0  0  0  0  0  0  0  0  0  0
   -0.8019   11.5974   -7.2024 C   0  0  0  0  0  0  0  0  0  0  0  0
    0.3914   14.5951   -5.9029 C   0  0  0  0  0  0  0  0  0  0  0  0
   -6.1059   12.3069   -9.8697 H   0  0  0  0  0  0  0  0  0  0  0  0
   -8.1905   10.1197  -13.8887 H   0  0  0  0  0  0  0  0  0  0  0  0
   -6.8851   12.2475  -14.0948 H   0  0  0  0  0  0  0  0  0  0  0  0
   -8.8876    8.1998  -11.8837 H   0  0  0  0  0  0  0  0  0  0  0  0
   -8.0369    9.6092   -7.2600 H   0  0  0  0  0  0  0  0  0  0  0  0
   -3.8167   14.4716  -11.5590 H   0  0  0  0  0  0  0  0  0  0  0  0
   -4.1667   12.9127  -10.8899 H   0  0  0  0  0  0  0  0  0  0  0  0
   -4.8950    8.7804   -8.4918 H   0  0  0  0  0  0  0  0  0  0  0  0
   -2.6597    9.7538   -8.0534 H   0  0  0  0  0  0  0  0  0  0  0  0
   -4.5115   13.2861   -6.4794 H   0  0  0  0  0  0  0  0  0  0  0  0
   -6.7408   12.3071   -6.9064 H   0  0  0  0  0  0  0  0  0  0  0  0
   -2.1654   14.2245   -7.0720 H   0  0  0  0  0  0  0  0  0  0  0  0
   -2.1893   13.5208   -5.4195 H   0  0  0  0  0  0  0  0  0  0  0  0
   -0.6459   10.6195   -7.6335 H   0  0  0  0  0  0  0  0  0  0  0  0
    1.4555   14.3315   -5.9935 H   0  0  0  0  0  0  0  0  0  0  0  0
    0.1837   15.4928   -6.5038 H   0  0  0  0  0  0  0  0  0  0  0  0
    0.1522   14.7964   -4.8483 H   0  0  0  0  0  0  0  0  0  0  0  0
  1  2  2  0  0  0  0
  1  4  1  0  0  0  0
  1 12  1  0  0  0  0
  2  6  1  0  0  0  0
  3  4  2  0  0  0  0
  3  5  1  0  0  0  0
  5  6  2  0  0  0  0
  5  9  1  0  0  0  0
  6  7  1  0  0  0  0
  7  8  2  0  0  0  0
  7 10  1  0  0  0  0
  8  9  1  0  0  0  0
 10 14  2  0  0  0  0
 11 12  1  0  0  0  0
 12 13  2  0  0  0  0
 14 15  1  0  0  0  0
 14 19  1  0  0  0  0
 15 16  2  0  0  0  0
 16 17  1  0  0  0  0
 17 18  1  0  0  0  0
 17 20  2  0  0  0  0
 18 19  2  0  0  0  0
 20 21  1  0  0  0  0
 20 24  1  0  0  0  0
 21 22  1  0  0  0  0
 22 23  1  0  0  0  0
 22 25  1  0  0  0  0
 23 24  2  0  0  0  0
  2 26  1  0  0  0  0
  3 27  1  0  0  0  0
  4 28  1  0  0  0  0
  9 29  1  0  0  0  0
 10 30  1  0  0  0  0
 11 31  1  0  0  0  0
 11 32  1  0  0  0  0
 15 33  1  0  0  0  0
 16 34  1  0  0  0  0
 18 35  1  0  0  0  0
 19 36  1  0  0  0  0
 21 37  1  0  0  0  0
 21 38  1  0  0  0  0
 24 39  1  0  0  0  0
 25 40  1  0  0  0  0
 25 41  1  0  0  0  0
 25 42  1  0  0  0  0
M  END
> <Name>
32

> <IC50[uM]>
0.11

$$$$
32
  -OEChem-05192314333D
 Structure written by MMmdl.
 42 45  0     1  0  0  0  0  0999 V2000
   -6.3767   12.3649  -12.0150 C   0  0  0  0  0  0  0  0  0  0  0  0
   -6.5300   11.8201  -10.7355 C   0  0  0  0  0  0  0  0  0  0  0  0
   -7.7235   10.5758  -13.0283 C   0  0  0  0  0  0  0  0  0  0  0  0
   -6.9848   11.7731  -13.1297 C   0  0  0  0  0  0  0  0  0  0  0  0
   -7.8178   10.0121  -11.7526 C   0  0  0  0  0  0  0  0  0  0  0  0
   -7.2522   10.6205  -10.6098 C   0  0  0  0  0  0  0  0  0  0  0  0
   -7.6101    9.7439   -9.5117 C   0  0  0  0  0  0  0  0  0  0  0  0
   -8.2784    8.7249   -9.9778 N   0  0  0  0  0  0  0  0  0  0  0  0
   -8.4134    8.8570  -11.2978 N   0  0  0  0  0  0  0  0  0  0  0  0
   -7.3337    9.8935   -8.0288 C   0  0  0  0  0  0  0  0  0  0  0  0
   -4.4165   13.6746  -11.4876 N   0  0  0  0  0  0  0  0  0  0  0  0
   -5.5534   13.6276  -12.1919 C   0  0  0  0  0  0  0  0  0  0  0  0
   -5.9234   14.5178  -12.9405 O   0  0  0  0  0  0  0  0  0  0  0  0
   -5.9640   10.4853   -7.7356 C   0  0  0  0  0  0  0  0  0  0  0  0
   -4.8116    9.7640   -8.0536 C   0  0  0  0  0  0  0  0  0  0  0  0
   -3.5500   10.3127   -7.8058 C   0  0  0  0  0  0  0  0  0  0  0  0
   -3.4411   11.5873   -7.2364 C   0  0  0  0  0  0  0  0  0  0  0  0
   -4.5925   12.3023   -6.9174 C   0  0  0  0  0  0  0  0  0  0  0  0
   -5.8510   11.7510   -7.1622 C   0  0  0  0  0  0  0  0  0  0  0  0
   -2.0968   12.1763   -6.9669 C   0  0  0  0  0  0  0  0  0  0  0  0
   -1.7702   13.4221   -6.4317 C   0  0  0  0  0  0  0  0  0  0  0  0
   -0.4283   13.4864   -6.3849 N   0  0  3  0  0  0  0  0  0  0  0  0
    0.1730   12.4042   -6.8287 N   0  0  0  0  0  0  0  0  0  0  0  0
   -0.8019   11.5974   -7.2024 C   0  0  0  0  0  0  0  0  0  0  0  0
    0.3914   14.5951   -5.9029 C   0  0  0  0  0  0  0  0  0  0  0  0
   -6.1059   12.3069   -9.8697 H   0  0  0  0  0  0  0  0  0  0  0  0
   -8.1905   10.1197  -13.8887 H   0  0  0  0  0  0  0  0  0  0  0  0
   -6.8851   12.2475  -14.0948 H   0  0  0  0  0  0  0  0  0  0  0  0
   -8.6329    7.9657   -9.4320 H   0  0  0  0  0  0  0  0  0  0  0  0
   -8.0369    9.6092   -7.2600 H   0  0  0  0  0  0  0  0  0  0  0  0
   -3.9109   14.5222  -11.6486 H   0  0  0  0  0  0  0  0  0  0  0  0
   -5.2907   15.2263  -12.9277 H   0  0  0  0  0  0  0  0  0  0  0  0
   -4.8950    8.7804   -8.4918 H   0  0  0  0  0  0  0  0  0  0  0  0
   -2.6597    9.7538   -8.0534 H   0  0  0  0  0  0  0  0  0  0  0  0
   -4.5115   13.2861   -6.4794 H   0  0  0  0  0  0  0  0  0  0  0  0
   -6.7408   12.3071   -6.9064 H   0  0  0  0  0  0  0  0  0  0  0  0
   -2.1654   14.2245   -7.0720 H   0  0  0  0  0  0  0  0  0  0  0  0
   -2.1893   13.5208   -5.4195 H   0  0  0  0  0  0  0  0  0  0  0  0
   -0.6459   10.6195   -7.6335 H   0  0  0  0  0  0  0  0  0  0  0  0
    1.4555   14.3315   -5.9935 H   0  0  0  0  0  0  0  0  0  0  0  0
    0.1837   15.4928   -6.5038 H   0  0  0  0  0  0  0  0  0  0  0  0
    0.1522   14.7964   -4.8483 H   0  0  0  0  0  0  0  0  0  0  0  0
  1  2  2  0  0  0  0
  1  4  1  0  0  0  0
  1 12  1  0  0  0  0
  2  6  1  0  0  0  0
  3  4  2  0  0  0  0
  3  5  1  0  0  0  0
  5  6  1  0  0  0  0
  5  9  2  0  0  0  0
  6  7  2  0  0  0  0
  7  8  1  0  0  0  0
  7 10  1  0  0  0  0
  8  9  1  0  0  0  0
 10 14  2  0  0  0  0
 11 12  2  0  0  0  0
 12 13  1  0  0  0  0
 14 15  1  0  0  0  0
 14 19  1  0  0  0  0
 15 16  2  0  0  0  0
 16 17  1  0  0  0  0
 17 18  1  0  0  0  0
 17 20  2  0  0  0  0
 18 19  2  0  0  0  0
 20 21  1  0  0  0  0
 20 24  1  0  0  0  0
 21 22  1  0  0  0  0
 22 23  1  0  0  0  0
 22 25  1  0  0  0  0
 23 24  2  0  0  0  0
  2 26  1  0  0  0  0
  3 27  1  0  0  0  0
  4 28  1  0  0  0  0
  8 29  1  0  0  0  0
 10 30  1  0  0  0  0
 11 31  1  0  0  0  0
 13 32  1  0  0  0  0
 15 33  1  0  0  0  0
 16 34  1  0  0  0  0
 18 35  1  0  0  0  0
 19 36  1  0  0  0  0
 21 37  1  0  0  0  0
 21 38  1  0  0  0  0
 24 39  1  0  0  0  0
 25 40  1  0  0  0  0
 25 41  1  0  0  0  0
 25 42  1  0  0  0  0
M  END
> <Name>
32

> <IC50[uM]>
0.11

$$$$
32
  -OEChem-05192314333D
 Structure written by MMmdl.
 42 45  0     1  0  0  0  0  0999 V2000
   -6.3767   12.3649  -12.0150 C   0  0  0  0  0  0  0  0  0  0  0  0
   -6.5300   11.8201  -10.7355 C   0  0  0  0  0  0  0  0  0  0  0  0
   -7.7235   10.5758  -13.0283 C   0  0  0  0  0  0  0  0  0  0  0  0
   -6.9848   11.7731  -13.1297 C   0  0  0  0  0  0  0  0  0  0  0  0
   -7.8178   10.0121  -11.7526 C   0  0  0  0  0  0  0  0  0  0  0  0
   -7.2522   10.6205  -10.6098 C   0  0  0  0  0  0  0  0  0  0  0  0
   -7.6101    9.7439   -9.5117 C   0  0  0  0  0  0  0  0  0  0  0  0
   -8.2784    8.7249   -9.9778 N   0  0  0  0  0  0  0  0  0  0  0  0
   -8.4134    8.8570  -11.2978 N   0  0  0  0  0  0  0  0  0  0  0  0
   -7.3337    9.8935   -8.0288 C   0  0  0  0  0  0  0  0  0  0  0  0
   -4.4165   13.6746  -11.4876 N   0  0  0  0  0  0  0  0  0  0  0  0
   -5.5534   13.6276  -12.1919 C   0  0  0  0  0  0  0  0  0  0  0  0
   -5.9234   14.5178  -12.9405 O   0  0  0  0  0  0  0  0  0  0  0  0
   -5.9640   10.4853   -7.7356 C   0  0  0  0  0  0  0  0  0  0  0  0
   -4.8116    9.7640   -8.0536 C   0  0  0  0  0  0  0  0  0  0  0  0
   -3.5500   10.3127   -7.8058 C   0  0  0  0  0  0  0  0  0  0  0  0
   -3.4411   11.5873   -7.2364 C   0  0  0  0  0  0  0  0  0  0  0  0
   -4.5925   12.3023   -6.9174 C   0  0  0  0  0  0  0  0  0  0  0  0
   -5.8510   11.7510   -7.1622 C   0  0  0  0  0  0  0  0  0  0  0  0
   -2.0968   12.1763   -6.9669 C   0  0  0  0  0  0  0  0  0  0  0  0
   -1.7702   13.4221   -6.4317 C   0  0  0  0  0  0  0  0  0  0  0  0
   -0.4283   13.4864   -6.3849 N   0  0  3  0  0  0  0  0  0  0  0  0
    0.1730   12.4042   -6.8287 N   0  0  0  0  0  0  0  0  0  0  0  0
   -0.8019   11.5974   -7.2024 C   0  0  0  0  0  0  0  0  0  0  0  0
    0.3914   14.5951   -5.9029 C   0  0  0  0  0  0  0  0  0  0  0  0
   -6.1059   12.3069   -9.8697 H   0  0  0  0  0  0  0  0  0  0  0  0
   -8.1905   10.1197  -13.8887 H   0  0  0  0  0  0  0  0  0  0  0  0
   -6.8851   12.2475  -14.0948 H   0  0  0  0  0  0  0  0  0  0  0  0
   -8.8876    8.1998  -11.8837 H   0  0  0  0  0  0  0  0  0  0  0  0
   -8.0369    9.6092   -7.2600 H   0  0  0  0  0  0  0  0  0  0  0  0
   -3.9109   14.5222  -11.6486 H   0  0  0  0  0  0  0  0  0  0  0  0
   -5.2907   15.2263  -12.9277 H   0  0  0  0  0  0  0  0  0  0  0  0
   -4.8950    8.7804   -8.4918 H   0  0  0  0  0  0  0  0  0  0  0  0
   -2.6597    9.7538   -8.0534 H   0  0  0  0  0  0  0  0  0  0  0  0
   -4.5115   13.2861   -6.4794 H   0  0  0  0  0  0  0  0  0  0  0  0
   -6.7408   12.3071   -6.9064 H   0  0  0  0  0  0  0  0  0  0  0  0
   -2.1654   14.2245   -7.0720 H   0  0  0  0  0  0  0  0  0  0  0  0
   -2.1893   13.5208   -5.4195 H   0  0  0  0  0  0  0  0  0  0  0  0
   -0.6459   10.6195   -7.6335 H   0  0  0  0  0  0  0  0  0  0  0  0
    1.4555   14.3315   -5.9935 H   0  0  0  0  0  0  0  0  0  0  0  0
    0.1837   15.4928   -6.5038 H   0  0  0  0  0  0  0  0  0  0  0  0
    0.1522   14.7964   -4.8483 H   0  0  0  0  0  0  0  0  0  0  0  0
  1  2  2  0  0  0  0
  1  4  1  0  0  0  0
  1 12  1  0  0  0  0
  2  6  1  0  0  0  0
  3  4  2  0  0  0  0
  3  5  1  0  0  0  0
  5  6  2  0  0  0  0
  5  9  1  0  0  0  0
  6  7  1  0  0  0  0
  7  8  2  0  0  0  0
  7 10  1  0  0  0  0
  8  9  1  0  0  0  0
 10 14  2  0  0  0  0
 11 12  2  0  0  0  0
 12 13  1  0  0  0  0
 14 15  1  0  0  0  0
 14 19  1  0  0  0  0
 15 16  2  0  0  0  0
 16 17  1  0  0  0  0
 17 18  1  0  0  0  0
 17 20  2  0  0  0  0
 18 19  2  0  0  0  0
 20 21  1  0  0  0  0
 20 24  1  0  0  0  0
 21 22  1  0  0  0  0
 22 23  1  0  0  0  0
 22 25  1  0  0  0  0
 23 24  2  0  0  0  0
  2 26  1  0  0  0  0
  3 27  1  0  0  0  0
  4 28  1  0  0  0  0
  9 29  1  0  0  0  0
 10 30  1  0  0  0  0
 11 31  1  0  0  0  0
 13 32  1  0  0  0  0
 15 33  1  0  0  0  0
 16 34  1  0  0  0  0
 18 35  1  0  0  0  0
 19 36  1  0  0  0  0
 21 37  1  0  0  0  0
 21 38  1  0  0  0  0
 24 39  1  0  0  0  0
 25 40  1  0  0  0  0
 25 41  1  0  0  0  0
 25 42  1  0  0  0  0
M  END
> <Name>
32

> <IC50[uM]>
0.11

$$$$
32
  -OEChem-05192314333D
 Structure written by MMmdl.
 42 45  0     0  0  0  0  0  0999 V2000
   -6.3767   12.3649  -12.0150 C   0  0  0  0  0  0  0  0  0  0  0  0
   -6.5300   11.8201  -10.7355 C   0  0  0  0  0  0  0  0  0  0  0  0
   -7.7235   10.5758  -13.0283 C   0  0  0  0  0  0  0  0  0  0  0  0
   -6.9848   11.7731  -13.1297 C   0  0  0  0  0  0  0  0  0  0  0  0
   -7.8178   10.0121  -11.7526 C   0  0  0  0  0  0  0  0  0  0  0  0
   -7.2522   10.6205  -10.6098 C   0  0  0  0  0  0  0  0  0  0  0  0
   -7.6101    9.7439   -9.5117 C   0  0  0  0  0  0  0  0  0  0  0  0
   -8.2784    8.7249   -9.9778 N   0  0  0  0  0  0  0  0  0  0  0  0
   -8.4134    8.8570  -11.2978 N   0  0  0  0  0  0  0  0  0  0  0  0
   -7.3337    9.8935   -8.0288 C   0  0  0  0  0  0  0  0  0  0  0  0
   -4.4165   13.6746  -11.4876 N   0  0  0  0  0  0  0  0  0  0  0  0
   -5.5534   13.6276  -12.1919 C   0  0  0  0  0  0  0  0  0  0  0  0
   -5.9234   14.5178  -12.9405 O   0  0  0  0  0  0  0  0  0  0  0  0
   -5.9640   10.4853   -7.7356 C   0  0  0  0  0  0  0  0  0  0  0  0
   -4.8116    9.7640   -8.0536 C   0  0  0  0  0  0  0  0  0  0  0  0
   -3.5500   10.3127   -7.8058 C   0  0  0  0  0  0  0  0  0  0  0  0
   -3.4411   11.5873   -7.2364 C   0  0  0  0  0  0  0  0  0  0  0  0
   -4.5925   12.3023   -6.9174 C   0  0  0  0  0  0  0  0  0  0  0  0
   -5.8510   11.7510   -7.1622 C   0  0  0  0  0  0  0  0  0  0  0  0
   -2.0968   12.1763   -6.9669 C   0  0  0  0  0  0  0  0  0  0  0  0
   -1.7702   13.4221   -6.4317 C   0  0  0  0  0  0  0  0  0  0  0  0
   -0.4283   13.4864   -6.3849 N   0  0  0  0  0  0  0  0  0  0  0  0
    0.1730   12.4042   -6.8287 N   0  0  0  0  0  0  0  0  0  0  0  0
   -0.8019   11.5974   -7.2024 C   0  0  0  0  0  0  0  0  0  0  0  0
    0.3914   14.5951   -5.9029 C   0  0  0  0  0  0  0  0  0  0  0  0
   -6.1059   12.3069   -9.8697 H   0  0  0  0  0  0  0  0  0  0  0  0
   -8.1905   10.1197  -13.8887 H   0  0  0  0  0  0  0  0  0  0  0  0
   -6.8851   12.2475  -14.0948 H   0  0  0  0  0  0  0  0  0  0  0  0
   -8.6329    7.9657   -9.4320 H   0  0  0  0  0  0  0  0  0  0  0  0
   -8.0369    9.6092   -7.2600 H   0  0  0  0  0  0  0  0  0  0  0  0
   -3.8167   14.4716  -11.5590 H   0  0  0  0  0  0  0  0  0  0  0  0
   -4.1667   12.9127  -10.8899 H   0  0  0  0  0  0  0  0  0  0  0  0
   -4.8950    8.7804   -8.4918 H   0  0  0  0  0  0  0  0  0  0  0  0
   -2.6597    9.7538   -8.0534 H   0  0  0  0  0  0  0  0  0  0  0  0
   -3.4383   12.0370   -8.2403 H   0  0  0  0  0  0  0  0  0  0  0  0
   -4.5115   13.2861   -6.4794 H   0  0  0  0  0  0  0  0  0  0  0  0
   -6.7408   12.3071   -6.9064 H   0  0  0  0  0  0  0  0  0  0  0  0
   -2.4626   14.1882   -6.1155 H   0  0  0  0  0  0  0  0  0  0  0  0
   -0.6459   10.6195   -7.6335 H   0  0  0  0  0  0  0  0  0  0  0  0
    1.4555   14.3315   -5.9935 H   0  0  0  0  0  0  0  0  0  0  0  0
    0.1837   15.4928   -6.5038 H   0  0  0  0  0  0  0  0  0  0  0  0
    0.1522   14.7964   -4.8483 H   0  0  0  0  0  0  0  0  0  0  0  0
  1  2  2  0  0  0  0
  1  4  1  0  0  0  0
  1 12  1  0  0  0  0
  2  6  1  0  0  0  0
  3  4  2  0  0  0  0
  3  5  1  0  0  0  0
  5  6  1  0  0  0  0
  5  9  2  0  0  0  0
  6  7  2  0  0  0  0
  7  8  1  0  0  0  0
  7 10  1  0  0  0  0
  8  9  1  0  0  0  0
 10 14  2  0  0  0  0
 11 12  1  0  0  0  0
 12 13  2  0  0  0  0
 14 15  1  0  0  0  0
 14 19  1  0  0  0  0
 15 16  2  0  0  0  0
 16 17  1  0  0  0  0
 17 18  1  0  0  0  0
 17 20  1  0  0  0  0
 18 19  2  0  0  0  0
 20 21  2  0  0  0  0
 20 24  1  0  0  0  0
 21 22  1  0  0  0  0
 22 23  1  0  0  0  0
 22 25  1  0  0  0  0
 23 24  2  0  0  0  0
  2 26  1  0  0  0  0
  3 27  1  0  0  0  0
  4 28  1  0  0  0  0
  8 29  1  0  0  0  0
 10 30  1  0  0  0  0
 11 31  1  0  0  0  0
 11 32  1  0  0  0  0
 15 33  1  0  0  0  0
 16 34  1  0  0  0  0
 17 35  1  0  0  0  0
 18 36  1  0  0  0  0
 19 37  1  0  0  0  0
 21 38  1  0  0  0  0
 24 39  1  0  0  0  0
 25 40  1  0  0  0  0
 25 41  1  0  0  0  0
 25 42  1  0  0  0  0
M  END
> <Name>
32

> <IC50[uM]>
0.11

$$$$
32
  -OEChem-05192314333D
 Structure written by MMmdl.
 42 45  0     0  0  0  0  0  0999 V2000
   -6.3767   12.3649  -12.0150 C   0  0  0  0  0  0  0  0  0  0  0  0
   -6.5300   11.8201  -10.7355 C   0  0  0  0  0  0  0  0  0  0  0  0
   -7.7235   10.5758  -13.0283 C   0  0  0  0  0  0  0  0  0  0  0  0
   -6.9848   11.7731  -13.1297 C   0  0  0  0  0  0  0  0  0  0  0  0
   -7.8178   10.0121  -11.7526 C   0  0  0  0  0  0  0  0  0  0  0  0
   -7.2522   10.6205  -10.6098 C   0  0  0  0  0  0  0  0  0  0  0  0
   -7.6101    9.7439   -9.5117 C   0  0  0  0  0  0  0  0  0  0  0  0
   -8.2784    8.7249   -9.9778 N   0  0  0  0  0  0  0  0  0  0  0  0
   -8.4134    8.8570  -11.2978 N   0  0  0  0  0  0  0  0  0  0  0  0
   -7.3337    9.8935   -8.0288 C   0  0  0  0  0  0  0  0  0  0  0  0
   -4.4165   13.6746  -11.4876 N   0  0  0  0  0  0  0  0  0  0  0  0
   -5.5534   13.6276  -12.1919 C   0  0  0  0  0  0  0  0  0  0  0  0
   -5.9234   14.5178  -12.9405 O   0  0  0  0  0  0  0  0  0  0  0  0
   -5.9640   10.4853   -7.7356 C   0  0  0  0  0  0  0  0  0  0  0  0
   -4.8116    9.7640   -8.0536 C   0  0  0  0  0  0  0  0  0  0  0  0
   -3.5500   10.3127   -7.8058 C   0  0  0  0  0  0  0  0  0  0  0  0
   -3.4411   11.5873   -7.2364 C   0  0  0  0  0  0  0  0  0  0  0  0
   -4.5925   12.3023   -6.9174 C   0  0  0  0  0  0  0  0  0  0  0  0
   -5.8510   11.7510   -7.1622 C   0  0  0  0  0  0  0  0  0  0  0  0
   -2.0968   12.1763   -6.9669 C   0  0  0  0  0  0  0  0  0  0  0  0
   -1.7702   13.4221   -6.4317 C   0  0  0  0  0  0  0  0  0  0  0  0
   -0.4283   13.4864   -6.3849 N   0  0  0  0  0  0  0  0  0  0  0  0
    0.1730   12.4042   -6.8287 N   0  0  0  0  0  0  0  0  0  0  0  0
   -0.8019   11.5974   -7.2024 C   0  0  0  0  0  0  0  0  0  0  0  0
    0.3914   14.5951   -5.9029 C   0  0  0  0  0  0  0  0  0  0  0  0
   -6.1059   12.3069   -9.8697 H   0  0  0  0  0  0  0  0  0  0  0  0
   -8.1905   10.1197  -13.8887 H   0  0  0  0  0  0  0  0  0  0  0  0
   -6.8851   12.2475  -14.0948 H   0  0  0  0  0  0  0  0  0  0  0  0
   -8.8876    8.1998  -11.8837 H   0  0  0  0  0  0  0  0  0  0  0  0
   -8.0369    9.6092   -7.2600 H   0  0  0  0  0  0  0  0  0  0  0  0
   -3.8167   14.4716  -11.5590 H   0  0  0  0  0  0  0  0  0  0  0  0
   -4.1667   12.9127  -10.8899 H   0  0  0  0  0  0  0  0  0  0  0  0
   -4.8950    8.7804   -8.4918 H   0  0  0  0  0  0  0  0  0  0  0  0
   -2.6597    9.7538   -8.0534 H   0  0  0  0  0  0  0  0  0  0  0  0
   -3.4383   12.0370   -8.2403 H   0  0  0  0  0  0  0  0  0  0  0  0
   -4.5115   13.2861   -6.4794 H   0  0  0  0  0  0  0  0  0  0  0  0
   -6.7408   12.3071   -6.9064 H   0  0  0  0  0  0  0  0  0  0  0  0
   -2.4626   14.1882   -6.1155 H   0  0  0  0  0  0  0  0  0  0  0  0
   -0.6459   10.6195   -7.6335 H   0  0  0  0  0  0  0  0  0  0  0  0
    1.4555   14.3315   -5.9935 H   0  0  0  0  0  0  0  0  0  0  0  0
    0.1837   15.4928   -6.5038 H   0  0  0  0  0  0  0  0  0  0  0  0
    0.1522   14.7964   -4.8483 H   0  0  0  0  0  0  0  0  0  0  0  0
  1  2  2  0  0  0  0
  1  4  1  0  0  0  0
  1 12  1  0  0  0  0
  2  6  1  0  0  0  0
  3  4  2  0  0  0  0
  3  5  1  0  0  0  0
  5  6  2  0  0  0  0
  5  9  1  0  0  0  0
  6  7  1  0  0  0  0
  7  8  2  0  0  0  0
  7 10  1  0  0  0  0
  8  9  1  0  0  0  0
 10 14  2  0  0  0  0
 11 12  1  0  0  0  0
 12 13  2  0  0  0  0
 14 15  1  0  0  0  0
 14 19  1  0  0  0  0
 15 16  2  0  0  0  0
 16 17  1  0  0  0  0
 17 18  1  0  0  0  0
 17 20  1  0  0  0  0
 18 19  2  0  0  0  0
 20 21  2  0  0  0  0
 20 24  1  0  0  0  0
 21 22  1  0  0  0  0
 22 23  1  0  0  0  0
 22 25  1  0  0  0  0
 23 24  2  0  0  0  0
  2 26  1  0  0  0  0
  3 27  1  0  0  0  0
  4 28  1  0  0  0  0
  9 29  1  0  0  0  0
 10 30  1  0  0  0  0
 11 31  1  0  0  0  0
 11 32  1  0  0  0  0
 15 33  1  0  0  0  0
 16 34  1  0  0  0  0
 17 35  1  0  0  0  0
 18 36  1  0  0  0  0
 19 37  1  0  0  0  0
 21 38  1  0  0  0  0
 24 39  1  0  0  0  0
 25 40  1  0  0  0  0
 25 41  1  0  0  0  0
 25 42  1  0  0  0  0
M  END
> <Name>
32

> <IC50[uM]>
0.11

$$$$
32
  -OEChem-05192314333D
 Structure written by MMmdl.
 42 45  0     0  0  0  0  0  0999 V2000
   -6.3767   12.3649  -12.0150 C   0  0  0  0  0  0  0  0  0  0  0  0
   -6.5300   11.8201  -10.7355 C   0  0  0  0  0  0  0  0  0  0  0  0
   -7.7235   10.5758  -13.0283 C   0  0  0  0  0  0  0  0  0  0  0  0
   -6.9848   11.7731  -13.1297 C   0  0  0  0  0  0  0  0  0  0  0  0
   -7.8178   10.0121  -11.7526 C   0  0  0  0  0  0  0  0  0  0  0  0
   -7.2522   10.6205  -10.6098 C   0  0  0  0  0  0  0  0  0  0  0  0
   -7.6101    9.7439   -9.5117 C   0  0  0  0  0  0  0  0  0  0  0  0
   -8.2784    8.7249   -9.9778 N   0  0  0  0  0  0  0  0  0  0  0  0
   -8.4134    8.8570  -11.2978 N   0  0  0  0  0  0  0  0  0  0  0  0
   -7.3337    9.8935   -8.0288 C   0  0  0  0  0  0  0  0  0  0  0  0
   -4.4165   13.6746  -11.4876 N   0  0  0  0  0  0  0  0  0  0  0  0
   -5.5534   13.6276  -12.1919 C   0  0  0  0  0  0  0  0  0  0  0  0
   -5.9234   14.5178  -12.9405 O   0  0  0  0  0  0  0  0  0  0  0  0
   -5.9640   10.4853   -7.7356 C   0  0  0  0  0  0  0  0  0  0  0  0
   -4.8116    9.7640   -8.0536 C   0  0  0  0  0  0  0  0  0  0  0  0
   -3.5500   10.3127   -7.8058 C   0  0  0  0  0  0  0  0  0  0  0  0
   -3.4411   11.5873   -7.2364 C   0  0  0  0  0  0  0  0  0  0  0  0
   -4.5925   12.3023   -6.9174 C   0  0  0  0  0  0  0  0  0  0  0  0
   -5.8510   11.7510   -7.1622 C   0  0  0  0  0  0  0  0  0  0  0  0
   -2.0968   12.1763   -6.9669 C   0  0  0  0  0  0  0  0  0  0  0  0
   -1.7702   13.4221   -6.4317 C   0  0  0  0  0  0  0  0  0  0  0  0
   -0.4283   13.4864   -6.3849 N   0  0  0  0  0  0  0  0  0  0  0  0
    0.1730   12.4042   -6.8287 N   0  0  0  0  0  0  0  0  0  0  0  0
   -0.8019   11.5974   -7.2024 C   0  0  0  0  0  0  0  0  0  0  0  0
    0.3914   14.5951   -5.9029 C   0  0  0  0  0  0  0  0  0  0  0  0
   -6.1059   12.3069   -9.8697 H   0  0  0  0  0  0  0  0  0  0  0  0
   -8.1905   10.1197  -13.8887 H   0  0  0  0  0  0  0  0  0  0  0  0
   -6.8851   12.2475  -14.0948 H   0  0  0  0  0  0  0  0  0  0  0  0
   -8.6329    7.9657   -9.4320 H   0  0  0  0  0  0  0  0  0  0  0  0
   -8.0369    9.6092   -7.2600 H   0  0  0  0  0  0  0  0  0  0  0  0
   -3.8167   14.4716  -11.5590 H   0  0  0  0  0  0  0  0  0  0  0  0
   -4.1667   12.9127  -10.8899 H   0  0  0  0  0  0  0  0  0  0  0  0
   -4.8950    8.7804   -8.4918 H   0  0  0  0  0  0  0  0  0  0  0  0
   -2.6597    9.7538   -8.0534 H   0  0  0  0  0  0  0  0  0  0  0  0
   -4.5115   13.2861   -6.4794 H   0  0  0  0  0  0  0  0  0  0  0  0
   -6.3776   12.4489   -7.8298 H   0  0  0  0  0  0  0  0  0  0  0  0
   -6.3709   11.7071   -6.1938 H   0  0  0  0  0  0  0  0  0  0  0  0
   -2.4626   14.1882   -6.1155 H   0  0  0  0  0  0  0  0  0  0  0  0
   -0.6459   10.6195   -7.6335 H   0  0  0  0  0  0  0  0  0  0  0  0
    1.4555   14.3315   -5.9935 H   0  0  0  0  0  0  0  0  0  0  0  0
    0.1837   15.4928   -6.5038 H   0  0  0  0  0  0  0  0  0  0  0  0
    0.1522   14.7964   -4.8483 H   0  0  0  0  0  0  0  0  0  0  0  0
  1  2  2  0  0  0  0
  1  4  1  0  0  0  0
  1 12  1  0  0  0  0
  2  6  1  0  0  0  0
  3  4  2  0  0  0  0
  3  5  1  0  0  0  0
  5  6  1  0  0  0  0
  5  9  2  0  0  0  0
  6  7  2  0  0  0  0
  7  8  1  0  0  0  0
  7 10  1  0  0  0  0
  8  9  1  0  0  0  0
 10 14  2  3  0  0  0
 11 12  1  0  0  0  0
 12 13  2  0  0  0  0
 14 15  1  0  0  0  0
 14 19  1  0  0  0  0
 15 16  2  0  0  0  0
 16 17  1  0  0  0  0
 17 18  2  0  0  0  0
 17 20  1  0  0  0  0
 18 19  1  0  0  0  0
 20 21  2  0  0  0  0
 20 24  1  0  0  0  0
 21 22  1  0  0  0  0
 22 23  1  0  0  0  0
 22 25  1  0  0  0  0
 23 24  2  0  0  0  0
  2 26  1  0  0  0  0
  3 27  1  0  0  0  0
  4 28  1  0  0  0  0
  8 29  1  0  0  0  0
 10 30  1  0  0  0  0
 11 31  1  0  0  0  0
 11 32  1  0  0  0  0
 15 33  1  0  0  0  0
 16 34  1  0  0  0  0
 18 35  1  0  0  0  0
 19 36  1  0  0  0  0
 19 37  1  0  0  0  0
 21 38  1  0  0  0  0
 24 39  1  0  0  0  0
 25 40  1  0  0  0  0
 25 41  1  0  0  0  0
 25 42  1  0  0  0  0
M  END
> <Name>
32

> <IC50[uM]>
0.11

$$$$
32
  -OEChem-05192314333D
 Structure written by MMmdl.
 42 45  0     0  0  0  0  0  0999 V2000
   -6.3767   12.3649  -12.0150 C   0  0  0  0  0  0  0  0  0  0  0  0
   -6.5300   11.8201  -10.7355 C   0  0  0  0  0  0  0  0  0  0  0  0
   -7.7235   10.5758  -13.0283 C   0  0  0  0  0  0  0  0  0  0  0  0
   -6.9848   11.7731  -13.1297 C   0  0  0  0  0  0  0  0  0  0  0  0
   -7.8178   10.0121  -11.7526 C   0  0  0  0  0  0  0  0  0  0  0  0
   -7.2522   10.6205  -10.6098 C   0  0  0  0  0  0  0  0  0  0  0  0
   -7.6101    9.7439   -9.5117 C   0  0  0  0  0  0  0  0  0  0  0  0
   -8.2784    8.7249   -9.9778 N   0  0  0  0  0  0  0  0  0  0  0  0
   -8.4134    8.8570  -11.2978 N   0  0  0  0  0  0  0  0  0  0  0  0
   -7.3337    9.8935   -8.0288 C   0  0  0  0  0  0  0  0  0  0  0  0
   -4.4165   13.6746  -11.4876 N   0  0  0  0  0  0  0  0  0  0  0  0
   -5.5534   13.6276  -12.1919 C   0  0  0  0  0  0  0  0  0  0  0  0
   -5.9234   14.5178  -12.9405 O   0  0  0  0  0  0  0  0  0  0  0  0
   -5.9640   10.4853   -7.7356 C   0  0  0  0  0  0  0  0  0  0  0  0
   -4.8116    9.7640   -8.0536 C   0  0  0  0  0  0  0  0  0  0  0  0
   -3.5500   10.3127   -7.8058 C   0  0  0  0  0  0  0  0  0  0  0  0
   -3.4411   11.5873   -7.2364 C   0  0  0  0  0  0  0  0  0  0  0  0
   -4.5925   12.3023   -6.9174 C   0  0  0  0  0  0  0  0  0  0  0  0
   -5.8510   11.7510   -7.1622 C   0  0  0  0  0  0  0  0  0  0  0  0
   -2.0968   12.1763   -6.9669 C   0  0  0  0  0  0  0  0  0  0  0  0
   -1.7702   13.4221   -6.4317 C   0  0  0  0  0  0  0  0  0  0  0  0
   -0.4283   13.4864   -6.3849 N   0  0  0  0  0  0  0  0  0  0  0  0
    0.1730   12.4042   -6.8287 N   0  0  0  0  0  0  0  0  0  0  0  0
   -0.8019   11.5974   -7.2024 C   0  0  0  0  0  0  0  0  0  0  0  0
    0.3914   14.5951   -5.9029 C   0  0  0  0  0  0  0  0  0  0  0  0
   -6.1059   12.3069   -9.8697 H   0  0  0  0  0  0  0  0  0  0  0  0
   -8.1905   10.1197  -13.8887 H   0  0  0  0  0  0  0  0  0  0  0  0
   -6.8851   12.2475  -14.0948 H   0  0  0  0  0  0  0  0  0  0  0  0
   -8.8876    8.1998  -11.8837 H   0  0  0  0  0  0  0  0  0  0  0  0
   -8.0369    9.6092   -7.2600 H   0  0  0  0  0  0  0  0  0  0  0  0
   -3.8167   14.4716  -11.5590 H   0  0  0  0  0  0  0  0  0  0  0  0
   -4.1667   12.9127  -10.8899 H   0  0  0  0  0  0  0  0  0  0  0  0
   -4.8950    8.7804   -8.4918 H   0  0  0  0  0  0  0  0  0  0  0  0
   -2.6597    9.7538   -8.0534 H   0  0  0  0  0  0  0  0  0  0  0  0
   -4.5115   13.2861   -6.4794 H   0  0  0  0  0  0  0  0  0  0  0  0
   -6.3776   12.4489   -7.8298 H   0  0  0  0  0  0  0  0  0  0  0  0
   -6.3709   11.7071   -6.1938 H   0  0  0  0  0  0  0  0  0  0  0  0
   -2.4626   14.1882   -6.1155 H   0  0  0  0  0  0  0  0  0  0  0  0
   -0.6459   10.6195   -7.6335 H   0  0  0  0  0  0  0  0  0  0  0  0
    1.4555   14.3315   -5.9935 H   0  0  0  0  0  0  0  0  0  0  0  0
    0.1837   15.4928   -6.5038 H   0  0  0  0  0  0  0  0  0  0  0  0
    0.1522   14.7964   -4.8483 H   0  0  0  0  0  0  0  0  0  0  0  0
  1  2  2  0  0  0  0
  1  4  1  0  0  0  0
  1 12  1  0  0  0  0
  2  6  1  0  0  0  0
  3  4  2  0  0  0  0
  3  5  1  0  0  0  0
  5  6  2  0  0  0  0
  5  9  1  0  0  0  0
  6  7  1  0  0  0  0
  7  8  2  0  0  0  0
  7 10  1  0  0  0  0
  8  9  1  0  0  0  0
 10 14  2  3  0  0  0
 11 12  1  0  0  0  0
 12 13  2  0  0  0  0
 14 15  1  0  0  0  0
 14 19  1  0  0  0  0
 15 16  2  0  0  0  0
 16 17  1  0  0  0  0
 17 18  2  0  0  0  0
 17 20  1  0  0  0  0
 18 19  1  0  0  0  0
 20 21  2  0  0  0  0
 20 24  1  0  0  0  0
 21 22  1  0  0  0  0
 22 23  1  0  0  0  0
 22 25  1  0  0  0  0
 23 24  2  0  0  0  0
  2 26  1  0  0  0  0
  3 27  1  0  0  0  0
  4 28  1  0  0  0  0
  9 29  1  0  0  0  0
 10 30  1  0  0  0  0
 11 31  1  0  0  0  0
 11 32  1  0  0  0  0
 15 33  1  0  0  0  0
 16 34  1  0  0  0  0
 18 35  1  0  0  0  0
 19 36  1  0  0  0  0
 19 37  1  0  0  0  0
 21 38  1  0  0  0  0
 24 39  1  0  0  0  0
 25 40  1  0  0  0  0
 25 41  1  0  0  0  0
 25 42  1  0  0  0  0
M  END
> <Name>
32

> <IC50[uM]>
0.11

$$$$
32
  -OEChem-05192314333D
 Structure written by MMmdl.
 42 45  0     0  0  0  0  0  0999 V2000
   -6.3767   12.3649  -12.0150 C   0  0  0  0  0  0  0  0  0  0  0  0
   -6.5300   11.8201  -10.7355 C   0  0  0  0  0  0  0  0  0  0  0  0
   -7.7235   10.5758  -13.0283 C   0  0  0  0  0  0  0  0  0  0  0  0
   -6.9848   11.7731  -13.1297 C   0  0  0  0  0  0  0  0  0  0  0  0
   -7.8178   10.0121  -11.7526 C   0  0  0  0  0  0  0  0  0  0  0  0
   -7.2522   10.6205  -10.6098 C   0  0  0  0  0  0  0  0  0  0  0  0
   -7.6101    9.7439   -9.5117 C   0  0  0  0  0  0  0  0  0  0  0  0
   -8.2784    8.7249   -9.9778 N   0  0  0  0  0  0  0  0  0  0  0  0
   -8.4134    8.8570  -11.2978 N   0  0  0  0  0  0  0  0  0  0  0  0
   -7.3337    9.8935   -8.0288 C   0  0  0  0  0  0  0  0  0  0  0  0
   -4.4165   13.6746  -11.4876 N   0  0  0  0  0  0  0  0  0  0  0  0
   -5.5534   13.6276  -12.1919 C   0  0  0  0  0  0  0  0  0  0  0  0
   -5.9234   14.5178  -12.9405 O   0  0  0  0  0  0  0  0  0  0  0  0
   -5.9640   10.4853   -7.7356 C   0  0  0  0  0  0  0  0  0  0  0  0
   -4.8116    9.7640   -8.0536 C   0  0  0  0  0  0  0  0  0  0  0  0
   -3.5500   10.3127   -7.8058 C   0  0  0  0  0  0  0  0  0  0  0  0
   -3.4411   11.5873   -7.2364 C   0  0  0  0  0  0  0  0  0  0  0  0
   -4.5925   12.3023   -6.9174 C   0  0  0  0  0  0  0  0  0  0  0  0
   -5.8510   11.7510   -7.1622 C   0  0  0  0  0  0  0  0  0  0  0  0
   -2.0968   12.1763   -6.9669 C   0  0  0  0  0  0  0  0  0  0  0  0
   -1.7702   13.4221   -6.4317 C   0  0  0  0  0  0  0  0  0  0  0  0
   -0.4283   13.4864   -6.3849 N   0  0  0  0  0  0  0  0  0  0  0  0
    0.1730   12.4042   -6.8287 N   0  0  0  0  0  0  0  0  0  0  0  0
   -0.8019   11.5974   -7.2024 C   0  0  0  0  0  0  0  0  0  0  0  0
    0.3914   14.5951   -5.9029 C   0  0  0  0  0  0  0  0  0  0  0  0
   -6.1059   12.3069   -9.8697 H   0  0  0  0  0  0  0  0  0  0  0  0
   -8.1905   10.1197  -13.8887 H   0  0  0  0  0  0  0  0  0  0  0  0
   -6.8851   12.2475  -14.0948 H   0  0  0  0  0  0  0  0  0  0  0  0
   -8.6329    7.9657   -9.4320 H   0  0  0  0  0  0  0  0  0  0  0  0
   -8.0369    9.6092   -7.2600 H   0  0  0  0  0  0  0  0  0  0  0  0
   -3.9109   14.5222  -11.6486 H   0  0  0  0  0  0  0  0  0  0  0  0
   -5.2907   15.2263  -12.9277 H   0  0  0  0  0  0  0  0  0  0  0  0
   -4.8950    8.7804   -8.4918 H   0  0  0  0  0  0  0  0  0  0  0  0
   -2.6597    9.7538   -8.0534 H   0  0  0  0  0  0  0  0  0  0  0  0
   -3.4383   12.0370   -8.2403 H   0  0  0  0  0  0  0  0  0  0  0  0
   -4.5115   13.2861   -6.4794 H   0  0  0  0  0  0  0  0  0  0  0  0
   -6.7408   12.3071   -6.9064 H   0  0  0  0  0  0  0  0  0  0  0  0
   -2.4626   14.1882   -6.1155 H   0  0  0  0  0  0  0  0  0  0  0  0
   -0.6459   10.6195   -7.6335 H   0  0  0  0  0  0  0  0  0  0  0  0
    1.4555   14.3315   -5.9935 H   0  0  0  0  0  0  0  0  0  0  0  0
    0.1837   15.4928   -6.5038 H   0  0  0  0  0  0  0  0  0  0  0  0
    0.1522   14.7964   -4.8483 H   0  0  0  0  0  0  0  0  0  0  0  0
  1  2  2  0  0  0  0
  1  4  1  0  0  0  0
  1 12  1  0  0  0  0
  2  6  1  0  0  0  0
  3  4  2  0  0  0  0
  3  5  1  0  0  0  0
  5  6  1  0  0  0  0
  5  9  2  0  0  0  0
  6  7  2  0  0  0  0
  7  8  1  0  0  0  0
  7 10  1  0  0  0  0
  8  9  1  0  0  0  0
 10 14  2  0  0  0  0
 11 12  2  0  0  0  0
 12 13  1  0  0  0  0
 14 15  1  0  0  0  0
 14 19  1  0  0  0  0
 15 16  2  0  0  0  0
 16 17  1  0  0  0  0
 17 18  1  0  0  0  0
 17 20  1  0  0  0  0
 18 19  2  0  0  0  0
 20 21  2  0  0  0  0
 20 24  1  0  0  0  0
 21 22  1  0  0  0  0
 22 23  1  0  0  0  0
 22 25  1  0  0  0  0
 23 24  2  0  0  0  0
  2 26  1  0  0  0  0
  3 27  1  0  0  0  0
  4 28  1  0  0  0  0
  8 29  1  0  0  0  0
 10 30  1  0  0  0  0
 11 31  1  0  0  0  0
 13 32  1  0  0  0  0
 15 33  1  0  0  0  0
 16 34  1  0  0  0  0
 17 35  1  0  0  0  0
 18 36  1  0  0  0  0
 19 37  1  0  0  0  0
 21 38  1  0  0  0  0
 24 39  1  0  0  0  0
 25 40  1  0  0  0  0
 25 41  1  0  0  0  0
 25 42  1  0  0  0  0
M  END
> <Name>
32

> <IC50[uM]>
0.11

$$$$
32
  -OEChem-05192314333D
 Structure written by MMmdl.
 42 45  0     0  0  0  0  0  0999 V2000
   -6.3767   12.3649  -12.0150 C   0  0  0  0  0  0  0  0  0  0  0  0
   -6.5300   11.8201  -10.7355 C   0  0  0  0  0  0  0  0  0  0  0  0
   -7.7235   10.5758  -13.0283 C   0  0  0  0  0  0  0  0  0  0  0  0
   -6.9848   11.7731  -13.1297 C   0  0  0  0  0  0  0  0  0  0  0  0
   -7.8178   10.0121  -11.7526 C   0  0  0  0  0  0  0  0  0  0  0  0
   -7.2522   10.6205  -10.6098 C   0  0  0  0  0  0  0  0  0  0  0  0
   -7.6101    9.7439   -9.5117 C   0  0  0  0  0  0  0  0  0  0  0  0
   -8.2784    8.7249   -9.9778 N   0  0  0  0  0  0  0  0  0  0  0  0
   -8.4134    8.8570  -11.2978 N   0  0  0  0  0  0  0  0  0  0  0  0
   -7.3337    9.8935   -8.0288 C   0  0  0  0  0  0  0  0  0  0  0  0
   -4.4165   13.6746  -11.4876 N   0  0  0  0  0  0  0  0  0  0  0  0
   -5.5534   13.6276  -12.1919 C   0  0  0  0  0  0  0  0  0  0  0  0
   -5.9234   14.5178  -12.9405 O   0  0  0  0  0  0  0  0  0  0  0  0
   -5.9640   10.4853   -7.7356 C   0  0  0  0  0  0  0  0  0  0  0  0
   -4.8116    9.7640   -8.0536 C   0  0  0  0  0  0  0  0  0  0  0  0
   -3.5500   10.3127   -7.8058 C   0  0  0  0  0  0  0  0  0  0  0  0
   -3.4411   11.5873   -7.2364 C   0  0  0  0  0  0  0  0  0  0  0  0
   -4.5925   12.3023   -6.9174 C   0  0  0  0  0  0  0  0  0  0  0  0
   -5.8510   11.7510   -7.1622 C   0  0  0  0  0  0  0  0  0  0  0  0
   -2.0968   12.1763   -6.9669 C   0  0  0  0  0  0  0  0  0  0  0  0
   -1.7702   13.4221   -6.4317 C   0  0  0  0  0  0  0  0  0  0  0  0
   -0.4283   13.4864   -6.3849 N   0  0  0  0  0  0  0  0  0  0  0  0
    0.1730   12.4042   -6.8287 N   0  0  0  0  0  0  0  0  0  0  0  0
   -0.8019   11.5974   -7.2024 C   0  0  0  0  0  0  0  0  0  0  0  0
    0.3914   14.5951   -5.9029 C   0  0  0  0  0  0  0  0  0  0  0  0
   -6.1059   12.3069   -9.8697 H   0  0  0  0  0  0  0  0  0  0  0  0
   -8.1905   10.1197  -13.8887 H   0  0  0  0  0  0  0  0  0  0  0  0
   -6.8851   12.2475  -14.0948 H   0  0  0  0  0  0  0  0  0  0  0  0
   -8.8876    8.1998  -11.8837 H   0  0  0  0  0  0  0  0  0  0  0  0
   -8.0369    9.6092   -7.2600 H   0  0  0  0  0  0  0  0  0  0  0  0
   -3.9109   14.5222  -11.6486 H   0  0  0  0  0  0  0  0  0  0  0  0
   -5.2907   15.2263  -12.9277 H   0  0  0  0  0  0  0  0  0  0  0  0
   -4.8950    8.7804   -8.4918 H   0  0  0  0  0  0  0  0  0  0  0  0
   -2.6597    9.7538   -8.0534 H   0  0  0  0  0  0  0  0  0  0  0  0
   -3.4383   12.0370   -8.2403 H   0  0  0  0  0  0  0  0  0  0  0  0
   -4.5115   13.2861   -6.4794 H   0  0  0  0  0  0  0  0  0  0  0  0
   -6.7408   12.3071   -6.9064 H   0  0  0  0  0  0  0  0  0  0  0  0
   -2.4626   14.1882   -6.1155 H   0  0  0  0  0  0  0  0  0  0  0  0
   -0.6459   10.6195   -7.6335 H   0  0  0  0  0  0  0  0  0  0  0  0
    1.4555   14.3315   -5.9935 H   0  0  0  0  0  0  0  0  0  0  0  0
    0.1837   15.4928   -6.5038 H   0  0  0  0  0  0  0  0  0  0  0  0
    0.1522   14.7964   -4.8483 H   0  0  0  0  0  0  0  0  0  0  0  0
  1  2  2  0  0  0  0
  1  4  1  0  0  0  0
  1 12  1  0  0  0  0
  2  6  1  0  0  0  0
  3  4  2  0  0  0  0
  3  5  1  0  0  0  0
  5  6  2  0  0  0  0
  5  9  1  0  0  0  0
  6  7  1  0  0  0  0
  7  8  2  0  0  0  0
  7 10  1  0  0  0  0
  8  9  1  0  0  0  0
 10 14  2  0  0  0  0
 11 12  2  0  0  0  0
 12 13  1  0  0  0  0
 14 15  1  0  0  0  0
 14 19  1  0  0  0  0
 15 16  2  0  0  0  0
 16 17  1  0  0  0  0
 17 18  1  0  0  0  0
 17 20  1  0  0  0  0
 18 19  2  0  0  0  0
 20 21  2  0  0  0  0
 20 24  1  0  0  0  0
 21 22  1  0  0  0  0
 22 23  1  0  0  0  0
 22 25  1  0  0  0  0
 23 24  2  0  0  0  0
  2 26  1  0  0  0  0
  3 27  1  0  0  0  0
  4 28  1  0  0  0  0
  9 29  1  0  0  0  0
 10 30  1  0  0  0  0
 11 31  1  0  0  0  0
 13 32  1  0  0  0  0
 15 33  1  0  0  0  0
 16 34  1  0  0  0  0
 17 35  1  0  0  0  0
 18 36  1  0  0  0  0
 19 37  1  0  0  0  0
 21 38  1  0  0  0  0
 24 39  1  0  0  0  0
 25 40  1  0  0  0  0
 25 41  1  0  0  0  0
 25 42  1  0  0  0  0
M  END
> <Name>
32

> <IC50[uM]>
0.11

$$$$
32
  -OEChem-05192314333D
 Structure written by MMmdl.
 42 45  0     0  0  0  0  0  0999 V2000
   -6.3767   12.3649  -12.0150 C   0  0  0  0  0  0  0  0  0  0  0  0
   -6.5300   11.8201  -10.7355 C   0  0  0  0  0  0  0  0  0  0  0  0
   -7.7235   10.5758  -13.0283 C   0  0  0  0  0  0  0  0  0  0  0  0
   -6.9848   11.7731  -13.1297 C   0  0  0  0  0  0  0  0  0  0  0  0
   -7.8178   10.0121  -11.7526 C   0  0  0  0  0  0  0  0  0  0  0  0
   -7.2522   10.6205  -10.6098 C   0  0  0  0  0  0  0  0  0  0  0  0
   -7.6101    9.7439   -9.5117 C   0  0  0  0  0  0  0  0  0  0  0  0
   -8.2784    8.7249   -9.9778 N   0  0  0  0  0  0  0  0  0  0  0  0
   -8.4134    8.8570  -11.2978 N   0  0  0  0  0  0  0  0  0  0  0  0
   -7.3337    9.8935   -8.0288 C   0  0  0  0  0  0  0  0  0  0  0  0
   -4.4165   13.6746  -11.4876 N   0  0  0  0  0  0  0  0  0  0  0  0
   -5.5534   13.6276  -12.1919 C   0  0  0  0  0  0  0  0  0  0  0  0
   -5.9234   14.5178  -12.9405 O   0  0  0  0  0  0  0  0  0  0  0  0
   -5.9640   10.4853   -7.7356 C   0  0  0  0  0  0  0  0  0  0  0  0
   -4.8116    9.7640   -8.0536 C   0  0  0  0  0  0  0  0  0  0  0  0
   -3.5500   10.3127   -7.8058 C   0  0  0  0  0  0  0  0  0  0  0  0
   -3.4411   11.5873   -7.2364 C   0  0  0  0  0  0  0  0  0  0  0  0
   -4.5925   12.3023   -6.9174 C   0  0  0  0  0  0  0  0  0  0  0  0
   -5.8510   11.7510   -7.1622 C   0  0  0  0  0  0  0  0  0  0  0  0
   -2.0968   12.1763   -6.9669 C   0  0  0  0  0  0  0  0  0  0  0  0
   -1.7702   13.4221   -6.4317 C   0  0  0  0  0  0  0  0  0  0  0  0
   -0.4283   13.4864   -6.3849 N   0  0  0  0  0  0  0  0  0  0  0  0
    0.1730   12.4042   -6.8287 N   0  0  0  0  0  0  0  0  0  0  0  0
   -0.8019   11.5974   -7.2024 C   0  0  0  0  0  0  0  0  0  0  0  0
    0.3914   14.5951   -5.9029 C   0  0  0  0  0  0  0  0  0  0  0  0
   -6.1059   12.3069   -9.8697 H   0  0  0  0  0  0  0  0  0  0  0  0
   -8.1905   10.1197  -13.8887 H   0  0  0  0  0  0  0  0  0  0  0  0
   -6.8851   12.2475  -14.0948 H   0  0  0  0  0  0  0  0  0  0  0  0
   -8.6329    7.9657   -9.4320 H   0  0  0  0  0  0  0  0  0  0  0  0
   -8.0369    9.6092   -7.2600 H   0  0  0  0  0  0  0  0  0  0  0  0
   -3.9109   14.5222  -11.6486 H   0  0  0  0  0  0  0  0  0  0  0  0
   -5.2907   15.2263  -12.9277 H   0  0  0  0  0  0  0  0  0  0  0  0
   -4.8950    8.7804   -8.4918 H   0  0  0  0  0  0  0  0  0  0  0  0
   -2.6597    9.7538   -8.0534 H   0  0  0  0  0  0  0  0  0  0  0  0
   -4.5115   13.2861   -6.4794 H   0  0  0  0  0  0  0  0  0  0  0  0
   -6.3776   12.4489   -7.8298 H   0  0  0  0  0  0  0  0  0  0  0  0
   -6.3709   11.7071   -6.1938 H   0  0  0  0  0  0  0  0  0  0  0  0
   -2.4626   14.1882   -6.1155 H   0  0  0  0  0  0  0  0  0  0  0  0
   -0.6459   10.6195   -7.6335 H   0  0  0  0  0  0  0  0  0  0  0  0
    1.4555   14.3315   -5.9935 H   0  0  0  0  0  0  0  0  0  0  0  0
    0.1837   15.4928   -6.5038 H   0  0  0  0  0  0  0  0  0  0  0  0
    0.1522   14.7964   -4.8483 H   0  0  0  0  0  0  0  0  0  0  0  0
  1  2  2  0  0  0  0
  1  4  1  0  0  0  0
  1 12  1  0  0  0  0
  2  6  1  0  0  0  0
  3  4  2  0  0  0  0
  3  5  1  0  0  0  0
  5  6  1  0  0  0  0
  5  9  2  0  0  0  0
  6  7  2  0  0  0  0
  7  8  1  0  0  0  0
  7 10  1  0  0  0  0
  8  9  1  0  0  0  0
 10 14  2  3  0  0  0
 11 12  2  0  0  0  0
 12 13  1  0  0  0  0
 14 15  1  0  0  0  0
 14 19  1  0  0  0  0
 15 16  2  0  0  0  0
 16 17  1  0  0  0  0
 17 18  2  0  0  0  0
 17 20  1  0  0  0  0
 18 19  1  0  0  0  0
 20 21  2  0  0  0  0
 20 24  1  0  0  0  0
 21 22  1  0  0  0  0
 22 23  1  0  0  0  0
 22 25  1  0  0  0  0
 23 24  2  0  0  0  0
  2 26  1  0  0  0  0
  3 27  1  0  0  0  0
  4 28  1  0  0  0  0
  8 29  1  0  0  0  0
 10 30  1  0  0  0  0
 11 31  1  0  0  0  0
 13 32  1  0  0  0  0
 15 33  1  0  0  0  0
 16 34  1  0  0  0  0
 18 35  1  0  0  0  0
 19 36  1  0  0  0  0
 19 37  1  0  0  0  0
 21 38  1  0  0  0  0
 24 39  1  0  0  0  0
 25 40  1  0  0  0  0
 25 41  1  0  0  0  0
 25 42  1  0  0  0  0
M  END
> <Name>
32

> <IC50[uM]>
0.11

$$$$
32
  -OEChem-05192314333D
 Structure written by MMmdl.
 42 45  0     0  0  0  0  0  0999 V2000
   -6.3767   12.3649  -12.0150 C   0  0  0  0  0  0  0  0  0  0  0  0
   -6.5300   11.8201  -10.7355 C   0  0  0  0  0  0  0  0  0  0  0  0
   -7.7235   10.5758  -13.0283 C   0  0  0  0  0  0  0  0  0  0  0  0
   -6.9848   11.7731  -13.1297 C   0  0  0  0  0  0  0  0  0  0  0  0
   -7.8178   10.0121  -11.7526 C   0  0  0  0  0  0  0  0  0  0  0  0
   -7.2522   10.6205  -10.6098 C   0  0  0  0  0  0  0  0  0  0  0  0
   -7.6101    9.7439   -9.5117 C   0  0  0  0  0  0  0  0  0  0  0  0
   -8.2784    8.7249   -9.9778 N   0  0  0  0  0  0  0  0  0  0  0  0
   -8.4134    8.8570  -11.2978 N   0  0  0  0  0  0  0  0  0  0  0  0
   -7.3337    9.8935   -8.0288 C   0  0  0  0  0  0  0  0  0  0  0  0
   -4.4165   13.6746  -11.4876 N   0  0  0  0  0  0  0  0  0  0  0  0
   -5.5534   13.6276  -12.1919 C   0  0  0  0  0  0  0  0  0  0  0  0
   -5.9234   14.5178  -12.9405 O   0  0  0  0  0  0  0  0  0  0  0  0
   -5.9640   10.4853   -7.7356 C   0  0  0  0  0  0  0  0  0  0  0  0
   -4.8116    9.7640   -8.0536 C   0  0  0  0  0  0  0  0  0  0  0  0
   -3.5500   10.3127   -7.8058 C   0  0  0  0  0  0  0  0  0  0  0  0
   -3.4411   11.5873   -7.2364 C   0  0  0  0  0  0  0  0  0  0  0  0
   -4.5925   12.3023   -6.9174 C   0  0  0  0  0  0  0  0  0  0  0  0
   -5.8510   11.7510   -7.1622 C   0  0  0  0  0  0  0  0  0  0  0  0
   -2.0968   12.1763   -6.9669 C   0  0  0  0  0  0  0  0  0  0  0  0
   -1.7702   13.4221   -6.4317 C   0  0  0  0  0  0  0  0  0  0  0  0
   -0.4283   13.4864   -6.3849 N   0  0  0  0  0  0  0  0  0  0  0  0
    0.1730   12.4042   -6.8287 N   0  0  0  0  0  0  0  0  0  0  0  0
   -0.8019   11.5974   -7.2024 C   0  0  0  0  0  0  0  0  0  0  0  0
    0.3914   14.5951   -5.9029 C   0  0  0  0  0  0  0  0  0  0  0  0
   -6.1059   12.3069   -9.8697 H   0  0  0  0  0  0  0  0  0  0  0  0
   -8.1905   10.1197  -13.8887 H   0  0  0  0  0  0  0  0  0  0  0  0
   -6.8851   12.2475  -14.0948 H   0  0  0  0  0  0  0  0  0  0  0  0
   -8.8876    8.1998  -11.8837 H   0  0  0  0  0  0  0  0  0  0  0  0
   -8.0369    9.6092   -7.2600 H   0  0  0  0  0  0  0  0  0  0  0  0
   -3.9109   14.5222  -11.6486 H   0  0  0  0  0  0  0  0  0  0  0  0
   -5.2907   15.2263  -12.9277 H   0  0  0  0  0  0  0  0  0  0  0  0
   -4.8950    8.7804   -8.4918 H   0  0  0  0  0  0  0  0  0  0  0  0
   -2.6597    9.7538   -8.0534 H   0  0  0  0  0  0  0  0  0  0  0  0
   -4.5115   13.2861   -6.4794 H   0  0  0  0  0  0  0  0  0  0  0  0
   -6.3776   12.4489   -7.8298 H   0  0  0  0  0  0  0  0  0  0  0  0
   -6.3709   11.7071   -6.1938 H   0  0  0  0  0  0  0  0  0  0  0  0
   -2.4626   14.1882   -6.1155 H   0  0  0  0  0  0  0  0  0  0  0  0
   -0.6459   10.6195   -7.6335 H   0  0  0  0  0  0  0  0  0  0  0  0
    1.4555   14.3315   -5.9935 H   0  0  0  0  0  0  0  0  0  0  0  0
    0.1837   15.4928   -6.5038 H   0  0  0  0  0  0  0  0  0  0  0  0
    0.1522   14.7964   -4.8483 H   0  0  0  0  0  0  0  0  0  0  0  0
  1  2  2  0  0  0  0
  1  4  1  0  0  0  0
  1 12  1  0  0  0  0
  2  6  1  0  0  0  0
  3  4  2  0  0  0  0
  3  5  1  0  0  0  0
  5  6  2  0  0  0  0
  5  9  1  0  0  0  0
  6  7  1  0  0  0  0
  7  8  2  0  0  0  0
  7 10  1  0  0  0  0
  8  9  1  0  0  0  0
 10 14  2  3  0  0  0
 11 12  2  0  0  0  0
 12 13  1  0  0  0  0
 14 15  1  0  0  0  0
 14 19  1  0  0  0  0
 15 16  2  0  0  0  0
 16 17  1  0  0  0  0
 17 18  2  0  0  0  0
 17 20  1  0  0  0  0
 18 19  1  0  0  0  0
 20 21  2  0  0  0  0
 20 24  1  0  0  0  0
 21 22  1  0  0  0  0
 22 23  1  0  0  0  0
 22 25  1  0  0  0  0
 23 24  2  0  0  0  0
  2 26  1  0  0  0  0
  3 27  1  0  0  0  0
  4 28  1  0  0  0  0
  9 29  1  0  0  0  0
 10 30  1  0  0  0  0
 11 31  1  0  0  0  0
 13 32  1  0  0  0  0
 15 33  1  0  0  0  0
 16 34  1  0  0  0  0
 18 35  1  0  0  0  0
 19 36  1  0  0  0  0
 19 37  1  0  0  0  0
 21 38  1  0  0  0  0
 24 39  1  0  0  0  0
 25 40  1  0  0  0  0
 25 41  1  0  0  0  0
 25 42  1  0  0  0  0
M  END
> <Name>
32

> <IC50[uM]>
0.11

$$$$
32
  -OEChem-05192314333D
 Structure written by MMmdl.
 42 45  0     1  0  0  0  0  0999 V2000
   -6.3767   12.3649  -12.0150 C   0  0  0  0  0  0  0  0  0  0  0  0
   -6.5300   11.8201  -10.7355 C   0  0  0  0  0  0  0  0  0  0  0  0
   -7.7235   10.5758  -13.0283 C   0  0  0  0  0  0  0  0  0  0  0  0
   -6.9848   11.7731  -13.1297 C   0  0  0  0  0  0  0  0  0  0  0  0
   -7.8178   10.0121  -11.7526 C   0  0  0  0  0  0  0  0  0  0  0  0
   -7.2522   10.6205  -10.6098 C   0  0  0  0  0  0  0  0  0  0  0  0
   -7.6101    9.7439   -9.5117 C   0  0  0  0  0  0  0  0  0  0  0  0
   -8.2784    8.7249   -9.9778 N   0  0  0  0  0  0  0  0  0  0  0  0
   -8.4134    8.8570  -11.2978 N   0  0  0  0  0  0  0  0  0  0  0  0
   -7.3337    9.8935   -8.0288 C   0  0  0  0  0  0  0  0  0  0  0  0
   -4.4165   13.6746  -11.4876 N   0  0  0  0  0  0  0  0  0  0  0  0
   -5.5534   13.6276  -12.1919 C   0  0  0  0  0  0  0  0  0  0  0  0
   -5.9234   14.5178  -12.9405 O   0  0  0  0  0  0  0  0  0  0  0  0
   -5.9640   10.4853   -7.7356 C   0  0  0  0  0  0  0  0  0  0  0  0
   -4.8116    9.7640   -8.0536 C   0  0  0  0  0  0  0  0  0  0  0  0
   -3.5500   10.3127   -7.8058 C   0  0  0  0  0  0  0  0  0  0  0  0
   -3.4411   11.5873   -7.2364 C   0  0  0  0  0  0  0  0  0  0  0  0
   -4.5925   12.3023   -6.9174 C   0  0  0  0  0  0  0  0  0  0  0  0
   -5.8510   11.7510   -7.1622 C   0  0  0  0  0  0  0  0  0  0  0  0
   -2.0968   12.1763   -6.9669 C   0  0  3  0  0  0  0  0  0  0  0  0
   -1.7702   13.4221   -6.4317 C   0  0  0  0  0  0  0  0  0  0  0  0
   -0.4283   13.4864   -6.3849 N   0  0  3  0  0  0  0  0  0  0  0  0
    0.1730   12.4042   -6.8287 N   0  0  0  0  0  0  0  0  0  0  0  0
   -0.8019   11.5974   -7.2024 C   0  0  0  0  0  0  0  0  0  0  0  0
    0.3914   14.5951   -5.9029 C   0  0  0  0  0  0  0  0  0  0  0  0
   -6.1059   12.3069   -9.8697 H   0  0  0  0  0  0  0  0  0  0  0  0
   -8.1905   10.1197  -13.8887 H   0  0  0  0  0  0  0  0  0  0  0  0
   -6.8851   12.2475  -14.0948 H   0  0  0  0  0  0  0  0  0  0  0  0
   -8.0369    9.6092   -7.2600 H   0  0  0  0  0  0  0  0  0  0  0  0
   -3.8167   14.4716  -11.5590 H   0  0  0  0  0  0  0  0  0  0  0  0
   -4.1667   12.9127  -10.8899 H   0  0  0  0  0  0  0  0  0  0  0  0
   -4.8950    8.7804   -8.4918 H   0  0  0  0  0  0  0  0  0  0  0  0
   -2.6597    9.7538   -8.0534 H   0  0  0  0  0  0  0  0  0  0  0  0
   -4.5115   13.2861   -6.4794 H   0  0  0  0  0  0  0  0  0  0  0  0
   -6.7408   12.3071   -6.9064 H   0  0  0  0  0  0  0  0  0  0  0  0
   -2.1082   11.7432   -5.9558 H   0  0  0  0  0  0  0  0  0  0  0  0
   -2.1654   14.2245   -7.0720 H   0  0  0  0  0  0  0  0  0  0  0  0
   -2.1893   13.5208   -5.4195 H   0  0  0  0  0  0  0  0  0  0  0  0
   -0.6459   10.6195   -7.6335 H   0  0  0  0  0  0  0  0  0  0  0  0
    1.4555   14.3315   -5.9935 H   0  0  0  0  0  0  0  0  0  0  0  0
    0.1837   15.4928   -6.5038 H   0  0  0  0  0  0  0  0  0  0  0  0
    0.1522   14.7964   -4.8483 H   0  0  0  0  0  0  0  0  0  0  0  0
  1  2  2  0  0  0  0
  1  4  1  0  0  0  0
  1 12  1  0  0  0  0
  2  6  1  0  0  0  0
  3  4  2  0  0  0  0
  3  5  1  0  0  0  0
  5  6  2  0  0  0  0
  5  9  1  0  0  0  0
  6  7  1  0  0  0  0
  7  8  1  0  0  0  0
  7 10  2  3  0  0  0
  8  9  2  0  0  0  0
 10 14  1  0  0  0  0
 11 12  1  0  0  0  0
 12 13  2  0  0  0  0
 14 15  2  0  0  0  0
 14 19  1  0  0  0  0
 15 16  1  0  0  0  0
 16 17  2  0  0  0  0
 17 18  1  0  0  0  0
 17 20  1  0  0  0  0
 18 19  2  0  0  0  0
 20 21  1  0  0  0  0
 20 24  1  0  0  0  0
 21 22  1  0  0  0  0
 22 23  1  0  0  0  0
 22 25  1  0  0  0  0
 23 24  2  0  0  0  0
  2 26  1  0  0  0  0
  3 27  1  0  0  0  0
  4 28  1  0  0  0  0
 10 29  1  0  0  0  0
 11 30  1  0  0  0  0
 11 31  1  0  0  0  0
 15 32  1  0  0  0  0
 16 33  1  0  0  0  0
 18 34  1  0  0  0  0
 19 35  1  0  0  0  0
 20 36  1  0  0  0  0
 21 37  1  0  0  0  0
 21 38  1  0  0  0  0
 24 39  1  0  0  0  0
 25 40  1  0  0  0  0
 25 41  1  0  0  0  0
 25 42  1  0  0  0  0
M  END
> <Name>
32

> <IC50[uM]>
0.11

$$$$
32
  -OEChem-05192314333D
 Structure written by MMmdl.
 42 45  0     1  0  0  0  0  0999 V2000
   -6.3767   12.3649  -12.0150 C   0  0  0  0  0  0  0  0  0  0  0  0
   -6.5300   11.8201  -10.7355 C   0  0  0  0  0  0  0  0  0  0  0  0
   -7.7235   10.5758  -13.0283 C   0  0  0  0  0  0  0  0  0  0  0  0
   -6.9848   11.7731  -13.1297 C   0  0  0  0  0  0  0  0  0  0  0  0
   -7.8178   10.0121  -11.7526 C   0  0  0  0  0  0  0  0  0  0  0  0
   -7.2522   10.6205  -10.6098 C   0  0  0  0  0  0  0  0  0  0  0  0
   -7.6101    9.7439   -9.5117 C   0  0  0  0  0  0  0  0  0  0  0  0
   -8.2784    8.7249   -9.9778 N   0  0  0  0  0  0  0  0  0  0  0  0
   -8.4134    8.8570  -11.2978 N   0  0  0  0  0  0  0  0  0  0  0  0
   -7.3337    9.8935   -8.0288 C   0  0  0  0  0  0  0  0  0  0  0  0
   -4.4165   13.6746  -11.4876 N   0  0  0  0  0  0  0  0  0  0  0  0
   -5.5534   13.6276  -12.1919 C   0  0  0  0  0  0  0  0  0  0  0  0
   -5.9234   14.5178  -12.9405 O   0  0  0  0  0  0  0  0  0  0  0  0
   -5.9640   10.4853   -7.7356 C   0  0  0  0  0  0  0  0  0  0  0  0
   -4.8116    9.7640   -8.0536 C   0  0  0  0  0  0  0  0  0  0  0  0
   -3.5500   10.3127   -7.8058 C   0  0  0  0  0  0  0  0  0  0  0  0
   -3.4411   11.5873   -7.2364 C   0  0  0  0  0  0  0  0  0  0  0  0
   -4.5925   12.3023   -6.9174 C   0  0  0  0  0  0  0  0  0  0  0  0
   -5.8510   11.7510   -7.1622 C   0  0  0  0  0  0  0  0  0  0  0  0
   -2.0968   12.1763   -6.9669 C   0  0  3  0  0  0  0  0  0  0  0  0
   -1.7702   13.4221   -6.4317 C   0  0  0  0  0  0  0  0  0  0  0  0
   -0.4283   13.4864   -6.3849 N   0  0  3  0  0  0  0  0  0  0  0  0
    0.1730   12.4042   -6.8287 N   0  0  0  0  0  0  0  0  0  0  0  0
   -0.8019   11.5974   -7.2024 C   0  0  0  0  0  0  0  0  0  0  0  0
    0.3914   14.5951   -5.9029 C   0  0  0  0  0  0  0  0  0  0  0  0
   -6.1059   12.3069   -9.8697 H   0  0  0  0  0  0  0  0  0  0  0  0
   -8.1905   10.1197  -13.8887 H   0  0  0  0  0  0  0  0  0  0  0  0
   -6.8851   12.2475  -14.0948 H   0  0  0  0  0  0  0  0  0  0  0  0
   -8.0369    9.6092   -7.2600 H   0  0  0  0  0  0  0  0  0  0  0  0
   -3.9109   14.5222  -11.6486 H   0  0  0  0  0  0  0  0  0  0  0  0
   -5.2907   15.2263  -12.9277 H   0  0  0  0  0  0  0  0  0  0  0  0
   -4.8950    8.7804   -8.4918 H   0  0  0  0  0  0  0  0  0  0  0  0
   -2.6597    9.7538   -8.0534 H   0  0  0  0  0  0  0  0  0  0  0  0
   -4.5115   13.2861   -6.4794 H   0  0  0  0  0  0  0  0  0  0  0  0
   -6.7408   12.3071   -6.9064 H   0  0  0  0  0  0  0  0  0  0  0  0
   -2.1082   11.7432   -5.9558 H   0  0  0  0  0  0  0  0  0  0  0  0
   -2.1654   14.2245   -7.0720 H   0  0  0  0  0  0  0  0  0  0  0  0
   -2.1893   13.5208   -5.4195 H   0  0  0  0  0  0  0  0  0  0  0  0
   -0.6459   10.6195   -7.6335 H   0  0  0  0  0  0  0  0  0  0  0  0
    1.4555   14.3315   -5.9935 H   0  0  0  0  0  0  0  0  0  0  0  0
    0.1837   15.4928   -6.5038 H   0  0  0  0  0  0  0  0  0  0  0  0
    0.1522   14.7964   -4.8483 H   0  0  0  0  0  0  0  0  0  0  0  0
  1  2  2  0  0  0  0
  1  4  1  0  0  0  0
  1 12  1  0  0  0  0
  2  6  1  0  0  0  0
  3  4  2  0  0  0  0
  3  5  1  0  0  0  0
  5  6  2  0  0  0  0
  5  9  1  0  0  0  0
  6  7  1  0  0  0  0
  7  8  1  0  0  0  0
  7 10  2  3  0  0  0
  8  9  2  0  0  0  0
 10 14  1  0  0  0  0
 11 12  2  0  0  0  0
 12 13  1  0  0  0  0
 14 15  2  0  0  0  0
 14 19  1  0  0  0  0
 15 16  1  0  0  0  0
 16 17  2  0  0  0  0
 17 18  1  0  0  0  0
 17 20  1  0  0  0  0
 18 19  2  0  0  0  0
 20 21  1  0  0  0  0
 20 24  1  0  0  0  0
 21 22  1  0  0  0  0
 22 23  1  0  0  0  0
 22 25  1  0  0  0  0
 23 24  2  0  0  0  0
  2 26  1  0  0  0  0
  3 27  1  0  0  0  0
  4 28  1  0  0  0  0
 10 29  1  0  0  0  0
 11 30  1  0  0  0  0
 13 31  1  0  0  0  0
 15 32  1  0  0  0  0
 16 33  1  0  0  0  0
 18 34  1  0  0  0  0
 19 35  1  0  0  0  0
 20 36  1  0  0  0  0
 21 37  1  0  0  0  0
 21 38  1  0  0  0  0
 24 39  1  0  0  0  0
 25 40  1  0  0  0  0
 25 41  1  0  0  0  0
 25 42  1  0  0  0  0
M  END
> <Name>
32

> <IC50[uM]>
0.11

$$$$
32
  -OEChem-05192314333D
 Structure written by MMmdl.
 42 45  0     1  0  0  0  0  0999 V2000
   -6.3767   12.3649  -12.0150 C   0  0  0  0  0  0  0  0  0  0  0  0
   -6.5300   11.8201  -10.7355 C   0  0  0  0  0  0  0  0  0  0  0  0
   -7.7235   10.5758  -13.0283 C   0  0  0  0  0  0  0  0  0  0  0  0
   -6.9848   11.7731  -13.1297 C   0  0  0  0  0  0  0  0  0  0  0  0
   -7.8178   10.0121  -11.7526 C   0  0  0  0  0  0  0  0  0  0  0  0
   -7.2522   10.6205  -10.6098 C   0  0  0  0  0  0  0  0  0  0  0  0
   -7.6101    9.7439   -9.5117 C   0  0  0  0  0  0  0  0  0  0  0  0
   -8.2784    8.7249   -9.9778 N   0  0  0  0  0  0  0  0  0  0  0  0
   -8.4134    8.8570  -11.2978 N   0  0  0  0  0  0  0  0  0  0  0  0
   -7.3337    9.8935   -8.0288 C   0  0  0  0  0  0  0  0  0  0  0  0
   -4.4165   13.6746  -11.4876 N   0  0  0  0  0  0  0  0  0  0  0  0
   -5.5534   13.6276  -12.1919 C   0  0  0  0  0  0  0  0  0  0  0  0
   -5.9234   14.5178  -12.9405 O   0  0  0  0  0  0  0  0  0  0  0  0
   -5.9640   10.4853   -7.7356 C   0  0  0  0  0  0  0  0  0  0  0  0
   -4.8116    9.7640   -8.0536 C   0  0  0  0  0  0  0  0  0  0  0  0
   -3.5500   10.3127   -7.8058 C   0  0  0  0  0  0  0  0  0  0  0  0
   -3.4411   11.5873   -7.2364 C   0  0  0  0  0  0  0  0  0  0  0  0
   -4.5925   12.3023   -6.9174 C   0  0  0  0  0  0  0  0  0  0  0  0
   -5.8510   11.7510   -7.1622 C   0  0  0  0  0  0  0  0  0  0  0  0
   -2.0968   12.1763   -6.9669 C   0  0  0  0  0  0  0  0  0  0  0  0
   -1.7702   13.4221   -6.4317 C   0  0  0  0  0  0  0  0  0  0  0  0
   -0.4283   13.4864   -6.3849 N   0  0  3  0  0  0  0  0  0  0  0  0
    0.1730   12.4042   -6.8287 N   0  0  0  0  0  0  0  0  0  0  0  0
   -0.8019   11.5974   -7.2024 C   0  0  0  0  0  0  0  0  0  0  0  0
    0.3914   14.5951   -5.9029 C   0  0  0  0  0  0  0  0  0  0  0  0
   -6.1059   12.3069   -9.8697 H   0  0  0  0  0  0  0  0  0  0  0  0
   -8.1905   10.1197  -13.8887 H   0  0  0  0  0  0  0  0  0  0  0  0
   -6.8851   12.2475  -14.0948 H   0  0  0  0  0  0  0  0  0  0  0  0
   -8.0369    9.6092   -7.2600 H   0  0  0  0  0  0  0  0  0  0  0  0
   -3.8167   14.4716  -11.5590 H   0  0  0  0  0  0  0  0  0  0  0  0
   -4.1667   12.9127  -10.8899 H   0  0  0  0  0  0  0  0  0  0  0  0
   -4.8950    8.7804   -8.4918 H   0  0  0  0  0  0  0  0  0  0  0  0
   -2.6597    9.7538   -8.0534 H   0  0  0  0  0  0  0  0  0  0  0  0
   -4.5115   13.2861   -6.4794 H   0  0  0  0  0  0  0  0  0  0  0  0
   -6.7408   12.3071   -6.9064 H   0  0  0  0  0  0  0  0  0  0  0  0
   -2.4626   14.1882   -6.1155 H   0  0  0  0  0  0  0  0  0  0  0  0
    0.7636   12.6242   -7.6051 H   0  0  0  0  0  0  0  0  0  0  0  0
   -0.7236   10.6583   -6.6349 H   0  0  0  0  0  0  0  0  0  0  0  0
   -0.6968   11.3864   -8.2768 H   0  0  0  0  0  0  0  0  0  0  0  0
    1.4556   14.3335   -5.9983 H   0  0  0  0  0  0  0  0  0  0  0  0
    0.1799   15.4941   -6.5004 H   0  0  0  0  0  0  0  0  0  0  0  0
    0.1558   14.7930   -4.8468 H   0  0  0  0  0  0  0  0  0  0  0  0
  1  2  2  0  0  0  0
  1  4  1  0  0  0  0
  1 12  1  0  0  0  0
  2  6  1  0  0  0  0
  3  4  2  0  0  0  0
  3  5  1  0  0  0  0
  5  6  2  0  0  0  0
  5  9  1  0  0  0  0
  6  7  1  0  0  0  0
  7  8  1  0  0  0  0
  7 10  2  3  0  0  0
  8  9  2  0  0  0  0
 10 14  1  0  0  0  0
 11 12  1  0  0  0  0
 12 13  2  0  0  0  0
 14 15  2  0  0  0  0
 14 19  1  0  0  0  0
 15 16  1  0  0  0  0
 16 17  2  0  0  0  0
 17 18  1  0  0  0  0
 17 20  1  0  0  0  0
 18 19  2  0  0  0  0
 20 21  2  0  0  0  0
 20 24  1  0  0  0  0
 21 22  1  0  0  0  0
 22 23  1  0  0  0  0
 22 25  1  0  0  0  0
 23 24  1  0  0  0  0
  2 26  1  0  0  0  0
  3 27  1  0  0  0  0
  4 28  1  0  0  0  0
 10 29  1  0  0  0  0
 11 30  1  0  0  0  0
 11 31  1  0  0  0  0
 15 32  1  0  0  0  0
 16 33  1  0  0  0  0
 18 34  1  0  0  0  0
 19 35  1  0  0  0  0
 21 36  1  0  0  0  0
 23 37  1  0  0  0  0
 24 38  1  0  0  0  0
 24 39  1  0  0  0  0
 25 40  1  0  0  0  0
 25 41  1  0  0  0  0
 25 42  1  0  0  0  0
M  END
> <Name>
32

> <IC50[uM]>
0.11

$$$$
32
  -OEChem-05192314333D
 Structure written by MMmdl.
 42 45  0     1  0  0  0  0  0999 V2000
   -6.3767   12.3649  -12.0150 C   0  0  0  0  0  0  0  0  0  0  0  0
   -6.5300   11.8201  -10.7355 C   0  0  0  0  0  0  0  0  0  0  0  0
   -7.7235   10.5758  -13.0283 C   0  0  0  0  0  0  0  0  0  0  0  0
   -6.9848   11.7731  -13.1297 C   0  0  0  0  0  0  0  0  0  0  0  0
   -7.8178   10.0121  -11.7526 C   0  0  0  0  0  0  0  0  0  0  0  0
   -7.2522   10.6205  -10.6098 C   0  0  0  0  0  0  0  0  0  0  0  0
   -7.6101    9.7439   -9.5117 C   0  0  0  0  0  0  0  0  0  0  0  0
   -8.2784    8.7249   -9.9778 N   0  0  0  0  0  0  0  0  0  0  0  0
   -8.4134    8.8570  -11.2978 N   0  0  0  0  0  0  0  0  0  0  0  0
   -7.3337    9.8935   -8.0288 C   0  0  0  0  0  0  0  0  0  0  0  0
   -4.4165   13.6746  -11.4876 N   0  0  0  0  0  0  0  0  0  0  0  0
   -5.5534   13.6276  -12.1919 C   0  0  0  0  0  0  0  0  0  0  0  0
   -5.9234   14.5178  -12.9405 O   0  0  0  0  0  0  0  0  0  0  0  0
   -5.9640   10.4853   -7.7356 C   0  0  0  0  0  0  0  0  0  0  0  0
   -4.8116    9.7640   -8.0536 C   0  0  0  0  0  0  0  0  0  0  0  0
   -3.5500   10.3127   -7.8058 C   0  0  0  0  0  0  0  0  0  0  0  0
   -3.4411   11.5873   -7.2364 C   0  0  0  0  0  0  0  0  0  0  0  0
   -4.5925   12.3023   -6.9174 C   0  0  0  0  0  0  0  0  0  0  0  0
   -5.8510   11.7510   -7.1622 C   0  0  0  0  0  0  0  0  0  0  0  0
   -2.0968   12.1763   -6.9669 C   0  0  0  0  0  0  0  0  0  0  0  0
   -1.7702   13.4221   -6.4317 C   0  0  0  0  0  0  0  0  0  0  0  0
   -0.4283   13.4864   -6.3849 N   0  0  3  0  0  0  0  0  0  0  0  0
    0.1730   12.4042   -6.8287 N   0  0  0  0  0  0  0  0  0  0  0  0
   -0.8019   11.5974   -7.2024 C   0  0  0  0  0  0  0  0  0  0  0  0
    0.3914   14.5951   -5.9029 C   0  0  0  0  0  0  0  0  0  0  0  0
   -6.1059   12.3069   -9.8697 H   0  0  0  0  0  0  0  0  0  0  0  0
   -8.1905   10.1197  -13.8887 H   0  0  0  0  0  0  0  0  0  0  0  0
   -6.8851   12.2475  -14.0948 H   0  0  0  0  0  0  0  0  0  0  0  0
   -8.0369    9.6092   -7.2600 H   0  0  0  0  0  0  0  0  0  0  0  0
   -3.8167   14.4716  -11.5590 H   0  0  0  0  0  0  0  0  0  0  0  0
   -4.1667   12.9127  -10.8899 H   0  0  0  0  0  0  0  0  0  0  0  0
   -4.8950    8.7804   -8.4918 H   0  0  0  0  0  0  0  0  0  0  0  0
   -2.6597    9.7538   -8.0534 H   0  0  0  0  0  0  0  0  0  0  0  0
   -4.5115   13.2861   -6.4794 H   0  0  0  0  0  0  0  0  0  0  0  0
   -6.7408   12.3071   -6.9064 H   0  0  0  0  0  0  0  0  0  0  0  0
   -2.1654   14.2245   -7.0720 H   0  0  0  0  0  0  0  0  0  0  0  0
   -2.1893   13.5208   -5.4195 H   0  0  0  0  0  0  0  0  0  0  0  0
    0.7636   12.6242   -7.6051 H   0  0  0  0  0  0  0  0  0  0  0  0
   -0.6459   10.6195   -7.6335 H   0  0  0  0  0  0  0  0  0  0  0  0
    1.4556   14.3335   -5.9983 H   0  0  0  0  0  0  0  0  0  0  0  0
    0.1799   15.4941   -6.5004 H   0  0  0  0  0  0  0  0  0  0  0  0
    0.1558   14.7930   -4.8468 H   0  0  0  0  0  0  0  0  0  0  0  0
  1  2  2  0  0  0  0
  1  4  1  0  0  0  0
  1 12  1  0  0  0  0
  2  6  1  0  0  0  0
  3  4  2  0  0  0  0
  3  5  1  0  0  0  0
  5  6  2  0  0  0  0
  5  9  1  0  0  0  0
  6  7  1  0  0  0  0
  7  8  1  0  0  0  0
  7 10  2  3  0  0  0
  8  9  2  0  0  0  0
 10 14  1  0  0  0  0
 11 12  1  0  0  0  0
 12 13  2  0  0  0  0
 14 15  2  0  0  0  0
 14 19  1  0  0  0  0
 15 16  1  0  0  0  0
 16 17  2  0  0  0  0
 17 18  1  0  0  0  0
 17 20  1  0  0  0  0
 18 19  2  0  0  0  0
 20 21  1  0  0  0  0
 20 24  2  0  0  0  0
 21 22  1  0  0  0  0
 22 23  1  0  0  0  0
 22 25  1  0  0  0  0
 23 24  1  0  0  0  0
  2 26  1  0  0  0  0
  3 27  1  0  0  0  0
  4 28  1  0  0  0  0
 10 29  1  0  0  0  0
 11 30  1  0  0  0  0
 11 31  1  0  0  0  0
 15 32  1  0  0  0  0
 16 33  1  0  0  0  0
 18 34  1  0  0  0  0
 19 35  1  0  0  0  0
 21 36  1  0  0  0  0
 21 37  1  0  0  0  0
 23 38  1  0  0  0  0
 24 39  1  0  0  0  0
 25 40  1  0  0  0  0
 25 41  1  0  0  0  0
 25 42  1  0  0  0  0
M  END
> <Name>
32

> <IC50[uM]>
0.11

$$$$
32
  -OEChem-05192314333D
 Structure written by MMmdl.
 42 45  0     1  0  0  0  0  0999 V2000
   -6.3767   12.3649  -12.0150 C   0  0  0  0  0  0  0  0  0  0  0  0
   -6.5300   11.8201  -10.7355 C   0  0  0  0  0  0  0  0  0  0  0  0
   -7.7235   10.5758  -13.0283 C   0  0  0  0  0  0  0  0  0  0  0  0
   -6.9848   11.7731  -13.1297 C   0  0  0  0  0  0  0  0  0  0  0  0
   -7.8178   10.0121  -11.7526 C   0  0  0  0  0  0  0  0  0  0  0  0
   -7.2522   10.6205  -10.6098 C   0  0  0  0  0  0  0  0  0  0  0  0
   -7.6101    9.7439   -9.5117 C   0  0  0  0  0  0  0  0  0  0  0  0
   -8.2784    8.7249   -9.9778 N   0  0  0  0  0  0  0  0  0  0  0  0
   -8.4134    8.8570  -11.2978 N   0  0  0  0  0  0  0  0  0  0  0  0
   -7.3337    9.8935   -8.0288 C   0  0  0  0  0  0  0  0  0  0  0  0
   -4.4165   13.6746  -11.4876 N   0  0  0  0  0  0  0  0  0  0  0  0
   -5.5534   13.6276  -12.1919 C   0  0  0  0  0  0  0  0  0  0  0  0
   -5.9234   14.5178  -12.9405 O   0  0  0  0  0  0  0  0  0  0  0  0
   -5.9640   10.4853   -7.7356 C   0  0  0  0  0  0  0  0  0  0  0  0
   -4.8116    9.7640   -8.0536 C   0  0  0  0  0  0  0  0  0  0  0  0
   -3.5500   10.3127   -7.8058 C   0  0  0  0  0  0  0  0  0  0  0  0
   -3.4411   11.5873   -7.2364 C   0  0  0  0  0  0  0  0  0  0  0  0
   -4.5925   12.3023   -6.9174 C   0  0  0  0  0  0  0  0  0  0  0  0
   -5.8510   11.7510   -7.1622 C   0  0  0  0  0  0  0  0  0  0  0  0
   -2.0968   12.1763   -6.9669 C   0  0  0  0  0  0  0  0  0  0  0  0
   -1.7702   13.4221   -6.4317 C   0  0  0  0  0  0  0  0  0  0  0  0
   -0.4283   13.4864   -6.3849 N   0  0  3  0  0  0  0  0  0  0  0  0
    0.1730   12.4042   -6.8287 N   0  0  0  0  0  0  0  0  0  0  0  0
   -0.8019   11.5974   -7.2024 C   0  0  0  0  0  0  0  0  0  0  0  0
    0.3914   14.5951   -5.9029 C   0  0  0  0  0  0  0  0  0  0  0  0
   -6.1059   12.3069   -9.8697 H   0  0  0  0  0  0  0  0  0  0  0  0
   -8.1905   10.1197  -13.8887 H   0  0  0  0  0  0  0  0  0  0  0  0
   -6.8851   12.2475  -14.0948 H   0  0  0  0  0  0  0  0  0  0  0  0
   -8.0369    9.6092   -7.2600 H   0  0  0  0  0  0  0  0  0  0  0  0
   -3.9109   14.5222  -11.6486 H   0  0  0  0  0  0  0  0  0  0  0  0
   -5.2907   15.2263  -12.9277 H   0  0  0  0  0  0  0  0  0  0  0  0
   -4.8950    8.7804   -8.4918 H   0  0  0  0  0  0  0  0  0  0  0  0
   -2.6597    9.7538   -8.0534 H   0  0  0  0  0  0  0  0  0  0  0  0
   -4.5115   13.2861   -6.4794 H   0  0  0  0  0  0  0  0  0  0  0  0
   -6.7408   12.3071   -6.9064 H   0  0  0  0  0  0  0  0  0  0  0  0
   -2.4626   14.1882   -6.1155 H   0  0  0  0  0  0  0  0  0  0  0  0
    0.7636   12.6242   -7.6051 H   0  0  0  0  0  0  0  0  0  0  0  0
   -0.7236   10.6583   -6.6349 H   0  0  0  0  0  0  0  0  0  0  0  0
   -0.6968   11.3864   -8.2768 H   0  0  0  0  0  0  0  0  0  0  0  0
    1.4556   14.3335   -5.9983 H   0  0  0  0  0  0  0  0  0  0  0  0
    0.1799   15.4941   -6.5004 H   0  0  0  0  0  0  0  0  0  0  0  0
    0.1558   14.7930   -4.8468 H   0  0  0  0  0  0  0  0  0  0  0  0
  1  2  2  0  0  0  0
  1  4  1  0  0  0  0
  1 12  1  0  0  0  0
  2  6  1  0  0  0  0
  3  4  2  0  0  0  0
  3  5  1  0  0  0  0
  5  6  2  0  0  0  0
  5  9  1  0  0  0  0
  6  7  1  0  0  0  0
  7  8  1  0  0  0  0
  7 10  2  3  0  0  0
  8  9  2  0  0  0  0
 10 14  1  0  0  0  0
 11 12  2  0  0  0  0
 12 13  1  0  0  0  0
 14 15  2  0  0  0  0
 14 19  1  0  0  0  0
 15 16  1  0  0  0  0
 16 17  2  0  0  0  0
 17 18  1  0  0  0  0
 17 20  1  0  0  0  0
 18 19  2  0  0  0  0
 20 21  2  0  0  0  0
 20 24  1  0  0  0  0
 21 22  1  0  0  0  0
 22 23  1  0  0  0  0
 22 25  1  0  0  0  0
 23 24  1  0  0  0  0
  2 26  1  0  0  0  0
  3 27  1  0  0  0  0
  4 28  1  0  0  0  0
 10 29  1  0  0  0  0
 11 30  1  0  0  0  0
 13 31  1  0  0  0  0
 15 32  1  0  0  0  0
 16 33  1  0  0  0  0
 18 34  1  0  0  0  0
 19 35  1  0  0  0  0
 21 36  1  0  0  0  0
 23 37  1  0  0  0  0
 24 38  1  0  0  0  0
 24 39  1  0  0  0  0
 25 40  1  0  0  0  0
 25 41  1  0  0  0  0
 25 42  1  0  0  0  0
M  END
> <Name>
32

> <IC50[uM]>
0.11

$$$$
32
  -OEChem-05192314333D
 Structure written by MMmdl.
 42 45  0     1  0  0  0  0  0999 V2000
   -6.3767   12.3649  -12.0150 C   0  0  0  0  0  0  0  0  0  0  0  0
   -6.5300   11.8201  -10.7355 C   0  0  0  0  0  0  0  0  0  0  0  0
   -7.7235   10.5758  -13.0283 C   0  0  0  0  0  0  0  0  0  0  0  0
   -6.9848   11.7731  -13.1297 C   0  0  0  0  0  0  0  0  0  0  0  0
   -7.8178   10.0121  -11.7526 C   0  0  0  0  0  0  0  0  0  0  0  0
   -7.2522   10.6205  -10.6098 C   0  0  0  0  0  0  0  0  0  0  0  0
   -7.6101    9.7439   -9.5117 C   0  0  0  0  0  0  0  0  0  0  0  0
   -8.2784    8.7249   -9.9778 N   0  0  0  0  0  0  0  0  0  0  0  0
   -8.4134    8.8570  -11.2978 N   0  0  0  0  0  0  0  0  0  0  0  0
   -7.3337    9.8935   -8.0288 C   0  0  0  0  0  0  0  0  0  0  0  0
   -4.4165   13.6746  -11.4876 N   0  0  0  0  0  0  0  0  0  0  0  0
   -5.5534   13.6276  -12.1919 C   0  0  0  0  0  0  0  0  0  0  0  0
   -5.9234   14.5178  -12.9405 O   0  0  0  0  0  0  0  0  0  0  0  0
   -5.9640   10.4853   -7.7356 C   0  0  0  0  0  0  0  0  0  0  0  0
   -4.8116    9.7640   -8.0536 C   0  0  0  0  0  0  0  0  0  0  0  0
   -3.5500   10.3127   -7.8058 C   0  0  0  0  0  0  0  0  0  0  0  0
   -3.4411   11.5873   -7.2364 C   0  0  0  0  0  0  0  0  0  0  0  0
   -4.5925   12.3023   -6.9174 C   0  0  0  0  0  0  0  0  0  0  0  0
   -5.8510   11.7510   -7.1622 C   0  0  0  0  0  0  0  0  0  0  0  0
   -2.0968   12.1763   -6.9669 C   0  0  0  0  0  0  0  0  0  0  0  0
   -1.7702   13.4221   -6.4317 C   0  0  0  0  0  0  0  0  0  0  0  0
   -0.4283   13.4864   -6.3849 N   0  0  3  0  0  0  0  0  0  0  0  0
    0.1730   12.4042   -6.8287 N   0  0  0  0  0  0  0  0  0  0  0  0
   -0.8019   11.5974   -7.2024 C   0  0  0  0  0  0  0  0  0  0  0  0
    0.3914   14.5951   -5.9029 C   0  0  0  0  0  0  0  0  0  0  0  0
   -6.1059   12.3069   -9.8697 H   0  0  0  0  0  0  0  0  0  0  0  0
   -8.1905   10.1197  -13.8887 H   0  0  0  0  0  0  0  0  0  0  0  0
   -6.8851   12.2475  -14.0948 H   0  0  0  0  0  0  0  0  0  0  0  0
   -8.0369    9.6092   -7.2600 H   0  0  0  0  0  0  0  0  0  0  0  0
   -3.9109   14.5222  -11.6486 H   0  0  0  0  0  0  0  0  0  0  0  0
   -5.2907   15.2263  -12.9277 H   0  0  0  0  0  0  0  0  0  0  0  0
   -4.8950    8.7804   -8.4918 H   0  0  0  0  0  0  0  0  0  0  0  0
   -2.6597    9.7538   -8.0534 H   0  0  0  0  0  0  0  0  0  0  0  0
   -4.5115   13.2861   -6.4794 H   0  0  0  0  0  0  0  0  0  0  0  0
   -6.7408   12.3071   -6.9064 H   0  0  0  0  0  0  0  0  0  0  0  0
   -2.1654   14.2245   -7.0720 H   0  0  0  0  0  0  0  0  0  0  0  0
   -2.1893   13.5208   -5.4195 H   0  0  0  0  0  0  0  0  0  0  0  0
    0.7636   12.6242   -7.6051 H   0  0  0  0  0  0  0  0  0  0  0  0
   -0.6459   10.6195   -7.6335 H   0  0  0  0  0  0  0  0  0  0  0  0
    1.4556   14.3335   -5.9983 H   0  0  0  0  0  0  0  0  0  0  0  0
    0.1799   15.4941   -6.5004 H   0  0  0  0  0  0  0  0  0  0  0  0
    0.1558   14.7930   -4.8468 H   0  0  0  0  0  0  0  0  0  0  0  0
  1  2  2  0  0  0  0
  1  4  1  0  0  0  0
  1 12  1  0  0  0  0
  2  6  1  0  0  0  0
  3  4  2  0  0  0  0
  3  5  1  0  0  0  0
  5  6  2  0  0  0  0
  5  9  1  0  0  0  0
  6  7  1  0  0  0  0
  7  8  1  0  0  0  0
  7 10  2  3  0  0  0
  8  9  2  0  0  0  0
 10 14  1  0  0  0  0
 11 12  2  0  0  0  0
 12 13  1  0  0  0  0
 14 15  2  0  0  0  0
 14 19  1  0  0  0  0
 15 16  1  0  0  0  0
 16 17  2  0  0  0  0
 17 18  1  0  0  0  0
 17 20  1  0  0  0  0
 18 19  2  0  0  0  0
 20 21  1  0  0  0  0
 20 24  2  0  0  0  0
 21 22  1  0  0  0  0
 22 23  1  0  0  0  0
 22 25  1  0  0  0  0
 23 24  1  0  0  0  0
  2 26  1  0  0  0  0
  3 27  1  0  0  0  0
  4 28  1  0  0  0  0
 10 29  1  0  0  0  0
 11 30  1  0  0  0  0
 13 31  1  0  0  0  0
 15 32  1  0  0  0  0
 16 33  1  0  0  0  0
 18 34  1  0  0  0  0
 19 35  1  0  0  0  0
 21 36  1  0  0  0  0
 21 37  1  0  0  0  0
 23 38  1  0  0  0  0
 24 39  1  0  0  0  0
 25 40  1  0  0  0  0
 25 41  1  0  0  0  0
 25 42  1  0  0  0  0
M  END
> <Name>
32

> <IC50[uM]>
0.11

$$$$
32
  -OEChem-05192314333D
 Structure written by MMmdl.
 42 45  0     1  0  0  0  0  0999 V2000
   -6.3767   12.3649  -12.0150 C   0  0  0  0  0  0  0  0  0  0  0  0
   -6.5300   11.8201  -10.7355 C   0  0  0  0  0  0  0  0  0  0  0  0
   -7.7235   10.5758  -13.0283 C   0  0  0  0  0  0  0  0  0  0  0  0
   -6.9848   11.7731  -13.1297 C   0  0  0  0  0  0  0  0  0  0  0  0
   -7.8178   10.0121  -11.7526 C   0  0  0  0  0  0  0  0  0  0  0  0
   -7.2522   10.6205  -10.6098 C   0  0  0  0  0  0  0  0  0  0  0  0
   -7.6101    9.7439   -9.5117 C   0  0  3  0  0  0  0  0  0  0  0  0
   -8.2784    8.7249   -9.9778 N   0  0  0  0  0  0  0  0  0  0  0  0
   -8.4134    8.8570  -11.2978 N   0  0  0  0  0  0  0  0  0  0  0  0
   -7.3337    9.8935   -8.0288 C   0  0  0  0  0  0  0  0  0  0  0  0
   -4.4165   13.6746  -11.4876 N   0  0  0  0  0  0  0  0  0  0  0  0
   -5.5534   13.6276  -12.1919 C   0  0  0  0  0  0  0  0  0  0  0  0
   -5.9234   14.5178  -12.9405 O   0  0  0  0  0  0  0  0  0  0  0  0
   -5.9640   10.4853   -7.7356 C   0  0  0  0  0  0  0  0  0  0  0  0
   -4.8116    9.7640   -8.0536 C   0  0  0  0  0  0  0  0  0  0  0  0
   -3.5500   10.3127   -7.8058 C   0  0  0  0  0  0  0  0  0  0  0  0
   -3.4411   11.5873   -7.2364 C   0  0  0  0  0  0  0  0  0  0  0  0
   -4.5925   12.3023   -6.9174 C   0  0  0  0  0  0  0  0  0  0  0  0
   -5.8510   11.7510   -7.1622 C   0  0  0  0  0  0  0  0  0  0  0  0
   -2.0968   12.1763   -6.9669 C   0  0  0  0  0  0  0  0  0  0  0  0
   -1.7702   13.4221   -6.4317 C   0  0  0  0  0  0  0  0  0  0  0  0
   -0.4283   13.4864   -6.3849 N   0  0  3  0  0  0  0  0  0  0  0  0
    0.1730   12.4042   -6.8287 N   0  0  0  0  0  0  0  0  0  0  0  0
   -0.8019   11.5974   -7.2024 C   0  0  0  0  0  0  0  0  0  0  0  0
    0.3914   14.5951   -5.9029 C   0  0  0  0  0  0  0  0  0  0  0  0
   -6.1059   12.3069   -9.8697 H   0  0  0  0  0  0  0  0  0  0  0  0
   -8.1905   10.1197  -13.8887 H   0  0  0  0  0  0  0  0  0  0  0  0
   -6.8851   12.2475  -14.0948 H   0  0  0  0  0  0  0  0  0  0  0  0
   -6.6672    9.1915   -9.6375 H   0  0  0  0  0  0  0  0  0  0  0  0
   -8.0369    9.6092   -7.2600 H   0  0  0  0  0  0  0  0  0  0  0  0
   -3.8167   14.4716  -11.5590 H   0  0  0  0  0  0  0  0  0  0  0  0
   -4.1667   12.9127  -10.8899 H   0  0  0  0  0  0  0  0  0  0  0  0
   -4.8950    8.7804   -8.4918 H   0  0  0  0  0  0  0  0  0  0  0  0
   -2.6597    9.7538   -8.0534 H   0  0  0  0  0  0  0  0  0  0  0  0
   -4.5115   13.2861   -6.4794 H   0  0  0  0  0  0  0  0  0  0  0  0
   -6.7408   12.3071   -6.9064 H   0  0  0  0  0  0  0  0  0  0  0  0
   -2.1654   14.2245   -7.0720 H   0  0  0  0  0  0  0  0  0  0  0  0
   -2.1893   13.5208   -5.4195 H   0  0  0  0  0  0  0  0  0  0  0  0
   -0.6459   10.6195   -7.6335 H   0  0  0  0  0  0  0  0  0  0  0  0
    1.4555   14.3315   -5.9935 H   0  0  0  0  0  0  0  0  0  0  0  0
    0.1837   15.4928   -6.5038 H   0  0  0  0  0  0  0  0  0  0  0  0
    0.1522   14.7964   -4.8483 H   0  0  0  0  0  0  0  0  0  0  0  0
  1  2  2  0  0  0  0
  1  4  1  0  0  0  0
  1 12  1  0  0  0  0
  2  6  1  0  0  0  0
  3  4  2  0  0  0  0
  3  5  1  0  0  0  0
  5  6  2  0  0  0  0
  5  9  1  0  0  0  0
  6  7  1  0  0  0  0
  7  8  1  0  0  0  0
  7 10  1  0  0  0  0
  8  9  2  0  0  0  0
 10 14  2  0  0  0  0
 11 12  1  0  0  0  0
 12 13  2  0  0  0  0
 14 15  1  0  0  0  0
 14 19  1  0  0  0  0
 15 16  2  0  0  0  0
 16 17  1  0  0  0  0
 17 18  1  0  0  0  0
 17 20  2  0  0  0  0
 18 19  2  0  0  0  0
 20 21  1  0  0  0  0
 20 24  1  0  0  0  0
 21 22  1  0  0  0  0
 22 23  1  0  0  0  0
 22 25  1  0  0  0  0
 23 24  2  0  0  0  0
  2 26  1  0  0  0  0
  3 27  1  0  0  0  0
  4 28  1  0  0  0  0
  7 29  1  0  0  0  0
 10 30  1  0  0  0  0
 11 31  1  0  0  0  0
 11 32  1  0  0  0  0
 15 33  1  0  0  0  0
 16 34  1  0  0  0  0
 18 35  1  0  0  0  0
 19 36  1  0  0  0  0
 21 37  1  0  0  0  0
 21 38  1  0  0  0  0
 24 39  1  0  0  0  0
 25 40  1  0  0  0  0
 25 41  1  0  0  0  0
 25 42  1  0  0  0  0
M  END
> <Name>
32

> <IC50[uM]>
0.11

$$$$
32
  -OEChem-05192314333D
 Structure written by MMmdl.
 42 45  0     1  0  0  0  0  0999 V2000
   -6.3767   12.3649  -12.0150 C   0  0  0  0  0  0  0  0  0  0  0  0
   -6.5300   11.8201  -10.7355 C   0  0  0  0  0  0  0  0  0  0  0  0
   -7.7235   10.5758  -13.0283 C   0  0  0  0  0  0  0  0  0  0  0  0
   -6.9848   11.7731  -13.1297 C   0  0  0  0  0  0  0  0  0  0  0  0
   -7.8178   10.0121  -11.7526 C   0  0  0  0  0  0  0  0  0  0  0  0
   -7.2522   10.6205  -10.6098 C   0  0  0  0  0  0  0  0  0  0  0  0
   -7.6101    9.7439   -9.5117 C   0  0  3  0  0  0  0  0  0  0  0  0
   -8.2784    8.7249   -9.9778 N   0  0  0  0  0  0  0  0  0  0  0  0
   -8.4134    8.8570  -11.2978 N   0  0  0  0  0  0  0  0  0  0  0  0
   -7.3337    9.8935   -8.0288 C   0  0  0  0  0  0  0  0  0  0  0  0
   -4.4165   13.6746  -11.4876 N   0  0  0  0  0  0  0  0  0  0  0  0
   -5.5534   13.6276  -12.1919 C   0  0  0  0  0  0  0  0  0  0  0  0
   -5.9234   14.5178  -12.9405 O   0  0  0  0  0  0  0  0  0  0  0  0
   -5.9640   10.4853   -7.7356 C   0  0  0  0  0  0  0  0  0  0  0  0
   -4.8116    9.7640   -8.0536 C   0  0  0  0  0  0  0  0  0  0  0  0
   -3.5500   10.3127   -7.8058 C   0  0  0  0  0  0  0  0  0  0  0  0
   -3.4411   11.5873   -7.2364 C   0  0  0  0  0  0  0  0  0  0  0  0
   -4.5925   12.3023   -6.9174 C   0  0  0  0  0  0  0  0  0  0  0  0
   -5.8510   11.7510   -7.1622 C   0  0  0  0  0  0  0  0  0  0  0  0
   -2.0968   12.1763   -6.9669 C   0  0  0  0  0  0  0  0  0  0  0  0
   -1.7702   13.4221   -6.4317 C   0  0  0  0  0  0  0  0  0  0  0  0
   -0.4283   13.4864   -6.3849 N   0  0  3  0  0  0  0  0  0  0  0  0
    0.1730   12.4042   -6.8287 N   0  0  0  0  0  0  0  0  0  0  0  0
   -0.8019   11.5974   -7.2024 C   0  0  0  0  0  0  0  0  0  0  0  0
    0.3914   14.5951   -5.9029 C   0  0  0  0  0  0  0  0  0  0  0  0
   -6.1059   12.3069   -9.8697 H   0  0  0  0  0  0  0  0  0  0  0  0
   -8.1905   10.1197  -13.8887 H   0  0  0  0  0  0  0  0  0  0  0  0
   -6.8851   12.2475  -14.0948 H   0  0  0  0  0  0  0  0  0  0  0  0
   -6.6672    9.1915   -9.6375 H   0  0  0  0  0  0  0  0  0  0  0  0
   -8.0369    9.6092   -7.2600 H   0  0  0  0  0  0  0  0  0  0  0  0
   -3.9109   14.5222  -11.6486 H   0  0  0  0  0  0  0  0  0  0  0  0
   -5.2907   15.2263  -12.9277 H   0  0  0  0  0  0  0  0  0  0  0  0
   -4.8950    8.7804   -8.4918 H   0  0  0  0  0  0  0  0  0  0  0  0
   -2.6597    9.7538   -8.0534 H   0  0  0  0  0  0  0  0  0  0  0  0
   -4.5115   13.2861   -6.4794 H   0  0  0  0  0  0  0  0  0  0  0  0
   -6.7408   12.3071   -6.9064 H   0  0  0  0  0  0  0  0  0  0  0  0
   -2.1654   14.2245   -7.0720 H   0  0  0  0  0  0  0  0  0  0  0  0
   -2.1893   13.5208   -5.4195 H   0  0  0  0  0  0  0  0  0  0  0  0
   -0.6459   10.6195   -7.6335 H   0  0  0  0  0  0  0  0  0  0  0  0
    1.4555   14.3315   -5.9935 H   0  0  0  0  0  0  0  0  0  0  0  0
    0.1837   15.4928   -6.5038 H   0  0  0  0  0  0  0  0  0  0  0  0
    0.1522   14.7964   -4.8483 H   0  0  0  0  0  0  0  0  0  0  0  0
  1  2  2  0  0  0  0
  1  4  1  0  0  0  0
  1 12  1  0  0  0  0
  2  6  1  0  0  0  0
  3  4  2  0  0  0  0
  3  5  1  0  0  0  0
  5  6  2  0  0  0  0
  5  9  1  0  0  0  0
  6  7  1  0  0  0  0
  7  8  1  0  0  0  0
  7 10  1  0  0  0  0
  8  9  2  0  0  0  0
 10 14  2  0  0  0  0
 11 12  2  0  0  0  0
 12 13  1  0  0  0  0
 14 15  1  0  0  0  0
 14 19  1  0  0  0  0
 15 16  2  0  0  0  0
 16 17  1  0  0  0  0
 17 18  1  0  0  0  0
 17 20  2  0  0  0  0
 18 19  2  0  0  0  0
 20 21  1  0  0  0  0
 20 24  1  0  0  0  0
 21 22  1  0  0  0  0
 22 23  1  0  0  0  0
 22 25  1  0  0  0  0
 23 24  2  0  0  0  0
  2 26  1  0  0  0  0
  3 27  1  0  0  0  0
  4 28  1  0  0  0  0
  7 29  1  0  0  0  0
 10 30  1  0  0  0  0
 11 31  1  0  0  0  0
 13 32  1  0  0  0  0
 15 33  1  0  0  0  0
 16 34  1  0  0  0  0
 18 35  1  0  0  0  0
 19 36  1  0  0  0  0
 21 37  1  0  0  0  0
 21 38  1  0  0  0  0
 24 39  1  0  0  0  0
 25 40  1  0  0  0  0
 25 41  1  0  0  0  0
 25 42  1  0  0  0  0
M  END
> <Name>
32

> <IC50[uM]>
0.11

$$$$
32
  -OEChem-05192314333D
 Structure written by MMmdl.
 42 45  0     1  0  0  0  0  0999 V2000
   -6.3767   12.3649  -12.0150 C   0  0  3  0  0  0  0  0  0  0  0  0
   -6.5300   11.8201  -10.7355 C   0  0  0  0  0  0  0  0  0  0  0  0
   -7.7235   10.5758  -13.0283 C   0  0  0  0  0  0  0  0  0  0  0  0
   -6.9848   11.7731  -13.1297 C   0  0  0  0  0  0  0  0  0  0  0  0
   -7.8178   10.0121  -11.7526 C   0  0  0  0  0  0  0  0  0  0  0  0
   -7.2522   10.6205  -10.6098 C   0  0  0  0  0  0  0  0  0  0  0  0
   -7.6101    9.7439   -9.5117 C   0  0  0  0  0  0  0  0  0  0  0  0
   -8.2784    8.7249   -9.9778 N   0  0  0  0  0  0  0  0  0  0  0  0
   -8.4134    8.8570  -11.2978 N   0  0  0  0  0  0  0  0  0  0  0  0
   -7.3337    9.8935   -8.0288 C   0  0  0  0  0  0  0  0  0  0  0  0
   -4.4165   13.6746  -11.4876 N   0  0  0  0  0  0  0  0  0  0  0  0
   -5.5534   13.6276  -12.1919 C   0  0  0  0  0  0  0  0  0  0  0  0
   -5.9234   14.5178  -12.9405 O   0  0  0  0  0  0  0  0  0  0  0  0
   -5.9640   10.4853   -7.7356 C   0  0  0  0  0  0  0  0  0  0  0  0
   -4.8116    9.7640   -8.0536 C   0  0  0  0  0  0  0  0  0  0  0  0
   -3.5500   10.3127   -7.8058 C   0  0  0  0  0  0  0  0  0  0  0  0
   -3.4411   11.5873   -7.2364 C   0  0  0  0  0  0  0  0  0  0  0  0
   -4.5925   12.3023   -6.9174 C   0  0  0  0  0  0  0  0  0  0  0  0
   -5.8510   11.7510   -7.1622 C   0  0  0  0  0  0  0  0  0  0  0  0
   -2.0968   12.1763   -6.9669 C   0  0  0  0  0  0  0  0  0  0  0  0
   -1.7702   13.4221   -6.4317 C   0  0  0  0  0  0  0  0  0  0  0  0
   -0.4283   13.4864   -6.3849 N   0  0  0  0  0  0  0  0  0  0  0  0
    0.1730   12.4042   -6.8287 N   0  0  0  0  0  0  0  0  0  0  0  0
   -0.8019   11.5974   -7.2024 C   0  0  0  0  0  0  0  0  0  0  0  0
    0.3914   14.5951   -5.9029 C   0  0  0  0  0  0  0  0  0  0  0  0
   -5.4777   11.7513  -12.1737 H   0  0  0  0  0  0  0  0  0  0  0  0
   -6.1059   12.3069   -9.8697 H   0  0  0  0  0  0  0  0  0  0  0  0
   -8.1905   10.1197  -13.8887 H   0  0  0  0  0  0  0  0  0  0  0  0
   -6.8851   12.2475  -14.0948 H   0  0  0  0  0  0  0  0  0  0  0  0
   -8.1002   10.5520   -7.5942 H   0  0  0  0  0  0  0  0  0  0  0  0
   -7.3942    8.9006   -7.5592 H   0  0  0  0  0  0  0  0  0  0  0  0
   -3.8167   14.4716  -11.5590 H   0  0  0  0  0  0  0  0  0  0  0  0
   -4.1667   12.9127  -10.8899 H   0  0  0  0  0  0  0  0  0  0  0  0
   -4.8950    8.7804   -8.4918 H   0  0  0  0  0  0  0  0  0  0  0  0
   -2.6597    9.7538   -8.0534 H   0  0  0  0  0  0  0  0  0  0  0  0
   -4.5115   13.2861   -6.4794 H   0  0  0  0  0  0  0  0  0  0  0  0
   -6.7408   12.3071   -6.9064 H   0  0  0  0  0  0  0  0  0  0  0  0
   -2.4626   14.1882   -6.1155 H   0  0  0  0  0  0  0  0  0  0  0  0
   -0.6459   10.6195   -7.6335 H   0  0  0  0  0  0  0  0  0  0  0  0
    1.4555   14.3315   -5.9935 H   0  0  0  0  0  0  0  0  0  0  0  0
    0.1837   15.4928   -6.5038 H   0  0  0  0  0  0  0  0  0  0  0  0
    0.1522   14.7964   -4.8483 H   0  0  0  0  0  0  0  0  0  0  0  0
  1  2  1  0  0  0  0
  1  4  1  0  0  0  0
  1 12  1  0  0  0  0
  2  6  2  0  0  0  0
  3  4  2  0  0  0  0
  3  5  1  0  0  0  0
  5  6  1  0  0  0  0
  5  9  2  0  0  0  0
  6  7  1  0  0  0  0
  7  8  2  0  0  0  0
  7 10  1  0  0  0  0
  8  9  1  0  0  0  0
 10 14  1  0  0  0  0
 11 12  1  0  0  0  0
 12 13  2  0  0  0  0
 14 15  2  0  0  0  0
 14 19  1  0  0  0  0
 15 16  1  0  0  0  0
 16 17  2  0  0  0  0
 17 18  1  0  0  0  0
 17 20  1  0  0  0  0
 18 19  2  0  0  0  0
 20 21  2  0  0  0  0
 20 24  1  0  0  0  0
 21 22  1  0  0  0  0
 22 23  1  0  0  0  0
 22 25  1  0  0  0  0
 23 24  2  0  0  0  0
  1 26  1  0  0  0  0
  2 27  1  0  0  0  0
  3 28  1  0  0  0  0
  4 29  1  0  0  0  0
 10 30  1  0  0  0  0
 10 31  1  0  0  0  0
 11 32  1  0  0  0  0
 11 33  1  0  0  0  0
 15 34  1  0  0  0  0
 16 35  1  0  0  0  0
 18 36  1  0  0  0  0
 19 37  1  0  0  0  0
 21 38  1  0  0  0  0
 24 39  1  0  0  0  0
 25 40  1  0  0  0  0
 25 41  1  0  0  0  0
 25 42  1  0  0  0  0
M  END
> <Name>
32

> <IC50[uM]>
0.11

$$$$
32
  -OEChem-05192314333D
 Structure written by MMmdl.
 42 45  0     1  0  0  0  0  0999 V2000
   -6.3767   12.3649  -12.0150 C   0  0  0  0  0  0  0  0  0  0  0  0
   -6.5300   11.8201  -10.7355 C   0  0  0  0  0  0  0  0  0  0  0  0
   -7.7235   10.5758  -13.0283 C   0  0  0  0  0  0  0  0  0  0  0  0
   -6.9848   11.7731  -13.1297 C   0  0  0  0  0  0  0  0  0  0  0  0
   -7.8178   10.0121  -11.7526 C   0  0  0  0  0  0  0  0  0  0  0  0
   -7.2522   10.6205  -10.6098 C   0  0  3  0  0  0  0  0  0  0  0  0
   -7.6101    9.7439   -9.5117 C   0  0  0  0  0  0  0  0  0  0  0  0
   -8.2784    8.7249   -9.9778 N   0  0  0  0  0  0  0  0  0  0  0  0
   -8.4134    8.8570  -11.2978 N   0  0  0  0  0  0  0  0  0  0  0  0
   -7.3337    9.8935   -8.0288 C   0  0  0  0  0  0  0  0  0  0  0  0
   -4.4165   13.6746  -11.4876 N   0  0  0  0  0  0  0  0  0  0  0  0
   -5.5534   13.6276  -12.1919 C   0  0  0  0  0  0  0  0  0  0  0  0
   -5.9234   14.5178  -12.9405 O   0  0  0  0  0  0  0  0  0  0  0  0
   -5.9640   10.4853   -7.7356 C   0  0  0  0  0  0  0  0  0  0  0  0
   -4.8116    9.7640   -8.0536 C   0  0  0  0  0  0  0  0  0  0  0  0
   -3.5500   10.3127   -7.8058 C   0  0  0  0  0  0  0  0  0  0  0  0
   -3.4411   11.5873   -7.2364 C   0  0  0  0  0  0  0  0  0  0  0  0
   -4.5925   12.3023   -6.9174 C   0  0  0  0  0  0  0  0  0  0  0  0
   -5.8510   11.7510   -7.1622 C   0  0  0  0  0  0  0  0  0  0  0  0
   -2.0968   12.1763   -6.9669 C   0  0  0  0  0  0  0  0  0  0  0  0
   -1.7702   13.4221   -6.4317 C   0  0  0  0  0  0  0  0  0  0  0  0
   -0.4283   13.4864   -6.3849 N   0  0  0  0  0  0  0  0  0  0  0  0
    0.1730   12.4042   -6.8287 N   0  0  0  0  0  0  0  0  0  0  0  0
   -0.8019   11.5974   -7.2024 C   0  0  0  0  0  0  0  0  0  0  0  0
    0.3914   14.5951   -5.9029 C   0  0  0  0  0  0  0  0  0  0  0  0
   -6.1059   12.3069   -9.8697 H   0  0  0  0  0  0  0  0  0  0  0  0
   -8.1905   10.1197  -13.8887 H   0  0  0  0  0  0  0  0  0  0  0  0
   -6.8851   12.2475  -14.0948 H   0  0  0  0  0  0  0  0  0  0  0  0
   -8.1785   11.1934  -10.4554 H   0  0  0  0  0  0  0  0  0  0  0  0
   -8.1002   10.5520   -7.5942 H   0  0  0  0  0  0  0  0  0  0  0  0
   -7.3942    8.9006   -7.5592 H   0  0  0  0  0  0  0  0  0  0  0  0
   -3.8167   14.4716  -11.5590 H   0  0  0  0  0  0  0  0  0  0  0  0
   -4.1667   12.9127  -10.8899 H   0  0  0  0  0  0  0  0  0  0  0  0
   -4.8950    8.7804   -8.4918 H   0  0  0  0  0  0  0  0  0  0  0  0
   -2.6597    9.7538   -8.0534 H   0  0  0  0  0  0  0  0  0  0  0  0
   -4.5115   13.2861   -6.4794 H   0  0  0  0  0  0  0  0  0  0  0  0
   -6.7408   12.3071   -6.9064 H   0  0  0  0  0  0  0  0  0  0  0  0
   -2.4626   14.1882   -6.1155 H   0  0  0  0  0  0  0  0  0  0  0  0
   -0.6459   10.6195   -7.6335 H   0  0  0  0  0  0  0  0  0  0  0  0
    1.4555   14.3315   -5.9935 H   0  0  0  0  0  0  0  0  0  0  0  0
    0.1837   15.4928   -6.5038 H   0  0  0  0  0  0  0  0  0  0  0  0
    0.1522   14.7964   -4.8483 H   0  0  0  0  0  0  0  0  0  0  0  0
  1  2  2  0  0  0  0
  1  4  1  0  0  0  0
  1 12  1  0  0  0  0
  2  6  1  0  0  0  0
  3  4  2  0  0  0  0
  3  5  1  0  0  0  0
  5  6  1  0  0  0  0
  5  9  2  0  0  0  0
  6  7  1  0  0  0  0
  7  8  2  0  0  0  0
  7 10  1  0  0  0  0
  8  9  1  0  0  0  0
 10 14  1  0  0  0  0
 11 12  1  0  0  0  0
 12 13  2  0  0  0  0
 14 15  2  0  0  0  0
 14 19  1  0  0  0  0
 15 16  1  0  0  0  0
 16 17  2  0  0  0  0
 17 18  1  0  0  0  0
 17 20  1  0  0  0  0
 18 19  2  0  0  0  0
 20 21  2  0  0  0  0
 20 24  1  0  0  0  0
 21 22  1  0  0  0  0
 22 23  1  0  0  0  0
 22 25  1  0  0  0  0
 23 24  2  0  0  0  0
  2 26  1  0  0  0  0
  3 27  1  0  0  0  0
  4 28  1  0  0  0  0
  6 29  1  0  0  0  0
 10 30  1  0  0  0  0
 10 31  1  0  0  0  0
 11 32  1  0  0  0  0
 11 33  1  0  0  0  0
 15 34  1  0  0  0  0
 16 35  1  0  0  0  0
 18 36  1  0  0  0  0
 19 37  1  0  0  0  0
 21 38  1  0  0  0  0
 24 39  1  0  0  0  0
 25 40  1  0  0  0  0
 25 41  1  0  0  0  0
 25 42  1  0  0  0  0
M  END
> <Name>
32

> <IC50[uM]>
0.11

$$$$
32
  -OEChem-05192314333D
 Structure written by MMmdl.
 42 45  0     0  0  0  0  0  0999 V2000
   -6.3767   12.3649  -12.0150 C   0  0  0  0  0  0  0  0  0  0  0  0
   -6.5300   11.8201  -10.7355 C   0  0  0  0  0  0  0  0  0  0  0  0
   -7.7235   10.5758  -13.0283 C   0  0  0  0  0  0  0  0  0  0  0  0
   -6.9848   11.7731  -13.1297 C   0  0  0  0  0  0  0  0  0  0  0  0
   -7.8178   10.0121  -11.7526 C   0  0  0  0  0  0  0  0  0  0  0  0
   -7.2522   10.6205  -10.6098 C   0  0  0  0  0  0  0  0  0  0  0  0
   -7.6101    9.7439   -9.5117 C   0  0  0  0  0  0  0  0  0  0  0  0
   -8.2784    8.7249   -9.9778 N   0  0  0  0  0  0  0  0  0  0  0  0
   -8.4134    8.8570  -11.2978 N   0  0  0  0  0  0  0  0  0  0  0  0
   -7.3337    9.8935   -8.0288 C   0  0  0  0  0  0  0  0  0  0  0  0
   -4.4165   13.6746  -11.4876 N   0  0  0  0  0  0  0  0  0  0  0  0
   -5.5534   13.6276  -12.1919 C   0  0  0  0  0  0  0  0  0  0  0  0
   -5.9234   14.5178  -12.9405 O   0  0  0  0  0  0  0  0  0  0  0  0
   -5.9640   10.4853   -7.7356 C   0  0  0  0  0  0  0  0  0  0  0  0
   -4.8116    9.7640   -8.0536 C   0  0  0  0  0  0  0  0  0  0  0  0
   -3.5500   10.3127   -7.8058 C   0  0  0  0  0  0  0  0  0  0  0  0
   -3.4411   11.5873   -7.2364 C   0  0  0  0  0  0  0  0  0  0  0  0
   -4.5925   12.3023   -6.9174 C   0  0  0  0  0  0  0  0  0  0  0  0
   -5.8510   11.7510   -7.1622 C   0  0  0  0  0  0  0  0  0  0  0  0
   -2.0968   12.1763   -6.9669 C   0  0  0  0  0  0  0  0  0  0  0  0
   -1.7702   13.4221   -6.4317 C   0  0  0  0  0  0  0  0  0  0  0  0
   -0.4283   13.4864   -6.3849 N   0  0  0  0  0  0  0  0  0  0  0  0
    0.1730   12.4042   -6.8287 N   0  0  0  0  0  0  0  0  0  0  0  0
   -0.8019   11.5974   -7.2024 C   0  0  0  0  0  0  0  0  0  0  0  0
    0.3914   14.5951   -5.9029 C   0  0  0  0  0  0  0  0  0  0  0  0
   -6.1059   12.3069   -9.8697 H   0  0  0  0  0  0  0  0  0  0  0  0
   -8.7452   10.7816  -13.3800 H   0  0  0  0  0  0  0  0  0  0  0  0
   -7.2510    9.8336  -13.6885 H   0  0  0  0  0  0  0  0  0  0  0  0
   -6.8851   12.2475  -14.0948 H   0  0  0  0  0  0  0  0  0  0  0  0
   -8.1002   10.5520   -7.5942 H   0  0  0  0  0  0  0  0  0  0  0  0
   -7.3942    8.9006   -7.5592 H   0  0  0  0  0  0  0  0  0  0  0  0
   -3.8167   14.4716  -11.5590 H   0  0  0  0  0  0  0  0  0  0  0  0
   -4.1667   12.9127  -10.8899 H   0  0  0  0  0  0  0  0  0  0  0  0
   -4.8950    8.7804   -8.4918 H   0  0  0  0  0  0  0  0  0  0  0  0
   -2.6597    9.7538   -8.0534 H   0  0  0  0  0  0  0  0  0  0  0  0
   -4.5115   13.2861   -6.4794 H   0  0  0  0  0  0  0  0  0  0  0  0
   -6.7408   12.3071   -6.9064 H   0  0  0  0  0  0  0  0  0  0  0  0
   -2.4626   14.1882   -6.1155 H   0  0  0  0  0  0  0  0  0  0  0  0
   -0.6459   10.6195   -7.6335 H   0  0  0  0  0  0  0  0  0  0  0  0
    1.4555   14.3315   -5.9935 H   0  0  0  0  0  0  0  0  0  0  0  0
    0.1837   15.4928   -6.5038 H   0  0  0  0  0  0  0  0  0  0  0  0
    0.1522   14.7964   -4.8483 H   0  0  0  0  0  0  0  0  0  0  0  0
  1  2  1  0  0  0  0
  1  4  2  0  0  0  0
  1 12  1  0  0  0  0
  2  6  2  0  0  0  0
  3  4  1  0  0  0  0
  3  5  1  0  0  0  0
  5  6  1  0  0  0  0
  5  9  2  0  0  0  0
  6  7  1  0  0  0  0
  7  8  2  0  0  0  0
  7 10  1  0  0  0  0
  8  9  1  0  0  0  0
 10 14  1  0  0  0  0
 11 12  1  0  0  0  0
 12 13  2  0  0  0  0
 14 15  2  0  0  0  0
 14 19  1  0  0  0  0
 15 16  1  0  0  0  0
 16 17  2  0  0  0  0
 17 18  1  0  0  0  0
 17 20  1  0  0  0  0
 18 19  2  0  0  0  0
 20 21  2  0  0  0  0
 20 24  1  0  0  0  0
 21 22  1  0  0  0  0
 22 23  1  0  0  0  0
 22 25  1  0  0  0  0
 23 24  2  0  0  0  0
  2 26  1  0  0  0  0
  3 27  1  0  0  0  0
  3 28  1  0  0  0  0
  4 29  1  0  0  0  0
 10 30  1  0  0  0  0
 10 31  1  0  0  0  0
 11 32  1  0  0  0  0
 11 33  1  0  0  0  0
 15 34  1  0  0  0  0
 16 35  1  0  0  0  0
 18 36  1  0  0  0  0
 19 37  1  0  0  0  0
 21 38  1  0  0  0  0
 24 39  1  0  0  0  0
 25 40  1  0  0  0  0
 25 41  1  0  0  0  0
 25 42  1  0  0  0  0
M  END
> <Name>
32

> <IC50[uM]>
0.11

$$$$
32
  -OEChem-05192314333D
 Structure written by MMmdl.
 42 45  0     1  0  0  0  0  0999 V2000
   -6.3767   12.3649  -12.0150 C   0  0  3  0  0  0  0  0  0  0  0  0
   -6.5300   11.8201  -10.7355 C   0  0  0  0  0  0  0  0  0  0  0  0
   -7.7235   10.5758  -13.0283 C   0  0  0  0  0  0  0  0  0  0  0  0
   -6.9848   11.7731  -13.1297 C   0  0  0  0  0  0  0  0  0  0  0  0
   -7.8178   10.0121  -11.7526 C   0  0  0  0  0  0  0  0  0  0  0  0
   -7.2522   10.6205  -10.6098 C   0  0  0  0  0  0  0  0  0  0  0  0
   -7.6101    9.7439   -9.5117 C   0  0  0  0  0  0  0  0  0  0  0  0
   -8.2784    8.7249   -9.9778 N   0  0  0  0  0  0  0  0  0  0  0  0
   -8.4134    8.8570  -11.2978 N   0  0  0  0  0  0  0  0  0  0  0  0
   -7.3337    9.8935   -8.0288 C   0  0  0  0  0  0  0  0  0  0  0  0
   -4.4165   13.6746  -11.4876 N   0  0  0  0  0  0  0  0  0  0  0  0
   -5.5534   13.6276  -12.1919 C   0  0  0  0  0  0  0  0  0  0  0  0
   -5.9234   14.5178  -12.9405 O   0  0  0  0  0  0  0  0  0  0  0  0
   -5.9640   10.4853   -7.7356 C   0  0  0  0  0  0  0  0  0  0  0  0
   -4.8116    9.7640   -8.0536 C   0  0  0  0  0  0  0  0  0  0  0  0
   -3.5500   10.3127   -7.8058 C   0  0  0  0  0  0  0  0  0  0  0  0
   -3.4411   11.5873   -7.2364 C   0  0  0  0  0  0  0  0  0  0  0  0
   -4.5925   12.3023   -6.9174 C   0  0  0  0  0  0  0  0  0  0  0  0
   -5.8510   11.7510   -7.1622 C   0  0  0  0  0  0  0  0  0  0  0  0
   -2.0968   12.1763   -6.9669 C   0  0  0  0  0  0  0  0  0  0  0  0
   -1.7702   13.4221   -6.4317 C   0  0  0  0  0  0  0  0  0  0  0  0
   -0.4283   13.4864   -6.3849 N   0  0  0  0  0  0  0  0  0  0  0  0
    0.1730   12.4042   -6.8287 N   0  0  0  0  0  0  0  0  0  0  0  0
   -0.8019   11.5974   -7.2024 C   0  0  0  0  0  0  0  0  0  0  0  0
    0.3914   14.5951   -5.9029 C   0  0  0  0  0  0  0  0  0  0  0  0
   -5.4777   11.7513  -12.1737 H   0  0  0  0  0  0  0  0  0  0  0  0
   -6.1059   12.3069   -9.8697 H   0  0  0  0  0  0  0  0  0  0  0  0
   -8.1905   10.1197  -13.8887 H   0  0  0  0  0  0  0  0  0  0  0  0
   -6.8851   12.2475  -14.0948 H   0  0  0  0  0  0  0  0  0  0  0  0
   -8.1002   10.5520   -7.5942 H   0  0  0  0  0  0  0  0  0  0  0  0
   -7.3942    8.9006   -7.5592 H   0  0  0  0  0  0  0  0  0  0  0  0
   -3.9109   14.5222  -11.6486 H   0  0  0  0  0  0  0  0  0  0  0  0
   -5.2907   15.2263  -12.9277 H   0  0  0  0  0  0  0  0  0  0  0  0
   -4.8950    8.7804   -8.4918 H   0  0  0  0  0  0  0  0  0  0  0  0
   -2.6597    9.7538   -8.0534 H   0  0  0  0  0  0  0  0  0  0  0  0
   -4.5115   13.2861   -6.4794 H   0  0  0  0  0  0  0  0  0  0  0  0
   -6.7408   12.3071   -6.9064 H   0  0  0  0  0  0  0  0  0  0  0  0
   -2.4626   14.1882   -6.1155 H   0  0  0  0  0  0  0  0  0  0  0  0
   -0.6459   10.6195   -7.6335 H   0  0  0  0  0  0  0  0  0  0  0  0
    1.4555   14.3315   -5.9935 H   0  0  0  0  0  0  0  0  0  0  0  0
    0.1837   15.4928   -6.5038 H   0  0  0  0  0  0  0  0  0  0  0  0
    0.1522   14.7964   -4.8483 H   0  0  0  0  0  0  0  0  0  0  0  0
  1  2  1  0  0  0  0
  1  4  1  0  0  0  0
  1 12  1  0  0  0  0
  2  6  2  0  0  0  0
  3  4  2  0  0  0  0
  3  5  1  0  0  0  0
  5  6  1  0  0  0  0
  5  9  2  0  0  0  0
  6  7  1  0  0  0  0
  7  8  2  0  0  0  0
  7 10  1  0  0  0  0
  8  9  1  0  0  0  0
 10 14  1  0  0  0  0
 11 12  2  0  0  0  0
 12 13  1  0  0  0  0
 14 15  2  0  0  0  0
 14 19  1  0  0  0  0
 15 16  1  0  0  0  0
 16 17  2  0  0  0  0
 17 18  1  0  0  0  0
 17 20  1  0  0  0  0
 18 19  2  0  0  0  0
 20 21  2  0  0  0  0
 20 24  1  0  0  0  0
 21 22  1  0  0  0  0
 22 23  1  0  0  0  0
 22 25  1  0  0  0  0
 23 24  2  0  0  0  0
  1 26  1  0  0  0  0
  2 27  1  0  0  0  0
  3 28  1  0  0  0  0
  4 29  1  0  0  0  0
 10 30  1  0  0  0  0
 10 31  1  0  0  0  0
 11 32  1  0  0  0  0
 13 33  1  0  0  0  0
 15 34  1  0  0  0  0
 16 35  1  0  0  0  0
 18 36  1  0  0  0  0
 19 37  1  0  0  0  0
 21 38  1  0  0  0  0
 24 39  1  0  0  0  0
 25 40  1  0  0  0  0
 25 41  1  0  0  0  0
 25 42  1  0  0  0  0
M  END
> <Name>
32

> <IC50[uM]>
0.11

$$$$
32
  -OEChem-05192314333D
 Structure written by MMmdl.
 42 45  0     1  0  0  0  0  0999 V2000
   -6.3767   12.3649  -12.0150 C   0  0  0  0  0  0  0  0  0  0  0  0
   -6.5300   11.8201  -10.7355 C   0  0  0  0  0  0  0  0  0  0  0  0
   -7.7235   10.5758  -13.0283 C   0  0  0  0  0  0  0  0  0  0  0  0
   -6.9848   11.7731  -13.1297 C   0  0  0  0  0  0  0  0  0  0  0  0
   -7.8178   10.0121  -11.7526 C   0  0  0  0  0  0  0  0  0  0  0  0
   -7.2522   10.6205  -10.6098 C   0  0  3  0  0  0  0  0  0  0  0  0
   -7.6101    9.7439   -9.5117 C   0  0  0  0  0  0  0  0  0  0  0  0
   -8.2784    8.7249   -9.9778 N   0  0  0  0  0  0  0  0  0  0  0  0
   -8.4134    8.8570  -11.2978 N   0  0  0  0  0  0  0  0  0  0  0  0
   -7.3337    9.8935   -8.0288 C   0  0  0  0  0  0  0  0  0  0  0  0
   -4.4165   13.6746  -11.4876 N   0  0  0  0  0  0  0  0  0  0  0  0
   -5.5534   13.6276  -12.1919 C   0  0  0  0  0  0  0  0  0  0  0  0
   -5.9234   14.5178  -12.9405 O   0  0  0  0  0  0  0  0  0  0  0  0
   -5.9640   10.4853   -7.7356 C   0  0  0  0  0  0  0  0  0  0  0  0
   -4.8116    9.7640   -8.0536 C   0  0  0  0  0  0  0  0  0  0  0  0
   -3.5500   10.3127   -7.8058 C   0  0  0  0  0  0  0  0  0  0  0  0
   -3.4411   11.5873   -7.2364 C   0  0  0  0  0  0  0  0  0  0  0  0
   -4.5925   12.3023   -6.9174 C   0  0  0  0  0  0  0  0  0  0  0  0
   -5.8510   11.7510   -7.1622 C   0  0  0  0  0  0  0  0  0  0  0  0
   -2.0968   12.1763   -6.9669 C   0  0  0  0  0  0  0  0  0  0  0  0
   -1.7702   13.4221   -6.4317 C   0  0  0  0  0  0  0  0  0  0  0  0
   -0.4283   13.4864   -6.3849 N   0  0  0  0  0  0  0  0  0  0  0  0
    0.1730   12.4042   -6.8287 N   0  0  0  0  0  0  0  0  0  0  0  0
   -0.8019   11.5974   -7.2024 C   0  0  0  0  0  0  0  0  0  0  0  0
    0.3914   14.5951   -5.9029 C   0  0  0  0  0  0  0  0  0  0  0  0
   -6.1059   12.3069   -9.8697 H   0  0  0  0  0  0  0  0  0  0  0  0
   -8.1905   10.1197  -13.8887 H   0  0  0  0  0  0  0  0  0  0  0  0
   -6.8851   12.2475  -14.0948 H   0  0  0  0  0  0  0  0  0  0  0  0
   -8.1785   11.1934  -10.4554 H   0  0  0  0  0  0  0  0  0  0  0  0
   -8.1002   10.5520   -7.5942 H   0  0  0  0  0  0  0  0  0  0  0  0
   -7.3942    8.9006   -7.5592 H   0  0  0  0  0  0  0  0  0  0  0  0
   -3.9109   14.5222  -11.6486 H   0  0  0  0  0  0  0  0  0  0  0  0
   -5.2907   15.2263  -12.9277 H   0  0  0  0  0  0  0  0  0  0  0  0
   -4.8950    8.7804   -8.4918 H   0  0  0  0  0  0  0  0  0  0  0  0
   -2.6597    9.7538   -8.0534 H   0  0  0  0  0  0  0  0  0  0  0  0
   -4.5115   13.2861   -6.4794 H   0  0  0  0  0  0  0  0  0  0  0  0
   -6.7408   12.3071   -6.9064 H   0  0  0  0  0  0  0  0  0  0  0  0
   -2.4626   14.1882   -6.1155 H   0  0  0  0  0  0  0  0  0  0  0  0
   -0.6459   10.6195   -7.6335 H   0  0  0  0  0  0  0  0  0  0  0  0
    1.4555   14.3315   -5.9935 H   0  0  0  0  0  0  0  0  0  0  0  0
    0.1837   15.4928   -6.5038 H   0  0  0  0  0  0  0  0  0  0  0  0
    0.1522   14.7964   -4.8483 H   0  0  0  0  0  0  0  0  0  0  0  0
  1  2  2  0  0  0  0
  1  4  1  0  0  0  0
  1 12  1  0  0  0  0
  2  6  1  0  0  0  0
  3  4  2  0  0  0  0
  3  5  1  0  0  0  0
  5  6  1  0  0  0  0
  5  9  2  0  0  0  0
  6  7  1  0  0  0  0
  7  8  2  0  0  0  0
  7 10  1  0  0  0  0
  8  9  1  0  0  0  0
 10 14  1  0  0  0  0
 11 12  2  0  0  0  0
 12 13  1  0  0  0  0
 14 15  2  0  0  0  0
 14 19  1  0  0  0  0
 15 16  1  0  0  0  0
 16 17  2  0  0  0  0
 17 18  1  0  0  0  0
 17 20  1  0  0  0  0
 18 19  2  0  0  0  0
 20 21  2  0  0  0  0
 20 24  1  0  0  0  0
 21 22  1  0  0  0  0
 22 23  1  0  0  0  0
 22 25  1  0  0  0  0
 23 24  2  0  0  0  0
  2 26  1  0  0  0  0
  3 27  1  0  0  0  0
  4 28  1  0  0  0  0
  6 29  1  0  0  0  0
 10 30  1  0  0  0  0
 10 31  1  0  0  0  0
 11 32  1  0  0  0  0
 13 33  1  0  0  0  0
 15 34  1  0  0  0  0
 16 35  1  0  0  0  0
 18 36  1  0  0  0  0
 19 37  1  0  0  0  0
 21 38  1  0  0  0  0
 24 39  1  0  0  0  0
 25 40  1  0  0  0  0
 25 41  1  0  0  0  0
 25 42  1  0  0  0  0
M  END
> <Name>
32

> <IC50[uM]>
0.11

$$$$
32
  -OEChem-05192314333D
 Structure written by MMmdl.
 42 45  0     0  0  0  0  0  0999 V2000
   -6.3767   12.3649  -12.0150 C   0  0  0  0  0  0  0  0  0  0  0  0
   -6.5300   11.8201  -10.7355 C   0  0  0  0  0  0  0  0  0  0  0  0
   -7.7235   10.5758  -13.0283 C   0  0  0  0  0  0  0  0  0  0  0  0
   -6.9848   11.7731  -13.1297 C   0  0  0  0  0  0  0  0  0  0  0  0
   -7.8178   10.0121  -11.7526 C   0  0  0  0  0  0  0  0  0  0  0  0
   -7.2522   10.6205  -10.6098 C   0  0  0  0  0  0  0  0  0  0  0  0
   -7.6101    9.7439   -9.5117 C   0  0  0  0  0  0  0  0  0  0  0  0
   -8.2784    8.7249   -9.9778 N   0  0  0  0  0  0  0  0  0  0  0  0
   -8.4134    8.8570  -11.2978 N   0  0  0  0  0  0  0  0  0  0  0  0
   -7.3337    9.8935   -8.0288 C   0  0  0  0  0  0  0  0  0  0  0  0
   -4.4165   13.6746  -11.4876 N   0  0  0  0  0  0  0  0  0  0  0  0
   -5.5534   13.6276  -12.1919 C   0  0  0  0  0  0  0  0  0  0  0  0
   -5.9234   14.5178  -12.9405 O   0  0  0  0  0  0  0  0  0  0  0  0
   -5.9640   10.4853   -7.7356 C   0  0  0  0  0  0  0  0  0  0  0  0
   -4.8116    9.7640   -8.0536 C   0  0  0  0  0  0  0  0  0  0  0  0
   -3.5500   10.3127   -7.8058 C   0  0  0  0  0  0  0  0  0  0  0  0
   -3.4411   11.5873   -7.2364 C   0  0  0  0  0  0  0  0  0  0  0  0
   -4.5925   12.3023   -6.9174 C   0  0  0  0  0  0  0  0  0  0  0  0
   -5.8510   11.7510   -7.1622 C   0  0  0  0  0  0  0  0  0  0  0  0
   -2.0968   12.1763   -6.9669 C   0  0  0  0  0  0  0  0  0  0  0  0
   -1.7702   13.4221   -6.4317 C   0  0  0  0  0  0  0  0  0  0  0  0
   -0.4283   13.4864   -6.3849 N   0  0  0  0  0  0  0  0  0  0  0  0
    0.1730   12.4042   -6.8287 N   0  0  0  0  0  0  0  0  0  0  0  0
   -0.8019   11.5974   -7.2024 C   0  0  0  0  0  0  0  0  0  0  0  0
    0.3914   14.5951   -5.9029 C   0  0  0  0  0  0  0  0  0  0  0  0
   -6.1059   12.3069   -9.8697 H   0  0  0  0  0  0  0  0  0  0  0  0
   -8.7452   10.7816  -13.3800 H   0  0  0  0  0  0  0  0  0  0  0  0
   -7.2510    9.8336  -13.6885 H   0  0  0  0  0  0  0  0  0  0  0  0
   -6.8851   12.2475  -14.0948 H   0  0  0  0  0  0  0  0  0  0  0  0
   -8.1002   10.5520   -7.5942 H   0  0  0  0  0  0  0  0  0  0  0  0
   -7.3942    8.9006   -7.5592 H   0  0  0  0  0  0  0  0  0  0  0  0
   -3.9109   14.5222  -11.6486 H   0  0  0  0  0  0  0  0  0  0  0  0
   -5.2907   15.2263  -12.9277 H   0  0  0  0  0  0  0  0  0  0  0  0
   -4.8950    8.7804   -8.4918 H   0  0  0  0  0  0  0  0  0  0  0  0
   -2.6597    9.7538   -8.0534 H   0  0  0  0  0  0  0  0  0  0  0  0
   -4.5115   13.2861   -6.4794 H   0  0  0  0  0  0  0  0  0  0  0  0
   -6.7408   12.3071   -6.9064 H   0  0  0  0  0  0  0  0  0  0  0  0
   -2.4626   14.1882   -6.1155 H   0  0  0  0  0  0  0  0  0  0  0  0
   -0.6459   10.6195   -7.6335 H   0  0  0  0  0  0  0  0  0  0  0  0
    1.4555   14.3315   -5.9935 H   0  0  0  0  0  0  0  0  0  0  0  0
    0.1837   15.4928   -6.5038 H   0  0  0  0  0  0  0  0  0  0  0  0
    0.1522   14.7964   -4.8483 H   0  0  0  0  0  0  0  0  0  0  0  0
  1  2  1  0  0  0  0
  1  4  2  0  0  0  0
  1 12  1  0  0  0  0
  2  6  2  0  0  0  0
  3  4  1  0  0  0  0
  3  5  1  0  0  0  0
  5  6  1  0  0  0  0
  5  9  2  0  0  0  0
  6  7  1  0  0  0  0
  7  8  2  0  0  0  0
  7 10  1  0  0  0  0
  8  9  1  0  0  0  0
 10 14  1  0  0  0  0
 11 12  2  0  0  0  0
 12 13  1  0  0  0  0
 14 15  2  0  0  0  0
 14 19  1  0  0  0  0
 15 16  1  0  0  0  0
 16 17  2  0  0  0  0
 17 18  1  0  0  0  0
 17 20  1  0  0  0  0
 18 19  2  0  0  0  0
 20 21  2  0  0  0  0
 20 24  1  0  0  0  0
 21 22  1  0  0  0  0
 22 23  1  0  0  0  0
 22 25  1  0  0  0  0
 23 24  2  0  0  0  0
  2 26  1  0  0  0  0
  3 27  1  0  0  0  0
  3 28  1  0  0  0  0
  4 29  1  0  0  0  0
 10 30  1  0  0  0  0
 10 31  1  0  0  0  0
 11 32  1  0  0  0  0
 13 33  1  0  0  0  0
 15 34  1  0  0  0  0
 16 35  1  0  0  0  0
 18 36  1  0  0  0  0
 19 37  1  0  0  0  0
 21 38  1  0  0  0  0
 24 39  1  0  0  0  0
 25 40  1  0  0  0  0
 25 41  1  0  0  0  0
 25 42  1  0  0  0  0
M  END
> <Name>
32

> <IC50[uM]>
0.11

$$$$
32
  -OEChem-05192314333D
 Structure written by MMmdl.
 42 45  0     0  0  0  0  0  0999 V2000
   -6.3767   12.3649  -12.0150 C   0  0  0  0  0  0  0  0  0  0  0  0
   -6.5300   11.8201  -10.7355 C   0  0  0  0  0  0  0  0  0  0  0  0
   -7.7235   10.5758  -13.0283 C   0  0  0  0  0  0  0  0  0  0  0  0
   -6.9848   11.7731  -13.1297 C   0  0  0  0  0  0  0  0  0  0  0  0
   -7.8178   10.0121  -11.7526 C   0  0  0  0  0  0  0  0  0  0  0  0
   -7.2522   10.6205  -10.6098 C   0  0  0  0  0  0  0  0  0  0  0  0
   -7.6101    9.7439   -9.5117 C   0  0  0  0  0  0  0  0  0  0  0  0
   -8.2784    8.7249   -9.9778 N   0  0  0  0  0  0  0  0  0  0  0  0
   -8.4134    8.8570  -11.2978 N   0  0  0  0  0  0  0  0  0  0  0  0
   -7.3337    9.8935   -8.0288 C   0  0  0  0  0  0  0  0  0  0  0  0
   -4.4165   13.6746  -11.4876 N   0  0  0  0  0  0  0  0  0  0  0  0
   -5.5534   13.6276  -12.1919 C   0  0  0  0  0  0  0  0  0  0  0  0
   -5.9234   14.5178  -12.9405 O   0  0  0  0  0  0  0  0  0  0  0  0
   -5.9640   10.4853   -7.7356 C   0  0  0  0  0  0  0  0  0  0  0  0
   -4.8116    9.7640   -8.0536 C   0  0  0  0  0  0  0  0  0  0  0  0
   -3.5500   10.3127   -7.8058 C   0  0  0  0  0  0  0  0  0  0  0  0
   -3.4411   11.5873   -7.2364 C   0  0  0  0  0  0  0  0  0  0  0  0
   -4.5925   12.3023   -6.9174 C   0  0  0  0  0  0  0  0  0  0  0  0
   -5.8510   11.7510   -7.1622 C   0  0  0  0  0  0  0  0  0  0  0  0
   -2.0968   12.1763   -6.9669 C   0  0  0  0  0  0  0  0  0  0  0  0
   -1.7702   13.4221   -6.4317 C   0  0  0  0  0  0  0  0  0  0  0  0
   -0.4283   13.4864   -6.3849 N   0  0  0  0  0  0  0  0  0  0  0  0
    0.1730   12.4042   -6.8287 N   0  0  0  0  0  0  0  0  0  0  0  0
   -0.8019   11.5974   -7.2024 C   0  0  0  0  0  0  0  0  0  0  0  0
    0.3914   14.5951   -5.9029 C   0  0  0  0  0  0  0  0  0  0  0  0
   -6.1059   12.3069   -9.8697 H   0  0  0  0  0  0  0  0  0  0  0  0
   -8.1905   10.1197  -13.8887 H   0  0  0  0  0  0  0  0  0  0  0  0
   -6.8851   12.2475  -14.0948 H   0  0  0  0  0  0  0  0  0  0  0  0
   -8.0369    9.6092   -7.2600 H   0  0  0  0  0  0  0  0  0  0  0  0
   -3.8167   14.4716  -11.5590 H   0  0  0  0  0  0  0  0  0  0  0  0
   -4.1667   12.9127  -10.8899 H   0  0  0  0  0  0  0  0  0  0  0  0
   -5.9776   10.0292   -6.7347 H   0  0  0  0  0  0  0  0  0  0  0  0
   -4.8950    8.7804   -8.4918 H   0  0  0  0  0  0  0  0  0  0  0  0
   -2.6597    9.7538   -8.0534 H   0  0  0  0  0  0  0  0  0  0  0  0
   -3.4383   12.0370   -8.2403 H   0  0  0  0  0  0  0  0  0  0  0  0
   -4.5115   13.2861   -6.4794 H   0  0  0  0  0  0  0  0  0  0  0  0
   -6.7408   12.3071   -6.9064 H   0  0  0  0  0  0  0  0  0  0  0  0
   -2.4626   14.1882   -6.1155 H   0  0  0  0  0  0  0  0  0  0  0  0
   -0.6459   10.6195   -7.6335 H   0  0  0  0  0  0  0  0  0  0  0  0
    1.4555   14.3315   -5.9935 H   0  0  0  0  0  0  0  0  0  0  0  0
    0.1837   15.4928   -6.5038 H   0  0  0  0  0  0  0  0  0  0  0  0
    0.1522   14.7964   -4.8483 H   0  0  0  0  0  0  0  0  0  0  0  0
  1  2  2  0  0  0  0
  1  4  1  0  0  0  0
  1 12  1  0  0  0  0
  2  6  1  0  0  0  0
  3  4  2  0  0  0  0
  3  5  1  0  0  0  0
  5  6  2  0  0  0  0
  5  9  1  0  0  0  0
  6  7  1  0  0  0  0
  7  8  1  0  0  0  0
  7 10  2  3  0  0  0
  8  9  2  0  0  0  0
 10 14  1  0  0  0  0
 11 12  1  0  0  0  0
 12 13  2  0  0  0  0
 14 15  1  0  0  0  0
 14 19  1  0  0  0  0
 15 16  2  0  0  0  0
 16 17  1  0  0  0  0
 17 18  1  0  0  0  0
 17 20  1  0  0  0  0
 18 19  2  0  0  0  0
 20 21  2  0  0  0  0
 20 24  1  0  0  0  0
 21 22  1  0  0  0  0
 22 23  1  0  0  0  0
 22 25  1  0  0  0  0
 23 24  2  0  0  0  0
  2 26  1  0  0  0  0
  3 27  1  0  0  0  0
  4 28  1  0  0  0  0
 10 29  1  0  0  0  0
 11 30  1  0  0  0  0
 11 31  1  0  0  0  0
 14 32  1  0  0  0  0
 15 33  1  0  0  0  0
 16 34  1  0  0  0  0
 17 35  1  0  0  0  0
 18 36  1  0  0  0  0
 19 37  1  0  0  0  0
 21 38  1  0  0  0  0
 24 39  1  0  0  0  0
 25 40  1  0  0  0  0
 25 41  1  0  0  0  0
 25 42  1  0  0  0  0
M  END
> <Name>
32

> <IC50[uM]>
0.11

$$$$
32
  -OEChem-05192314333D
 Structure written by MMmdl.
 42 45  0     1  0  0  0  0  0999 V2000
   -6.3767   12.3649  -12.0150 C   0  0  0  0  0  0  0  0  0  0  0  0
   -6.5300   11.8201  -10.7355 C   0  0  0  0  0  0  0  0  0  0  0  0
   -7.7235   10.5758  -13.0283 C   0  0  0  0  0  0  0  0  0  0  0  0
   -6.9848   11.7731  -13.1297 C   0  0  0  0  0  0  0  0  0  0  0  0
   -7.8178   10.0121  -11.7526 C   0  0  0  0  0  0  0  0  0  0  0  0
   -7.2522   10.6205  -10.6098 C   0  0  0  0  0  0  0  0  0  0  0  0
   -7.6101    9.7439   -9.5117 C   0  0  3  0  0  0  0  0  0  0  0  0
   -8.2784    8.7249   -9.9778 N   0  0  0  0  0  0  0  0  0  0  0  0
   -8.4134    8.8570  -11.2978 N   0  0  0  0  0  0  0  0  0  0  0  0
   -7.3337    9.8935   -8.0288 C   0  0  0  0  0  0  0  0  0  0  0  0
   -4.4165   13.6746  -11.4876 N   0  0  0  0  0  0  0  0  0  0  0  0
   -5.5534   13.6276  -12.1919 C   0  0  0  0  0  0  0  0  0  0  0  0
   -5.9234   14.5178  -12.9405 O   0  0  0  0  0  0  0  0  0  0  0  0
   -5.9640   10.4853   -7.7356 C   0  0  0  0  0  0  0  0  0  0  0  0
   -4.8116    9.7640   -8.0536 C   0  0  0  0  0  0  0  0  0  0  0  0
   -3.5500   10.3127   -7.8058 C   0  0  0  0  0  0  0  0  0  0  0  0
   -3.4411   11.5873   -7.2364 C   0  0  0  0  0  0  0  0  0  0  0  0
   -4.5925   12.3023   -6.9174 C   0  0  0  0  0  0  0  0  0  0  0  0
   -5.8510   11.7510   -7.1622 C   0  0  0  0  0  0  0  0  0  0  0  0
   -2.0968   12.1763   -6.9669 C   0  0  0  0  0  0  0  0  0  0  0  0
   -1.7702   13.4221   -6.4317 C   0  0  0  0  0  0  0  0  0  0  0  0
   -0.4283   13.4864   -6.3849 N   0  0  0  0  0  0  0  0  0  0  0  0
    0.1730   12.4042   -6.8287 N   0  0  0  0  0  0  0  0  0  0  0  0
   -0.8019   11.5974   -7.2024 C   0  0  0  0  0  0  0  0  0  0  0  0
    0.3914   14.5951   -5.9029 C   0  0  0  0  0  0  0  0  0  0  0  0
   -6.1059   12.3069   -9.8697 H   0  0  0  0  0  0  0  0  0  0  0  0
   -8.1905   10.1197  -13.8887 H   0  0  0  0  0  0  0  0  0  0  0  0
   -6.8851   12.2475  -14.0948 H   0  0  0  0  0  0  0  0  0  0  0  0
   -6.6672    9.1915   -9.6375 H   0  0  0  0  0  0  0  0  0  0  0  0
   -8.0369    9.6092   -7.2600 H   0  0  0  0  0  0  0  0  0  0  0  0
   -3.8167   14.4716  -11.5590 H   0  0  0  0  0  0  0  0  0  0  0  0
   -4.1667   12.9127  -10.8899 H   0  0  0  0  0  0  0  0  0  0  0  0
   -4.8950    8.7804   -8.4918 H   0  0  0  0  0  0  0  0  0  0  0  0
   -2.6597    9.7538   -8.0534 H   0  0  0  0  0  0  0  0  0  0  0  0
   -3.4383   12.0370   -8.2403 H   0  0  0  0  0  0  0  0  0  0  0  0
   -4.5115   13.2861   -6.4794 H   0  0  0  0  0  0  0  0  0  0  0  0
   -6.7408   12.3071   -6.9064 H   0  0  0  0  0  0  0  0  0  0  0  0
   -2.4626   14.1882   -6.1155 H   0  0  0  0  0  0  0  0  0  0  0  0
   -0.6459   10.6195   -7.6335 H   0  0  0  0  0  0  0  0  0  0  0  0
    1.4555   14.3315   -5.9935 H   0  0  0  0  0  0  0  0  0  0  0  0
    0.1837   15.4928   -6.5038 H   0  0  0  0  0  0  0  0  0  0  0  0
    0.1522   14.7964   -4.8483 H   0  0  0  0  0  0  0  0  0  0  0  0
  1  2  2  0  0  0  0
  1  4  1  0  0  0  0
  1 12  1  0  0  0  0
  2  6  1  0  0  0  0
  3  4  2  0  0  0  0
  3  5  1  0  0  0  0
  5  6  2  0  0  0  0
  5  9  1  0  0  0  0
  6  7  1  0  0  0  0
  7  8  1  0  0  0  0
  7 10  1  0  0  0  0
  8  9  2  0  0  0  0
 10 14  2  0  0  0  0
 11 12  1  0  0  0  0
 12 13  2  0  0  0  0
 14 15  1  0  0  0  0
 14 19  1  0  0  0  0
 15 16  2  0  0  0  0
 16 17  1  0  0  0  0
 17 18  1  0  0  0  0
 17 20  1  0  0  0  0
 18 19  2  0  0  0  0
 20 21  2  0  0  0  0
 20 24  1  0  0  0  0
 21 22  1  0  0  0  0
 22 23  1  0  0  0  0
 22 25  1  0  0  0  0
 23 24  2  0  0  0  0
  2 26  1  0  0  0  0
  3 27  1  0  0  0  0
  4 28  1  0  0  0  0
  7 29  1  0  0  0  0
 10 30  1  0  0  0  0
 11 31  1  0  0  0  0
 11 32  1  0  0  0  0
 15 33  1  0  0  0  0
 16 34  1  0  0  0  0
 17 35  1  0  0  0  0
 18 36  1  0  0  0  0
 19 37  1  0  0  0  0
 21 38  1  0  0  0  0
 24 39  1  0  0  0  0
 25 40  1  0  0  0  0
 25 41  1  0  0  0  0
 25 42  1  0  0  0  0
M  END
> <Name>
32

> <IC50[uM]>
0.11

$$$$
32
  -OEChem-05192314333D
 Structure written by MMmdl.
 42 45  0     1  0  0  0  0  0999 V2000
   -6.3767   12.3649  -12.0150 C   0  0  3  0  0  0  0  0  0  0  0  0
   -6.5300   11.8201  -10.7355 C   0  0  0  0  0  0  0  0  0  0  0  0
   -7.7235   10.5758  -13.0283 C   0  0  0  0  0  0  0  0  0  0  0  0
   -6.9848   11.7731  -13.1297 C   0  0  0  0  0  0  0  0  0  0  0  0
   -7.8178   10.0121  -11.7526 C   0  0  3  0  0  0  0  0  0  0  0  0
   -7.2522   10.6205  -10.6098 C   0  0  0  0  0  0  0  0  0  0  0  0
   -7.6101    9.7439   -9.5117 C   0  0  0  0  0  0  0  0  0  0  0  0
   -8.2784    8.7249   -9.9778 N   0  0  0  0  0  0  0  0  0  0  0  0
   -8.4134    8.8570  -11.2978 N   0  0  0  0  0  0  0  0  0  0  0  0
   -7.3337    9.8935   -8.0288 C   0  0  0  0  0  0  0  0  0  0  0  0
   -4.4165   13.6746  -11.4876 N   0  0  0  0  0  0  0  0  0  0  0  0
   -5.5534   13.6276  -12.1919 C   0  0  0  0  0  0  0  0  0  0  0  0
   -5.9234   14.5178  -12.9405 O   0  0  0  0  0  0  0  0  0  0  0  0
   -5.9640   10.4853   -7.7356 C   0  0  0  0  0  0  0  0  0  0  0  0
   -4.8116    9.7640   -8.0536 C   0  0  0  0  0  0  0  0  0  0  0  0
   -3.5500   10.3127   -7.8058 C   0  0  0  0  0  0  0  0  0  0  0  0
   -3.4411   11.5873   -7.2364 C   0  0  0  0  0  0  0  0  0  0  0  0
   -4.5925   12.3023   -6.9174 C   0  0  0  0  0  0  0  0  0  0  0  0
   -5.8510   11.7510   -7.1622 C   0  0  0  0  0  0  0  0  0  0  0  0
   -2.0968   12.1763   -6.9669 C   0  0  0  0  0  0  0  0  0  0  0  0
   -1.7702   13.4221   -6.4317 C   0  0  0  0  0  0  0  0  0  0  0  0
   -0.4283   13.4864   -6.3849 N   0  0  0  0  0  0  0  0  0  0  0  0
    0.1730   12.4042   -6.8287 N   0  0  0  0  0  0  0  0  0  0  0  0
   -0.8019   11.5974   -7.2024 C   0  0  0  0  0  0  0  0  0  0  0  0
    0.3914   14.5951   -5.9029 C   0  0  0  0  0  0  0  0  0  0  0  0
   -5.4777   11.7513  -12.1737 H   0  0  0  0  0  0  0  0  0  0  0  0
   -6.1059   12.3069   -9.8697 H   0  0  0  0  0  0  0  0  0  0  0  0
   -8.1905   10.1197  -13.8887 H   0  0  0  0  0  0  0  0  0  0  0  0
   -6.8851   12.2475  -14.0948 H   0  0  0  0  0  0  0  0  0  0  0  0
   -6.8808    9.4624  -11.9250 H   0  0  0  0  0  0  0  0  0  0  0  0
   -8.0369    9.6092   -7.2600 H   0  0  0  0  0  0  0  0  0  0  0  0
   -3.8167   14.4716  -11.5590 H   0  0  0  0  0  0  0  0  0  0  0  0
   -4.1667   12.9127  -10.8899 H   0  0  0  0  0  0  0  0  0  0  0  0
   -4.8950    8.7804   -8.4918 H   0  0  0  0  0  0  0  0  0  0  0  0
   -2.6597    9.7538   -8.0534 H   0  0  0  0  0  0  0  0  0  0  0  0
   -4.5115   13.2861   -6.4794 H   0  0  0  0  0  0  0  0  0  0  0  0
   -6.7408   12.3071   -6.9064 H   0  0  0  0  0  0  0  0  0  0  0  0
   -2.4626   14.1882   -6.1155 H   0  0  0  0  0  0  0  0  0  0  0  0
   -0.6459   10.6195   -7.6335 H   0  0  0  0  0  0  0  0  0  0  0  0
    1.4555   14.3315   -5.9935 H   0  0  0  0  0  0  0  0  0  0  0  0
    0.1837   15.4928   -6.5038 H   0  0  0  0  0  0  0  0  0  0  0  0
    0.1522   14.7964   -4.8483 H   0  0  0  0  0  0  0  0  0  0  0  0
  1  2  1  0  0  0  0
  1  4  1  0  0  0  0
  1 12  1  0  0  0  0
  2  6  2  0  0  0  0
  3  4  2  0  0  0  0
  3  5  1  0  0  0  0
  5  6  1  0  0  0  0
  5  9  1  0  0  0  0
  6  7  1  0  0  0  0
  7  8  1  0  0  0  0
  7 10  2  3  0  0  0
  8  9  2  0  0  0  0
 10 14  1  0  0  0  0
 11 12  1  0  0  0  0
 12 13  2  0  0  0  0
 14 15  2  0  0  0  0
 14 19  1  0  0  0  0
 15 16  1  0  0  0  0
 16 17  2  0  0  0  0
 17 18  1  0  0  0  0
 17 20  1  0  0  0  0
 18 19  2  0  0  0  0
 20 21  2  0  0  0  0
 20 24  1  0  0  0  0
 21 22  1  0  0  0  0
 22 23  1  0  0  0  0
 22 25  1  0  0  0  0
 23 24  2  0  0  0  0
  1 26  1  0  0  0  0
  2 27  1  0  0  0  0
  3 28  1  0  0  0  0
  4 29  1  0  0  0  0
  5 30  1  0  0  0  0
 10 31  1  0  0  0  0
 11 32  1  0  0  0  0
 11 33  1  0  0  0  0
 15 34  1  0  0  0  0
 16 35  1  0  0  0  0
 18 36  1  0  0  0  0
 19 37  1  0  0  0  0
 21 38  1  0  0  0  0
 24 39  1  0  0  0  0
 25 40  1  0  0  0  0
 25 41  1  0  0  0  0
 25 42  1  0  0  0  0
M  END
> <Name>
32

> <IC50[uM]>
0.11

$$$$
32
  -OEChem-05192314333D
 Structure written by MMmdl.
 42 45  0     1  0  0  0  0  0999 V2000
   -6.3767   12.3649  -12.0150 C   0  0  0  0  0  0  0  0  0  0  0  0
   -6.5300   11.8201  -10.7355 C   0  0  0  0  0  0  0  0  0  0  0  0
   -7.7235   10.5758  -13.0283 C   0  0  0  0  0  0  0  0  0  0  0  0
   -6.9848   11.7731  -13.1297 C   0  0  0  0  0  0  0  0  0  0  0  0
   -7.8178   10.0121  -11.7526 C   0  0  3  0  0  0  0  0  0  0  0  0
   -7.2522   10.6205  -10.6098 C   0  0  3  0  0  0  0  0  0  0  0  0
   -7.6101    9.7439   -9.5117 C   0  0  0  0  0  0  0  0  0  0  0  0
   -8.2784    8.7249   -9.9778 N   0  0  0  0  0  0  0  0  0  0  0  0
   -8.4134    8.8570  -11.2978 N   0  0  0  0  0  0  0  0  0  0  0  0
   -7.3337    9.8935   -8.0288 C   0  0  0  0  0  0  0  0  0  0  0  0
   -4.4165   13.6746  -11.4876 N   0  0  0  0  0  0  0  0  0  0  0  0
   -5.5534   13.6276  -12.1919 C   0  0  0  0  0  0  0  0  0  0  0  0
   -5.9234   14.5178  -12.9405 O   0  0  0  0  0  0  0  0  0  0  0  0
   -5.9640   10.4853   -7.7356 C   0  0  0  0  0  0  0  0  0  0  0  0
   -4.8116    9.7640   -8.0536 C   0  0  0  0  0  0  0  0  0  0  0  0
   -3.5500   10.3127   -7.8058 C   0  0  0  0  0  0  0  0  0  0  0  0
   -3.4411   11.5873   -7.2364 C   0  0  0  0  0  0  0  0  0  0  0  0
   -4.5925   12.3023   -6.9174 C   0  0  0  0  0  0  0  0  0  0  0  0
   -5.8510   11.7510   -7.1622 C   0  0  0  0  0  0  0  0  0  0  0  0
   -2.0968   12.1763   -6.9669 C   0  0  0  0  0  0  0  0  0  0  0  0
   -1.7702   13.4221   -6.4317 C   0  0  0  0  0  0  0  0  0  0  0  0
   -0.4283   13.4864   -6.3849 N   0  0  0  0  0  0  0  0  0  0  0  0
    0.1730   12.4042   -6.8287 N   0  0  0  0  0  0  0  0  0  0  0  0
   -0.8019   11.5974   -7.2024 C   0  0  0  0  0  0  0  0  0  0  0  0
    0.3914   14.5951   -5.9029 C   0  0  0  0  0  0  0  0  0  0  0  0
   -6.1059   12.3069   -9.8697 H   0  0  0  0  0  0  0  0  0  0  0  0
   -8.1905   10.1197  -13.8887 H   0  0  0  0  0  0  0  0  0  0  0  0
   -6.8851   12.2475  -14.0948 H   0  0  0  0  0  0  0  0  0  0  0  0
   -6.8808    9.4624  -11.9250 H   0  0  0  0  0  0  0  0  0  0  0  0
   -8.1785   11.1934  -10.4554 H   0  0  0  0  0  0  0  0  0  0  0  0
   -8.0369    9.6092   -7.2600 H   0  0  0  0  0  0  0  0  0  0  0  0
   -3.8167   14.4716  -11.5590 H   0  0  0  0  0  0  0  0  0  0  0  0
   -4.1667   12.9127  -10.8899 H   0  0  0  0  0  0  0  0  0  0  0  0
   -4.8950    8.7804   -8.4918 H   0  0  0  0  0  0  0  0  0  0  0  0
   -2.6597    9.7538   -8.0534 H   0  0  0  0  0  0  0  0  0  0  0  0
   -4.5115   13.2861   -6.4794 H   0  0  0  0  0  0  0  0  0  0  0  0
   -6.7408   12.3071   -6.9064 H   0  0  0  0  0  0  0  0  0  0  0  0
   -2.4626   14.1882   -6.1155 H   0  0  0  0  0  0  0  0  0  0  0  0
   -0.6459   10.6195   -7.6335 H   0  0  0  0  0  0  0  0  0  0  0  0
    1.4555   14.3315   -5.9935 H   0  0  0  0  0  0  0  0  0  0  0  0
    0.1837   15.4928   -6.5038 H   0  0  0  0  0  0  0  0  0  0  0  0
    0.1522   14.7964   -4.8483 H   0  0  0  0  0  0  0  0  0  0  0  0
  1  2  2  0  0  0  0
  1  4  1  0  0  0  0
  1 12  1  0  0  0  0
  2  6  1  0  0  0  0
  3  4  2  0  0  0  0
  3  5  1  0  0  0  0
  5  6  1  0  0  0  0
  5  9  1  0  0  0  0
  6  7  1  0  0  0  0
  7  8  1  0  0  0  0
  7 10  2  3  0  0  0
  8  9  2  0  0  0  0
 10 14  1  0  0  0  0
 11 12  1  0  0  0  0
 12 13  2  0  0  0  0
 14 15  2  0  0  0  0
 14 19  1  0  0  0  0
 15 16  1  0  0  0  0
 16 17  2  0  0  0  0
 17 18  1  0  0  0  0
 17 20  1  0  0  0  0
 18 19  2  0  0  0  0
 20 21  2  0  0  0  0
 20 24  1  0  0  0  0
 21 22  1  0  0  0  0
 22 23  1  0  0  0  0
 22 25  1  0  0  0  0
 23 24  2  0  0  0  0
  2 26  1  0  0  0  0
  3 27  1  0  0  0  0
  4 28  1  0  0  0  0
  5 29  1  0  0  0  0
  6 30  1  0  0  0  0
 10 31  1  0  0  0  0
 11 32  1  0  0  0  0
 11 33  1  0  0  0  0
 15 34  1  0  0  0  0
 16 35  1  0  0  0  0
 18 36  1  0  0  0  0
 19 37  1  0  0  0  0
 21 38  1  0  0  0  0
 24 39  1  0  0  0  0
 25 40  1  0  0  0  0
 25 41  1  0  0  0  0
 25 42  1  0  0  0  0
M  END
> <Name>
32

> <IC50[uM]>
0.11

$$$$
32
  -OEChem-05192314333D
 Structure written by MMmdl.
 42 45  0     1  0  0  0  0  0999 V2000
   -6.3767   12.3649  -12.0150 C   0  0  0  0  0  0  0  0  0  0  0  0
   -6.5300   11.8201  -10.7355 C   0  0  0  0  0  0  0  0  0  0  0  0
   -7.7235   10.5758  -13.0283 C   0  0  0  0  0  0  0  0  0  0  0  0
   -6.9848   11.7731  -13.1297 C   0  0  0  0  0  0  0  0  0  0  0  0
   -7.8178   10.0121  -11.7526 C   0  0  3  0  0  0  0  0  0  0  0  0
   -7.2522   10.6205  -10.6098 C   0  0  0  0  0  0  0  0  0  0  0  0
   -7.6101    9.7439   -9.5117 C   0  0  0  0  0  0  0  0  0  0  0  0
   -8.2784    8.7249   -9.9778 N   0  0  0  0  0  0  0  0  0  0  0  0
   -8.4134    8.8570  -11.2978 N   0  0  0  0  0  0  0  0  0  0  0  0
   -7.3337    9.8935   -8.0288 C   0  0  0  0  0  0  0  0  0  0  0  0
   -4.4165   13.6746  -11.4876 N   0  0  0  0  0  0  0  0  0  0  0  0
   -5.5534   13.6276  -12.1919 C   0  0  0  0  0  0  0  0  0  0  0  0
   -5.9234   14.5178  -12.9405 O   0  0  0  0  0  0  0  0  0  0  0  0
   -5.9640   10.4853   -7.7356 C   0  0  0  0  0  0  0  0  0  0  0  0
   -4.8116    9.7640   -8.0536 C   0  0  0  0  0  0  0  0  0  0  0  0
   -3.5500   10.3127   -7.8058 C   0  0  0  0  0  0  0  0  0  0  0  0
   -3.4411   11.5873   -7.2364 C   0  0  0  0  0  0  0  0  0  0  0  0
   -4.5925   12.3023   -6.9174 C   0  0  0  0  0  0  0  0  0  0  0  0
   -5.8510   11.7510   -7.1622 C   0  0  0  0  0  0  0  0  0  0  0  0
   -2.0968   12.1763   -6.9669 C   0  0  0  0  0  0  0  0  0  0  0  0
   -1.7702   13.4221   -6.4317 C   0  0  0  0  0  0  0  0  0  0  0  0
   -0.4283   13.4864   -6.3849 N   0  0  0  0  0  0  0  0  0  0  0  0
    0.1730   12.4042   -6.8287 N   0  0  0  0  0  0  0  0  0  0  0  0
   -0.8019   11.5974   -7.2024 C   0  0  0  0  0  0  0  0  0  0  0  0
    0.3914   14.5951   -5.9029 C   0  0  0  0  0  0  0  0  0  0  0  0
   -6.1059   12.3069   -9.8697 H   0  0  0  0  0  0  0  0  0  0  0  0
   -8.7452   10.7816  -13.3800 H   0  0  0  0  0  0  0  0  0  0  0  0
   -7.2510    9.8336  -13.6885 H   0  0  0  0  0  0  0  0  0  0  0  0
   -6.8851   12.2475  -14.0948 H   0  0  0  0  0  0  0  0  0  0  0  0
   -6.8808    9.4624  -11.9250 H   0  0  0  0  0  0  0  0  0  0  0  0
   -8.0369    9.6092   -7.2600 H   0  0  0  0  0  0  0  0  0  0  0  0
   -3.8167   14.4716  -11.5590 H   0  0  0  0  0  0  0  0  0  0  0  0
   -4.1667   12.9127  -10.8899 H   0  0  0  0  0  0  0  0  0  0  0  0
   -4.8950    8.7804   -8.4918 H   0  0  0  0  0  0  0  0  0  0  0  0
   -2.6597    9.7538   -8.0534 H   0  0  0  0  0  0  0  0  0  0  0  0
   -4.5115   13.2861   -6.4794 H   0  0  0  0  0  0  0  0  0  0  0  0
   -6.7408   12.3071   -6.9064 H   0  0  0  0  0  0  0  0  0  0  0  0
   -2.4626   14.1882   -6.1155 H   0  0  0  0  0  0  0  0  0  0  0  0
   -0.6459   10.6195   -7.6335 H   0  0  0  0  0  0  0  0  0  0  0  0
    1.4555   14.3315   -5.9935 H   0  0  0  0  0  0  0  0  0  0  0  0
    0.1837   15.4928   -6.5038 H   0  0  0  0  0  0  0  0  0  0  0  0
    0.1522   14.7964   -4.8483 H   0  0  0  0  0  0  0  0  0  0  0  0
  1  2  1  0  0  0  0
  1  4  2  0  0  0  0
  1 12  1  0  0  0  0
  2  6  2  0  0  0  0
  3  4  1  0  0  0  0
  3  5  1  0  0  0  0
  5  6  1  0  0  0  0
  5  9  1  0  0  0  0
  6  7  1  0  0  0  0
  7  8  1  0  0  0  0
  7 10  2  3  0  0  0
  8  9  2  0  0  0  0
 10 14  1  0  0  0  0
 11 12  1  0  0  0  0
 12 13  2  0  0  0  0
 14 15  2  0  0  0  0
 14 19  1  0  0  0  0
 15 16  1  0  0  0  0
 16 17  2  0  0  0  0
 17 18  1  0  0  0  0
 17 20  1  0  0  0  0
 18 19  2  0  0  0  0
 20 21  2  0  0  0  0
 20 24  1  0  0  0  0
 21 22  1  0  0  0  0
 22 23  1  0  0  0  0
 22 25  1  0  0  0  0
 23 24  2  0  0  0  0
  2 26  1  0  0  0  0
  3 27  1  0  0  0  0
  3 28  1  0  0  0  0
  4 29  1  0  0  0  0
  5 30  1  0  0  0  0
 10 31  1  0  0  0  0
 11 32  1  0  0  0  0
 11 33  1  0  0  0  0
 15 34  1  0  0  0  0
 16 35  1  0  0  0  0
 18 36  1  0  0  0  0
 19 37  1  0  0  0  0
 21 38  1  0  0  0  0
 24 39  1  0  0  0  0
 25 40  1  0  0  0  0
 25 41  1  0  0  0  0
 25 42  1  0  0  0  0
M  END
> <Name>
32

> <IC50[uM]>
0.11

$$$$
32
  -OEChem-05192314333D
 Structure written by MMmdl.
 42 45  0     1  0  0  0  0  0999 V2000
   -6.3767   12.3649  -12.0150 C   0  0  0  0  0  0  0  0  0  0  0  0
   -6.5300   11.8201  -10.7355 C   0  0  0  0  0  0  0  0  0  0  0  0
   -7.7235   10.5758  -13.0283 C   0  0  0  0  0  0  0  0  0  0  0  0
   -6.9848   11.7731  -13.1297 C   0  0  0  0  0  0  0  0  0  0  0  0
   -7.8178   10.0121  -11.7526 C   0  0  0  0  0  0  0  0  0  0  0  0
   -7.2522   10.6205  -10.6098 C   0  0  0  0  0  0  0  0  0  0  0  0
   -7.6101    9.7439   -9.5117 C   0  0  0  0  0  0  0  0  0  0  0  0
   -8.2784    8.7249   -9.9778 N   0  0  0  0  0  0  0  0  0  0  0  0
   -8.4134    8.8570  -11.2978 N   0  0  0  0  0  0  0  0  0  0  0  0
   -7.3337    9.8935   -8.0288 C   0  0  0  0  0  0  0  0  0  0  0  0
   -4.4165   13.6746  -11.4876 N   0  0  0  0  0  0  0  0  0  0  0  0
   -5.5534   13.6276  -12.1919 C   0  0  0  0  0  0  0  0  0  0  0  0
   -5.9234   14.5178  -12.9405 O   0  0  0  0  0  0  0  0  0  0  0  0
   -5.9640   10.4853   -7.7356 C   0  0  0  0  0  0  0  0  0  0  0  0
   -4.8116    9.7640   -8.0536 C   0  0  0  0  0  0  0  0  0  0  0  0
   -3.5500   10.3127   -7.8058 C   0  0  0  0  0  0  0  0  0  0  0  0
   -3.4411   11.5873   -7.2364 C   0  0  3  0  0  0  0  0  0  0  0  0
   -4.5925   12.3023   -6.9174 C   0  0  0  0  0  0  0  0  0  0  0  0
   -5.8510   11.7510   -7.1622 C   0  0  0  0  0  0  0  0  0  0  0  0
   -2.0968   12.1763   -6.9669 C   0  0  0  0  0  0  0  0  0  0  0  0
   -1.7702   13.4221   -6.4317 C   0  0  0  0  0  0  0  0  0  0  0  0
   -0.4283   13.4864   -6.3849 N   0  0  0  0  0  0  0  0  0  0  0  0
    0.1730   12.4042   -6.8287 N   0  0  0  0  0  0  0  0  0  0  0  0
   -0.8019   11.5974   -7.2024 C   0  0  0  0  0  0  0  0  0  0  0  0
    0.3914   14.5951   -5.9029 C   0  0  0  0  0  0  0  0  0  0  0  0
   -6.1059   12.3069   -9.8697 H   0  0  0  0  0  0  0  0  0  0  0  0
   -8.1905   10.1197  -13.8887 H   0  0  0  0  0  0  0  0  0  0  0  0
   -6.8851   12.2475  -14.0948 H   0  0  0  0  0  0  0  0  0  0  0  0
   -8.0369    9.6092   -7.2600 H   0  0  0  0  0  0  0  0  0  0  0  0
   -3.8167   14.4716  -11.5590 H   0  0  0  0  0  0  0  0  0  0  0  0
   -4.1667   12.9127  -10.8899 H   0  0  0  0  0  0  0  0  0  0  0  0
   -4.8950    8.7804   -8.4918 H   0  0  0  0  0  0  0  0  0  0  0  0
   -3.0283    9.6178   -7.1313 H   0  0  0  0  0  0  0  0  0  0  0  0
   -3.0246   10.3502   -8.7715 H   0  0  0  0  0  0  0  0  0  0  0  0
   -3.4383   12.0370   -8.2403 H   0  0  0  0  0  0  0  0  0  0  0  0
   -4.5115   13.2861   -6.4794 H   0  0  0  0  0  0  0  0  0  0  0  0
   -6.7408   12.3071   -6.9064 H   0  0  0  0  0  0  0  0  0  0  0  0
   -2.4626   14.1882   -6.1155 H   0  0  0  0  0  0  0  0  0  0  0  0
   -0.6459   10.6195   -7.6335 H   0  0  0  0  0  0  0  0  0  0  0  0
    1.4555   14.3315   -5.9935 H   0  0  0  0  0  0  0  0  0  0  0  0
    0.1837   15.4928   -6.5038 H   0  0  0  0  0  0  0  0  0  0  0  0
    0.1522   14.7964   -4.8483 H   0  0  0  0  0  0  0  0  0  0  0  0
  1  2  2  0  0  0  0
  1  4  1  0  0  0  0
  1 12  1  0  0  0  0
  2  6  1  0  0  0  0
  3  4  2  0  0  0  0
  3  5  1  0  0  0  0
  5  6  2  0  0  0  0
  5  9  1  0  0  0  0
  6  7  1  0  0  0  0
  7  8  1  0  0  0  0
  7 10  2  3  0  0  0
  8  9  2  0  0  0  0
 10 14  1  0  0  0  0
 11 12  1  0  0  0  0
 12 13  2  0  0  0  0
 14 15  2  0  0  0  0
 14 19  1  0  0  0  0
 15 16  1  0  0  0  0
 16 17  1  0  0  0  0
 17 18  1  0  0  0  0
 17 20  1  0  0  0  0
 18 19  2  0  0  0  0
 20 21  2  0  0  0  0
 20 24  1  0  0  0  0
 21 22  1  0  0  0  0
 22 23  1  0  0  0  0
 22 25  1  0  0  0  0
 23 24  2  0  0  0  0
  2 26  1  0  0  0  0
  3 27  1  0  0  0  0
  4 28  1  0  0  0  0
 10 29  1  0  0  0  0
 11 30  1  0  0  0  0
 11 31  1  0  0  0  0
 15 32  1  0  0  0  0
 16 33  1  0  0  0  0
 16 34  1  0  0  0  0
 17 35  1  0  0  0  0
 18 36  1  0  0  0  0
 19 37  1  0  0  0  0
 21 38  1  0  0  0  0
 24 39  1  0  0  0  0
 25 40  1  0  0  0  0
 25 41  1  0  0  0  0
 25 42  1  0  0  0  0
M  END
> <Name>
32

> <IC50[uM]>
0.11

$$$$
32
  -OEChem-05192314333D
 Structure written by MMmdl.
 42 45  0     1  0  0  0  0  0999 V2000
   -6.3767   12.3649  -12.0150 C   0  0  3  0  0  0  0  0  0  0  0  0
   -6.5300   11.8201  -10.7355 C   0  0  0  0  0  0  0  0  0  0  0  0
   -7.7235   10.5758  -13.0283 C   0  0  0  0  0  0  0  0  0  0  0  0
   -6.9848   11.7731  -13.1297 C   0  0  0  0  0  0  0  0  0  0  0  0
   -7.8178   10.0121  -11.7526 C   0  0  0  0  0  0  0  0  0  0  0  0
   -7.2522   10.6205  -10.6098 C   0  0  0  0  0  0  0  0  0  0  0  0
   -7.6101    9.7439   -9.5117 C   0  0  0  0  0  0  0  0  0  0  0  0
   -8.2784    8.7249   -9.9778 N   0  0  0  0  0  0  0  0  0  0  0  0
   -8.4134    8.8570  -11.2978 N   0  0  0  0  0  0  0  0  0  0  0  0
   -7.3337    9.8935   -8.0288 C   0  0  0  0  0  0  0  0  0  0  0  0
   -4.4165   13.6746  -11.4876 N   0  0  0  0  0  0  0  0  0  0  0  0
   -5.5534   13.6276  -12.1919 C   0  0  0  0  0  0  0  0  0  0  0  0
   -5.9234   14.5178  -12.9405 O   0  0  0  0  0  0  0  0  0  0  0  0
   -5.9640   10.4853   -7.7356 C   0  0  0  0  0  0  0  0  0  0  0  0
   -4.8116    9.7640   -8.0536 C   0  0  0  0  0  0  0  0  0  0  0  0
   -3.5500   10.3127   -7.8058 C   0  0  0  0  0  0  0  0  0  0  0  0
   -3.4411   11.5873   -7.2364 C   0  0  0  0  0  0  0  0  0  0  0  0
   -4.5925   12.3023   -6.9174 C   0  0  0  0  0  0  0  0  0  0  0  0
   -5.8510   11.7510   -7.1622 C   0  0  0  0  0  0  0  0  0  0  0  0
   -2.0968   12.1763   -6.9669 C   0  0  0  0  0  0  0  0  0  0  0  0
   -1.7702   13.4221   -6.4317 C   0  0  0  0  0  0  0  0  0  0  0  0
   -0.4283   13.4864   -6.3849 N   0  0  0  0  0  0  0  0  0  0  0  0
    0.1730   12.4042   -6.8287 N   0  0  0  0  0  0  0  0  0  0  0  0
   -0.8019   11.5974   -7.2024 C   0  0  0  0  0  0  0  0  0  0  0  0
    0.3914   14.5951   -5.9029 C   0  0  0  0  0  0  0  0  0  0  0  0
   -5.4777   11.7513  -12.1737 H   0  0  0  0  0  0  0  0  0  0  0  0
   -6.1059   12.3069   -9.8697 H   0  0  0  0  0  0  0  0  0  0  0  0
   -8.1905   10.1197  -13.8887 H   0  0  0  0  0  0  0  0  0  0  0  0
   -7.6730   12.5260  -13.5414 H   0  0  0  0  0  0  0  0  0  0  0  0
   -6.1793   11.5781  -13.8530 H   0  0  0  0  0  0  0  0  0  0  0  0
   -8.0369    9.6092   -7.2600 H   0  0  0  0  0  0  0  0  0  0  0  0
   -3.8167   14.4716  -11.5590 H   0  0  0  0  0  0  0  0  0  0  0  0
   -4.1667   12.9127  -10.8899 H   0  0  0  0  0  0  0  0  0  0  0  0
   -4.8950    8.7804   -8.4918 H   0  0  0  0  0  0  0  0  0  0  0  0
   -2.6597    9.7538   -8.0534 H   0  0  0  0  0  0  0  0  0  0  0  0
   -4.5115   13.2861   -6.4794 H   0  0  0  0  0  0  0  0  0  0  0  0
   -6.7408   12.3071   -6.9064 H   0  0  0  0  0  0  0  0  0  0  0  0
   -2.4626   14.1882   -6.1155 H   0  0  0  0  0  0  0  0  0  0  0  0
   -0.6459   10.6195   -7.6335 H   0  0  0  0  0  0  0  0  0  0  0  0
    1.4555   14.3315   -5.9935 H   0  0  0  0  0  0  0  0  0  0  0  0
    0.1837   15.4928   -6.5038 H   0  0  0  0  0  0  0  0  0  0  0  0
    0.1522   14.7964   -4.8483 H   0  0  0  0  0  0  0  0  0  0  0  0
  1  2  1  0  0  0  0
  1  4  1  0  0  0  0
  1 12  1  0  0  0  0
  2  6  2  0  0  0  0
  3  4  1  0  0  0  0
  3  5  2  0  0  0  0
  5  6  1  0  0  0  0
  5  9  1  0  0  0  0
  6  7  1  0  0  0  0
  7  8  1  0  0  0  0
  7 10  2  3  0  0  0
  8  9  2  0  0  0  0
 10 14  1  0  0  0  0
 11 12  1  0  0  0  0
 12 13  2  0  0  0  0
 14 15  2  0  0  0  0
 14 19  1  0  0  0  0
 15 16  1  0  0  0  0
 16 17  2  0  0  0  0
 17 18  1  0  0  0  0
 17 20  1  0  0  0  0
 18 19  2  0  0  0  0
 20 21  2  0  0  0  0
 20 24  1  0  0  0  0
 21 22  1  0  0  0  0
 22 23  1  0  0  0  0
 22 25  1  0  0  0  0
 23 24  2  0  0  0  0
  1 26  1  0  0  0  0
  2 27  1  0  0  0  0
  3 28  1  0  0  0  0
  4 29  1  0  0  0  0
  4 30  1  0  0  0  0
 10 31  1  0  0  0  0
 11 32  1  0  0  0  0
 11 33  1  0  0  0  0
 15 34  1  0  0  0  0
 16 35  1  0  0  0  0
 18 36  1  0  0  0  0
 19 37  1  0  0  0  0
 21 38  1  0  0  0  0
 24 39  1  0  0  0  0
 25 40  1  0  0  0  0
 25 41  1  0  0  0  0
 25 42  1  0  0  0  0
M  END
> <Name>
32

> <IC50[uM]>
0.11

$$$$
32
  -OEChem-05192314333D
 Structure written by MMmdl.
 42 45  0     1  0  0  0  0  0999 V2000
   -6.3767   12.3649  -12.0150 C   0  0  0  0  0  0  0  0  0  0  0  0
   -6.5300   11.8201  -10.7355 C   0  0  0  0  0  0  0  0  0  0  0  0
   -7.7235   10.5758  -13.0283 C   0  0  0  0  0  0  0  0  0  0  0  0
   -6.9848   11.7731  -13.1297 C   0  0  0  0  0  0  0  0  0  0  0  0
   -7.8178   10.0121  -11.7526 C   0  0  0  0  0  0  0  0  0  0  0  0
   -7.2522   10.6205  -10.6098 C   0  0  3  0  0  0  0  0  0  0  0  0
   -7.6101    9.7439   -9.5117 C   0  0  0  0  0  0  0  0  0  0  0  0
   -8.2784    8.7249   -9.9778 N   0  0  0  0  0  0  0  0  0  0  0  0
   -8.4134    8.8570  -11.2978 N   0  0  0  0  0  0  0  0  0  0  0  0
   -7.3337    9.8935   -8.0288 C   0  0  0  0  0  0  0  0  0  0  0  0
   -4.4165   13.6746  -11.4876 N   0  0  0  0  0  0  0  0  0  0  0  0
   -5.5534   13.6276  -12.1919 C   0  0  0  0  0  0  0  0  0  0  0  0
   -5.9234   14.5178  -12.9405 O   0  0  0  0  0  0  0  0  0  0  0  0
   -5.9640   10.4853   -7.7356 C   0  0  0  0  0  0  0  0  0  0  0  0
   -4.8116    9.7640   -8.0536 C   0  0  0  0  0  0  0  0  0  0  0  0
   -3.5500   10.3127   -7.8058 C   0  0  0  0  0  0  0  0  0  0  0  0
   -3.4411   11.5873   -7.2364 C   0  0  0  0  0  0  0  0  0  0  0  0
   -4.5925   12.3023   -6.9174 C   0  0  0  0  0  0  0  0  0  0  0  0
   -5.8510   11.7510   -7.1622 C   0  0  0  0  0  0  0  0  0  0  0  0
   -2.0968   12.1763   -6.9669 C   0  0  0  0  0  0  0  0  0  0  0  0
   -1.7702   13.4221   -6.4317 C   0  0  0  0  0  0  0  0  0  0  0  0
   -0.4283   13.4864   -6.3849 N   0  0  0  0  0  0  0  0  0  0  0  0
    0.1730   12.4042   -6.8287 N   0  0  0  0  0  0  0  0  0  0  0  0
   -0.8019   11.5974   -7.2024 C   0  0  0  0  0  0  0  0  0  0  0  0
    0.3914   14.5951   -5.9029 C   0  0  0  0  0  0  0  0  0  0  0  0
   -6.1059   12.3069   -9.8697 H   0  0  0  0  0  0  0  0  0  0  0  0
   -8.1905   10.1197  -13.8887 H   0  0  0  0  0  0  0  0  0  0  0  0
   -7.6730   12.5260  -13.5414 H   0  0  0  0  0  0  0  0  0  0  0  0
   -6.1793   11.5781  -13.8530 H   0  0  0  0  0  0  0  0  0  0  0  0
   -8.1785   11.1934  -10.4554 H   0  0  0  0  0  0  0  0  0  0  0  0
   -8.0369    9.6092   -7.2600 H   0  0  0  0  0  0  0  0  0  0  0  0
   -3.8167   14.4716  -11.5590 H   0  0  0  0  0  0  0  0  0  0  0  0
   -4.1667   12.9127  -10.8899 H   0  0  0  0  0  0  0  0  0  0  0  0
   -4.8950    8.7804   -8.4918 H   0  0  0  0  0  0  0  0  0  0  0  0
   -2.6597    9.7538   -8.0534 H   0  0  0  0  0  0  0  0  0  0  0  0
   -4.5115   13.2861   -6.4794 H   0  0  0  0  0  0  0  0  0  0  0  0
   -6.7408   12.3071   -6.9064 H   0  0  0  0  0  0  0  0  0  0  0  0
   -2.4626   14.1882   -6.1155 H   0  0  0  0  0  0  0  0  0  0  0  0
   -0.6459   10.6195   -7.6335 H   0  0  0  0  0  0  0  0  0  0  0  0
    1.4555   14.3315   -5.9935 H   0  0  0  0  0  0  0  0  0  0  0  0
    0.1837   15.4928   -6.5038 H   0  0  0  0  0  0  0  0  0  0  0  0
    0.1522   14.7964   -4.8483 H   0  0  0  0  0  0  0  0  0  0  0  0
  1  2  2  0  0  0  0
  1  4  1  0  0  0  0
  1 12  1  0  0  0  0
  2  6  1  0  0  0  0
  3  4  1  0  0  0  0
  3  5  2  0  0  0  0
  5  6  1  0  0  0  0
  5  9  1  0  0  0  0
  6  7  1  0  0  0  0
  7  8  1  0  0  0  0
  7 10  2  3  0  0  0
  8  9  2  0  0  0  0
 10 14  1  0  0  0  0
 11 12  1  0  0  0  0
 12 13  2  0  0  0  0
 14 15  2  0  0  0  0
 14 19  1  0  0  0  0
 15 16  1  0  0  0  0
 16 17  2  0  0  0  0
 17 18  1  0  0  0  0
 17 20  1  0  0  0  0
 18 19  2  0  0  0  0
 20 21  2  0  0  0  0
 20 24  1  0  0  0  0
 21 22  1  0  0  0  0
 22 23  1  0  0  0  0
 22 25  1  0  0  0  0
 23 24  2  0  0  0  0
  2 26  1  0  0  0  0
  3 27  1  0  0  0  0
  4 28  1  0  0  0  0
  4 29  1  0  0  0  0
  6 30  1  0  0  0  0
 10 31  1  0  0  0  0
 11 32  1  0  0  0  0
 11 33  1  0  0  0  0
 15 34  1  0  0  0  0
 16 35  1  0  0  0  0
 18 36  1  0  0  0  0
 19 37  1  0  0  0  0
 21 38  1  0  0  0  0
 24 39  1  0  0  0  0
 25 40  1  0  0  0  0
 25 41  1  0  0  0  0
 25 42  1  0  0  0  0
M  END
> <Name>
32

> <IC50[uM]>
0.11

$$$$
32
  -OEChem-05192314333D
 Structure written by MMmdl.
 42 45  0     0  0  0  0  0  0999 V2000
   -6.3767   12.3649  -12.0150 C   0  0  0  0  0  0  0  0  0  0  0  0
   -6.5300   11.8201  -10.7355 C   0  0  0  0  0  0  0  0  0  0  0  0
   -7.7235   10.5758  -13.0283 C   0  0  0  0  0  0  0  0  0  0  0  0
   -6.9848   11.7731  -13.1297 C   0  0  0  0  0  0  0  0  0  0  0  0
   -7.8178   10.0121  -11.7526 C   0  0  0  0  0  0  0  0  0  0  0  0
   -7.2522   10.6205  -10.6098 C   0  0  0  0  0  0  0  0  0  0  0  0
   -7.6101    9.7439   -9.5117 C   0  0  0  0  0  0  0  0  0  0  0  0
   -8.2784    8.7249   -9.9778 N   0  0  0  0  0  0  0  0  0  0  0  0
   -8.4134    8.8570  -11.2978 N   0  0  0  0  0  0  0  0  0  0  0  0
   -7.3337    9.8935   -8.0288 C   0  0  0  0  0  0  0  0  0  0  0  0
   -4.4165   13.6746  -11.4876 N   0  0  0  0  0  0  0  0  0  0  0  0
   -5.5534   13.6276  -12.1919 C   0  0  0  0  0  0  0  0  0  0  0  0
   -5.9234   14.5178  -12.9405 O   0  0  0  0  0  0  0  0  0  0  0  0
   -5.9640   10.4853   -7.7356 C   0  0  0  0  0  0  0  0  0  0  0  0
   -4.8116    9.7640   -8.0536 C   0  0  0  0  0  0  0  0  0  0  0  0
   -3.5500   10.3127   -7.8058 C   0  0  0  0  0  0  0  0  0  0  0  0
   -3.4411   11.5873   -7.2364 C   0  0  0  0  0  0  0  0  0  0  0  0
   -4.5925   12.3023   -6.9174 C   0  0  0  0  0  0  0  0  0  0  0  0
   -5.8510   11.7510   -7.1622 C   0  0  0  0  0  0  0  0  0  0  0  0
   -2.0968   12.1763   -6.9669 C   0  0  0  0  0  0  0  0  0  0  0  0
   -1.7702   13.4221   -6.4317 C   0  0  0  0  0  0  0  0  0  0  0  0
   -0.4283   13.4864   -6.3849 N   0  0  0  0  0  0  0  0  0  0  0  0
    0.1730   12.4042   -6.8287 N   0  0  0  0  0  0  0  0  0  0  0  0
   -0.8019   11.5974   -7.2024 C   0  0  0  0  0  0  0  0  0  0  0  0
    0.3914   14.5951   -5.9029 C   0  0  0  0  0  0  0  0  0  0  0  0
   -6.1059   12.3069   -9.8697 H   0  0  0  0  0  0  0  0  0  0  0  0
   -8.7452   10.7816  -13.3800 H   0  0  0  0  0  0  0  0  0  0  0  0
   -7.2510    9.8336  -13.6885 H   0  0  0  0  0  0  0  0  0  0  0  0
   -7.6730   12.5260  -13.5414 H   0  0  0  0  0  0  0  0  0  0  0  0
   -6.1793   11.5781  -13.8530 H   0  0  0  0  0  0  0  0  0  0  0  0
   -8.0369    9.6092   -7.2600 H   0  0  0  0  0  0  0  0  0  0  0  0
   -3.8167   14.4716  -11.5590 H   0  0  0  0  0  0  0  0  0  0  0  0
   -4.1667   12.9127  -10.8899 H   0  0  0  0  0  0  0  0  0  0  0  0
   -4.8950    8.7804   -8.4918 H   0  0  0  0  0  0  0  0  0  0  0  0
   -2.6597    9.7538   -8.0534 H   0  0  0  0  0  0  0  0  0  0  0  0
   -4.5115   13.2861   -6.4794 H   0  0  0  0  0  0  0  0  0  0  0  0
   -6.7408   12.3071   -6.9064 H   0  0  0  0  0  0  0  0  0  0  0  0
   -2.4626   14.1882   -6.1155 H   0  0  0  0  0  0  0  0  0  0  0  0
   -0.6459   10.6195   -7.6335 H   0  0  0  0  0  0  0  0  0  0  0  0
    1.4555   14.3315   -5.9935 H   0  0  0  0  0  0  0  0  0  0  0  0
    0.1837   15.4928   -6.5038 H   0  0  0  0  0  0  0  0  0  0  0  0
    0.1522   14.7964   -4.8483 H   0  0  0  0  0  0  0  0  0  0  0  0
  1  2  2  0  0  0  0
  1  4  1  0  0  0  0
  1 12  1  0  0  0  0
  2  6  1  0  0  0  0
  3  4  1  0  0  0  0
  3  5  1  0  0  0  0
  5  6  2  0  0  0  0
  5  9  1  0  0  0  0
  6  7  1  0  0  0  0
  7  8  1  0  0  0  0
  7 10  2  3  0  0  0
  8  9  2  0  0  0  0
 10 14  1  0  0  0  0
 11 12  1  0  0  0  0
 12 13  2  0  0  0  0
 14 15  2  0  0  0  0
 14 19  1  0  0  0  0
 15 16  1  0  0  0  0
 16 17  2  0  0  0  0
 17 18  1  0  0  0  0
 17 20  1  0  0  0  0
 18 19  2  0  0  0  0
 20 21  2  0  0  0  0
 20 24  1  0  0  0  0
 21 22  1  0  0  0  0
 22 23  1  0  0  0  0
 22 25  1  0  0  0  0
 23 24  2  0  0  0  0
  2 26  1  0  0  0  0
  3 27  1  0  0  0  0
  3 28  1  0  0  0  0
  4 29  1  0  0  0  0
  4 30  1  0  0  0  0
 10 31  1  0  0  0  0
 11 32  1  0  0  0  0
 11 33  1  0  0  0  0
 15 34  1  0  0  0  0
 16 35  1  0  0  0  0
 18 36  1  0  0  0  0
 19 37  1  0  0  0  0
 21 38  1  0  0  0  0
 24 39  1  0  0  0  0
 25 40  1  0  0  0  0
 25 41  1  0  0  0  0
 25 42  1  0  0  0  0
M  END
> <Name>
32

> <IC50[uM]>
0.11

$$$$
32
  -OEChem-05192314333D
 Structure written by MMmdl.
 42 45  0     1  0  0  0  0  0999 V2000
   -6.3767   12.3649  -12.0150 C   0  0  0  0  0  0  0  0  0  0  0  0
   -6.5300   11.8201  -10.7355 C   0  0  0  0  0  0  0  0  0  0  0  0
   -7.7235   10.5758  -13.0283 C   0  0  0  0  0  0  0  0  0  0  0  0
   -6.9848   11.7731  -13.1297 C   0  0  0  0  0  0  0  0  0  0  0  0
   -7.8178   10.0121  -11.7526 C   0  0  0  0  0  0  0  0  0  0  0  0
   -7.2522   10.6205  -10.6098 C   0  0  0  0  0  0  0  0  0  0  0  0
   -7.6101    9.7439   -9.5117 C   0  0  0  0  0  0  0  0  0  0  0  0
   -8.2784    8.7249   -9.9778 N   0  0  0  0  0  0  0  0  0  0  0  0
   -8.4134    8.8570  -11.2978 N   0  0  0  0  0  0  0  0  0  0  0  0
   -7.3337    9.8935   -8.0288 C   0  0  0  0  0  0  0  0  0  0  0  0
   -4.4165   13.6746  -11.4876 N   0  0  0  0  0  0  0  0  0  0  0  0
   -5.5534   13.6276  -12.1919 C   0  0  0  0  0  0  0  0  0  0  0  0
   -5.9234   14.5178  -12.9405 O   0  0  0  0  0  0  0  0  0  0  0  0
   -5.9640   10.4853   -7.7356 C   0  0  3  0  0  0  0  0  0  0  0  0
   -4.8116    9.7640   -8.0536 C   0  0  0  0  0  0  0  0  0  0  0  0
   -3.5500   10.3127   -7.8058 C   0  0  0  0  0  0  0  0  0  0  0  0
   -3.4411   11.5873   -7.2364 C   0  0  0  0  0  0  0  0  0  0  0  0
   -4.5925   12.3023   -6.9174 C   0  0  0  0  0  0  0  0  0  0  0  0
   -5.8510   11.7510   -7.1622 C   0  0  0  0  0  0  0  0  0  0  0  0
   -2.0968   12.1763   -6.9669 C   0  0  0  0  0  0  0  0  0  0  0  0
   -1.7702   13.4221   -6.4317 C   0  0  0  0  0  0  0  0  0  0  0  0
   -0.4283   13.4864   -6.3849 N   0  0  0  0  0  0  0  0  0  0  0  0
    0.1730   12.4042   -6.8287 N   0  0  0  0  0  0  0  0  0  0  0  0
   -0.8019   11.5974   -7.2024 C   0  0  0  0  0  0  0  0  0  0  0  0
    0.3914   14.5951   -5.9029 C   0  0  0  0  0  0  0  0  0  0  0  0
   -6.1059   12.3069   -9.8697 H   0  0  0  0  0  0  0  0  0  0  0  0
   -8.1905   10.1197  -13.8887 H   0  0  0  0  0  0  0  0  0  0  0  0
   -6.8851   12.2475  -14.0948 H   0  0  0  0  0  0  0  0  0  0  0  0
   -8.0369    9.6092   -7.2600 H   0  0  0  0  0  0  0  0  0  0  0  0
   -3.8167   14.4716  -11.5590 H   0  0  0  0  0  0  0  0  0  0  0  0
   -4.1667   12.9127  -10.8899 H   0  0  0  0  0  0  0  0  0  0  0  0
   -5.9776   10.0292   -6.7347 H   0  0  0  0  0  0  0  0  0  0  0  0
   -4.8950    8.7804   -8.4918 H   0  0  0  0  0  0  0  0  0  0  0  0
   -2.6597    9.7538   -8.0534 H   0  0  0  0  0  0  0  0  0  0  0  0
   -4.5115   13.2861   -6.4794 H   0  0  0  0  0  0  0  0  0  0  0  0
   -6.3776   12.4489   -7.8298 H   0  0  0  0  0  0  0  0  0  0  0  0
   -6.3709   11.7071   -6.1938 H   0  0  0  0  0  0  0  0  0  0  0  0
   -2.4626   14.1882   -6.1155 H   0  0  0  0  0  0  0  0  0  0  0  0
   -0.6459   10.6195   -7.6335 H   0  0  0  0  0  0  0  0  0  0  0  0
    1.4555   14.3315   -5.9935 H   0  0  0  0  0  0  0  0  0  0  0  0
    0.1837   15.4928   -6.5038 H   0  0  0  0  0  0  0  0  0  0  0  0
    0.1522   14.7964   -4.8483 H   0  0  0  0  0  0  0  0  0  0  0  0
  1  2  2  0  0  0  0
  1  4  1  0  0  0  0
  1 12  1  0  0  0  0
  2  6  1  0  0  0  0
  3  4  2  0  0  0  0
  3  5  1  0  0  0  0
  5  6  2  0  0  0  0
  5  9  1  0  0  0  0
  6  7  1  0  0  0  0
  7  8  1  0  0  0  0
  7 10  2  3  0  0  0
  8  9  2  0  0  0  0
 10 14  1  0  0  0  0
 11 12  1  0  0  0  0
 12 13  2  0  0  0  0
 14 15  1  0  0  0  0
 14 19  1  0  0  0  0
 15 16  2  0  0  0  0
 16 17  1  0  0  0  0
 17 18  2  0  0  0  0
 17 20  1  0  0  0  0
 18 19  1  0  0  0  0
 20 21  2  0  0  0  0
 20 24  1  0  0  0  0
 21 22  1  0  0  0  0
 22 23  1  0  0  0  0
 22 25  1  0  0  0  0
 23 24  2  0  0  0  0
  2 26  1  0  0  0  0
  3 27  1  0  0  0  0
  4 28  1  0  0  0  0
 10 29  1  0  0  0  0
 11 30  1  0  0  0  0
 11 31  1  0  0  0  0
 14 32  1  0  0  0  0
 15 33  1  0  0  0  0
 16 34  1  0  0  0  0
 18 35  1  0  0  0  0
 19 36  1  0  0  0  0
 19 37  1  0  0  0  0
 21 38  1  0  0  0  0
 24 39  1  0  0  0  0
 25 40  1  0  0  0  0
 25 41  1  0  0  0  0
 25 42  1  0  0  0  0
M  END
> <Name>
32

> <IC50[uM]>
0.11

$$$$
32
  -OEChem-05192314333D
 Structure written by MMmdl.
 42 45  0     1  0  0  0  0  0999 V2000
   -6.3767   12.3649  -12.0150 C   0  0  0  0  0  0  0  0  0  0  0  0
   -6.5300   11.8201  -10.7355 C   0  0  0  0  0  0  0  0  0  0  0  0
   -7.7235   10.5758  -13.0283 C   0  0  0  0  0  0  0  0  0  0  0  0
   -6.9848   11.7731  -13.1297 C   0  0  0  0  0  0  0  0  0  0  0  0
   -7.8178   10.0121  -11.7526 C   0  0  0  0  0  0  0  0  0  0  0  0
   -7.2522   10.6205  -10.6098 C   0  0  0  0  0  0  0  0  0  0  0  0
   -7.6101    9.7439   -9.5117 C   0  0  3  0  0  0  0  0  0  0  0  0
   -8.2784    8.7249   -9.9778 N   0  0  0  0  0  0  0  0  0  0  0  0
   -8.4134    8.8570  -11.2978 N   0  0  0  0  0  0  0  0  0  0  0  0
   -7.3337    9.8935   -8.0288 C   0  0  0  0  0  0  0  0  0  0  0  0
   -4.4165   13.6746  -11.4876 N   0  0  0  0  0  0  0  0  0  0  0  0
   -5.5534   13.6276  -12.1919 C   0  0  0  0  0  0  0  0  0  0  0  0
   -5.9234   14.5178  -12.9405 O   0  0  0  0  0  0  0  0  0  0  0  0
   -5.9640   10.4853   -7.7356 C   0  0  0  0  0  0  0  0  0  0  0  0
   -4.8116    9.7640   -8.0536 C   0  0  0  0  0  0  0  0  0  0  0  0
   -3.5500   10.3127   -7.8058 C   0  0  0  0  0  0  0  0  0  0  0  0
   -3.4411   11.5873   -7.2364 C   0  0  0  0  0  0  0  0  0  0  0  0
   -4.5925   12.3023   -6.9174 C   0  0  0  0  0  0  0  0  0  0  0  0
   -5.8510   11.7510   -7.1622 C   0  0  0  0  0  0  0  0  0  0  0  0
   -2.0968   12.1763   -6.9669 C   0  0  0  0  0  0  0  0  0  0  0  0
   -1.7702   13.4221   -6.4317 C   0  0  0  0  0  0  0  0  0  0  0  0
   -0.4283   13.4864   -6.3849 N   0  0  0  0  0  0  0  0  0  0  0  0
    0.1730   12.4042   -6.8287 N   0  0  0  0  0  0  0  0  0  0  0  0
   -0.8019   11.5974   -7.2024 C   0  0  0  0  0  0  0  0  0  0  0  0
    0.3914   14.5951   -5.9029 C   0  0  0  0  0  0  0  0  0  0  0  0
   -6.1059   12.3069   -9.8697 H   0  0  0  0  0  0  0  0  0  0  0  0
   -8.1905   10.1197  -13.8887 H   0  0  0  0  0  0  0  0  0  0  0  0
   -6.8851   12.2475  -14.0948 H   0  0  0  0  0  0  0  0  0  0  0  0
   -6.6672    9.1915   -9.6375 H   0  0  0  0  0  0  0  0  0  0  0  0
   -8.0369    9.6092   -7.2600 H   0  0  0  0  0  0  0  0  0  0  0  0
   -3.8167   14.4716  -11.5590 H   0  0  0  0  0  0  0  0  0  0  0  0
   -4.1667   12.9127  -10.8899 H   0  0  0  0  0  0  0  0  0  0  0  0
   -4.8950    8.7804   -8.4918 H   0  0  0  0  0  0  0  0  0  0  0  0
   -2.6597    9.7538   -8.0534 H   0  0  0  0  0  0  0  0  0  0  0  0
   -4.5115   13.2861   -6.4794 H   0  0  0  0  0  0  0  0  0  0  0  0
   -6.3776   12.4489   -7.8298 H   0  0  0  0  0  0  0  0  0  0  0  0
   -6.3709   11.7071   -6.1938 H   0  0  0  0  0  0  0  0  0  0  0  0
   -2.4626   14.1882   -6.1155 H   0  0  0  0  0  0  0  0  0  0  0  0
   -0.6459   10.6195   -7.6335 H   0  0  0  0  0  0  0  0  0  0  0  0
    1.4555   14.3315   -5.9935 H   0  0  0  0  0  0  0  0  0  0  0  0
    0.1837   15.4928   -6.5038 H   0  0  0  0  0  0  0  0  0  0  0  0
    0.1522   14.7964   -4.8483 H   0  0  0  0  0  0  0  0  0  0  0  0
  1  2  2  0  0  0  0
  1  4  1  0  0  0  0
  1 12  1  0  0  0  0
  2  6  1  0  0  0  0
  3  4  2  0  0  0  0
  3  5  1  0  0  0  0
  5  6  2  0  0  0  0
  5  9  1  0  0  0  0
  6  7  1  0  0  0  0
  7  8  1  0  0  0  0
  7 10  1  0  0  0  0
  8  9  2  0  0  0  0
 10 14  2  3  0  0  0
 11 12  1  0  0  0  0
 12 13  2  0  0  0  0
 14 15  1  0  0  0  0
 14 19  1  0  0  0  0
 15 16  2  0  0  0  0
 16 17  1  0  0  0  0
 17 18  2  0  0  0  0
 17 20  1  0  0  0  0
 18 19  1  0  0  0  0
 20 21  2  0  0  0  0
 20 24  1  0  0  0  0
 21 22  1  0  0  0  0
 22 23  1  0  0  0  0
 22 25  1  0  0  0  0
 23 24  2  0  0  0  0
  2 26  1  0  0  0  0
  3 27  1  0  0  0  0
  4 28  1  0  0  0  0
  7 29  1  0  0  0  0
 10 30  1  0  0  0  0
 11 31  1  0  0  0  0
 11 32  1  0  0  0  0
 15 33  1  0  0  0  0
 16 34  1  0  0  0  0
 18 35  1  0  0  0  0
 19 36  1  0  0  0  0
 19 37  1  0  0  0  0
 21 38  1  0  0  0  0
 24 39  1  0  0  0  0
 25 40  1  0  0  0  0
 25 41  1  0  0  0  0
 25 42  1  0  0  0  0
M  END
> <Name>
32

> <IC50[uM]>
0.11

$$$$
32
  -OEChem-05192314333D
 Structure written by MMmdl.
 42 45  0     0  0  0  0  0  0999 V2000
   -6.3767   12.3649  -12.0150 C   0  0  0  0  0  0  0  0  0  0  0  0
   -6.5300   11.8201  -10.7355 C   0  0  0  0  0  0  0  0  0  0  0  0
   -7.7235   10.5758  -13.0283 C   0  0  0  0  0  0  0  0  0  0  0  0
   -6.9848   11.7731  -13.1297 C   0  0  0  0  0  0  0  0  0  0  0  0
   -7.8178   10.0121  -11.7526 C   0  0  0  0  0  0  0  0  0  0  0  0
   -7.2522   10.6205  -10.6098 C   0  0  0  0  0  0  0  0  0  0  0  0
   -7.6101    9.7439   -9.5117 C   0  0  0  0  0  0  0  0  0  0  0  0
   -8.2784    8.7249   -9.9778 N   0  0  0  0  0  0  0  0  0  0  0  0
   -8.4134    8.8570  -11.2978 N   0  0  0  0  0  0  0  0  0  0  0  0
   -7.3337    9.8935   -8.0288 C   0  0  0  0  0  0  0  0  0  0  0  0
   -4.4165   13.6746  -11.4876 N   0  0  0  0  0  0  0  0  0  0  0  0
   -5.5534   13.6276  -12.1919 C   0  0  0  0  0  0  0  0  0  0  0  0
   -5.9234   14.5178  -12.9405 O   0  0  0  0  0  0  0  0  0  0  0  0
   -5.9640   10.4853   -7.7356 C   0  0  0  0  0  0  0  0  0  0  0  0
   -4.8116    9.7640   -8.0536 C   0  0  0  0  0  0  0  0  0  0  0  0
   -3.5500   10.3127   -7.8058 C   0  0  0  0  0  0  0  0  0  0  0  0
   -3.4411   11.5873   -7.2364 C   0  0  0  0  0  0  0  0  0  0  0  0
   -4.5925   12.3023   -6.9174 C   0  0  0  0  0  0  0  0  0  0  0  0
   -5.8510   11.7510   -7.1622 C   0  0  0  0  0  0  0  0  0  0  0  0
   -2.0968   12.1763   -6.9669 C   0  0  0  0  0  0  0  0  0  0  0  0
   -1.7702   13.4221   -6.4317 C   0  0  0  0  0  0  0  0  0  0  0  0
   -0.4283   13.4864   -6.3849 N   0  0  0  0  0  0  0  0  0  0  0  0
    0.1730   12.4042   -6.8287 N   0  0  0  0  0  0  0  0  0  0  0  0
   -0.8019   11.5974   -7.2024 C   0  0  0  0  0  0  0  0  0  0  0  0
    0.3914   14.5951   -5.9029 C   0  0  0  0  0  0  0  0  0  0  0  0
   -6.1059   12.3069   -9.8697 H   0  0  0  0  0  0  0  0  0  0  0  0
   -8.1905   10.1197  -13.8887 H   0  0  0  0  0  0  0  0  0  0  0  0
   -6.8851   12.2475  -14.0948 H   0  0  0  0  0  0  0  0  0  0  0  0
   -8.0369    9.6092   -7.2600 H   0  0  0  0  0  0  0  0  0  0  0  0
   -3.8167   14.4716  -11.5590 H   0  0  0  0  0  0  0  0  0  0  0  0
   -4.1667   12.9127  -10.8899 H   0  0  0  0  0  0  0  0  0  0  0  0
   -4.8950    8.7804   -8.4918 H   0  0  0  0  0  0  0  0  0  0  0  0
   -3.0283    9.6178   -7.1313 H   0  0  0  0  0  0  0  0  0  0  0  0
   -3.0246   10.3502   -8.7715 H   0  0  0  0  0  0  0  0  0  0  0  0
   -4.5115   13.2861   -6.4794 H   0  0  0  0  0  0  0  0  0  0  0  0
   -6.3776   12.4489   -7.8298 H   0  0  0  0  0  0  0  0  0  0  0  0
   -6.3709   11.7071   -6.1938 H   0  0  0  0  0  0  0  0  0  0  0  0
   -2.4626   14.1882   -6.1155 H   0  0  0  0  0  0  0  0  0  0  0  0
   -0.6459   10.6195   -7.6335 H   0  0  0  0  0  0  0  0  0  0  0  0
    1.4555   14.3315   -5.9935 H   0  0  0  0  0  0  0  0  0  0  0  0
    0.1837   15.4928   -6.5038 H   0  0  0  0  0  0  0  0  0  0  0  0
    0.1522   14.7964   -4.8483 H   0  0  0  0  0  0  0  0  0  0  0  0
  1  2  2  0  0  0  0
  1  4  1  0  0  0  0
  1 12  1  0  0  0  0
  2  6  1  0  0  0  0
  3  4  2  0  0  0  0
  3  5  1  0  0  0  0
  5  6  2  0  0  0  0
  5  9  1  0  0  0  0
  6  7  1  0  0  0  0
  7  8  1  0  0  0  0
  7 10  2  3  0  0  0
  8  9  2  0  0  0  0
 10 14  1  0  0  0  0
 11 12  1  0  0  0  0
 12 13  2  0  0  0  0
 14 15  2  0  0  0  0
 14 19  1  0  0  0  0
 15 16  1  0  0  0  0
 16 17  1  0  0  0  0
 17 18  2  0  0  0  0
 17 20  1  0  0  0  0
 18 19  1  0  0  0  0
 20 21  2  0  0  0  0
 20 24  1  0  0  0  0
 21 22  1  0  0  0  0
 22 23  1  0  0  0  0
 22 25  1  0  0  0  0
 23 24  2  0  0  0  0
  2 26  1  0  0  0  0
  3 27  1  0  0  0  0
  4 28  1  0  0  0  0
 10 29  1  0  0  0  0
 11 30  1  0  0  0  0
 11 31  1  0  0  0  0
 15 32  1  0  0  0  0
 16 33  1  0  0  0  0
 16 34  1  0  0  0  0
 18 35  1  0  0  0  0
 19 36  1  0  0  0  0
 19 37  1  0  0  0  0
 21 38  1  0  0  0  0
 24 39  1  0  0  0  0
 25 40  1  0  0  0  0
 25 41  1  0  0  0  0
 25 42  1  0  0  0  0
M  END
> <Name>
32

> <IC50[uM]>
0.11

$$$$
32
  -OEChem-05192314333D
 Structure written by MMmdl.
 42 45  0     0  0  0  0  0  0999 V2000
   -6.3767   12.3649  -12.0150 C   0  0  0  0  0  0  0  0  0  0  0  0
   -6.5300   11.8201  -10.7355 C   0  0  0  0  0  0  0  0  0  0  0  0
   -7.7235   10.5758  -13.0283 C   0  0  0  0  0  0  0  0  0  0  0  0
   -6.9848   11.7731  -13.1297 C   0  0  0  0  0  0  0  0  0  0  0  0
   -7.8178   10.0121  -11.7526 C   0  0  0  0  0  0  0  0  0  0  0  0
   -7.2522   10.6205  -10.6098 C   0  0  0  0  0  0  0  0  0  0  0  0
   -7.6101    9.7439   -9.5117 C   0  0  0  0  0  0  0  0  0  0  0  0
   -8.2784    8.7249   -9.9778 N   0  0  0  0  0  0  0  0  0  0  0  0
   -8.4134    8.8570  -11.2978 N   0  0  0  0  0  0  0  0  0  0  0  0
   -7.3337    9.8935   -8.0288 C   0  0  0  0  0  0  0  0  0  0  0  0
   -4.4165   13.6746  -11.4876 N   0  0  0  0  0  0  0  0  0  0  0  0
   -5.5534   13.6276  -12.1919 C   0  0  0  0  0  0  0  0  0  0  0  0
   -5.9234   14.5178  -12.9405 O   0  0  0  0  0  0  0  0  0  0  0  0
   -5.9640   10.4853   -7.7356 C   0  0  0  0  0  0  0  0  0  0  0  0
   -4.8116    9.7640   -8.0536 C   0  0  0  0  0  0  0  0  0  0  0  0
   -3.5500   10.3127   -7.8058 C   0  0  0  0  0  0  0  0  0  0  0  0
   -3.4411   11.5873   -7.2364 C   0  0  0  0  0  0  0  0  0  0  0  0
   -4.5925   12.3023   -6.9174 C   0  0  0  0  0  0  0  0  0  0  0  0
   -5.8510   11.7510   -7.1622 C   0  0  0  0  0  0  0  0  0  0  0  0
   -2.0968   12.1763   -6.9669 C   0  0  0  0  0  0  0  0  0  0  0  0
   -1.7702   13.4221   -6.4317 C   0  0  0  0  0  0  0  0  0  0  0  0
   -0.4283   13.4864   -6.3849 N   0  0  0  0  0  0  0  0  0  0  0  0
    0.1730   12.4042   -6.8287 N   0  0  0  0  0  0  0  0  0  0  0  0
   -0.8019   11.5974   -7.2024 C   0  0  0  0  0  0  0  0  0  0  0  0
    0.3914   14.5951   -5.9029 C   0  0  0  0  0  0  0  0  0  0  0  0
   -6.1059   12.3069   -9.8697 H   0  0  0  0  0  0  0  0  0  0  0  0
   -8.1905   10.1197  -13.8887 H   0  0  0  0  0  0  0  0  0  0  0  0
   -6.8851   12.2475  -14.0948 H   0  0  0  0  0  0  0  0  0  0  0  0
   -8.0369    9.6092   -7.2600 H   0  0  0  0  0  0  0  0  0  0  0  0
   -3.8167   14.4716  -11.5590 H   0  0  0  0  0  0  0  0  0  0  0  0
   -4.1667   12.9127  -10.8899 H   0  0  0  0  0  0  0  0  0  0  0  0
   -4.8950    8.7804   -8.4918 H   0  0  0  0  0  0  0  0  0  0  0  0
   -2.6597    9.7538   -8.0534 H   0  0  0  0  0  0  0  0  0  0  0  0
   -4.5444   12.5155   -5.8393 H   0  0  0  0  0  0  0  0  0  0  0  0
   -4.5453   13.2462   -7.4803 H   0  0  0  0  0  0  0  0  0  0  0  0
   -6.3776   12.4489   -7.8298 H   0  0  0  0  0  0  0  0  0  0  0  0
   -6.3709   11.7071   -6.1938 H   0  0  0  0  0  0  0  0  0  0  0  0
   -2.4626   14.1882   -6.1155 H   0  0  0  0  0  0  0  0  0  0  0  0
   -0.6459   10.6195   -7.6335 H   0  0  0  0  0  0  0  0  0  0  0  0
    1.4555   14.3315   -5.9935 H   0  0  0  0  0  0  0  0  0  0  0  0
    0.1837   15.4928   -6.5038 H   0  0  0  0  0  0  0  0  0  0  0  0
    0.1522   14.7964   -4.8483 H   0  0  0  0  0  0  0  0  0  0  0  0
  1  2  2  0  0  0  0
  1  4  1  0  0  0  0
  1 12  1  0  0  0  0
  2  6  1  0  0  0  0
  3  4  2  0  0  0  0
  3  5  1  0  0  0  0
  5  6  2  0  0  0  0
  5  9  1  0  0  0  0
  6  7  1  0  0  0  0
  7  8  1  0  0  0  0
  7 10  2  3  0  0  0
  8  9  2  0  0  0  0
 10 14  1  0  0  0  0
 11 12  1  0  0  0  0
 12 13  2  0  0  0  0
 14 15  2  0  0  0  0
 14 19  1  0  0  0  0
 15 16  1  0  0  0  0
 16 17  2  0  0  0  0
 17 18  1  0  0  0  0
 17 20  1  0  0  0  0
 18 19  1  0  0  0  0
 20 21  2  0  0  0  0
 20 24  1  0  0  0  0
 21 22  1  0  0  0  0
 22 23  1  0  0  0  0
 22 25  1  0  0  0  0
 23 24  2  0  0  0  0
  2 26  1  0  0  0  0
  3 27  1  0  0  0  0
  4 28  1  0  0  0  0
 10 29  1  0  0  0  0
 11 30  1  0  0  0  0
 11 31  1  0  0  0  0
 15 32  1  0  0  0  0
 16 33  1  0  0  0  0
 18 34  1  0  0  0  0
 18 35  1  0  0  0  0
 19 36  1  0  0  0  0
 19 37  1  0  0  0  0
 21 38  1  0  0  0  0
 24 39  1  0  0  0  0
 25 40  1  0  0  0  0
 25 41  1  0  0  0  0
 25 42  1  0  0  0  0
M  END
> <Name>
32

> <IC50[uM]>
0.11

$$$$
32
  -OEChem-05192314333D
 Structure written by MMmdl.
 42 45  0     1  0  0  0  0  0999 V2000
   -6.3767   12.3649  -12.0150 C   0  0  3  0  0  0  0  0  0  0  0  0
   -6.5300   11.8201  -10.7355 C   0  0  0  0  0  0  0  0  0  0  0  0
   -7.7235   10.5758  -13.0283 C   0  0  0  0  0  0  0  0  0  0  0  0
   -6.9848   11.7731  -13.1297 C   0  0  0  0  0  0  0  0  0  0  0  0
   -7.8178   10.0121  -11.7526 C   0  0  0  0  0  0  0  0  0  0  0  0
   -7.2522   10.6205  -10.6098 C   0  0  0  0  0  0  0  0  0  0  0  0
   -7.6101    9.7439   -9.5117 C   0  0  0  0  0  0  0  0  0  0  0  0
   -8.2784    8.7249   -9.9778 N   0  0  0  0  0  0  0  0  0  0  0  0
   -8.4134    8.8570  -11.2978 N   0  0  0  0  0  0  0  0  0  0  0  0
   -7.3337    9.8935   -8.0288 C   0  0  0  0  0  0  0  0  0  0  0  0
   -4.4165   13.6746  -11.4876 N   0  0  0  0  0  0  0  0  0  0  0  0
   -5.5534   13.6276  -12.1919 C   0  0  0  0  0  0  0  0  0  0  0  0
   -5.9234   14.5178  -12.9405 O   0  0  0  0  0  0  0  0  0  0  0  0
   -5.9640   10.4853   -7.7356 C   0  0  0  0  0  0  0  0  0  0  0  0
   -4.8116    9.7640   -8.0536 C   0  0  0  0  0  0  0  0  0  0  0  0
   -3.5500   10.3127   -7.8058 C   0  0  0  0  0  0  0  0  0  0  0  0
   -3.4411   11.5873   -7.2364 C   0  0  0  0  0  0  0  0  0  0  0  0
   -4.5925   12.3023   -6.9174 C   0  0  0  0  0  0  0  0  0  0  0  0
   -5.8510   11.7510   -7.1622 C   0  0  0  0  0  0  0  0  0  0  0  0
   -2.0968   12.1763   -6.9669 C   0  0  0  0  0  0  0  0  0  0  0  0
   -1.7702   13.4221   -6.4317 C   0  0  0  0  0  0  0  0  0  0  0  0
   -0.4283   13.4864   -6.3849 N   0  0  0  0  0  0  0  0  0  0  0  0
    0.1730   12.4042   -6.8287 N   0  0  0  0  0  0  0  0  0  0  0  0
   -0.8019   11.5974   -7.2024 C   0  0  0  0  0  0  0  0  0  0  0  0
    0.3914   14.5951   -5.9029 C   0  0  0  0  0  0  0  0  0  0  0  0
   -5.4777   11.7513  -12.1737 H   0  0  0  0  0  0  0  0  0  0  0  0
   -5.5219   11.6382  -10.3348 H   0  0  0  0  0  0  0  0  0  0  0  0
   -7.0394   12.5745  -10.1179 H   0  0  0  0  0  0  0  0  0  0  0  0
   -8.1905   10.1197  -13.8887 H   0  0  0  0  0  0  0  0  0  0  0  0
   -6.8851   12.2475  -14.0948 H   0  0  0  0  0  0  0  0  0  0  0  0
   -8.0369    9.6092   -7.2600 H   0  0  0  0  0  0  0  0  0  0  0  0
   -3.8167   14.4716  -11.5590 H   0  0  0  0  0  0  0  0  0  0  0  0
   -4.1667   12.9127  -10.8899 H   0  0  0  0  0  0  0  0  0  0  0  0
   -4.8950    8.7804   -8.4918 H   0  0  0  0  0  0  0  0  0  0  0  0
   -2.6597    9.7538   -8.0534 H   0  0  0  0  0  0  0  0  0  0  0  0
   -4.5115   13.2861   -6.4794 H   0  0  0  0  0  0  0  0  0  0  0  0
   -6.7408   12.3071   -6.9064 H   0  0  0  0  0  0  0  0  0  0  0  0
   -2.4626   14.1882   -6.1155 H   0  0  0  0  0  0  0  0  0  0  0  0
   -0.6459   10.6195   -7.6335 H   0  0  0  0  0  0  0  0  0  0  0  0
    1.4555   14.3315   -5.9935 H   0  0  0  0  0  0  0  0  0  0  0  0
    0.1837   15.4928   -6.5038 H   0  0  0  0  0  0  0  0  0  0  0  0
    0.1522   14.7964   -4.8483 H   0  0  0  0  0  0  0  0  0  0  0  0
  1  2  1  0  0  0  0
  1  4  1  0  0  0  0
  1 12  1  0  0  0  0
  2  6  1  0  0  0  0
  3  4  2  0  0  0  0
  3  5  1  0  0  0  0
  5  6  2  0  0  0  0
  5  9  1  0  0  0  0
  6  7  1  0  0  0  0
  7  8  1  0  0  0  0
  7 10  2  3  0  0  0
  8  9  2  0  0  0  0
 10 14  1  0  0  0  0
 11 12  1  0  0  0  0
 12 13  2  0  0  0  0
 14 15  2  0  0  0  0
 14 19  1  0  0  0  0
 15 16  1  0  0  0  0
 16 17  2  0  0  0  0
 17 18  1  0  0  0  0
 17 20  1  0  0  0  0
 18 19  2  0  0  0  0
 20 21  2  0  0  0  0
 20 24  1  0  0  0  0
 21 22  1  0  0  0  0
 22 23  1  0  0  0  0
 22 25  1  0  0  0  0
 23 24  2  0  0  0  0
  1 26  1  0  0  0  0
  2 27  1  0  0  0  0
  2 28  1  0  0  0  0
  3 29  1  0  0  0  0
  4 30  1  0  0  0  0
 10 31  1  0  0  0  0
 11 32  1  0  0  0  0
 11 33  1  0  0  0  0
 15 34  1  0  0  0  0
 16 35  1  0  0  0  0
 18 36  1  0  0  0  0
 19 37  1  0  0  0  0
 21 38  1  0  0  0  0
 24 39  1  0  0  0  0
 25 40  1  0  0  0  0
 25 41  1  0  0  0  0
 25 42  1  0  0  0  0
M  END
> <Name>
32

> <IC50[uM]>
0.11

$$$$
32
  -OEChem-05192314333D
 Structure written by MMmdl.
 42 45  0     1  0  0  0  0  0999 V2000
   -6.3767   12.3649  -12.0150 C   0  0  0  0  0  0  0  0  0  0  0  0
   -6.5300   11.8201  -10.7355 C   0  0  0  0  0  0  0  0  0  0  0  0
   -7.7235   10.5758  -13.0283 C   0  0  0  0  0  0  0  0  0  0  0  0
   -6.9848   11.7731  -13.1297 C   0  0  0  0  0  0  0  0  0  0  0  0
   -7.8178   10.0121  -11.7526 C   0  0  0  0  0  0  0  0  0  0  0  0
   -7.2522   10.6205  -10.6098 C   0  0  3  0  0  0  0  0  0  0  0  0
   -7.6101    9.7439   -9.5117 C   0  0  0  0  0  0  0  0  0  0  0  0
   -8.2784    8.7249   -9.9778 N   0  0  0  0  0  0  0  0  0  0  0  0
   -8.4134    8.8570  -11.2978 N   0  0  0  0  0  0  0  0  0  0  0  0
   -7.3337    9.8935   -8.0288 C   0  0  0  0  0  0  0  0  0  0  0  0
   -4.4165   13.6746  -11.4876 N   0  0  0  0  0  0  0  0  0  0  0  0
   -5.5534   13.6276  -12.1919 C   0  0  0  0  0  0  0  0  0  0  0  0
   -5.9234   14.5178  -12.9405 O   0  0  0  0  0  0  0  0  0  0  0  0
   -5.9640   10.4853   -7.7356 C   0  0  0  0  0  0  0  0  0  0  0  0
   -4.8116    9.7640   -8.0536 C   0  0  0  0  0  0  0  0  0  0  0  0
   -3.5500   10.3127   -7.8058 C   0  0  0  0  0  0  0  0  0  0  0  0
   -3.4411   11.5873   -7.2364 C   0  0  0  0  0  0  0  0  0  0  0  0
   -4.5925   12.3023   -6.9174 C   0  0  0  0  0  0  0  0  0  0  0  0
   -5.8510   11.7510   -7.1622 C   0  0  0  0  0  0  0  0  0  0  0  0
   -2.0968   12.1763   -6.9669 C   0  0  0  0  0  0  0  0  0  0  0  0
   -1.7702   13.4221   -6.4317 C   0  0  0  0  0  0  0  0  0  0  0  0
   -0.4283   13.4864   -6.3849 N   0  0  0  0  0  0  0  0  0  0  0  0
    0.1730   12.4042   -6.8287 N   0  0  0  0  0  0  0  0  0  0  0  0
   -0.8019   11.5974   -7.2024 C   0  0  0  0  0  0  0  0  0  0  0  0
    0.3914   14.5951   -5.9029 C   0  0  0  0  0  0  0  0  0  0  0  0
   -5.5219   11.6382  -10.3348 H   0  0  0  0  0  0  0  0  0  0  0  0
   -7.0394   12.5745  -10.1179 H   0  0  0  0  0  0  0  0  0  0  0  0
   -8.1905   10.1197  -13.8887 H   0  0  0  0  0  0  0  0  0  0  0  0
   -6.8851   12.2475  -14.0948 H   0  0  0  0  0  0  0  0  0  0  0  0
   -8.1785   11.1934  -10.4554 H   0  0  0  0  0  0  0  0  0  0  0  0
   -8.0369    9.6092   -7.2600 H   0  0  0  0  0  0  0  0  0  0  0  0
   -3.8167   14.4716  -11.5590 H   0  0  0  0  0  0  0  0  0  0  0  0
   -4.1667   12.9127  -10.8899 H   0  0  0  0  0  0  0  0  0  0  0  0
   -4.8950    8.7804   -8.4918 H   0  0  0  0  0  0  0  0  0  0  0  0
   -2.6597    9.7538   -8.0534 H   0  0  0  0  0  0  0  0  0  0  0  0
   -4.5115   13.2861   -6.4794 H   0  0  0  0  0  0  0  0  0  0  0  0
   -6.7408   12.3071   -6.9064 H   0  0  0  0  0  0  0  0  0  0  0  0
   -2.4626   14.1882   -6.1155 H   0  0  0  0  0  0  0  0  0  0  0  0
   -0.6459   10.6195   -7.6335 H   0  0  0  0  0  0  0  0  0  0  0  0
    1.4555   14.3315   -5.9935 H   0  0  0  0  0  0  0  0  0  0  0  0
    0.1837   15.4928   -6.5038 H   0  0  0  0  0  0  0  0  0  0  0  0
    0.1522   14.7964   -4.8483 H   0  0  0  0  0  0  0  0  0  0  0  0
  1  2  1  0  0  0  0
  1  4  2  0  0  0  0
  1 12  1  0  0  0  0
  2  6  1  0  0  0  0
  3  4  1  0  0  0  0
  3  5  2  0  0  0  0
  5  6  1  0  0  0  0
  5  9  1  0  0  0  0
  6  7  1  0  0  0  0
  7  8  1  0  0  0  0
  7 10  2  3  0  0  0
  8  9  2  0  0  0  0
 10 14  1  0  0  0  0
 11 12  1  0  0  0  0
 12 13  2  0  0  0  0
 14 15  2  0  0  0  0
 14 19  1  0  0  0  0
 15 16  1  0  0  0  0
 16 17  2  0  0  0  0
 17 18  1  0  0  0  0
 17 20  1  0  0  0  0
 18 19  2  0  0  0  0
 20 21  2  0  0  0  0
 20 24  1  0  0  0  0
 21 22  1  0  0  0  0
 22 23  1  0  0  0  0
 22 25  1  0  0  0  0
 23 24  2  0  0  0  0
  2 26  1  0  0  0  0
  2 27  1  0  0  0  0
  3 28  1  0  0  0  0
  4 29  1  0  0  0  0
  6 30  1  0  0  0  0
 10 31  1  0  0  0  0
 11 32  1  0  0  0  0
 11 33  1  0  0  0  0
 15 34  1  0  0  0  0
 16 35  1  0  0  0  0
 18 36  1  0  0  0  0
 19 37  1  0  0  0  0
 21 38  1  0  0  0  0
 24 39  1  0  0  0  0
 25 40  1  0  0  0  0
 25 41  1  0  0  0  0
 25 42  1  0  0  0  0
M  END
> <Name>
32

> <IC50[uM]>
0.11

$$$$
32
  -OEChem-05192314333D
 Structure written by MMmdl.
 42 45  0     0  0  0  0  0  0999 V2000
   -6.3767   12.3649  -12.0150 C   0  0  0  0  0  0  0  0  0  0  0  0
   -6.5300   11.8201  -10.7355 C   0  0  0  0  0  0  0  0  0  0  0  0
   -7.7235   10.5758  -13.0283 C   0  0  0  0  0  0  0  0  0  0  0  0
   -6.9848   11.7731  -13.1297 C   0  0  0  0  0  0  0  0  0  0  0  0
   -7.8178   10.0121  -11.7526 C   0  0  0  0  0  0  0  0  0  0  0  0
   -7.2522   10.6205  -10.6098 C   0  0  0  0  0  0  0  0  0  0  0  0
   -7.6101    9.7439   -9.5117 C   0  0  0  0  0  0  0  0  0  0  0  0
   -8.2784    8.7249   -9.9778 N   0  0  0  0  0  0  0  0  0  0  0  0
   -8.4134    8.8570  -11.2978 N   0  0  0  0  0  0  0  0  0  0  0  0
   -7.3337    9.8935   -8.0288 C   0  0  0  0  0  0  0  0  0  0  0  0
   -4.4165   13.6746  -11.4876 N   0  0  0  0  0  0  0  0  0  0  0  0
   -5.5534   13.6276  -12.1919 C   0  0  0  0  0  0  0  0  0  0  0  0
   -5.9234   14.5178  -12.9405 O   0  0  0  0  0  0  0  0  0  0  0  0
   -5.9640   10.4853   -7.7356 C   0  0  0  0  0  0  0  0  0  0  0  0
   -4.8116    9.7640   -8.0536 C   0  0  0  0  0  0  0  0  0  0  0  0
   -3.5500   10.3127   -7.8058 C   0  0  0  0  0  0  0  0  0  0  0  0
   -3.4411   11.5873   -7.2364 C   0  0  0  0  0  0  0  0  0  0  0  0
   -4.5925   12.3023   -6.9174 C   0  0  0  0  0  0  0  0  0  0  0  0
   -5.8510   11.7510   -7.1622 C   0  0  0  0  0  0  0  0  0  0  0  0
   -2.0968   12.1763   -6.9669 C   0  0  0  0  0  0  0  0  0  0  0  0
   -1.7702   13.4221   -6.4317 C   0  0  0  0  0  0  0  0  0  0  0  0
   -0.4283   13.4864   -6.3849 N   0  0  0  0  0  0  0  0  0  0  0  0
    0.1730   12.4042   -6.8287 N   0  0  0  0  0  0  0  0  0  0  0  0
   -0.8019   11.5974   -7.2024 C   0  0  0  0  0  0  0  0  0  0  0  0
    0.3914   14.5951   -5.9029 C   0  0  0  0  0  0  0  0  0  0  0  0
   -5.5219   11.6382  -10.3348 H   0  0  0  0  0  0  0  0  0  0  0  0
   -7.0394   12.5745  -10.1179 H   0  0  0  0  0  0  0  0  0  0  0  0
   -8.7452   10.7816  -13.3800 H   0  0  0  0  0  0  0  0  0  0  0  0
   -7.2510    9.8336  -13.6885 H   0  0  0  0  0  0  0  0  0  0  0  0
   -6.8851   12.2475  -14.0948 H   0  0  0  0  0  0  0  0  0  0  0  0
   -8.0369    9.6092   -7.2600 H   0  0  0  0  0  0  0  0  0  0  0  0
   -3.8167   14.4716  -11.5590 H   0  0  0  0  0  0  0  0  0  0  0  0
   -4.1667   12.9127  -10.8899 H   0  0  0  0  0  0  0  0  0  0  0  0
   -4.8950    8.7804   -8.4918 H   0  0  0  0  0  0  0  0  0  0  0  0
   -2.6597    9.7538   -8.0534 H   0  0  0  0  0  0  0  0  0  0  0  0
   -4.5115   13.2861   -6.4794 H   0  0  0  0  0  0  0  0  0  0  0  0
   -6.7408   12.3071   -6.9064 H   0  0  0  0  0  0  0  0  0  0  0  0
   -2.4626   14.1882   -6.1155 H   0  0  0  0  0  0  0  0  0  0  0  0
   -0.6459   10.6195   -7.6335 H   0  0  0  0  0  0  0  0  0  0  0  0
    1.4555   14.3315   -5.9935 H   0  0  0  0  0  0  0  0  0  0  0  0
    0.1837   15.4928   -6.5038 H   0  0  0  0  0  0  0  0  0  0  0  0
    0.1522   14.7964   -4.8483 H   0  0  0  0  0  0  0  0  0  0  0  0
  1  2  1  0  0  0  0
  1  4  2  0  0  0  0
  1 12  1  0  0  0  0
  2  6  1  0  0  0  0
  3  4  1  0  0  0  0
  3  5  1  0  0  0  0
  5  6  2  0  0  0  0
  5  9  1  0  0  0  0
  6  7  1  0  0  0  0
  7  8  1  0  0  0  0
  7 10  2  3  0  0  0
  8  9  2  0  0  0  0
 10 14  1  0  0  0  0
 11 12  1  0  0  0  0
 12 13  2  0  0  0  0
 14 15  2  0  0  0  0
 14 19  1  0  0  0  0
 15 16  1  0  0  0  0
 16 17  2  0  0  0  0
 17 18  1  0  0  0  0
 17 20  1  0  0  0  0
 18 19  2  0  0  0  0
 20 21  2  0  0  0  0
 20 24  1  0  0  0  0
 21 22  1  0  0  0  0
 22 23  1  0  0  0  0
 22 25  1  0  0  0  0
 23 24  2  0  0  0  0
  2 26  1  0  0  0  0
  2 27  1  0  0  0  0
  3 28  1  0  0  0  0
  3 29  1  0  0  0  0
  4 30  1  0  0  0  0
 10 31  1  0  0  0  0
 11 32  1  0  0  0  0
 11 33  1  0  0  0  0
 15 34  1  0  0  0  0
 16 35  1  0  0  0  0
 18 36  1  0  0  0  0
 19 37  1  0  0  0  0
 21 38  1  0  0  0  0
 24 39  1  0  0  0  0
 25 40  1  0  0  0  0
 25 41  1  0  0  0  0
 25 42  1  0  0  0  0
M  END
> <Name>
32

> <IC50[uM]>
0.11

$$$$
32
  -OEChem-05192314333D
 Structure written by MMmdl.
 42 45  0     1  0  0  0  0  0999 V2000
   -6.3767   12.3649  -12.0150 C   0  0  0  0  0  0  0  0  0  0  0  0
   -6.5300   11.8201  -10.7355 C   0  0  0  0  0  0  0  0  0  0  0  0
   -7.7235   10.5758  -13.0283 C   0  0  0  0  0  0  0  0  0  0  0  0
   -6.9848   11.7731  -13.1297 C   0  0  0  0  0  0  0  0  0  0  0  0
   -7.8178   10.0121  -11.7526 C   0  0  3  0  0  0  0  0  0  0  0  0
   -7.2522   10.6205  -10.6098 C   0  0  0  0  0  0  0  0  0  0  0  0
   -7.6101    9.7439   -9.5117 C   0  0  0  0  0  0  0  0  0  0  0  0
   -8.2784    8.7249   -9.9778 N   0  0  0  0  0  0  0  0  0  0  0  0
   -8.4134    8.8570  -11.2978 N   0  0  0  0  0  0  0  0  0  0  0  0
   -7.3337    9.8935   -8.0288 C   0  0  0  0  0  0  0  0  0  0  0  0
   -4.4165   13.6746  -11.4876 N   0  0  0  0  0  0  0  0  0  0  0  0
   -5.5534   13.6276  -12.1919 C   0  0  0  0  0  0  0  0  0  0  0  0
   -5.9234   14.5178  -12.9405 O   0  0  0  0  0  0  0  0  0  0  0  0
   -5.9640   10.4853   -7.7356 C   0  0  0  0  0  0  0  0  0  0  0  0
   -4.8116    9.7640   -8.0536 C   0  0  0  0  0  0  0  0  0  0  0  0
   -3.5500   10.3127   -7.8058 C   0  0  0  0  0  0  0  0  0  0  0  0
   -3.4411   11.5873   -7.2364 C   0  0  0  0  0  0  0  0  0  0  0  0
   -4.5925   12.3023   -6.9174 C   0  0  0  0  0  0  0  0  0  0  0  0
   -5.8510   11.7510   -7.1622 C   0  0  0  0  0  0  0  0  0  0  0  0
   -2.0968   12.1763   -6.9669 C   0  0  0  0  0  0  0  0  0  0  0  0
   -1.7702   13.4221   -6.4317 C   0  0  0  0  0  0  0  0  0  0  0  0
   -0.4283   13.4864   -6.3849 N   0  0  0  0  0  0  0  0  0  0  0  0
    0.1730   12.4042   -6.8287 N   0  0  0  0  0  0  0  0  0  0  0  0
   -0.8019   11.5974   -7.2024 C   0  0  0  0  0  0  0  0  0  0  0  0
    0.3914   14.5951   -5.9029 C   0  0  0  0  0  0  0  0  0  0  0  0
   -6.1059   12.3069   -9.8697 H   0  0  0  0  0  0  0  0  0  0  0  0
   -8.1905   10.1197  -13.8887 H   0  0  0  0  0  0  0  0  0  0  0  0
   -6.8851   12.2475  -14.0948 H   0  0  0  0  0  0  0  0  0  0  0  0
   -6.8808    9.4624  -11.9250 H   0  0  0  0  0  0  0  0  0  0  0  0
   -8.1002   10.5520   -7.5942 H   0  0  0  0  0  0  0  0  0  0  0  0
   -7.3942    8.9006   -7.5592 H   0  0  0  0  0  0  0  0  0  0  0  0
   -3.8167   14.4716  -11.5590 H   0  0  0  0  0  0  0  0  0  0  0  0
   -4.1667   12.9127  -10.8899 H   0  0  0  0  0  0  0  0  0  0  0  0
   -4.8950    8.7804   -8.4918 H   0  0  0  0  0  0  0  0  0  0  0  0
   -2.6597    9.7538   -8.0534 H   0  0  0  0  0  0  0  0  0  0  0  0
   -4.5115   13.2861   -6.4794 H   0  0  0  0  0  0  0  0  0  0  0  0
   -6.7408   12.3071   -6.9064 H   0  0  0  0  0  0  0  0  0  0  0  0
   -2.4626   14.1882   -6.1155 H   0  0  0  0  0  0  0  0  0  0  0  0
   -0.6459   10.6195   -7.6335 H   0  0  0  0  0  0  0  0  0  0  0  0
    1.4555   14.3315   -5.9935 H   0  0  0  0  0  0  0  0  0  0  0  0
    0.1837   15.4928   -6.5038 H   0  0  0  0  0  0  0  0  0  0  0  0
    0.1522   14.7964   -4.8483 H   0  0  0  0  0  0  0  0  0  0  0  0
  1  2  2  0  0  0  0
  1  4  1  0  0  0  0
  1 12  1  0  0  0  0
  2  6  1  0  0  0  0
  3  4  2  0  0  0  0
  3  5  1  0  0  0  0
  5  6  1  0  0  0  0
  5  9  1  0  0  0  0
  6  7  2  0  0  0  0
  7  8  1  0  0  0  0
  7 10  1  0  0  0  0
  8  9  2  0  0  0  0
 10 14  1  0  0  0  0
 11 12  1  0  0  0  0
 12 13  2  0  0  0  0
 14 15  2  0  0  0  0
 14 19  1  0  0  0  0
 15 16  1  0  0  0  0
 16 17  2  0  0  0  0
 17 18  1  0  0  0  0
 17 20  1  0  0  0  0
 18 19  2  0  0  0  0
 20 21  2  0  0  0  0
 20 24  1  0  0  0  0
 21 22  1  0  0  0  0
 22 23  1  0  0  0  0
 22 25  1  0  0  0  0
 23 24  2  0  0  0  0
  2 26  1  0  0  0  0
  3 27  1  0  0  0  0
  4 28  1  0  0  0  0
  5 29  1  0  0  0  0
 10 30  1  0  0  0  0
 10 31  1  0  0  0  0
 11 32  1  0  0  0  0
 11 33  1  0  0  0  0
 15 34  1  0  0  0  0
 16 35  1  0  0  0  0
 18 36  1  0  0  0  0
 19 37  1  0  0  0  0
 21 38  1  0  0  0  0
 24 39  1  0  0  0  0
 25 40  1  0  0  0  0
 25 41  1  0  0  0  0
 25 42  1  0  0  0  0
M  END
> <Name>
32

> <IC50[uM]>
0.11

$$$$
32
  -OEChem-05192314333D
 Structure written by MMmdl.
 42 45  0     0  0  0  0  0  0999 V2000
   -6.3767   12.3649  -12.0150 C   0  0  0  0  0  0  0  0  0  0  0  0
   -6.5300   11.8201  -10.7355 C   0  0  0  0  0  0  0  0  0  0  0  0
   -7.7235   10.5758  -13.0283 C   0  0  0  0  0  0  0  0  0  0  0  0
   -6.9848   11.7731  -13.1297 C   0  0  0  0  0  0  0  0  0  0  0  0
   -7.8178   10.0121  -11.7526 C   0  0  0  0  0  0  0  0  0  0  0  0
   -7.2522   10.6205  -10.6098 C   0  0  0  0  0  0  0  0  0  0  0  0
   -7.6101    9.7439   -9.5117 C   0  0  0  0  0  0  0  0  0  0  0  0
   -8.2784    8.7249   -9.9778 N   0  0  0  0  0  0  0  0  0  0  0  0
   -8.4134    8.8570  -11.2978 N   0  0  0  0  0  0  0  0  0  0  0  0
   -7.3337    9.8935   -8.0288 C   0  0  0  0  0  0  0  0  0  0  0  0
   -4.4165   13.6746  -11.4876 N   0  0  0  0  0  0  0  0  0  0  0  0
   -5.5534   13.6276  -12.1919 C   0  0  0  0  0  0  0  0  0  0  0  0
   -5.9234   14.5178  -12.9405 O   0  0  0  0  0  0  0  0  0  0  0  0
   -5.9640   10.4853   -7.7356 C   0  0  0  0  0  0  0  0  0  0  0  0
   -4.8116    9.7640   -8.0536 C   0  0  0  0  0  0  0  0  0  0  0  0
   -3.5500   10.3127   -7.8058 C   0  0  0  0  0  0  0  0  0  0  0  0
   -3.4411   11.5873   -7.2364 C   0  0  0  0  0  0  0  0  0  0  0  0
   -4.5925   12.3023   -6.9174 C   0  0  0  0  0  0  0  0  0  0  0  0
   -5.8510   11.7510   -7.1622 C   0  0  0  0  0  0  0  0  0  0  0  0
   -2.0968   12.1763   -6.9669 C   0  0  0  0  0  0  0  0  0  0  0  0
   -1.7702   13.4221   -6.4317 C   0  0  0  0  0  0  0  0  0  0  0  0
   -0.4283   13.4864   -6.3849 N   0  0  0  0  0  0  0  0  0  0  0  0
    0.1730   12.4042   -6.8287 N   0  0  0  0  0  0  0  0  0  0  0  0
   -0.8019   11.5974   -7.2024 C   0  0  0  0  0  0  0  0  0  0  0  0
    0.3914   14.5951   -5.9029 C   0  0  0  0  0  0  0  0  0  0  0  0
   -6.1059   12.3069   -9.8697 H   0  0  0  0  0  0  0  0  0  0  0  0
   -8.1905   10.1197  -13.8887 H   0  0  0  0  0  0  0  0  0  0  0  0
   -7.6730   12.5260  -13.5414 H   0  0  0  0  0  0  0  0  0  0  0  0
   -6.1793   11.5781  -13.8530 H   0  0  0  0  0  0  0  0  0  0  0  0
   -8.1002   10.5520   -7.5942 H   0  0  0  0  0  0  0  0  0  0  0  0
   -7.3942    8.9006   -7.5592 H   0  0  0  0  0  0  0  0  0  0  0  0
   -3.8167   14.4716  -11.5590 H   0  0  0  0  0  0  0  0  0  0  0  0
   -4.1667   12.9127  -10.8899 H   0  0  0  0  0  0  0  0  0  0  0  0
   -4.8950    8.7804   -8.4918 H   0  0  0  0  0  0  0  0  0  0  0  0
   -2.6597    9.7538   -8.0534 H   0  0  0  0  0  0  0  0  0  0  0  0
   -4.5115   13.2861   -6.4794 H   0  0  0  0  0  0  0  0  0  0  0  0
   -6.7408   12.3071   -6.9064 H   0  0  0  0  0  0  0  0  0  0  0  0
   -2.4626   14.1882   -6.1155 H   0  0  0  0  0  0  0  0  0  0  0  0
   -0.6459   10.6195   -7.6335 H   0  0  0  0  0  0  0  0  0  0  0  0
    1.4555   14.3315   -5.9935 H   0  0  0  0  0  0  0  0  0  0  0  0
    0.1837   15.4928   -6.5038 H   0  0  0  0  0  0  0  0  0  0  0  0
    0.1522   14.7964   -4.8483 H   0  0  0  0  0  0  0  0  0  0  0  0
  1  2  2  0  0  0  0
  1  4  1  0  0  0  0
  1 12  1  0  0  0  0
  2  6  1  0  0  0  0
  3  4  1  0  0  0  0
  3  5  2  0  0  0  0
  5  6  1  0  0  0  0
  5  9  1  0  0  0  0
  6  7  2  0  0  0  0
  7  8  1  0  0  0  0
  7 10  1  0  0  0  0
  8  9  2  0  0  0  0
 10 14  1  0  0  0  0
 11 12  1  0  0  0  0
 12 13  2  0  0  0  0
 14 15  2  0  0  0  0
 14 19  1  0  0  0  0
 15 16  1  0  0  0  0
 16 17  2  0  0  0  0
 17 18  1  0  0  0  0
 17 20  1  0  0  0  0
 18 19  2  0  0  0  0
 20 21  2  0  0  0  0
 20 24  1  0  0  0  0
 21 22  1  0  0  0  0
 22 23  1  0  0  0  0
 22 25  1  0  0  0  0
 23 24  2  0  0  0  0
  2 26  1  0  0  0  0
  3 27  1  0  0  0  0
  4 28  1  0  0  0  0
  4 29  1  0  0  0  0
 10 30  1  0  0  0  0
 10 31  1  0  0  0  0
 11 32  1  0  0  0  0
 11 33  1  0  0  0  0
 15 34  1  0  0  0  0
 16 35  1  0  0  0  0
 18 36  1  0  0  0  0
 19 37  1  0  0  0  0
 21 38  1  0  0  0  0
 24 39  1  0  0  0  0
 25 40  1  0  0  0  0
 25 41  1  0  0  0  0
 25 42  1  0  0  0  0
M  END
> <Name>
32

> <IC50[uM]>
0.11

$$$$
32
  -OEChem-05192314333D
 Structure written by MMmdl.
 42 45  0     0  0  0  0  0  0999 V2000
   -6.3767   12.3649  -12.0150 C   0  0  0  0  0  0  0  0  0  0  0  0
   -6.5300   11.8201  -10.7355 C   0  0  0  0  0  0  0  0  0  0  0  0
   -7.7235   10.5758  -13.0283 C   0  0  0  0  0  0  0  0  0  0  0  0
   -6.9848   11.7731  -13.1297 C   0  0  0  0  0  0  0  0  0  0  0  0
   -7.8178   10.0121  -11.7526 C   0  0  0  0  0  0  0  0  0  0  0  0
   -7.2522   10.6205  -10.6098 C   0  0  0  0  0  0  0  0  0  0  0  0
   -7.6101    9.7439   -9.5117 C   0  0  0  0  0  0  0  0  0  0  0  0
   -8.2784    8.7249   -9.9778 N   0  0  0  0  0  0  0  0  0  0  0  0
   -8.4134    8.8570  -11.2978 N   0  0  0  0  0  0  0  0  0  0  0  0
   -7.3337    9.8935   -8.0288 C   0  0  0  0  0  0  0  0  0  0  0  0
   -4.4165   13.6746  -11.4876 N   0  0  0  0  0  0  0  0  0  0  0  0
   -5.5534   13.6276  -12.1919 C   0  0  0  0  0  0  0  0  0  0  0  0
   -5.9234   14.5178  -12.9405 O   0  0  0  0  0  0  0  0  0  0  0  0
   -5.9640   10.4853   -7.7356 C   0  0  0  0  0  0  0  0  0  0  0  0
   -4.8116    9.7640   -8.0536 C   0  0  0  0  0  0  0  0  0  0  0  0
   -3.5500   10.3127   -7.8058 C   0  0  0  0  0  0  0  0  0  0  0  0
   -3.4411   11.5873   -7.2364 C   0  0  0  0  0  0  0  0  0  0  0  0
   -4.5925   12.3023   -6.9174 C   0  0  0  0  0  0  0  0  0  0  0  0
   -5.8510   11.7510   -7.1622 C   0  0  0  0  0  0  0  0  0  0  0  0
   -2.0968   12.1763   -6.9669 C   0  0  0  0  0  0  0  0  0  0  0  0
   -1.7702   13.4221   -6.4317 C   0  0  0  0  0  0  0  0  0  0  0  0
   -0.4283   13.4864   -6.3849 N   0  0  0  0  0  0  0  0  0  0  0  0
    0.1730   12.4042   -6.8287 N   0  0  0  0  0  0  0  0  0  0  0  0
   -0.8019   11.5974   -7.2024 C   0  0  0  0  0  0  0  0  0  0  0  0
    0.3914   14.5951   -5.9029 C   0  0  0  0  0  0  0  0  0  0  0  0
   -5.5219   11.6382  -10.3348 H   0  0  0  0  0  0  0  0  0  0  0  0
   -7.0394   12.5745  -10.1179 H   0  0  0  0  0  0  0  0  0  0  0  0
   -8.1905   10.1197  -13.8887 H   0  0  0  0  0  0  0  0  0  0  0  0
   -6.8851   12.2475  -14.0948 H   0  0  0  0  0  0  0  0  0  0  0  0
   -8.1002   10.5520   -7.5942 H   0  0  0  0  0  0  0  0  0  0  0  0
   -7.3942    8.9006   -7.5592 H   0  0  0  0  0  0  0  0  0  0  0  0
   -3.8167   14.4716  -11.5590 H   0  0  0  0  0  0  0  0  0  0  0  0
   -4.1667   12.9127  -10.8899 H   0  0  0  0  0  0  0  0  0  0  0  0
   -4.8950    8.7804   -8.4918 H   0  0  0  0  0  0  0  0  0  0  0  0
   -2.6597    9.7538   -8.0534 H   0  0  0  0  0  0  0  0  0  0  0  0
   -4.5115   13.2861   -6.4794 H   0  0  0  0  0  0  0  0  0  0  0  0
   -6.7408   12.3071   -6.9064 H   0  0  0  0  0  0  0  0  0  0  0  0
   -2.4626   14.1882   -6.1155 H   0  0  0  0  0  0  0  0  0  0  0  0
   -0.6459   10.6195   -7.6335 H   0  0  0  0  0  0  0  0  0  0  0  0
    1.4555   14.3315   -5.9935 H   0  0  0  0  0  0  0  0  0  0  0  0
    0.1837   15.4928   -6.5038 H   0  0  0  0  0  0  0  0  0  0  0  0
    0.1522   14.7964   -4.8483 H   0  0  0  0  0  0  0  0  0  0  0  0
  1  2  1  0  0  0  0
  1  4  2  0  0  0  0
  1 12  1  0  0  0  0
  2  6  1  0  0  0  0
  3  4  1  0  0  0  0
  3  5  2  0  0  0  0
  5  6  1  0  0  0  0
  5  9  1  0  0  0  0
  6  7  2  0  0  0  0
  7  8  1  0  0  0  0
  7 10  1  0  0  0  0
  8  9  2  0  0  0  0
 10 14  1  0  0  0  0
 11 12  1  0  0  0  0
 12 13  2  0  0  0  0
 14 15  2  0  0  0  0
 14 19  1  0  0  0  0
 15 16  1  0  0  0  0
 16 17  2  0  0  0  0
 17 18  1  0  0  0  0
 17 20  1  0  0  0  0
 18 19  2  0  0  0  0
 20 21  2  0  0  0  0
 20 24  1  0  0  0  0
 21 22  1  0  0  0  0
 22 23  1  0  0  0  0
 22 25  1  0  0  0  0
 23 24  2  0  0  0  0
  2 26  1  0  0  0  0
  2 27  1  0  0  0  0
  3 28  1  0  0  0  0
  4 29  1  0  0  0  0
 10 30  1  0  0  0  0
 10 31  1  0  0  0  0
 11 32  1  0  0  0  0
 11 33  1  0  0  0  0
 15 34  1  0  0  0  0
 16 35  1  0  0  0  0
 18 36  1  0  0  0  0
 19 37  1  0  0  0  0
 21 38  1  0  0  0  0
 24 39  1  0  0  0  0
 25 40  1  0  0  0  0
 25 41  1  0  0  0  0
 25 42  1  0  0  0  0
M  END
> <Name>
32

> <IC50[uM]>
0.11

$$$$
32
  -OEChem-05192314333D
 Structure written by MMmdl.
 42 45  0     1  0  0  0  0  0999 V2000
   -6.3767   12.3649  -12.0150 C   0  0  0  0  0  0  0  0  0  0  0  0
   -6.5300   11.8201  -10.7355 C   0  0  0  0  0  0  0  0  0  0  0  0
   -7.7235   10.5758  -13.0283 C   0  0  0  0  0  0  0  0  0  0  0  0
   -6.9848   11.7731  -13.1297 C   0  0  0  0  0  0  0  0  0  0  0  0
   -7.8178   10.0121  -11.7526 C   0  0  0  0  0  0  0  0  0  0  0  0
   -7.2522   10.6205  -10.6098 C   0  0  3  0  0  0  0  0  0  0  0  0
   -7.6101    9.7439   -9.5117 C   0  0  0  0  0  0  0  0  0  0  0  0
   -8.2784    8.7249   -9.9778 N   0  0  0  0  0  0  0  0  0  0  0  0
   -8.4134    8.8570  -11.2978 N   0  0  0  0  0  0  0  0  0  0  0  0
   -7.3337    9.8935   -8.0288 C   0  0  0  0  0  0  0  0  0  0  0  0
   -4.4165   13.6746  -11.4876 N   0  0  0  0  0  0  0  0  0  0  0  0
   -5.5534   13.6276  -12.1919 C   0  0  0  0  0  0  0  0  0  0  0  0
   -5.9234   14.5178  -12.9405 O   0  0  0  0  0  0  0  0  0  0  0  0
   -5.9640   10.4853   -7.7356 C   0  0  0  0  0  0  0  0  0  0  0  0
   -4.8116    9.7640   -8.0536 C   0  0  0  0  0  0  0  0  0  0  0  0
   -3.5500   10.3127   -7.8058 C   0  0  0  0  0  0  0  0  0  0  0  0
   -3.4411   11.5873   -7.2364 C   0  0  0  0  0  0  0  0  0  0  0  0
   -4.5925   12.3023   -6.9174 C   0  0  0  0  0  0  0  0  0  0  0  0
   -5.8510   11.7510   -7.1622 C   0  0  0  0  0  0  0  0  0  0  0  0
   -2.0968   12.1763   -6.9669 C   0  0  0  0  0  0  0  0  0  0  0  0
   -1.7702   13.4221   -6.4317 C   0  0  0  0  0  0  0  0  0  0  0  0
   -0.4283   13.4864   -6.3849 N   0  0  0  0  0  0  0  0  0  0  0  0
    0.1730   12.4042   -6.8287 N   0  0  0  0  0  0  0  0  0  0  0  0
   -0.8019   11.5974   -7.2024 C   0  0  0  0  0  0  0  0  0  0  0  0
    0.3914   14.5951   -5.9029 C   0  0  0  0  0  0  0  0  0  0  0  0
   -6.1059   12.3069   -9.8697 H   0  0  0  0  0  0  0  0  0  0  0  0
   -8.1905   10.1197  -13.8887 H   0  0  0  0  0  0  0  0  0  0  0  0
   -6.8851   12.2475  -14.0948 H   0  0  0  0  0  0  0  0  0  0  0  0
   -8.1785   11.1934  -10.4554 H   0  0  0  0  0  0  0  0  0  0  0  0
   -8.6329    7.9657   -9.4320 H   0  0  0  0  0  0  0  0  0  0  0  0
   -8.0369    9.6092   -7.2600 H   0  0  0  0  0  0  0  0  0  0  0  0
   -3.8167   14.4716  -11.5590 H   0  0  0  0  0  0  0  0  0  0  0  0
   -4.1667   12.9127  -10.8899 H   0  0  0  0  0  0  0  0  0  0  0  0
   -4.8950    8.7804   -8.4918 H   0  0  0  0  0  0  0  0  0  0  0  0
   -2.6597    9.7538   -8.0534 H   0  0  0  0  0  0  0  0  0  0  0  0
   -4.5115   13.2861   -6.4794 H   0  0  0  0  0  0  0  0  0  0  0  0
   -6.7408   12.3071   -6.9064 H   0  0  0  0  0  0  0  0  0  0  0  0
   -2.4626   14.1882   -6.1155 H   0  0  0  0  0  0  0  0  0  0  0  0
   -0.6459   10.6195   -7.6335 H   0  0  0  0  0  0  0  0  0  0  0  0
    1.4555   14.3315   -5.9935 H   0  0  0  0  0  0  0  0  0  0  0  0
    0.1837   15.4928   -6.5038 H   0  0  0  0  0  0  0  0  0  0  0  0
    0.1522   14.7964   -4.8483 H   0  0  0  0  0  0  0  0  0  0  0  0
  1  2  2  0  0  0  0
  1  4  1  0  0  0  0
  1 12  1  0  0  0  0
  2  6  1  0  0  0  0
  3  4  2  0  0  0  0
  3  5  1  0  0  0  0
  5  6  1  0  0  0  0
  5  9  2  0  0  0  0
  6  7  1  0  0  0  0
  7  8  1  0  0  0  0
  7 10  2  3  0  0  0
  8  9  1  0  0  0  0
 10 14  1  0  0  0  0
 11 12  1  0  0  0  0
 12 13  2  0  0  0  0
 14 15  2  0  0  0  0
 14 19  1  0  0  0  0
 15 16  1  0  0  0  0
 16 17  2  0  0  0  0
 17 18  1  0  0  0  0
 17 20  1  0  0  0  0
 18 19  2  0  0  0  0
 20 21  2  0  0  0  0
 20 24  1  0  0  0  0
 21 22  1  0  0  0  0
 22 23  1  0  0  0  0
 22 25  1  0  0  0  0
 23 24  2  0  0  0  0
  2 26  1  0  0  0  0
  3 27  1  0  0  0  0
  4 28  1  0  0  0  0
  6 29  1  0  0  0  0
  8 30  1  0  0  0  0
 10 31  1  0  0  0  0
 11 32  1  0  0  0  0
 11 33  1  0  0  0  0
 15 34  1  0  0  0  0
 16 35  1  0  0  0  0
 18 36  1  0  0  0  0
 19 37  1  0  0  0  0
 21 38  1  0  0  0  0
 24 39  1  0  0  0  0
 25 40  1  0  0  0  0
 25 41  1  0  0  0  0
 25 42  1  0  0  0  0
M  END
> <Name>
32

> <IC50[uM]>
0.11

$$$$
32
  -OEChem-05192314333D
 Structure written by MMmdl.
 42 45  0     0  0  0  0  0  0999 V2000
   -6.3767   12.3649  -12.0150 C   0  0  0  0  0  0  0  0  0  0  0  0
   -6.5300   11.8201  -10.7355 C   0  0  0  0  0  0  0  0  0  0  0  0
   -7.7235   10.5758  -13.0283 C   0  0  0  0  0  0  0  0  0  0  0  0
   -6.9848   11.7731  -13.1297 C   0  0  0  0  0  0  0  0  0  0  0  0
   -7.8178   10.0121  -11.7526 C   0  0  0  0  0  0  0  0  0  0  0  0
   -7.2522   10.6205  -10.6098 C   0  0  0  0  0  0  0  0  0  0  0  0
   -7.6101    9.7439   -9.5117 C   0  0  0  0  0  0  0  0  0  0  0  0
   -8.2784    8.7249   -9.9778 N   0  0  0  0  0  0  0  0  0  0  0  0
   -8.4134    8.8570  -11.2978 N   0  0  0  0  0  0  0  0  0  0  0  0
   -7.3337    9.8935   -8.0288 C   0  0  0  0  0  0  0  0  0  0  0  0
   -4.4165   13.6746  -11.4876 N   0  0  0  0  0  0  0  0  0  0  0  0
   -5.5534   13.6276  -12.1919 C   0  0  0  0  0  0  0  0  0  0  0  0
   -5.9234   14.5178  -12.9405 O   0  0  0  0  0  0  0  0  0  0  0  0
   -5.9640   10.4853   -7.7356 C   0  0  0  0  0  0  0  0  0  0  0  0
   -4.8116    9.7640   -8.0536 C   0  0  0  0  0  0  0  0  0  0  0  0
   -3.5500   10.3127   -7.8058 C   0  0  0  0  0  0  0  0  0  0  0  0
   -3.4411   11.5873   -7.2364 C   0  0  0  0  0  0  0  0  0  0  0  0
   -4.5925   12.3023   -6.9174 C   0  0  0  0  0  0  0  0  0  0  0  0
   -5.8510   11.7510   -7.1622 C   0  0  0  0  0  0  0  0  0  0  0  0
   -2.0968   12.1763   -6.9669 C   0  0  0  0  0  0  0  0  0  0  0  0
   -1.7702   13.4221   -6.4317 C   0  0  0  0  0  0  0  0  0  0  0  0
   -0.4283   13.4864   -6.3849 N   0  0  0  0  0  0  0  0  0  0  0  0
    0.1730   12.4042   -6.8287 N   0  0  0  0  0  0  0  0  0  0  0  0
   -0.8019   11.5974   -7.2024 C   0  0  0  0  0  0  0  0  0  0  0  0
    0.3914   14.5951   -5.9029 C   0  0  0  0  0  0  0  0  0  0  0  0
   -6.1059   12.3069   -9.8697 H   0  0  0  0  0  0  0  0  0  0  0  0
   -8.1905   10.1197  -13.8887 H   0  0  0  0  0  0  0  0  0  0  0  0
   -6.8851   12.2475  -14.0948 H   0  0  0  0  0  0  0  0  0  0  0  0
   -8.0369    9.6092   -7.2600 H   0  0  0  0  0  0  0  0  0  0  0  0
   -3.9109   14.5222  -11.6486 H   0  0  0  0  0  0  0  0  0  0  0  0
   -5.2907   15.2263  -12.9277 H   0  0  0  0  0  0  0  0  0  0  0  0
   -5.9776   10.0292   -6.7347 H   0  0  0  0  0  0  0  0  0  0  0  0
   -4.8950    8.7804   -8.4918 H   0  0  0  0  0  0  0  0  0  0  0  0
   -2.6597    9.7538   -8.0534 H   0  0  0  0  0  0  0  0  0  0  0  0
   -3.4383   12.0370   -8.2403 H   0  0  0  0  0  0  0  0  0  0  0  0
   -4.5115   13.2861   -6.4794 H   0  0  0  0  0  0  0  0  0  0  0  0
   -6.7408   12.3071   -6.9064 H   0  0  0  0  0  0  0  0  0  0  0  0
   -2.4626   14.1882   -6.1155 H   0  0  0  0  0  0  0  0  0  0  0  0
   -0.6459   10.6195   -7.6335 H   0  0  0  0  0  0  0  0  0  0  0  0
    1.4555   14.3315   -5.9935 H   0  0  0  0  0  0  0  0  0  0  0  0
    0.1837   15.4928   -6.5038 H   0  0  0  0  0  0  0  0  0  0  0  0
    0.1522   14.7964   -4.8483 H   0  0  0  0  0  0  0  0  0  0  0  0
  1  2  2  0  0  0  0
  1  4  1  0  0  0  0
  1 12  1  0  0  0  0
  2  6  1  0  0  0  0
  3  4  2  0  0  0  0
  3  5  1  0  0  0  0
  5  6  2  0  0  0  0
  5  9  1  0  0  0  0
  6  7  1  0  0  0  0
  7  8  1  0  0  0  0
  7 10  2  3  0  0  0
  8  9  2  0  0  0  0
 10 14  1  0  0  0  0
 11 12  2  0  0  0  0
 12 13  1  0  0  0  0
 14 15  1  0  0  0  0
 14 19  1  0  0  0  0
 15 16  2  0  0  0  0
 16 17  1  0  0  0  0
 17 18  1  0  0  0  0
 17 20  1  0  0  0  0
 18 19  2  0  0  0  0
 20 21  2  0  0  0  0
 20 24  1  0  0  0  0
 21 22  1  0  0  0  0
 22 23  1  0  0  0  0
 22 25  1  0  0  0  0
 23 24  2  0  0  0  0
  2 26  1  0  0  0  0
  3 27  1  0  0  0  0
  4 28  1  0  0  0  0
 10 29  1  0  0  0  0
 11 30  1  0  0  0  0
 13 31  1  0  0  0  0
 14 32  1  0  0  0  0
 15 33  1  0  0  0  0
 16 34  1  0  0  0  0
 17 35  1  0  0  0  0
 18 36  1  0  0  0  0
 19 37  1  0  0  0  0
 21 38  1  0  0  0  0
 24 39  1  0  0  0  0
 25 40  1  0  0  0  0
 25 41  1  0  0  0  0
 25 42  1  0  0  0  0
M  END
> <Name>
32

> <IC50[uM]>
0.11

$$$$
32
  -OEChem-05192314333D
 Structure written by MMmdl.
 42 45  0     1  0  0  0  0  0999 V2000
   -6.3767   12.3649  -12.0150 C   0  0  0  0  0  0  0  0  0  0  0  0
   -6.5300   11.8201  -10.7355 C   0  0  0  0  0  0  0  0  0  0  0  0
   -7.7235   10.5758  -13.0283 C   0  0  0  0  0  0  0  0  0  0  0  0
   -6.9848   11.7731  -13.1297 C   0  0  0  0  0  0  0  0  0  0  0  0
   -7.8178   10.0121  -11.7526 C   0  0  0  0  0  0  0  0  0  0  0  0
   -7.2522   10.6205  -10.6098 C   0  0  0  0  0  0  0  0  0  0  0  0
   -7.6101    9.7439   -9.5117 C   0  0  3  0  0  0  0  0  0  0  0  0
   -8.2784    8.7249   -9.9778 N   0  0  0  0  0  0  0  0  0  0  0  0
   -8.4134    8.8570  -11.2978 N   0  0  0  0  0  0  0  0  0  0  0  0
   -7.3337    9.8935   -8.0288 C   0  0  0  0  0  0  0  0  0  0  0  0
   -4.4165   13.6746  -11.4876 N   0  0  0  0  0  0  0  0  0  0  0  0
   -5.5534   13.6276  -12.1919 C   0  0  0  0  0  0  0  0  0  0  0  0
   -5.9234   14.5178  -12.9405 O   0  0  0  0  0  0  0  0  0  0  0  0
   -5.9640   10.4853   -7.7356 C   0  0  0  0  0  0  0  0  0  0  0  0
   -4.8116    9.7640   -8.0536 C   0  0  0  0  0  0  0  0  0  0  0  0
   -3.5500   10.3127   -7.8058 C   0  0  0  0  0  0  0  0  0  0  0  0
   -3.4411   11.5873   -7.2364 C   0  0  0  0  0  0  0  0  0  0  0  0
   -4.5925   12.3023   -6.9174 C   0  0  0  0  0  0  0  0  0  0  0  0
   -5.8510   11.7510   -7.1622 C   0  0  0  0  0  0  0  0  0  0  0  0
   -2.0968   12.1763   -6.9669 C   0  0  0  0  0  0  0  0  0  0  0  0
   -1.7702   13.4221   -6.4317 C   0  0  0  0  0  0  0  0  0  0  0  0
   -0.4283   13.4864   -6.3849 N   0  0  0  0  0  0  0  0  0  0  0  0
    0.1730   12.4042   -6.8287 N   0  0  0  0  0  0  0  0  0  0  0  0
   -0.8019   11.5974   -7.2024 C   0  0  0  0  0  0  0  0  0  0  0  0
    0.3914   14.5951   -5.9029 C   0  0  0  0  0  0  0  0  0  0  0  0
   -6.1059   12.3069   -9.8697 H   0  0  0  0  0  0  0  0  0  0  0  0
   -8.1905   10.1197  -13.8887 H   0  0  0  0  0  0  0  0  0  0  0  0
   -6.8851   12.2475  -14.0948 H   0  0  0  0  0  0  0  0  0  0  0  0
   -6.6672    9.1915   -9.6375 H   0  0  0  0  0  0  0  0  0  0  0  0
   -8.0369    9.6092   -7.2600 H   0  0  0  0  0  0  0  0  0  0  0  0
   -3.9109   14.5222  -11.6486 H   0  0  0  0  0  0  0  0  0  0  0  0
   -5.2907   15.2263  -12.9277 H   0  0  0  0  0  0  0  0  0  0  0  0
   -4.8950    8.7804   -8.4918 H   0  0  0  0  0  0  0  0  0  0  0  0
   -2.6597    9.7538   -8.0534 H   0  0  0  0  0  0  0  0  0  0  0  0
   -3.4383   12.0370   -8.2403 H   0  0  0  0  0  0  0  0  0  0  0  0
   -4.5115   13.2861   -6.4794 H   0  0  0  0  0  0  0  0  0  0  0  0
   -6.7408   12.3071   -6.9064 H   0  0  0  0  0  0  0  0  0  0  0  0
   -2.4626   14.1882   -6.1155 H   0  0  0  0  0  0  0  0  0  0  0  0
   -0.6459   10.6195   -7.6335 H   0  0  0  0  0  0  0  0  0  0  0  0
    1.4555   14.3315   -5.9935 H   0  0  0  0  0  0  0  0  0  0  0  0
    0.1837   15.4928   -6.5038 H   0  0  0  0  0  0  0  0  0  0  0  0
    0.1522   14.7964   -4.8483 H   0  0  0  0  0  0  0  0  0  0  0  0
  1  2  2  0  0  0  0
  1  4  1  0  0  0  0
  1 12  1  0  0  0  0
  2  6  1  0  0  0  0
  3  4  2  0  0  0  0
  3  5  1  0  0  0  0
  5  6  2  0  0  0  0
  5  9  1  0  0  0  0
  6  7  1  0  0  0  0
  7  8  1  0  0  0  0
  7 10  1  0  0  0  0
  8  9  2  0  0  0  0
 10 14  2  0  0  0  0
 11 12  2  0  0  0  0
 12 13  1  0  0  0  0
 14 15  1  0  0  0  0
 14 19  1  0  0  0  0
 15 16  2  0  0  0  0
 16 17  1  0  0  0  0
 17 18  1  0  0  0  0
 17 20  1  0  0  0  0
 18 19  2  0  0  0  0
 20 21  2  0  0  0  0
 20 24  1  0  0  0  0
 21 22  1  0  0  0  0
 22 23  1  0  0  0  0
 22 25  1  0  0  0  0
 23 24  2  0  0  0  0
  2 26  1  0  0  0  0
  3 27  1  0  0  0  0
  4 28  1  0  0  0  0
  7 29  1  0  0  0  0
 10 30  1  0  0  0  0
 11 31  1  0  0  0  0
 13 32  1  0  0  0  0
 15 33  1  0  0  0  0
 16 34  1  0  0  0  0
 17 35  1  0  0  0  0
 18 36  1  0  0  0  0
 19 37  1  0  0  0  0
 21 38  1  0  0  0  0
 24 39  1  0  0  0  0
 25 40  1  0  0  0  0
 25 41  1  0  0  0  0
 25 42  1  0  0  0  0
M  END
> <Name>
32

> <IC50[uM]>
0.11

$$$$
32
  -OEChem-05192314333D
 Structure written by MMmdl.
 42 45  0     1  0  0  0  0  0999 V2000
   -6.3767   12.3649  -12.0150 C   0  0  3  0  0  0  0  0  0  0  0  0
   -6.5300   11.8201  -10.7355 C   0  0  0  0  0  0  0  0  0  0  0  0
   -7.7235   10.5758  -13.0283 C   0  0  0  0  0  0  0  0  0  0  0  0
   -6.9848   11.7731  -13.1297 C   0  0  0  0  0  0  0  0  0  0  0  0
   -7.8178   10.0121  -11.7526 C   0  0  3  0  0  0  0  0  0  0  0  0
   -7.2522   10.6205  -10.6098 C   0  0  0  0  0  0  0  0  0  0  0  0
   -7.6101    9.7439   -9.5117 C   0  0  0  0  0  0  0  0  0  0  0  0
   -8.2784    8.7249   -9.9778 N   0  0  0  0  0  0  0  0  0  0  0  0
   -8.4134    8.8570  -11.2978 N   0  0  0  0  0  0  0  0  0  0  0  0
   -7.3337    9.8935   -8.0288 C   0  0  0  0  0  0  0  0  0  0  0  0
   -4.4165   13.6746  -11.4876 N   0  0  0  0  0  0  0  0  0  0  0  0
   -5.5534   13.6276  -12.1919 C   0  0  0  0  0  0  0  0  0  0  0  0
   -5.9234   14.5178  -12.9405 O   0  0  0  0  0  0  0  0  0  0  0  0
   -5.9640   10.4853   -7.7356 C   0  0  0  0  0  0  0  0  0  0  0  0
   -4.8116    9.7640   -8.0536 C   0  0  0  0  0  0  0  0  0  0  0  0
   -3.5500   10.3127   -7.8058 C   0  0  0  0  0  0  0  0  0  0  0  0
   -3.4411   11.5873   -7.2364 C   0  0  0  0  0  0  0  0  0  0  0  0
   -4.5925   12.3023   -6.9174 C   0  0  0  0  0  0  0  0  0  0  0  0
   -5.8510   11.7510   -7.1622 C   0  0  0  0  0  0  0  0  0  0  0  0
   -2.0968   12.1763   -6.9669 C   0  0  0  0  0  0  0  0  0  0  0  0
   -1.7702   13.4221   -6.4317 C   0  0  0  0  0  0  0  0  0  0  0  0
   -0.4283   13.4864   -6.3849 N   0  0  0  0  0  0  0  0  0  0  0  0
    0.1730   12.4042   -6.8287 N   0  0  0  0  0  0  0  0  0  0  0  0
   -0.8019   11.5974   -7.2024 C   0  0  0  0  0  0  0  0  0  0  0  0
    0.3914   14.5951   -5.9029 C   0  0  0  0  0  0  0  0  0  0  0  0
   -5.4777   11.7513  -12.1737 H   0  0  0  0  0  0  0  0  0  0  0  0
   -6.1059   12.3069   -9.8697 H   0  0  0  0  0  0  0  0  0  0  0  0
   -8.1905   10.1197  -13.8887 H   0  0  0  0  0  0  0  0  0  0  0  0
   -6.8851   12.2475  -14.0948 H   0  0  0  0  0  0  0  0  0  0  0  0
   -6.8808    9.4624  -11.9250 H   0  0  0  0  0  0  0  0  0  0  0  0
   -8.0369    9.6092   -7.2600 H   0  0  0  0  0  0  0  0  0  0  0  0
   -3.9109   14.5222  -11.6486 H   0  0  0  0  0  0  0  0  0  0  0  0
   -5.2907   15.2263  -12.9277 H   0  0  0  0  0  0  0  0  0  0  0  0
   -4.8950    8.7804   -8.4918 H   0  0  0  0  0  0  0  0  0  0  0  0
   -2.6597    9.7538   -8.0534 H   0  0  0  0  0  0  0  0  0  0  0  0
   -4.5115   13.2861   -6.4794 H   0  0  0  0  0  0  0  0  0  0  0  0
   -6.7408   12.3071   -6.9064 H   0  0  0  0  0  0  0  0  0  0  0  0
   -2.4626   14.1882   -6.1155 H   0  0  0  0  0  0  0  0  0  0  0  0
   -0.6459   10.6195   -7.6335 H   0  0  0  0  0  0  0  0  0  0  0  0
    1.4555   14.3315   -5.9935 H   0  0  0  0  0  0  0  0  0  0  0  0
    0.1837   15.4928   -6.5038 H   0  0  0  0  0  0  0  0  0  0  0  0
    0.1522   14.7964   -4.8483 H   0  0  0  0  0  0  0  0  0  0  0  0
  1  2  1  0  0  0  0
  1  4  1  0  0  0  0
  1 12  1  0  0  0  0
  2  6  2  0  0  0  0
  3  4  2  0  0  0  0
  3  5  1  0  0  0  0
  5  6  1  0  0  0  0
  5  9  1  0  0  0  0
  6  7  1  0  0  0  0
  7  8  1  0  0  0  0
  7 10  2  3  0  0  0
  8  9  2  0  0  0  0
 10 14  1  0  0  0  0
 11 12  2  0  0  0  0
 12 13  1  0  0  0  0
 14 15  2  0  0  0  0
 14 19  1  0  0  0  0
 15 16  1  0  0  0  0
 16 17  2  0  0  0  0
 17 18  1  0  0  0  0
 17 20  1  0  0  0  0
 18 19  2  0  0  0  0
 20 21  2  0  0  0  0
 20 24  1  0  0  0  0
 21 22  1  0  0  0  0
 22 23  1  0  0  0  0
 22 25  1  0  0  0  0
 23 24  2  0  0  0  0
  1 26  1  0  0  0  0
  2 27  1  0  0  0  0
  3 28  1  0  0  0  0
  4 29  1  0  0  0  0
  5 30  1  0  0  0  0
 10 31  1  0  0  0  0
 11 32  1  0  0  0  0
 13 33  1  0  0  0  0
 15 34  1  0  0  0  0
 16 35  1  0  0  0  0
 18 36  1  0  0  0  0
 19 37  1  0  0  0  0
 21 38  1  0  0  0  0
 24 39  1  0  0  0  0
 25 40  1  0  0  0  0
 25 41  1  0  0  0  0
 25 42  1  0  0  0  0
M  END
> <Name>
32

> <IC50[uM]>
0.11

$$$$
32
  -OEChem-05192314333D
 Structure written by MMmdl.
 42 45  0     1  0  0  0  0  0999 V2000
   -6.3767   12.3649  -12.0150 C   0  0  0  0  0  0  0  0  0  0  0  0
   -6.5300   11.8201  -10.7355 C   0  0  0  0  0  0  0  0  0  0  0  0
   -7.7235   10.5758  -13.0283 C   0  0  0  0  0  0  0  0  0  0  0  0
   -6.9848   11.7731  -13.1297 C   0  0  0  0  0  0  0  0  0  0  0  0
   -7.8178   10.0121  -11.7526 C   0  0  3  0  0  0  0  0  0  0  0  0
   -7.2522   10.6205  -10.6098 C   0  0  3  0  0  0  0  0  0  0  0  0
   -7.6101    9.7439   -9.5117 C   0  0  0  0  0  0  0  0  0  0  0  0
   -8.2784    8.7249   -9.9778 N   0  0  0  0  0  0  0  0  0  0  0  0
   -8.4134    8.8570  -11.2978 N   0  0  0  0  0  0  0  0  0  0  0  0
   -7.3337    9.8935   -8.0288 C   0  0  0  0  0  0  0  0  0  0  0  0
   -4.4165   13.6746  -11.4876 N   0  0  0  0  0  0  0  0  0  0  0  0
   -5.5534   13.6276  -12.1919 C   0  0  0  0  0  0  0  0  0  0  0  0
   -5.9234   14.5178  -12.9405 O   0  0  0  0  0  0  0  0  0  0  0  0
   -5.9640   10.4853   -7.7356 C   0  0  0  0  0  0  0  0  0  0  0  0
   -4.8116    9.7640   -8.0536 C   0  0  0  0  0  0  0  0  0  0  0  0
   -3.5500   10.3127   -7.8058 C   0  0  0  0  0  0  0  0  0  0  0  0
   -3.4411   11.5873   -7.2364 C   0  0  0  0  0  0  0  0  0  0  0  0
   -4.5925   12.3023   -6.9174 C   0  0  0  0  0  0  0  0  0  0  0  0
   -5.8510   11.7510   -7.1622 C   0  0  0  0  0  0  0  0  0  0  0  0
   -2.0968   12.1763   -6.9669 C   0  0  0  0  0  0  0  0  0  0  0  0
   -1.7702   13.4221   -6.4317 C   0  0  0  0  0  0  0  0  0  0  0  0
   -0.4283   13.4864   -6.3849 N   0  0  0  0  0  0  0  0  0  0  0  0
    0.1730   12.4042   -6.8287 N   0  0  0  0  0  0  0  0  0  0  0  0
   -0.8019   11.5974   -7.2024 C   0  0  0  0  0  0  0  0  0  0  0  0
    0.3914   14.5951   -5.9029 C   0  0  0  0  0  0  0  0  0  0  0  0
   -6.1059   12.3069   -9.8697 H   0  0  0  0  0  0  0  0  0  0  0  0
   -8.1905   10.1197  -13.8887 H   0  0  0  0  0  0  0  0  0  0  0  0
   -6.8851   12.2475  -14.0948 H   0  0  0  0  0  0  0  0  0  0  0  0
   -6.8808    9.4624  -11.9250 H   0  0  0  0  0  0  0  0  0  0  0  0
   -8.1785   11.1934  -10.4554 H   0  0  0  0  0  0  0  0  0  0  0  0
   -8.0369    9.6092   -7.2600 H   0  0  0  0  0  0  0  0  0  0  0  0
   -3.9109   14.5222  -11.6486 H   0  0  0  0  0  0  0  0  0  0  0  0
   -5.2907   15.2263  -12.9277 H   0  0  0  0  0  0  0  0  0  0  0  0
   -4.8950    8.7804   -8.4918 H   0  0  0  0  0  0  0  0  0  0  0  0
   -2.6597    9.7538   -8.0534 H   0  0  0  0  0  0  0  0  0  0  0  0
   -4.5115   13.2861   -6.4794 H   0  0  0  0  0  0  0  0  0  0  0  0
   -6.7408   12.3071   -6.9064 H   0  0  0  0  0  0  0  0  0  0  0  0
   -2.4626   14.1882   -6.1155 H   0  0  0  0  0  0  0  0  0  0  0  0
   -0.6459   10.6195   -7.6335 H   0  0  0  0  0  0  0  0  0  0  0  0
    1.4555   14.3315   -5.9935 H   0  0  0  0  0  0  0  0  0  0  0  0
    0.1837   15.4928   -6.5038 H   0  0  0  0  0  0  0  0  0  0  0  0
    0.1522   14.7964   -4.8483 H   0  0  0  0  0  0  0  0  0  0  0  0
  1  2  2  0  0  0  0
  1  4  1  0  0  0  0
  1 12  1  0  0  0  0
  2  6  1  0  0  0  0
  3  4  2  0  0  0  0
  3  5  1  0  0  0  0
  5  6  1  0  0  0  0
  5  9  1  0  0  0  0
  6  7  1  0  0  0  0
  7  8  1  0  0  0  0
  7 10  2  3  0  0  0
  8  9  2  0  0  0  0
 10 14  1  0  0  0  0
 11 12  2  0  0  0  0
 12 13  1  0  0  0  0
 14 15  2  0  0  0  0
 14 19  1  0  0  0  0
 15 16  1  0  0  0  0
 16 17  2  0  0  0  0
 17 18  1  0  0  0  0
 17 20  1  0  0  0  0
 18 19  2  0  0  0  0
 20 21  2  0  0  0  0
 20 24  1  0  0  0  0
 21 22  1  0  0  0  0
 22 23  1  0  0  0  0
 22 25  1  0  0  0  0
 23 24  2  0  0  0  0
  2 26  1  0  0  0  0
  3 27  1  0  0  0  0
  4 28  1  0  0  0  0
  5 29  1  0  0  0  0
  6 30  1  0  0  0  0
 10 31  1  0  0  0  0
 11 32  1  0  0  0  0
 13 33  1  0  0  0  0
 15 34  1  0  0  0  0
 16 35  1  0  0  0  0
 18 36  1  0  0  0  0
 19 37  1  0  0  0  0
 21 38  1  0  0  0  0
 24 39  1  0  0  0  0
 25 40  1  0  0  0  0
 25 41  1  0  0  0  0
 25 42  1  0  0  0  0
M  END
> <Name>
32

> <IC50[uM]>
0.11

$$$$
32
  -OEChem-05192314333D
 Structure written by MMmdl.
 42 45  0     1  0  0  0  0  0999 V2000
   -6.3767   12.3649  -12.0150 C   0  0  0  0  0  0  0  0  0  0  0  0
   -6.5300   11.8201  -10.7355 C   0  0  0  0  0  0  0  0  0  0  0  0
   -7.7235   10.5758  -13.0283 C   0  0  0  0  0  0  0  0  0  0  0  0
   -6.9848   11.7731  -13.1297 C   0  0  0  0  0  0  0  0  0  0  0  0
   -7.8178   10.0121  -11.7526 C   0  0  3  0  0  0  0  0  0  0  0  0
   -7.2522   10.6205  -10.6098 C   0  0  0  0  0  0  0  0  0  0  0  0
   -7.6101    9.7439   -9.5117 C   0  0  0  0  0  0  0  0  0  0  0  0
   -8.2784    8.7249   -9.9778 N   0  0  0  0  0  0  0  0  0  0  0  0
   -8.4134    8.8570  -11.2978 N   0  0  0  0  0  0  0  0  0  0  0  0
   -7.3337    9.8935   -8.0288 C   0  0  0  0  0  0  0  0  0  0  0  0
   -4.4165   13.6746  -11.4876 N   0  0  0  0  0  0  0  0  0  0  0  0
   -5.5534   13.6276  -12.1919 C   0  0  0  0  0  0  0  0  0  0  0  0
   -5.9234   14.5178  -12.9405 O   0  0  0  0  0  0  0  0  0  0  0  0
   -5.9640   10.4853   -7.7356 C   0  0  0  0  0  0  0  0  0  0  0  0
   -4.8116    9.7640   -8.0536 C   0  0  0  0  0  0  0  0  0  0  0  0
   -3.5500   10.3127   -7.8058 C   0  0  0  0  0  0  0  0  0  0  0  0
   -3.4411   11.5873   -7.2364 C   0  0  0  0  0  0  0  0  0  0  0  0
   -4.5925   12.3023   -6.9174 C   0  0  0  0  0  0  0  0  0  0  0  0
   -5.8510   11.7510   -7.1622 C   0  0  0  0  0  0  0  0  0  0  0  0
   -2.0968   12.1763   -6.9669 C   0  0  0  0  0  0  0  0  0  0  0  0
   -1.7702   13.4221   -6.4317 C   0  0  0  0  0  0  0  0  0  0  0  0
   -0.4283   13.4864   -6.3849 N   0  0  0  0  0  0  0  0  0  0  0  0
    0.1730   12.4042   -6.8287 N   0  0  0  0  0  0  0  0  0  0  0  0
   -0.8019   11.5974   -7.2024 C   0  0  0  0  0  0  0  0  0  0  0  0
    0.3914   14.5951   -5.9029 C   0  0  0  0  0  0  0  0  0  0  0  0
   -6.1059   12.3069   -9.8697 H   0  0  0  0  0  0  0  0  0  0  0  0
   -8.7452   10.7816  -13.3800 H   0  0  0  0  0  0  0  0  0  0  0  0
   -7.2510    9.8336  -13.6885 H   0  0  0  0  0  0  0  0  0  0  0  0
   -6.8851   12.2475  -14.0948 H   0  0  0  0  0  0  0  0  0  0  0  0
   -6.8808    9.4624  -11.9250 H   0  0  0  0  0  0  0  0  0  0  0  0
   -8.0369    9.6092   -7.2600 H   0  0  0  0  0  0  0  0  0  0  0  0
   -3.9109   14.5222  -11.6486 H   0  0  0  0  0  0  0  0  0  0  0  0
   -5.2907   15.2263  -12.9277 H   0  0  0  0  0  0  0  0  0  0  0  0
   -4.8950    8.7804   -8.4918 H   0  0  0  0  0  0  0  0  0  0  0  0
   -2.6597    9.7538   -8.0534 H   0  0  0  0  0  0  0  0  0  0  0  0
   -4.5115   13.2861   -6.4794 H   0  0  0  0  0  0  0  0  0  0  0  0
   -6.7408   12.3071   -6.9064 H   0  0  0  0  0  0  0  0  0  0  0  0
   -2.4626   14.1882   -6.1155 H   0  0  0  0  0  0  0  0  0  0  0  0
   -0.6459   10.6195   -7.6335 H   0  0  0  0  0  0  0  0  0  0  0  0
    1.4555   14.3315   -5.9935 H   0  0  0  0  0  0  0  0  0  0  0  0
    0.1837   15.4928   -6.5038 H   0  0  0  0  0  0  0  0  0  0  0  0
    0.1522   14.7964   -4.8483 H   0  0  0  0  0  0  0  0  0  0  0  0
  1  2  1  0  0  0  0
  1  4  2  0  0  0  0
  1 12  1  0  0  0  0
  2  6  2  0  0  0  0
  3  4  1  0  0  0  0
  3  5  1  0  0  0  0
  5  6  1  0  0  0  0
  5  9  1  0  0  0  0
  6  7  1  0  0  0  0
  7  8  1  0  0  0  0
  7 10  2  3  0  0  0
  8  9  2  0  0  0  0
 10 14  1  0  0  0  0
 11 12  2  0  0  0  0
 12 13  1  0  0  0  0
 14 15  2  0  0  0  0
 14 19  1  0  0  0  0
 15 16  1  0  0  0  0
 16 17  2  0  0  0  0
 17 18  1  0  0  0  0
 17 20  1  0  0  0  0
 18 19  2  0  0  0  0
 20 21  2  0  0  0  0
 20 24  1  0  0  0  0
 21 22  1  0  0  0  0
 22 23  1  0  0  0  0
 22 25  1  0  0  0  0
 23 24  2  0  0  0  0
  2 26  1  0  0  0  0
  3 27  1  0  0  0  0
  3 28  1  0  0  0  0
  4 29  1  0  0  0  0
  5 30  1  0  0  0  0
 10 31  1  0  0  0  0
 11 32  1  0  0  0  0
 13 33  1  0  0  0  0
 15 34  1  0  0  0  0
 16 35  1  0  0  0  0
 18 36  1  0  0  0  0
 19 37  1  0  0  0  0
 21 38  1  0  0  0  0
 24 39  1  0  0  0  0
 25 40  1  0  0  0  0
 25 41  1  0  0  0  0
 25 42  1  0  0  0  0
M  END
> <Name>
32

> <IC50[uM]>
0.11

$$$$
32
  -OEChem-05192314333D
 Structure written by MMmdl.
 42 45  0     1  0  0  0  0  0999 V2000
   -6.3767   12.3649  -12.0150 C   0  0  0  0  0  0  0  0  0  0  0  0
   -6.5300   11.8201  -10.7355 C   0  0  0  0  0  0  0  0  0  0  0  0
   -7.7235   10.5758  -13.0283 C   0  0  0  0  0  0  0  0  0  0  0  0
   -6.9848   11.7731  -13.1297 C   0  0  0  0  0  0  0  0  0  0  0  0
   -7.8178   10.0121  -11.7526 C   0  0  0  0  0  0  0  0  0  0  0  0
   -7.2522   10.6205  -10.6098 C   0  0  0  0  0  0  0  0  0  0  0  0
   -7.6101    9.7439   -9.5117 C   0  0  0  0  0  0  0  0  0  0  0  0
   -8.2784    8.7249   -9.9778 N   0  0  0  0  0  0  0  0  0  0  0  0
   -8.4134    8.8570  -11.2978 N   0  0  0  0  0  0  0  0  0  0  0  0
   -7.3337    9.8935   -8.0288 C   0  0  0  0  0  0  0  0  0  0  0  0
   -4.4165   13.6746  -11.4876 N   0  0  0  0  0  0  0  0  0  0  0  0
   -5.5534   13.6276  -12.1919 C   0  0  0  0  0  0  0  0  0  0  0  0
   -5.9234   14.5178  -12.9405 O   0  0  0  0  0  0  0  0  0  0  0  0
   -5.9640   10.4853   -7.7356 C   0  0  0  0  0  0  0  0  0  0  0  0
   -4.8116    9.7640   -8.0536 C   0  0  0  0  0  0  0  0  0  0  0  0
   -3.5500   10.3127   -7.8058 C   0  0  0  0  0  0  0  0  0  0  0  0
   -3.4411   11.5873   -7.2364 C   0  0  3  0  0  0  0  0  0  0  0  0
   -4.5925   12.3023   -6.9174 C   0  0  0  0  0  0  0  0  0  0  0  0
   -5.8510   11.7510   -7.1622 C   0  0  0  0  0  0  0  0  0  0  0  0
   -2.0968   12.1763   -6.9669 C   0  0  0  0  0  0  0  0  0  0  0  0
   -1.7702   13.4221   -6.4317 C   0  0  0  0  0  0  0  0  0  0  0  0
   -0.4283   13.4864   -6.3849 N   0  0  0  0  0  0  0  0  0  0  0  0
    0.1730   12.4042   -6.8287 N   0  0  0  0  0  0  0  0  0  0  0  0
   -0.8019   11.5974   -7.2024 C   0  0  0  0  0  0  0  0  0  0  0  0
    0.3914   14.5951   -5.9029 C   0  0  0  0  0  0  0  0  0  0  0  0
   -6.1059   12.3069   -9.8697 H   0  0  0  0  0  0  0  0  0  0  0  0
   -8.1905   10.1197  -13.8887 H   0  0  0  0  0  0  0  0  0  0  0  0
   -6.8851   12.2475  -14.0948 H   0  0  0  0  0  0  0  0  0  0  0  0
   -8.0369    9.6092   -7.2600 H   0  0  0  0  0  0  0  0  0  0  0  0
   -3.9109   14.5222  -11.6486 H   0  0  0  0  0  0  0  0  0  0  0  0
   -5.2907   15.2263  -12.9277 H   0  0  0  0  0  0  0  0  0  0  0  0
   -4.8950    8.7804   -8.4918 H   0  0  0  0  0  0  0  0  0  0  0  0
   -3.0283    9.6178   -7.1313 H   0  0  0  0  0  0  0  0  0  0  0  0
   -3.0246   10.3502   -8.7715 H   0  0  0  0  0  0  0  0  0  0  0  0
   -3.4383   12.0370   -8.2403 H   0  0  0  0  0  0  0  0  0  0  0  0
   -4.5115   13.2861   -6.4794 H   0  0  0  0  0  0  0  0  0  0  0  0
   -6.7408   12.3071   -6.9064 H   0  0  0  0  0  0  0  0  0  0  0  0
   -2.4626   14.1882   -6.1155 H   0  0  0  0  0  0  0  0  0  0  0  0
   -0.6459   10.6195   -7.6335 H   0  0  0  0  0  0  0  0  0  0  0  0
    1.4555   14.3315   -5.9935 H   0  0  0  0  0  0  0  0  0  0  0  0
    0.1837   15.4928   -6.5038 H   0  0  0  0  0  0  0  0  0  0  0  0
    0.1522   14.7964   -4.8483 H   0  0  0  0  0  0  0  0  0  0  0  0
  1  2  2  0  0  0  0
  1  4  1  0  0  0  0
  1 12  1  0  0  0  0
  2  6  1  0  0  0  0
  3  4  2  0  0  0  0
  3  5  1  0  0  0  0
  5  6  2  0  0  0  0
  5  9  1  0  0  0  0
  6  7  1  0  0  0  0
  7  8  1  0  0  0  0
  7 10  2  3  0  0  0
  8  9  2  0  0  0  0
 10 14  1  0  0  0  0
 11 12  2  0  0  0  0
 12 13  1  0  0  0  0
 14 15  2  0  0  0  0
 14 19  1  0  0  0  0
 15 16  1  0  0  0  0
 16 17  1  0  0  0  0
 17 18  1  0  0  0  0
 17 20  1  0  0  0  0
 18 19  2  0  0  0  0
 20 21  2  0  0  0  0
 20 24  1  0  0  0  0
 21 22  1  0  0  0  0
 22 23  1  0  0  0  0
 22 25  1  0  0  0  0
 23 24  2  0  0  0  0
  2 26  1  0  0  0  0
  3 27  1  0  0  0  0
  4 28  1  0  0  0  0
 10 29  1  0  0  0  0
 11 30  1  0  0  0  0
 13 31  1  0  0  0  0
 15 32  1  0  0  0  0
 16 33  1  0  0  0  0
 16 34  1  0  0  0  0
 17 35  1  0  0  0  0
 18 36  1  0  0  0  0
 19 37  1  0  0  0  0
 21 38  1  0  0  0  0
 24 39  1  0  0  0  0
 25 40  1  0  0  0  0
 25 41  1  0  0  0  0
 25 42  1  0  0  0  0
M  END
> <Name>
32

> <IC50[uM]>
0.11

$$$$
32
  -OEChem-05192314333D
 Structure written by MMmdl.
 42 45  0     1  0  0  0  0  0999 V2000
   -6.3767   12.3649  -12.0150 C   0  0  3  0  0  0  0  0  0  0  0  0
   -6.5300   11.8201  -10.7355 C   0  0  0  0  0  0  0  0  0  0  0  0
   -7.7235   10.5758  -13.0283 C   0  0  0  0  0  0  0  0  0  0  0  0
   -6.9848   11.7731  -13.1297 C   0  0  0  0  0  0  0  0  0  0  0  0
   -7.8178   10.0121  -11.7526 C   0  0  0  0  0  0  0  0  0  0  0  0
   -7.2522   10.6205  -10.6098 C   0  0  0  0  0  0  0  0  0  0  0  0
   -7.6101    9.7439   -9.5117 C   0  0  0  0  0  0  0  0  0  0  0  0
   -8.2784    8.7249   -9.9778 N   0  0  0  0  0  0  0  0  0  0  0  0
   -8.4134    8.8570  -11.2978 N   0  0  0  0  0  0  0  0  0  0  0  0
   -7.3337    9.8935   -8.0288 C   0  0  0  0  0  0  0  0  0  0  0  0
   -4.4165   13.6746  -11.4876 N   0  0  0  0  0  0  0  0  0  0  0  0
   -5.5534   13.6276  -12.1919 C   0  0  0  0  0  0  0  0  0  0  0  0
   -5.9234   14.5178  -12.9405 O   0  0  0  0  0  0  0  0  0  0  0  0
   -5.9640   10.4853   -7.7356 C   0  0  0  0  0  0  0  0  0  0  0  0
   -4.8116    9.7640   -8.0536 C   0  0  0  0  0  0  0  0  0  0  0  0
   -3.5500   10.3127   -7.8058 C   0  0  0  0  0  0  0  0  0  0  0  0
   -3.4411   11.5873   -7.2364 C   0  0  0  0  0  0  0  0  0  0  0  0
   -4.5925   12.3023   -6.9174 C   0  0  0  0  0  0  0  0  0  0  0  0
   -5.8510   11.7510   -7.1622 C   0  0  0  0  0  0  0  0  0  0  0  0
   -2.0968   12.1763   -6.9669 C   0  0  0  0  0  0  0  0  0  0  0  0
   -1.7702   13.4221   -6.4317 C   0  0  0  0  0  0  0  0  0  0  0  0
   -0.4283   13.4864   -6.3849 N   0  0  0  0  0  0  0  0  0  0  0  0
    0.1730   12.4042   -6.8287 N   0  0  0  0  0  0  0  0  0  0  0  0
   -0.8019   11.5974   -7.2024 C   0  0  0  0  0  0  0  0  0  0  0  0
    0.3914   14.5951   -5.9029 C   0  0  0  0  0  0  0  0  0  0  0  0
   -5.4777   11.7513  -12.1737 H   0  0  0  0  0  0  0  0  0  0  0  0
   -6.1059   12.3069   -9.8697 H   0  0  0  0  0  0  0  0  0  0  0  0
   -8.1905   10.1197  -13.8887 H   0  0  0  0  0  0  0  0  0  0  0  0
   -7.6730   12.5260  -13.5414 H   0  0  0  0  0  0  0  0  0  0  0  0
   -6.1793   11.5781  -13.8530 H   0  0  0  0  0  0  0  0  0  0  0  0
   -8.0369    9.6092   -7.2600 H   0  0  0  0  0  0  0  0  0  0  0  0
   -3.9109   14.5222  -11.6486 H   0  0  0  0  0  0  0  0  0  0  0  0
   -5.2907   15.2263  -12.9277 H   0  0  0  0  0  0  0  0  0  0  0  0
   -4.8950    8.7804   -8.4918 H   0  0  0  0  0  0  0  0  0  0  0  0
   -2.6597    9.7538   -8.0534 H   0  0  0  0  0  0  0  0  0  0  0  0
   -4.5115   13.2861   -6.4794 H   0  0  0  0  0  0  0  0  0  0  0  0
   -6.7408   12.3071   -6.9064 H   0  0  0  0  0  0  0  0  0  0  0  0
   -2.4626   14.1882   -6.1155 H   0  0  0  0  0  0  0  0  0  0  0  0
   -0.6459   10.6195   -7.6335 H   0  0  0  0  0  0  0  0  0  0  0  0
    1.4555   14.3315   -5.9935 H   0  0  0  0  0  0  0  0  0  0  0  0
    0.1837   15.4928   -6.5038 H   0  0  0  0  0  0  0  0  0  0  0  0
    0.1522   14.7964   -4.8483 H   0  0  0  0  0  0  0  0  0  0  0  0
  1  2  1  0  0  0  0
  1  4  1  0  0  0  0
  1 12  1  0  0  0  0
  2  6  2  0  0  0  0
  3  4  1  0  0  0  0
  3  5  2  0  0  0  0
  5  6  1  0  0  0  0
  5  9  1  0  0  0  0
  6  7  1  0  0  0  0
  7  8  1  0  0  0  0
  7 10  2  3  0  0  0
  8  9  2  0  0  0  0
 10 14  1  0  0  0  0
 11 12  2  0  0  0  0
 12 13  1  0  0  0  0
 14 15  2  0  0  0  0
 14 19  1  0  0  0  0
 15 16  1  0  0  0  0
 16 17  2  0  0  0  0
 17 18  1  0  0  0  0
 17 20  1  0  0  0  0
 18 19  2  0  0  0  0
 20 21  2  0  0  0  0
 20 24  1  0  0  0  0
 21 22  1  0  0  0  0
 22 23  1  0  0  0  0
 22 25  1  0  0  0  0
 23 24  2  0  0  0  0
  1 26  1  0  0  0  0
  2 27  1  0  0  0  0
  3 28  1  0  0  0  0
  4 29  1  0  0  0  0
  4 30  1  0  0  0  0
 10 31  1  0  0  0  0
 11 32  1  0  0  0  0
 13 33  1  0  0  0  0
 15 34  1  0  0  0  0
 16 35  1  0  0  0  0
 18 36  1  0  0  0  0
 19 37  1  0  0  0  0
 21 38  1  0  0  0  0
 24 39  1  0  0  0  0
 25 40  1  0  0  0  0
 25 41  1  0  0  0  0
 25 42  1  0  0  0  0
M  END
> <Name>
32

> <IC50[uM]>
0.11

$$$$
32
  -OEChem-05192314333D
 Structure written by MMmdl.
 42 45  0     1  0  0  0  0  0999 V2000
   -6.3767   12.3649  -12.0150 C   0  0  0  0  0  0  0  0  0  0  0  0
   -6.5300   11.8201  -10.7355 C   0  0  0  0  0  0  0  0  0  0  0  0
   -7.7235   10.5758  -13.0283 C   0  0  0  0  0  0  0  0  0  0  0  0
   -6.9848   11.7731  -13.1297 C   0  0  0  0  0  0  0  0  0  0  0  0
   -7.8178   10.0121  -11.7526 C   0  0  0  0  0  0  0  0  0  0  0  0
   -7.2522   10.6205  -10.6098 C   0  0  3  0  0  0  0  0  0  0  0  0
   -7.6101    9.7439   -9.5117 C   0  0  0  0  0  0  0  0  0  0  0  0
   -8.2784    8.7249   -9.9778 N   0  0  0  0  0  0  0  0  0  0  0  0
   -8.4134    8.8570  -11.2978 N   0  0  0  0  0  0  0  0  0  0  0  0
   -7.3337    9.8935   -8.0288 C   0  0  0  0  0  0  0  0  0  0  0  0
   -4.4165   13.6746  -11.4876 N   0  0  0  0  0  0  0  0  0  0  0  0
   -5.5534   13.6276  -12.1919 C   0  0  0  0  0  0  0  0  0  0  0  0
   -5.9234   14.5178  -12.9405 O   0  0  0  0  0  0  0  0  0  0  0  0
   -5.9640   10.4853   -7.7356 C   0  0  0  0  0  0  0  0  0  0  0  0
   -4.8116    9.7640   -8.0536 C   0  0  0  0  0  0  0  0  0  0  0  0
   -3.5500   10.3127   -7.8058 C   0  0  0  0  0  0  0  0  0  0  0  0
   -3.4411   11.5873   -7.2364 C   0  0  0  0  0  0  0  0  0  0  0  0
   -4.5925   12.3023   -6.9174 C   0  0  0  0  0  0  0  0  0  0  0  0
   -5.8510   11.7510   -7.1622 C   0  0  0  0  0  0  0  0  0  0  0  0
   -2.0968   12.1763   -6.9669 C   0  0  0  0  0  0  0  0  0  0  0  0
   -1.7702   13.4221   -6.4317 C   0  0  0  0  0  0  0  0  0  0  0  0
   -0.4283   13.4864   -6.3849 N   0  0  0  0  0  0  0  0  0  0  0  0
    0.1730   12.4042   -6.8287 N   0  0  0  0  0  0  0  0  0  0  0  0
   -0.8019   11.5974   -7.2024 C   0  0  0  0  0  0  0  0  0  0  0  0
    0.3914   14.5951   -5.9029 C   0  0  0  0  0  0  0  0  0  0  0  0
   -6.1059   12.3069   -9.8697 H   0  0  0  0  0  0  0  0  0  0  0  0
   -8.1905   10.1197  -13.8887 H   0  0  0  0  0  0  0  0  0  0  0  0
   -7.6730   12.5260  -13.5414 H   0  0  0  0  0  0  0  0  0  0  0  0
   -6.1793   11.5781  -13.8530 H   0  0  0  0  0  0  0  0  0  0  0  0
   -8.1785   11.1934  -10.4554 H   0  0  0  0  0  0  0  0  0  0  0  0
   -8.0369    9.6092   -7.2600 H   0  0  0  0  0  0  0  0  0  0  0  0
   -3.9109   14.5222  -11.6486 H   0  0  0  0  0  0  0  0  0  0  0  0
   -5.2907   15.2263  -12.9277 H   0  0  0  0  0  0  0  0  0  0  0  0
   -4.8950    8.7804   -8.4918 H   0  0  0  0  0  0  0  0  0  0  0  0
   -2.6597    9.7538   -8.0534 H   0  0  0  0  0  0  0  0  0  0  0  0
   -4.5115   13.2861   -6.4794 H   0  0  0  0  0  0  0  0  0  0  0  0
   -6.7408   12.3071   -6.9064 H   0  0  0  0  0  0  0  0  0  0  0  0
   -2.4626   14.1882   -6.1155 H   0  0  0  0  0  0  0  0  0  0  0  0
   -0.6459   10.6195   -7.6335 H   0  0  0  0  0  0  0  0  0  0  0  0
    1.4555   14.3315   -5.9935 H   0  0  0  0  0  0  0  0  0  0  0  0
    0.1837   15.4928   -6.5038 H   0  0  0  0  0  0  0  0  0  0  0  0
    0.1522   14.7964   -4.8483 H   0  0  0  0  0  0  0  0  0  0  0  0
  1  2  2  0  0  0  0
  1  4  1  0  0  0  0
  1 12  1  0  0  0  0
  2  6  1  0  0  0  0
  3  4  1  0  0  0  0
  3  5  2  0  0  0  0
  5  6  1  0  0  0  0
  5  9  1  0  0  0  0
  6  7  1  0  0  0  0
  7  8  1  0  0  0  0
  7 10  2  3  0  0  0
  8  9  2  0  0  0  0
 10 14  1  0  0  0  0
 11 12  2  0  0  0  0
 12 13  1  0  0  0  0
 14 15  2  0  0  0  0
 14 19  1  0  0  0  0
 15 16  1  0  0  0  0
 16 17  2  0  0  0  0
 17 18  1  0  0  0  0
 17 20  1  0  0  0  0
 18 19  2  0  0  0  0
 20 21  2  0  0  0  0
 20 24  1  0  0  0  0
 21 22  1  0  0  0  0
 22 23  1  0  0  0  0
 22 25  1  0  0  0  0
 23 24  2  0  0  0  0
  2 26  1  0  0  0  0
  3 27  1  0  0  0  0
  4 28  1  0  0  0  0
  4 29  1  0  0  0  0
  6 30  1  0  0  0  0
 10 31  1  0  0  0  0
 11 32  1  0  0  0  0
 13 33  1  0  0  0  0
 15 34  1  0  0  0  0
 16 35  1  0  0  0  0
 18 36  1  0  0  0  0
 19 37  1  0  0  0  0
 21 38  1  0  0  0  0
 24 39  1  0  0  0  0
 25 40  1  0  0  0  0
 25 41  1  0  0  0  0
 25 42  1  0  0  0  0
M  END
> <Name>
32

> <IC50[uM]>
0.11

$$$$
32
  -OEChem-05192314333D
 Structure written by MMmdl.
 42 45  0     0  0  0  0  0  0999 V2000
   -6.3767   12.3649  -12.0150 C   0  0  0  0  0  0  0  0  0  0  0  0
   -6.5300   11.8201  -10.7355 C   0  0  0  0  0  0  0  0  0  0  0  0
   -7.7235   10.5758  -13.0283 C   0  0  0  0  0  0  0  0  0  0  0  0
   -6.9848   11.7731  -13.1297 C   0  0  0  0  0  0  0  0  0  0  0  0
   -7.8178   10.0121  -11.7526 C   0  0  0  0  0  0  0  0  0  0  0  0
   -7.2522   10.6205  -10.6098 C   0  0  0  0  0  0  0  0  0  0  0  0
   -7.6101    9.7439   -9.5117 C   0  0  0  0  0  0  0  0  0  0  0  0
   -8.2784    8.7249   -9.9778 N   0  0  0  0  0  0  0  0  0  0  0  0
   -8.4134    8.8570  -11.2978 N   0  0  0  0  0  0  0  0  0  0  0  0
   -7.3337    9.8935   -8.0288 C   0  0  0  0  0  0  0  0  0  0  0  0
   -4.4165   13.6746  -11.4876 N   0  0  0  0  0  0  0  0  0  0  0  0
   -5.5534   13.6276  -12.1919 C   0  0  0  0  0  0  0  0  0  0  0  0
   -5.9234   14.5178  -12.9405 O   0  0  0  0  0  0  0  0  0  0  0  0
   -5.9640   10.4853   -7.7356 C   0  0  0  0  0  0  0  0  0  0  0  0
   -4.8116    9.7640   -8.0536 C   0  0  0  0  0  0  0  0  0  0  0  0
   -3.5500   10.3127   -7.8058 C   0  0  0  0  0  0  0  0  0  0  0  0
   -3.4411   11.5873   -7.2364 C   0  0  0  0  0  0  0  0  0  0  0  0
   -4.5925   12.3023   -6.9174 C   0  0  0  0  0  0  0  0  0  0  0  0
   -5.8510   11.7510   -7.1622 C   0  0  0  0  0  0  0  0  0  0  0  0
   -2.0968   12.1763   -6.9669 C   0  0  0  0  0  0  0  0  0  0  0  0
   -1.7702   13.4221   -6.4317 C   0  0  0  0  0  0  0  0  0  0  0  0
   -0.4283   13.4864   -6.3849 N   0  0  0  0  0  0  0  0  0  0  0  0
    0.1730   12.4042   -6.8287 N   0  0  0  0  0  0  0  0  0  0  0  0
   -0.8019   11.5974   -7.2024 C   0  0  0  0  0  0  0  0  0  0  0  0
    0.3914   14.5951   -5.9029 C   0  0  0  0  0  0  0  0  0  0  0  0
   -6.1059   12.3069   -9.8697 H   0  0  0  0  0  0  0  0  0  0  0  0
   -8.7452   10.7816  -13.3800 H   0  0  0  0  0  0  0  0  0  0  0  0
   -7.2510    9.8336  -13.6885 H   0  0  0  0  0  0  0  0  0  0  0  0
   -7.6730   12.5260  -13.5414 H   0  0  0  0  0  0  0  0  0  0  0  0
   -6.1793   11.5781  -13.8530 H   0  0  0  0  0  0  0  0  0  0  0  0
   -8.0369    9.6092   -7.2600 H   0  0  0  0  0  0  0  0  0  0  0  0
   -3.9109   14.5222  -11.6486 H   0  0  0  0  0  0  0  0  0  0  0  0
   -5.2907   15.2263  -12.9277 H   0  0  0  0  0  0  0  0  0  0  0  0
   -4.8950    8.7804   -8.4918 H   0  0  0  0  0  0  0  0  0  0  0  0
   -2.6597    9.7538   -8.0534 H   0  0  0  0  0  0  0  0  0  0  0  0
   -4.5115   13.2861   -6.4794 H   0  0  0  0  0  0  0  0  0  0  0  0
   -6.7408   12.3071   -6.9064 H   0  0  0  0  0  0  0  0  0  0  0  0
   -2.4626   14.1882   -6.1155 H   0  0  0  0  0  0  0  0  0  0  0  0
   -0.6459   10.6195   -7.6335 H   0  0  0  0  0  0  0  0  0  0  0  0
    1.4555   14.3315   -5.9935 H   0  0  0  0  0  0  0  0  0  0  0  0
    0.1837   15.4928   -6.5038 H   0  0  0  0  0  0  0  0  0  0  0  0
    0.1522   14.7964   -4.8483 H   0  0  0  0  0  0  0  0  0  0  0  0
  1  2  2  0  0  0  0
  1  4  1  0  0  0  0
  1 12  1  0  0  0  0
  2  6  1  0  0  0  0
  3  4  1  0  0  0  0
  3  5  1  0  0  0  0
  5  6  2  0  0  0  0
  5  9  1  0  0  0  0
  6  7  1  0  0  0  0
  7  8  1  0  0  0  0
  7 10  2  3  0  0  0
  8  9  2  0  0  0  0
 10 14  1  0  0  0  0
 11 12  2  0  0  0  0
 12 13  1  0  0  0  0
 14 15  2  0  0  0  0
 14 19  1  0  0  0  0
 15 16  1  0  0  0  0
 16 17  2  0  0  0  0
 17 18  1  0  0  0  0
 17 20  1  0  0  0  0
 18 19  2  0  0  0  0
 20 21  2  0  0  0  0
 20 24  1  0  0  0  0
 21 22  1  0  0  0  0
 22 23  1  0  0  0  0
 22 25  1  0  0  0  0
 23 24  2  0  0  0  0
  2 26  1  0  0  0  0
  3 27  1  0  0  0  0
  3 28  1  0  0  0  0
  4 29  1  0  0  0  0
  4 30  1  0  0  0  0
 10 31  1  0  0  0  0
 11 32  1  0  0  0  0
 13 33  1  0  0  0  0
 15 34  1  0  0  0  0
 16 35  1  0  0  0  0
 18 36  1  0  0  0  0
 19 37  1  0  0  0  0
 21 38  1  0  0  0  0
 24 39  1  0  0  0  0
 25 40  1  0  0  0  0
 25 41  1  0  0  0  0
 25 42  1  0  0  0  0
M  END
> <Name>
32

> <IC50[uM]>
0.11

$$$$
32
  -OEChem-05192314333D
 Structure written by MMmdl.
 42 45  0     1  0  0  0  0  0999 V2000
   -6.3767   12.3649  -12.0150 C   0  0  0  0  0  0  0  0  0  0  0  0
   -6.5300   11.8201  -10.7355 C   0  0  0  0  0  0  0  0  0  0  0  0
   -7.7235   10.5758  -13.0283 C   0  0  0  0  0  0  0  0  0  0  0  0
   -6.9848   11.7731  -13.1297 C   0  0  0  0  0  0  0  0  0  0  0  0
   -7.8178   10.0121  -11.7526 C   0  0  0  0  0  0  0  0  0  0  0  0
   -7.2522   10.6205  -10.6098 C   0  0  0  0  0  0  0  0  0  0  0  0
   -7.6101    9.7439   -9.5117 C   0  0  0  0  0  0  0  0  0  0  0  0
   -8.2784    8.7249   -9.9778 N   0  0  0  0  0  0  0  0  0  0  0  0
   -8.4134    8.8570  -11.2978 N   0  0  0  0  0  0  0  0  0  0  0  0
   -7.3337    9.8935   -8.0288 C   0  0  0  0  0  0  0  0  0  0  0  0
   -4.4165   13.6746  -11.4876 N   0  0  0  0  0  0  0  0  0  0  0  0
   -5.5534   13.6276  -12.1919 C   0  0  0  0  0  0  0  0  0  0  0  0
   -5.9234   14.5178  -12.9405 O   0  0  0  0  0  0  0  0  0  0  0  0
   -5.9640   10.4853   -7.7356 C   0  0  3  0  0  0  0  0  0  0  0  0
   -4.8116    9.7640   -8.0536 C   0  0  0  0  0  0  0  0  0  0  0  0
   -3.5500   10.3127   -7.8058 C   0  0  0  0  0  0  0  0  0  0  0  0
   -3.4411   11.5873   -7.2364 C   0  0  0  0  0  0  0  0  0  0  0  0
   -4.5925   12.3023   -6.9174 C   0  0  0  0  0  0  0  0  0  0  0  0
   -5.8510   11.7510   -7.1622 C   0  0  0  0  0  0  0  0  0  0  0  0
   -2.0968   12.1763   -6.9669 C   0  0  0  0  0  0  0  0  0  0  0  0
   -1.7702   13.4221   -6.4317 C   0  0  0  0  0  0  0  0  0  0  0  0
   -0.4283   13.4864   -6.3849 N   0  0  0  0  0  0  0  0  0  0  0  0
    0.1730   12.4042   -6.8287 N   0  0  0  0  0  0  0  0  0  0  0  0
   -0.8019   11.5974   -7.2024 C   0  0  0  0  0  0  0  0  0  0  0  0
    0.3914   14.5951   -5.9029 C   0  0  0  0  0  0  0  0  0  0  0  0
   -6.1059   12.3069   -9.8697 H   0  0  0  0  0  0  0  0  0  0  0  0
   -8.1905   10.1197  -13.8887 H   0  0  0  0  0  0  0  0  0  0  0  0
   -6.8851   12.2475  -14.0948 H   0  0  0  0  0  0  0  0  0  0  0  0
   -8.0369    9.6092   -7.2600 H   0  0  0  0  0  0  0  0  0  0  0  0
   -3.9109   14.5222  -11.6486 H   0  0  0  0  0  0  0  0  0  0  0  0
   -5.2907   15.2263  -12.9277 H   0  0  0  0  0  0  0  0  0  0  0  0
   -5.9776   10.0292   -6.7347 H   0  0  0  0  0  0  0  0  0  0  0  0
   -4.8950    8.7804   -8.4918 H   0  0  0  0  0  0  0  0  0  0  0  0
   -2.6597    9.7538   -8.0534 H   0  0  0  0  0  0  0  0  0  0  0  0
   -4.5115   13.2861   -6.4794 H   0  0  0  0  0  0  0  0  0  0  0  0
   -6.3776   12.4489   -7.8298 H   0  0  0  0  0  0  0  0  0  0  0  0
   -6.3709   11.7071   -6.1938 H   0  0  0  0  0  0  0  0  0  0  0  0
   -2.4626   14.1882   -6.1155 H   0  0  0  0  0  0  0  0  0  0  0  0
   -0.6459   10.6195   -7.6335 H   0  0  0  0  0  0  0  0  0  0  0  0
    1.4555   14.3315   -5.9935 H   0  0  0  0  0  0  0  0  0  0  0  0
    0.1837   15.4928   -6.5038 H   0  0  0  0  0  0  0  0  0  0  0  0
    0.1522   14.7964   -4.8483 H   0  0  0  0  0  0  0  0  0  0  0  0
  1  2  2  0  0  0  0
  1  4  1  0  0  0  0
  1 12  1  0  0  0  0
  2  6  1  0  0  0  0
  3  4  2  0  0  0  0
  3  5  1  0  0  0  0
  5  6  2  0  0  0  0
  5  9  1  0  0  0  0
  6  7  1  0  0  0  0
  7  8  1  0  0  0  0
  7 10  2  3  0  0  0
  8  9  2  0  0  0  0
 10 14  1  0  0  0  0
 11 12  2  0  0  0  0
 12 13  1  0  0  0  0
 14 15  1  0  0  0  0
 14 19  1  0  0  0  0
 15 16  2  0  0  0  0
 16 17  1  0  0  0  0
 17 18  2  0  0  0  0
 17 20  1  0  0  0  0
 18 19  1  0  0  0  0
 20 21  2  0  0  0  0
 20 24  1  0  0  0  0
 21 22  1  0  0  0  0
 22 23  1  0  0  0  0
 22 25  1  0  0  0  0
 23 24  2  0  0  0  0
  2 26  1  0  0  0  0
  3 27  1  0  0  0  0
  4 28  1  0  0  0  0
 10 29  1  0  0  0  0
 11 30  1  0  0  0  0
 13 31  1  0  0  0  0
 14 32  1  0  0  0  0
 15 33  1  0  0  0  0
 16 34  1  0  0  0  0
 18 35  1  0  0  0  0
 19 36  1  0  0  0  0
 19 37  1  0  0  0  0
 21 38  1  0  0  0  0
 24 39  1  0  0  0  0
 25 40  1  0  0  0  0
 25 41  1  0  0  0  0
 25 42  1  0  0  0  0
M  END
> <Name>
32

> <IC50[uM]>
0.11

$$$$
32
  -OEChem-05192314333D
 Structure written by MMmdl.
 42 45  0     1  0  0  0  0  0999 V2000
   -6.3767   12.3649  -12.0150 C   0  0  0  0  0  0  0  0  0  0  0  0
   -6.5300   11.8201  -10.7355 C   0  0  0  0  0  0  0  0  0  0  0  0
   -7.7235   10.5758  -13.0283 C   0  0  0  0  0  0  0  0  0  0  0  0
   -6.9848   11.7731  -13.1297 C   0  0  0  0  0  0  0  0  0  0  0  0
   -7.8178   10.0121  -11.7526 C   0  0  0  0  0  0  0  0  0  0  0  0
   -7.2522   10.6205  -10.6098 C   0  0  0  0  0  0  0  0  0  0  0  0
   -7.6101    9.7439   -9.5117 C   0  0  3  0  0  0  0  0  0  0  0  0
   -8.2784    8.7249   -9.9778 N   0  0  0  0  0  0  0  0  0  0  0  0
   -8.4134    8.8570  -11.2978 N   0  0  0  0  0  0  0  0  0  0  0  0
   -7.3337    9.8935   -8.0288 C   0  0  0  0  0  0  0  0  0  0  0  0
   -4.4165   13.6746  -11.4876 N   0  0  0  0  0  0  0  0  0  0  0  0
   -5.5534   13.6276  -12.1919 C   0  0  0  0  0  0  0  0  0  0  0  0
   -5.9234   14.5178  -12.9405 O   0  0  0  0  0  0  0  0  0  0  0  0
   -5.9640   10.4853   -7.7356 C   0  0  0  0  0  0  0  0  0  0  0  0
   -4.8116    9.7640   -8.0536 C   0  0  0  0  0  0  0  0  0  0  0  0
   -3.5500   10.3127   -7.8058 C   0  0  0  0  0  0  0  0  0  0  0  0
   -3.4411   11.5873   -7.2364 C   0  0  0  0  0  0  0  0  0  0  0  0
   -4.5925   12.3023   -6.9174 C   0  0  0  0  0  0  0  0  0  0  0  0
   -5.8510   11.7510   -7.1622 C   0  0  0  0  0  0  0  0  0  0  0  0
   -2.0968   12.1763   -6.9669 C   0  0  0  0  0  0  0  0  0  0  0  0
   -1.7702   13.4221   -6.4317 C   0  0  0  0  0  0  0  0  0  0  0  0
   -0.4283   13.4864   -6.3849 N   0  0  0  0  0  0  0  0  0  0  0  0
    0.1730   12.4042   -6.8287 N   0  0  0  0  0  0  0  0  0  0  0  0
   -0.8019   11.5974   -7.2024 C   0  0  0  0  0  0  0  0  0  0  0  0
    0.3914   14.5951   -5.9029 C   0  0  0  0  0  0  0  0  0  0  0  0
   -6.1059   12.3069   -9.8697 H   0  0  0  0  0  0  0  0  0  0  0  0
   -8.1905   10.1197  -13.8887 H   0  0  0  0  0  0  0  0  0  0  0  0
   -6.8851   12.2475  -14.0948 H   0  0  0  0  0  0  0  0  0  0  0  0
   -6.6672    9.1915   -9.6375 H   0  0  0  0  0  0  0  0  0  0  0  0
   -8.0369    9.6092   -7.2600 H   0  0  0  0  0  0  0  0  0  0  0  0
   -3.9109   14.5222  -11.6486 H   0  0  0  0  0  0  0  0  0  0  0  0
   -5.2907   15.2263  -12.9277 H   0  0  0  0  0  0  0  0  0  0  0  0
   -4.8950    8.7804   -8.4918 H   0  0  0  0  0  0  0  0  0  0  0  0
   -2.6597    9.7538   -8.0534 H   0  0  0  0  0  0  0  0  0  0  0  0
   -4.5115   13.2861   -6.4794 H   0  0  0  0  0  0  0  0  0  0  0  0
   -6.3776   12.4489   -7.8298 H   0  0  0  0  0  0  0  0  0  0  0  0
   -6.3709   11.7071   -6.1938 H   0  0  0  0  0  0  0  0  0  0  0  0
   -2.4626   14.1882   -6.1155 H   0  0  0  0  0  0  0  0  0  0  0  0
   -0.6459   10.6195   -7.6335 H   0  0  0  0  0  0  0  0  0  0  0  0
    1.4555   14.3315   -5.9935 H   0  0  0  0  0  0  0  0  0  0  0  0
    0.1837   15.4928   -6.5038 H   0  0  0  0  0  0  0  0  0  0  0  0
    0.1522   14.7964   -4.8483 H   0  0  0  0  0  0  0  0  0  0  0  0
  1  2  2  0  0  0  0
  1  4  1  0  0  0  0
  1 12  1  0  0  0  0
  2  6  1  0  0  0  0
  3  4  2  0  0  0  0
  3  5  1  0  0  0  0
  5  6  2  0  0  0  0
  5  9  1  0  0  0  0
  6  7  1  0  0  0  0
  7  8  1  0  0  0  0
  7 10  1  0  0  0  0
  8  9  2  0  0  0  0
 10 14  2  3  0  0  0
 11 12  2  0  0  0  0
 12 13  1  0  0  0  0
 14 15  1  0  0  0  0
 14 19  1  0  0  0  0
 15 16  2  0  0  0  0
 16 17  1  0  0  0  0
 17 18  2  0  0  0  0
 17 20  1  0  0  0  0
 18 19  1  0  0  0  0
 20 21  2  0  0  0  0
 20 24  1  0  0  0  0
 21 22  1  0  0  0  0
 22 23  1  0  0  0  0
 22 25  1  0  0  0  0
 23 24  2  0  0  0  0
  2 26  1  0  0  0  0
  3 27  1  0  0  0  0
  4 28  1  0  0  0  0
  7 29  1  0  0  0  0
 10 30  1  0  0  0  0
 11 31  1  0  0  0  0
 13 32  1  0  0  0  0
 15 33  1  0  0  0  0
 16 34  1  0  0  0  0
 18 35  1  0  0  0  0
 19 36  1  0  0  0  0
 19 37  1  0  0  0  0
 21 38  1  0  0  0  0
 24 39  1  0  0  0  0
 25 40  1  0  0  0  0
 25 41  1  0  0  0  0
 25 42  1  0  0  0  0
M  END
> <Name>
32

> <IC50[uM]>
0.11

$$$$
32
  -OEChem-05192314333D
 Structure written by MMmdl.
 42 45  0     0  0  0  0  0  0999 V2000
   -6.3767   12.3649  -12.0150 C   0  0  0  0  0  0  0  0  0  0  0  0
   -6.5300   11.8201  -10.7355 C   0  0  0  0  0  0  0  0  0  0  0  0
   -7.7235   10.5758  -13.0283 C   0  0  0  0  0  0  0  0  0  0  0  0
   -6.9848   11.7731  -13.1297 C   0  0  0  0  0  0  0  0  0  0  0  0
   -7.8178   10.0121  -11.7526 C   0  0  0  0  0  0  0  0  0  0  0  0
   -7.2522   10.6205  -10.6098 C   0  0  0  0  0  0  0  0  0  0  0  0
   -7.6101    9.7439   -9.5117 C   0  0  0  0  0  0  0  0  0  0  0  0
   -8.2784    8.7249   -9.9778 N   0  0  0  0  0  0  0  0  0  0  0  0
   -8.4134    8.8570  -11.2978 N   0  0  0  0  0  0  0  0  0  0  0  0
   -7.3337    9.8935   -8.0288 C   0  0  0  0  0  0  0  0  0  0  0  0
   -4.4165   13.6746  -11.4876 N   0  0  0  0  0  0  0  0  0  0  0  0
   -5.5534   13.6276  -12.1919 C   0  0  0  0  0  0  0  0  0  0  0  0
   -5.9234   14.5178  -12.9405 O   0  0  0  0  0  0  0  0  0  0  0  0
   -5.9640   10.4853   -7.7356 C   0  0  0  0  0  0  0  0  0  0  0  0
   -4.8116    9.7640   -8.0536 C   0  0  0  0  0  0  0  0  0  0  0  0
   -3.5500   10.3127   -7.8058 C   0  0  0  0  0  0  0  0  0  0  0  0
   -3.4411   11.5873   -7.2364 C   0  0  0  0  0  0  0  0  0  0  0  0
   -4.5925   12.3023   -6.9174 C   0  0  0  0  0  0  0  0  0  0  0  0
   -5.8510   11.7510   -7.1622 C   0  0  0  0  0  0  0  0  0  0  0  0
   -2.0968   12.1763   -6.9669 C   0  0  0  0  0  0  0  0  0  0  0  0
   -1.7702   13.4221   -6.4317 C   0  0  0  0  0  0  0  0  0  0  0  0
   -0.4283   13.4864   -6.3849 N   0  0  0  0  0  0  0  0  0  0  0  0
    0.1730   12.4042   -6.8287 N   0  0  0  0  0  0  0  0  0  0  0  0
   -0.8019   11.5974   -7.2024 C   0  0  0  0  0  0  0  0  0  0  0  0
    0.3914   14.5951   -5.9029 C   0  0  0  0  0  0  0  0  0  0  0  0
   -6.1059   12.3069   -9.8697 H   0  0  0  0  0  0  0  0  0  0  0  0
   -8.1905   10.1197  -13.8887 H   0  0  0  0  0  0  0  0  0  0  0  0
   -6.8851   12.2475  -14.0948 H   0  0  0  0  0  0  0  0  0  0  0  0
   -8.0369    9.6092   -7.2600 H   0  0  0  0  0  0  0  0  0  0  0  0
   -3.9109   14.5222  -11.6486 H   0  0  0  0  0  0  0  0  0  0  0  0
   -5.2907   15.2263  -12.9277 H   0  0  0  0  0  0  0  0  0  0  0  0
   -4.8950    8.7804   -8.4918 H   0  0  0  0  0  0  0  0  0  0  0  0
   -3.0283    9.6178   -7.1313 H   0  0  0  0  0  0  0  0  0  0  0  0
   -3.0246   10.3502   -8.7715 H   0  0  0  0  0  0  0  0  0  0  0  0
   -4.5115   13.2861   -6.4794 H   0  0  0  0  0  0  0  0  0  0  0  0
   -6.3776   12.4489   -7.8298 H   0  0  0  0  0  0  0  0  0  0  0  0
   -6.3709   11.7071   -6.1938 H   0  0  0  0  0  0  0  0  0  0  0  0
   -2.4626   14.1882   -6.1155 H   0  0  0  0  0  0  0  0  0  0  0  0
   -0.6459   10.6195   -7.6335 H   0  0  0  0  0  0  0  0  0  0  0  0
    1.4555   14.3315   -5.9935 H   0  0  0  0  0  0  0  0  0  0  0  0
    0.1837   15.4928   -6.5038 H   0  0  0  0  0  0  0  0  0  0  0  0
    0.1522   14.7964   -4.8483 H   0  0  0  0  0  0  0  0  0  0  0  0
  1  2  2  0  0  0  0
  1  4  1  0  0  0  0
  1 12  1  0  0  0  0
  2  6  1  0  0  0  0
  3  4  2  0  0  0  0
  3  5  1  0  0  0  0
  5  6  2  0  0  0  0
  5  9  1  0  0  0  0
  6  7  1  0  0  0  0
  7  8  1  0  0  0  0
  7 10  2  3  0  0  0
  8  9  2  0  0  0  0
 10 14  1  0  0  0  0
 11 12  2  0  0  0  0
 12 13  1  0  0  0  0
 14 15  2  0  0  0  0
 14 19  1  0  0  0  0
 15 16  1  0  0  0  0
 16 17  1  0  0  0  0
 17 18  2  0  0  0  0
 17 20  1  0  0  0  0
 18 19  1  0  0  0  0
 20 21  2  0  0  0  0
 20 24  1  0  0  0  0
 21 22  1  0  0  0  0
 22 23  1  0  0  0  0
 22 25  1  0  0  0  0
 23 24  2  0  0  0  0
  2 26  1  0  0  0  0
  3 27  1  0  0  0  0
  4 28  1  0  0  0  0
 10 29  1  0  0  0  0
 11 30  1  0  0  0  0
 13 31  1  0  0  0  0
 15 32  1  0  0  0  0
 16 33  1  0  0  0  0
 16 34  1  0  0  0  0
 18 35  1  0  0  0  0
 19 36  1  0  0  0  0
 19 37  1  0  0  0  0
 21 38  1  0  0  0  0
 24 39  1  0  0  0  0
 25 40  1  0  0  0  0
 25 41  1  0  0  0  0
 25 42  1  0  0  0  0
M  END
> <Name>
32

> <IC50[uM]>
0.11

$$$$
32
  -OEChem-05192314333D
 Structure written by MMmdl.
 42 45  0     0  0  0  0  0  0999 V2000
   -6.3767   12.3649  -12.0150 C   0  0  0  0  0  0  0  0  0  0  0  0
   -6.5300   11.8201  -10.7355 C   0  0  0  0  0  0  0  0  0  0  0  0
   -7.7235   10.5758  -13.0283 C   0  0  0  0  0  0  0  0  0  0  0  0
   -6.9848   11.7731  -13.1297 C   0  0  0  0  0  0  0  0  0  0  0  0
   -7.8178   10.0121  -11.7526 C   0  0  0  0  0  0  0  0  0  0  0  0
   -7.2522   10.6205  -10.6098 C   0  0  0  0  0  0  0  0  0  0  0  0
   -7.6101    9.7439   -9.5117 C   0  0  0  0  0  0  0  0  0  0  0  0
   -8.2784    8.7249   -9.9778 N   0  0  0  0  0  0  0  0  0  0  0  0
   -8.4134    8.8570  -11.2978 N   0  0  0  0  0  0  0  0  0  0  0  0
   -7.3337    9.8935   -8.0288 C   0  0  0  0  0  0  0  0  0  0  0  0
   -4.4165   13.6746  -11.4876 N   0  0  0  0  0  0  0  0  0  0  0  0
   -5.5534   13.6276  -12.1919 C   0  0  0  0  0  0  0  0  0  0  0  0
   -5.9234   14.5178  -12.9405 O   0  0  0  0  0  0  0  0  0  0  0  0
   -5.9640   10.4853   -7.7356 C   0  0  0  0  0  0  0  0  0  0  0  0
   -4.8116    9.7640   -8.0536 C   0  0  0  0  0  0  0  0  0  0  0  0
   -3.5500   10.3127   -7.8058 C   0  0  0  0  0  0  0  0  0  0  0  0
   -3.4411   11.5873   -7.2364 C   0  0  0  0  0  0  0  0  0  0  0  0
   -4.5925   12.3023   -6.9174 C   0  0  0  0  0  0  0  0  0  0  0  0
   -5.8510   11.7510   -7.1622 C   0  0  0  0  0  0  0  0  0  0  0  0
   -2.0968   12.1763   -6.9669 C   0  0  0  0  0  0  0  0  0  0  0  0
   -1.7702   13.4221   -6.4317 C   0  0  0  0  0  0  0  0  0  0  0  0
   -0.4283   13.4864   -6.3849 N   0  0  0  0  0  0  0  0  0  0  0  0
    0.1730   12.4042   -6.8287 N   0  0  0  0  0  0  0  0  0  0  0  0
   -0.8019   11.5974   -7.2024 C   0  0  0  0  0  0  0  0  0  0  0  0
    0.3914   14.5951   -5.9029 C   0  0  0  0  0  0  0  0  0  0  0  0
   -6.1059   12.3069   -9.8697 H   0  0  0  0  0  0  0  0  0  0  0  0
   -8.1905   10.1197  -13.8887 H   0  0  0  0  0  0  0  0  0  0  0  0
   -6.8851   12.2475  -14.0948 H   0  0  0  0  0  0  0  0  0  0  0  0
   -8.0369    9.6092   -7.2600 H   0  0  0  0  0  0  0  0  0  0  0  0
   -3.9109   14.5222  -11.6486 H   0  0  0  0  0  0  0  0  0  0  0  0
   -5.2907   15.2263  -12.9277 H   0  0  0  0  0  0  0  0  0  0  0  0
   -4.8950    8.7804   -8.4918 H   0  0  0  0  0  0  0  0  0  0  0  0
   -2.6597    9.7538   -8.0534 H   0  0  0  0  0  0  0  0  0  0  0  0
   -4.5444   12.5155   -5.8393 H   0  0  0  0  0  0  0  0  0  0  0  0
   -4.5453   13.2462   -7.4803 H   0  0  0  0  0  0  0  0  0  0  0  0
   -6.3776   12.4489   -7.8298 H   0  0  0  0  0  0  0  0  0  0  0  0
   -6.3709   11.7071   -6.1938 H   0  0  0  0  0  0  0  0  0  0  0  0
   -2.4626   14.1882   -6.1155 H   0  0  0  0  0  0  0  0  0  0  0  0
   -0.6459   10.6195   -7.6335 H   0  0  0  0  0  0  0  0  0  0  0  0
    1.4555   14.3315   -5.9935 H   0  0  0  0  0  0  0  0  0  0  0  0
    0.1837   15.4928   -6.5038 H   0  0  0  0  0  0  0  0  0  0  0  0
    0.1522   14.7964   -4.8483 H   0  0  0  0  0  0  0  0  0  0  0  0
  1  2  2  0  0  0  0
  1  4  1  0  0  0  0
  1 12  1  0  0  0  0
  2  6  1  0  0  0  0
  3  4  2  0  0  0  0
  3  5  1  0  0  0  0
  5  6  2  0  0  0  0
  5  9  1  0  0  0  0
  6  7  1  0  0  0  0
  7  8  1  0  0  0  0
  7 10  2  3  0  0  0
  8  9  2  0  0  0  0
 10 14  1  0  0  0  0
 11 12  2  0  0  0  0
 12 13  1  0  0  0  0
 14 15  2  0  0  0  0
 14 19  1  0  0  0  0
 15 16  1  0  0  0  0
 16 17  2  0  0  0  0
 17 18  1  0  0  0  0
 17 20  1  0  0  0  0
 18 19  1  0  0  0  0
 20 21  2  0  0  0  0
 20 24  1  0  0  0  0
 21 22  1  0  0  0  0
 22 23  1  0  0  0  0
 22 25  1  0  0  0  0
 23 24  2  0  0  0  0
  2 26  1  0  0  0  0
  3 27  1  0  0  0  0
  4 28  1  0  0  0  0
 10 29  1  0  0  0  0
 11 30  1  0  0  0  0
 13 31  1  0  0  0  0
 15 32  1  0  0  0  0
 16 33  1  0  0  0  0
 18 34  1  0  0  0  0
 18 35  1  0  0  0  0
 19 36  1  0  0  0  0
 19 37  1  0  0  0  0
 21 38  1  0  0  0  0
 24 39  1  0  0  0  0
 25 40  1  0  0  0  0
 25 41  1  0  0  0  0
 25 42  1  0  0  0  0
M  END
> <Name>
32

> <IC50[uM]>
0.11

$$$$
32
  -OEChem-05192314333D
 Structure written by MMmdl.
 42 45  0     1  0  0  0  0  0999 V2000
   -6.3767   12.3649  -12.0150 C   0  0  3  0  0  0  0  0  0  0  0  0
   -6.5300   11.8201  -10.7355 C   0  0  0  0  0  0  0  0  0  0  0  0
   -7.7235   10.5758  -13.0283 C   0  0  0  0  0  0  0  0  0  0  0  0
   -6.9848   11.7731  -13.1297 C   0  0  0  0  0  0  0  0  0  0  0  0
   -7.8178   10.0121  -11.7526 C   0  0  0  0  0  0  0  0  0  0  0  0
   -7.2522   10.6205  -10.6098 C   0  0  0  0  0  0  0  0  0  0  0  0
   -7.6101    9.7439   -9.5117 C   0  0  0  0  0  0  0  0  0  0  0  0
   -8.2784    8.7249   -9.9778 N   0  0  0  0  0  0  0  0  0  0  0  0
   -8.4134    8.8570  -11.2978 N   0  0  0  0  0  0  0  0  0  0  0  0
   -7.3337    9.8935   -8.0288 C   0  0  0  0  0  0  0  0  0  0  0  0
   -4.4165   13.6746  -11.4876 N   0  0  0  0  0  0  0  0  0  0  0  0
   -5.5534   13.6276  -12.1919 C   0  0  0  0  0  0  0  0  0  0  0  0
   -5.9234   14.5178  -12.9405 O   0  0  0  0  0  0  0  0  0  0  0  0
   -5.9640   10.4853   -7.7356 C   0  0  0  0  0  0  0  0  0  0  0  0
   -4.8116    9.7640   -8.0536 C   0  0  0  0  0  0  0  0  0  0  0  0
   -3.5500   10.3127   -7.8058 C   0  0  0  0  0  0  0  0  0  0  0  0
   -3.4411   11.5873   -7.2364 C   0  0  0  0  0  0  0  0  0  0  0  0
   -4.5925   12.3023   -6.9174 C   0  0  0  0  0  0  0  0  0  0  0  0
   -5.8510   11.7510   -7.1622 C   0  0  0  0  0  0  0  0  0  0  0  0
   -2.0968   12.1763   -6.9669 C   0  0  0  0  0  0  0  0  0  0  0  0
   -1.7702   13.4221   -6.4317 C   0  0  0  0  0  0  0  0  0  0  0  0
   -0.4283   13.4864   -6.3849 N   0  0  0  0  0  0  0  0  0  0  0  0
    0.1730   12.4042   -6.8287 N   0  0  0  0  0  0  0  0  0  0  0  0
   -0.8019   11.5974   -7.2024 C   0  0  0  0  0  0  0  0  0  0  0  0
    0.3914   14.5951   -5.9029 C   0  0  0  0  0  0  0  0  0  0  0  0
   -5.4777   11.7513  -12.1737 H   0  0  0  0  0  0  0  0  0  0  0  0
   -5.5219   11.6382  -10.3348 H   0  0  0  0  0  0  0  0  0  0  0  0
   -7.0394   12.5745  -10.1179 H   0  0  0  0  0  0  0  0  0  0  0  0
   -8.1905   10.1197  -13.8887 H   0  0  0  0  0  0  0  0  0  0  0  0
   -6.8851   12.2475  -14.0948 H   0  0  0  0  0  0  0  0  0  0  0  0
   -8.0369    9.6092   -7.2600 H   0  0  0  0  0  0  0  0  0  0  0  0
   -3.9109   14.5222  -11.6486 H   0  0  0  0  0  0  0  0  0  0  0  0
   -5.2907   15.2263  -12.9277 H   0  0  0  0  0  0  0  0  0  0  0  0
   -4.8950    8.7804   -8.4918 H   0  0  0  0  0  0  0  0  0  0  0  0
   -2.6597    9.7538   -8.0534 H   0  0  0  0  0  0  0  0  0  0  0  0
   -4.5115   13.2861   -6.4794 H   0  0  0  0  0  0  0  0  0  0  0  0
   -6.7408   12.3071   -6.9064 H   0  0  0  0  0  0  0  0  0  0  0  0
   -2.4626   14.1882   -6.1155 H   0  0  0  0  0  0  0  0  0  0  0  0
   -0.6459   10.6195   -7.6335 H   0  0  0  0  0  0  0  0  0  0  0  0
    1.4555   14.3315   -5.9935 H   0  0  0  0  0  0  0  0  0  0  0  0
    0.1837   15.4928   -6.5038 H   0  0  0  0  0  0  0  0  0  0  0  0
    0.1522   14.7964   -4.8483 H   0  0  0  0  0  0  0  0  0  0  0  0
  1  2  1  0  0  0  0
  1  4  1  0  0  0  0
  1 12  1  0  0  0  0
  2  6  1  0  0  0  0
  3  4  2  0  0  0  0
  3  5  1  0  0  0  0
  5  6  2  0  0  0  0
  5  9  1  0  0  0  0
  6  7  1  0  0  0  0
  7  8  1  0  0  0  0
  7 10  2  3  0  0  0
  8  9  2  0  0  0  0
 10 14  1  0  0  0  0
 11 12  2  0  0  0  0
 12 13  1  0  0  0  0
 14 15  2  0  0  0  0
 14 19  1  0  0  0  0
 15 16  1  0  0  0  0
 16 17  2  0  0  0  0
 17 18  1  0  0  0  0
 17 20  1  0  0  0  0
 18 19  2  0  0  0  0
 20 21  2  0  0  0  0
 20 24  1  0  0  0  0
 21 22  1  0  0  0  0
 22 23  1  0  0  0  0
 22 25  1  0  0  0  0
 23 24  2  0  0  0  0
  1 26  1  0  0  0  0
  2 27  1  0  0  0  0
  2 28  1  0  0  0  0
  3 29  1  0  0  0  0
  4 30  1  0  0  0  0
 10 31  1  0  0  0  0
 11 32  1  0  0  0  0
 13 33  1  0  0  0  0
 15 34  1  0  0  0  0
 16 35  1  0  0  0  0
 18 36  1  0  0  0  0
 19 37  1  0  0  0  0
 21 38  1  0  0  0  0
 24 39  1  0  0  0  0
 25 40  1  0  0  0  0
 25 41  1  0  0  0  0
 25 42  1  0  0  0  0
M  END
> <Name>
32

> <IC50[uM]>
0.11

$$$$
32
  -OEChem-05192314333D
 Structure written by MMmdl.
 42 45  0     1  0  0  0  0  0999 V2000
   -6.3767   12.3649  -12.0150 C   0  0  0  0  0  0  0  0  0  0  0  0
   -6.5300   11.8201  -10.7355 C   0  0  0  0  0  0  0  0  0  0  0  0
   -7.7235   10.5758  -13.0283 C   0  0  0  0  0  0  0  0  0  0  0  0
   -6.9848   11.7731  -13.1297 C   0  0  0  0  0  0  0  0  0  0  0  0
   -7.8178   10.0121  -11.7526 C   0  0  0  0  0  0  0  0  0  0  0  0
   -7.2522   10.6205  -10.6098 C   0  0  3  0  0  0  0  0  0  0  0  0
   -7.6101    9.7439   -9.5117 C   0  0  0  0  0  0  0  0  0  0  0  0
   -8.2784    8.7249   -9.9778 N   0  0  0  0  0  0  0  0  0  0  0  0
   -8.4134    8.8570  -11.2978 N   0  0  0  0  0  0  0  0  0  0  0  0
   -7.3337    9.8935   -8.0288 C   0  0  0  0  0  0  0  0  0  0  0  0
   -4.4165   13.6746  -11.4876 N   0  0  0  0  0  0  0  0  0  0  0  0
   -5.5534   13.6276  -12.1919 C   0  0  0  0  0  0  0  0  0  0  0  0
   -5.9234   14.5178  -12.9405 O   0  0  0  0  0  0  0  0  0  0  0  0
   -5.9640   10.4853   -7.7356 C   0  0  0  0  0  0  0  0  0  0  0  0
   -4.8116    9.7640   -8.0536 C   0  0  0  0  0  0  0  0  0  0  0  0
   -3.5500   10.3127   -7.8058 C   0  0  0  0  0  0  0  0  0  0  0  0
   -3.4411   11.5873   -7.2364 C   0  0  0  0  0  0  0  0  0  0  0  0
   -4.5925   12.3023   -6.9174 C   0  0  0  0  0  0  0  0  0  0  0  0
   -5.8510   11.7510   -7.1622 C   0  0  0  0  0  0  0  0  0  0  0  0
   -2.0968   12.1763   -6.9669 C   0  0  0  0  0  0  0  0  0  0  0  0
   -1.7702   13.4221   -6.4317 C   0  0  0  0  0  0  0  0  0  0  0  0
   -0.4283   13.4864   -6.3849 N   0  0  0  0  0  0  0  0  0  0  0  0
    0.1730   12.4042   -6.8287 N   0  0  0  0  0  0  0  0  0  0  0  0
   -0.8019   11.5974   -7.2024 C   0  0  0  0  0  0  0  0  0  0  0  0
    0.3914   14.5951   -5.9029 C   0  0  0  0  0  0  0  0  0  0  0  0
   -5.5219   11.6382  -10.3348 H   0  0  0  0  0  0  0  0  0  0  0  0
   -7.0394   12.5745  -10.1179 H   0  0  0  0  0  0  0  0  0  0  0  0
   -8.1905   10.1197  -13.8887 H   0  0  0  0  0  0  0  0  0  0  0  0
   -6.8851   12.2475  -14.0948 H   0  0  0  0  0  0  0  0  0  0  0  0
   -8.1785   11.1934  -10.4554 H   0  0  0  0  0  0  0  0  0  0  0  0
   -8.0369    9.6092   -7.2600 H   0  0  0  0  0  0  0  0  0  0  0  0
   -3.9109   14.5222  -11.6486 H   0  0  0  0  0  0  0  0  0  0  0  0
   -5.2907   15.2263  -12.9277 H   0  0  0  0  0  0  0  0  0  0  0  0
   -4.8950    8.7804   -8.4918 H   0  0  0  0  0  0  0  0  0  0  0  0
   -2.6597    9.7538   -8.0534 H   0  0  0  0  0  0  0  0  0  0  0  0
   -4.5115   13.2861   -6.4794 H   0  0  0  0  0  0  0  0  0  0  0  0
   -6.7408   12.3071   -6.9064 H   0  0  0  0  0  0  0  0  0  0  0  0
   -2.4626   14.1882   -6.1155 H   0  0  0  0  0  0  0  0  0  0  0  0
   -0.6459   10.6195   -7.6335 H   0  0  0  0  0  0  0  0  0  0  0  0
    1.4555   14.3315   -5.9935 H   0  0  0  0  0  0  0  0  0  0  0  0
    0.1837   15.4928   -6.5038 H   0  0  0  0  0  0  0  0  0  0  0  0
    0.1522   14.7964   -4.8483 H   0  0  0  0  0  0  0  0  0  0  0  0
  1  2  1  0  0  0  0
  1  4  2  0  0  0  0
  1 12  1  0  0  0  0
  2  6  1  0  0  0  0
  3  4  1  0  0  0  0
  3  5  2  0  0  0  0
  5  6  1  0  0  0  0
  5  9  1  0  0  0  0
  6  7  1  0  0  0  0
  7  8  1  0  0  0  0
  7 10  2  3  0  0  0
  8  9  2  0  0  0  0
 10 14  1  0  0  0  0
 11 12  2  0  0  0  0
 12 13  1  0  0  0  0
 14 15  2  0  0  0  0
 14 19  1  0  0  0  0
 15 16  1  0  0  0  0
 16 17  2  0  0  0  0
 17 18  1  0  0  0  0
 17 20  1  0  0  0  0
 18 19  2  0  0  0  0
 20 21  2  0  0  0  0
 20 24  1  0  0  0  0
 21 22  1  0  0  0  0
 22 23  1  0  0  0  0
 22 25  1  0  0  0  0
 23 24  2  0  0  0  0
  2 26  1  0  0  0  0
  2 27  1  0  0  0  0
  3 28  1  0  0  0  0
  4 29  1  0  0  0  0
  6 30  1  0  0  0  0
 10 31  1  0  0  0  0
 11 32  1  0  0  0  0
 13 33  1  0  0  0  0
 15 34  1  0  0  0  0
 16 35  1  0  0  0  0
 18 36  1  0  0  0  0
 19 37  1  0  0  0  0
 21 38  1  0  0  0  0
 24 39  1  0  0  0  0
 25 40  1  0  0  0  0
 25 41  1  0  0  0  0
 25 42  1  0  0  0  0
M  END
> <Name>
32

> <IC50[uM]>
0.11

$$$$
32
  -OEChem-05192314333D
 Structure written by MMmdl.
 42 45  0     0  0  0  0  0  0999 V2000
   -6.3767   12.3649  -12.0150 C   0  0  0  0  0  0  0  0  0  0  0  0
   -6.5300   11.8201  -10.7355 C   0  0  0  0  0  0  0  0  0  0  0  0
   -7.7235   10.5758  -13.0283 C   0  0  0  0  0  0  0  0  0  0  0  0
   -6.9848   11.7731  -13.1297 C   0  0  0  0  0  0  0  0  0  0  0  0
   -7.8178   10.0121  -11.7526 C   0  0  0  0  0  0  0  0  0  0  0  0
   -7.2522   10.6205  -10.6098 C   0  0  0  0  0  0  0  0  0  0  0  0
   -7.6101    9.7439   -9.5117 C   0  0  0  0  0  0  0  0  0  0  0  0
   -8.2784    8.7249   -9.9778 N   0  0  0  0  0  0  0  0  0  0  0  0
   -8.4134    8.8570  -11.2978 N   0  0  0  0  0  0  0  0  0  0  0  0
   -7.3337    9.8935   -8.0288 C   0  0  0  0  0  0  0  0  0  0  0  0
   -4.4165   13.6746  -11.4876 N   0  0  0  0  0  0  0  0  0  0  0  0
   -5.5534   13.6276  -12.1919 C   0  0  0  0  0  0  0  0  0  0  0  0
   -5.9234   14.5178  -12.9405 O   0  0  0  0  0  0  0  0  0  0  0  0
   -5.9640   10.4853   -7.7356 C   0  0  0  0  0  0  0  0  0  0  0  0
   -4.8116    9.7640   -8.0536 C   0  0  0  0  0  0  0  0  0  0  0  0
   -3.5500   10.3127   -7.8058 C   0  0  0  0  0  0  0  0  0  0  0  0
   -3.4411   11.5873   -7.2364 C   0  0  0  0  0  0  0  0  0  0  0  0
   -4.5925   12.3023   -6.9174 C   0  0  0  0  0  0  0  0  0  0  0  0
   -5.8510   11.7510   -7.1622 C   0  0  0  0  0  0  0  0  0  0  0  0
   -2.0968   12.1763   -6.9669 C   0  0  0  0  0  0  0  0  0  0  0  0
   -1.7702   13.4221   -6.4317 C   0  0  0  0  0  0  0  0  0  0  0  0
   -0.4283   13.4864   -6.3849 N   0  0  0  0  0  0  0  0  0  0  0  0
    0.1730   12.4042   -6.8287 N   0  0  0  0  0  0  0  0  0  0  0  0
   -0.8019   11.5974   -7.2024 C   0  0  0  0  0  0  0  0  0  0  0  0
    0.3914   14.5951   -5.9029 C   0  0  0  0  0  0  0  0  0  0  0  0
   -5.5219   11.6382  -10.3348 H   0  0  0  0  0  0  0  0  0  0  0  0
   -7.0394   12.5745  -10.1179 H   0  0  0  0  0  0  0  0  0  0  0  0
   -8.7452   10.7816  -13.3800 H   0  0  0  0  0  0  0  0  0  0  0  0
   -7.2510    9.8336  -13.6885 H   0  0  0  0  0  0  0  0  0  0  0  0
   -6.8851   12.2475  -14.0948 H   0  0  0  0  0  0  0  0  0  0  0  0
   -8.0369    9.6092   -7.2600 H   0  0  0  0  0  0  0  0  0  0  0  0
   -3.9109   14.5222  -11.6486 H   0  0  0  0  0  0  0  0  0  0  0  0
   -5.2907   15.2263  -12.9277 H   0  0  0  0  0  0  0  0  0  0  0  0
   -4.8950    8.7804   -8.4918 H   0  0  0  0  0  0  0  0  0  0  0  0
   -2.6597    9.7538   -8.0534 H   0  0  0  0  0  0  0  0  0  0  0  0
   -4.5115   13.2861   -6.4794 H   0  0  0  0  0  0  0  0  0  0  0  0
   -6.7408   12.3071   -6.9064 H   0  0  0  0  0  0  0  0  0  0  0  0
   -2.4626   14.1882   -6.1155 H   0  0  0  0  0  0  0  0  0  0  0  0
   -0.6459   10.6195   -7.6335 H   0  0  0  0  0  0  0  0  0  0  0  0
    1.4555   14.3315   -5.9935 H   0  0  0  0  0  0  0  0  0  0  0  0
    0.1837   15.4928   -6.5038 H   0  0  0  0  0  0  0  0  0  0  0  0
    0.1522   14.7964   -4.8483 H   0  0  0  0  0  0  0  0  0  0  0  0
  1  2  1  0  0  0  0
  1  4  2  0  0  0  0
  1 12  1  0  0  0  0
  2  6  1  0  0  0  0
  3  4  1  0  0  0  0
  3  5  1  0  0  0  0
  5  6  2  0  0  0  0
  5  9  1  0  0  0  0
  6  7  1  0  0  0  0
  7  8  1  0  0  0  0
  7 10  2  3  0  0  0
  8  9  2  0  0  0  0
 10 14  1  0  0  0  0
 11 12  2  0  0  0  0
 12 13  1  0  0  0  0
 14 15  2  0  0  0  0
 14 19  1  0  0  0  0
 15 16  1  0  0  0  0
 16 17  2  0  0  0  0
 17 18  1  0  0  0  0
 17 20  1  0  0  0  0
 18 19  2  0  0  0  0
 20 21  2  0  0  0  0
 20 24  1  0  0  0  0
 21 22  1  0  0  0  0
 22 23  1  0  0  0  0
 22 25  1  0  0  0  0
 23 24  2  0  0  0  0
  2 26  1  0  0  0  0
  2 27  1  0  0  0  0
  3 28  1  0  0  0  0
  3 29  1  0  0  0  0
  4 30  1  0  0  0  0
 10 31  1  0  0  0  0
 11 32  1  0  0  0  0
 13 33  1  0  0  0  0
 15 34  1  0  0  0  0
 16 35  1  0  0  0  0
 18 36  1  0  0  0  0
 19 37  1  0  0  0  0
 21 38  1  0  0  0  0
 24 39  1  0  0  0  0
 25 40  1  0  0  0  0
 25 41  1  0  0  0  0
 25 42  1  0  0  0  0
M  END
> <Name>
32

> <IC50[uM]>
0.11

$$$$
32
  -OEChem-05192314333D
 Structure written by MMmdl.
 42 45  0     1  0  0  0  0  0999 V2000
   -6.3767   12.3649  -12.0150 C   0  0  0  0  0  0  0  0  0  0  0  0
   -6.5300   11.8201  -10.7355 C   0  0  0  0  0  0  0  0  0  0  0  0
   -7.7235   10.5758  -13.0283 C   0  0  0  0  0  0  0  0  0  0  0  0
   -6.9848   11.7731  -13.1297 C   0  0  0  0  0  0  0  0  0  0  0  0
   -7.8178   10.0121  -11.7526 C   0  0  3  0  0  0  0  0  0  0  0  0
   -7.2522   10.6205  -10.6098 C   0  0  0  0  0  0  0  0  0  0  0  0
   -7.6101    9.7439   -9.5117 C   0  0  0  0  0  0  0  0  0  0  0  0
   -8.2784    8.7249   -9.9778 N   0  0  0  0  0  0  0  0  0  0  0  0
   -8.4134    8.8570  -11.2978 N   0  0  0  0  0  0  0  0  0  0  0  0
   -7.3337    9.8935   -8.0288 C   0  0  0  0  0  0  0  0  0  0  0  0
   -4.4165   13.6746  -11.4876 N   0  0  0  0  0  0  0  0  0  0  0  0
   -5.5534   13.6276  -12.1919 C   0  0  0  0  0  0  0  0  0  0  0  0
   -5.9234   14.5178  -12.9405 O   0  0  0  0  0  0  0  0  0  0  0  0
   -5.9640   10.4853   -7.7356 C   0  0  0  0  0  0  0  0  0  0  0  0
   -4.8116    9.7640   -8.0536 C   0  0  0  0  0  0  0  0  0  0  0  0
   -3.5500   10.3127   -7.8058 C   0  0  0  0  0  0  0  0  0  0  0  0
   -3.4411   11.5873   -7.2364 C   0  0  0  0  0  0  0  0  0  0  0  0
   -4.5925   12.3023   -6.9174 C   0  0  0  0  0  0  0  0  0  0  0  0
   -5.8510   11.7510   -7.1622 C   0  0  0  0  0  0  0  0  0  0  0  0
   -2.0968   12.1763   -6.9669 C   0  0  0  0  0  0  0  0  0  0  0  0
   -1.7702   13.4221   -6.4317 C   0  0  0  0  0  0  0  0  0  0  0  0
   -0.4283   13.4864   -6.3849 N   0  0  0  0  0  0  0  0  0  0  0  0
    0.1730   12.4042   -6.8287 N   0  0  0  0  0  0  0  0  0  0  0  0
   -0.8019   11.5974   -7.2024 C   0  0  0  0  0  0  0  0  0  0  0  0
    0.3914   14.5951   -5.9029 C   0  0  0  0  0  0  0  0  0  0  0  0
   -6.1059   12.3069   -9.8697 H   0  0  0  0  0  0  0  0  0  0  0  0
   -8.1905   10.1197  -13.8887 H   0  0  0  0  0  0  0  0  0  0  0  0
   -6.8851   12.2475  -14.0948 H   0  0  0  0  0  0  0  0  0  0  0  0
   -6.8808    9.4624  -11.9250 H   0  0  0  0  0  0  0  0  0  0  0  0
   -8.1002   10.5520   -7.5942 H   0  0  0  0  0  0  0  0  0  0  0  0
   -7.3942    8.9006   -7.5592 H   0  0  0  0  0  0  0  0  0  0  0  0
   -3.9109   14.5222  -11.6486 H   0  0  0  0  0  0  0  0  0  0  0  0
   -5.2907   15.2263  -12.9277 H   0  0  0  0  0  0  0  0  0  0  0  0
   -4.8950    8.7804   -8.4918 H   0  0  0  0  0  0  0  0  0  0  0  0
   -2.6597    9.7538   -8.0534 H   0  0  0  0  0  0  0  0  0  0  0  0
   -4.5115   13.2861   -6.4794 H   0  0  0  0  0  0  0  0  0  0  0  0
   -6.7408   12.3071   -6.9064 H   0  0  0  0  0  0  0  0  0  0  0  0
   -2.4626   14.1882   -6.1155 H   0  0  0  0  0  0  0  0  0  0  0  0
   -0.6459   10.6195   -7.6335 H   0  0  0  0  0  0  0  0  0  0  0  0
    1.4555   14.3315   -5.9935 H   0  0  0  0  0  0  0  0  0  0  0  0
    0.1837   15.4928   -6.5038 H   0  0  0  0  0  0  0  0  0  0  0  0
    0.1522   14.7964   -4.8483 H   0  0  0  0  0  0  0  0  0  0  0  0
  1  2  2  0  0  0  0
  1  4  1  0  0  0  0
  1 12  1  0  0  0  0
  2  6  1  0  0  0  0
  3  4  2  0  0  0  0
  3  5  1  0  0  0  0
  5  6  1  0  0  0  0
  5  9  1  0  0  0  0
  6  7  2  0  0  0  0
  7  8  1  0  0  0  0
  7 10  1  0  0  0  0
  8  9  2  0  0  0  0
 10 14  1  0  0  0  0
 11 12  2  0  0  0  0
 12 13  1  0  0  0  0
 14 15  2  0  0  0  0
 14 19  1  0  0  0  0
 15 16  1  0  0  0  0
 16 17  2  0  0  0  0
 17 18  1  0  0  0  0
 17 20  1  0  0  0  0
 18 19  2  0  0  0  0
 20 21  2  0  0  0  0
 20 24  1  0  0  0  0
 21 22  1  0  0  0  0
 22 23  1  0  0  0  0
 22 25  1  0  0  0  0
 23 24  2  0  0  0  0
  2 26  1  0  0  0  0
  3 27  1  0  0  0  0
  4 28  1  0  0  0  0
  5 29  1  0  0  0  0
 10 30  1  0  0  0  0
 10 31  1  0  0  0  0
 11 32  1  0  0  0  0
 13 33  1  0  0  0  0
 15 34  1  0  0  0  0
 16 35  1  0  0  0  0
 18 36  1  0  0  0  0
 19 37  1  0  0  0  0
 21 38  1  0  0  0  0
 24 39  1  0  0  0  0
 25 40  1  0  0  0  0
 25 41  1  0  0  0  0
 25 42  1  0  0  0  0
M  END
> <Name>
32

> <IC50[uM]>
0.11

$$$$
32
  -OEChem-05192314333D
 Structure written by MMmdl.
 42 45  0     0  0  0  0  0  0999 V2000
   -6.3767   12.3649  -12.0150 C   0  0  0  0  0  0  0  0  0  0  0  0
   -6.5300   11.8201  -10.7355 C   0  0  0  0  0  0  0  0  0  0  0  0
   -7.7235   10.5758  -13.0283 C   0  0  0  0  0  0  0  0  0  0  0  0
   -6.9848   11.7731  -13.1297 C   0  0  0  0  0  0  0  0  0  0  0  0
   -7.8178   10.0121  -11.7526 C   0  0  0  0  0  0  0  0  0  0  0  0
   -7.2522   10.6205  -10.6098 C   0  0  0  0  0  0  0  0  0  0  0  0
   -7.6101    9.7439   -9.5117 C   0  0  0  0  0  0  0  0  0  0  0  0
   -8.2784    8.7249   -9.9778 N   0  0  0  0  0  0  0  0  0  0  0  0
   -8.4134    8.8570  -11.2978 N   0  0  0  0  0  0  0  0  0  0  0  0
   -7.3337    9.8935   -8.0288 C   0  0  0  0  0  0  0  0  0  0  0  0
   -4.4165   13.6746  -11.4876 N   0  0  0  0  0  0  0  0  0  0  0  0
   -5.5534   13.6276  -12.1919 C   0  0  0  0  0  0  0  0  0  0  0  0
   -5.9234   14.5178  -12.9405 O   0  0  0  0  0  0  0  0  0  0  0  0
   -5.9640   10.4853   -7.7356 C   0  0  0  0  0  0  0  0  0  0  0  0
   -4.8116    9.7640   -8.0536 C   0  0  0  0  0  0  0  0  0  0  0  0
   -3.5500   10.3127   -7.8058 C   0  0  0  0  0  0  0  0  0  0  0  0
   -3.4411   11.5873   -7.2364 C   0  0  0  0  0  0  0  0  0  0  0  0
   -4.5925   12.3023   -6.9174 C   0  0  0  0  0  0  0  0  0  0  0  0
   -5.8510   11.7510   -7.1622 C   0  0  0  0  0  0  0  0  0  0  0  0
   -2.0968   12.1763   -6.9669 C   0  0  0  0  0  0  0  0  0  0  0  0
   -1.7702   13.4221   -6.4317 C   0  0  0  0  0  0  0  0  0  0  0  0
   -0.4283   13.4864   -6.3849 N   0  0  0  0  0  0  0  0  0  0  0  0
    0.1730   12.4042   -6.8287 N   0  0  0  0  0  0  0  0  0  0  0  0
   -0.8019   11.5974   -7.2024 C   0  0  0  0  0  0  0  0  0  0  0  0
    0.3914   14.5951   -5.9029 C   0  0  0  0  0  0  0  0  0  0  0  0
   -6.1059   12.3069   -9.8697 H   0  0  0  0  0  0  0  0  0  0  0  0
   -8.1905   10.1197  -13.8887 H   0  0  0  0  0  0  0  0  0  0  0  0
   -7.6730   12.5260  -13.5414 H   0  0  0  0  0  0  0  0  0  0  0  0
   -6.1793   11.5781  -13.8530 H   0  0  0  0  0  0  0  0  0  0  0  0
   -8.1002   10.5520   -7.5942 H   0  0  0  0  0  0  0  0  0  0  0  0
   -7.3942    8.9006   -7.5592 H   0  0  0  0  0  0  0  0  0  0  0  0
   -3.9109   14.5222  -11.6486 H   0  0  0  0  0  0  0  0  0  0  0  0
   -5.2907   15.2263  -12.9277 H   0  0  0  0  0  0  0  0  0  0  0  0
   -4.8950    8.7804   -8.4918 H   0  0  0  0  0  0  0  0  0  0  0  0
   -2.6597    9.7538   -8.0534 H   0  0  0  0  0  0  0  0  0  0  0  0
   -4.5115   13.2861   -6.4794 H   0  0  0  0  0  0  0  0  0  0  0  0
   -6.7408   12.3071   -6.9064 H   0  0  0  0  0  0  0  0  0  0  0  0
   -2.4626   14.1882   -6.1155 H   0  0  0  0  0  0  0  0  0  0  0  0
   -0.6459   10.6195   -7.6335 H   0  0  0  0  0  0  0  0  0  0  0  0
    1.4555   14.3315   -5.9935 H   0  0  0  0  0  0  0  0  0  0  0  0
    0.1837   15.4928   -6.5038 H   0  0  0  0  0  0  0  0  0  0  0  0
    0.1522   14.7964   -4.8483 H   0  0  0  0  0  0  0  0  0  0  0  0
  1  2  2  0  0  0  0
  1  4  1  0  0  0  0
  1 12  1  0  0  0  0
  2  6  1  0  0  0  0
  3  4  1  0  0  0  0
  3  5  2  0  0  0  0
  5  6  1  0  0  0  0
  5  9  1  0  0  0  0
  6  7  2  0  0  0  0
  7  8  1  0  0  0  0
  7 10  1  0  0  0  0
  8  9  2  0  0  0  0
 10 14  1  0  0  0  0
 11 12  2  0  0  0  0
 12 13  1  0  0  0  0
 14 15  2  0  0  0  0
 14 19  1  0  0  0  0
 15 16  1  0  0  0  0
 16 17  2  0  0  0  0
 17 18  1  0  0  0  0
 17 20  1  0  0  0  0
 18 19  2  0  0  0  0
 20 21  2  0  0  0  0
 20 24  1  0  0  0  0
 21 22  1  0  0  0  0
 22 23  1  0  0  0  0
 22 25  1  0  0  0  0
 23 24  2  0  0  0  0
  2 26  1  0  0  0  0
  3 27  1  0  0  0  0
  4 28  1  0  0  0  0
  4 29  1  0  0  0  0
 10 30  1  0  0  0  0
 10 31  1  0  0  0  0
 11 32  1  0  0  0  0
 13 33  1  0  0  0  0
 15 34  1  0  0  0  0
 16 35  1  0  0  0  0
 18 36  1  0  0  0  0
 19 37  1  0  0  0  0
 21 38  1  0  0  0  0
 24 39  1  0  0  0  0
 25 40  1  0  0  0  0
 25 41  1  0  0  0  0
 25 42  1  0  0  0  0
M  END
> <Name>
32

> <IC50[uM]>
0.11

$$$$
32
  -OEChem-05192314333D
 Structure written by MMmdl.
 42 45  0     0  0  0  0  0  0999 V2000
   -6.3767   12.3649  -12.0150 C   0  0  0  0  0  0  0  0  0  0  0  0
   -6.5300   11.8201  -10.7355 C   0  0  0  0  0  0  0  0  0  0  0  0
   -7.7235   10.5758  -13.0283 C   0  0  0  0  0  0  0  0  0  0  0  0
   -6.9848   11.7731  -13.1297 C   0  0  0  0  0  0  0  0  0  0  0  0
   -7.8178   10.0121  -11.7526 C   0  0  0  0  0  0  0  0  0  0  0  0
   -7.2522   10.6205  -10.6098 C   0  0  0  0  0  0  0  0  0  0  0  0
   -7.6101    9.7439   -9.5117 C   0  0  0  0  0  0  0  0  0  0  0  0
   -8.2784    8.7249   -9.9778 N   0  0  0  0  0  0  0  0  0  0  0  0
   -8.4134    8.8570  -11.2978 N   0  0  0  0  0  0  0  0  0  0  0  0
   -7.3337    9.8935   -8.0288 C   0  0  0  0  0  0  0  0  0  0  0  0
   -4.4165   13.6746  -11.4876 N   0  0  0  0  0  0  0  0  0  0  0  0
   -5.5534   13.6276  -12.1919 C   0  0  0  0  0  0  0  0  0  0  0  0
   -5.9234   14.5178  -12.9405 O   0  0  0  0  0  0  0  0  0  0  0  0
   -5.9640   10.4853   -7.7356 C   0  0  0  0  0  0  0  0  0  0  0  0
   -4.8116    9.7640   -8.0536 C   0  0  0  0  0  0  0  0  0  0  0  0
   -3.5500   10.3127   -7.8058 C   0  0  0  0  0  0  0  0  0  0  0  0
   -3.4411   11.5873   -7.2364 C   0  0  0  0  0  0  0  0  0  0  0  0
   -4.5925   12.3023   -6.9174 C   0  0  0  0  0  0  0  0  0  0  0  0
   -5.8510   11.7510   -7.1622 C   0  0  0  0  0  0  0  0  0  0  0  0
   -2.0968   12.1763   -6.9669 C   0  0  0  0  0  0  0  0  0  0  0  0
   -1.7702   13.4221   -6.4317 C   0  0  0  0  0  0  0  0  0  0  0  0
   -0.4283   13.4864   -6.3849 N   0  0  0  0  0  0  0  0  0  0  0  0
    0.1730   12.4042   -6.8287 N   0  0  0  0  0  0  0  0  0  0  0  0
   -0.8019   11.5974   -7.2024 C   0  0  0  0  0  0  0  0  0  0  0  0
    0.3914   14.5951   -5.9029 C   0  0  0  0  0  0  0  0  0  0  0  0
   -5.5219   11.6382  -10.3348 H   0  0  0  0  0  0  0  0  0  0  0  0
   -7.0394   12.5745  -10.1179 H   0  0  0  0  0  0  0  0  0  0  0  0
   -8.1905   10.1197  -13.8887 H   0  0  0  0  0  0  0  0  0  0  0  0
   -6.8851   12.2475  -14.0948 H   0  0  0  0  0  0  0  0  0  0  0  0
   -8.1002   10.5520   -7.5942 H   0  0  0  0  0  0  0  0  0  0  0  0
   -7.3942    8.9006   -7.5592 H   0  0  0  0  0  0  0  0  0  0  0  0
   -3.9109   14.5222  -11.6486 H   0  0  0  0  0  0  0  0  0  0  0  0
   -5.2907   15.2263  -12.9277 H   0  0  0  0  0  0  0  0  0  0  0  0
   -4.8950    8.7804   -8.4918 H   0  0  0  0  0  0  0  0  0  0  0  0
   -2.6597    9.7538   -8.0534 H   0  0  0  0  0  0  0  0  0  0  0  0
   -4.5115   13.2861   -6.4794 H   0  0  0  0  0  0  0  0  0  0  0  0
   -6.7408   12.3071   -6.9064 H   0  0  0  0  0  0  0  0  0  0  0  0
   -2.4626   14.1882   -6.1155 H   0  0  0  0  0  0  0  0  0  0  0  0
   -0.6459   10.6195   -7.6335 H   0  0  0  0  0  0  0  0  0  0  0  0
    1.4555   14.3315   -5.9935 H   0  0  0  0  0  0  0  0  0  0  0  0
    0.1837   15.4928   -6.5038 H   0  0  0  0  0  0  0  0  0  0  0  0
    0.1522   14.7964   -4.8483 H   0  0  0  0  0  0  0  0  0  0  0  0
  1  2  1  0  0  0  0
  1  4  2  0  0  0  0
  1 12  1  0  0  0  0
  2  6  1  0  0  0  0
  3  4  1  0  0  0  0
  3  5  2  0  0  0  0
  5  6  1  0  0  0  0
  5  9  1  0  0  0  0
  6  7  2  0  0  0  0
  7  8  1  0  0  0  0
  7 10  1  0  0  0  0
  8  9  2  0  0  0  0
 10 14  1  0  0  0  0
 11 12  2  0  0  0  0
 12 13  1  0  0  0  0
 14 15  2  0  0  0  0
 14 19  1  0  0  0  0
 15 16  1  0  0  0  0
 16 17  2  0  0  0  0
 17 18  1  0  0  0  0
 17 20  1  0  0  0  0
 18 19  2  0  0  0  0
 20 21  2  0  0  0  0
 20 24  1  0  0  0  0
 21 22  1  0  0  0  0
 22 23  1  0  0  0  0
 22 25  1  0  0  0  0
 23 24  2  0  0  0  0
  2 26  1  0  0  0  0
  2 27  1  0  0  0  0
  3 28  1  0  0  0  0
  4 29  1  0  0  0  0
 10 30  1  0  0  0  0
 10 31  1  0  0  0  0
 11 32  1  0  0  0  0
 13 33  1  0  0  0  0
 15 34  1  0  0  0  0
 16 35  1  0  0  0  0
 18 36  1  0  0  0  0
 19 37  1  0  0  0  0
 21 38  1  0  0  0  0
 24 39  1  0  0  0  0
 25 40  1  0  0  0  0
 25 41  1  0  0  0  0
 25 42  1  0  0  0  0
M  END
> <Name>
32

> <IC50[uM]>
0.11

$$$$
32
  -OEChem-05192314333D
 Structure written by MMmdl.
 42 45  0     1  0  0  0  0  0999 V2000
   -6.3767   12.3649  -12.0150 C   0  0  0  0  0  0  0  0  0  0  0  0
   -6.5300   11.8201  -10.7355 C   0  0  0  0  0  0  0  0  0  0  0  0
   -7.7235   10.5758  -13.0283 C   0  0  0  0  0  0  0  0  0  0  0  0
   -6.9848   11.7731  -13.1297 C   0  0  0  0  0  0  0  0  0  0  0  0
   -7.8178   10.0121  -11.7526 C   0  0  0  0  0  0  0  0  0  0  0  0
   -7.2522   10.6205  -10.6098 C   0  0  3  0  0  0  0  0  0  0  0  0
   -7.6101    9.7439   -9.5117 C   0  0  0  0  0  0  0  0  0  0  0  0
   -8.2784    8.7249   -9.9778 N   0  0  0  0  0  0  0  0  0  0  0  0
   -8.4134    8.8570  -11.2978 N   0  0  0  0  0  0  0  0  0  0  0  0
   -7.3337    9.8935   -8.0288 C   0  0  0  0  0  0  0  0  0  0  0  0
   -4.4165   13.6746  -11.4876 N   0  0  0  0  0  0  0  0  0  0  0  0
   -5.5534   13.6276  -12.1919 C   0  0  0  0  0  0  0  0  0  0  0  0
   -5.9234   14.5178  -12.9405 O   0  0  0  0  0  0  0  0  0  0  0  0
   -5.9640   10.4853   -7.7356 C   0  0  0  0  0  0  0  0  0  0  0  0
   -4.8116    9.7640   -8.0536 C   0  0  0  0  0  0  0  0  0  0  0  0
   -3.5500   10.3127   -7.8058 C   0  0  0  0  0  0  0  0  0  0  0  0
   -3.4411   11.5873   -7.2364 C   0  0  0  0  0  0  0  0  0  0  0  0
   -4.5925   12.3023   -6.9174 C   0  0  0  0  0  0  0  0  0  0  0  0
   -5.8510   11.7510   -7.1622 C   0  0  0  0  0  0  0  0  0  0  0  0
   -2.0968   12.1763   -6.9669 C   0  0  0  0  0  0  0  0  0  0  0  0
   -1.7702   13.4221   -6.4317 C   0  0  0  0  0  0  0  0  0  0  0  0
   -0.4283   13.4864   -6.3849 N   0  0  0  0  0  0  0  0  0  0  0  0
    0.1730   12.4042   -6.8287 N   0  0  0  0  0  0  0  0  0  0  0  0
   -0.8019   11.5974   -7.2024 C   0  0  0  0  0  0  0  0  0  0  0  0
    0.3914   14.5951   -5.9029 C   0  0  0  0  0  0  0  0  0  0  0  0
   -6.1059   12.3069   -9.8697 H   0  0  0  0  0  0  0  0  0  0  0  0
   -8.1905   10.1197  -13.8887 H   0  0  0  0  0  0  0  0  0  0  0  0
   -6.8851   12.2475  -14.0948 H   0  0  0  0  0  0  0  0  0  0  0  0
   -8.1785   11.1934  -10.4554 H   0  0  0  0  0  0  0  0  0  0  0  0
   -8.6329    7.9657   -9.4320 H   0  0  0  0  0  0  0  0  0  0  0  0
   -8.0369    9.6092   -7.2600 H   0  0  0  0  0  0  0  0  0  0  0  0
   -3.9109   14.5222  -11.6486 H   0  0  0  0  0  0  0  0  0  0  0  0
   -5.2907   15.2263  -12.9277 H   0  0  0  0  0  0  0  0  0  0  0  0
   -4.8950    8.7804   -8.4918 H   0  0  0  0  0  0  0  0  0  0  0  0
   -2.6597    9.7538   -8.0534 H   0  0  0  0  0  0  0  0  0  0  0  0
   -4.5115   13.2861   -6.4794 H   0  0  0  0  0  0  0  0  0  0  0  0
   -6.7408   12.3071   -6.9064 H   0  0  0  0  0  0  0  0  0  0  0  0
   -2.4626   14.1882   -6.1155 H   0  0  0  0  0  0  0  0  0  0  0  0
   -0.6459   10.6195   -7.6335 H   0  0  0  0  0  0  0  0  0  0  0  0
    1.4555   14.3315   -5.9935 H   0  0  0  0  0  0  0  0  0  0  0  0
    0.1837   15.4928   -6.5038 H   0  0  0  0  0  0  0  0  0  0  0  0
    0.1522   14.7964   -4.8483 H   0  0  0  0  0  0  0  0  0  0  0  0
  1  2  2  0  0  0  0
  1  4  1  0  0  0  0
  1 12  1  0  0  0  0
  2  6  1  0  0  0  0
  3  4  2  0  0  0  0
  3  5  1  0  0  0  0
  5  6  1  0  0  0  0
  5  9  2  0  0  0  0
  6  7  1  0  0  0  0
  7  8  1  0  0  0  0
  7 10  2  3  0  0  0
  8  9  1  0  0  0  0
 10 14  1  0  0  0  0
 11 12  2  0  0  0  0
 12 13  1  0  0  0  0
 14 15  2  0  0  0  0
 14 19  1  0  0  0  0
 15 16  1  0  0  0  0
 16 17  2  0  0  0  0
 17 18  1  0  0  0  0
 17 20  1  0  0  0  0
 18 19  2  0  0  0  0
 20 21  2  0  0  0  0
 20 24  1  0  0  0  0
 21 22  1  0  0  0  0
 22 23  1  0  0  0  0
 22 25  1  0  0  0  0
 23 24  2  0  0  0  0
  2 26  1  0  0  0  0
  3 27  1  0  0  0  0
  4 28  1  0  0  0  0
  6 29  1  0  0  0  0
  8 30  1  0  0  0  0
 10 31  1  0  0  0  0
 11 32  1  0  0  0  0
 13 33  1  0  0  0  0
 15 34  1  0  0  0  0
 16 35  1  0  0  0  0
 18 36  1  0  0  0  0
 19 37  1  0  0  0  0
 21 38  1  0  0  0  0
 24 39  1  0  0  0  0
 25 40  1  0  0  0  0
 25 41  1  0  0  0  0
 25 42  1  0  0  0  0
M  END
> <Name>
32

> <IC50[uM]>
0.11

$$$$
32
  -OEChem-05192314333D
 Structure written by MMmdl.
 42 45  0     1  0  0  0  0  0999 V2000
   -6.3767   12.3649  -12.0150 C   0  0  0  0  0  0  0  0  0  0  0  0
   -6.5300   11.8201  -10.7355 C   0  0  0  0  0  0  0  0  0  0  0  0
   -7.7235   10.5758  -13.0283 C   0  0  0  0  0  0  0  0  0  0  0  0
   -6.9848   11.7731  -13.1297 C   0  0  0  0  0  0  0  0  0  0  0  0
   -7.8178   10.0121  -11.7526 C   0  0  0  0  0  0  0  0  0  0  0  0
   -7.2522   10.6205  -10.6098 C   0  0  0  0  0  0  0  0  0  0  0  0
   -7.6101    9.7439   -9.5117 C   0  0  0  0  0  0  0  0  0  0  0  0
   -8.2784    8.7249   -9.9778 N   0  0  0  0  0  0  0  0  0  0  0  0
   -8.4134    8.8570  -11.2978 N   0  0  0  0  0  0  0  0  0  0  0  0
   -7.3337    9.8935   -8.0288 C   0  0  0  0  0  0  0  0  0  0  0  0
   -4.4165   13.6746  -11.4876 N   0  0  0  0  0  0  0  0  0  0  0  0
   -5.5534   13.6276  -12.1919 C   0  0  0  0  0  0  0  0  0  0  0  0
   -5.9234   14.5178  -12.9405 O   0  0  0  0  0  0  0  0  0  0  0  0
   -5.9640   10.4853   -7.7356 C   0  0  0  0  0  0  0  0  0  0  0  0
   -4.8116    9.7640   -8.0536 C   0  0  0  0  0  0  0  0  0  0  0  0
   -3.5500   10.3127   -7.8058 C   0  0  0  0  0  0  0  0  0  0  0  0
   -3.4411   11.5873   -7.2364 C   0  0  0  0  0  0  0  0  0  0  0  0
   -4.5925   12.3023   -6.9174 C   0  0  0  0  0  0  0  0  0  0  0  0
   -5.8510   11.7510   -7.1622 C   0  0  0  0  0  0  0  0  0  0  0  0
   -2.0968   12.1763   -6.9669 C   0  0  0  0  0  0  0  0  0  0  0  0
   -1.7702   13.4221   -6.4317 C   0  0  0  0  0  0  0  0  0  0  0  0
   -0.4283   13.4864   -6.3849 N   0  0  3  0  0  0  0  0  0  0  0  0
    0.1730   12.4042   -6.8287 N   0  0  0  0  0  0  0  0  0  0  0  0
   -0.8019   11.5974   -7.2024 C   0  0  0  0  0  0  0  0  0  0  0  0
    0.3914   14.5951   -5.9029 C   0  0  0  0  0  0  0  0  0  0  0  0
   -6.1059   12.3069   -9.8697 H   0  0  0  0  0  0  0  0  0  0  0  0
   -8.1905   10.1197  -13.8887 H   0  0  0  0  0  0  0  0  0  0  0  0
   -6.8851   12.2475  -14.0948 H   0  0  0  0  0  0  0  0  0  0  0  0
   -8.0369    9.6092   -7.2600 H   0  0  0  0  0  0  0  0  0  0  0  0
   -3.8167   14.4716  -11.5590 H   0  0  0  0  0  0  0  0  0  0  0  0
   -4.1667   12.9127  -10.8899 H   0  0  0  0  0  0  0  0  0  0  0  0
   -5.9776   10.0292   -6.7347 H   0  0  0  0  0  0  0  0  0  0  0  0
   -4.8950    8.7804   -8.4918 H   0  0  0  0  0  0  0  0  0  0  0  0
   -2.6597    9.7538   -8.0534 H   0  0  0  0  0  0  0  0  0  0  0  0
   -4.5115   13.2861   -6.4794 H   0  0  0  0  0  0  0  0  0  0  0  0
   -6.7408   12.3071   -6.9064 H   0  0  0  0  0  0  0  0  0  0  0  0
   -2.1654   14.2245   -7.0720 H   0  0  0  0  0  0  0  0  0  0  0  0
   -2.1893   13.5208   -5.4195 H   0  0  0  0  0  0  0  0  0  0  0  0
   -0.6459   10.6195   -7.6335 H   0  0  0  0  0  0  0  0  0  0  0  0
    1.4555   14.3315   -5.9935 H   0  0  0  0  0  0  0  0  0  0  0  0
    0.1837   15.4928   -6.5038 H   0  0  0  0  0  0  0  0  0  0  0  0
    0.1522   14.7964   -4.8483 H   0  0  0  0  0  0  0  0  0  0  0  0
  1  2  2  0  0  0  0
  1  4  1  0  0  0  0
  1 12  1  0  0  0  0
  2  6  1  0  0  0  0
  3  4  2  0  0  0  0
  3  5  1  0  0  0  0
  5  6  2  0  0  0  0
  5  9  1  0  0  0  0
  6  7  1  0  0  0  0
  7  8  1  0  0  0  0
  7 10  2  3  0  0  0
  8  9  2  0  0  0  0
 10 14  1  0  0  0  0
 11 12  1  0  0  0  0
 12 13  2  0  0  0  0
 14 15  1  0  0  0  0
 14 19  1  0  0  0  0
 15 16  2  0  0  0  0
 16 17  1  0  0  0  0
 17 18  1  0  0  0  0
 17 20  2  0  0  0  0
 18 19  2  0  0  0  0
 20 21  1  0  0  0  0
 20 24  1  0  0  0  0
 21 22  1  0  0  0  0
 22 23  1  0  0  0  0
 22 25  1  0  0  0  0
 23 24  2  0  0  0  0
  2 26  1  0  0  0  0
  3 27  1  0  0  0  0
  4 28  1  0  0  0  0
 10 29  1  0  0  0  0
 11 30  1  0  0  0  0
 11 31  1  0  0  0  0
 14 32  1  0  0  0  0
 15 33  1  0  0  0  0
 16 34  1  0  0  0  0
 18 35  1  0  0  0  0
 19 36  1  0  0  0  0
 21 37  1  0  0  0  0
 21 38  1  0  0  0  0
 24 39  1  0  0  0  0
 25 40  1  0  0  0  0
 25 41  1  0  0  0  0
 25 42  1  0  0  0  0
M  END
> <Name>
32

> <IC50[uM]>
0.11

$$$$
32
  -OEChem-05192314333D
 Structure written by MMmdl.
 42 45  0     1  0  0  0  0  0999 V2000
   -6.3767   12.3649  -12.0150 C   0  0  0  0  0  0  0  0  0  0  0  0
   -6.5300   11.8201  -10.7355 C   0  0  0  0  0  0  0  0  0  0  0  0
   -7.7235   10.5758  -13.0283 C   0  0  0  0  0  0  0  0  0  0  0  0
   -6.9848   11.7731  -13.1297 C   0  0  0  0  0  0  0  0  0  0  0  0
   -7.8178   10.0121  -11.7526 C   0  0  0  0  0  0  0  0  0  0  0  0
   -7.2522   10.6205  -10.6098 C   0  0  0  0  0  0  0  0  0  0  0  0
   -7.6101    9.7439   -9.5117 C   0  0  0  0  0  0  0  0  0  0  0  0
   -8.2784    8.7249   -9.9778 N   0  0  0  0  0  0  0  0  0  0  0  0
   -8.4134    8.8570  -11.2978 N   0  0  0  0  0  0  0  0  0  0  0  0
   -7.3337    9.8935   -8.0288 C   0  0  0  0  0  0  0  0  0  0  0  0
   -4.4165   13.6746  -11.4876 N   0  0  0  0  0  0  0  0  0  0  0  0
   -5.5534   13.6276  -12.1919 C   0  0  0  0  0  0  0  0  0  0  0  0
   -5.9234   14.5178  -12.9405 O   0  0  0  0  0  0  0  0  0  0  0  0
   -5.9640   10.4853   -7.7356 C   0  0  0  0  0  0  0  0  0  0  0  0
   -4.8116    9.7640   -8.0536 C   0  0  0  0  0  0  0  0  0  0  0  0
   -3.5500   10.3127   -7.8058 C   0  0  0  0  0  0  0  0  0  0  0  0
   -3.4411   11.5873   -7.2364 C   0  0  0  0  0  0  0  0  0  0  0  0
   -4.5925   12.3023   -6.9174 C   0  0  0  0  0  0  0  0  0  0  0  0
   -5.8510   11.7510   -7.1622 C   0  0  0  0  0  0  0  0  0  0  0  0
   -2.0968   12.1763   -6.9669 C   0  0  0  0  0  0  0  0  0  0  0  0
   -1.7702   13.4221   -6.4317 C   0  0  0  0  0  0  0  0  0  0  0  0
   -0.4283   13.4864   -6.3849 N   0  0  3  0  0  0  0  0  0  0  0  0
    0.1730   12.4042   -6.8287 N   0  0  0  0  0  0  0  0  0  0  0  0
   -0.8019   11.5974   -7.2024 C   0  0  0  0  0  0  0  0  0  0  0  0
    0.3914   14.5951   -5.9029 C   0  0  0  0  0  0  0  0  0  0  0  0
   -6.1059   12.3069   -9.8697 H   0  0  0  0  0  0  0  0  0  0  0  0
   -8.1905   10.1197  -13.8887 H   0  0  0  0  0  0  0  0  0  0  0  0
   -6.8851   12.2475  -14.0948 H   0  0  0  0  0  0  0  0  0  0  0  0
   -8.0369    9.6092   -7.2600 H   0  0  0  0  0  0  0  0  0  0  0  0
   -3.8167   14.4716  -11.5590 H   0  0  0  0  0  0  0  0  0  0  0  0
   -4.1667   12.9127  -10.8899 H   0  0  0  0  0  0  0  0  0  0  0  0
   -4.8950    8.7804   -8.4918 H   0  0  0  0  0  0  0  0  0  0  0  0
   -3.0283    9.6178   -7.1313 H   0  0  0  0  0  0  0  0  0  0  0  0
   -3.0246   10.3502   -8.7715 H   0  0  0  0  0  0  0  0  0  0  0  0
   -4.5115   13.2861   -6.4794 H   0  0  0  0  0  0  0  0  0  0  0  0
   -6.7408   12.3071   -6.9064 H   0  0  0  0  0  0  0  0  0  0  0  0
   -2.1654   14.2245   -7.0720 H   0  0  0  0  0  0  0  0  0  0  0  0
   -2.1893   13.5208   -5.4195 H   0  0  0  0  0  0  0  0  0  0  0  0
   -0.6459   10.6195   -7.6335 H   0  0  0  0  0  0  0  0  0  0  0  0
    1.4555   14.3315   -5.9935 H   0  0  0  0  0  0  0  0  0  0  0  0
    0.1837   15.4928   -6.5038 H   0  0  0  0  0  0  0  0  0  0  0  0
    0.1522   14.7964   -4.8483 H   0  0  0  0  0  0  0  0  0  0  0  0
  1  2  2  0  0  0  0
  1  4  1  0  0  0  0
  1 12  1  0  0  0  0
  2  6  1  0  0  0  0
  3  4  2  0  0  0  0
  3  5  1  0  0  0  0
  5  6  2  0  0  0  0
  5  9  1  0  0  0  0
  6  7  1  0  0  0  0
  7  8  1  0  0  0  0
  7 10  2  3  0  0  0
  8  9  2  0  0  0  0
 10 14  1  0  0  0  0
 11 12  1  0  0  0  0
 12 13  2  0  0  0  0
 14 15  2  0  0  0  0
 14 19  1  0  0  0  0
 15 16  1  0  0  0  0
 16 17  1  0  0  0  0
 17 18  1  0  0  0  0
 17 20  2  0  0  0  0
 18 19  2  0  0  0  0
 20 21  1  0  0  0  0
 20 24  1  0  0  0  0
 21 22  1  0  0  0  0
 22 23  1  0  0  0  0
 22 25  1  0  0  0  0
 23 24  2  0  0  0  0
  2 26  1  0  0  0  0
  3 27  1  0  0  0  0
  4 28  1  0  0  0  0
 10 29  1  0  0  0  0
 11 30  1  0  0  0  0
 11 31  1  0  0  0  0
 15 32  1  0  0  0  0
 16 33  1  0  0  0  0
 16 34  1  0  0  0  0
 18 35  1  0  0  0  0
 19 36  1  0  0  0  0
 21 37  1  0  0  0  0
 21 38  1  0  0  0  0
 24 39  1  0  0  0  0
 25 40  1  0  0  0  0
 25 41  1  0  0  0  0
 25 42  1  0  0  0  0
M  END
> <Name>
32

> <IC50[uM]>
0.11

$$$$
32
  -OEChem-05192314333D
 Structure written by MMmdl.
 42 45  0     1  0  0  0  0  0999 V2000
   -6.3767   12.3649  -12.0150 C   0  0  0  0  0  0  0  0  0  0  0  0
   -6.5300   11.8201  -10.7355 C   0  0  0  0  0  0  0  0  0  0  0  0
   -7.7235   10.5758  -13.0283 C   0  0  0  0  0  0  0  0  0  0  0  0
   -6.9848   11.7731  -13.1297 C   0  0  0  0  0  0  0  0  0  0  0  0
   -7.8178   10.0121  -11.7526 C   0  0  0  0  0  0  0  0  0  0  0  0
   -7.2522   10.6205  -10.6098 C   0  0  0  0  0  0  0  0  0  0  0  0
   -7.6101    9.7439   -9.5117 C   0  0  0  0  0  0  0  0  0  0  0  0
   -8.2784    8.7249   -9.9778 N   0  0  0  0  0  0  0  0  0  0  0  0
   -8.4134    8.8570  -11.2978 N   0  0  0  0  0  0  0  0  0  0  0  0
   -7.3337    9.8935   -8.0288 C   0  0  0  0  0  0  0  0  0  0  0  0
   -4.4165   13.6746  -11.4876 N   0  0  0  0  0  0  0  0  0  0  0  0
   -5.5534   13.6276  -12.1919 C   0  0  0  0  0  0  0  0  0  0  0  0
   -5.9234   14.5178  -12.9405 O   0  0  0  0  0  0  0  0  0  0  0  0
   -5.9640   10.4853   -7.7356 C   0  0  0  0  0  0  0  0  0  0  0  0
   -4.8116    9.7640   -8.0536 C   0  0  0  0  0  0  0  0  0  0  0  0
   -3.5500   10.3127   -7.8058 C   0  0  0  0  0  0  0  0  0  0  0  0
   -3.4411   11.5873   -7.2364 C   0  0  0  0  0  0  0  0  0  0  0  0
   -4.5925   12.3023   -6.9174 C   0  0  0  0  0  0  0  0  0  0  0  0
   -5.8510   11.7510   -7.1622 C   0  0  0  0  0  0  0  0  0  0  0  0
   -2.0968   12.1763   -6.9669 C   0  0  0  0  0  0  0  0  0  0  0  0
   -1.7702   13.4221   -6.4317 C   0  0  0  0  0  0  0  0  0  0  0  0
   -0.4283   13.4864   -6.3849 N   0  0  3  0  0  0  0  0  0  0  0  0
    0.1730   12.4042   -6.8287 N   0  0  0  0  0  0  0  0  0  0  0  0
   -0.8019   11.5974   -7.2024 C   0  0  0  0  0  0  0  0  0  0  0  0
    0.3914   14.5951   -5.9029 C   0  0  0  0  0  0  0  0  0  0  0  0
   -6.1059   12.3069   -9.8697 H   0  0  0  0  0  0  0  0  0  0  0  0
   -8.1905   10.1197  -13.8887 H   0  0  0  0  0  0  0  0  0  0  0  0
   -6.8851   12.2475  -14.0948 H   0  0  0  0  0  0  0  0  0  0  0  0
   -8.0369    9.6092   -7.2600 H   0  0  0  0  0  0  0  0  0  0  0  0
   -3.9109   14.5222  -11.6486 H   0  0  0  0  0  0  0  0  0  0  0  0
   -5.2907   15.2263  -12.9277 H   0  0  0  0  0  0  0  0  0  0  0  0
   -5.9776   10.0292   -6.7347 H   0  0  0  0  0  0  0  0  0  0  0  0
   -4.8950    8.7804   -8.4918 H   0  0  0  0  0  0  0  0  0  0  0  0
   -2.6597    9.7538   -8.0534 H   0  0  0  0  0  0  0  0  0  0  0  0
   -4.5115   13.2861   -6.4794 H   0  0  0  0  0  0  0  0  0  0  0  0
   -6.7408   12.3071   -6.9064 H   0  0  0  0  0  0  0  0  0  0  0  0
   -2.1654   14.2245   -7.0720 H   0  0  0  0  0  0  0  0  0  0  0  0
   -2.1893   13.5208   -5.4195 H   0  0  0  0  0  0  0  0  0  0  0  0
   -0.6459   10.6195   -7.6335 H   0  0  0  0  0  0  0  0  0  0  0  0
    1.4555   14.3315   -5.9935 H   0  0  0  0  0  0  0  0  0  0  0  0
    0.1837   15.4928   -6.5038 H   0  0  0  0  0  0  0  0  0  0  0  0
    0.1522   14.7964   -4.8483 H   0  0  0  0  0  0  0  0  0  0  0  0
  1  2  2  0  0  0  0
  1  4  1  0  0  0  0
  1 12  1  0  0  0  0
  2  6  1  0  0  0  0
  3  4  2  0  0  0  0
  3  5  1  0  0  0  0
  5  6  2  0  0  0  0
  5  9  1  0  0  0  0
  6  7  1  0  0  0  0
  7  8  1  0  0  0  0
  7 10  2  3  0  0  0
  8  9  2  0  0  0  0
 10 14  1  0  0  0  0
 11 12  2  0  0  0  0
 12 13  1  0  0  0  0
 14 15  1  0  0  0  0
 14 19  1  0  0  0  0
 15 16  2  0  0  0  0
 16 17  1  0  0  0  0
 17 18  1  0  0  0  0
 17 20  2  0  0  0  0
 18 19  2  0  0  0  0
 20 21  1  0  0  0  0
 20 24  1  0  0  0  0
 21 22  1  0  0  0  0
 22 23  1  0  0  0  0
 22 25  1  0  0  0  0
 23 24  2  0  0  0  0
  2 26  1  0  0  0  0
  3 27  1  0  0  0  0
  4 28  1  0  0  0  0
 10 29  1  0  0  0  0
 11 30  1  0  0  0  0
 13 31  1  0  0  0  0
 14 32  1  0  0  0  0
 15 33  1  0  0  0  0
 16 34  1  0  0  0  0
 18 35  1  0  0  0  0
 19 36  1  0  0  0  0
 21 37  1  0  0  0  0
 21 38  1  0  0  0  0
 24 39  1  0  0  0  0
 25 40  1  0  0  0  0
 25 41  1  0  0  0  0
 25 42  1  0  0  0  0
M  END
> <Name>
32

> <IC50[uM]>
0.11

$$$$
32
  -OEChem-05192314333D
 Structure written by MMmdl.
 42 45  0     1  0  0  0  0  0999 V2000
   -6.3767   12.3649  -12.0150 C   0  0  0  0  0  0  0  0  0  0  0  0
   -6.5300   11.8201  -10.7355 C   0  0  0  0  0  0  0  0  0  0  0  0
   -7.7235   10.5758  -13.0283 C   0  0  0  0  0  0  0  0  0  0  0  0
   -6.9848   11.7731  -13.1297 C   0  0  0  0  0  0  0  0  0  0  0  0
   -7.8178   10.0121  -11.7526 C   0  0  0  0  0  0  0  0  0  0  0  0
   -7.2522   10.6205  -10.6098 C   0  0  0  0  0  0  0  0  0  0  0  0
   -7.6101    9.7439   -9.5117 C   0  0  0  0  0  0  0  0  0  0  0  0
   -8.2784    8.7249   -9.9778 N   0  0  0  0  0  0  0  0  0  0  0  0
   -8.4134    8.8570  -11.2978 N   0  0  0  0  0  0  0  0  0  0  0  0
   -7.3337    9.8935   -8.0288 C   0  0  0  0  0  0  0  0  0  0  0  0
   -4.4165   13.6746  -11.4876 N   0  0  0  0  0  0  0  0  0  0  0  0
   -5.5534   13.6276  -12.1919 C   0  0  0  0  0  0  0  0  0  0  0  0
   -5.9234   14.5178  -12.9405 O   0  0  0  0  0  0  0  0  0  0  0  0
   -5.9640   10.4853   -7.7356 C   0  0  0  0  0  0  0  0  0  0  0  0
   -4.8116    9.7640   -8.0536 C   0  0  0  0  0  0  0  0  0  0  0  0
   -3.5500   10.3127   -7.8058 C   0  0  0  0  0  0  0  0  0  0  0  0
   -3.4411   11.5873   -7.2364 C   0  0  0  0  0  0  0  0  0  0  0  0
   -4.5925   12.3023   -6.9174 C   0  0  0  0  0  0  0  0  0  0  0  0
   -5.8510   11.7510   -7.1622 C   0  0  0  0  0  0  0  0  0  0  0  0
   -2.0968   12.1763   -6.9669 C   0  0  0  0  0  0  0  0  0  0  0  0
   -1.7702   13.4221   -6.4317 C   0  0  0  0  0  0  0  0  0  0  0  0
   -0.4283   13.4864   -6.3849 N   0  0  3  0  0  0  0  0  0  0  0  0
    0.1730   12.4042   -6.8287 N   0  0  0  0  0  0  0  0  0  0  0  0
   -0.8019   11.5974   -7.2024 C   0  0  0  0  0  0  0  0  0  0  0  0
    0.3914   14.5951   -5.9029 C   0  0  0  0  0  0  0  0  0  0  0  0
   -6.1059   12.3069   -9.8697 H   0  0  0  0  0  0  0  0  0  0  0  0
   -8.1905   10.1197  -13.8887 H   0  0  0  0  0  0  0  0  0  0  0  0
   -6.8851   12.2475  -14.0948 H   0  0  0  0  0  0  0  0  0  0  0  0
   -8.0369    9.6092   -7.2600 H   0  0  0  0  0  0  0  0  0  0  0  0
   -3.9109   14.5222  -11.6486 H   0  0  0  0  0  0  0  0  0  0  0  0
   -5.2907   15.2263  -12.9277 H   0  0  0  0  0  0  0  0  0  0  0  0
   -4.8950    8.7804   -8.4918 H   0  0  0  0  0  0  0  0  0  0  0  0
   -3.0283    9.6178   -7.1313 H   0  0  0  0  0  0  0  0  0  0  0  0
   -3.0246   10.3502   -8.7715 H   0  0  0  0  0  0  0  0  0  0  0  0
   -4.5115   13.2861   -6.4794 H   0  0  0  0  0  0  0  0  0  0  0  0
   -6.7408   12.3071   -6.9064 H   0  0  0  0  0  0  0  0  0  0  0  0
   -2.1654   14.2245   -7.0720 H   0  0  0  0  0  0  0  0  0  0  0  0
   -2.1893   13.5208   -5.4195 H   0  0  0  0  0  0  0  0  0  0  0  0
   -0.6459   10.6195   -7.6335 H   0  0  0  0  0  0  0  0  0  0  0  0
    1.4555   14.3315   -5.9935 H   0  0  0  0  0  0  0  0  0  0  0  0
    0.1837   15.4928   -6.5038 H   0  0  0  0  0  0  0  0  0  0  0  0
    0.1522   14.7964   -4.8483 H   0  0  0  0  0  0  0  0  0  0  0  0
  1  2  2  0  0  0  0
  1  4  1  0  0  0  0
  1 12  1  0  0  0  0
  2  6  1  0  0  0  0
  3  4  2  0  0  0  0
  3  5  1  0  0  0  0
  5  6  2  0  0  0  0
  5  9  1  0  0  0  0
  6  7  1  0  0  0  0
  7  8  1  0  0  0  0
  7 10  2  3  0  0  0
  8  9  2  0  0  0  0
 10 14  1  0  0  0  0
 11 12  2  0  0  0  0
 12 13  1  0  0  0  0
 14 15  2  0  0  0  0
 14 19  1  0  0  0  0
 15 16  1  0  0  0  0
 16 17  1  0  0  0  0
 17 18  1  0  0  0  0
 17 20  2  0  0  0  0
 18 19  2  0  0  0  0
 20 21  1  0  0  0  0
 20 24  1  0  0  0  0
 21 22  1  0  0  0  0
 22 23  1  0  0  0  0
 22 25  1  0  0  0  0
 23 24  2  0  0  0  0
  2 26  1  0  0  0  0
  3 27  1  0  0  0  0
  4 28  1  0  0  0  0
 10 29  1  0  0  0  0
 11 30  1  0  0  0  0
 13 31  1  0  0  0  0
 15 32  1  0  0  0  0
 16 33  1  0  0  0  0
 16 34  1  0  0  0  0
 18 35  1  0  0  0  0
 19 36  1  0  0  0  0
 21 37  1  0  0  0  0
 21 38  1  0  0  0  0
 24 39  1  0  0  0  0
 25 40  1  0  0  0  0
 25 41  1  0  0  0  0
 25 42  1  0  0  0  0
M  END
> <Name>
32

> <IC50[uM]>
0.11

$$$$
32
  -OEChem-05192314333D
 Structure written by MMmdl.
 42 45  0     1  0  0  0  0  0999 V2000
   -6.3767   12.3649  -12.0150 C   0  0  3  0  0  0  0  0  0  0  0  0
   -6.5300   11.8201  -10.7355 C   0  0  0  0  0  0  0  0  0  0  0  0
   -7.7235   10.5758  -13.0283 C   0  0  0  0  0  0  0  0  0  0  0  0
   -6.9848   11.7731  -13.1297 C   0  0  0  0  0  0  0  0  0  0  0  0
   -7.8178   10.0121  -11.7526 C   0  0  0  0  0  0  0  0  0  0  0  0
   -7.2522   10.6205  -10.6098 C   0  0  0  0  0  0  0  0  0  0  0  0
   -7.6101    9.7439   -9.5117 C   0  0  0  0  0  0  0  0  0  0  0  0
   -8.2784    8.7249   -9.9778 N   0  0  0  0  0  0  0  0  0  0  0  0
   -8.4134    8.8570  -11.2978 N   0  0  0  0  0  0  0  0  0  0  0  0
   -7.3337    9.8935   -8.0288 C   0  0  0  0  0  0  0  0  0  0  0  0
   -4.4165   13.6746  -11.4876 N   0  0  0  0  0  0  0  0  0  0  0  0
   -5.5534   13.6276  -12.1919 C   0  0  0  0  0  0  0  0  0  0  0  0
   -5.9234   14.5178  -12.9405 O   0  0  0  0  0  0  0  0  0  0  0  0
   -5.9640   10.4853   -7.7356 C   0  0  0  0  0  0  0  0  0  0  0  0
   -4.8116    9.7640   -8.0536 C   0  0  0  0  0  0  0  0  0  0  0  0
   -3.5500   10.3127   -7.8058 C   0  0  0  0  0  0  0  0  0  0  0  0
   -3.4411   11.5873   -7.2364 C   0  0  0  0  0  0  0  0  0  0  0  0
   -4.5925   12.3023   -6.9174 C   0  0  0  0  0  0  0  0  0  0  0  0
   -5.8510   11.7510   -7.1622 C   0  0  0  0  0  0  0  0  0  0  0  0
   -2.0968   12.1763   -6.9669 C   0  0  0  0  0  0  0  0  0  0  0  0
   -1.7702   13.4221   -6.4317 C   0  0  0  0  0  0  0  0  0  0  0  0
   -0.4283   13.4864   -6.3849 N   0  0  3  0  0  0  0  0  0  0  0  0
    0.1730   12.4042   -6.8287 N   0  0  0  0  0  0  0  0  0  0  0  0
   -0.8019   11.5974   -7.2024 C   0  0  0  0  0  0  0  0  0  0  0  0
    0.3914   14.5951   -5.9029 C   0  0  0  0  0  0  0  0  0  0  0  0
   -5.4777   11.7513  -12.1737 H   0  0  0  0  0  0  0  0  0  0  0  0
   -6.1059   12.3069   -9.8697 H   0  0  0  0  0  0  0  0  0  0  0  0
   -8.1905   10.1197  -13.8887 H   0  0  0  0  0  0  0  0  0  0  0  0
   -6.8851   12.2475  -14.0948 H   0  0  0  0  0  0  0  0  0  0  0  0
   -8.0369    9.6092   -7.2600 H   0  0  0  0  0  0  0  0  0  0  0  0
   -3.8167   14.4716  -11.5590 H   0  0  0  0  0  0  0  0  0  0  0  0
   -4.1667   12.9127  -10.8899 H   0  0  0  0  0  0  0  0  0  0  0  0
   -4.8950    8.7804   -8.4918 H   0  0  0  0  0  0  0  0  0  0  0  0
   -2.6597    9.7538   -8.0534 H   0  0  0  0  0  0  0  0  0  0  0  0
   -4.5115   13.2861   -6.4794 H   0  0  0  0  0  0  0  0  0  0  0  0
   -6.7408   12.3071   -6.9064 H   0  0  0  0  0  0  0  0  0  0  0  0
   -2.1654   14.2245   -7.0720 H   0  0  0  0  0  0  0  0  0  0  0  0
   -2.1893   13.5208   -5.4195 H   0  0  0  0  0  0  0  0  0  0  0  0
   -0.6459   10.6195   -7.6335 H   0  0  0  0  0  0  0  0  0  0  0  0
    1.4555   14.3315   -5.9935 H   0  0  0  0  0  0  0  0  0  0  0  0
    0.1837   15.4928   -6.5038 H   0  0  0  0  0  0  0  0  0  0  0  0
    0.1522   14.7964   -4.8483 H   0  0  0  0  0  0  0  0  0  0  0  0
  1  2  1  0  0  0  0
  1  4  1  0  0  0  0
  1 12  1  0  0  0  0
  2  6  2  0  0  0  0
  3  4  2  0  0  0  0
  3  5  1  0  0  0  0
  5  6  1  0  0  0  0
  5  9  2  0  0  0  0
  6  7  1  0  0  0  0
  7  8  2  0  0  0  0
  7 10  1  0  0  0  0
  8  9  1  0  0  0  0
 10 14  2  0  0  0  0
 11 12  1  0  0  0  0
 12 13  2  0  0  0  0
 14 15  1  0  0  0  0
 14 19  1  0  0  0  0
 15 16  2  0  0  0  0
 16 17  1  0  0  0  0
 17 18  1  0  0  0  0
 17 20  2  0  0  0  0
 18 19  2  0  0  0  0
 20 21  1  0  0  0  0
 20 24  1  0  0  0  0
 21 22  1  0  0  0  0
 22 23  1  0  0  0  0
 22 25  1  0  0  0  0
 23 24  2  0  0  0  0
  1 26  1  0  0  0  0
  2 27  1  0  0  0  0
  3 28  1  0  0  0  0
  4 29  1  0  0  0  0
 10 30  1  0  0  0  0
 11 31  1  0  0  0  0
 11 32  1  0  0  0  0
 15 33  1  0  0  0  0
 16 34  1  0  0  0  0
 18 35  1  0  0  0  0
 19 36  1  0  0  0  0
 21 37  1  0  0  0  0
 21 38  1  0  0  0  0
 24 39  1  0  0  0  0
 25 40  1  0  0  0  0
 25 41  1  0  0  0  0
 25 42  1  0  0  0  0
M  END
> <Name>
32

> <IC50[uM]>
0.11

$$$$
32
  -OEChem-05192314333D
 Structure written by MMmdl.
 42 45  0     1  0  0  0  0  0999 V2000
   -6.3767   12.3649  -12.0150 C   0  0  0  0  0  0  0  0  0  0  0  0
   -6.5300   11.8201  -10.7355 C   0  0  0  0  0  0  0  0  0  0  0  0
   -7.7235   10.5758  -13.0283 C   0  0  0  0  0  0  0  0  0  0  0  0
   -6.9848   11.7731  -13.1297 C   0  0  0  0  0  0  0  0  0  0  0  0
   -7.8178   10.0121  -11.7526 C   0  0  0  0  0  0  0  0  0  0  0  0
   -7.2522   10.6205  -10.6098 C   0  0  3  0  0  0  0  0  0  0  0  0
   -7.6101    9.7439   -9.5117 C   0  0  0  0  0  0  0  0  0  0  0  0
   -8.2784    8.7249   -9.9778 N   0  0  0  0  0  0  0  0  0  0  0  0
   -8.4134    8.8570  -11.2978 N   0  0  0  0  0  0  0  0  0  0  0  0
   -7.3337    9.8935   -8.0288 C   0  0  0  0  0  0  0  0  0  0  0  0
   -4.4165   13.6746  -11.4876 N   0  0  0  0  0  0  0  0  0  0  0  0
   -5.5534   13.6276  -12.1919 C   0  0  0  0  0  0  0  0  0  0  0  0
   -5.9234   14.5178  -12.9405 O   0  0  0  0  0  0  0  0  0  0  0  0
   -5.9640   10.4853   -7.7356 C   0  0  0  0  0  0  0  0  0  0  0  0
   -4.8116    9.7640   -8.0536 C   0  0  0  0  0  0  0  0  0  0  0  0
   -3.5500   10.3127   -7.8058 C   0  0  0  0  0  0  0  0  0  0  0  0
   -3.4411   11.5873   -7.2364 C   0  0  0  0  0  0  0  0  0  0  0  0
   -4.5925   12.3023   -6.9174 C   0  0  0  0  0  0  0  0  0  0  0  0
   -5.8510   11.7510   -7.1622 C   0  0  0  0  0  0  0  0  0  0  0  0
   -2.0968   12.1763   -6.9669 C   0  0  0  0  0  0  0  0  0  0  0  0
   -1.7702   13.4221   -6.4317 C   0  0  0  0  0  0  0  0  0  0  0  0
   -0.4283   13.4864   -6.3849 N   0  0  3  0  0  0  0  0  0  0  0  0
    0.1730   12.4042   -6.8287 N   0  0  0  0  0  0  0  0  0  0  0  0
   -0.8019   11.5974   -7.2024 C   0  0  0  0  0  0  0  0  0  0  0  0
    0.3914   14.5951   -5.9029 C   0  0  0  0  0  0  0  0  0  0  0  0
   -6.1059   12.3069   -9.8697 H   0  0  0  0  0  0  0  0  0  0  0  0
   -8.1905   10.1197  -13.8887 H   0  0  0  0  0  0  0  0  0  0  0  0
   -6.8851   12.2475  -14.0948 H   0  0  0  0  0  0  0  0  0  0  0  0
   -8.1785   11.1934  -10.4554 H   0  0  0  0  0  0  0  0  0  0  0  0
   -8.0369    9.6092   -7.2600 H   0  0  0  0  0  0  0  0  0  0  0  0
   -3.8167   14.4716  -11.5590 H   0  0  0  0  0  0  0  0  0  0  0  0
   -4.1667   12.9127  -10.8899 H   0  0  0  0  0  0  0  0  0  0  0  0
   -4.8950    8.7804   -8.4918 H   0  0  0  0  0  0  0  0  0  0  0  0
   -2.6597    9.7538   -8.0534 H   0  0  0  0  0  0  0  0  0  0  0  0
   -4.5115   13.2861   -6.4794 H   0  0  0  0  0  0  0  0  0  0  0  0
   -6.7408   12.3071   -6.9064 H   0  0  0  0  0  0  0  0  0  0  0  0
   -2.1654   14.2245   -7.0720 H   0  0  0  0  0  0  0  0  0  0  0  0
   -2.1893   13.5208   -5.4195 H   0  0  0  0  0  0  0  0  0  0  0  0
   -0.6459   10.6195   -7.6335 H   0  0  0  0  0  0  0  0  0  0  0  0
    1.4555   14.3315   -5.9935 H   0  0  0  0  0  0  0  0  0  0  0  0
    0.1837   15.4928   -6.5038 H   0  0  0  0  0  0  0  0  0  0  0  0
    0.1522   14.7964   -4.8483 H   0  0  0  0  0  0  0  0  0  0  0  0
  1  2  2  0  0  0  0
  1  4  1  0  0  0  0
  1 12  1  0  0  0  0
  2  6  1  0  0  0  0
  3  4  2  0  0  0  0
  3  5  1  0  0  0  0
  5  6  1  0  0  0  0
  5  9  2  0  0  0  0
  6  7  1  0  0  0  0
  7  8  2  0  0  0  0
  7 10  1  0  0  0  0
  8  9  1  0  0  0  0
 10 14  2  0  0  0  0
 11 12  1  0  0  0  0
 12 13  2  0  0  0  0
 14 15  1  0  0  0  0
 14 19  1  0  0  0  0
 15 16  2  0  0  0  0
 16 17  1  0  0  0  0
 17 18  1  0  0  0  0
 17 20  2  0  0  0  0
 18 19  2  0  0  0  0
 20 21  1  0  0  0  0
 20 24  1  0  0  0  0
 21 22  1  0  0  0  0
 22 23  1  0  0  0  0
 22 25  1  0  0  0  0
 23 24  2  0  0  0  0
  2 26  1  0  0  0  0
  3 27  1  0  0  0  0
  4 28  1  0  0  0  0
  6 29  1  0  0  0  0
 10 30  1  0  0  0  0
 11 31  1  0  0  0  0
 11 32  1  0  0  0  0
 15 33  1  0  0  0  0
 16 34  1  0  0  0  0
 18 35  1  0  0  0  0
 19 36  1  0  0  0  0
 21 37  1  0  0  0  0
 21 38  1  0  0  0  0
 24 39  1  0  0  0  0
 25 40  1  0  0  0  0
 25 41  1  0  0  0  0
 25 42  1  0  0  0  0
M  END
> <Name>
32

> <IC50[uM]>
0.11

$$$$
32
  -OEChem-05192314333D
 Structure written by MMmdl.
 42 45  0     1  0  0  0  0  0999 V2000
   -6.3767   12.3649  -12.0150 C   0  0  0  0  0  0  0  0  0  0  0  0
   -6.5300   11.8201  -10.7355 C   0  0  0  0  0  0  0  0  0  0  0  0
   -7.7235   10.5758  -13.0283 C   0  0  0  0  0  0  0  0  0  0  0  0
   -6.9848   11.7731  -13.1297 C   0  0  0  0  0  0  0  0  0  0  0  0
   -7.8178   10.0121  -11.7526 C   0  0  0  0  0  0  0  0  0  0  0  0
   -7.2522   10.6205  -10.6098 C   0  0  0  0  0  0  0  0  0  0  0  0
   -7.6101    9.7439   -9.5117 C   0  0  0  0  0  0  0  0  0  0  0  0
   -8.2784    8.7249   -9.9778 N   0  0  0  0  0  0  0  0  0  0  0  0
   -8.4134    8.8570  -11.2978 N   0  0  0  0  0  0  0  0  0  0  0  0
   -7.3337    9.8935   -8.0288 C   0  0  0  0  0  0  0  0  0  0  0  0
   -4.4165   13.6746  -11.4876 N   0  0  0  0  0  0  0  0  0  0  0  0
   -5.5534   13.6276  -12.1919 C   0  0  0  0  0  0  0  0  0  0  0  0
   -5.9234   14.5178  -12.9405 O   0  0  0  0  0  0  0  0  0  0  0  0
   -5.9640   10.4853   -7.7356 C   0  0  0  0  0  0  0  0  0  0  0  0
   -4.8116    9.7640   -8.0536 C   0  0  0  0  0  0  0  0  0  0  0  0
   -3.5500   10.3127   -7.8058 C   0  0  0  0  0  0  0  0  0  0  0  0
   -3.4411   11.5873   -7.2364 C   0  0  0  0  0  0  0  0  0  0  0  0
   -4.5925   12.3023   -6.9174 C   0  0  0  0  0  0  0  0  0  0  0  0
   -5.8510   11.7510   -7.1622 C   0  0  0  0  0  0  0  0  0  0  0  0
   -2.0968   12.1763   -6.9669 C   0  0  0  0  0  0  0  0  0  0  0  0
   -1.7702   13.4221   -6.4317 C   0  0  0  0  0  0  0  0  0  0  0  0
   -0.4283   13.4864   -6.3849 N   0  0  3  0  0  0  0  0  0  0  0  0
    0.1730   12.4042   -6.8287 N   0  0  0  0  0  0  0  0  0  0  0  0
   -0.8019   11.5974   -7.2024 C   0  0  0  0  0  0  0  0  0  0  0  0
    0.3914   14.5951   -5.9029 C   0  0  0  0  0  0  0  0  0  0  0  0
   -6.1059   12.3069   -9.8697 H   0  0  0  0  0  0  0  0  0  0  0  0
   -8.7452   10.7816  -13.3800 H   0  0  0  0  0  0  0  0  0  0  0  0
   -7.2510    9.8336  -13.6885 H   0  0  0  0  0  0  0  0  0  0  0  0
   -6.8851   12.2475  -14.0948 H   0  0  0  0  0  0  0  0  0  0  0  0
   -8.0369    9.6092   -7.2600 H   0  0  0  0  0  0  0  0  0  0  0  0
   -3.8167   14.4716  -11.5590 H   0  0  0  0  0  0  0  0  0  0  0  0
   -4.1667   12.9127  -10.8899 H   0  0  0  0  0  0  0  0  0  0  0  0
   -4.8950    8.7804   -8.4918 H   0  0  0  0  0  0  0  0  0  0  0  0
   -2.6597    9.7538   -8.0534 H   0  0  0  0  0  0  0  0  0  0  0  0
   -4.5115   13.2861   -6.4794 H   0  0  0  0  0  0  0  0  0  0  0  0
   -6.7408   12.3071   -6.9064 H   0  0  0  0  0  0  0  0  0  0  0  0
   -2.1654   14.2245   -7.0720 H   0  0  0  0  0  0  0  0  0  0  0  0
   -2.1893   13.5208   -5.4195 H   0  0  0  0  0  0  0  0  0  0  0  0
   -0.6459   10.6195   -7.6335 H   0  0  0  0  0  0  0  0  0  0  0  0
    1.4555   14.3315   -5.9935 H   0  0  0  0  0  0  0  0  0  0  0  0
    0.1837   15.4928   -6.5038 H   0  0  0  0  0  0  0  0  0  0  0  0
    0.1522   14.7964   -4.8483 H   0  0  0  0  0  0  0  0  0  0  0  0
  1  2  1  0  0  0  0
  1  4  2  0  0  0  0
  1 12  1  0  0  0  0
  2  6  2  0  0  0  0
  3  4  1  0  0  0  0
  3  5  1  0  0  0  0
  5  6  1  0  0  0  0
  5  9  2  0  0  0  0
  6  7  1  0  0  0  0
  7  8  2  0  0  0  0
  7 10  1  0  0  0  0
  8  9  1  0  0  0  0
 10 14  2  0  0  0  0
 11 12  1  0  0  0  0
 12 13  2  0  0  0  0
 14 15  1  0  0  0  0
 14 19  1  0  0  0  0
 15 16  2  0  0  0  0
 16 17  1  0  0  0  0
 17 18  1  0  0  0  0
 17 20  2  0  0  0  0
 18 19  2  0  0  0  0
 20 21  1  0  0  0  0
 20 24  1  0  0  0  0
 21 22  1  0  0  0  0
 22 23  1  0  0  0  0
 22 25  1  0  0  0  0
 23 24  2  0  0  0  0
  2 26  1  0  0  0  0
  3 27  1  0  0  0  0
  3 28  1  0  0  0  0
  4 29  1  0  0  0  0
 10 30  1  0  0  0  0
 11 31  1  0  0  0  0
 11 32  1  0  0  0  0
 15 33  1  0  0  0  0
 16 34  1  0  0  0  0
 18 35  1  0  0  0  0
 19 36  1  0  0  0  0
 21 37  1  0  0  0  0
 21 38  1  0  0  0  0
 24 39  1  0  0  0  0
 25 40  1  0  0  0  0
 25 41  1  0  0  0  0
 25 42  1  0  0  0  0
M  END
> <Name>
32

> <IC50[uM]>
0.11

$$$$
32
  -OEChem-05192314333D
 Structure written by MMmdl.
 42 45  0     1  0  0  0  0  0999 V2000
   -6.3767   12.3649  -12.0150 C   0  0  3  0  0  0  0  0  0  0  0  0
   -6.5300   11.8201  -10.7355 C   0  0  0  0  0  0  0  0  0  0  0  0
   -7.7235   10.5758  -13.0283 C   0  0  0  0  0  0  0  0  0  0  0  0
   -6.9848   11.7731  -13.1297 C   0  0  0  0  0  0  0  0  0  0  0  0
   -7.8178   10.0121  -11.7526 C   0  0  0  0  0  0  0  0  0  0  0  0
   -7.2522   10.6205  -10.6098 C   0  0  0  0  0  0  0  0  0  0  0  0
   -7.6101    9.7439   -9.5117 C   0  0  0  0  0  0  0  0  0  0  0  0
   -8.2784    8.7249   -9.9778 N   0  0  0  0  0  0  0  0  0  0  0  0
   -8.4134    8.8570  -11.2978 N   0  0  0  0  0  0  0  0  0  0  0  0
   -7.3337    9.8935   -8.0288 C   0  0  0  0  0  0  0  0  0  0  0  0
   -4.4165   13.6746  -11.4876 N   0  0  0  0  0  0  0  0  0  0  0  0
   -5.5534   13.6276  -12.1919 C   0  0  0  0  0  0  0  0  0  0  0  0
   -5.9234   14.5178  -12.9405 O   0  0  0  0  0  0  0  0  0  0  0  0
   -5.9640   10.4853   -7.7356 C   0  0  0  0  0  0  0  0  0  0  0  0
   -4.8116    9.7640   -8.0536 C   0  0  0  0  0  0  0  0  0  0  0  0
   -3.5500   10.3127   -7.8058 C   0  0  0  0  0  0  0  0  0  0  0  0
   -3.4411   11.5873   -7.2364 C   0  0  0  0  0  0  0  0  0  0  0  0
   -4.5925   12.3023   -6.9174 C   0  0  0  0  0  0  0  0  0  0  0  0
   -5.8510   11.7510   -7.1622 C   0  0  0  0  0  0  0  0  0  0  0  0
   -2.0968   12.1763   -6.9669 C   0  0  0  0  0  0  0  0  0  0  0  0
   -1.7702   13.4221   -6.4317 C   0  0  0  0  0  0  0  0  0  0  0  0
   -0.4283   13.4864   -6.3849 N   0  0  3  0  0  0  0  0  0  0  0  0
    0.1730   12.4042   -6.8287 N   0  0  0  0  0  0  0  0  0  0  0  0
   -0.8019   11.5974   -7.2024 C   0  0  0  0  0  0  0  0  0  0  0  0
    0.3914   14.5951   -5.9029 C   0  0  0  0  0  0  0  0  0  0  0  0
   -5.4777   11.7513  -12.1737 H   0  0  0  0  0  0  0  0  0  0  0  0
   -6.1059   12.3069   -9.8697 H   0  0  0  0  0  0  0  0  0  0  0  0
   -8.1905   10.1197  -13.8887 H   0  0  0  0  0  0  0  0  0  0  0  0
   -6.8851   12.2475  -14.0948 H   0  0  0  0  0  0  0  0  0  0  0  0
   -8.0369    9.6092   -7.2600 H   0  0  0  0  0  0  0  0  0  0  0  0
   -3.9109   14.5222  -11.6486 H   0  0  0  0  0  0  0  0  0  0  0  0
   -5.2907   15.2263  -12.9277 H   0  0  0  0  0  0  0  0  0  0  0  0
   -4.8950    8.7804   -8.4918 H   0  0  0  0  0  0  0  0  0  0  0  0
   -2.6597    9.7538   -8.0534 H   0  0  0  0  0  0  0  0  0  0  0  0
   -4.5115   13.2861   -6.4794 H   0  0  0  0  0  0  0  0  0  0  0  0
   -6.7408   12.3071   -6.9064 H   0  0  0  0  0  0  0  0  0  0  0  0
   -2.1654   14.2245   -7.0720 H   0  0  0  0  0  0  0  0  0  0  0  0
   -2.1893   13.5208   -5.4195 H   0  0  0  0  0  0  0  0  0  0  0  0
   -0.6459   10.6195   -7.6335 H   0  0  0  0  0  0  0  0  0  0  0  0
    1.4555   14.3315   -5.9935 H   0  0  0  0  0  0  0  0  0  0  0  0
    0.1837   15.4928   -6.5038 H   0  0  0  0  0  0  0  0  0  0  0  0
    0.1522   14.7964   -4.8483 H   0  0  0  0  0  0  0  0  0  0  0  0
  1  2  1  0  0  0  0
  1  4  1  0  0  0  0
  1 12  1  0  0  0  0
  2  6  2  0  0  0  0
  3  4  2  0  0  0  0
  3  5  1  0  0  0  0
  5  6  1  0  0  0  0
  5  9  2  0  0  0  0
  6  7  1  0  0  0  0
  7  8  2  0  0  0  0
  7 10  1  0  0  0  0
  8  9  1  0  0  0  0
 10 14  2  0  0  0  0
 11 12  2  0  0  0  0
 12 13  1  0  0  0  0
 14 15  1  0  0  0  0
 14 19  1  0  0  0  0
 15 16  2  0  0  0  0
 16 17  1  0  0  0  0
 17 18  1  0  0  0  0
 17 20  2  0  0  0  0
 18 19  2  0  0  0  0
 20 21  1  0  0  0  0
 20 24  1  0  0  0  0
 21 22  1  0  0  0  0
 22 23  1  0  0  0  0
 22 25  1  0  0  0  0
 23 24  2  0  0  0  0
  1 26  1  0  0  0  0
  2 27  1  0  0  0  0
  3 28  1  0  0  0  0
  4 29  1  0  0  0  0
 10 30  1  0  0  0  0
 11 31  1  0  0  0  0
 13 32  1  0  0  0  0
 15 33  1  0  0  0  0
 16 34  1  0  0  0  0
 18 35  1  0  0  0  0
 19 36  1  0  0  0  0
 21 37  1  0  0  0  0
 21 38  1  0  0  0  0
 24 39  1  0  0  0  0
 25 40  1  0  0  0  0
 25 41  1  0  0  0  0
 25 42  1  0  0  0  0
M  END
> <Name>
32

> <IC50[uM]>
0.11

$$$$
32
  -OEChem-05192314333D
 Structure written by MMmdl.
 42 45  0     1  0  0  0  0  0999 V2000
   -6.3767   12.3649  -12.0150 C   0  0  0  0  0  0  0  0  0  0  0  0
   -6.5300   11.8201  -10.7355 C   0  0  0  0  0  0  0  0  0  0  0  0
   -7.7235   10.5758  -13.0283 C   0  0  0  0  0  0  0  0  0  0  0  0
   -6.9848   11.7731  -13.1297 C   0  0  0  0  0  0  0  0  0  0  0  0
   -7.8178   10.0121  -11.7526 C   0  0  0  0  0  0  0  0  0  0  0  0
   -7.2522   10.6205  -10.6098 C   0  0  3  0  0  0  0  0  0  0  0  0
   -7.6101    9.7439   -9.5117 C   0  0  0  0  0  0  0  0  0  0  0  0
   -8.2784    8.7249   -9.9778 N   0  0  0  0  0  0  0  0  0  0  0  0
   -8.4134    8.8570  -11.2978 N   0  0  0  0  0  0  0  0  0  0  0  0
   -7.3337    9.8935   -8.0288 C   0  0  0  0  0  0  0  0  0  0  0  0
   -4.4165   13.6746  -11.4876 N   0  0  0  0  0  0  0  0  0  0  0  0
   -5.5534   13.6276  -12.1919 C   0  0  0  0  0  0  0  0  0  0  0  0
   -5.9234   14.5178  -12.9405 O   0  0  0  0  0  0  0  0  0  0  0  0
   -5.9640   10.4853   -7.7356 C   0  0  0  0  0  0  0  0  0  0  0  0
   -4.8116    9.7640   -8.0536 C   0  0  0  0  0  0  0  0  0  0  0  0
   -3.5500   10.3127   -7.8058 C   0  0  0  0  0  0  0  0  0  0  0  0
   -3.4411   11.5873   -7.2364 C   0  0  0  0  0  0  0  0  0  0  0  0
   -4.5925   12.3023   -6.9174 C   0  0  0  0  0  0  0  0  0  0  0  0
   -5.8510   11.7510   -7.1622 C   0  0  0  0  0  0  0  0  0  0  0  0
   -2.0968   12.1763   -6.9669 C   0  0  0  0  0  0  0  0  0  0  0  0
   -1.7702   13.4221   -6.4317 C   0  0  0  0  0  0  0  0  0  0  0  0
   -0.4283   13.4864   -6.3849 N   0  0  3  0  0  0  0  0  0  0  0  0
    0.1730   12.4042   -6.8287 N   0  0  0  0  0  0  0  0  0  0  0  0
   -0.8019   11.5974   -7.2024 C   0  0  0  0  0  0  0  0  0  0  0  0
    0.3914   14.5951   -5.9029 C   0  0  0  0  0  0  0  0  0  0  0  0
   -6.1059   12.3069   -9.8697 H   0  0  0  0  0  0  0  0  0  0  0  0
   -8.1905   10.1197  -13.8887 H   0  0  0  0  0  0  0  0  0  0  0  0
   -6.8851   12.2475  -14.0948 H   0  0  0  0  0  0  0  0  0  0  0  0
   -8.1785   11.1934  -10.4554 H   0  0  0  0  0  0  0  0  0  0  0  0
   -8.0369    9.6092   -7.2600 H   0  0  0  0  0  0  0  0  0  0  0  0
   -3.9109   14.5222  -11.6486 H   0  0  0  0  0  0  0  0  0  0  0  0
   -5.2907   15.2263  -12.9277 H   0  0  0  0  0  0  0  0  0  0  0  0
   -4.8950    8.7804   -8.4918 H   0  0  0  0  0  0  0  0  0  0  0  0
   -2.6597    9.7538   -8.0534 H   0  0  0  0  0  0  0  0  0  0  0  0
   -4.5115   13.2861   -6.4794 H   0  0  0  0  0  0  0  0  0  0  0  0
   -6.7408   12.3071   -6.9064 H   0  0  0  0  0  0  0  0  0  0  0  0
   -2.1654   14.2245   -7.0720 H   0  0  0  0  0  0  0  0  0  0  0  0
   -2.1893   13.5208   -5.4195 H   0  0  0  0  0  0  0  0  0  0  0  0
   -0.6459   10.6195   -7.6335 H   0  0  0  0  0  0  0  0  0  0  0  0
    1.4555   14.3315   -5.9935 H   0  0  0  0  0  0  0  0  0  0  0  0
    0.1837   15.4928   -6.5038 H   0  0  0  0  0  0  0  0  0  0  0  0
    0.1522   14.7964   -4.8483 H   0  0  0  0  0  0  0  0  0  0  0  0
  1  2  2  0  0  0  0
  1  4  1  0  0  0  0
  1 12  1  0  0  0  0
  2  6  1  0  0  0  0
  3  4  2  0  0  0  0
  3  5  1  0  0  0  0
  5  6  1  0  0  0  0
  5  9  2  0  0  0  0
  6  7  1  0  0  0  0
  7  8  2  0  0  0  0
  7 10  1  0  0  0  0
  8  9  1  0  0  0  0
 10 14  2  0  0  0  0
 11 12  2  0  0  0  0
 12 13  1  0  0  0  0
 14 15  1  0  0  0  0
 14 19  1  0  0  0  0
 15 16  2  0  0  0  0
 16 17  1  0  0  0  0
 17 18  1  0  0  0  0
 17 20  2  0  0  0  0
 18 19  2  0  0  0  0
 20 21  1  0  0  0  0
 20 24  1  0  0  0  0
 21 22  1  0  0  0  0
 22 23  1  0  0  0  0
 22 25  1  0  0  0  0
 23 24  2  0  0  0  0
  2 26  1  0  0  0  0
  3 27  1  0  0  0  0
  4 28  1  0  0  0  0
  6 29  1  0  0  0  0
 10 30  1  0  0  0  0
 11 31  1  0  0  0  0
 13 32  1  0  0  0  0
 15 33  1  0  0  0  0
 16 34  1  0  0  0  0
 18 35  1  0  0  0  0
 19 36  1  0  0  0  0
 21 37  1  0  0  0  0
 21 38  1  0  0  0  0
 24 39  1  0  0  0  0
 25 40  1  0  0  0  0
 25 41  1  0  0  0  0
 25 42  1  0  0  0  0
M  END
> <Name>
32

> <IC50[uM]>
0.11

$$$$
32
  -OEChem-05192314333D
 Structure written by MMmdl.
 42 45  0     1  0  0  0  0  0999 V2000
   -6.3767   12.3649  -12.0150 C   0  0  0  0  0  0  0  0  0  0  0  0
   -6.5300   11.8201  -10.7355 C   0  0  0  0  0  0  0  0  0  0  0  0
   -7.7235   10.5758  -13.0283 C   0  0  0  0  0  0  0  0  0  0  0  0
   -6.9848   11.7731  -13.1297 C   0  0  0  0  0  0  0  0  0  0  0  0
   -7.8178   10.0121  -11.7526 C   0  0  0  0  0  0  0  0  0  0  0  0
   -7.2522   10.6205  -10.6098 C   0  0  0  0  0  0  0  0  0  0  0  0
   -7.6101    9.7439   -9.5117 C   0  0  0  0  0  0  0  0  0  0  0  0
   -8.2784    8.7249   -9.9778 N   0  0  0  0  0  0  0  0  0  0  0  0
   -8.4134    8.8570  -11.2978 N   0  0  0  0  0  0  0  0  0  0  0  0
   -7.3337    9.8935   -8.0288 C   0  0  0  0  0  0  0  0  0  0  0  0
   -4.4165   13.6746  -11.4876 N   0  0  0  0  0  0  0  0  0  0  0  0
   -5.5534   13.6276  -12.1919 C   0  0  0  0  0  0  0  0  0  0  0  0
   -5.9234   14.5178  -12.9405 O   0  0  0  0  0  0  0  0  0  0  0  0
   -5.9640   10.4853   -7.7356 C   0  0  0  0  0  0  0  0  0  0  0  0
   -4.8116    9.7640   -8.0536 C   0  0  0  0  0  0  0  0  0  0  0  0
   -3.5500   10.3127   -7.8058 C   0  0  0  0  0  0  0  0  0  0  0  0
   -3.4411   11.5873   -7.2364 C   0  0  0  0  0  0  0  0  0  0  0  0
   -4.5925   12.3023   -6.9174 C   0  0  0  0  0  0  0  0  0  0  0  0
   -5.8510   11.7510   -7.1622 C   0  0  0  0  0  0  0  0  0  0  0  0
   -2.0968   12.1763   -6.9669 C   0  0  0  0  0  0  0  0  0  0  0  0
   -1.7702   13.4221   -6.4317 C   0  0  0  0  0  0  0  0  0  0  0  0
   -0.4283   13.4864   -6.3849 N   0  0  3  0  0  0  0  0  0  0  0  0
    0.1730   12.4042   -6.8287 N   0  0  0  0  0  0  0  0  0  0  0  0
   -0.8019   11.5974   -7.2024 C   0  0  0  0  0  0  0  0  0  0  0  0
    0.3914   14.5951   -5.9029 C   0  0  0  0  0  0  0  0  0  0  0  0
   -6.1059   12.3069   -9.8697 H   0  0  0  0  0  0  0  0  0  0  0  0
   -8.7452   10.7816  -13.3800 H   0  0  0  0  0  0  0  0  0  0  0  0
   -7.2510    9.8336  -13.6885 H   0  0  0  0  0  0  0  0  0  0  0  0
   -6.8851   12.2475  -14.0948 H   0  0  0  0  0  0  0  0  0  0  0  0
   -8.0369    9.6092   -7.2600 H   0  0  0  0  0  0  0  0  0  0  0  0
   -3.9109   14.5222  -11.6486 H   0  0  0  0  0  0  0  0  0  0  0  0
   -5.2907   15.2263  -12.9277 H   0  0  0  0  0  0  0  0  0  0  0  0
   -4.8950    8.7804   -8.4918 H   0  0  0  0  0  0  0  0  0  0  0  0
   -2.6597    9.7538   -8.0534 H   0  0  0  0  0  0  0  0  0  0  0  0
   -4.5115   13.2861   -6.4794 H   0  0  0  0  0  0  0  0  0  0  0  0
   -6.7408   12.3071   -6.9064 H   0  0  0  0  0  0  0  0  0  0  0  0
   -2.1654   14.2245   -7.0720 H   0  0  0  0  0  0  0  0  0  0  0  0
   -2.1893   13.5208   -5.4195 H   0  0  0  0  0  0  0  0  0  0  0  0
   -0.6459   10.6195   -7.6335 H   0  0  0  0  0  0  0  0  0  0  0  0
    1.4555   14.3315   -5.9935 H   0  0  0  0  0  0  0  0  0  0  0  0
    0.1837   15.4928   -6.5038 H   0  0  0  0  0  0  0  0  0  0  0  0
    0.1522   14.7964   -4.8483 H   0  0  0  0  0  0  0  0  0  0  0  0
  1  2  1  0  0  0  0
  1  4  2  0  0  0  0
  1 12  1  0  0  0  0
  2  6  2  0  0  0  0
  3  4  1  0  0  0  0
  3  5  1  0  0  0  0
  5  6  1  0  0  0  0
  5  9  2  0  0  0  0
  6  7  1  0  0  0  0
  7  8  2  0  0  0  0
  7 10  1  0  0  0  0
  8  9  1  0  0  0  0
 10 14  2  0  0  0  0
 11 12  2  0  0  0  0
 12 13  1  0  0  0  0
 14 15  1  0  0  0  0
 14 19  1  0  0  0  0
 15 16  2  0  0  0  0
 16 17  1  0  0  0  0
 17 18  1  0  0  0  0
 17 20  2  0  0  0  0
 18 19  2  0  0  0  0
 20 21  1  0  0  0  0
 20 24  1  0  0  0  0
 21 22  1  0  0  0  0
 22 23  1  0  0  0  0
 22 25  1  0  0  0  0
 23 24  2  0  0  0  0
  2 26  1  0  0  0  0
  3 27  1  0  0  0  0
  3 28  1  0  0  0  0
  4 29  1  0  0  0  0
 10 30  1  0  0  0  0
 11 31  1  0  0  0  0
 13 32  1  0  0  0  0
 15 33  1  0  0  0  0
 16 34  1  0  0  0  0
 18 35  1  0  0  0  0
 19 36  1  0  0  0  0
 21 37  1  0  0  0  0
 21 38  1  0  0  0  0
 24 39  1  0  0  0  0
 25 40  1  0  0  0  0
 25 41  1  0  0  0  0
 25 42  1  0  0  0  0
M  END
> <Name>
32

> <IC50[uM]>
0.11

$$$$
32
  -OEChem-05192314333D
 Structure written by MMmdl.
 42 45  0     1  0  0  0  0  0999 V2000
   -6.3767   12.3649  -12.0150 C   0  0  0  0  0  0  0  0  0  0  0  0
   -6.5300   11.8201  -10.7355 C   0  0  0  0  0  0  0  0  0  0  0  0
   -7.7235   10.5758  -13.0283 C   0  0  0  0  0  0  0  0  0  0  0  0
   -6.9848   11.7731  -13.1297 C   0  0  0  0  0  0  0  0  0  0  0  0
   -7.8178   10.0121  -11.7526 C   0  0  3  0  0  0  0  0  0  0  0  0
   -7.2522   10.6205  -10.6098 C   0  0  0  0  0  0  0  0  0  0  0  0
   -7.6101    9.7439   -9.5117 C   0  0  0  0  0  0  0  0  0  0  0  0
   -8.2784    8.7249   -9.9778 N   0  0  0  0  0  0  0  0  0  0  0  0
   -8.4134    8.8570  -11.2978 N   0  0  0  0  0  0  0  0  0  0  0  0
   -7.3337    9.8935   -8.0288 C   0  0  0  0  0  0  0  0  0  0  0  0
   -4.4165   13.6746  -11.4876 N   0  0  0  0  0  0  0  0  0  0  0  0
   -5.5534   13.6276  -12.1919 C   0  0  0  0  0  0  0  0  0  0  0  0
   -5.9234   14.5178  -12.9405 O   0  0  0  0  0  0  0  0  0  0  0  0
   -5.9640   10.4853   -7.7356 C   0  0  0  0  0  0  0  0  0  0  0  0
   -4.8116    9.7640   -8.0536 C   0  0  0  0  0  0  0  0  0  0  0  0
   -3.5500   10.3127   -7.8058 C   0  0  0  0  0  0  0  0  0  0  0  0
   -3.4411   11.5873   -7.2364 C   0  0  0  0  0  0  0  0  0  0  0  0
   -4.5925   12.3023   -6.9174 C   0  0  0  0  0  0  0  0  0  0  0  0
   -5.8510   11.7510   -7.1622 C   0  0  0  0  0  0  0  0  0  0  0  0
   -2.0968   12.1763   -6.9669 C   0  0  0  0  0  0  0  0  0  0  0  0
   -1.7702   13.4221   -6.4317 C   0  0  0  0  0  0  0  0  0  0  0  0
   -0.4283   13.4864   -6.3849 N   0  0  3  0  0  0  0  0  0  0  0  0
    0.1730   12.4042   -6.8287 N   0  0  0  0  0  0  0  0  0  0  0  0
   -0.8019   11.5974   -7.2024 C   0  0  0  0  0  0  0  0  0  0  0  0
    0.3914   14.5951   -5.9029 C   0  0  0  0  0  0  0  0  0  0  0  0
   -6.1059   12.3069   -9.8697 H   0  0  0  0  0  0  0  0  0  0  0  0
   -8.1905   10.1197  -13.8887 H   0  0  0  0  0  0  0  0  0  0  0  0
   -6.8851   12.2475  -14.0948 H   0  0  0  0  0  0  0  0  0  0  0  0
   -6.8808    9.4624  -11.9250 H   0  0  0  0  0  0  0  0  0  0  0  0
   -8.0369    9.6092   -7.2600 H   0  0  0  0  0  0  0  0  0  0  0  0
   -3.8167   14.4716  -11.5590 H   0  0  0  0  0  0  0  0  0  0  0  0
   -4.1667   12.9127  -10.8899 H   0  0  0  0  0  0  0  0  0  0  0  0
   -4.8950    8.7804   -8.4918 H   0  0  0  0  0  0  0  0  0  0  0  0
   -2.6597    9.7538   -8.0534 H   0  0  0  0  0  0  0  0  0  0  0  0
   -4.5115   13.2861   -6.4794 H   0  0  0  0  0  0  0  0  0  0  0  0
   -6.7408   12.3071   -6.9064 H   0  0  0  0  0  0  0  0  0  0  0  0
   -2.1654   14.2245   -7.0720 H   0  0  0  0  0  0  0  0  0  0  0  0
   -2.1893   13.5208   -5.4195 H   0  0  0  0  0  0  0  0  0  0  0  0
   -0.6459   10.6195   -7.6335 H   0  0  0  0  0  0  0  0  0  0  0  0
    1.4555   14.3315   -5.9935 H   0  0  0  0  0  0  0  0  0  0  0  0
    0.1837   15.4928   -6.5038 H   0  0  0  0  0  0  0  0  0  0  0  0
    0.1522   14.7964   -4.8483 H   0  0  0  0  0  0  0  0  0  0  0  0
  1  2  2  0  0  0  0
  1  4  1  0  0  0  0
  1 12  1  0  0  0  0
  2  6  1  0  0  0  0
  3  4  2  0  0  0  0
  3  5  1  0  0  0  0
  5  6  1  0  0  0  0
  5  9  1  0  0  0  0
  6  7  2  0  0  0  0
  7  8  1  0  0  0  0
  7 10  1  0  0  0  0
  8  9  2  0  0  0  0
 10 14  2  0  0  0  0
 11 12  1  0  0  0  0
 12 13  2  0  0  0  0
 14 15  1  0  0  0  0
 14 19  1  0  0  0  0
 15 16  2  0  0  0  0
 16 17  1  0  0  0  0
 17 18  1  0  0  0  0
 17 20  2  0  0  0  0
 18 19  2  0  0  0  0
 20 21  1  0  0  0  0
 20 24  1  0  0  0  0
 21 22  1  0  0  0  0
 22 23  1  0  0  0  0
 22 25  1  0  0  0  0
 23 24  2  0  0  0  0
  2 26  1  0  0  0  0
  3 27  1  0  0  0  0
  4 28  1  0  0  0  0
  5 29  1  0  0  0  0
 10 30  1  0  0  0  0
 11 31  1  0  0  0  0
 11 32  1  0  0  0  0
 15 33  1  0  0  0  0
 16 34  1  0  0  0  0
 18 35  1  0  0  0  0
 19 36  1  0  0  0  0
 21 37  1  0  0  0  0
 21 38  1  0  0  0  0
 24 39  1  0  0  0  0
 25 40  1  0  0  0  0
 25 41  1  0  0  0  0
 25 42  1  0  0  0  0
M  END
> <Name>
32

> <IC50[uM]>
0.11

$$$$
32
  -OEChem-05192314333D
 Structure written by MMmdl.
 42 45  0     1  0  0  0  0  0999 V2000
   -6.3767   12.3649  -12.0150 C   0  0  0  0  0  0  0  0  0  0  0  0
   -6.5300   11.8201  -10.7355 C   0  0  0  0  0  0  0  0  0  0  0  0
   -7.7235   10.5758  -13.0283 C   0  0  0  0  0  0  0  0  0  0  0  0
   -6.9848   11.7731  -13.1297 C   0  0  0  0  0  0  0  0  0  0  0  0
   -7.8178   10.0121  -11.7526 C   0  0  0  0  0  0  0  0  0  0  0  0
   -7.2522   10.6205  -10.6098 C   0  0  0  0  0  0  0  0  0  0  0  0
   -7.6101    9.7439   -9.5117 C   0  0  0  0  0  0  0  0  0  0  0  0
   -8.2784    8.7249   -9.9778 N   0  0  0  0  0  0  0  0  0  0  0  0
   -8.4134    8.8570  -11.2978 N   0  0  0  0  0  0  0  0  0  0  0  0
   -7.3337    9.8935   -8.0288 C   0  0  0  0  0  0  0  0  0  0  0  0
   -4.4165   13.6746  -11.4876 N   0  0  0  0  0  0  0  0  0  0  0  0
   -5.5534   13.6276  -12.1919 C   0  0  0  0  0  0  0  0  0  0  0  0
   -5.9234   14.5178  -12.9405 O   0  0  0  0  0  0  0  0  0  0  0  0
   -5.9640   10.4853   -7.7356 C   0  0  0  0  0  0  0  0  0  0  0  0
   -4.8116    9.7640   -8.0536 C   0  0  0  0  0  0  0  0  0  0  0  0
   -3.5500   10.3127   -7.8058 C   0  0  0  0  0  0  0  0  0  0  0  0
   -3.4411   11.5873   -7.2364 C   0  0  0  0  0  0  0  0  0  0  0  0
   -4.5925   12.3023   -6.9174 C   0  0  0  0  0  0  0  0  0  0  0  0
   -5.8510   11.7510   -7.1622 C   0  0  0  0  0  0  0  0  0  0  0  0
   -2.0968   12.1763   -6.9669 C   0  0  0  0  0  0  0  0  0  0  0  0
   -1.7702   13.4221   -6.4317 C   0  0  0  0  0  0  0  0  0  0  0  0
   -0.4283   13.4864   -6.3849 N   0  0  3  0  0  0  0  0  0  0  0  0
    0.1730   12.4042   -6.8287 N   0  0  0  0  0  0  0  0  0  0  0  0
   -0.8019   11.5974   -7.2024 C   0  0  0  0  0  0  0  0  0  0  0  0
    0.3914   14.5951   -5.9029 C   0  0  0  0  0  0  0  0  0  0  0  0
   -6.1059   12.3069   -9.8697 H   0  0  0  0  0  0  0  0  0  0  0  0
   -8.1905   10.1197  -13.8887 H   0  0  0  0  0  0  0  0  0  0  0  0
   -7.6730   12.5260  -13.5414 H   0  0  0  0  0  0  0  0  0  0  0  0
   -6.1793   11.5781  -13.8530 H   0  0  0  0  0  0  0  0  0  0  0  0
   -8.0369    9.6092   -7.2600 H   0  0  0  0  0  0  0  0  0  0  0  0
   -3.8167   14.4716  -11.5590 H   0  0  0  0  0  0  0  0  0  0  0  0
   -4.1667   12.9127  -10.8899 H   0  0  0  0  0  0  0  0  0  0  0  0
   -4.8950    8.7804   -8.4918 H   0  0  0  0  0  0  0  0  0  0  0  0
   -2.6597    9.7538   -8.0534 H   0  0  0  0  0  0  0  0  0  0  0  0
   -4.5115   13.2861   -6.4794 H   0  0  0  0  0  0  0  0  0  0  0  0
   -6.7408   12.3071   -6.9064 H   0  0  0  0  0  0  0  0  0  0  0  0
   -2.1654   14.2245   -7.0720 H   0  0  0  0  0  0  0  0  0  0  0  0
   -2.1893   13.5208   -5.4195 H   0  0  0  0  0  0  0  0  0  0  0  0
   -0.6459   10.6195   -7.6335 H   0  0  0  0  0  0  0  0  0  0  0  0
    1.4555   14.3315   -5.9935 H   0  0  0  0  0  0  0  0  0  0  0  0
    0.1837   15.4928   -6.5038 H   0  0  0  0  0  0  0  0  0  0  0  0
    0.1522   14.7964   -4.8483 H   0  0  0  0  0  0  0  0  0  0  0  0
  1  2  2  0  0  0  0
  1  4  1  0  0  0  0
  1 12  1  0  0  0  0
  2  6  1  0  0  0  0
  3  4  1  0  0  0  0
  3  5  2  0  0  0  0
  5  6  1  0  0  0  0
  5  9  1  0  0  0  0
  6  7  2  0  0  0  0
  7  8  1  0  0  0  0
  7 10  1  0  0  0  0
  8  9  2  0  0  0  0
 10 14  2  0  0  0  0
 11 12  1  0  0  0  0
 12 13  2  0  0  0  0
 14 15  1  0  0  0  0
 14 19  1  0  0  0  0
 15 16  2  0  0  0  0
 16 17  1  0  0  0  0
 17 18  1  0  0  0  0
 17 20  2  0  0  0  0
 18 19  2  0  0  0  0
 20 21  1  0  0  0  0
 20 24  1  0  0  0  0
 21 22  1  0  0  0  0
 22 23  1  0  0  0  0
 22 25  1  0  0  0  0
 23 24  2  0  0  0  0
  2 26  1  0  0  0  0
  3 27  1  0  0  0  0
  4 28  1  0  0  0  0
  4 29  1  0  0  0  0
 10 30  1  0  0  0  0
 11 31  1  0  0  0  0
 11 32  1  0  0  0  0
 15 33  1  0  0  0  0
 16 34  1  0  0  0  0
 18 35  1  0  0  0  0
 19 36  1  0  0  0  0
 21 37  1  0  0  0  0
 21 38  1  0  0  0  0
 24 39  1  0  0  0  0
 25 40  1  0  0  0  0
 25 41  1  0  0  0  0
 25 42  1  0  0  0  0
M  END
> <Name>
32

> <IC50[uM]>
0.11

$$$$
32
  -OEChem-05192314333D
 Structure written by MMmdl.
 42 45  0     1  0  0  0  0  0999 V2000
   -6.3767   12.3649  -12.0150 C   0  0  0  0  0  0  0  0  0  0  0  0
   -6.5300   11.8201  -10.7355 C   0  0  0  0  0  0  0  0  0  0  0  0
   -7.7235   10.5758  -13.0283 C   0  0  0  0  0  0  0  0  0  0  0  0
   -6.9848   11.7731  -13.1297 C   0  0  0  0  0  0  0  0  0  0  0  0
   -7.8178   10.0121  -11.7526 C   0  0  0  0  0  0  0  0  0  0  0  0
   -7.2522   10.6205  -10.6098 C   0  0  0  0  0  0  0  0  0  0  0  0
   -7.6101    9.7439   -9.5117 C   0  0  0  0  0  0  0  0  0  0  0  0
   -8.2784    8.7249   -9.9778 N   0  0  0  0  0  0  0  0  0  0  0  0
   -8.4134    8.8570  -11.2978 N   0  0  0  0  0  0  0  0  0  0  0  0
   -7.3337    9.8935   -8.0288 C   0  0  0  0  0  0  0  0  0  0  0  0
   -4.4165   13.6746  -11.4876 N   0  0  0  0  0  0  0  0  0  0  0  0
   -5.5534   13.6276  -12.1919 C   0  0  0  0  0  0  0  0  0  0  0  0
   -5.9234   14.5178  -12.9405 O   0  0  0  0  0  0  0  0  0  0  0  0
   -5.9640   10.4853   -7.7356 C   0  0  0  0  0  0  0  0  0  0  0  0
   -4.8116    9.7640   -8.0536 C   0  0  0  0  0  0  0  0  0  0  0  0
   -3.5500   10.3127   -7.8058 C   0  0  0  0  0  0  0  0  0  0  0  0
   -3.4411   11.5873   -7.2364 C   0  0  0  0  0  0  0  0  0  0  0  0
   -4.5925   12.3023   -6.9174 C   0  0  0  0  0  0  0  0  0  0  0  0
   -5.8510   11.7510   -7.1622 C   0  0  0  0  0  0  0  0  0  0  0  0
   -2.0968   12.1763   -6.9669 C   0  0  0  0  0  0  0  0  0  0  0  0
   -1.7702   13.4221   -6.4317 C   0  0  0  0  0  0  0  0  0  0  0  0
   -0.4283   13.4864   -6.3849 N   0  0  3  0  0  0  0  0  0  0  0  0
    0.1730   12.4042   -6.8287 N   0  0  0  0  0  0  0  0  0  0  0  0
   -0.8019   11.5974   -7.2024 C   0  0  0  0  0  0  0  0  0  0  0  0
    0.3914   14.5951   -5.9029 C   0  0  0  0  0  0  0  0  0  0  0  0
   -5.5219   11.6382  -10.3348 H   0  0  0  0  0  0  0  0  0  0  0  0
   -7.0394   12.5745  -10.1179 H   0  0  0  0  0  0  0  0  0  0  0  0
   -8.1905   10.1197  -13.8887 H   0  0  0  0  0  0  0  0  0  0  0  0
   -6.8851   12.2475  -14.0948 H   0  0  0  0  0  0  0  0  0  0  0  0
   -8.0369    9.6092   -7.2600 H   0  0  0  0  0  0  0  0  0  0  0  0
   -3.8167   14.4716  -11.5590 H   0  0  0  0  0  0  0  0  0  0  0  0
   -4.1667   12.9127  -10.8899 H   0  0  0  0  0  0  0  0  0  0  0  0
   -4.8950    8.7804   -8.4918 H   0  0  0  0  0  0  0  0  0  0  0  0
   -2.6597    9.7538   -8.0534 H   0  0  0  0  0  0  0  0  0  0  0  0
   -4.5115   13.2861   -6.4794 H   0  0  0  0  0  0  0  0  0  0  0  0
   -6.7408   12.3071   -6.9064 H   0  0  0  0  0  0  0  0  0  0  0  0
   -2.1654   14.2245   -7.0720 H   0  0  0  0  0  0  0  0  0  0  0  0
   -2.1893   13.5208   -5.4195 H   0  0  0  0  0  0  0  0  0  0  0  0
   -0.6459   10.6195   -7.6335 H   0  0  0  0  0  0  0  0  0  0  0  0
    1.4555   14.3315   -5.9935 H   0  0  0  0  0  0  0  0  0  0  0  0
    0.1837   15.4928   -6.5038 H   0  0  0  0  0  0  0  0  0  0  0  0
    0.1522   14.7964   -4.8483 H   0  0  0  0  0  0  0  0  0  0  0  0
  1  2  1  0  0  0  0
  1  4  2  0  0  0  0
  1 12  1  0  0  0  0
  2  6  1  0  0  0  0
  3  4  1  0  0  0  0
  3  5  2  0  0  0  0
  5  6  1  0  0  0  0
  5  9  1  0  0  0  0
  6  7  2  0  0  0  0
  7  8  1  0  0  0  0
  7 10  1  0  0  0  0
  8  9  2  0  0  0  0
 10 14  2  0  0  0  0
 11 12  1  0  0  0  0
 12 13  2  0  0  0  0
 14 15  1  0  0  0  0
 14 19  1  0  0  0  0
 15 16  2  0  0  0  0
 16 17  1  0  0  0  0
 17 18  1  0  0  0  0
 17 20  2  0  0  0  0
 18 19  2  0  0  0  0
 20 21  1  0  0  0  0
 20 24  1  0  0  0  0
 21 22  1  0  0  0  0
 22 23  1  0  0  0  0
 22 25  1  0  0  0  0
 23 24  2  0  0  0  0
  2 26  1  0  0  0  0
  2 27  1  0  0  0  0
  3 28  1  0  0  0  0
  4 29  1  0  0  0  0
 10 30  1  0  0  0  0
 11 31  1  0  0  0  0
 11 32  1  0  0  0  0
 15 33  1  0  0  0  0
 16 34  1  0  0  0  0
 18 35  1  0  0  0  0
 19 36  1  0  0  0  0
 21 37  1  0  0  0  0
 21 38  1  0  0  0  0
 24 39  1  0  0  0  0
 25 40  1  0  0  0  0
 25 41  1  0  0  0  0
 25 42  1  0  0  0  0
M  END
> <Name>
32

> <IC50[uM]>
0.11

$$$$
32
  -OEChem-05192314333D
 Structure written by MMmdl.
 42 45  0     1  0  0  0  0  0999 V2000
   -6.3767   12.3649  -12.0150 C   0  0  0  0  0  0  0  0  0  0  0  0
   -6.5300   11.8201  -10.7355 C   0  0  0  0  0  0  0  0  0  0  0  0
   -7.7235   10.5758  -13.0283 C   0  0  0  0  0  0  0  0  0  0  0  0
   -6.9848   11.7731  -13.1297 C   0  0  0  0  0  0  0  0  0  0  0  0
   -7.8178   10.0121  -11.7526 C   0  0  3  0  0  0  0  0  0  0  0  0
   -7.2522   10.6205  -10.6098 C   0  0  0  0  0  0  0  0  0  0  0  0
   -7.6101    9.7439   -9.5117 C   0  0  0  0  0  0  0  0  0  0  0  0
   -8.2784    8.7249   -9.9778 N   0  0  0  0  0  0  0  0  0  0  0  0
   -8.4134    8.8570  -11.2978 N   0  0  0  0  0  0  0  0  0  0  0  0
   -7.3337    9.8935   -8.0288 C   0  0  0  0  0  0  0  0  0  0  0  0
   -4.4165   13.6746  -11.4876 N   0  0  0  0  0  0  0  0  0  0  0  0
   -5.5534   13.6276  -12.1919 C   0  0  0  0  0  0  0  0  0  0  0  0
   -5.9234   14.5178  -12.9405 O   0  0  0  0  0  0  0  0  0  0  0  0
   -5.9640   10.4853   -7.7356 C   0  0  0  0  0  0  0  0  0  0  0  0
   -4.8116    9.7640   -8.0536 C   0  0  0  0  0  0  0  0  0  0  0  0
   -3.5500   10.3127   -7.8058 C   0  0  0  0  0  0  0  0  0  0  0  0
   -3.4411   11.5873   -7.2364 C   0  0  0  0  0  0  0  0  0  0  0  0
   -4.5925   12.3023   -6.9174 C   0  0  0  0  0  0  0  0  0  0  0  0
   -5.8510   11.7510   -7.1622 C   0  0  0  0  0  0  0  0  0  0  0  0
   -2.0968   12.1763   -6.9669 C   0  0  0  0  0  0  0  0  0  0  0  0
   -1.7702   13.4221   -6.4317 C   0  0  0  0  0  0  0  0  0  0  0  0
   -0.4283   13.4864   -6.3849 N   0  0  3  0  0  0  0  0  0  0  0  0
    0.1730   12.4042   -6.8287 N   0  0  0  0  0  0  0  0  0  0  0  0
   -0.8019   11.5974   -7.2024 C   0  0  0  0  0  0  0  0  0  0  0  0
    0.3914   14.5951   -5.9029 C   0  0  0  0  0  0  0  0  0  0  0  0
   -6.1059   12.3069   -9.8697 H   0  0  0  0  0  0  0  0  0  0  0  0
   -8.1905   10.1197  -13.8887 H   0  0  0  0  0  0  0  0  0  0  0  0
   -6.8851   12.2475  -14.0948 H   0  0  0  0  0  0  0  0  0  0  0  0
   -6.8808    9.4624  -11.9250 H   0  0  0  0  0  0  0  0  0  0  0  0
   -8.0369    9.6092   -7.2600 H   0  0  0  0  0  0  0  0  0  0  0  0
   -3.9109   14.5222  -11.6486 H   0  0  0  0  0  0  0  0  0  0  0  0
   -5.2907   15.2263  -12.9277 H   0  0  0  0  0  0  0  0  0  0  0  0
   -4.8950    8.7804   -8.4918 H   0  0  0  0  0  0  0  0  0  0  0  0
   -2.6597    9.7538   -8.0534 H   0  0  0  0  0  0  0  0  0  0  0  0
   -4.5115   13.2861   -6.4794 H   0  0  0  0  0  0  0  0  0  0  0  0
   -6.7408   12.3071   -6.9064 H   0  0  0  0  0  0  0  0  0  0  0  0
   -2.1654   14.2245   -7.0720 H   0  0  0  0  0  0  0  0  0  0  0  0
   -2.1893   13.5208   -5.4195 H   0  0  0  0  0  0  0  0  0  0  0  0
   -0.6459   10.6195   -7.6335 H   0  0  0  0  0  0  0  0  0  0  0  0
    1.4555   14.3315   -5.9935 H   0  0  0  0  0  0  0  0  0  0  0  0
    0.1837   15.4928   -6.5038 H   0  0  0  0  0  0  0  0  0  0  0  0
    0.1522   14.7964   -4.8483 H   0  0  0  0  0  0  0  0  0  0  0  0
  1  2  2  0  0  0  0
  1  4  1  0  0  0  0
  1 12  1  0  0  0  0
  2  6  1  0  0  0  0
  3  4  2  0  0  0  0
  3  5  1  0  0  0  0
  5  6  1  0  0  0  0
  5  9  1  0  0  0  0
  6  7  2  0  0  0  0
  7  8  1  0  0  0  0
  7 10  1  0  0  0  0
  8  9  2  0  0  0  0
 10 14  2  0  0  0  0
 11 12  2  0  0  0  0
 12 13  1  0  0  0  0
 14 15  1  0  0  0  0
 14 19  1  0  0  0  0
 15 16  2  0  0  0  0
 16 17  1  0  0  0  0
 17 18  1  0  0  0  0
 17 20  2  0  0  0  0
 18 19  2  0  0  0  0
 20 21  1  0  0  0  0
 20 24  1  0  0  0  0
 21 22  1  0  0  0  0
 22 23  1  0  0  0  0
 22 25  1  0  0  0  0
 23 24  2  0  0  0  0
  2 26  1  0  0  0  0
  3 27  1  0  0  0  0
  4 28  1  0  0  0  0
  5 29  1  0  0  0  0
 10 30  1  0  0  0  0
 11 31  1  0  0  0  0
 13 32  1  0  0  0  0
 15 33  1  0  0  0  0
 16 34  1  0  0  0  0
 18 35  1  0  0  0  0
 19 36  1  0  0  0  0
 21 37  1  0  0  0  0
 21 38  1  0  0  0  0
 24 39  1  0  0  0  0
 25 40  1  0  0  0  0
 25 41  1  0  0  0  0
 25 42  1  0  0  0  0
M  END
> <Name>
32

> <IC50[uM]>
0.11

$$$$
32
  -OEChem-05192314333D
 Structure written by MMmdl.
 42 45  0     1  0  0  0  0  0999 V2000
   -6.3767   12.3649  -12.0150 C   0  0  0  0  0  0  0  0  0  0  0  0
   -6.5300   11.8201  -10.7355 C   0  0  0  0  0  0  0  0  0  0  0  0
   -7.7235   10.5758  -13.0283 C   0  0  0  0  0  0  0  0  0  0  0  0
   -6.9848   11.7731  -13.1297 C   0  0  0  0  0  0  0  0  0  0  0  0
   -7.8178   10.0121  -11.7526 C   0  0  0  0  0  0  0  0  0  0  0  0
   -7.2522   10.6205  -10.6098 C   0  0  0  0  0  0  0  0  0  0  0  0
   -7.6101    9.7439   -9.5117 C   0  0  0  0  0  0  0  0  0  0  0  0
   -8.2784    8.7249   -9.9778 N   0  0  0  0  0  0  0  0  0  0  0  0
   -8.4134    8.8570  -11.2978 N   0  0  0  0  0  0  0  0  0  0  0  0
   -7.3337    9.8935   -8.0288 C   0  0  0  0  0  0  0  0  0  0  0  0
   -4.4165   13.6746  -11.4876 N   0  0  0  0  0  0  0  0  0  0  0  0
   -5.5534   13.6276  -12.1919 C   0  0  0  0  0  0  0  0  0  0  0  0
   -5.9234   14.5178  -12.9405 O   0  0  0  0  0  0  0  0  0  0  0  0
   -5.9640   10.4853   -7.7356 C   0  0  0  0  0  0  0  0  0  0  0  0
   -4.8116    9.7640   -8.0536 C   0  0  0  0  0  0  0  0  0  0  0  0
   -3.5500   10.3127   -7.8058 C   0  0  0  0  0  0  0  0  0  0  0  0
   -3.4411   11.5873   -7.2364 C   0  0  0  0  0  0  0  0  0  0  0  0
   -4.5925   12.3023   -6.9174 C   0  0  0  0  0  0  0  0  0  0  0  0
   -5.8510   11.7510   -7.1622 C   0  0  0  0  0  0  0  0  0  0  0  0
   -2.0968   12.1763   -6.9669 C   0  0  0  0  0  0  0  0  0  0  0  0
   -1.7702   13.4221   -6.4317 C   0  0  0  0  0  0  0  0  0  0  0  0
   -0.4283   13.4864   -6.3849 N   0  0  3  0  0  0  0  0  0  0  0  0
    0.1730   12.4042   -6.8287 N   0  0  0  0  0  0  0  0  0  0  0  0
   -0.8019   11.5974   -7.2024 C   0  0  0  0  0  0  0  0  0  0  0  0
    0.3914   14.5951   -5.9029 C   0  0  0  0  0  0  0  0  0  0  0  0
   -6.1059   12.3069   -9.8697 H   0  0  0  0  0  0  0  0  0  0  0  0
   -8.1905   10.1197  -13.8887 H   0  0  0  0  0  0  0  0  0  0  0  0
   -7.6730   12.5260  -13.5414 H   0  0  0  0  0  0  0  0  0  0  0  0
   -6.1793   11.5781  -13.8530 H   0  0  0  0  0  0  0  0  0  0  0  0
   -8.0369    9.6092   -7.2600 H   0  0  0  0  0  0  0  0  0  0  0  0
   -3.9109   14.5222  -11.6486 H   0  0  0  0  0  0  0  0  0  0  0  0
   -5.2907   15.2263  -12.9277 H   0  0  0  0  0  0  0  0  0  0  0  0
   -4.8950    8.7804   -8.4918 H   0  0  0  0  0  0  0  0  0  0  0  0
   -2.6597    9.7538   -8.0534 H   0  0  0  0  0  0  0  0  0  0  0  0
   -4.5115   13.2861   -6.4794 H   0  0  0  0  0  0  0  0  0  0  0  0
   -6.7408   12.3071   -6.9064 H   0  0  0  0  0  0  0  0  0  0  0  0
   -2.1654   14.2245   -7.0720 H   0  0  0  0  0  0  0  0  0  0  0  0
   -2.1893   13.5208   -5.4195 H   0  0  0  0  0  0  0  0  0  0  0  0
   -0.6459   10.6195   -7.6335 H   0  0  0  0  0  0  0  0  0  0  0  0
    1.4555   14.3315   -5.9935 H   0  0  0  0  0  0  0  0  0  0  0  0
    0.1837   15.4928   -6.5038 H   0  0  0  0  0  0  0  0  0  0  0  0
    0.1522   14.7964   -4.8483 H   0  0  0  0  0  0  0  0  0  0  0  0
  1  2  2  0  0  0  0
  1  4  1  0  0  0  0
  1 12  1  0  0  0  0
  2  6  1  0  0  0  0
  3  4  1  0  0  0  0
  3  5  2  0  0  0  0
  5  6  1  0  0  0  0
  5  9  1  0  0  0  0
  6  7  2  0  0  0  0
  7  8  1  0  0  0  0
  7 10  1  0  0  0  0
  8  9  2  0  0  0  0
 10 14  2  0  0  0  0
 11 12  2  0  0  0  0
 12 13  1  0  0  0  0
 14 15  1  0  0  0  0
 14 19  1  0  0  0  0
 15 16  2  0  0  0  0
 16 17  1  0  0  0  0
 17 18  1  0  0  0  0
 17 20  2  0  0  0  0
 18 19  2  0  0  0  0
 20 21  1  0  0  0  0
 20 24  1  0  0  0  0
 21 22  1  0  0  0  0
 22 23  1  0  0  0  0
 22 25  1  0  0  0  0
 23 24  2  0  0  0  0
  2 26  1  0  0  0  0
  3 27  1  0  0  0  0
  4 28  1  0  0  0  0
  4 29  1  0  0  0  0
 10 30  1  0  0  0  0
 11 31  1  0  0  0  0
 13 32  1  0  0  0  0
 15 33  1  0  0  0  0
 16 34  1  0  0  0  0
 18 35  1  0  0  0  0
 19 36  1  0  0  0  0
 21 37  1  0  0  0  0
 21 38  1  0  0  0  0
 24 39  1  0  0  0  0
 25 40  1  0  0  0  0
 25 41  1  0  0  0  0
 25 42  1  0  0  0  0
M  END
> <Name>
32

> <IC50[uM]>
0.11

$$$$
32
  -OEChem-05192314333D
 Structure written by MMmdl.
 42 45  0     1  0  0  0  0  0999 V2000
   -6.3767   12.3649  -12.0150 C   0  0  0  0  0  0  0  0  0  0  0  0
   -6.5300   11.8201  -10.7355 C   0  0  0  0  0  0  0  0  0  0  0  0
   -7.7235   10.5758  -13.0283 C   0  0  0  0  0  0  0  0  0  0  0  0
   -6.9848   11.7731  -13.1297 C   0  0  0  0  0  0  0  0  0  0  0  0
   -7.8178   10.0121  -11.7526 C   0  0  0  0  0  0  0  0  0  0  0  0
   -7.2522   10.6205  -10.6098 C   0  0  0  0  0  0  0  0  0  0  0  0
   -7.6101    9.7439   -9.5117 C   0  0  0  0  0  0  0  0  0  0  0  0
   -8.2784    8.7249   -9.9778 N   0  0  0  0  0  0  0  0  0  0  0  0
   -8.4134    8.8570  -11.2978 N   0  0  0  0  0  0  0  0  0  0  0  0
   -7.3337    9.8935   -8.0288 C   0  0  0  0  0  0  0  0  0  0  0  0
   -4.4165   13.6746  -11.4876 N   0  0  0  0  0  0  0  0  0  0  0  0
   -5.5534   13.6276  -12.1919 C   0  0  0  0  0  0  0  0  0  0  0  0
   -5.9234   14.5178  -12.9405 O   0  0  0  0  0  0  0  0  0  0  0  0
   -5.9640   10.4853   -7.7356 C   0  0  0  0  0  0  0  0  0  0  0  0
   -4.8116    9.7640   -8.0536 C   0  0  0  0  0  0  0  0  0  0  0  0
   -3.5500   10.3127   -7.8058 C   0  0  0  0  0  0  0  0  0  0  0  0
   -3.4411   11.5873   -7.2364 C   0  0  0  0  0  0  0  0  0  0  0  0
   -4.5925   12.3023   -6.9174 C   0  0  0  0  0  0  0  0  0  0  0  0
   -5.8510   11.7510   -7.1622 C   0  0  0  0  0  0  0  0  0  0  0  0
   -2.0968   12.1763   -6.9669 C   0  0  0  0  0  0  0  0  0  0  0  0
   -1.7702   13.4221   -6.4317 C   0  0  0  0  0  0  0  0  0  0  0  0
   -0.4283   13.4864   -6.3849 N   0  0  3  0  0  0  0  0  0  0  0  0
    0.1730   12.4042   -6.8287 N   0  0  0  0  0  0  0  0  0  0  0  0
   -0.8019   11.5974   -7.2024 C   0  0  0  0  0  0  0  0  0  0  0  0
    0.3914   14.5951   -5.9029 C   0  0  0  0  0  0  0  0  0  0  0  0
   -5.5219   11.6382  -10.3348 H   0  0  0  0  0  0  0  0  0  0  0  0
   -7.0394   12.5745  -10.1179 H   0  0  0  0  0  0  0  0  0  0  0  0
   -8.1905   10.1197  -13.8887 H   0  0  0  0  0  0  0  0  0  0  0  0
   -6.8851   12.2475  -14.0948 H   0  0  0  0  0  0  0  0  0  0  0  0
   -8.0369    9.6092   -7.2600 H   0  0  0  0  0  0  0  0  0  0  0  0
   -3.9109   14.5222  -11.6486 H   0  0  0  0  0  0  0  0  0  0  0  0
   -5.2907   15.2263  -12.9277 H   0  0  0  0  0  0  0  0  0  0  0  0
   -4.8950    8.7804   -8.4918 H   0  0  0  0  0  0  0  0  0  0  0  0
   -2.6597    9.7538   -8.0534 H   0  0  0  0  0  0  0  0  0  0  0  0
   -4.5115   13.2861   -6.4794 H   0  0  0  0  0  0  0  0  0  0  0  0
   -6.7408   12.3071   -6.9064 H   0  0  0  0  0  0  0  0  0  0  0  0
   -2.1654   14.2245   -7.0720 H   0  0  0  0  0  0  0  0  0  0  0  0
   -2.1893   13.5208   -5.4195 H   0  0  0  0  0  0  0  0  0  0  0  0
   -0.6459   10.6195   -7.6335 H   0  0  0  0  0  0  0  0  0  0  0  0
    1.4555   14.3315   -5.9935 H   0  0  0  0  0  0  0  0  0  0  0  0
    0.1837   15.4928   -6.5038 H   0  0  0  0  0  0  0  0  0  0  0  0
    0.1522   14.7964   -4.8483 H   0  0  0  0  0  0  0  0  0  0  0  0
  1  2  1  0  0  0  0
  1  4  2  0  0  0  0
  1 12  1  0  0  0  0
  2  6  1  0  0  0  0
  3  4  1  0  0  0  0
  3  5  2  0  0  0  0
  5  6  1  0  0  0  0
  5  9  1  0  0  0  0
  6  7  2  0  0  0  0
  7  8  1  0  0  0  0
  7 10  1  0  0  0  0
  8  9  2  0  0  0  0
 10 14  2  0  0  0  0
 11 12  2  0  0  0  0
 12 13  1  0  0  0  0
 14 15  1  0  0  0  0
 14 19  1  0  0  0  0
 15 16  2  0  0  0  0
 16 17  1  0  0  0  0
 17 18  1  0  0  0  0
 17 20  2  0  0  0  0
 18 19  2  0  0  0  0
 20 21  1  0  0  0  0
 20 24  1  0  0  0  0
 21 22  1  0  0  0  0
 22 23  1  0  0  0  0
 22 25  1  0  0  0  0
 23 24  2  0  0  0  0
  2 26  1  0  0  0  0
  2 27  1  0  0  0  0
  3 28  1  0  0  0  0
  4 29  1  0  0  0  0
 10 30  1  0  0  0  0
 11 31  1  0  0  0  0
 13 32  1  0  0  0  0
 15 33  1  0  0  0  0
 16 34  1  0  0  0  0
 18 35  1  0  0  0  0
 19 36  1  0  0  0  0
 21 37  1  0  0  0  0
 21 38  1  0  0  0  0
 24 39  1  0  0  0  0
 25 40  1  0  0  0  0
 25 41  1  0  0  0  0
 25 42  1  0  0  0  0
M  END
> <Name>
32

> <IC50[uM]>
0.11

$$$$
32
  -OEChem-05192314333D
 Structure written by MMmdl.
 42 45  0     1  0  0  0  0  0999 V2000
   -6.3767   12.3649  -12.0150 C   0  0  3  0  0  0  0  0  0  0  0  0
   -6.5300   11.8201  -10.7355 C   0  0  0  0  0  0  0  0  0  0  0  0
   -7.7235   10.5758  -13.0283 C   0  0  0  0  0  0  0  0  0  0  0  0
   -6.9848   11.7731  -13.1297 C   0  0  0  0  0  0  0  0  0  0  0  0
   -7.8178   10.0121  -11.7526 C   0  0  0  0  0  0  0  0  0  0  0  0
   -7.2522   10.6205  -10.6098 C   0  0  0  0  0  0  0  0  0  0  0  0
   -7.6101    9.7439   -9.5117 C   0  0  0  0  0  0  0  0  0  0  0  0
   -8.2784    8.7249   -9.9778 N   0  0  0  0  0  0  0  0  0  0  0  0
   -8.4134    8.8570  -11.2978 N   0  0  0  0  0  0  0  0  0  0  0  0
   -7.3337    9.8935   -8.0288 C   0  0  0  0  0  0  0  0  0  0  0  0
   -4.4165   13.6746  -11.4876 N   0  0  0  0  0  0  0  0  0  0  0  0
   -5.5534   13.6276  -12.1919 C   0  0  0  0  0  0  0  0  0  0  0  0
   -5.9234   14.5178  -12.9405 O   0  0  0  0  0  0  0  0  0  0  0  0
   -5.9640   10.4853   -7.7356 C   0  0  0  0  0  0  0  0  0  0  0  0
   -4.8116    9.7640   -8.0536 C   0  0  0  0  0  0  0  0  0  0  0  0
   -3.5500   10.3127   -7.8058 C   0  0  0  0  0  0  0  0  0  0  0  0
   -3.4411   11.5873   -7.2364 C   0  0  0  0  0  0  0  0  0  0  0  0
   -4.5925   12.3023   -6.9174 C   0  0  0  0  0  0  0  0  0  0  0  0
   -5.8510   11.7510   -7.1622 C   0  0  0  0  0  0  0  0  0  0  0  0
   -2.0968   12.1763   -6.9669 C   0  0  0  0  0  0  0  0  0  0  0  0
   -1.7702   13.4221   -6.4317 C   0  0  0  0  0  0  0  0  0  0  0  0
   -0.4283   13.4864   -6.3849 N   0  0  0  0  0  0  0  0  0  0  0  0
    0.1730   12.4042   -6.8287 N   0  0  0  0  0  0  0  0  0  0  0  0
   -0.8019   11.5974   -7.2024 C   0  0  0  0  0  0  0  0  0  0  0  0
    0.3914   14.5951   -5.9029 C   0  0  0  0  0  0  0  0  0  0  0  0
   -5.4777   11.7513  -12.1737 H   0  0  0  0  0  0  0  0  0  0  0  0
   -6.1059   12.3069   -9.8697 H   0  0  0  0  0  0  0  0  0  0  0  0
   -8.1905   10.1197  -13.8887 H   0  0  0  0  0  0  0  0  0  0  0  0
   -6.8851   12.2475  -14.0948 H   0  0  0  0  0  0  0  0  0  0  0  0
   -8.0369    9.6092   -7.2600 H   0  0  0  0  0  0  0  0  0  0  0  0
   -3.8167   14.4716  -11.5590 H   0  0  0  0  0  0  0  0  0  0  0  0
   -4.1667   12.9127  -10.8899 H   0  0  0  0  0  0  0  0  0  0  0  0
   -4.8950    8.7804   -8.4918 H   0  0  0  0  0  0  0  0  0  0  0  0
   -2.6597    9.7538   -8.0534 H   0  0  0  0  0  0  0  0  0  0  0  0
   -3.4383   12.0370   -8.2403 H   0  0  0  0  0  0  0  0  0  0  0  0
   -4.5115   13.2861   -6.4794 H   0  0  0  0  0  0  0  0  0  0  0  0
   -6.7408   12.3071   -6.9064 H   0  0  0  0  0  0  0  0  0  0  0  0
   -2.4626   14.1882   -6.1155 H   0  0  0  0  0  0  0  0  0  0  0  0
   -0.6459   10.6195   -7.6335 H   0  0  0  0  0  0  0  0  0  0  0  0
    1.4555   14.3315   -5.9935 H   0  0  0  0  0  0  0  0  0  0  0  0
    0.1837   15.4928   -6.5038 H   0  0  0  0  0  0  0  0  0  0  0  0
    0.1522   14.7964   -4.8483 H   0  0  0  0  0  0  0  0  0  0  0  0
  1  2  1  0  0  0  0
  1  4  1  0  0  0  0
  1 12  1  0  0  0  0
  2  6  2  0  0  0  0
  3  4  2  0  0  0  0
  3  5  1  0  0  0  0
  5  6  1  0  0  0  0
  5  9  2  0  0  0  0
  6  7  1  0  0  0  0
  7  8  2  0  0  0  0
  7 10  1  0  0  0  0
  8  9  1  0  0  0  0
 10 14  2  0  0  0  0
 11 12  1  0  0  0  0
 12 13  2  0  0  0  0
 14 15  1  0  0  0  0
 14 19  1  0  0  0  0
 15 16  2  0  0  0  0
 16 17  1  0  0  0  0
 17 18  1  0  0  0  0
 17 20  1  0  0  0  0
 18 19  2  0  0  0  0
 20 21  2  0  0  0  0
 20 24  1  0  0  0  0
 21 22  1  0  0  0  0
 22 23  1  0  0  0  0
 22 25  1  0  0  0  0
 23 24  2  0  0  0  0
  1 26  1  0  0  0  0
  2 27  1  0  0  0  0
  3 28  1  0  0  0  0
  4 29  1  0  0  0  0
 10 30  1  0  0  0  0
 11 31  1  0  0  0  0
 11 32  1  0  0  0  0
 15 33  1  0  0  0  0
 16 34  1  0  0  0  0
 17 35  1  0  0  0  0
 18 36  1  0  0  0  0
 19 37  1  0  0  0  0
 21 38  1  0  0  0  0
 24 39  1  0  0  0  0
 25 40  1  0  0  0  0
 25 41  1  0  0  0  0
 25 42  1  0  0  0  0
M  END
> <Name>
32

> <IC50[uM]>
0.11

$$$$
32
  -OEChem-05192314333D
 Structure written by MMmdl.
 42 45  0     1  0  0  0  0  0999 V2000
   -6.3767   12.3649  -12.0150 C   0  0  0  0  0  0  0  0  0  0  0  0
   -6.5300   11.8201  -10.7355 C   0  0  0  0  0  0  0  0  0  0  0  0
   -7.7235   10.5758  -13.0283 C   0  0  0  0  0  0  0  0  0  0  0  0
   -6.9848   11.7731  -13.1297 C   0  0  0  0  0  0  0  0  0  0  0  0
   -7.8178   10.0121  -11.7526 C   0  0  0  0  0  0  0  0  0  0  0  0
   -7.2522   10.6205  -10.6098 C   0  0  3  0  0  0  0  0  0  0  0  0
   -7.6101    9.7439   -9.5117 C   0  0  0  0  0  0  0  0  0  0  0  0
   -8.2784    8.7249   -9.9778 N   0  0  0  0  0  0  0  0  0  0  0  0
   -8.4134    8.8570  -11.2978 N   0  0  0  0  0  0  0  0  0  0  0  0
   -7.3337    9.8935   -8.0288 C   0  0  0  0  0  0  0  0  0  0  0  0
   -4.4165   13.6746  -11.4876 N   0  0  0  0  0  0  0  0  0  0  0  0
   -5.5534   13.6276  -12.1919 C   0  0  0  0  0  0  0  0  0  0  0  0
   -5.9234   14.5178  -12.9405 O   0  0  0  0  0  0  0  0  0  0  0  0
   -5.9640   10.4853   -7.7356 C   0  0  0  0  0  0  0  0  0  0  0  0
   -4.8116    9.7640   -8.0536 C   0  0  0  0  0  0  0  0  0  0  0  0
   -3.5500   10.3127   -7.8058 C   0  0  0  0  0  0  0  0  0  0  0  0
   -3.4411   11.5873   -7.2364 C   0  0  0  0  0  0  0  0  0  0  0  0
   -4.5925   12.3023   -6.9174 C   0  0  0  0  0  0  0  0  0  0  0  0
   -5.8510   11.7510   -7.1622 C   0  0  0  0  0  0  0  0  0  0  0  0
   -2.0968   12.1763   -6.9669 C   0  0  0  0  0  0  0  0  0  0  0  0
   -1.7702   13.4221   -6.4317 C   0  0  0  0  0  0  0  0  0  0  0  0
   -0.4283   13.4864   -6.3849 N   0  0  0  0  0  0  0  0  0  0  0  0
    0.1730   12.4042   -6.8287 N   0  0  0  0  0  0  0  0  0  0  0  0
   -0.8019   11.5974   -7.2024 C   0  0  0  0  0  0  0  0  0  0  0  0
    0.3914   14.5951   -5.9029 C   0  0  0  0  0  0  0  0  0  0  0  0
   -6.1059   12.3069   -9.8697 H   0  0  0  0  0  0  0  0  0  0  0  0
   -8.1905   10.1197  -13.8887 H   0  0  0  0  0  0  0  0  0  0  0  0
   -6.8851   12.2475  -14.0948 H   0  0  0  0  0  0  0  0  0  0  0  0
   -8.1785   11.1934  -10.4554 H   0  0  0  0  0  0  0  0  0  0  0  0
   -8.0369    9.6092   -7.2600 H   0  0  0  0  0  0  0  0  0  0  0  0
   -3.8167   14.4716  -11.5590 H   0  0  0  0  0  0  0  0  0  0  0  0
   -4.1667   12.9127  -10.8899 H   0  0  0  0  0  0  0  0  0  0  0  0
   -4.8950    8.7804   -8.4918 H   0  0  0  0  0  0  0  0  0  0  0  0
   -2.6597    9.7538   -8.0534 H   0  0  0  0  0  0  0  0  0  0  0  0
   -3.4383   12.0370   -8.2403 H   0  0  0  0  0  0  0  0  0  0  0  0
   -4.5115   13.2861   -6.4794 H   0  0  0  0  0  0  0  0  0  0  0  0
   -6.7408   12.3071   -6.9064 H   0  0  0  0  0  0  0  0  0  0  0  0
   -2.4626   14.1882   -6.1155 H   0  0  0  0  0  0  0  0  0  0  0  0
   -0.6459   10.6195   -7.6335 H   0  0  0  0  0  0  0  0  0  0  0  0
    1.4555   14.3315   -5.9935 H   0  0  0  0  0  0  0  0  0  0  0  0
    0.1837   15.4928   -6.5038 H   0  0  0  0  0  0  0  0  0  0  0  0
    0.1522   14.7964   -4.8483 H   0  0  0  0  0  0  0  0  0  0  0  0
  1  2  2  0  0  0  0
  1  4  1  0  0  0  0
  1 12  1  0  0  0  0
  2  6  1  0  0  0  0
  3  4  2  0  0  0  0
  3  5  1  0  0  0  0
  5  6  1  0  0  0  0
  5  9  2  0  0  0  0
  6  7  1  0  0  0  0
  7  8  2  0  0  0  0
  7 10  1  0  0  0  0
  8  9  1  0  0  0  0
 10 14  2  0  0  0  0
 11 12  1  0  0  0  0
 12 13  2  0  0  0  0
 14 15  1  0  0  0  0
 14 19  1  0  0  0  0
 15 16  2  0  0  0  0
 16 17  1  0  0  0  0
 17 18  1  0  0  0  0
 17 20  1  0  0  0  0
 18 19  2  0  0  0  0
 20 21  2  0  0  0  0
 20 24  1  0  0  0  0
 21 22  1  0  0  0  0
 22 23  1  0  0  0  0
 22 25  1  0  0  0  0
 23 24  2  0  0  0  0
  2 26  1  0  0  0  0
  3 27  1  0  0  0  0
  4 28  1  0  0  0  0
  6 29  1  0  0  0  0
 10 30  1  0  0  0  0
 11 31  1  0  0  0  0
 11 32  1  0  0  0  0
 15 33  1  0  0  0  0
 16 34  1  0  0  0  0
 17 35  1  0  0  0  0
 18 36  1  0  0  0  0
 19 37  1  0  0  0  0
 21 38  1  0  0  0  0
 24 39  1  0  0  0  0
 25 40  1  0  0  0  0
 25 41  1  0  0  0  0
 25 42  1  0  0  0  0
M  END
> <Name>
32

> <IC50[uM]>
0.11

$$$$
32
  -OEChem-05192314333D
 Structure written by MMmdl.
 42 45  0     0  0  0  0  0  0999 V2000
   -6.3767   12.3649  -12.0150 C   0  0  0  0  0  0  0  0  0  0  0  0
   -6.5300   11.8201  -10.7355 C   0  0  0  0  0  0  0  0  0  0  0  0
   -7.7235   10.5758  -13.0283 C   0  0  0  0  0  0  0  0  0  0  0  0
   -6.9848   11.7731  -13.1297 C   0  0  0  0  0  0  0  0  0  0  0  0
   -7.8178   10.0121  -11.7526 C   0  0  0  0  0  0  0  0  0  0  0  0
   -7.2522   10.6205  -10.6098 C   0  0  0  0  0  0  0  0  0  0  0  0
   -7.6101    9.7439   -9.5117 C   0  0  0  0  0  0  0  0  0  0  0  0
   -8.2784    8.7249   -9.9778 N   0  0  0  0  0  0  0  0  0  0  0  0
   -8.4134    8.8570  -11.2978 N   0  0  0  0  0  0  0  0  0  0  0  0
   -7.3337    9.8935   -8.0288 C   0  0  0  0  0  0  0  0  0  0  0  0
   -4.4165   13.6746  -11.4876 N   0  0  0  0  0  0  0  0  0  0  0  0
   -5.5534   13.6276  -12.1919 C   0  0  0  0  0  0  0  0  0  0  0  0
   -5.9234   14.5178  -12.9405 O   0  0  0  0  0  0  0  0  0  0  0  0
   -5.9640   10.4853   -7.7356 C   0  0  0  0  0  0  0  0  0  0  0  0
   -4.8116    9.7640   -8.0536 C   0  0  0  0  0  0  0  0  0  0  0  0
   -3.5500   10.3127   -7.8058 C   0  0  0  0  0  0  0  0  0  0  0  0
   -3.4411   11.5873   -7.2364 C   0  0  0  0  0  0  0  0  0  0  0  0
   -4.5925   12.3023   -6.9174 C   0  0  0  0  0  0  0  0  0  0  0  0
   -5.8510   11.7510   -7.1622 C   0  0  0  0  0  0  0  0  0  0  0  0
   -2.0968   12.1763   -6.9669 C   0  0  0  0  0  0  0  0  0  0  0  0
   -1.7702   13.4221   -6.4317 C   0  0  0  0  0  0  0  0  0  0  0  0
   -0.4283   13.4864   -6.3849 N   0  0  0  0  0  0  0  0  0  0  0  0
    0.1730   12.4042   -6.8287 N   0  0  0  0  0  0  0  0  0  0  0  0
   -0.8019   11.5974   -7.2024 C   0  0  0  0  0  0  0  0  0  0  0  0
    0.3914   14.5951   -5.9029 C   0  0  0  0  0  0  0  0  0  0  0  0
   -6.1059   12.3069   -9.8697 H   0  0  0  0  0  0  0  0  0  0  0  0
   -8.7452   10.7816  -13.3800 H   0  0  0  0  0  0  0  0  0  0  0  0
   -7.2510    9.8336  -13.6885 H   0  0  0  0  0  0  0  0  0  0  0  0
   -6.8851   12.2475  -14.0948 H   0  0  0  0  0  0  0  0  0  0  0  0
   -8.0369    9.6092   -7.2600 H   0  0  0  0  0  0  0  0  0  0  0  0
   -3.8167   14.4716  -11.5590 H   0  0  0  0  0  0  0  0  0  0  0  0
   -4.1667   12.9127  -10.8899 H   0  0  0  0  0  0  0  0  0  0  0  0
   -4.8950    8.7804   -8.4918 H   0  0  0  0  0  0  0  0  0  0  0  0
   -2.6597    9.7538   -8.0534 H   0  0  0  0  0  0  0  0  0  0  0  0
   -3.4383   12.0370   -8.2403 H   0  0  0  0  0  0  0  0  0  0  0  0
   -4.5115   13.2861   -6.4794 H   0  0  0  0  0  0  0  0  0  0  0  0
   -6.7408   12.3071   -6.9064 H   0  0  0  0  0  0  0  0  0  0  0  0
   -2.4626   14.1882   -6.1155 H   0  0  0  0  0  0  0  0  0  0  0  0
   -0.6459   10.6195   -7.6335 H   0  0  0  0  0  0  0  0  0  0  0  0
    1.4555   14.3315   -5.9935 H   0  0  0  0  0  0  0  0  0  0  0  0
    0.1837   15.4928   -6.5038 H   0  0  0  0  0  0  0  0  0  0  0  0
    0.1522   14.7964   -4.8483 H   0  0  0  0  0  0  0  0  0  0  0  0
  1  2  1  0  0  0  0
  1  4  2  0  0  0  0
  1 12  1  0  0  0  0
  2  6  2  0  0  0  0
  3  4  1  0  0  0  0
  3  5  1  0  0  0  0
  5  6  1  0  0  0  0
  5  9  2  0  0  0  0
  6  7  1  0  0  0  0
  7  8  2  0  0  0  0
  7 10  1  0  0  0  0
  8  9  1  0  0  0  0
 10 14  2  0  0  0  0
 11 12  1  0  0  0  0
 12 13  2  0  0  0  0
 14 15  1  0  0  0  0
 14 19  1  0  0  0  0
 15 16  2  0  0  0  0
 16 17  1  0  0  0  0
 17 18  1  0  0  0  0
 17 20  1  0  0  0  0
 18 19  2  0  0  0  0
 20 21  2  0  0  0  0
 20 24  1  0  0  0  0
 21 22  1  0  0  0  0
 22 23  1  0  0  0  0
 22 25  1  0  0  0  0
 23 24  2  0  0  0  0
  2 26  1  0  0  0  0
  3 27  1  0  0  0  0
  3 28  1  0  0  0  0
  4 29  1  0  0  0  0
 10 30  1  0  0  0  0
 11 31  1  0  0  0  0
 11 32  1  0  0  0  0
 15 33  1  0  0  0  0
 16 34  1  0  0  0  0
 17 35  1  0  0  0  0
 18 36  1  0  0  0  0
 19 37  1  0  0  0  0
 21 38  1  0  0  0  0
 24 39  1  0  0  0  0
 25 40  1  0  0  0  0
 25 41  1  0  0  0  0
 25 42  1  0  0  0  0
M  END
> <Name>
32

> <IC50[uM]>
0.11

$$$$
32
  -OEChem-05192314333D
 Structure written by MMmdl.
 42 45  0     1  0  0  0  0  0999 V2000
   -6.3767   12.3649  -12.0150 C   0  0  3  0  0  0  0  0  0  0  0  0
   -6.5300   11.8201  -10.7355 C   0  0  0  0  0  0  0  0  0  0  0  0
   -7.7235   10.5758  -13.0283 C   0  0  0  0  0  0  0  0  0  0  0  0
   -6.9848   11.7731  -13.1297 C   0  0  0  0  0  0  0  0  0  0  0  0
   -7.8178   10.0121  -11.7526 C   0  0  0  0  0  0  0  0  0  0  0  0
   -7.2522   10.6205  -10.6098 C   0  0  0  0  0  0  0  0  0  0  0  0
   -7.6101    9.7439   -9.5117 C   0  0  0  0  0  0  0  0  0  0  0  0
   -8.2784    8.7249   -9.9778 N   0  0  0  0  0  0  0  0  0  0  0  0
   -8.4134    8.8570  -11.2978 N   0  0  0  0  0  0  0  0  0  0  0  0
   -7.3337    9.8935   -8.0288 C   0  0  0  0  0  0  0  0  0  0  0  0
   -4.4165   13.6746  -11.4876 N   0  0  0  0  0  0  0  0  0  0  0  0
   -5.5534   13.6276  -12.1919 C   0  0  0  0  0  0  0  0  0  0  0  0
   -5.9234   14.5178  -12.9405 O   0  0  0  0  0  0  0  0  0  0  0  0
   -5.9640   10.4853   -7.7356 C   0  0  0  0  0  0  0  0  0  0  0  0
   -4.8116    9.7640   -8.0536 C   0  0  0  0  0  0  0  0  0  0  0  0
   -3.5500   10.3127   -7.8058 C   0  0  0  0  0  0  0  0  0  0  0  0
   -3.4411   11.5873   -7.2364 C   0  0  0  0  0  0  0  0  0  0  0  0
   -4.5925   12.3023   -6.9174 C   0  0  0  0  0  0  0  0  0  0  0  0
   -5.8510   11.7510   -7.1622 C   0  0  0  0  0  0  0  0  0  0  0  0
   -2.0968   12.1763   -6.9669 C   0  0  0  0  0  0  0  0  0  0  0  0
   -1.7702   13.4221   -6.4317 C   0  0  0  0  0  0  0  0  0  0  0  0
   -0.4283   13.4864   -6.3849 N   0  0  0  0  0  0  0  0  0  0  0  0
    0.1730   12.4042   -6.8287 N   0  0  0  0  0  0  0  0  0  0  0  0
   -0.8019   11.5974   -7.2024 C   0  0  0  0  0  0  0  0  0  0  0  0
    0.3914   14.5951   -5.9029 C   0  0  0  0  0  0  0  0  0  0  0  0
   -5.4777   11.7513  -12.1737 H   0  0  0  0  0  0  0  0  0  0  0  0
   -6.1059   12.3069   -9.8697 H   0  0  0  0  0  0  0  0  0  0  0  0
   -8.1905   10.1197  -13.8887 H   0  0  0  0  0  0  0  0  0  0  0  0
   -6.8851   12.2475  -14.0948 H   0  0  0  0  0  0  0  0  0  0  0  0
   -8.0369    9.6092   -7.2600 H   0  0  0  0  0  0  0  0  0  0  0  0
   -3.8167   14.4716  -11.5590 H   0  0  0  0  0  0  0  0  0  0  0  0
   -4.1667   12.9127  -10.8899 H   0  0  0  0  0  0  0  0  0  0  0  0
   -4.8950    8.7804   -8.4918 H   0  0  0  0  0  0  0  0  0  0  0  0
   -2.6597    9.7538   -8.0534 H   0  0  0  0  0  0  0  0  0  0  0  0
   -4.5115   13.2861   -6.4794 H   0  0  0  0  0  0  0  0  0  0  0  0
   -6.3776   12.4489   -7.8298 H   0  0  0  0  0  0  0  0  0  0  0  0
   -6.3709   11.7071   -6.1938 H   0  0  0  0  0  0  0  0  0  0  0  0
   -2.4626   14.1882   -6.1155 H   0  0  0  0  0  0  0  0  0  0  0  0
   -0.6459   10.6195   -7.6335 H   0  0  0  0  0  0  0  0  0  0  0  0
    1.4555   14.3315   -5.9935 H   0  0  0  0  0  0  0  0  0  0  0  0
    0.1837   15.4928   -6.5038 H   0  0  0  0  0  0  0  0  0  0  0  0
    0.1522   14.7964   -4.8483 H   0  0  0  0  0  0  0  0  0  0  0  0
  1  2  1  0  0  0  0
  1  4  1  0  0  0  0
  1 12  1  0  0  0  0
  2  6  2  0  0  0  0
  3  4  2  0  0  0  0
  3  5  1  0  0  0  0
  5  6  1  0  0  0  0
  5  9  2  0  0  0  0
  6  7  1  0  0  0  0
  7  8  2  0  0  0  0
  7 10  1  0  0  0  0
  8  9  1  0  0  0  0
 10 14  2  3  0  0  0
 11 12  1  0  0  0  0
 12 13  2  0  0  0  0
 14 15  1  0  0  0  0
 14 19  1  0  0  0  0
 15 16  2  0  0  0  0
 16 17  1  0  0  0  0
 17 18  2  0  0  0  0
 17 20  1  0  0  0  0
 18 19  1  0  0  0  0
 20 21  2  0  0  0  0
 20 24  1  0  0  0  0
 21 22  1  0  0  0  0
 22 23  1  0  0  0  0
 22 25  1  0  0  0  0
 23 24  2  0  0  0  0
  1 26  1  0  0  0  0
  2 27  1  0  0  0  0
  3 28  1  0  0  0  0
  4 29  1  0  0  0  0
 10 30  1  0  0  0  0
 11 31  1  0  0  0  0
 11 32  1  0  0  0  0
 15 33  1  0  0  0  0
 16 34  1  0  0  0  0
 18 35  1  0  0  0  0
 19 36  1  0  0  0  0
 19 37  1  0  0  0  0
 21 38  1  0  0  0  0
 24 39  1  0  0  0  0
 25 40  1  0  0  0  0
 25 41  1  0  0  0  0
 25 42  1  0  0  0  0
M  END
> <Name>
32

> <IC50[uM]>
0.11

$$$$
32
  -OEChem-05192314333D
 Structure written by MMmdl.
 42 45  0     1  0  0  0  0  0999 V2000
   -6.3767   12.3649  -12.0150 C   0  0  0  0  0  0  0  0  0  0  0  0
   -6.5300   11.8201  -10.7355 C   0  0  0  0  0  0  0  0  0  0  0  0
   -7.7235   10.5758  -13.0283 C   0  0  0  0  0  0  0  0  0  0  0  0
   -6.9848   11.7731  -13.1297 C   0  0  0  0  0  0  0  0  0  0  0  0
   -7.8178   10.0121  -11.7526 C   0  0  0  0  0  0  0  0  0  0  0  0
   -7.2522   10.6205  -10.6098 C   0  0  3  0  0  0  0  0  0  0  0  0
   -7.6101    9.7439   -9.5117 C   0  0  0  0  0  0  0  0  0  0  0  0
   -8.2784    8.7249   -9.9778 N   0  0  0  0  0  0  0  0  0  0  0  0
   -8.4134    8.8570  -11.2978 N   0  0  0  0  0  0  0  0  0  0  0  0
   -7.3337    9.8935   -8.0288 C   0  0  0  0  0  0  0  0  0  0  0  0
   -4.4165   13.6746  -11.4876 N   0  0  0  0  0  0  0  0  0  0  0  0
   -5.5534   13.6276  -12.1919 C   0  0  0  0  0  0  0  0  0  0  0  0
   -5.9234   14.5178  -12.9405 O   0  0  0  0  0  0  0  0  0  0  0  0
   -5.9640   10.4853   -7.7356 C   0  0  0  0  0  0  0  0  0  0  0  0
   -4.8116    9.7640   -8.0536 C   0  0  0  0  0  0  0  0  0  0  0  0
   -3.5500   10.3127   -7.8058 C   0  0  0  0  0  0  0  0  0  0  0  0
   -3.4411   11.5873   -7.2364 C   0  0  0  0  0  0  0  0  0  0  0  0
   -4.5925   12.3023   -6.9174 C   0  0  0  0  0  0  0  0  0  0  0  0
   -5.8510   11.7510   -7.1622 C   0  0  0  0  0  0  0  0  0  0  0  0
   -2.0968   12.1763   -6.9669 C   0  0  0  0  0  0  0  0  0  0  0  0
   -1.7702   13.4221   -6.4317 C   0  0  0  0  0  0  0  0  0  0  0  0
   -0.4283   13.4864   -6.3849 N   0  0  0  0  0  0  0  0  0  0  0  0
    0.1730   12.4042   -6.8287 N   0  0  0  0  0  0  0  0  0  0  0  0
   -0.8019   11.5974   -7.2024 C   0  0  0  0  0  0  0  0  0  0  0  0
    0.3914   14.5951   -5.9029 C   0  0  0  0  0  0  0  0  0  0  0  0
   -6.1059   12.3069   -9.8697 H   0  0  0  0  0  0  0  0  0  0  0  0
   -8.1905   10.1197  -13.8887 H   0  0  0  0  0  0  0  0  0  0  0  0
   -6.8851   12.2475  -14.0948 H   0  0  0  0  0  0  0  0  0  0  0  0
   -8.1785   11.1934  -10.4554 H   0  0  0  0  0  0  0  0  0  0  0  0
   -8.0369    9.6092   -7.2600 H   0  0  0  0  0  0  0  0  0  0  0  0
   -3.8167   14.4716  -11.5590 H   0  0  0  0  0  0  0  0  0  0  0  0
   -4.1667   12.9127  -10.8899 H   0  0  0  0  0  0  0  0  0  0  0  0
   -4.8950    8.7804   -8.4918 H   0  0  0  0  0  0  0  0  0  0  0  0
   -2.6597    9.7538   -8.0534 H   0  0  0  0  0  0  0  0  0  0  0  0
   -4.5115   13.2861   -6.4794 H   0  0  0  0  0  0  0  0  0  0  0  0
   -6.3776   12.4489   -7.8298 H   0  0  0  0  0  0  0  0  0  0  0  0
   -6.3709   11.7071   -6.1938 H   0  0  0  0  0  0  0  0  0  0  0  0
   -2.4626   14.1882   -6.1155 H   0  0  0  0  0  0  0  0  0  0  0  0
   -0.6459   10.6195   -7.6335 H   0  0  0  0  0  0  0  0  0  0  0  0
    1.4555   14.3315   -5.9935 H   0  0  0  0  0  0  0  0  0  0  0  0
    0.1837   15.4928   -6.5038 H   0  0  0  0  0  0  0  0  0  0  0  0
    0.1522   14.7964   -4.8483 H   0  0  0  0  0  0  0  0  0  0  0  0
  1  2  2  0  0  0  0
  1  4  1  0  0  0  0
  1 12  1  0  0  0  0
  2  6  1  0  0  0  0
  3  4  2  0  0  0  0
  3  5  1  0  0  0  0
  5  6  1  0  0  0  0
  5  9  2  0  0  0  0
  6  7  1  0  0  0  0
  7  8  2  0  0  0  0
  7 10  1  0  0  0  0
  8  9  1  0  0  0  0
 10 14  2  3  0  0  0
 11 12  1  0  0  0  0
 12 13  2  0  0  0  0
 14 15  1  0  0  0  0
 14 19  1  0  0  0  0
 15 16  2  0  0  0  0
 16 17  1  0  0  0  0
 17 18  2  0  0  0  0
 17 20  1  0  0  0  0
 18 19  1  0  0  0  0
 20 21  2  0  0  0  0
 20 24  1  0  0  0  0
 21 22  1  0  0  0  0
 22 23  1  0  0  0  0
 22 25  1  0  0  0  0
 23 24  2  0  0  0  0
  2 26  1  0  0  0  0
  3 27  1  0  0  0  0
  4 28  1  0  0  0  0
  6 29  1  0  0  0  0
 10 30  1  0  0  0  0
 11 31  1  0  0  0  0
 11 32  1  0  0  0  0
 15 33  1  0  0  0  0
 16 34  1  0  0  0  0
 18 35  1  0  0  0  0
 19 36  1  0  0  0  0
 19 37  1  0  0  0  0
 21 38  1  0  0  0  0
 24 39  1  0  0  0  0
 25 40  1  0  0  0  0
 25 41  1  0  0  0  0
 25 42  1  0  0  0  0
M  END
> <Name>
32

> <IC50[uM]>
0.11

$$$$
32
  -OEChem-05192314333D
 Structure written by MMmdl.
 42 45  0     0  0  0  0  0  0999 V2000
   -6.3767   12.3649  -12.0150 C   0  0  0  0  0  0  0  0  0  0  0  0
   -6.5300   11.8201  -10.7355 C   0  0  0  0  0  0  0  0  0  0  0  0
   -7.7235   10.5758  -13.0283 C   0  0  0  0  0  0  0  0  0  0  0  0
   -6.9848   11.7731  -13.1297 C   0  0  0  0  0  0  0  0  0  0  0  0
   -7.8178   10.0121  -11.7526 C   0  0  0  0  0  0  0  0  0  0  0  0
   -7.2522   10.6205  -10.6098 C   0  0  0  0  0  0  0  0  0  0  0  0
   -7.6101    9.7439   -9.5117 C   0  0  0  0  0  0  0  0  0  0  0  0
   -8.2784    8.7249   -9.9778 N   0  0  0  0  0  0  0  0  0  0  0  0
   -8.4134    8.8570  -11.2978 N   0  0  0  0  0  0  0  0  0  0  0  0
   -7.3337    9.8935   -8.0288 C   0  0  0  0  0  0  0  0  0  0  0  0
   -4.4165   13.6746  -11.4876 N   0  0  0  0  0  0  0  0  0  0  0  0
   -5.5534   13.6276  -12.1919 C   0  0  0  0  0  0  0  0  0  0  0  0
   -5.9234   14.5178  -12.9405 O   0  0  0  0  0  0  0  0  0  0  0  0
   -5.9640   10.4853   -7.7356 C   0  0  0  0  0  0  0  0  0  0  0  0
   -4.8116    9.7640   -8.0536 C   0  0  0  0  0  0  0  0  0  0  0  0
   -3.5500   10.3127   -7.8058 C   0  0  0  0  0  0  0  0  0  0  0  0
   -3.4411   11.5873   -7.2364 C   0  0  0  0  0  0  0  0  0  0  0  0
   -4.5925   12.3023   -6.9174 C   0  0  0  0  0  0  0  0  0  0  0  0
   -5.8510   11.7510   -7.1622 C   0  0  0  0  0  0  0  0  0  0  0  0
   -2.0968   12.1763   -6.9669 C   0  0  0  0  0  0  0  0  0  0  0  0
   -1.7702   13.4221   -6.4317 C   0  0  0  0  0  0  0  0  0  0  0  0
   -0.4283   13.4864   -6.3849 N   0  0  0  0  0  0  0  0  0  0  0  0
    0.1730   12.4042   -6.8287 N   0  0  0  0  0  0  0  0  0  0  0  0
   -0.8019   11.5974   -7.2024 C   0  0  0  0  0  0  0  0  0  0  0  0
    0.3914   14.5951   -5.9029 C   0  0  0  0  0  0  0  0  0  0  0  0
   -6.1059   12.3069   -9.8697 H   0  0  0  0  0  0  0  0  0  0  0  0
   -8.7452   10.7816  -13.3800 H   0  0  0  0  0  0  0  0  0  0  0  0
   -7.2510    9.8336  -13.6885 H   0  0  0  0  0  0  0  0  0  0  0  0
   -6.8851   12.2475  -14.0948 H   0  0  0  0  0  0  0  0  0  0  0  0
   -8.0369    9.6092   -7.2600 H   0  0  0  0  0  0  0  0  0  0  0  0
   -3.8167   14.4716  -11.5590 H   0  0  0  0  0  0  0  0  0  0  0  0
   -4.1667   12.9127  -10.8899 H   0  0  0  0  0  0  0  0  0  0  0  0
   -4.8950    8.7804   -8.4918 H   0  0  0  0  0  0  0  0  0  0  0  0
   -2.6597    9.7538   -8.0534 H   0  0  0  0  0  0  0  0  0  0  0  0
   -4.5115   13.2861   -6.4794 H   0  0  0  0  0  0  0  0  0  0  0  0
   -6.3776   12.4489   -7.8298 H   0  0  0  0  0  0  0  0  0  0  0  0
   -6.3709   11.7071   -6.1938 H   0  0  0  0  0  0  0  0  0  0  0  0
   -2.4626   14.1882   -6.1155 H   0  0  0  0  0  0  0  0  0  0  0  0
   -0.6459   10.6195   -7.6335 H   0  0  0  0  0  0  0  0  0  0  0  0
    1.4555   14.3315   -5.9935 H   0  0  0  0  0  0  0  0  0  0  0  0
    0.1837   15.4928   -6.5038 H   0  0  0  0  0  0  0  0  0  0  0  0
    0.1522   14.7964   -4.8483 H   0  0  0  0  0  0  0  0  0  0  0  0
  1  2  1  0  0  0  0
  1  4  2  0  0  0  0
  1 12  1  0  0  0  0
  2  6  2  0  0  0  0
  3  4  1  0  0  0  0
  3  5  1  0  0  0  0
  5  6  1  0  0  0  0
  5  9  2  0  0  0  0
  6  7  1  0  0  0  0
  7  8  2  0  0  0  0
  7 10  1  0  0  0  0
  8  9  1  0  0  0  0
 10 14  2  3  0  0  0
 11 12  1  0  0  0  0
 12 13  2  0  0  0  0
 14 15  1  0  0  0  0
 14 19  1  0  0  0  0
 15 16  2  0  0  0  0
 16 17  1  0  0  0  0
 17 18  2  0  0  0  0
 17 20  1  0  0  0  0
 18 19  1  0  0  0  0
 20 21  2  0  0  0  0
 20 24  1  0  0  0  0
 21 22  1  0  0  0  0
 22 23  1  0  0  0  0
 22 25  1  0  0  0  0
 23 24  2  0  0  0  0
  2 26  1  0  0  0  0
  3 27  1  0  0  0  0
  3 28  1  0  0  0  0
  4 29  1  0  0  0  0
 10 30  1  0  0  0  0
 11 31  1  0  0  0  0
 11 32  1  0  0  0  0
 15 33  1  0  0  0  0
 16 34  1  0  0  0  0
 18 35  1  0  0  0  0
 19 36  1  0  0  0  0
 19 37  1  0  0  0  0
 21 38  1  0  0  0  0
 24 39  1  0  0  0  0
 25 40  1  0  0  0  0
 25 41  1  0  0  0  0
 25 42  1  0  0  0  0
M  END
> <Name>
32

> <IC50[uM]>
0.11

$$$$
32
  -OEChem-05192314333D
 Structure written by MMmdl.
 42 45  0     1  0  0  0  0  0999 V2000
   -6.3767   12.3649  -12.0150 C   0  0  3  0  0  0  0  0  0  0  0  0
   -6.5300   11.8201  -10.7355 C   0  0  0  0  0  0  0  0  0  0  0  0
   -7.7235   10.5758  -13.0283 C   0  0  0  0  0  0  0  0  0  0  0  0
   -6.9848   11.7731  -13.1297 C   0  0  0  0  0  0  0  0  0  0  0  0
   -7.8178   10.0121  -11.7526 C   0  0  0  0  0  0  0  0  0  0  0  0
   -7.2522   10.6205  -10.6098 C   0  0  0  0  0  0  0  0  0  0  0  0
   -7.6101    9.7439   -9.5117 C   0  0  0  0  0  0  0  0  0  0  0  0
   -8.2784    8.7249   -9.9778 N   0  0  0  0  0  0  0  0  0  0  0  0
   -8.4134    8.8570  -11.2978 N   0  0  0  0  0  0  0  0  0  0  0  0
   -7.3337    9.8935   -8.0288 C   0  0  0  0  0  0  0  0  0  0  0  0
   -4.4165   13.6746  -11.4876 N   0  0  0  0  0  0  0  0  0  0  0  0
   -5.5534   13.6276  -12.1919 C   0  0  0  0  0  0  0  0  0  0  0  0
   -5.9234   14.5178  -12.9405 O   0  0  0  0  0  0  0  0  0  0  0  0
   -5.9640   10.4853   -7.7356 C   0  0  0  0  0  0  0  0  0  0  0  0
   -4.8116    9.7640   -8.0536 C   0  0  0  0  0  0  0  0  0  0  0  0
   -3.5500   10.3127   -7.8058 C   0  0  0  0  0  0  0  0  0  0  0  0
   -3.4411   11.5873   -7.2364 C   0  0  0  0  0  0  0  0  0  0  0  0
   -4.5925   12.3023   -6.9174 C   0  0  0  0  0  0  0  0  0  0  0  0
   -5.8510   11.7510   -7.1622 C   0  0  0  0  0  0  0  0  0  0  0  0
   -2.0968   12.1763   -6.9669 C   0  0  0  0  0  0  0  0  0  0  0  0
   -1.7702   13.4221   -6.4317 C   0  0  0  0  0  0  0  0  0  0  0  0
   -0.4283   13.4864   -6.3849 N   0  0  0  0  0  0  0  0  0  0  0  0
    0.1730   12.4042   -6.8287 N   0  0  0  0  0  0  0  0  0  0  0  0
   -0.8019   11.5974   -7.2024 C   0  0  0  0  0  0  0  0  0  0  0  0
    0.3914   14.5951   -5.9029 C   0  0  0  0  0  0  0  0  0  0  0  0
   -5.4777   11.7513  -12.1737 H   0  0  0  0  0  0  0  0  0  0  0  0
   -6.1059   12.3069   -9.8697 H   0  0  0  0  0  0  0  0  0  0  0  0
   -8.1905   10.1197  -13.8887 H   0  0  0  0  0  0  0  0  0  0  0  0
   -6.8851   12.2475  -14.0948 H   0  0  0  0  0  0  0  0  0  0  0  0
   -8.0369    9.6092   -7.2600 H   0  0  0  0  0  0  0  0  0  0  0  0
   -3.9109   14.5222  -11.6486 H   0  0  0  0  0  0  0  0  0  0  0  0
   -5.2907   15.2263  -12.9277 H   0  0  0  0  0  0  0  0  0  0  0  0
   -4.8950    8.7804   -8.4918 H   0  0  0  0  0  0  0  0  0  0  0  0
   -2.6597    9.7538   -8.0534 H   0  0  0  0  0  0  0  0  0  0  0  0
   -3.4383   12.0370   -8.2403 H   0  0  0  0  0  0  0  0  0  0  0  0
   -4.5115   13.2861   -6.4794 H   0  0  0  0  0  0  0  0  0  0  0  0
   -6.7408   12.3071   -6.9064 H   0  0  0  0  0  0  0  0  0  0  0  0
   -2.4626   14.1882   -6.1155 H   0  0  0  0  0  0  0  0  0  0  0  0
   -0.6459   10.6195   -7.6335 H   0  0  0  0  0  0  0  0  0  0  0  0
    1.4555   14.3315   -5.9935 H   0  0  0  0  0  0  0  0  0  0  0  0
    0.1837   15.4928   -6.5038 H   0  0  0  0  0  0  0  0  0  0  0  0
    0.1522   14.7964   -4.8483 H   0  0  0  0  0  0  0  0  0  0  0  0
  1  2  1  0  0  0  0
  1  4  1  0  0  0  0
  1 12  1  0  0  0  0
  2  6  2  0  0  0  0
  3  4  2  0  0  0  0
  3  5  1  0  0  0  0
  5  6  1  0  0  0  0
  5  9  2  0  0  0  0
  6  7  1  0  0  0  0
  7  8  2  0  0  0  0
  7 10  1  0  0  0  0
  8  9  1  0  0  0  0
 10 14  2  0  0  0  0
 11 12  2  0  0  0  0
 12 13  1  0  0  0  0
 14 15  1  0  0  0  0
 14 19  1  0  0  0  0
 15 16  2  0  0  0  0
 16 17  1  0  0  0  0
 17 18  1  0  0  0  0
 17 20  1  0  0  0  0
 18 19  2  0  0  0  0
 20 21  2  0  0  0  0
 20 24  1  0  0  0  0
 21 22  1  0  0  0  0
 22 23  1  0  0  0  0
 22 25  1  0  0  0  0
 23 24  2  0  0  0  0
  1 26  1  0  0  0  0
  2 27  1  0  0  0  0
  3 28  1  0  0  0  0
  4 29  1  0  0  0  0
 10 30  1  0  0  0  0
 11 31  1  0  0  0  0
 13 32  1  0  0  0  0
 15 33  1  0  0  0  0
 16 34  1  0  0  0  0
 17 35  1  0  0  0  0
 18 36  1  0  0  0  0
 19 37  1  0  0  0  0
 21 38  1  0  0  0  0
 24 39  1  0  0  0  0
 25 40  1  0  0  0  0
 25 41  1  0  0  0  0
 25 42  1  0  0  0  0
M  END
> <Name>
32

> <IC50[uM]>
0.11

$$$$
32
  -OEChem-05192314333D
 Structure written by MMmdl.
 42 45  0     1  0  0  0  0  0999 V2000
   -6.3767   12.3649  -12.0150 C   0  0  0  0  0  0  0  0  0  0  0  0
   -6.5300   11.8201  -10.7355 C   0  0  0  0  0  0  0  0  0  0  0  0
   -7.7235   10.5758  -13.0283 C   0  0  0  0  0  0  0  0  0  0  0  0
   -6.9848   11.7731  -13.1297 C   0  0  0  0  0  0  0  0  0  0  0  0
   -7.8178   10.0121  -11.7526 C   0  0  0  0  0  0  0  0  0  0  0  0
   -7.2522   10.6205  -10.6098 C   0  0  3  0  0  0  0  0  0  0  0  0
   -7.6101    9.7439   -9.5117 C   0  0  0  0  0  0  0  0  0  0  0  0
   -8.2784    8.7249   -9.9778 N   0  0  0  0  0  0  0  0  0  0  0  0
   -8.4134    8.8570  -11.2978 N   0  0  0  0  0  0  0  0  0  0  0  0
   -7.3337    9.8935   -8.0288 C   0  0  0  0  0  0  0  0  0  0  0  0
   -4.4165   13.6746  -11.4876 N   0  0  0  0  0  0  0  0  0  0  0  0
   -5.5534   13.6276  -12.1919 C   0  0  0  0  0  0  0  0  0  0  0  0
   -5.9234   14.5178  -12.9405 O   0  0  0  0  0  0  0  0  0  0  0  0
   -5.9640   10.4853   -7.7356 C   0  0  0  0  0  0  0  0  0  0  0  0
   -4.8116    9.7640   -8.0536 C   0  0  0  0  0  0  0  0  0  0  0  0
   -3.5500   10.3127   -7.8058 C   0  0  0  0  0  0  0  0  0  0  0  0
   -3.4411   11.5873   -7.2364 C   0  0  0  0  0  0  0  0  0  0  0  0
   -4.5925   12.3023   -6.9174 C   0  0  0  0  0  0  0  0  0  0  0  0
   -5.8510   11.7510   -7.1622 C   0  0  0  0  0  0  0  0  0  0  0  0
   -2.0968   12.1763   -6.9669 C   0  0  0  0  0  0  0  0  0  0  0  0
   -1.7702   13.4221   -6.4317 C   0  0  0  0  0  0  0  0  0  0  0  0
   -0.4283   13.4864   -6.3849 N   0  0  0  0  0  0  0  0  0  0  0  0
    0.1730   12.4042   -6.8287 N   0  0  0  0  0  0  0  0  0  0  0  0
   -0.8019   11.5974   -7.2024 C   0  0  0  0  0  0  0  0  0  0  0  0
    0.3914   14.5951   -5.9029 C   0  0  0  0  0  0  0  0  0  0  0  0
   -6.1059   12.3069   -9.8697 H   0  0  0  0  0  0  0  0  0  0  0  0
   -8.1905   10.1197  -13.8887 H   0  0  0  0  0  0  0  0  0  0  0  0
   -6.8851   12.2475  -14.0948 H   0  0  0  0  0  0  0  0  0  0  0  0
   -8.1785   11.1934  -10.4554 H   0  0  0  0  0  0  0  0  0  0  0  0
   -8.0369    9.6092   -7.2600 H   0  0  0  0  0  0  0  0  0  0  0  0
   -3.9109   14.5222  -11.6486 H   0  0  0  0  0  0  0  0  0  0  0  0
   -5.2907   15.2263  -12.9277 H   0  0  0  0  0  0  0  0  0  0  0  0
   -4.8950    8.7804   -8.4918 H   0  0  0  0  0  0  0  0  0  0  0  0
   -2.6597    9.7538   -8.0534 H   0  0  0  0  0  0  0  0  0  0  0  0
   -3.4383   12.0370   -8.2403 H   0  0  0  0  0  0  0  0  0  0  0  0
   -4.5115   13.2861   -6.4794 H   0  0  0  0  0  0  0  0  0  0  0  0
   -6.7408   12.3071   -6.9064 H   0  0  0  0  0  0  0  0  0  0  0  0
   -2.4626   14.1882   -6.1155 H   0  0  0  0  0  0  0  0  0  0  0  0
   -0.6459   10.6195   -7.6335 H   0  0  0  0  0  0  0  0  0  0  0  0
    1.4555   14.3315   -5.9935 H   0  0  0  0  0  0  0  0  0  0  0  0
    0.1837   15.4928   -6.5038 H   0  0  0  0  0  0  0  0  0  0  0  0
    0.1522   14.7964   -4.8483 H   0  0  0  0  0  0  0  0  0  0  0  0
  1  2  2  0  0  0  0
  1  4  1  0  0  0  0
  1 12  1  0  0  0  0
  2  6  1  0  0  0  0
  3  4  2  0  0  0  0
  3  5  1  0  0  0  0
  5  6  1  0  0  0  0
  5  9  2  0  0  0  0
  6  7  1  0  0  0  0
  7  8  2  0  0  0  0
  7 10  1  0  0  0  0
  8  9  1  0  0  0  0
 10 14  2  0  0  0  0
 11 12  2  0  0  0  0
 12 13  1  0  0  0  0
 14 15  1  0  0  0  0
 14 19  1  0  0  0  0
 15 16  2  0  0  0  0
 16 17  1  0  0  0  0
 17 18  1  0  0  0  0
 17 20  1  0  0  0  0
 18 19  2  0  0  0  0
 20 21  2  0  0  0  0
 20 24  1  0  0  0  0
 21 22  1  0  0  0  0
 22 23  1  0  0  0  0
 22 25  1  0  0  0  0
 23 24  2  0  0  0  0
  2 26  1  0  0  0  0
  3 27  1  0  0  0  0
  4 28  1  0  0  0  0
  6 29  1  0  0  0  0
 10 30  1  0  0  0  0
 11 31  1  0  0  0  0
 13 32  1  0  0  0  0
 15 33  1  0  0  0  0
 16 34  1  0  0  0  0
 17 35  1  0  0  0  0
 18 36  1  0  0  0  0
 19 37  1  0  0  0  0
 21 38  1  0  0  0  0
 24 39  1  0  0  0  0
 25 40  1  0  0  0  0
 25 41  1  0  0  0  0
 25 42  1  0  0  0  0
M  END
> <Name>
32

> <IC50[uM]>
0.11

$$$$
32
  -OEChem-05192314333D
 Structure written by MMmdl.
 42 45  0     0  0  0  0  0  0999 V2000
   -6.3767   12.3649  -12.0150 C   0  0  0  0  0  0  0  0  0  0  0  0
   -6.5300   11.8201  -10.7355 C   0  0  0  0  0  0  0  0  0  0  0  0
   -7.7235   10.5758  -13.0283 C   0  0  0  0  0  0  0  0  0  0  0  0
   -6.9848   11.7731  -13.1297 C   0  0  0  0  0  0  0  0  0  0  0  0
   -7.8178   10.0121  -11.7526 C   0  0  0  0  0  0  0  0  0  0  0  0
   -7.2522   10.6205  -10.6098 C   0  0  0  0  0  0  0  0  0  0  0  0
   -7.6101    9.7439   -9.5117 C   0  0  0  0  0  0  0  0  0  0  0  0
   -8.2784    8.7249   -9.9778 N   0  0  0  0  0  0  0  0  0  0  0  0
   -8.4134    8.8570  -11.2978 N   0  0  0  0  0  0  0  0  0  0  0  0
   -7.3337    9.8935   -8.0288 C   0  0  0  0  0  0  0  0  0  0  0  0
   -4.4165   13.6746  -11.4876 N   0  0  0  0  0  0  0  0  0  0  0  0
   -5.5534   13.6276  -12.1919 C   0  0  0  0  0  0  0  0  0  0  0  0
   -5.9234   14.5178  -12.9405 O   0  0  0  0  0  0  0  0  0  0  0  0
   -5.9640   10.4853   -7.7356 C   0  0  0  0  0  0  0  0  0  0  0  0
   -4.8116    9.7640   -8.0536 C   0  0  0  0  0  0  0  0  0  0  0  0
   -3.5500   10.3127   -7.8058 C   0  0  0  0  0  0  0  0  0  0  0  0
   -3.4411   11.5873   -7.2364 C   0  0  0  0  0  0  0  0  0  0  0  0
   -4.5925   12.3023   -6.9174 C   0  0  0  0  0  0  0  0  0  0  0  0
   -5.8510   11.7510   -7.1622 C   0  0  0  0  0  0  0  0  0  0  0  0
   -2.0968   12.1763   -6.9669 C   0  0  0  0  0  0  0  0  0  0  0  0
   -1.7702   13.4221   -6.4317 C   0  0  0  0  0  0  0  0  0  0  0  0
   -0.4283   13.4864   -6.3849 N   0  0  0  0  0  0  0  0  0  0  0  0
    0.1730   12.4042   -6.8287 N   0  0  0  0  0  0  0  0  0  0  0  0
   -0.8019   11.5974   -7.2024 C   0  0  0  0  0  0  0  0  0  0  0  0
    0.3914   14.5951   -5.9029 C   0  0  0  0  0  0  0  0  0  0  0  0
   -6.1059   12.3069   -9.8697 H   0  0  0  0  0  0  0  0  0  0  0  0
   -8.7452   10.7816  -13.3800 H   0  0  0  0  0  0  0  0  0  0  0  0
   -7.2510    9.8336  -13.6885 H   0  0  0  0  0  0  0  0  0  0  0  0
   -6.8851   12.2475  -14.0948 H   0  0  0  0  0  0  0  0  0  0  0  0
   -8.0369    9.6092   -7.2600 H   0  0  0  0  0  0  0  0  0  0  0  0
   -3.9109   14.5222  -11.6486 H   0  0  0  0  0  0  0  0  0  0  0  0
   -5.2907   15.2263  -12.9277 H   0  0  0  0  0  0  0  0  0  0  0  0
   -4.8950    8.7804   -8.4918 H   0  0  0  0  0  0  0  0  0  0  0  0
   -2.6597    9.7538   -8.0534 H   0  0  0  0  0  0  0  0  0  0  0  0
   -3.4383   12.0370   -8.2403 H   0  0  0  0  0  0  0  0  0  0  0  0
   -4.5115   13.2861   -6.4794 H   0  0  0  0  0  0  0  0  0  0  0  0
   -6.7408   12.3071   -6.9064 H   0  0  0  0  0  0  0  0  0  0  0  0
   -2.4626   14.1882   -6.1155 H   0  0  0  0  0  0  0  0  0  0  0  0
   -0.6459   10.6195   -7.6335 H   0  0  0  0  0  0  0  0  0  0  0  0
    1.4555   14.3315   -5.9935 H   0  0  0  0  0  0  0  0  0  0  0  0
    0.1837   15.4928   -6.5038 H   0  0  0  0  0  0  0  0  0  0  0  0
    0.1522   14.7964   -4.8483 H   0  0  0  0  0  0  0  0  0  0  0  0
  1  2  1  0  0  0  0
  1  4  2  0  0  0  0
  1 12  1  0  0  0  0
  2  6  2  0  0  0  0
  3  4  1  0  0  0  0
  3  5  1  0  0  0  0
  5  6  1  0  0  0  0
  5  9  2  0  0  0  0
  6  7  1  0  0  0  0
  7  8  2  0  0  0  0
  7 10  1  0  0  0  0
  8  9  1  0  0  0  0
 10 14  2  0  0  0  0
 11 12  2  0  0  0  0
 12 13  1  0  0  0  0
 14 15  1  0  0  0  0
 14 19  1  0  0  0  0
 15 16  2  0  0  0  0
 16 17  1  0  0  0  0
 17 18  1  0  0  0  0
 17 20  1  0  0  0  0
 18 19  2  0  0  0  0
 20 21  2  0  0  0  0
 20 24  1  0  0  0  0
 21 22  1  0  0  0  0
 22 23  1  0  0  0  0
 22 25  1  0  0  0  0
 23 24  2  0  0  0  0
  2 26  1  0  0  0  0
  3 27  1  0  0  0  0
  3 28  1  0  0  0  0
  4 29  1  0  0  0  0
 10 30  1  0  0  0  0
 11 31  1  0  0  0  0
 13 32  1  0  0  0  0
 15 33  1  0  0  0  0
 16 34  1  0  0  0  0
 17 35  1  0  0  0  0
 18 36  1  0  0  0  0
 19 37  1  0  0  0  0
 21 38  1  0  0  0  0
 24 39  1  0  0  0  0
 25 40  1  0  0  0  0
 25 41  1  0  0  0  0
 25 42  1  0  0  0  0
M  END
> <Name>
32

> <IC50[uM]>
0.11

$$$$
32
  -OEChem-05192314333D
 Structure written by MMmdl.
 42 45  0     1  0  0  0  0  0999 V2000
   -6.3767   12.3649  -12.0150 C   0  0  3  0  0  0  0  0  0  0  0  0
   -6.5300   11.8201  -10.7355 C   0  0  0  0  0  0  0  0  0  0  0  0
   -7.7235   10.5758  -13.0283 C   0  0  0  0  0  0  0  0  0  0  0  0
   -6.9848   11.7731  -13.1297 C   0  0  0  0  0  0  0  0  0  0  0  0
   -7.8178   10.0121  -11.7526 C   0  0  0  0  0  0  0  0  0  0  0  0
   -7.2522   10.6205  -10.6098 C   0  0  0  0  0  0  0  0  0  0  0  0
   -7.6101    9.7439   -9.5117 C   0  0  0  0  0  0  0  0  0  0  0  0
   -8.2784    8.7249   -9.9778 N   0  0  0  0  0  0  0  0  0  0  0  0
   -8.4134    8.8570  -11.2978 N   0  0  0  0  0  0  0  0  0  0  0  0
   -7.3337    9.8935   -8.0288 C   0  0  0  0  0  0  0  0  0  0  0  0
   -4.4165   13.6746  -11.4876 N   0  0  0  0  0  0  0  0  0  0  0  0
   -5.5534   13.6276  -12.1919 C   0  0  0  0  0  0  0  0  0  0  0  0
   -5.9234   14.5178  -12.9405 O   0  0  0  0  0  0  0  0  0  0  0  0
   -5.9640   10.4853   -7.7356 C   0  0  0  0  0  0  0  0  0  0  0  0
   -4.8116    9.7640   -8.0536 C   0  0  0  0  0  0  0  0  0  0  0  0
   -3.5500   10.3127   -7.8058 C   0  0  0  0  0  0  0  0  0  0  0  0
   -3.4411   11.5873   -7.2364 C   0  0  0  0  0  0  0  0  0  0  0  0
   -4.5925   12.3023   -6.9174 C   0  0  0  0  0  0  0  0  0  0  0  0
   -5.8510   11.7510   -7.1622 C   0  0  0  0  0  0  0  0  0  0  0  0
   -2.0968   12.1763   -6.9669 C   0  0  0  0  0  0  0  0  0  0  0  0
   -1.7702   13.4221   -6.4317 C   0  0  0  0  0  0  0  0  0  0  0  0
   -0.4283   13.4864   -6.3849 N   0  0  0  0  0  0  0  0  0  0  0  0
    0.1730   12.4042   -6.8287 N   0  0  0  0  0  0  0  0  0  0  0  0
   -0.8019   11.5974   -7.2024 C   0  0  0  0  0  0  0  0  0  0  0  0
    0.3914   14.5951   -5.9029 C   0  0  0  0  0  0  0  0  0  0  0  0
   -5.4777   11.7513  -12.1737 H   0  0  0  0  0  0  0  0  0  0  0  0
   -6.1059   12.3069   -9.8697 H   0  0  0  0  0  0  0  0  0  0  0  0
   -8.1905   10.1197  -13.8887 H   0  0  0  0  0  0  0  0  0  0  0  0
   -6.8851   12.2475  -14.0948 H   0  0  0  0  0  0  0  0  0  0  0  0
   -8.0369    9.6092   -7.2600 H   0  0  0  0  0  0  0  0  0  0  0  0
   -3.9109   14.5222  -11.6486 H   0  0  0  0  0  0  0  0  0  0  0  0
   -5.2907   15.2263  -12.9277 H   0  0  0  0  0  0  0  0  0  0  0  0
   -4.8950    8.7804   -8.4918 H   0  0  0  0  0  0  0  0  0  0  0  0
   -2.6597    9.7538   -8.0534 H   0  0  0  0  0  0  0  0  0  0  0  0
   -4.5115   13.2861   -6.4794 H   0  0  0  0  0  0  0  0  0  0  0  0
   -6.3776   12.4489   -7.8298 H   0  0  0  0  0  0  0  0  0  0  0  0
   -6.3709   11.7071   -6.1938 H   0  0  0  0  0  0  0  0  0  0  0  0
   -2.4626   14.1882   -6.1155 H   0  0  0  0  0  0  0  0  0  0  0  0
   -0.6459   10.6195   -7.6335 H   0  0  0  0  0  0  0  0  0  0  0  0
    1.4555   14.3315   -5.9935 H   0  0  0  0  0  0  0  0  0  0  0  0
    0.1837   15.4928   -6.5038 H   0  0  0  0  0  0  0  0  0  0  0  0
    0.1522   14.7964   -4.8483 H   0  0  0  0  0  0  0  0  0  0  0  0
  1  2  1  0  0  0  0
  1  4  1  0  0  0  0
  1 12  1  0  0  0  0
  2  6  2  0  0  0  0
  3  4  2  0  0  0  0
  3  5  1  0  0  0  0
  5  6  1  0  0  0  0
  5  9  2  0  0  0  0
  6  7  1  0  0  0  0
  7  8  2  0  0  0  0
  7 10  1  0  0  0  0
  8  9  1  0  0  0  0
 10 14  2  3  0  0  0
 11 12  2  0  0  0  0
 12 13  1  0  0  0  0
 14 15  1  0  0  0  0
 14 19  1  0  0  0  0
 15 16  2  0  0  0  0
 16 17  1  0  0  0  0
 17 18  2  0  0  0  0
 17 20  1  0  0  0  0
 18 19  1  0  0  0  0
 20 21  2  0  0  0  0
 20 24  1  0  0  0  0
 21 22  1  0  0  0  0
 22 23  1  0  0  0  0
 22 25  1  0  0  0  0
 23 24  2  0  0  0  0
  1 26  1  0  0  0  0
  2 27  1  0  0  0  0
  3 28  1  0  0  0  0
  4 29  1  0  0  0  0
 10 30  1  0  0  0  0
 11 31  1  0  0  0  0
 13 32  1  0  0  0  0
 15 33  1  0  0  0  0
 16 34  1  0  0  0  0
 18 35  1  0  0  0  0
 19 36  1  0  0  0  0
 19 37  1  0  0  0  0
 21 38  1  0  0  0  0
 24 39  1  0  0  0  0
 25 40  1  0  0  0  0
 25 41  1  0  0  0  0
 25 42  1  0  0  0  0
M  END
> <Name>
32

> <IC50[uM]>
0.11

$$$$
32
  -OEChem-05192314333D
 Structure written by MMmdl.
 42 45  0     1  0  0  0  0  0999 V2000
   -6.3767   12.3649  -12.0150 C   0  0  0  0  0  0  0  0  0  0  0  0
   -6.5300   11.8201  -10.7355 C   0  0  0  0  0  0  0  0  0  0  0  0
   -7.7235   10.5758  -13.0283 C   0  0  0  0  0  0  0  0  0  0  0  0
   -6.9848   11.7731  -13.1297 C   0  0  0  0  0  0  0  0  0  0  0  0
   -7.8178   10.0121  -11.7526 C   0  0  0  0  0  0  0  0  0  0  0  0
   -7.2522   10.6205  -10.6098 C   0  0  3  0  0  0  0  0  0  0  0  0
   -7.6101    9.7439   -9.5117 C   0  0  0  0  0  0  0  0  0  0  0  0
   -8.2784    8.7249   -9.9778 N   0  0  0  0  0  0  0  0  0  0  0  0
   -8.4134    8.8570  -11.2978 N   0  0  0  0  0  0  0  0  0  0  0  0
   -7.3337    9.8935   -8.0288 C   0  0  0  0  0  0  0  0  0  0  0  0
   -4.4165   13.6746  -11.4876 N   0  0  0  0  0  0  0  0  0  0  0  0
   -5.5534   13.6276  -12.1919 C   0  0  0  0  0  0  0  0  0  0  0  0
   -5.9234   14.5178  -12.9405 O   0  0  0  0  0  0  0  0  0  0  0  0
   -5.9640   10.4853   -7.7356 C   0  0  0  0  0  0  0  0  0  0  0  0
   -4.8116    9.7640   -8.0536 C   0  0  0  0  0  0  0  0  0  0  0  0
   -3.5500   10.3127   -7.8058 C   0  0  0  0  0  0  0  0  0  0  0  0
   -3.4411   11.5873   -7.2364 C   0  0  0  0  0  0  0  0  0  0  0  0
   -4.5925   12.3023   -6.9174 C   0  0  0  0  0  0  0  0  0  0  0  0
   -5.8510   11.7510   -7.1622 C   0  0  0  0  0  0  0  0  0  0  0  0
   -2.0968   12.1763   -6.9669 C   0  0  0  0  0  0  0  0  0  0  0  0
   -1.7702   13.4221   -6.4317 C   0  0  0  0  0  0  0  0  0  0  0  0
   -0.4283   13.4864   -6.3849 N   0  0  0  0  0  0  0  0  0  0  0  0
    0.1730   12.4042   -6.8287 N   0  0  0  0  0  0  0  0  0  0  0  0
   -0.8019   11.5974   -7.2024 C   0  0  0  0  0  0  0  0  0  0  0  0
    0.3914   14.5951   -5.9029 C   0  0  0  0  0  0  0  0  0  0  0  0
   -6.1059   12.3069   -9.8697 H   0  0  0  0  0  0  0  0  0  0  0  0
   -8.1905   10.1197  -13.8887 H   0  0  0  0  0  0  0  0  0  0  0  0
   -6.8851   12.2475  -14.0948 H   0  0  0  0  0  0  0  0  0  0  0  0
   -8.1785   11.1934  -10.4554 H   0  0  0  0  0  0  0  0  0  0  0  0
   -8.0369    9.6092   -7.2600 H   0  0  0  0  0  0  0  0  0  0  0  0
   -3.9109   14.5222  -11.6486 H   0  0  0  0  0  0  0  0  0  0  0  0
   -5.2907   15.2263  -12.9277 H   0  0  0  0  0  0  0  0  0  0  0  0
   -4.8950    8.7804   -8.4918 H   0  0  0  0  0  0  0  0  0  0  0  0
   -2.6597    9.7538   -8.0534 H   0  0  0  0  0  0  0  0  0  0  0  0
   -4.5115   13.2861   -6.4794 H   0  0  0  0  0  0  0  0  0  0  0  0
   -6.3776   12.4489   -7.8298 H   0  0  0  0  0  0  0  0  0  0  0  0
   -6.3709   11.7071   -6.1938 H   0  0  0  0  0  0  0  0  0  0  0  0
   -2.4626   14.1882   -6.1155 H   0  0  0  0  0  0  0  0  0  0  0  0
   -0.6459   10.6195   -7.6335 H   0  0  0  0  0  0  0  0  0  0  0  0
    1.4555   14.3315   -5.9935 H   0  0  0  0  0  0  0  0  0  0  0  0
    0.1837   15.4928   -6.5038 H   0  0  0  0  0  0  0  0  0  0  0  0
    0.1522   14.7964   -4.8483 H   0  0  0  0  0  0  0  0  0  0  0  0
  1  2  2  0  0  0  0
  1  4  1  0  0  0  0
  1 12  1  0  0  0  0
  2  6  1  0  0  0  0
  3  4  2  0  0  0  0
  3  5  1  0  0  0  0
  5  6  1  0  0  0  0
  5  9  2  0  0  0  0
  6  7  1  0  0  0  0
  7  8  2  0  0  0  0
  7 10  1  0  0  0  0
  8  9  1  0  0  0  0
 10 14  2  3  0  0  0
 11 12  2  0  0  0  0
 12 13  1  0  0  0  0
 14 15  1  0  0  0  0
 14 19  1  0  0  0  0
 15 16  2  0  0  0  0
 16 17  1  0  0  0  0
 17 18  2  0  0  0  0
 17 20  1  0  0  0  0
 18 19  1  0  0  0  0
 20 21  2  0  0  0  0
 20 24  1  0  0  0  0
 21 22  1  0  0  0  0
 22 23  1  0  0  0  0
 22 25  1  0  0  0  0
 23 24  2  0  0  0  0
  2 26  1  0  0  0  0
  3 27  1  0  0  0  0
  4 28  1  0  0  0  0
  6 29  1  0  0  0  0
 10 30  1  0  0  0  0
 11 31  1  0  0  0  0
 13 32  1  0  0  0  0
 15 33  1  0  0  0  0
 16 34  1  0  0  0  0
 18 35  1  0  0  0  0
 19 36  1  0  0  0  0
 19 37  1  0  0  0  0
 21 38  1  0  0  0  0
 24 39  1  0  0  0  0
 25 40  1  0  0  0  0
 25 41  1  0  0  0  0
 25 42  1  0  0  0  0
M  END
> <Name>
32

> <IC50[uM]>
0.11

$$$$
32
  -OEChem-05192314333D
 Structure written by MMmdl.
 42 45  0     0  0  0  0  0  0999 V2000
   -6.3767   12.3649  -12.0150 C   0  0  0  0  0  0  0  0  0  0  0  0
   -6.5300   11.8201  -10.7355 C   0  0  0  0  0  0  0  0  0  0  0  0
   -7.7235   10.5758  -13.0283 C   0  0  0  0  0  0  0  0  0  0  0  0
   -6.9848   11.7731  -13.1297 C   0  0  0  0  0  0  0  0  0  0  0  0
   -7.8178   10.0121  -11.7526 C   0  0  0  0  0  0  0  0  0  0  0  0
   -7.2522   10.6205  -10.6098 C   0  0  0  0  0  0  0  0  0  0  0  0
   -7.6101    9.7439   -9.5117 C   0  0  0  0  0  0  0  0  0  0  0  0
   -8.2784    8.7249   -9.9778 N   0  0  0  0  0  0  0  0  0  0  0  0
   -8.4134    8.8570  -11.2978 N   0  0  0  0  0  0  0  0  0  0  0  0
   -7.3337    9.8935   -8.0288 C   0  0  0  0  0  0  0  0  0  0  0  0
   -4.4165   13.6746  -11.4876 N   0  0  0  0  0  0  0  0  0  0  0  0
   -5.5534   13.6276  -12.1919 C   0  0  0  0  0  0  0  0  0  0  0  0
   -5.9234   14.5178  -12.9405 O   0  0  0  0  0  0  0  0  0  0  0  0
   -5.9640   10.4853   -7.7356 C   0  0  0  0  0  0  0  0  0  0  0  0
   -4.8116    9.7640   -8.0536 C   0  0  0  0  0  0  0  0  0  0  0  0
   -3.5500   10.3127   -7.8058 C   0  0  0  0  0  0  0  0  0  0  0  0
   -3.4411   11.5873   -7.2364 C   0  0  0  0  0  0  0  0  0  0  0  0
   -4.5925   12.3023   -6.9174 C   0  0  0  0  0  0  0  0  0  0  0  0
   -5.8510   11.7510   -7.1622 C   0  0  0  0  0  0  0  0  0  0  0  0
   -2.0968   12.1763   -6.9669 C   0  0  0  0  0  0  0  0  0  0  0  0
   -1.7702   13.4221   -6.4317 C   0  0  0  0  0  0  0  0  0  0  0  0
   -0.4283   13.4864   -6.3849 N   0  0  0  0  0  0  0  0  0  0  0  0
    0.1730   12.4042   -6.8287 N   0  0  0  0  0  0  0  0  0  0  0  0
   -0.8019   11.5974   -7.2024 C   0  0  0  0  0  0  0  0  0  0  0  0
    0.3914   14.5951   -5.9029 C   0  0  0  0  0  0  0  0  0  0  0  0
   -6.1059   12.3069   -9.8697 H   0  0  0  0  0  0  0  0  0  0  0  0
   -8.7452   10.7816  -13.3800 H   0  0  0  0  0  0  0  0  0  0  0  0
   -7.2510    9.8336  -13.6885 H   0  0  0  0  0  0  0  0  0  0  0  0
   -6.8851   12.2475  -14.0948 H   0  0  0  0  0  0  0  0  0  0  0  0
   -8.0369    9.6092   -7.2600 H   0  0  0  0  0  0  0  0  0  0  0  0
   -3.9109   14.5222  -11.6486 H   0  0  0  0  0  0  0  0  0  0  0  0
   -5.2907   15.2263  -12.9277 H   0  0  0  0  0  0  0  0  0  0  0  0
   -4.8950    8.7804   -8.4918 H   0  0  0  0  0  0  0  0  0  0  0  0
   -2.6597    9.7538   -8.0534 H   0  0  0  0  0  0  0  0  0  0  0  0
   -4.5115   13.2861   -6.4794 H   0  0  0  0  0  0  0  0  0  0  0  0
   -6.3776   12.4489   -7.8298 H   0  0  0  0  0  0  0  0  0  0  0  0
   -6.3709   11.7071   -6.1938 H   0  0  0  0  0  0  0  0  0  0  0  0
   -2.4626   14.1882   -6.1155 H   0  0  0  0  0  0  0  0  0  0  0  0
   -0.6459   10.6195   -7.6335 H   0  0  0  0  0  0  0  0  0  0  0  0
    1.4555   14.3315   -5.9935 H   0  0  0  0  0  0  0  0  0  0  0  0
    0.1837   15.4928   -6.5038 H   0  0  0  0  0  0  0  0  0  0  0  0
    0.1522   14.7964   -4.8483 H   0  0  0  0  0  0  0  0  0  0  0  0
  1  2  1  0  0  0  0
  1  4  2  0  0  0  0
  1 12  1  0  0  0  0
  2  6  2  0  0  0  0
  3  4  1  0  0  0  0
  3  5  1  0  0  0  0
  5  6  1  0  0  0  0
  5  9  2  0  0  0  0
  6  7  1  0  0  0  0
  7  8  2  0  0  0  0
  7 10  1  0  0  0  0
  8  9  1  0  0  0  0
 10 14  2  3  0  0  0
 11 12  2  0  0  0  0
 12 13  1  0  0  0  0
 14 15  1  0  0  0  0
 14 19  1  0  0  0  0
 15 16  2  0  0  0  0
 16 17  1  0  0  0  0
 17 18  2  0  0  0  0
 17 20  1  0  0  0  0
 18 19  1  0  0  0  0
 20 21  2  0  0  0  0
 20 24  1  0  0  0  0
 21 22  1  0  0  0  0
 22 23  1  0  0  0  0
 22 25  1  0  0  0  0
 23 24  2  0  0  0  0
  2 26  1  0  0  0  0
  3 27  1  0  0  0  0
  3 28  1  0  0  0  0
  4 29  1  0  0  0  0
 10 30  1  0  0  0  0
 11 31  1  0  0  0  0
 13 32  1  0  0  0  0
 15 33  1  0  0  0  0
 16 34  1  0  0  0  0
 18 35  1  0  0  0  0
 19 36  1  0  0  0  0
 19 37  1  0  0  0  0
 21 38  1  0  0  0  0
 24 39  1  0  0  0  0
 25 40  1  0  0  0  0
 25 41  1  0  0  0  0
 25 42  1  0  0  0  0
M  END
> <Name>
32

> <IC50[uM]>
0.11

$$$$
32
  -OEChem-05192314333D
 Structure written by MMmdl.
 42 45  0     1  0  0  0  0  0999 V2000
   -6.3767   12.3649  -12.0150 C   0  0  0  0  0  0  0  0  0  0  0  0
   -6.5300   11.8201  -10.7355 C   0  0  0  0  0  0  0  0  0  0  0  0
   -7.7235   10.5758  -13.0283 C   0  0  0  0  0  0  0  0  0  0  0  0
   -6.9848   11.7731  -13.1297 C   0  0  0  0  0  0  0  0  0  0  0  0
   -7.8178   10.0121  -11.7526 C   0  0  3  0  0  0  0  0  0  0  0  0
   -7.2522   10.6205  -10.6098 C   0  0  0  0  0  0  0  0  0  0  0  0
   -7.6101    9.7439   -9.5117 C   0  0  0  0  0  0  0  0  0  0  0  0
   -8.2784    8.7249   -9.9778 N   0  0  0  0  0  0  0  0  0  0  0  0
   -8.4134    8.8570  -11.2978 N   0  0  0  0  0  0  0  0  0  0  0  0
   -7.3337    9.8935   -8.0288 C   0  0  0  0  0  0  0  0  0  0  0  0
   -4.4165   13.6746  -11.4876 N   0  0  0  0  0  0  0  0  0  0  0  0
   -5.5534   13.6276  -12.1919 C   0  0  0  0  0  0  0  0  0  0  0  0
   -5.9234   14.5178  -12.9405 O   0  0  0  0  0  0  0  0  0  0  0  0
   -5.9640   10.4853   -7.7356 C   0  0  0  0  0  0  0  0  0  0  0  0
   -4.8116    9.7640   -8.0536 C   0  0  0  0  0  0  0  0  0  0  0  0
   -3.5500   10.3127   -7.8058 C   0  0  0  0  0  0  0  0  0  0  0  0
   -3.4411   11.5873   -7.2364 C   0  0  0  0  0  0  0  0  0  0  0  0
   -4.5925   12.3023   -6.9174 C   0  0  0  0  0  0  0  0  0  0  0  0
   -5.8510   11.7510   -7.1622 C   0  0  0  0  0  0  0  0  0  0  0  0
   -2.0968   12.1763   -6.9669 C   0  0  0  0  0  0  0  0  0  0  0  0
   -1.7702   13.4221   -6.4317 C   0  0  0  0  0  0  0  0  0  0  0  0
   -0.4283   13.4864   -6.3849 N   0  0  0  0  0  0  0  0  0  0  0  0
    0.1730   12.4042   -6.8287 N   0  0  0  0  0  0  0  0  0  0  0  0
   -0.8019   11.5974   -7.2024 C   0  0  0  0  0  0  0  0  0  0  0  0
    0.3914   14.5951   -5.9029 C   0  0  0  0  0  0  0  0  0  0  0  0
   -6.1059   12.3069   -9.8697 H   0  0  0  0  0  0  0  0  0  0  0  0
   -8.1905   10.1197  -13.8887 H   0  0  0  0  0  0  0  0  0  0  0  0
   -6.8851   12.2475  -14.0948 H   0  0  0  0  0  0  0  0  0  0  0  0
   -6.8808    9.4624  -11.9250 H   0  0  0  0  0  0  0  0  0  0  0  0
   -8.0369    9.6092   -7.2600 H   0  0  0  0  0  0  0  0  0  0  0  0
   -3.8167   14.4716  -11.5590 H   0  0  0  0  0  0  0  0  0  0  0  0
   -4.1667   12.9127  -10.8899 H   0  0  0  0  0  0  0  0  0  0  0  0
   -4.8950    8.7804   -8.4918 H   0  0  0  0  0  0  0  0  0  0  0  0
   -2.6597    9.7538   -8.0534 H   0  0  0  0  0  0  0  0  0  0  0  0
   -3.4383   12.0370   -8.2403 H   0  0  0  0  0  0  0  0  0  0  0  0
   -4.5115   13.2861   -6.4794 H   0  0  0  0  0  0  0  0  0  0  0  0
   -6.7408   12.3071   -6.9064 H   0  0  0  0  0  0  0  0  0  0  0  0
   -2.4626   14.1882   -6.1155 H   0  0  0  0  0  0  0  0  0  0  0  0
   -0.6459   10.6195   -7.6335 H   0  0  0  0  0  0  0  0  0  0  0  0
    1.4555   14.3315   -5.9935 H   0  0  0  0  0  0  0  0  0  0  0  0
    0.1837   15.4928   -6.5038 H   0  0  0  0  0  0  0  0  0  0  0  0
    0.1522   14.7964   -4.8483 H   0  0  0  0  0  0  0  0  0  0  0  0
  1  2  2  0  0  0  0
  1  4  1  0  0  0  0
  1 12  1  0  0  0  0
  2  6  1  0  0  0  0
  3  4  2  0  0  0  0
  3  5  1  0  0  0  0
  5  6  1  0  0  0  0
  5  9  1  0  0  0  0
  6  7  2  0  0  0  0
  7  8  1  0  0  0  0
  7 10  1  0  0  0  0
  8  9  2  0  0  0  0
 10 14  2  0  0  0  0
 11 12  1  0  0  0  0
 12 13  2  0  0  0  0
 14 15  1  0  0  0  0
 14 19  1  0  0  0  0
 15 16  2  0  0  0  0
 16 17  1  0  0  0  0
 17 18  1  0  0  0  0
 17 20  1  0  0  0  0
 18 19  2  0  0  0  0
 20 21  2  0  0  0  0
 20 24  1  0  0  0  0
 21 22  1  0  0  0  0
 22 23  1  0  0  0  0
 22 25  1  0  0  0  0
 23 24  2  0  0  0  0
  2 26  1  0  0  0  0
  3 27  1  0  0  0  0
  4 28  1  0  0  0  0
  5 29  1  0  0  0  0
 10 30  1  0  0  0  0
 11 31  1  0  0  0  0
 11 32  1  0  0  0  0
 15 33  1  0  0  0  0
 16 34  1  0  0  0  0
 17 35  1  0  0  0  0
 18 36  1  0  0  0  0
 19 37  1  0  0  0  0
 21 38  1  0  0  0  0
 24 39  1  0  0  0  0
 25 40  1  0  0  0  0
 25 41  1  0  0  0  0
 25 42  1  0  0  0  0
M  END
> <Name>
32

> <IC50[uM]>
0.11

$$$$
32
  -OEChem-05192314333D
 Structure written by MMmdl.
 42 45  0     0  0  0  0  0  0999 V2000
   -6.3767   12.3649  -12.0150 C   0  0  0  0  0  0  0  0  0  0  0  0
   -6.5300   11.8201  -10.7355 C   0  0  0  0  0  0  0  0  0  0  0  0
   -7.7235   10.5758  -13.0283 C   0  0  0  0  0  0  0  0  0  0  0  0
   -6.9848   11.7731  -13.1297 C   0  0  0  0  0  0  0  0  0  0  0  0
   -7.8178   10.0121  -11.7526 C   0  0  0  0  0  0  0  0  0  0  0  0
   -7.2522   10.6205  -10.6098 C   0  0  0  0  0  0  0  0  0  0  0  0
   -7.6101    9.7439   -9.5117 C   0  0  0  0  0  0  0  0  0  0  0  0
   -8.2784    8.7249   -9.9778 N   0  0  0  0  0  0  0  0  0  0  0  0
   -8.4134    8.8570  -11.2978 N   0  0  0  0  0  0  0  0  0  0  0  0
   -7.3337    9.8935   -8.0288 C   0  0  0  0  0  0  0  0  0  0  0  0
   -4.4165   13.6746  -11.4876 N   0  0  0  0  0  0  0  0  0  0  0  0
   -5.5534   13.6276  -12.1919 C   0  0  0  0  0  0  0  0  0  0  0  0
   -5.9234   14.5178  -12.9405 O   0  0  0  0  0  0  0  0  0  0  0  0
   -5.9640   10.4853   -7.7356 C   0  0  0  0  0  0  0  0  0  0  0  0
   -4.8116    9.7640   -8.0536 C   0  0  0  0  0  0  0  0  0  0  0  0
   -3.5500   10.3127   -7.8058 C   0  0  0  0  0  0  0  0  0  0  0  0
   -3.4411   11.5873   -7.2364 C   0  0  0  0  0  0  0  0  0  0  0  0
   -4.5925   12.3023   -6.9174 C   0  0  0  0  0  0  0  0  0  0  0  0
   -5.8510   11.7510   -7.1622 C   0  0  0  0  0  0  0  0  0  0  0  0
   -2.0968   12.1763   -6.9669 C   0  0  0  0  0  0  0  0  0  0  0  0
   -1.7702   13.4221   -6.4317 C   0  0  0  0  0  0  0  0  0  0  0  0
   -0.4283   13.4864   -6.3849 N   0  0  0  0  0  0  0  0  0  0  0  0
    0.1730   12.4042   -6.8287 N   0  0  0  0  0  0  0  0  0  0  0  0
   -0.8019   11.5974   -7.2024 C   0  0  0  0  0  0  0  0  0  0  0  0
    0.3914   14.5951   -5.9029 C   0  0  0  0  0  0  0  0  0  0  0  0
   -6.1059   12.3069   -9.8697 H   0  0  0  0  0  0  0  0  0  0  0  0
   -8.1905   10.1197  -13.8887 H   0  0  0  0  0  0  0  0  0  0  0  0
   -7.6730   12.5260  -13.5414 H   0  0  0  0  0  0  0  0  0  0  0  0
   -6.1793   11.5781  -13.8530 H   0  0  0  0  0  0  0  0  0  0  0  0
   -8.0369    9.6092   -7.2600 H   0  0  0  0  0  0  0  0  0  0  0  0
   -3.8167   14.4716  -11.5590 H   0  0  0  0  0  0  0  0  0  0  0  0
   -4.1667   12.9127  -10.8899 H   0  0  0  0  0  0  0  0  0  0  0  0
   -4.8950    8.7804   -8.4918 H   0  0  0  0  0  0  0  0  0  0  0  0
   -2.6597    9.7538   -8.0534 H   0  0  0  0  0  0  0  0  0  0  0  0
   -3.4383   12.0370   -8.2403 H   0  0  0  0  0  0  0  0  0  0  0  0
   -4.5115   13.2861   -6.4794 H   0  0  0  0  0  0  0  0  0  0  0  0
   -6.7408   12.3071   -6.9064 H   0  0  0  0  0  0  0  0  0  0  0  0
   -2.4626   14.1882   -6.1155 H   0  0  0  0  0  0  0  0  0  0  0  0
   -0.6459   10.6195   -7.6335 H   0  0  0  0  0  0  0  0  0  0  0  0
    1.4555   14.3315   -5.9935 H   0  0  0  0  0  0  0  0  0  0  0  0
    0.1837   15.4928   -6.5038 H   0  0  0  0  0  0  0  0  0  0  0  0
    0.1522   14.7964   -4.8483 H   0  0  0  0  0  0  0  0  0  0  0  0
  1  2  2  0  0  0  0
  1  4  1  0  0  0  0
  1 12  1  0  0  0  0
  2  6  1  0  0  0  0
  3  4  1  0  0  0  0
  3  5  2  0  0  0  0
  5  6  1  0  0  0  0
  5  9  1  0  0  0  0
  6  7  2  0  0  0  0
  7  8  1  0  0  0  0
  7 10  1  0  0  0  0
  8  9  2  0  0  0  0
 10 14  2  0  0  0  0
 11 12  1  0  0  0  0
 12 13  2  0  0  0  0
 14 15  1  0  0  0  0
 14 19  1  0  0  0  0
 15 16  2  0  0  0  0
 16 17  1  0  0  0  0
 17 18  1  0  0  0  0
 17 20  1  0  0  0  0
 18 19  2  0  0  0  0
 20 21  2  0  0  0  0
 20 24  1  0  0  0  0
 21 22  1  0  0  0  0
 22 23  1  0  0  0  0
 22 25  1  0  0  0  0
 23 24  2  0  0  0  0
  2 26  1  0  0  0  0
  3 27  1  0  0  0  0
  4 28  1  0  0  0  0
  4 29  1  0  0  0  0
 10 30  1  0  0  0  0
 11 31  1  0  0  0  0
 11 32  1  0  0  0  0
 15 33  1  0  0  0  0
 16 34  1  0  0  0  0
 17 35  1  0  0  0  0
 18 36  1  0  0  0  0
 19 37  1  0  0  0  0
 21 38  1  0  0  0  0
 24 39  1  0  0  0  0
 25 40  1  0  0  0  0
 25 41  1  0  0  0  0
 25 42  1  0  0  0  0
M  END
> <Name>
32

> <IC50[uM]>
0.11

$$$$
32
  -OEChem-05192314333D
 Structure written by MMmdl.
 42 45  0     1  0  0  0  0  0999 V2000
   -6.3767   12.3649  -12.0150 C   0  0  0  0  0  0  0  0  0  0  0  0
   -6.5300   11.8201  -10.7355 C   0  0  0  0  0  0  0  0  0  0  0  0
   -7.7235   10.5758  -13.0283 C   0  0  0  0  0  0  0  0  0  0  0  0
   -6.9848   11.7731  -13.1297 C   0  0  0  0  0  0  0  0  0  0  0  0
   -7.8178   10.0121  -11.7526 C   0  0  3  0  0  0  0  0  0  0  0  0
   -7.2522   10.6205  -10.6098 C   0  0  0  0  0  0  0  0  0  0  0  0
   -7.6101    9.7439   -9.5117 C   0  0  0  0  0  0  0  0  0  0  0  0
   -8.2784    8.7249   -9.9778 N   0  0  0  0  0  0  0  0  0  0  0  0
   -8.4134    8.8570  -11.2978 N   0  0  0  0  0  0  0  0  0  0  0  0
   -7.3337    9.8935   -8.0288 C   0  0  0  0  0  0  0  0  0  0  0  0
   -4.4165   13.6746  -11.4876 N   0  0  0  0  0  0  0  0  0  0  0  0
   -5.5534   13.6276  -12.1919 C   0  0  0  0  0  0  0  0  0  0  0  0
   -5.9234   14.5178  -12.9405 O   0  0  0  0  0  0  0  0  0  0  0  0
   -5.9640   10.4853   -7.7356 C   0  0  0  0  0  0  0  0  0  0  0  0
   -4.8116    9.7640   -8.0536 C   0  0  0  0  0  0  0  0  0  0  0  0
   -3.5500   10.3127   -7.8058 C   0  0  0  0  0  0  0  0  0  0  0  0
   -3.4411   11.5873   -7.2364 C   0  0  0  0  0  0  0  0  0  0  0  0
   -4.5925   12.3023   -6.9174 C   0  0  0  0  0  0  0  0  0  0  0  0
   -5.8510   11.7510   -7.1622 C   0  0  0  0  0  0  0  0  0  0  0  0
   -2.0968   12.1763   -6.9669 C   0  0  0  0  0  0  0  0  0  0  0  0
   -1.7702   13.4221   -6.4317 C   0  0  0  0  0  0  0  0  0  0  0  0
   -0.4283   13.4864   -6.3849 N   0  0  0  0  0  0  0  0  0  0  0  0
    0.1730   12.4042   -6.8287 N   0  0  0  0  0  0  0  0  0  0  0  0
   -0.8019   11.5974   -7.2024 C   0  0  0  0  0  0  0  0  0  0  0  0
    0.3914   14.5951   -5.9029 C   0  0  0  0  0  0  0  0  0  0  0  0
   -6.1059   12.3069   -9.8697 H   0  0  0  0  0  0  0  0  0  0  0  0
   -8.1905   10.1197  -13.8887 H   0  0  0  0  0  0  0  0  0  0  0  0
   -6.8851   12.2475  -14.0948 H   0  0  0  0  0  0  0  0  0  0  0  0
   -6.8808    9.4624  -11.9250 H   0  0  0  0  0  0  0  0  0  0  0  0
   -8.0369    9.6092   -7.2600 H   0  0  0  0  0  0  0  0  0  0  0  0
   -3.8167   14.4716  -11.5590 H   0  0  0  0  0  0  0  0  0  0  0  0
   -4.1667   12.9127  -10.8899 H   0  0  0  0  0  0  0  0  0  0  0  0
   -4.8950    8.7804   -8.4918 H   0  0  0  0  0  0  0  0  0  0  0  0
   -2.6597    9.7538   -8.0534 H   0  0  0  0  0  0  0  0  0  0  0  0
   -4.5115   13.2861   -6.4794 H   0  0  0  0  0  0  0  0  0  0  0  0
   -6.3776   12.4489   -7.8298 H   0  0  0  0  0  0  0  0  0  0  0  0
   -6.3709   11.7071   -6.1938 H   0  0  0  0  0  0  0  0  0  0  0  0
   -2.4626   14.1882   -6.1155 H   0  0  0  0  0  0  0  0  0  0  0  0
   -0.6459   10.6195   -7.6335 H   0  0  0  0  0  0  0  0  0  0  0  0
    1.4555   14.3315   -5.9935 H   0  0  0  0  0  0  0  0  0  0  0  0
    0.1837   15.4928   -6.5038 H   0  0  0  0  0  0  0  0  0  0  0  0
    0.1522   14.7964   -4.8483 H   0  0  0  0  0  0  0  0  0  0  0  0
  1  2  2  0  0  0  0
  1  4  1  0  0  0  0
  1 12  1  0  0  0  0
  2  6  1  0  0  0  0
  3  4  2  0  0  0  0
  3  5  1  0  0  0  0
  5  6  1  0  0  0  0
  5  9  1  0  0  0  0
  6  7  2  0  0  0  0
  7  8  1  0  0  0  0
  7 10  1  0  0  0  0
  8  9  2  0  0  0  0
 10 14  2  3  0  0  0
 11 12  1  0  0  0  0
 12 13  2  0  0  0  0
 14 15  1  0  0  0  0
 14 19  1  0  0  0  0
 15 16  2  0  0  0  0
 16 17  1  0  0  0  0
 17 18  2  0  0  0  0
 17 20  1  0  0  0  0
 18 19  1  0  0  0  0
 20 21  2  0  0  0  0
 20 24  1  0  0  0  0
 21 22  1  0  0  0  0
 22 23  1  0  0  0  0
 22 25  1  0  0  0  0
 23 24  2  0  0  0  0
  2 26  1  0  0  0  0
  3 27  1  0  0  0  0
  4 28  1  0  0  0  0
  5 29  1  0  0  0  0
 10 30  1  0  0  0  0
 11 31  1  0  0  0  0
 11 32  1  0  0  0  0
 15 33  1  0  0  0  0
 16 34  1  0  0  0  0
 18 35  1  0  0  0  0
 19 36  1  0  0  0  0
 19 37  1  0  0  0  0
 21 38  1  0  0  0  0
 24 39  1  0  0  0  0
 25 40  1  0  0  0  0
 25 41  1  0  0  0  0
 25 42  1  0  0  0  0
M  END
> <Name>
32

> <IC50[uM]>
0.11

$$$$
32
  -OEChem-05192314333D
 Structure written by MMmdl.
 42 45  0     0  0  0  0  0  0999 V2000
   -6.3767   12.3649  -12.0150 C   0  0  0  0  0  0  0  0  0  0  0  0
   -6.5300   11.8201  -10.7355 C   0  0  0  0  0  0  0  0  0  0  0  0
   -7.7235   10.5758  -13.0283 C   0  0  0  0  0  0  0  0  0  0  0  0
   -6.9848   11.7731  -13.1297 C   0  0  0  0  0  0  0  0  0  0  0  0
   -7.8178   10.0121  -11.7526 C   0  0  0  0  0  0  0  0  0  0  0  0
   -7.2522   10.6205  -10.6098 C   0  0  0  0  0  0  0  0  0  0  0  0
   -7.6101    9.7439   -9.5117 C   0  0  0  0  0  0  0  0  0  0  0  0
   -8.2784    8.7249   -9.9778 N   0  0  0  0  0  0  0  0  0  0  0  0
   -8.4134    8.8570  -11.2978 N   0  0  0  0  0  0  0  0  0  0  0  0
   -7.3337    9.8935   -8.0288 C   0  0  0  0  0  0  0  0  0  0  0  0
   -4.4165   13.6746  -11.4876 N   0  0  0  0  0  0  0  0  0  0  0  0
   -5.5534   13.6276  -12.1919 C   0  0  0  0  0  0  0  0  0  0  0  0
   -5.9234   14.5178  -12.9405 O   0  0  0  0  0  0  0  0  0  0  0  0
   -5.9640   10.4853   -7.7356 C   0  0  0  0  0  0  0  0  0  0  0  0
   -4.8116    9.7640   -8.0536 C   0  0  0  0  0  0  0  0  0  0  0  0
   -3.5500   10.3127   -7.8058 C   0  0  0  0  0  0  0  0  0  0  0  0
   -3.4411   11.5873   -7.2364 C   0  0  0  0  0  0  0  0  0  0  0  0
   -4.5925   12.3023   -6.9174 C   0  0  0  0  0  0  0  0  0  0  0  0
   -5.8510   11.7510   -7.1622 C   0  0  0  0  0  0  0  0  0  0  0  0
   -2.0968   12.1763   -6.9669 C   0  0  0  0  0  0  0  0  0  0  0  0
   -1.7702   13.4221   -6.4317 C   0  0  0  0  0  0  0  0  0  0  0  0
   -0.4283   13.4864   -6.3849 N   0  0  0  0  0  0  0  0  0  0  0  0
    0.1730   12.4042   -6.8287 N   0  0  0  0  0  0  0  0  0  0  0  0
   -0.8019   11.5974   -7.2024 C   0  0  0  0  0  0  0  0  0  0  0  0
    0.3914   14.5951   -5.9029 C   0  0  0  0  0  0  0  0  0  0  0  0
   -6.1059   12.3069   -9.8697 H   0  0  0  0  0  0  0  0  0  0  0  0
   -8.1905   10.1197  -13.8887 H   0  0  0  0  0  0  0  0  0  0  0  0
   -7.6730   12.5260  -13.5414 H   0  0  0  0  0  0  0  0  0  0  0  0
   -6.1793   11.5781  -13.8530 H   0  0  0  0  0  0  0  0  0  0  0  0
   -8.0369    9.6092   -7.2600 H   0  0  0  0  0  0  0  0  0  0  0  0
   -3.8167   14.4716  -11.5590 H   0  0  0  0  0  0  0  0  0  0  0  0
   -4.1667   12.9127  -10.8899 H   0  0  0  0  0  0  0  0  0  0  0  0
   -4.8950    8.7804   -8.4918 H   0  0  0  0  0  0  0  0  0  0  0  0
   -2.6597    9.7538   -8.0534 H   0  0  0  0  0  0  0  0  0  0  0  0
   -4.5115   13.2861   -6.4794 H   0  0  0  0  0  0  0  0  0  0  0  0
   -6.3776   12.4489   -7.8298 H   0  0  0  0  0  0  0  0  0  0  0  0
   -6.3709   11.7071   -6.1938 H   0  0  0  0  0  0  0  0  0  0  0  0
   -2.4626   14.1882   -6.1155 H   0  0  0  0  0  0  0  0  0  0  0  0
   -0.6459   10.6195   -7.6335 H   0  0  0  0  0  0  0  0  0  0  0  0
    1.4555   14.3315   -5.9935 H   0  0  0  0  0  0  0  0  0  0  0  0
    0.1837   15.4928   -6.5038 H   0  0  0  0  0  0  0  0  0  0  0  0
    0.1522   14.7964   -4.8483 H   0  0  0  0  0  0  0  0  0  0  0  0
  1  2  2  0  0  0  0
  1  4  1  0  0  0  0
  1 12  1  0  0  0  0
  2  6  1  0  0  0  0
  3  4  1  0  0  0  0
  3  5  2  0  0  0  0
  5  6  1  0  0  0  0
  5  9  1  0  0  0  0
  6  7  2  0  0  0  0
  7  8  1  0  0  0  0
  7 10  1  0  0  0  0
  8  9  2  0  0  0  0
 10 14  2  3  0  0  0
 11 12  1  0  0  0  0
 12 13  2  0  0  0  0
 14 15  1  0  0  0  0
 14 19  1  0  0  0  0
 15 16  2  0  0  0  0
 16 17  1  0  0  0  0
 17 18  2  0  0  0  0
 17 20  1  0  0  0  0
 18 19  1  0  0  0  0
 20 21  2  0  0  0  0
 20 24  1  0  0  0  0
 21 22  1  0  0  0  0
 22 23  1  0  0  0  0
 22 25  1  0  0  0  0
 23 24  2  0  0  0  0
  2 26  1  0  0  0  0
  3 27  1  0  0  0  0
  4 28  1  0  0  0  0
  4 29  1  0  0  0  0
 10 30  1  0  0  0  0
 11 31  1  0  0  0  0
 11 32  1  0  0  0  0
 15 33  1  0  0  0  0
 16 34  1  0  0  0  0
 18 35  1  0  0  0  0
 19 36  1  0  0  0  0
 19 37  1  0  0  0  0
 21 38  1  0  0  0  0
 24 39  1  0  0  0  0
 25 40  1  0  0  0  0
 25 41  1  0  0  0  0
 25 42  1  0  0  0  0
M  END
> <Name>
32

> <IC50[uM]>
0.11

$$$$
32
  -OEChem-05192314333D
 Structure written by MMmdl.
 42 45  0     0  0  0  0  0  0999 V2000
   -6.3767   12.3649  -12.0150 C   0  0  0  0  0  0  0  0  0  0  0  0
   -6.5300   11.8201  -10.7355 C   0  0  0  0  0  0  0  0  0  0  0  0
   -7.7235   10.5758  -13.0283 C   0  0  0  0  0  0  0  0  0  0  0  0
   -6.9848   11.7731  -13.1297 C   0  0  0  0  0  0  0  0  0  0  0  0
   -7.8178   10.0121  -11.7526 C   0  0  0  0  0  0  0  0  0  0  0  0
   -7.2522   10.6205  -10.6098 C   0  0  0  0  0  0  0  0  0  0  0  0
   -7.6101    9.7439   -9.5117 C   0  0  0  0  0  0  0  0  0  0  0  0
   -8.2784    8.7249   -9.9778 N   0  0  0  0  0  0  0  0  0  0  0  0
   -8.4134    8.8570  -11.2978 N   0  0  0  0  0  0  0  0  0  0  0  0
   -7.3337    9.8935   -8.0288 C   0  0  0  0  0  0  0  0  0  0  0  0
   -4.4165   13.6746  -11.4876 N   0  0  0  0  0  0  0  0  0  0  0  0
   -5.5534   13.6276  -12.1919 C   0  0  0  0  0  0  0  0  0  0  0  0
   -5.9234   14.5178  -12.9405 O   0  0  0  0  0  0  0  0  0  0  0  0
   -5.9640   10.4853   -7.7356 C   0  0  0  0  0  0  0  0  0  0  0  0
   -4.8116    9.7640   -8.0536 C   0  0  0  0  0  0  0  0  0  0  0  0
   -3.5500   10.3127   -7.8058 C   0  0  0  0  0  0  0  0  0  0  0  0
   -3.4411   11.5873   -7.2364 C   0  0  0  0  0  0  0  0  0  0  0  0
   -4.5925   12.3023   -6.9174 C   0  0  0  0  0  0  0  0  0  0  0  0
   -5.8510   11.7510   -7.1622 C   0  0  0  0  0  0  0  0  0  0  0  0
   -2.0968   12.1763   -6.9669 C   0  0  0  0  0  0  0  0  0  0  0  0
   -1.7702   13.4221   -6.4317 C   0  0  0  0  0  0  0  0  0  0  0  0
   -0.4283   13.4864   -6.3849 N   0  0  0  0  0  0  0  0  0  0  0  0
    0.1730   12.4042   -6.8287 N   0  0  0  0  0  0  0  0  0  0  0  0
   -0.8019   11.5974   -7.2024 C   0  0  0  0  0  0  0  0  0  0  0  0
    0.3914   14.5951   -5.9029 C   0  0  0  0  0  0  0  0  0  0  0  0
   -5.5219   11.6382  -10.3348 H   0  0  0  0  0  0  0  0  0  0  0  0
   -7.0394   12.5745  -10.1179 H   0  0  0  0  0  0  0  0  0  0  0  0
   -8.1905   10.1197  -13.8887 H   0  0  0  0  0  0  0  0  0  0  0  0
   -6.8851   12.2475  -14.0948 H   0  0  0  0  0  0  0  0  0  0  0  0
   -8.0369    9.6092   -7.2600 H   0  0  0  0  0  0  0  0  0  0  0  0
   -3.8167   14.4716  -11.5590 H   0  0  0  0  0  0  0  0  0  0  0  0
   -4.1667   12.9127  -10.8899 H   0  0  0  0  0  0  0  0  0  0  0  0
   -4.8950    8.7804   -8.4918 H   0  0  0  0  0  0  0  0  0  0  0  0
   -2.6597    9.7538   -8.0534 H   0  0  0  0  0  0  0  0  0  0  0  0
   -3.4383   12.0370   -8.2403 H   0  0  0  0  0  0  0  0  0  0  0  0
   -4.5115   13.2861   -6.4794 H   0  0  0  0  0  0  0  0  0  0  0  0
   -6.7408   12.3071   -6.9064 H   0  0  0  0  0  0  0  0  0  0  0  0
   -2.4626   14.1882   -6.1155 H   0  0  0  0  0  0  0  0  0  0  0  0
   -0.6459   10.6195   -7.6335 H   0  0  0  0  0  0  0  0  0  0  0  0
    1.4555   14.3315   -5.9935 H   0  0  0  0  0  0  0  0  0  0  0  0
    0.1837   15.4928   -6.5038 H   0  0  0  0  0  0  0  0  0  0  0  0
    0.1522   14.7964   -4.8483 H   0  0  0  0  0  0  0  0  0  0  0  0
  1  2  1  0  0  0  0
  1  4  2  0  0  0  0
  1 12  1  0  0  0  0
  2  6  1  0  0  0  0
  3  4  1  0  0  0  0
  3  5  2  0  0  0  0
  5  6  1  0  0  0  0
  5  9  1  0  0  0  0
  6  7  2  0  0  0  0
  7  8  1  0  0  0  0
  7 10  1  0  0  0  0
  8  9  2  0  0  0  0
 10 14  2  0  0  0  0
 11 12  1  0  0  0  0
 12 13  2  0  0  0  0
 14 15  1  0  0  0  0
 14 19  1  0  0  0  0
 15 16  2  0  0  0  0
 16 17  1  0  0  0  0
 17 18  1  0  0  0  0
 17 20  1  0  0  0  0
 18 19  2  0  0  0  0
 20 21  2  0  0  0  0
 20 24  1  0  0  0  0
 21 22  1  0  0  0  0
 22 23  1  0  0  0  0
 22 25  1  0  0  0  0
 23 24  2  0  0  0  0
  2 26  1  0  0  0  0
  2 27  1  0  0  0  0
  3 28  1  0  0  0  0
  4 29  1  0  0  0  0
 10 30  1  0  0  0  0
 11 31  1  0  0  0  0
 11 32  1  0  0  0  0
 15 33  1  0  0  0  0
 16 34  1  0  0  0  0
 17 35  1  0  0  0  0
 18 36  1  0  0  0  0
 19 37  1  0  0  0  0
 21 38  1  0  0  0  0
 24 39  1  0  0  0  0
 25 40  1  0  0  0  0
 25 41  1  0  0  0  0
 25 42  1  0  0  0  0
M  END
> <Name>
32

> <IC50[uM]>
0.11

$$$$
32
  -OEChem-05192314333D
 Structure written by MMmdl.
 42 45  0     0  0  0  0  0  0999 V2000
   -6.3767   12.3649  -12.0150 C   0  0  0  0  0  0  0  0  0  0  0  0
   -6.5300   11.8201  -10.7355 C   0  0  0  0  0  0  0  0  0  0  0  0
   -7.7235   10.5758  -13.0283 C   0  0  0  0  0  0  0  0  0  0  0  0
   -6.9848   11.7731  -13.1297 C   0  0  0  0  0  0  0  0  0  0  0  0
   -7.8178   10.0121  -11.7526 C   0  0  0  0  0  0  0  0  0  0  0  0
   -7.2522   10.6205  -10.6098 C   0  0  0  0  0  0  0  0  0  0  0  0
   -7.6101    9.7439   -9.5117 C   0  0  0  0  0  0  0  0  0  0  0  0
   -8.2784    8.7249   -9.9778 N   0  0  0  0  0  0  0  0  0  0  0  0
   -8.4134    8.8570  -11.2978 N   0  0  0  0  0  0  0  0  0  0  0  0
   -7.3337    9.8935   -8.0288 C   0  0  0  0  0  0  0  0  0  0  0  0
   -4.4165   13.6746  -11.4876 N   0  0  0  0  0  0  0  0  0  0  0  0
   -5.5534   13.6276  -12.1919 C   0  0  0  0  0  0  0  0  0  0  0  0
   -5.9234   14.5178  -12.9405 O   0  0  0  0  0  0  0  0  0  0  0  0
   -5.9640   10.4853   -7.7356 C   0  0  0  0  0  0  0  0  0  0  0  0
   -4.8116    9.7640   -8.0536 C   0  0  0  0  0  0  0  0  0  0  0  0
   -3.5500   10.3127   -7.8058 C   0  0  0  0  0  0  0  0  0  0  0  0
   -3.4411   11.5873   -7.2364 C   0  0  0  0  0  0  0  0  0  0  0  0
   -4.5925   12.3023   -6.9174 C   0  0  0  0  0  0  0  0  0  0  0  0
   -5.8510   11.7510   -7.1622 C   0  0  0  0  0  0  0  0  0  0  0  0
   -2.0968   12.1763   -6.9669 C   0  0  0  0  0  0  0  0  0  0  0  0
   -1.7702   13.4221   -6.4317 C   0  0  0  0  0  0  0  0  0  0  0  0
   -0.4283   13.4864   -6.3849 N   0  0  0  0  0  0  0  0  0  0  0  0
    0.1730   12.4042   -6.8287 N   0  0  0  0  0  0  0  0  0  0  0  0
   -0.8019   11.5974   -7.2024 C   0  0  0  0  0  0  0  0  0  0  0  0
    0.3914   14.5951   -5.9029 C   0  0  0  0  0  0  0  0  0  0  0  0
   -5.5219   11.6382  -10.3348 H   0  0  0  0  0  0  0  0  0  0  0  0
   -7.0394   12.5745  -10.1179 H   0  0  0  0  0  0  0  0  0  0  0  0
   -8.1905   10.1197  -13.8887 H   0  0  0  0  0  0  0  0  0  0  0  0
   -6.8851   12.2475  -14.0948 H   0  0  0  0  0  0  0  0  0  0  0  0
   -8.0369    9.6092   -7.2600 H   0  0  0  0  0  0  0  0  0  0  0  0
   -3.8167   14.4716  -11.5590 H   0  0  0  0  0  0  0  0  0  0  0  0
   -4.1667   12.9127  -10.8899 H   0  0  0  0  0  0  0  0  0  0  0  0
   -4.8950    8.7804   -8.4918 H   0  0  0  0  0  0  0  0  0  0  0  0
   -2.6597    9.7538   -8.0534 H   0  0  0  0  0  0  0  0  0  0  0  0
   -4.5115   13.2861   -6.4794 H   0  0  0  0  0  0  0  0  0  0  0  0
   -6.3776   12.4489   -7.8298 H   0  0  0  0  0  0  0  0  0  0  0  0
   -6.3709   11.7071   -6.1938 H   0  0  0  0  0  0  0  0  0  0  0  0
   -2.4626   14.1882   -6.1155 H   0  0  0  0  0  0  0  0  0  0  0  0
   -0.6459   10.6195   -7.6335 H   0  0  0  0  0  0  0  0  0  0  0  0
    1.4555   14.3315   -5.9935 H   0  0  0  0  0  0  0  0  0  0  0  0
    0.1837   15.4928   -6.5038 H   0  0  0  0  0  0  0  0  0  0  0  0
    0.1522   14.7964   -4.8483 H   0  0  0  0  0  0  0  0  0  0  0  0
  1  2  1  0  0  0  0
  1  4  2  0  0  0  0
  1 12  1  0  0  0  0
  2  6  1  0  0  0  0
  3  4  1  0  0  0  0
  3  5  2  0  0  0  0
  5  6  1  0  0  0  0
  5  9  1  0  0  0  0
  6  7  2  0  0  0  0
  7  8  1  0  0  0  0
  7 10  1  0  0  0  0
  8  9  2  0  0  0  0
 10 14  2  3  0  0  0
 11 12  1  0  0  0  0
 12 13  2  0  0  0  0
 14 15  1  0  0  0  0
 14 19  1  0  0  0  0
 15 16  2  0  0  0  0
 16 17  1  0  0  0  0
 17 18  2  0  0  0  0
 17 20  1  0  0  0  0
 18 19  1  0  0  0  0
 20 21  2  0  0  0  0
 20 24  1  0  0  0  0
 21 22  1  0  0  0  0
 22 23  1  0  0  0  0
 22 25  1  0  0  0  0
 23 24  2  0  0  0  0
  2 26  1  0  0  0  0
  2 27  1  0  0  0  0
  3 28  1  0  0  0  0
  4 29  1  0  0  0  0
 10 30  1  0  0  0  0
 11 31  1  0  0  0  0
 11 32  1  0  0  0  0
 15 33  1  0  0  0  0
 16 34  1  0  0  0  0
 18 35  1  0  0  0  0
 19 36  1  0  0  0  0
 19 37  1  0  0  0  0
 21 38  1  0  0  0  0
 24 39  1  0  0  0  0
 25 40  1  0  0  0  0
 25 41  1  0  0  0  0
 25 42  1  0  0  0  0
M  END
> <Name>
32

> <IC50[uM]>
0.11

$$$$
32
  -OEChem-05192314333D
 Structure written by MMmdl.
 42 45  0     1  0  0  0  0  0999 V2000
   -6.3767   12.3649  -12.0150 C   0  0  0  0  0  0  0  0  0  0  0  0
   -6.5300   11.8201  -10.7355 C   0  0  0  0  0  0  0  0  0  0  0  0
   -7.7235   10.5758  -13.0283 C   0  0  0  0  0  0  0  0  0  0  0  0
   -6.9848   11.7731  -13.1297 C   0  0  0  0  0  0  0  0  0  0  0  0
   -7.8178   10.0121  -11.7526 C   0  0  3  0  0  0  0  0  0  0  0  0
   -7.2522   10.6205  -10.6098 C   0  0  0  0  0  0  0  0  0  0  0  0
   -7.6101    9.7439   -9.5117 C   0  0  0  0  0  0  0  0  0  0  0  0
   -8.2784    8.7249   -9.9778 N   0  0  0  0  0  0  0  0  0  0  0  0
   -8.4134    8.8570  -11.2978 N   0  0  0  0  0  0  0  0  0  0  0  0
   -7.3337    9.8935   -8.0288 C   0  0  0  0  0  0  0  0  0  0  0  0
   -4.4165   13.6746  -11.4876 N   0  0  0  0  0  0  0  0  0  0  0  0
   -5.5534   13.6276  -12.1919 C   0  0  0  0  0  0  0  0  0  0  0  0
   -5.9234   14.5178  -12.9405 O   0  0  0  0  0  0  0  0  0  0  0  0
   -5.9640   10.4853   -7.7356 C   0  0  0  0  0  0  0  0  0  0  0  0
   -4.8116    9.7640   -8.0536 C   0  0  0  0  0  0  0  0  0  0  0  0
   -3.5500   10.3127   -7.8058 C   0  0  0  0  0  0  0  0  0  0  0  0
   -3.4411   11.5873   -7.2364 C   0  0  0  0  0  0  0  0  0  0  0  0
   -4.5925   12.3023   -6.9174 C   0  0  0  0  0  0  0  0  0  0  0  0
   -5.8510   11.7510   -7.1622 C   0  0  0  0  0  0  0  0  0  0  0  0
   -2.0968   12.1763   -6.9669 C   0  0  0  0  0  0  0  0  0  0  0  0
   -1.7702   13.4221   -6.4317 C   0  0  0  0  0  0  0  0  0  0  0  0
   -0.4283   13.4864   -6.3849 N   0  0  0  0  0  0  0  0  0  0  0  0
    0.1730   12.4042   -6.8287 N   0  0  0  0  0  0  0  0  0  0  0  0
   -0.8019   11.5974   -7.2024 C   0  0  0  0  0  0  0  0  0  0  0  0
    0.3914   14.5951   -5.9029 C   0  0  0  0  0  0  0  0  0  0  0  0
   -6.1059   12.3069   -9.8697 H   0  0  0  0  0  0  0  0  0  0  0  0
   -8.1905   10.1197  -13.8887 H   0  0  0  0  0  0  0  0  0  0  0  0
   -6.8851   12.2475  -14.0948 H   0  0  0  0  0  0  0  0  0  0  0  0
   -6.8808    9.4624  -11.9250 H   0  0  0  0  0  0  0  0  0  0  0  0
   -8.0369    9.6092   -7.2600 H   0  0  0  0  0  0  0  0  0  0  0  0
   -3.9109   14.5222  -11.6486 H   0  0  0  0  0  0  0  0  0  0  0  0
   -5.2907   15.2263  -12.9277 H   0  0  0  0  0  0  0  0  0  0  0  0
   -4.8950    8.7804   -8.4918 H   0  0  0  0  0  0  0  0  0  0  0  0
   -2.6597    9.7538   -8.0534 H   0  0  0  0  0  0  0  0  0  0  0  0
   -3.4383   12.0370   -8.2403 H   0  0  0  0  0  0  0  0  0  0  0  0
   -4.5115   13.2861   -6.4794 H   0  0  0  0  0  0  0  0  0  0  0  0
   -6.7408   12.3071   -6.9064 H   0  0  0  0  0  0  0  0  0  0  0  0
   -2.4626   14.1882   -6.1155 H   0  0  0  0  0  0  0  0  0  0  0  0
   -0.6459   10.6195   -7.6335 H   0  0  0  0  0  0  0  0  0  0  0  0
    1.4555   14.3315   -5.9935 H   0  0  0  0  0  0  0  0  0  0  0  0
    0.1837   15.4928   -6.5038 H   0  0  0  0  0  0  0  0  0  0  0  0
    0.1522   14.7964   -4.8483 H   0  0  0  0  0  0  0  0  0  0  0  0
  1  2  2  0  0  0  0
  1  4  1  0  0  0  0
  1 12  1  0  0  0  0
  2  6  1  0  0  0  0
  3  4  2  0  0  0  0
  3  5  1  0  0  0  0
  5  6  1  0  0  0  0
  5  9  1  0  0  0  0
  6  7  2  0  0  0  0
  7  8  1  0  0  0  0
  7 10  1  0  0  0  0
  8  9  2  0  0  0  0
 10 14  2  0  0  0  0
 11 12  2  0  0  0  0
 12 13  1  0  0  0  0
 14 15  1  0  0  0  0
 14 19  1  0  0  0  0
 15 16  2  0  0  0  0
 16 17  1  0  0  0  0
 17 18  1  0  0  0  0
 17 20  1  0  0  0  0
 18 19  2  0  0  0  0
 20 21  2  0  0  0  0
 20 24  1  0  0  0  0
 21 22  1  0  0  0  0
 22 23  1  0  0  0  0
 22 25  1  0  0  0  0
 23 24  2  0  0  0  0
  2 26  1  0  0  0  0
  3 27  1  0  0  0  0
  4 28  1  0  0  0  0
  5 29  1  0  0  0  0
 10 30  1  0  0  0  0
 11 31  1  0  0  0  0
 13 32  1  0  0  0  0
 15 33  1  0  0  0  0
 16 34  1  0  0  0  0
 17 35  1  0  0  0  0
 18 36  1  0  0  0  0
 19 37  1  0  0  0  0
 21 38  1  0  0  0  0
 24 39  1  0  0  0  0
 25 40  1  0  0  0  0
 25 41  1  0  0  0  0
 25 42  1  0  0  0  0
M  END
> <Name>
32

> <IC50[uM]>
0.11

$$$$
32
  -OEChem-05192314333D
 Structure written by MMmdl.
 42 45  0     0  0  0  0  0  0999 V2000
   -6.3767   12.3649  -12.0150 C   0  0  0  0  0  0  0  0  0  0  0  0
   -6.5300   11.8201  -10.7355 C   0  0  0  0  0  0  0  0  0  0  0  0
   -7.7235   10.5758  -13.0283 C   0  0  0  0  0  0  0  0  0  0  0  0
   -6.9848   11.7731  -13.1297 C   0  0  0  0  0  0  0  0  0  0  0  0
   -7.8178   10.0121  -11.7526 C   0  0  0  0  0  0  0  0  0  0  0  0
   -7.2522   10.6205  -10.6098 C   0  0  0  0  0  0  0  0  0  0  0  0
   -7.6101    9.7439   -9.5117 C   0  0  0  0  0  0  0  0  0  0  0  0
   -8.2784    8.7249   -9.9778 N   0  0  0  0  0  0  0  0  0  0  0  0
   -8.4134    8.8570  -11.2978 N   0  0  0  0  0  0  0  0  0  0  0  0
   -7.3337    9.8935   -8.0288 C   0  0  0  0  0  0  0  0  0  0  0  0
   -4.4165   13.6746  -11.4876 N   0  0  0  0  0  0  0  0  0  0  0  0
   -5.5534   13.6276  -12.1919 C   0  0  0  0  0  0  0  0  0  0  0  0
   -5.9234   14.5178  -12.9405 O   0  0  0  0  0  0  0  0  0  0  0  0
   -5.9640   10.4853   -7.7356 C   0  0  0  0  0  0  0  0  0  0  0  0
   -4.8116    9.7640   -8.0536 C   0  0  0  0  0  0  0  0  0  0  0  0
   -3.5500   10.3127   -7.8058 C   0  0  0  0  0  0  0  0  0  0  0  0
   -3.4411   11.5873   -7.2364 C   0  0  0  0  0  0  0  0  0  0  0  0
   -4.5925   12.3023   -6.9174 C   0  0  0  0  0  0  0  0  0  0  0  0
   -5.8510   11.7510   -7.1622 C   0  0  0  0  0  0  0  0  0  0  0  0
   -2.0968   12.1763   -6.9669 C   0  0  0  0  0  0  0  0  0  0  0  0
   -1.7702   13.4221   -6.4317 C   0  0  0  0  0  0  0  0  0  0  0  0
   -0.4283   13.4864   -6.3849 N   0  0  0  0  0  0  0  0  0  0  0  0
    0.1730   12.4042   -6.8287 N   0  0  0  0  0  0  0  0  0  0  0  0
   -0.8019   11.5974   -7.2024 C   0  0  0  0  0  0  0  0  0  0  0  0
    0.3914   14.5951   -5.9029 C   0  0  0  0  0  0  0  0  0  0  0  0
   -6.1059   12.3069   -9.8697 H   0  0  0  0  0  0  0  0  0  0  0  0
   -8.1905   10.1197  -13.8887 H   0  0  0  0  0  0  0  0  0  0  0  0
   -7.6730   12.5260  -13.5414 H   0  0  0  0  0  0  0  0  0  0  0  0
   -6.1793   11.5781  -13.8530 H   0  0  0  0  0  0  0  0  0  0  0  0
   -8.0369    9.6092   -7.2600 H   0  0  0  0  0  0  0  0  0  0  0  0
   -3.9109   14.5222  -11.6486 H   0  0  0  0  0  0  0  0  0  0  0  0
   -5.2907   15.2263  -12.9277 H   0  0  0  0  0  0  0  0  0  0  0  0
   -4.8950    8.7804   -8.4918 H   0  0  0  0  0  0  0  0  0  0  0  0
   -2.6597    9.7538   -8.0534 H   0  0  0  0  0  0  0  0  0  0  0  0
   -3.4383   12.0370   -8.2403 H   0  0  0  0  0  0  0  0  0  0  0  0
   -4.5115   13.2861   -6.4794 H   0  0  0  0  0  0  0  0  0  0  0  0
   -6.7408   12.3071   -6.9064 H   0  0  0  0  0  0  0  0  0  0  0  0
   -2.4626   14.1882   -6.1155 H   0  0  0  0  0  0  0  0  0  0  0  0
   -0.6459   10.6195   -7.6335 H   0  0  0  0  0  0  0  0  0  0  0  0
    1.4555   14.3315   -5.9935 H   0  0  0  0  0  0  0  0  0  0  0  0
    0.1837   15.4928   -6.5038 H   0  0  0  0  0  0  0  0  0  0  0  0
    0.1522   14.7964   -4.8483 H   0  0  0  0  0  0  0  0  0  0  0  0
  1  2  2  0  0  0  0
  1  4  1  0  0  0  0
  1 12  1  0  0  0  0
  2  6  1  0  0  0  0
  3  4  1  0  0  0  0
  3  5  2  0  0  0  0
  5  6  1  0  0  0  0
  5  9  1  0  0  0  0
  6  7  2  0  0  0  0
  7  8  1  0  0  0  0
  7 10  1  0  0  0  0
  8  9  2  0  0  0  0
 10 14  2  0  0  0  0
 11 12  2  0  0  0  0
 12 13  1  0  0  0  0
 14 15  1  0  0  0  0
 14 19  1  0  0  0  0
 15 16  2  0  0  0  0
 16 17  1  0  0  0  0
 17 18  1  0  0  0  0
 17 20  1  0  0  0  0
 18 19  2  0  0  0  0
 20 21  2  0  0  0  0
 20 24  1  0  0  0  0
 21 22  1  0  0  0  0
 22 23  1  0  0  0  0
 22 25  1  0  0  0  0
 23 24  2  0  0  0  0
  2 26  1  0  0  0  0
  3 27  1  0  0  0  0
  4 28  1  0  0  0  0
  4 29  1  0  0  0  0
 10 30  1  0  0  0  0
 11 31  1  0  0  0  0
 13 32  1  0  0  0  0
 15 33  1  0  0  0  0
 16 34  1  0  0  0  0
 17 35  1  0  0  0  0
 18 36  1  0  0  0  0
 19 37  1  0  0  0  0
 21 38  1  0  0  0  0
 24 39  1  0  0  0  0
 25 40  1  0  0  0  0
 25 41  1  0  0  0  0
 25 42  1  0  0  0  0
M  END
> <Name>
32

> <IC50[uM]>
0.11

$$$$
32
  -OEChem-05192314333D
 Structure written by MMmdl.
 42 45  0     1  0  0  0  0  0999 V2000
   -6.3767   12.3649  -12.0150 C   0  0  0  0  0  0  0  0  0  0  0  0
   -6.5300   11.8201  -10.7355 C   0  0  0  0  0  0  0  0  0  0  0  0
   -7.7235   10.5758  -13.0283 C   0  0  0  0  0  0  0  0  0  0  0  0
   -6.9848   11.7731  -13.1297 C   0  0  0  0  0  0  0  0  0  0  0  0
   -7.8178   10.0121  -11.7526 C   0  0  3  0  0  0  0  0  0  0  0  0
   -7.2522   10.6205  -10.6098 C   0  0  0  0  0  0  0  0  0  0  0  0
   -7.6101    9.7439   -9.5117 C   0  0  0  0  0  0  0  0  0  0  0  0
   -8.2784    8.7249   -9.9778 N   0  0  0  0  0  0  0  0  0  0  0  0
   -8.4134    8.8570  -11.2978 N   0  0  0  0  0  0  0  0  0  0  0  0
   -7.3337    9.8935   -8.0288 C   0  0  0  0  0  0  0  0  0  0  0  0
   -4.4165   13.6746  -11.4876 N   0  0  0  0  0  0  0  0  0  0  0  0
   -5.5534   13.6276  -12.1919 C   0  0  0  0  0  0  0  0  0  0  0  0
   -5.9234   14.5178  -12.9405 O   0  0  0  0  0  0  0  0  0  0  0  0
   -5.9640   10.4853   -7.7356 C   0  0  0  0  0  0  0  0  0  0  0  0
   -4.8116    9.7640   -8.0536 C   0  0  0  0  0  0  0  0  0  0  0  0
   -3.5500   10.3127   -7.8058 C   0  0  0  0  0  0  0  0  0  0  0  0
   -3.4411   11.5873   -7.2364 C   0  0  0  0  0  0  0  0  0  0  0  0
   -4.5925   12.3023   -6.9174 C   0  0  0  0  0  0  0  0  0  0  0  0
   -5.8510   11.7510   -7.1622 C   0  0  0  0  0  0  0  0  0  0  0  0
   -2.0968   12.1763   -6.9669 C   0  0  0  0  0  0  0  0  0  0  0  0
   -1.7702   13.4221   -6.4317 C   0  0  0  0  0  0  0  0  0  0  0  0
   -0.4283   13.4864   -6.3849 N   0  0  0  0  0  0  0  0  0  0  0  0
    0.1730   12.4042   -6.8287 N   0  0  0  0  0  0  0  0  0  0  0  0
   -0.8019   11.5974   -7.2024 C   0  0  0  0  0  0  0  0  0  0  0  0
    0.3914   14.5951   -5.9029 C   0  0  0  0  0  0  0  0  0  0  0  0
   -6.1059   12.3069   -9.8697 H   0  0  0  0  0  0  0  0  0  0  0  0
   -8.1905   10.1197  -13.8887 H   0  0  0  0  0  0  0  0  0  0  0  0
   -6.8851   12.2475  -14.0948 H   0  0  0  0  0  0  0  0  0  0  0  0
   -6.8808    9.4624  -11.9250 H   0  0  0  0  0  0  0  0  0  0  0  0
   -8.0369    9.6092   -7.2600 H   0  0  0  0  0  0  0  0  0  0  0  0
   -3.9109   14.5222  -11.6486 H   0  0  0  0  0  0  0  0  0  0  0  0
   -5.2907   15.2263  -12.9277 H   0  0  0  0  0  0  0  0  0  0  0  0
   -4.8950    8.7804   -8.4918 H   0  0  0  0  0  0  0  0  0  0  0  0
   -2.6597    9.7538   -8.0534 H   0  0  0  0  0  0  0  0  0  0  0  0
   -4.5115   13.2861   -6.4794 H   0  0  0  0  0  0  0  0  0  0  0  0
   -6.3776   12.4489   -7.8298 H   0  0  0  0  0  0  0  0  0  0  0  0
   -6.3709   11.7071   -6.1938 H   0  0  0  0  0  0  0  0  0  0  0  0
   -2.4626   14.1882   -6.1155 H   0  0  0  0  0  0  0  0  0  0  0  0
   -0.6459   10.6195   -7.6335 H   0  0  0  0  0  0  0  0  0  0  0  0
    1.4555   14.3315   -5.9935 H   0  0  0  0  0  0  0  0  0  0  0  0
    0.1837   15.4928   -6.5038 H   0  0  0  0  0  0  0  0  0  0  0  0
    0.1522   14.7964   -4.8483 H   0  0  0  0  0  0  0  0  0  0  0  0
  1  2  2  0  0  0  0
  1  4  1  0  0  0  0
  1 12  1  0  0  0  0
  2  6  1  0  0  0  0
  3  4  2  0  0  0  0
  3  5  1  0  0  0  0
  5  6  1  0  0  0  0
  5  9  1  0  0  0  0
  6  7  2  0  0  0  0
  7  8  1  0  0  0  0
  7 10  1  0  0  0  0
  8  9  2  0  0  0  0
 10 14  2  3  0  0  0
 11 12  2  0  0  0  0
 12 13  1  0  0  0  0
 14 15  1  0  0  0  0
 14 19  1  0  0  0  0
 15 16  2  0  0  0  0
 16 17  1  0  0  0  0
 17 18  2  0  0  0  0
 17 20  1  0  0  0  0
 18 19  1  0  0  0  0
 20 21  2  0  0  0  0
 20 24  1  0  0  0  0
 21 22  1  0  0  0  0
 22 23  1  0  0  0  0
 22 25  1  0  0  0  0
 23 24  2  0  0  0  0
  2 26  1  0  0  0  0
  3 27  1  0  0  0  0
  4 28  1  0  0  0  0
  5 29  1  0  0  0  0
 10 30  1  0  0  0  0
 11 31  1  0  0  0  0
 13 32  1  0  0  0  0
 15 33  1  0  0  0  0
 16 34  1  0  0  0  0
 18 35  1  0  0  0  0
 19 36  1  0  0  0  0
 19 37  1  0  0  0  0
 21 38  1  0  0  0  0
 24 39  1  0  0  0  0
 25 40  1  0  0  0  0
 25 41  1  0  0  0  0
 25 42  1  0  0  0  0
M  END
> <Name>
32

> <IC50[uM]>
0.11

$$$$
32
  -OEChem-05192314333D
 Structure written by MMmdl.
 42 45  0     0  0  0  0  0  0999 V2000
   -6.3767   12.3649  -12.0150 C   0  0  0  0  0  0  0  0  0  0  0  0
   -6.5300   11.8201  -10.7355 C   0  0  0  0  0  0  0  0  0  0  0  0
   -7.7235   10.5758  -13.0283 C   0  0  0  0  0  0  0  0  0  0  0  0
   -6.9848   11.7731  -13.1297 C   0  0  0  0  0  0  0  0  0  0  0  0
   -7.8178   10.0121  -11.7526 C   0  0  0  0  0  0  0  0  0  0  0  0
   -7.2522   10.6205  -10.6098 C   0  0  0  0  0  0  0  0  0  0  0  0
   -7.6101    9.7439   -9.5117 C   0  0  0  0  0  0  0  0  0  0  0  0
   -8.2784    8.7249   -9.9778 N   0  0  0  0  0  0  0  0  0  0  0  0
   -8.4134    8.8570  -11.2978 N   0  0  0  0  0  0  0  0  0  0  0  0
   -7.3337    9.8935   -8.0288 C   0  0  0  0  0  0  0  0  0  0  0  0
   -4.4165   13.6746  -11.4876 N   0  0  0  0  0  0  0  0  0  0  0  0
   -5.5534   13.6276  -12.1919 C   0  0  0  0  0  0  0  0  0  0  0  0
   -5.9234   14.5178  -12.9405 O   0  0  0  0  0  0  0  0  0  0  0  0
   -5.9640   10.4853   -7.7356 C   0  0  0  0  0  0  0  0  0  0  0  0
   -4.8116    9.7640   -8.0536 C   0  0  0  0  0  0  0  0  0  0  0  0
   -3.5500   10.3127   -7.8058 C   0  0  0  0  0  0  0  0  0  0  0  0
   -3.4411   11.5873   -7.2364 C   0  0  0  0  0  0  0  0  0  0  0  0
   -4.5925   12.3023   -6.9174 C   0  0  0  0  0  0  0  0  0  0  0  0
   -5.8510   11.7510   -7.1622 C   0  0  0  0  0  0  0  0  0  0  0  0
   -2.0968   12.1763   -6.9669 C   0  0  0  0  0  0  0  0  0  0  0  0
   -1.7702   13.4221   -6.4317 C   0  0  0  0  0  0  0  0  0  0  0  0
   -0.4283   13.4864   -6.3849 N   0  0  0  0  0  0  0  0  0  0  0  0
    0.1730   12.4042   -6.8287 N   0  0  0  0  0  0  0  0  0  0  0  0
   -0.8019   11.5974   -7.2024 C   0  0  0  0  0  0  0  0  0  0  0  0
    0.3914   14.5951   -5.9029 C   0  0  0  0  0  0  0  0  0  0  0  0
   -6.1059   12.3069   -9.8697 H   0  0  0  0  0  0  0  0  0  0  0  0
   -8.1905   10.1197  -13.8887 H   0  0  0  0  0  0  0  0  0  0  0  0
   -7.6730   12.5260  -13.5414 H   0  0  0  0  0  0  0  0  0  0  0  0
   -6.1793   11.5781  -13.8530 H   0  0  0  0  0  0  0  0  0  0  0  0
   -8.0369    9.6092   -7.2600 H   0  0  0  0  0  0  0  0  0  0  0  0
   -3.9109   14.5222  -11.6486 H   0  0  0  0  0  0  0  0  0  0  0  0
   -5.2907   15.2263  -12.9277 H   0  0  0  0  0  0  0  0  0  0  0  0
   -4.8950    8.7804   -8.4918 H   0  0  0  0  0  0  0  0  0  0  0  0
   -2.6597    9.7538   -8.0534 H   0  0  0  0  0  0  0  0  0  0  0  0
   -4.5115   13.2861   -6.4794 H   0  0  0  0  0  0  0  0  0  0  0  0
   -6.3776   12.4489   -7.8298 H   0  0  0  0  0  0  0  0  0  0  0  0
   -6.3709   11.7071   -6.1938 H   0  0  0  0  0  0  0  0  0  0  0  0
   -2.4626   14.1882   -6.1155 H   0  0  0  0  0  0  0  0  0  0  0  0
   -0.6459   10.6195   -7.6335 H   0  0  0  0  0  0  0  0  0  0  0  0
    1.4555   14.3315   -5.9935 H   0  0  0  0  0  0  0  0  0  0  0  0
    0.1837   15.4928   -6.5038 H   0  0  0  0  0  0  0  0  0  0  0  0
    0.1522   14.7964   -4.8483 H   0  0  0  0  0  0  0  0  0  0  0  0
  1  2  2  0  0  0  0
  1  4  1  0  0  0  0
  1 12  1  0  0  0  0
  2  6  1  0  0  0  0
  3  4  1  0  0  0  0
  3  5  2  0  0  0  0
  5  6  1  0  0  0  0
  5  9  1  0  0  0  0
  6  7  2  0  0  0  0
  7  8  1  0  0  0  0
  7 10  1  0  0  0  0
  8  9  2  0  0  0  0
 10 14  2  3  0  0  0
 11 12  2  0  0  0  0
 12 13  1  0  0  0  0
 14 15  1  0  0  0  0
 14 19  1  0  0  0  0
 15 16  2  0  0  0  0
 16 17  1  0  0  0  0
 17 18  2  0  0  0  0
 17 20  1  0  0  0  0
 18 19  1  0  0  0  0
 20 21  2  0  0  0  0
 20 24  1  0  0  0  0
 21 22  1  0  0  0  0
 22 23  1  0  0  0  0
 22 25  1  0  0  0  0
 23 24  2  0  0  0  0
  2 26  1  0  0  0  0
  3 27  1  0  0  0  0
  4 28  1  0  0  0  0
  4 29  1  0  0  0  0
 10 30  1  0  0  0  0
 11 31  1  0  0  0  0
 13 32  1  0  0  0  0
 15 33  1  0  0  0  0
 16 34  1  0  0  0  0
 18 35  1  0  0  0  0
 19 36  1  0  0  0  0
 19 37  1  0  0  0  0
 21 38  1  0  0  0  0
 24 39  1  0  0  0  0
 25 40  1  0  0  0  0
 25 41  1  0  0  0  0
 25 42  1  0  0  0  0
M  END
> <Name>
32

> <IC50[uM]>
0.11

$$$$
32
  -OEChem-05192314333D
 Structure written by MMmdl.
 42 45  0     0  0  0  0  0  0999 V2000
   -6.3767   12.3649  -12.0150 C   0  0  0  0  0  0  0  0  0  0  0  0
   -6.5300   11.8201  -10.7355 C   0  0  0  0  0  0  0  0  0  0  0  0
   -7.7235   10.5758  -13.0283 C   0  0  0  0  0  0  0  0  0  0  0  0
   -6.9848   11.7731  -13.1297 C   0  0  0  0  0  0  0  0  0  0  0  0
   -7.8178   10.0121  -11.7526 C   0  0  0  0  0  0  0  0  0  0  0  0
   -7.2522   10.6205  -10.6098 C   0  0  0  0  0  0  0  0  0  0  0  0
   -7.6101    9.7439   -9.5117 C   0  0  0  0  0  0  0  0  0  0  0  0
   -8.2784    8.7249   -9.9778 N   0  0  0  0  0  0  0  0  0  0  0  0
   -8.4134    8.8570  -11.2978 N   0  0  0  0  0  0  0  0  0  0  0  0
   -7.3337    9.8935   -8.0288 C   0  0  0  0  0  0  0  0  0  0  0  0
   -4.4165   13.6746  -11.4876 N   0  0  0  0  0  0  0  0  0  0  0  0
   -5.5534   13.6276  -12.1919 C   0  0  0  0  0  0  0  0  0  0  0  0
   -5.9234   14.5178  -12.9405 O   0  0  0  0  0  0  0  0  0  0  0  0
   -5.9640   10.4853   -7.7356 C   0  0  0  0  0  0  0  0  0  0  0  0
   -4.8116    9.7640   -8.0536 C   0  0  0  0  0  0  0  0  0  0  0  0
   -3.5500   10.3127   -7.8058 C   0  0  0  0  0  0  0  0  0  0  0  0
   -3.4411   11.5873   -7.2364 C   0  0  0  0  0  0  0  0  0  0  0  0
   -4.5925   12.3023   -6.9174 C   0  0  0  0  0  0  0  0  0  0  0  0
   -5.8510   11.7510   -7.1622 C   0  0  0  0  0  0  0  0  0  0  0  0
   -2.0968   12.1763   -6.9669 C   0  0  0  0  0  0  0  0  0  0  0  0
   -1.7702   13.4221   -6.4317 C   0  0  0  0  0  0  0  0  0  0  0  0
   -0.4283   13.4864   -6.3849 N   0  0  0  0  0  0  0  0  0  0  0  0
    0.1730   12.4042   -6.8287 N   0  0  0  0  0  0  0  0  0  0  0  0
   -0.8019   11.5974   -7.2024 C   0  0  0  0  0  0  0  0  0  0  0  0
    0.3914   14.5951   -5.9029 C   0  0  0  0  0  0  0  0  0  0  0  0
   -5.5219   11.6382  -10.3348 H   0  0  0  0  0  0  0  0  0  0  0  0
   -7.0394   12.5745  -10.1179 H   0  0  0  0  0  0  0  0  0  0  0  0
   -8.1905   10.1197  -13.8887 H   0  0  0  0  0  0  0  0  0  0  0  0
   -6.8851   12.2475  -14.0948 H   0  0  0  0  0  0  0  0  0  0  0  0
   -8.0369    9.6092   -7.2600 H   0  0  0  0  0  0  0  0  0  0  0  0
   -3.9109   14.5222  -11.6486 H   0  0  0  0  0  0  0  0  0  0  0  0
   -5.2907   15.2263  -12.9277 H   0  0  0  0  0  0  0  0  0  0  0  0
   -4.8950    8.7804   -8.4918 H   0  0  0  0  0  0  0  0  0  0  0  0
   -2.6597    9.7538   -8.0534 H   0  0  0  0  0  0  0  0  0  0  0  0
   -3.4383   12.0370   -8.2403 H   0  0  0  0  0  0  0  0  0  0  0  0
   -4.5115   13.2861   -6.4794 H   0  0  0  0  0  0  0  0  0  0  0  0
   -6.7408   12.3071   -6.9064 H   0  0  0  0  0  0  0  0  0  0  0  0
   -2.4626   14.1882   -6.1155 H   0  0  0  0  0  0  0  0  0  0  0  0
   -0.6459   10.6195   -7.6335 H   0  0  0  0  0  0  0  0  0  0  0  0
    1.4555   14.3315   -5.9935 H   0  0  0  0  0  0  0  0  0  0  0  0
    0.1837   15.4928   -6.5038 H   0  0  0  0  0  0  0  0  0  0  0  0
    0.1522   14.7964   -4.8483 H   0  0  0  0  0  0  0  0  0  0  0  0
  1  2  1  0  0  0  0
  1  4  2  0  0  0  0
  1 12  1  0  0  0  0
  2  6  1  0  0  0  0
  3  4  1  0  0  0  0
  3  5  2  0  0  0  0
  5  6  1  0  0  0  0
  5  9  1  0  0  0  0
  6  7  2  0  0  0  0
  7  8  1  0  0  0  0
  7 10  1  0  0  0  0
  8  9  2  0  0  0  0
 10 14  2  0  0  0  0
 11 12  2  0  0  0  0
 12 13  1  0  0  0  0
 14 15  1  0  0  0  0
 14 19  1  0  0  0  0
 15 16  2  0  0  0  0
 16 17  1  0  0  0  0
 17 18  1  0  0  0  0
 17 20  1  0  0  0  0
 18 19  2  0  0  0  0
 20 21  2  0  0  0  0
 20 24  1  0  0  0  0
 21 22  1  0  0  0  0
 22 23  1  0  0  0  0
 22 25  1  0  0  0  0
 23 24  2  0  0  0  0
  2 26  1  0  0  0  0
  2 27  1  0  0  0  0
  3 28  1  0  0  0  0
  4 29  1  0  0  0  0
 10 30  1  0  0  0  0
 11 31  1  0  0  0  0
 13 32  1  0  0  0  0
 15 33  1  0  0  0  0
 16 34  1  0  0  0  0
 17 35  1  0  0  0  0
 18 36  1  0  0  0  0
 19 37  1  0  0  0  0
 21 38  1  0  0  0  0
 24 39  1  0  0  0  0
 25 40  1  0  0  0  0
 25 41  1  0  0  0  0
 25 42  1  0  0  0  0
M  END
> <Name>
32

> <IC50[uM]>
0.11

$$$$
32
  -OEChem-05192314333D
 Structure written by MMmdl.
 42 45  0     0  0  0  0  0  0999 V2000
   -6.3767   12.3649  -12.0150 C   0  0  0  0  0  0  0  0  0  0  0  0
   -6.5300   11.8201  -10.7355 C   0  0  0  0  0  0  0  0  0  0  0  0
   -7.7235   10.5758  -13.0283 C   0  0  0  0  0  0  0  0  0  0  0  0
   -6.9848   11.7731  -13.1297 C   0  0  0  0  0  0  0  0  0  0  0  0
   -7.8178   10.0121  -11.7526 C   0  0  0  0  0  0  0  0  0  0  0  0
   -7.2522   10.6205  -10.6098 C   0  0  0  0  0  0  0  0  0  0  0  0
   -7.6101    9.7439   -9.5117 C   0  0  0  0  0  0  0  0  0  0  0  0
   -8.2784    8.7249   -9.9778 N   0  0  0  0  0  0  0  0  0  0  0  0
   -8.4134    8.8570  -11.2978 N   0  0  0  0  0  0  0  0  0  0  0  0
   -7.3337    9.8935   -8.0288 C   0  0  0  0  0  0  0  0  0  0  0  0
   -4.4165   13.6746  -11.4876 N   0  0  0  0  0  0  0  0  0  0  0  0
   -5.5534   13.6276  -12.1919 C   0  0  0  0  0  0  0  0  0  0  0  0
   -5.9234   14.5178  -12.9405 O   0  0  0  0  0  0  0  0  0  0  0  0
   -5.9640   10.4853   -7.7356 C   0  0  0  0  0  0  0  0  0  0  0  0
   -4.8116    9.7640   -8.0536 C   0  0  0  0  0  0  0  0  0  0  0  0
   -3.5500   10.3127   -7.8058 C   0  0  0  0  0  0  0  0  0  0  0  0
   -3.4411   11.5873   -7.2364 C   0  0  0  0  0  0  0  0  0  0  0  0
   -4.5925   12.3023   -6.9174 C   0  0  0  0  0  0  0  0  0  0  0  0
   -5.8510   11.7510   -7.1622 C   0  0  0  0  0  0  0  0  0  0  0  0
   -2.0968   12.1763   -6.9669 C   0  0  0  0  0  0  0  0  0  0  0  0
   -1.7702   13.4221   -6.4317 C   0  0  0  0  0  0  0  0  0  0  0  0
   -0.4283   13.4864   -6.3849 N   0  0  0  0  0  0  0  0  0  0  0  0
    0.1730   12.4042   -6.8287 N   0  0  0  0  0  0  0  0  0  0  0  0
   -0.8019   11.5974   -7.2024 C   0  0  0  0  0  0  0  0  0  0  0  0
    0.3914   14.5951   -5.9029 C   0  0  0  0  0  0  0  0  0  0  0  0
   -5.5219   11.6382  -10.3348 H   0  0  0  0  0  0  0  0  0  0  0  0
   -7.0394   12.5745  -10.1179 H   0  0  0  0  0  0  0  0  0  0  0  0
   -8.1905   10.1197  -13.8887 H   0  0  0  0  0  0  0  0  0  0  0  0
   -6.8851   12.2475  -14.0948 H   0  0  0  0  0  0  0  0  0  0  0  0
   -8.0369    9.6092   -7.2600 H   0  0  0  0  0  0  0  0  0  0  0  0
   -3.9109   14.5222  -11.6486 H   0  0  0  0  0  0  0  0  0  0  0  0
   -5.2907   15.2263  -12.9277 H   0  0  0  0  0  0  0  0  0  0  0  0
   -4.8950    8.7804   -8.4918 H   0  0  0  0  0  0  0  0  0  0  0  0
   -2.6597    9.7538   -8.0534 H   0  0  0  0  0  0  0  0  0  0  0  0
   -4.5115   13.2861   -6.4794 H   0  0  0  0  0  0  0  0  0  0  0  0
   -6.3776   12.4489   -7.8298 H   0  0  0  0  0  0  0  0  0  0  0  0
   -6.3709   11.7071   -6.1938 H   0  0  0  0  0  0  0  0  0  0  0  0
   -2.4626   14.1882   -6.1155 H   0  0  0  0  0  0  0  0  0  0  0  0
   -0.6459   10.6195   -7.6335 H   0  0  0  0  0  0  0  0  0  0  0  0
    1.4555   14.3315   -5.9935 H   0  0  0  0  0  0  0  0  0  0  0  0
    0.1837   15.4928   -6.5038 H   0  0  0  0  0  0  0  0  0  0  0  0
    0.1522   14.7964   -4.8483 H   0  0  0  0  0  0  0  0  0  0  0  0
  1  2  1  0  0  0  0
  1  4  2  0  0  0  0
  1 12  1  0  0  0  0
  2  6  1  0  0  0  0
  3  4  1  0  0  0  0
  3  5  2  0  0  0  0
  5  6  1  0  0  0  0
  5  9  1  0  0  0  0
  6  7  2  0  0  0  0
  7  8  1  0  0  0  0
  7 10  1  0  0  0  0
  8  9  2  0  0  0  0
 10 14  2  3  0  0  0
 11 12  2  0  0  0  0
 12 13  1  0  0  0  0
 14 15  1  0  0  0  0
 14 19  1  0  0  0  0
 15 16  2  0  0  0  0
 16 17  1  0  0  0  0
 17 18  2  0  0  0  0
 17 20  1  0  0  0  0
 18 19  1  0  0  0  0
 20 21  2  0  0  0  0
 20 24  1  0  0  0  0
 21 22  1  0  0  0  0
 22 23  1  0  0  0  0
 22 25  1  0  0  0  0
 23 24  2  0  0  0  0
  2 26  1  0  0  0  0
  2 27  1  0  0  0  0
  3 28  1  0  0  0  0
  4 29  1  0  0  0  0
 10 30  1  0  0  0  0
 11 31  1  0  0  0  0
 13 32  1  0  0  0  0
 15 33  1  0  0  0  0
 16 34  1  0  0  0  0
 18 35  1  0  0  0  0
 19 36  1  0  0  0  0
 19 37  1  0  0  0  0
 21 38  1  0  0  0  0
 24 39  1  0  0  0  0
 25 40  1  0  0  0  0
 25 41  1  0  0  0  0
 25 42  1  0  0  0  0
M  END
> <Name>
32

> <IC50[uM]>
0.11

$$$$
32
  -OEChem-05192314333D
 Structure written by MMmdl.
 42 45  0     0  0  0  0  0  0999 V2000
   -6.3767   12.3649  -12.0150 C   0  0  0  0  0  0  0  0  0  0  0  0
   -6.5300   11.8201  -10.7355 C   0  0  0  0  0  0  0  0  0  0  0  0
   -7.7235   10.5758  -13.0283 C   0  0  0  0  0  0  0  0  0  0  0  0
   -6.9848   11.7731  -13.1297 C   0  0  0  0  0  0  0  0  0  0  0  0
   -7.8178   10.0121  -11.7526 C   0  0  0  0  0  0  0  0  0  0  0  0
   -7.2522   10.6205  -10.6098 C   0  0  0  0  0  0  0  0  0  0  0  0
   -7.6101    9.7439   -9.5117 C   0  0  0  0  0  0  0  0  0  0  0  0
   -8.2784    8.7249   -9.9778 N   0  0  0  0  0  0  0  0  0  0  0  0
   -8.4134    8.8570  -11.2978 N   0  0  0  0  0  0  0  0  0  0  0  0
   -7.3337    9.8935   -8.0288 C   0  0  0  0  0  0  0  0  0  0  0  0
   -4.4165   13.6746  -11.4876 N   0  0  0  0  0  0  0  0  0  0  0  0
   -5.5534   13.6276  -12.1919 C   0  0  0  0  0  0  0  0  0  0  0  0
   -5.9234   14.5178  -12.9405 O   0  0  0  0  0  0  0  0  0  0  0  0
   -5.9640   10.4853   -7.7356 C   0  0  0  0  0  0  0  0  0  0  0  0
   -4.8116    9.7640   -8.0536 C   0  0  0  0  0  0  0  0  0  0  0  0
   -3.5500   10.3127   -7.8058 C   0  0  0  0  0  0  0  0  0  0  0  0
   -3.4411   11.5873   -7.2364 C   0  0  0  0  0  0  0  0  0  0  0  0
   -4.5925   12.3023   -6.9174 C   0  0  0  0  0  0  0  0  0  0  0  0
   -5.8510   11.7510   -7.1622 C   0  0  0  0  0  0  0  0  0  0  0  0
   -2.0968   12.1763   -6.9669 C   0  0  0  0  0  0  0  0  0  0  0  0
   -1.7702   13.4221   -6.4317 C   0  0  0  0  0  0  0  0  0  0  0  0
   -0.4283   13.4864   -6.3849 N   0  0  0  0  0  0  0  0  0  0  0  0
    0.1730   12.4042   -6.8287 N   0  0  0  0  0  0  0  0  0  0  0  0
   -0.8019   11.5974   -7.2024 C   0  0  0  0  0  0  0  0  0  0  0  0
    0.3914   14.5951   -5.9029 C   0  0  0  0  0  0  0  0  0  0  0  0
   -6.1059   12.3069   -9.8697 H   0  0  0  0  0  0  0  0  0  0  0  0
   -8.1905   10.1197  -13.8887 H   0  0  0  0  0  0  0  0  0  0  0  0
   -6.8851   12.2475  -14.0948 H   0  0  0  0  0  0  0  0  0  0  0  0
   -8.6329    7.9657   -9.4320 H   0  0  0  0  0  0  0  0  0  0  0  0
   -8.0369    9.6092   -7.2600 H   0  0  0  0  0  0  0  0  0  0  0  0
   -3.9470   14.5387  -11.6690 H   0  0  0  0  0  0  0  0  0  0  0  0
   -4.6258   13.6075  -10.5121 H   0  0  0  0  0  0  0  0  0  0  0  0
   -5.2907   15.2263  -12.9277 H   0  0  0  0  0  0  0  0  0  0  0  0
   -4.8950    8.7804   -8.4918 H   0  0  0  0  0  0  0  0  0  0  0  0
   -2.6597    9.7538   -8.0534 H   0  0  0  0  0  0  0  0  0  0  0  0
   -4.5115   13.2861   -6.4794 H   0  0  0  0  0  0  0  0  0  0  0  0
   -6.7408   12.3071   -6.9064 H   0  0  0  0  0  0  0  0  0  0  0  0
   -2.4626   14.1882   -6.1155 H   0  0  0  0  0  0  0  0  0  0  0  0
   -0.6459   10.6195   -7.6335 H   0  0  0  0  0  0  0  0  0  0  0  0
    1.4555   14.3315   -5.9935 H   0  0  0  0  0  0  0  0  0  0  0  0
    0.1837   15.4928   -6.5038 H   0  0  0  0  0  0  0  0  0  0  0  0
    0.1522   14.7964   -4.8483 H   0  0  0  0  0  0  0  0  0  0  0  0
  1  2  1  0  0  0  0
  1  4  1  0  0  0  0
  1 12  2  3  0  0  0
  2  6  2  0  0  0  0
  3  4  2  0  0  0  0
  3  5  1  0  0  0  0
  5  6  1  0  0  0  0
  5  9  2  0  0  0  0
  6  7  1  0  0  0  0
  7  8  1  0  0  0  0
  7 10  2  3  0  0  0
  8  9  1  0  0  0  0
 10 14  1  0  0  0  0
 11 12  1  0  0  0  0
 12 13  1  0  0  0  0
 14 15  2  0  0  0  0
 14 19  1  0  0  0  0
 15 16  1  0  0  0  0
 16 17  2  0  0  0  0
 17 18  1  0  0  0  0
 17 20  1  0  0  0  0
 18 19  2  0  0  0  0
 20 21  2  0  0  0  0
 20 24  1  0  0  0  0
 21 22  1  0  0  0  0
 22 23  1  0  0  0  0
 22 25  1  0  0  0  0
 23 24  2  0  0  0  0
  2 26  1  0  0  0  0
  3 27  1  0  0  0  0
  4 28  1  0  0  0  0
  8 29  1  0  0  0  0
 10 30  1  0  0  0  0
 11 31  1  0  0  0  0
 11 32  1  0  0  0  0
 13 33  1  0  0  0  0
 15 34  1  0  0  0  0
 16 35  1  0  0  0  0
 18 36  1  0  0  0  0
 19 37  1  0  0  0  0
 21 38  1  0  0  0  0
 24 39  1  0  0  0  0
 25 40  1  0  0  0  0
 25 41  1  0  0  0  0
 25 42  1  0  0  0  0
M  END
> <Name>
32

> <IC50[uM]>
0.11

$$$$
32
  -OEChem-05192314333D
 Structure written by MMmdl.
 42 45  0     1  0  0  0  0  0999 V2000
   -6.3767   12.3649  -12.0150 C   0  0  0  0  0  0  0  0  0  0  0  0
   -6.5300   11.8201  -10.7355 C   0  0  0  0  0  0  0  0  0  0  0  0
   -7.7235   10.5758  -13.0283 C   0  0  0  0  0  0  0  0  0  0  0  0
   -6.9848   11.7731  -13.1297 C   0  0  0  0  0  0  0  0  0  0  0  0
   -7.8178   10.0121  -11.7526 C   0  0  0  0  0  0  0  0  0  0  0  0
   -7.2522   10.6205  -10.6098 C   0  0  0  0  0  0  0  0  0  0  0  0
   -7.6101    9.7439   -9.5117 C   0  0  0  0  0  0  0  0  0  0  0  0
   -8.2784    8.7249   -9.9778 N   0  0  0  0  0  0  0  0  0  0  0  0
   -8.4134    8.8570  -11.2978 N   0  0  0  0  0  0  0  0  0  0  0  0
   -7.3337    9.8935   -8.0288 C   0  0  0  0  0  0  0  0  0  0  0  0
   -4.4165   13.6746  -11.4876 N   0  0  0  0  0  0  0  0  0  0  0  0
   -5.5534   13.6276  -12.1919 C   0  0  3  0  0  0  0  0  0  0  0  0
   -5.9234   14.5178  -12.9405 O   0  0  0  0  0  0  0  0  0  0  0  0
   -5.9640   10.4853   -7.7356 C   0  0  0  0  0  0  0  0  0  0  0  0
   -4.8116    9.7640   -8.0536 C   0  0  0  0  0  0  0  0  0  0  0  0
   -3.5500   10.3127   -7.8058 C   0  0  0  0  0  0  0  0  0  0  0  0
   -3.4411   11.5873   -7.2364 C   0  0  0  0  0  0  0  0  0  0  0  0
   -4.5925   12.3023   -6.9174 C   0  0  0  0  0  0  0  0  0  0  0  0
   -5.8510   11.7510   -7.1622 C   0  0  0  0  0  0  0  0  0  0  0  0
   -2.0968   12.1763   -6.9669 C   0  0  0  0  0  0  0  0  0  0  0  0
   -1.7702   13.4221   -6.4317 C   0  0  0  0  0  0  0  0  0  0  0  0
   -0.4283   13.4864   -6.3849 N   0  0  0  0  0  0  0  0  0  0  0  0
    0.1730   12.4042   -6.8287 N   0  0  0  0  0  0  0  0  0  0  0  0
   -0.8019   11.5974   -7.2024 C   0  0  0  0  0  0  0  0  0  0  0  0
    0.3914   14.5951   -5.9029 C   0  0  0  0  0  0  0  0  0  0  0  0
   -6.1059   12.3069   -9.8697 H   0  0  0  0  0  0  0  0  0  0  0  0
   -8.1905   10.1197  -13.8887 H   0  0  0  0  0  0  0  0  0  0  0  0
   -6.8851   12.2475  -14.0948 H   0  0  0  0  0  0  0  0  0  0  0  0
   -8.0369    9.6092   -7.2600 H   0  0  0  0  0  0  0  0  0  0  0  0
   -3.9470   14.5387  -11.6690 H   0  0  0  0  0  0  0  0  0  0  0  0
   -4.6258   13.6075  -10.5121 H   0  0  0  0  0  0  0  0  0  0  0  0
   -6.0933   14.0998  -11.3579 H   0  0  0  0  0  0  0  0  0  0  0  0
   -5.2907   15.2263  -12.9277 H   0  0  0  0  0  0  0  0  0  0  0  0
   -4.8950    8.7804   -8.4918 H   0  0  0  0  0  0  0  0  0  0  0  0
   -2.6597    9.7538   -8.0534 H   0  0  0  0  0  0  0  0  0  0  0  0
   -4.5115   13.2861   -6.4794 H   0  0  0  0  0  0  0  0  0  0  0  0
   -6.7408   12.3071   -6.9064 H   0  0  0  0  0  0  0  0  0  0  0  0
   -2.4626   14.1882   -6.1155 H   0  0  0  0  0  0  0  0  0  0  0  0
   -0.6459   10.6195   -7.6335 H   0  0  0  0  0  0  0  0  0  0  0  0
    1.4555   14.3315   -5.9935 H   0  0  0  0  0  0  0  0  0  0  0  0
    0.1837   15.4928   -6.5038 H   0  0  0  0  0  0  0  0  0  0  0  0
    0.1522   14.7964   -4.8483 H   0  0  0  0  0  0  0  0  0  0  0  0
  1  2  2  0  0  0  0
  1  4  1  0  0  0  0
  1 12  1  0  0  0  0
  2  6  1  0  0  0  0
  3  4  2  0  0  0  0
  3  5  1  0  0  0  0
  5  6  2  0  0  0  0
  5  9  1  0  0  0  0
  6  7  1  0  0  0  0
  7  8  1  0  0  0  0
  7 10  2  3  0  0  0
  8  9  2  0  0  0  0
 10 14  1  0  0  0  0
 11 12  1  0  0  0  0
 12 13  1  0  0  0  0
 14 15  2  0  0  0  0
 14 19  1  0  0  0  0
 15 16  1  0  0  0  0
 16 17  2  0  0  0  0
 17 18  1  0  0  0  0
 17 20  1  0  0  0  0
 18 19  2  0  0  0  0
 20 21  2  0  0  0  0
 20 24  1  0  0  0  0
 21 22  1  0  0  0  0
 22 23  1  0  0  0  0
 22 25  1  0  0  0  0
 23 24  2  0  0  0  0
  2 26  1  0  0  0  0
  3 27  1  0  0  0  0
  4 28  1  0  0  0  0
 10 29  1  0  0  0  0
 11 30  1  0  0  0  0
 11 31  1  0  0  0  0
 12 32  1  0  0  0  0
 13 33  1  0  0  0  0
 15 34  1  0  0  0  0
 16 35  1  0  0  0  0
 18 36  1  0  0  0  0
 19 37  1  0  0  0  0
 21 38  1  0  0  0  0
 24 39  1  0  0  0  0
 25 40  1  0  0  0  0
 25 41  1  0  0  0  0
 25 42  1  0  0  0  0
M  END
> <Name>
32

> <IC50[uM]>
0.11

$$$$
32
  -OEChem-05192314333D
 Structure written by MMmdl.
 42 45  0     0  0  0  0  0  0999 V2000
   -6.3767   12.3649  -12.0150 C   0  0  0  0  0  0  0  0  0  0  0  0
   -6.5300   11.8201  -10.7355 C   0  0  0  0  0  0  0  0  0  0  0  0
   -7.7235   10.5758  -13.0283 C   0  0  0  0  0  0  0  0  0  0  0  0
   -6.9848   11.7731  -13.1297 C   0  0  0  0  0  0  0  0  0  0  0  0
   -7.8178   10.0121  -11.7526 C   0  0  0  0  0  0  0  0  0  0  0  0
   -7.2522   10.6205  -10.6098 C   0  0  0  0  0  0  0  0  0  0  0  0
   -7.6101    9.7439   -9.5117 C   0  0  0  0  0  0  0  0  0  0  0  0
   -8.2784    8.7249   -9.9778 N   0  0  0  0  0  0  0  0  0  0  0  0
   -8.4134    8.8570  -11.2978 N   0  0  0  0  0  0  0  0  0  0  0  0
   -7.3337    9.8935   -8.0288 C   0  0  0  0  0  0  0  0  0  0  0  0
   -4.4165   13.6746  -11.4876 N   0  0  0  0  0  0  0  0  0  0  0  0
   -5.5534   13.6276  -12.1919 C   0  0  0  0  0  0  0  0  0  0  0  0
   -5.9234   14.5178  -12.9405 O   0  0  0  0  0  0  0  0  0  0  0  0
   -5.9640   10.4853   -7.7356 C   0  0  0  0  0  0  0  0  0  0  0  0
   -4.8116    9.7640   -8.0536 C   0  0  0  0  0  0  0  0  0  0  0  0
   -3.5500   10.3127   -7.8058 C   0  0  0  0  0  0  0  0  0  0  0  0
   -3.4411   11.5873   -7.2364 C   0  0  0  0  0  0  0  0  0  0  0  0
   -4.5925   12.3023   -6.9174 C   0  0  0  0  0  0  0  0  0  0  0  0
   -5.8510   11.7510   -7.1622 C   0  0  0  0  0  0  0  0  0  0  0  0
   -2.0968   12.1763   -6.9669 C   0  0  0  0  0  0  0  0  0  0  0  0
   -1.7702   13.4221   -6.4317 C   0  0  0  0  0  0  0  0  0  0  0  0
   -0.4283   13.4864   -6.3849 N   0  0  0  0  0  0  0  0  0  0  0  0
    0.1730   12.4042   -6.8287 N   0  0  0  0  0  0  0  0  0  0  0  0
   -0.8019   11.5974   -7.2024 C   0  0  0  0  0  0  0  0  0  0  0  0
    0.3914   14.5951   -5.9029 C   0  0  0  0  0  0  0  0  0  0  0  0
   -6.1059   12.3069   -9.8697 H   0  0  0  0  0  0  0  0  0  0  0  0
   -8.1905   10.1197  -13.8887 H   0  0  0  0  0  0  0  0  0  0  0  0
   -6.8851   12.2475  -14.0948 H   0  0  0  0  0  0  0  0  0  0  0  0
   -8.1002   10.5520   -7.5942 H   0  0  0  0  0  0  0  0  0  0  0  0
   -7.3942    8.9006   -7.5592 H   0  0  0  0  0  0  0  0  0  0  0  0
   -3.9470   14.5387  -11.6690 H   0  0  0  0  0  0  0  0  0  0  0  0
   -4.6258   13.6075  -10.5121 H   0  0  0  0  0  0  0  0  0  0  0  0
   -5.2907   15.2263  -12.9277 H   0  0  0  0  0  0  0  0  0  0  0  0
   -4.8950    8.7804   -8.4918 H   0  0  0  0  0  0  0  0  0  0  0  0
   -2.6597    9.7538   -8.0534 H   0  0  0  0  0  0  0  0  0  0  0  0
   -4.5115   13.2861   -6.4794 H   0  0  0  0  0  0  0  0  0  0  0  0
   -6.7408   12.3071   -6.9064 H   0  0  0  0  0  0  0  0  0  0  0  0
   -2.4626   14.1882   -6.1155 H   0  0  0  0  0  0  0  0  0  0  0  0
   -0.6459   10.6195   -7.6335 H   0  0  0  0  0  0  0  0  0  0  0  0
    1.4555   14.3315   -5.9935 H   0  0  0  0  0  0  0  0  0  0  0  0
    0.1837   15.4928   -6.5038 H   0  0  0  0  0  0  0  0  0  0  0  0
    0.1522   14.7964   -4.8483 H   0  0  0  0  0  0  0  0  0  0  0  0
  1  2  1  0  0  0  0
  1  4  1  0  0  0  0
  1 12  2  3  0  0  0
  2  6  2  0  0  0  0
  3  4  2  0  0  0  0
  3  5  1  0  0  0  0
  5  6  1  0  0  0  0
  5  9  2  0  0  0  0
  6  7  1  0  0  0  0
  7  8  2  0  0  0  0
  7 10  1  0  0  0  0
  8  9  1  0  0  0  0
 10 14  1  0  0  0  0
 11 12  1  0  0  0  0
 12 13  1  0  0  0  0
 14 15  2  0  0  0  0
 14 19  1  0  0  0  0
 15 16  1  0  0  0  0
 16 17  2  0  0  0  0
 17 18  1  0  0  0  0
 17 20  1  0  0  0  0
 18 19  2  0  0  0  0
 20 21  2  0  0  0  0
 20 24  1  0  0  0  0
 21 22  1  0  0  0  0
 22 23  1  0  0  0  0
 22 25  1  0  0  0  0
 23 24  2  0  0  0  0
  2 26  1  0  0  0  0
  3 27  1  0  0  0  0
  4 28  1  0  0  0  0
 10 29  1  0  0  0  0
 10 30  1  0  0  0  0
 11 31  1  0  0  0  0
 11 32  1  0  0  0  0
 13 33  1  0  0  0  0
 15 34  1  0  0  0  0
 16 35  1  0  0  0  0
 18 36  1  0  0  0  0
 19 37  1  0  0  0  0
 21 38  1  0  0  0  0
 24 39  1  0  0  0  0
 25 40  1  0  0  0  0
 25 41  1  0  0  0  0
 25 42  1  0  0  0  0
M  END
> <Name>
32

> <IC50[uM]>
0.11

$$$$
32
  -OEChem-05192314333D
 Structure written by MMmdl.
 42 45  0     1  0  0  0  0  0999 V2000
   -6.3767   12.3649  -12.0150 C   0  0  0  0  0  0  0  0  0  0  0  0
   -6.5300   11.8201  -10.7355 C   0  0  0  0  0  0  0  0  0  0  0  0
   -7.7235   10.5758  -13.0283 C   0  0  0  0  0  0  0  0  0  0  0  0
   -6.9848   11.7731  -13.1297 C   0  0  0  0  0  0  0  0  0  0  0  0
   -7.8178   10.0121  -11.7526 C   0  0  0  0  0  0  0  0  0  0  0  0
   -7.2522   10.6205  -10.6098 C   0  0  0  0  0  0  0  0  0  0  0  0
   -7.6101    9.7439   -9.5117 C   0  0  0  0  0  0  0  0  0  0  0  0
   -8.2784    8.7249   -9.9778 N   0  0  0  0  0  0  0  0  0  0  0  0
   -8.4134    8.8570  -11.2978 N   0  0  0  0  0  0  0  0  0  0  0  0
   -7.3337    9.8935   -8.0288 C   0  0  0  0  0  0  0  0  0  0  0  0
   -4.4165   13.6746  -11.4876 N   0  0  0  0  0  0  0  0  0  0  0  0
   -5.5534   13.6276  -12.1919 C   0  0  0  0  0  0  0  0  0  0  0  0
   -5.9234   14.5178  -12.9405 O   0  0  0  0  0  0  0  0  0  0  0  0
   -5.9640   10.4853   -7.7356 C   0  0  0  0  0  0  0  0  0  0  0  0
   -4.8116    9.7640   -8.0536 C   0  0  0  0  0  0  0  0  0  0  0  0
   -3.5500   10.3127   -7.8058 C   0  0  0  0  0  0  0  0  0  0  0  0
   -3.4411   11.5873   -7.2364 C   0  0  0  0  0  0  0  0  0  0  0  0
   -4.5925   12.3023   -6.9174 C   0  0  0  0  0  0  0  0  0  0  0  0
   -5.8510   11.7510   -7.1622 C   0  0  0  0  0  0  0  0  0  0  0  0
   -2.0968   12.1763   -6.9669 C   0  0  0  0  0  0  0  0  0  0  0  0
   -1.7702   13.4221   -6.4317 C   0  0  0  0  0  0  0  0  0  0  0  0
   -0.4283   13.4864   -6.3849 N   0  0  3  0  0  0  0  0  0  0  0  0
    0.1730   12.4042   -6.8287 N   0  0  0  0  0  0  0  0  0  0  0  0
   -0.8019   11.5974   -7.2024 C   0  0  0  0  0  0  0  0  0  0  0  0
    0.3914   14.5951   -5.9029 C   0  0  0  0  0  0  0  0  0  0  0  0
   -6.1059   12.3069   -9.8697 H   0  0  0  0  0  0  0  0  0  0  0  0
   -8.1905   10.1197  -13.8887 H   0  0  0  0  0  0  0  0  0  0  0  0
   -6.8851   12.2475  -14.0948 H   0  0  0  0  0  0  0  0  0  0  0  0
   -8.0369    9.6092   -7.2600 H   0  0  0  0  0  0  0  0  0  0  0  0
   -3.9470   14.5387  -11.6690 H   0  0  0  0  0  0  0  0  0  0  0  0
   -4.6258   13.6075  -10.5121 H   0  0  0  0  0  0  0  0  0  0  0  0
   -5.2907   15.2263  -12.9277 H   0  0  0  0  0  0  0  0  0  0  0  0
   -4.8950    8.7804   -8.4918 H   0  0  0  0  0  0  0  0  0  0  0  0
   -2.6597    9.7538   -8.0534 H   0  0  0  0  0  0  0  0  0  0  0  0
   -4.5115   13.2861   -6.4794 H   0  0  0  0  0  0  0  0  0  0  0  0
   -6.7408   12.3071   -6.9064 H   0  0  0  0  0  0  0  0  0  0  0  0
   -2.1654   14.2245   -7.0720 H   0  0  0  0  0  0  0  0  0  0  0  0
   -2.1893   13.5208   -5.4195 H   0  0  0  0  0  0  0  0  0  0  0  0
   -0.6459   10.6195   -7.6335 H   0  0  0  0  0  0  0  0  0  0  0  0
    1.4555   14.3315   -5.9935 H   0  0  0  0  0  0  0  0  0  0  0  0
    0.1837   15.4928   -6.5038 H   0  0  0  0  0  0  0  0  0  0  0  0
    0.1522   14.7964   -4.8483 H   0  0  0  0  0  0  0  0  0  0  0  0
  1  2  1  0  0  0  0
  1  4  1  0  0  0  0
  1 12  2  3  0  0  0
  2  6  2  0  0  0  0
  3  4  2  0  0  0  0
  3  5  1  0  0  0  0
  5  6  1  0  0  0  0
  5  9  2  0  0  0  0
  6  7  1  0  0  0  0
  7  8  2  0  0  0  0
  7 10  1  0  0  0  0
  8  9  1  0  0  0  0
 10 14  2  0  0  0  0
 11 12  1  0  0  0  0
 12 13  1  0  0  0  0
 14 15  1  0  0  0  0
 14 19  1  0  0  0  0
 15 16  2  0  0  0  0
 16 17  1  0  0  0  0
 17 18  1  0  0  0  0
 17 20  2  0  0  0  0
 18 19  2  0  0  0  0
 20 21  1  0  0  0  0
 20 24  1  0  0  0  0
 21 22  1  0  0  0  0
 22 23  1  0  0  0  0
 22 25  1  0  0  0  0
 23 24  2  0  0  0  0
  2 26  1  0  0  0  0
  3 27  1  0  0  0  0
  4 28  1  0  0  0  0
 10 29  1  0  0  0  0
 11 30  1  0  0  0  0
 11 31  1  0  0  0  0
 13 32  1  0  0  0  0
 15 33  1  0  0  0  0
 16 34  1  0  0  0  0
 18 35  1  0  0  0  0
 19 36  1  0  0  0  0
 21 37  1  0  0  0  0
 21 38  1  0  0  0  0
 24 39  1  0  0  0  0
 25 40  1  0  0  0  0
 25 41  1  0  0  0  0
 25 42  1  0  0  0  0
M  END
> <Name>
32

> <IC50[uM]>
0.11

$$$$
32
  -OEChem-05192314333D
 Structure written by MMmdl.
 42 45  0     1  0  0  0  0  0999 V2000
   -6.3767   12.3649  -12.0150 C   0  0  0  0  0  0  0  0  0  0  0  0
   -6.5300   11.8201  -10.7355 C   0  0  0  0  0  0  0  0  0  0  0  0
   -7.7235   10.5758  -13.0283 C   0  0  0  0  0  0  0  0  0  0  0  0
   -6.9848   11.7731  -13.1297 C   0  0  0  0  0  0  0  0  0  0  0  0
   -7.8178   10.0121  -11.7526 C   0  0  3  0  0  0  0  0  0  0  0  0
   -7.2522   10.6205  -10.6098 C   0  0  0  0  0  0  0  0  0  0  0  0
   -7.6101    9.7439   -9.5117 C   0  0  0  0  0  0  0  0  0  0  0  0
   -8.2784    8.7249   -9.9778 N   0  0  0  0  0  0  0  0  0  0  0  0
   -8.4134    8.8570  -11.2978 N   0  0  0  0  0  0  0  0  0  0  0  0
   -7.3337    9.8935   -8.0288 C   0  0  0  0  0  0  0  0  0  0  0  0
   -4.4165   13.6746  -11.4876 N   0  0  0  0  0  0  0  0  0  0  0  0
   -5.5534   13.6276  -12.1919 C   0  0  0  0  0  0  0  0  0  0  0  0
   -5.9234   14.5178  -12.9405 O   0  0  0  0  0  0  0  0  0  0  0  0
   -5.9640   10.4853   -7.7356 C   0  0  0  0  0  0  0  0  0  0  0  0
   -4.8116    9.7640   -8.0536 C   0  0  0  0  0  0  0  0  0  0  0  0
   -3.5500   10.3127   -7.8058 C   0  0  0  0  0  0  0  0  0  0  0  0
   -3.4411   11.5873   -7.2364 C   0  0  0  0  0  0  0  0  0  0  0  0
   -4.5925   12.3023   -6.9174 C   0  0  0  0  0  0  0  0  0  0  0  0
   -5.8510   11.7510   -7.1622 C   0  0  0  0  0  0  0  0  0  0  0  0
   -2.0968   12.1763   -6.9669 C   0  0  0  0  0  0  0  0  0  0  0  0
   -1.7702   13.4221   -6.4317 C   0  0  0  0  0  0  0  0  0  0  0  0
   -0.4283   13.4864   -6.3849 N   0  0  0  0  0  0  0  0  0  0  0  0
    0.1730   12.4042   -6.8287 N   0  0  0  0  0  0  0  0  0  0  0  0
   -0.8019   11.5974   -7.2024 C   0  0  0  0  0  0  0  0  0  0  0  0
    0.3914   14.5951   -5.9029 C   0  0  0  0  0  0  0  0  0  0  0  0
   -6.1059   12.3069   -9.8697 H   0  0  0  0  0  0  0  0  0  0  0  0
   -8.1905   10.1197  -13.8887 H   0  0  0  0  0  0  0  0  0  0  0  0
   -6.8851   12.2475  -14.0948 H   0  0  0  0  0  0  0  0  0  0  0  0
   -6.8808    9.4624  -11.9250 H   0  0  0  0  0  0  0  0  0  0  0  0
   -8.0369    9.6092   -7.2600 H   0  0  0  0  0  0  0  0  0  0  0  0
   -3.9470   14.5387  -11.6690 H   0  0  0  0  0  0  0  0  0  0  0  0
   -4.6258   13.6075  -10.5121 H   0  0  0  0  0  0  0  0  0  0  0  0
   -5.2907   15.2263  -12.9277 H   0  0  0  0  0  0  0  0  0  0  0  0
   -4.8950    8.7804   -8.4918 H   0  0  0  0  0  0  0  0  0  0  0  0
   -2.6597    9.7538   -8.0534 H   0  0  0  0  0  0  0  0  0  0  0  0
   -4.5115   13.2861   -6.4794 H   0  0  0  0  0  0  0  0  0  0  0  0
   -6.7408   12.3071   -6.9064 H   0  0  0  0  0  0  0  0  0  0  0  0
   -2.4626   14.1882   -6.1155 H   0  0  0  0  0  0  0  0  0  0  0  0
   -0.6459   10.6195   -7.6335 H   0  0  0  0  0  0  0  0  0  0  0  0
    1.4555   14.3315   -5.9935 H   0  0  0  0  0  0  0  0  0  0  0  0
    0.1837   15.4928   -6.5038 H   0  0  0  0  0  0  0  0  0  0  0  0
    0.1522   14.7964   -4.8483 H   0  0  0  0  0  0  0  0  0  0  0  0
  1  2  1  0  0  0  0
  1  4  1  0  0  0  0
  1 12  2  3  0  0  0
  2  6  2  0  0  0  0
  3  4  2  0  0  0  0
  3  5  1  0  0  0  0
  5  6  1  0  0  0  0
  5  9  1  0  0  0  0
  6  7  1  0  0  0  0
  7  8  1  0  0  0  0
  7 10  2  3  0  0  0
  8  9  2  0  0  0  0
 10 14  1  0  0  0  0
 11 12  1  0  0  0  0
 12 13  1  0  0  0  0
 14 15  2  0  0  0  0
 14 19  1  0  0  0  0
 15 16  1  0  0  0  0
 16 17  2  0  0  0  0
 17 18  1  0  0  0  0
 17 20  1  0  0  0  0
 18 19  2  0  0  0  0
 20 21  2  0  0  0  0
 20 24  1  0  0  0  0
 21 22  1  0  0  0  0
 22 23  1  0  0  0  0
 22 25  1  0  0  0  0
 23 24  2  0  0  0  0
  2 26  1  0  0  0  0
  3 27  1  0  0  0  0
  4 28  1  0  0  0  0
  5 29  1  0  0  0  0
 10 30  1  0  0  0  0
 11 31  1  0  0  0  0
 11 32  1  0  0  0  0
 13 33  1  0  0  0  0
 15 34  1  0  0  0  0
 16 35  1  0  0  0  0
 18 36  1  0  0  0  0
 19 37  1  0  0  0  0
 21 38  1  0  0  0  0
 24 39  1  0  0  0  0
 25 40  1  0  0  0  0
 25 41  1  0  0  0  0
 25 42  1  0  0  0  0
M  END
> <Name>
32

> <IC50[uM]>
0.11

$$$$
32
  -OEChem-05192314333D
 Structure written by MMmdl.
 42 45  0     0  0  0  0  0  0999 V2000
   -6.3767   12.3649  -12.0150 C   0  0  0  0  0  0  0  0  0  0  0  0
   -6.5300   11.8201  -10.7355 C   0  0  0  0  0  0  0  0  0  0  0  0
   -7.7235   10.5758  -13.0283 C   0  0  0  0  0  0  0  0  0  0  0  0
   -6.9848   11.7731  -13.1297 C   0  0  0  0  0  0  0  0  0  0  0  0
   -7.8178   10.0121  -11.7526 C   0  0  0  0  0  0  0  0  0  0  0  0
   -7.2522   10.6205  -10.6098 C   0  0  0  0  0  0  0  0  0  0  0  0
   -7.6101    9.7439   -9.5117 C   0  0  0  0  0  0  0  0  0  0  0  0
   -8.2784    8.7249   -9.9778 N   0  0  0  0  0  0  0  0  0  0  0  0
   -8.4134    8.8570  -11.2978 N   0  0  0  0  0  0  0  0  0  0  0  0
   -7.3337    9.8935   -8.0288 C   0  0  0  0  0  0  0  0  0  0  0  0
   -4.4165   13.6746  -11.4876 N   0  0  0  0  0  0  0  0  0  0  0  0
   -5.5534   13.6276  -12.1919 C   0  0  0  0  0  0  0  0  0  0  0  0
   -5.9234   14.5178  -12.9405 O   0  0  0  0  0  0  0  0  0  0  0  0
   -5.9640   10.4853   -7.7356 C   0  0  0  0  0  0  0  0  0  0  0  0
   -4.8116    9.7640   -8.0536 C   0  0  0  0  0  0  0  0  0  0  0  0
   -3.5500   10.3127   -7.8058 C   0  0  0  0  0  0  0  0  0  0  0  0
   -3.4411   11.5873   -7.2364 C   0  0  0  0  0  0  0  0  0  0  0  0
   -4.5925   12.3023   -6.9174 C   0  0  0  0  0  0  0  0  0  0  0  0
   -5.8510   11.7510   -7.1622 C   0  0  0  0  0  0  0  0  0  0  0  0
   -2.0968   12.1763   -6.9669 C   0  0  0  0  0  0  0  0  0  0  0  0
   -1.7702   13.4221   -6.4317 C   0  0  0  0  0  0  0  0  0  0  0  0
   -0.4283   13.4864   -6.3849 N   0  0  0  0  0  0  0  0  0  0  0  0
    0.1730   12.4042   -6.8287 N   0  0  0  0  0  0  0  0  0  0  0  0
   -0.8019   11.5974   -7.2024 C   0  0  0  0  0  0  0  0  0  0  0  0
    0.3914   14.5951   -5.9029 C   0  0  0  0  0  0  0  0  0  0  0  0
   -6.1059   12.3069   -9.8697 H   0  0  0  0  0  0  0  0  0  0  0  0
   -8.1905   10.1197  -13.8887 H   0  0  0  0  0  0  0  0  0  0  0  0
   -7.6730   12.5260  -13.5414 H   0  0  0  0  0  0  0  0  0  0  0  0
   -6.1793   11.5781  -13.8530 H   0  0  0  0  0  0  0  0  0  0  0  0
   -8.0369    9.6092   -7.2600 H   0  0  0  0  0  0  0  0  0  0  0  0
   -3.9470   14.5387  -11.6690 H   0  0  0  0  0  0  0  0  0  0  0  0
   -4.6258   13.6075  -10.5121 H   0  0  0  0  0  0  0  0  0  0  0  0
   -5.2907   15.2263  -12.9277 H   0  0  0  0  0  0  0  0  0  0  0  0
   -4.8950    8.7804   -8.4918 H   0  0  0  0  0  0  0  0  0  0  0  0
   -2.6597    9.7538   -8.0534 H   0  0  0  0  0  0  0  0  0  0  0  0
   -4.5115   13.2861   -6.4794 H   0  0  0  0  0  0  0  0  0  0  0  0
   -6.7408   12.3071   -6.9064 H   0  0  0  0  0  0  0  0  0  0  0  0
   -2.4626   14.1882   -6.1155 H   0  0  0  0  0  0  0  0  0  0  0  0
   -0.6459   10.6195   -7.6335 H   0  0  0  0  0  0  0  0  0  0  0  0
    1.4555   14.3315   -5.9935 H   0  0  0  0  0  0  0  0  0  0  0  0
    0.1837   15.4928   -6.5038 H   0  0  0  0  0  0  0  0  0  0  0  0
    0.1522   14.7964   -4.8483 H   0  0  0  0  0  0  0  0  0  0  0  0
  1  2  1  0  0  0  0
  1  4  1  0  0  0  0
  1 12  2  3  0  0  0
  2  6  2  0  0  0  0
  3  4  1  0  0  0  0
  3  5  2  0  0  0  0
  5  6  1  0  0  0  0
  5  9  1  0  0  0  0
  6  7  1  0  0  0  0
  7  8  1  0  0  0  0
  7 10  2  3  0  0  0
  8  9  2  0  0  0  0
 10 14  1  0  0  0  0
 11 12  1  0  0  0  0
 12 13  1  0  0  0  0
 14 15  2  0  0  0  0
 14 19  1  0  0  0  0
 15 16  1  0  0  0  0
 16 17  2  0  0  0  0
 17 18  1  0  0  0  0
 17 20  1  0  0  0  0
 18 19  2  0  0  0  0
 20 21  2  0  0  0  0
 20 24  1  0  0  0  0
 21 22  1  0  0  0  0
 22 23  1  0  0  0  0
 22 25  1  0  0  0  0
 23 24  2  0  0  0  0
  2 26  1  0  0  0  0
  3 27  1  0  0  0  0
  4 28  1  0  0  0  0
  4 29  1  0  0  0  0
 10 30  1  0  0  0  0
 11 31  1  0  0  0  0
 11 32  1  0  0  0  0
 13 33  1  0  0  0  0
 15 34  1  0  0  0  0
 16 35  1  0  0  0  0
 18 36  1  0  0  0  0
 19 37  1  0  0  0  0
 21 38  1  0  0  0  0
 24 39  1  0  0  0  0
 25 40  1  0  0  0  0
 25 41  1  0  0  0  0
 25 42  1  0  0  0  0
M  END
> <Name>
32

> <IC50[uM]>
0.11

$$$$
32
  -OEChem-05192314333D
 Structure written by MMmdl.
 42 45  0     0  0  0  0  0  0999 V2000
   -6.3767   12.3649  -12.0150 C   0  0  0  0  0  0  0  0  0  0  0  0
   -6.5300   11.8201  -10.7355 C   0  0  0  0  0  0  0  0  0  0  0  0
   -7.7235   10.5758  -13.0283 C   0  0  0  0  0  0  0  0  0  0  0  0
   -6.9848   11.7731  -13.1297 C   0  0  0  0  0  0  0  0  0  0  0  0
   -7.8178   10.0121  -11.7526 C   0  0  0  0  0  0  0  0  0  0  0  0
   -7.2522   10.6205  -10.6098 C   0  0  0  0  0  0  0  0  0  0  0  0
   -7.6101    9.7439   -9.5117 C   0  0  0  0  0  0  0  0  0  0  0  0
   -8.2784    8.7249   -9.9778 N   0  0  0  0  0  0  0  0  0  0  0  0
   -8.4134    8.8570  -11.2978 N   0  0  0  0  0  0  0  0  0  0  0  0
   -7.3337    9.8935   -8.0288 C   0  0  0  0  0  0  0  0  0  0  0  0
   -4.4165   13.6746  -11.4876 N   0  0  0  0  0  0  0  0  0  0  0  0
   -5.5534   13.6276  -12.1919 C   0  0  0  0  0  0  0  0  0  0  0  0
   -5.9234   14.5178  -12.9405 O   0  0  0  0  0  0  0  0  0  0  0  0
   -5.9640   10.4853   -7.7356 C   0  0  0  0  0  0  0  0  0  0  0  0
   -4.8116    9.7640   -8.0536 C   0  0  0  0  0  0  0  0  0  0  0  0
   -3.5500   10.3127   -7.8058 C   0  0  0  0  0  0  0  0  0  0  0  0
   -3.4411   11.5873   -7.2364 C   0  0  0  0  0  0  0  0  0  0  0  0
   -4.5925   12.3023   -6.9174 C   0  0  0  0  0  0  0  0  0  0  0  0
   -5.8510   11.7510   -7.1622 C   0  0  0  0  0  0  0  0  0  0  0  0
   -2.0968   12.1763   -6.9669 C   0  0  0  0  0  0  0  0  0  0  0  0
   -1.7702   13.4221   -6.4317 C   0  0  0  0  0  0  0  0  0  0  0  0
   -0.4283   13.4864   -6.3849 N   0  0  0  0  0  0  0  0  0  0  0  0
    0.1730   12.4042   -6.8287 N   0  0  0  0  0  0  0  0  0  0  0  0
   -0.8019   11.5974   -7.2024 C   0  0  0  0  0  0  0  0  0  0  0  0
    0.3914   14.5951   -5.9029 C   0  0  0  0  0  0  0  0  0  0  0  0
   -5.5219   11.6382  -10.3348 H   0  0  0  0  0  0  0  0  0  0  0  0
   -7.0394   12.5745  -10.1179 H   0  0  0  0  0  0  0  0  0  0  0  0
   -8.1905   10.1197  -13.8887 H   0  0  0  0  0  0  0  0  0  0  0  0
   -6.8851   12.2475  -14.0948 H   0  0  0  0  0  0  0  0  0  0  0  0
   -8.0369    9.6092   -7.2600 H   0  0  0  0  0  0  0  0  0  0  0  0
   -3.9470   14.5387  -11.6690 H   0  0  0  0  0  0  0  0  0  0  0  0
   -4.6258   13.6075  -10.5121 H   0  0  0  0  0  0  0  0  0  0  0  0
   -5.2907   15.2263  -12.9277 H   0  0  0  0  0  0  0  0  0  0  0  0
   -4.8950    8.7804   -8.4918 H   0  0  0  0  0  0  0  0  0  0  0  0
   -2.6597    9.7538   -8.0534 H   0  0  0  0  0  0  0  0  0  0  0  0
   -4.5115   13.2861   -6.4794 H   0  0  0  0  0  0  0  0  0  0  0  0
   -6.7408   12.3071   -6.9064 H   0  0  0  0  0  0  0  0  0  0  0  0
   -2.4626   14.1882   -6.1155 H   0  0  0  0  0  0  0  0  0  0  0  0
   -0.6459   10.6195   -7.6335 H   0  0  0  0  0  0  0  0  0  0  0  0
    1.4555   14.3315   -5.9935 H   0  0  0  0  0  0  0  0  0  0  0  0
    0.1837   15.4928   -6.5038 H   0  0  0  0  0  0  0  0  0  0  0  0
    0.1522   14.7964   -4.8483 H   0  0  0  0  0  0  0  0  0  0  0  0
  1  2  1  0  0  0  0
  1  4  1  0  0  0  0
  1 12  2  3  0  0  0
  2  6  1  0  0  0  0
  3  4  2  0  0  0  0
  3  5  1  0  0  0  0
  5  6  2  0  0  0  0
  5  9  1  0  0  0  0
  6  7  1  0  0  0  0
  7  8  1  0  0  0  0
  7 10  2  3  0  0  0
  8  9  2  0  0  0  0
 10 14  1  0  0  0  0
 11 12  1  0  0  0  0
 12 13  1  0  0  0  0
 14 15  2  0  0  0  0
 14 19  1  0  0  0  0
 15 16  1  0  0  0  0
 16 17  2  0  0  0  0
 17 18  1  0  0  0  0
 17 20  1  0  0  0  0
 18 19  2  0  0  0  0
 20 21  2  0  0  0  0
 20 24  1  0  0  0  0
 21 22  1  0  0  0  0
 22 23  1  0  0  0  0
 22 25  1  0  0  0  0
 23 24  2  0  0  0  0
  2 26  1  0  0  0  0
  2 27  1  0  0  0  0
  3 28  1  0  0  0  0
  4 29  1  0  0  0  0
 10 30  1  0  0  0  0
 11 31  1  0  0  0  0
 11 32  1  0  0  0  0
 13 33  1  0  0  0  0
 15 34  1  0  0  0  0
 16 35  1  0  0  0  0
 18 36  1  0  0  0  0
 19 37  1  0  0  0  0
 21 38  1  0  0  0  0
 24 39  1  0  0  0  0
 25 40  1  0  0  0  0
 25 41  1  0  0  0  0
 25 42  1  0  0  0  0
M  END
> <Name>
32

> <IC50[uM]>
0.11

$$$$
32
  -OEChem-05192314333D
 Structure written by MMmdl.
 42 45  0     0  0  0  0  0  0999 V2000
   -6.3767   12.3649  -12.0150 C   0  0  0  0  0  0  0  0  0  0  0  0
   -6.5300   11.8201  -10.7355 C   0  0  0  0  0  0  0  0  0  0  0  0
   -7.7235   10.5758  -13.0283 C   0  0  0  0  0  0  0  0  0  0  0  0
   -6.9848   11.7731  -13.1297 C   0  0  0  0  0  0  0  0  0  0  0  0
   -7.8178   10.0121  -11.7526 C   0  0  0  0  0  0  0  0  0  0  0  0
   -7.2522   10.6205  -10.6098 C   0  0  0  0  0  0  0  0  0  0  0  0
   -7.6101    9.7439   -9.5117 C   0  0  0  0  0  0  0  0  0  0  0  0
   -8.2784    8.7249   -9.9778 N   0  0  0  0  0  0  0  0  0  0  0  0
   -8.4134    8.8570  -11.2978 N   0  0  0  0  0  0  0  0  0  0  0  0
   -7.3337    9.8935   -8.0288 C   0  0  0  0  0  0  0  0  0  0  0  0
   -4.4165   13.6746  -11.4876 N   0  0  0  0  0  0  0  0  0  0  0  0
   -5.5534   13.6276  -12.1919 C   0  0  0  0  0  0  0  0  0  0  0  0
   -5.9234   14.5178  -12.9405 O   0  0  0  0  0  0  0  0  0  0  0  0
   -5.9640   10.4853   -7.7356 C   0  0  0  0  0  0  0  0  0  0  0  0
   -4.8116    9.7640   -8.0536 C   0  0  0  0  0  0  0  0  0  0  0  0
   -3.5500   10.3127   -7.8058 C   0  0  0  0  0  0  0  0  0  0  0  0
   -3.4411   11.5873   -7.2364 C   0  0  0  0  0  0  0  0  0  0  0  0
   -4.5925   12.3023   -6.9174 C   0  0  0  0  0  0  0  0  0  0  0  0
   -5.8510   11.7510   -7.1622 C   0  0  0  0  0  0  0  0  0  0  0  0
   -2.0968   12.1763   -6.9669 C   0  0  0  0  0  0  0  0  0  0  0  0
   -1.7702   13.4221   -6.4317 C   0  0  0  0  0  0  0  0  0  0  0  0
   -0.4283   13.4864   -6.3849 N   0  0  0  0  0  0  0  0  0  0  0  0
    0.1730   12.4042   -6.8287 N   0  0  0  0  0  0  0  0  0  0  0  0
   -0.8019   11.5974   -7.2024 C   0  0  0  0  0  0  0  0  0  0  0  0
    0.3914   14.5951   -5.9029 C   0  0  0  0  0  0  0  0  0  0  0  0
   -6.1059   12.3069   -9.8697 H   0  0  0  0  0  0  0  0  0  0  0  0
   -8.1905   10.1197  -13.8887 H   0  0  0  0  0  0  0  0  0  0  0  0
   -6.8851   12.2475  -14.0948 H   0  0  0  0  0  0  0  0  0  0  0  0
   -8.0369    9.6092   -7.2600 H   0  0  0  0  0  0  0  0  0  0  0  0
   -3.9470   14.5387  -11.6690 H   0  0  0  0  0  0  0  0  0  0  0  0
   -4.6258   13.6075  -10.5121 H   0  0  0  0  0  0  0  0  0  0  0  0
   -5.2907   15.2263  -12.9277 H   0  0  0  0  0  0  0  0  0  0  0  0
   -4.8950    8.7804   -8.4918 H   0  0  0  0  0  0  0  0  0  0  0  0
   -2.6597    9.7538   -8.0534 H   0  0  0  0  0  0  0  0  0  0  0  0
   -3.4383   12.0370   -8.2403 H   0  0  0  0  0  0  0  0  0  0  0  0
   -4.5115   13.2861   -6.4794 H   0  0  0  0  0  0  0  0  0  0  0  0
   -6.7408   12.3071   -6.9064 H   0  0  0  0  0  0  0  0  0  0  0  0
   -2.4626   14.1882   -6.1155 H   0  0  0  0  0  0  0  0  0  0  0  0
   -0.6459   10.6195   -7.6335 H   0  0  0  0  0  0  0  0  0  0  0  0
    1.4555   14.3315   -5.9935 H   0  0  0  0  0  0  0  0  0  0  0  0
    0.1837   15.4928   -6.5038 H   0  0  0  0  0  0  0  0  0  0  0  0
    0.1522   14.7964   -4.8483 H   0  0  0  0  0  0  0  0  0  0  0  0
  1  2  1  0  0  0  0
  1  4  1  0  0  0  0
  1 12  2  3  0  0  0
  2  6  2  0  0  0  0
  3  4  2  0  0  0  0
  3  5  1  0  0  0  0
  5  6  1  0  0  0  0
  5  9  2  0  0  0  0
  6  7  1  0  0  0  0
  7  8  2  0  0  0  0
  7 10  1  0  0  0  0
  8  9  1  0  0  0  0
 10 14  2  0  0  0  0
 11 12  1  0  0  0  0
 12 13  1  0  0  0  0
 14 15  1  0  0  0  0
 14 19  1  0  0  0  0
 15 16  2  0  0  0  0
 16 17  1  0  0  0  0
 17 18  1  0  0  0  0
 17 20  1  0  0  0  0
 18 19  2  0  0  0  0
 20 21  2  0  0  0  0
 20 24  1  0  0  0  0
 21 22  1  0  0  0  0
 22 23  1  0  0  0  0
 22 25  1  0  0  0  0
 23 24  2  0  0  0  0
  2 26  1  0  0  0  0
  3 27  1  0  0  0  0
  4 28  1  0  0  0  0
 10 29  1  0  0  0  0
 11 30  1  0  0  0  0
 11 31  1  0  0  0  0
 13 32  1  0  0  0  0
 15 33  1  0  0  0  0
 16 34  1  0  0  0  0
 17 35  1  0  0  0  0
 18 36  1  0  0  0  0
 19 37  1  0  0  0  0
 21 38  1  0  0  0  0
 24 39  1  0  0  0  0
 25 40  1  0  0  0  0
 25 41  1  0  0  0  0
 25 42  1  0  0  0  0
M  END
> <Name>
32

> <IC50[uM]>
0.11

$$$$
32
  -OEChem-05192314333D
 Structure written by MMmdl.
 42 45  0     0  0  0  0  0  0999 V2000
   -6.3767   12.3649  -12.0150 C   0  0  0  0  0  0  0  0  0  0  0  0
   -6.5300   11.8201  -10.7355 C   0  0  0  0  0  0  0  0  0  0  0  0
   -7.7235   10.5758  -13.0283 C   0  0  0  0  0  0  0  0  0  0  0  0
   -6.9848   11.7731  -13.1297 C   0  0  0  0  0  0  0  0  0  0  0  0
   -7.8178   10.0121  -11.7526 C   0  0  0  0  0  0  0  0  0  0  0  0
   -7.2522   10.6205  -10.6098 C   0  0  0  0  0  0  0  0  0  0  0  0
   -7.6101    9.7439   -9.5117 C   0  0  0  0  0  0  0  0  0  0  0  0
   -8.2784    8.7249   -9.9778 N   0  0  0  0  0  0  0  0  0  0  0  0
   -8.4134    8.8570  -11.2978 N   0  0  0  0  0  0  0  0  0  0  0  0
   -7.3337    9.8935   -8.0288 C   0  0  0  0  0  0  0  0  0  0  0  0
   -4.4165   13.6746  -11.4876 N   0  0  0  0  0  0  0  0  0  0  0  0
   -5.5534   13.6276  -12.1919 C   0  0  0  0  0  0  0  0  0  0  0  0
   -5.9234   14.5178  -12.9405 O   0  0  0  0  0  0  0  0  0  0  0  0
   -5.9640   10.4853   -7.7356 C   0  0  0  0  0  0  0  0  0  0  0  0
   -4.8116    9.7640   -8.0536 C   0  0  0  0  0  0  0  0  0  0  0  0
   -3.5500   10.3127   -7.8058 C   0  0  0  0  0  0  0  0  0  0  0  0
   -3.4411   11.5873   -7.2364 C   0  0  0  0  0  0  0  0  0  0  0  0
   -4.5925   12.3023   -6.9174 C   0  0  0  0  0  0  0  0  0  0  0  0
   -5.8510   11.7510   -7.1622 C   0  0  0  0  0  0  0  0  0  0  0  0
   -2.0968   12.1763   -6.9669 C   0  0  0  0  0  0  0  0  0  0  0  0
   -1.7702   13.4221   -6.4317 C   0  0  0  0  0  0  0  0  0  0  0  0
   -0.4283   13.4864   -6.3849 N   0  0  0  0  0  0  0  0  0  0  0  0
    0.1730   12.4042   -6.8287 N   0  0  0  0  0  0  0  0  0  0  0  0
   -0.8019   11.5974   -7.2024 C   0  0  0  0  0  0  0  0  0  0  0  0
    0.3914   14.5951   -5.9029 C   0  0  0  0  0  0  0  0  0  0  0  0
   -6.1059   12.3069   -9.8697 H   0  0  0  0  0  0  0  0  0  0  0  0
   -8.1905   10.1197  -13.8887 H   0  0  0  0  0  0  0  0  0  0  0  0
   -6.8851   12.2475  -14.0948 H   0  0  0  0  0  0  0  0  0  0  0  0
   -8.0369    9.6092   -7.2600 H   0  0  0  0  0  0  0  0  0  0  0  0
   -3.9470   14.5387  -11.6690 H   0  0  0  0  0  0  0  0  0  0  0  0
   -4.6258   13.6075  -10.5121 H   0  0  0  0  0  0  0  0  0  0  0  0
   -5.2907   15.2263  -12.9277 H   0  0  0  0  0  0  0  0  0  0  0  0
   -4.8950    8.7804   -8.4918 H   0  0  0  0  0  0  0  0  0  0  0  0
   -2.6597    9.7538   -8.0534 H   0  0  0  0  0  0  0  0  0  0  0  0
   -4.5115   13.2861   -6.4794 H   0  0  0  0  0  0  0  0  0  0  0  0
   -6.3776   12.4489   -7.8298 H   0  0  0  0  0  0  0  0  0  0  0  0
   -6.3709   11.7071   -6.1938 H   0  0  0  0  0  0  0  0  0  0  0  0
   -2.4626   14.1882   -6.1155 H   0  0  0  0  0  0  0  0  0  0  0  0
   -0.6459   10.6195   -7.6335 H   0  0  0  0  0  0  0  0  0  0  0  0
    1.4555   14.3315   -5.9935 H   0  0  0  0  0  0  0  0  0  0  0  0
    0.1837   15.4928   -6.5038 H   0  0  0  0  0  0  0  0  0  0  0  0
    0.1522   14.7964   -4.8483 H   0  0  0  0  0  0  0  0  0  0  0  0
  1  2  1  0  0  0  0
  1  4  1  0  0  0  0
  1 12  2  3  0  0  0
  2  6  2  0  0  0  0
  3  4  2  0  0  0  0
  3  5  1  0  0  0  0
  5  6  1  0  0  0  0
  5  9  2  0  0  0  0
  6  7  1  0  0  0  0
  7  8  2  0  0  0  0
  7 10  1  0  0  0  0
  8  9  1  0  0  0  0
 10 14  2  3  0  0  0
 11 12  1  0  0  0  0
 12 13  1  0  0  0  0
 14 15  1  0  0  0  0
 14 19  1  0  0  0  0
 15 16  2  0  0  0  0
 16 17  1  0  0  0  0
 17 18  2  0  0  0  0
 17 20  1  0  0  0  0
 18 19  1  0  0  0  0
 20 21  2  0  0  0  0
 20 24  1  0  0  0  0
 21 22  1  0  0  0  0
 22 23  1  0  0  0  0
 22 25  1  0  0  0  0
 23 24  2  0  0  0  0
  2 26  1  0  0  0  0
  3 27  1  0  0  0  0
  4 28  1  0  0  0  0
 10 29  1  0  0  0  0
 11 30  1  0  0  0  0
 11 31  1  0  0  0  0
 13 32  1  0  0  0  0
 15 33  1  0  0  0  0
 16 34  1  0  0  0  0
 18 35  1  0  0  0  0
 19 36  1  0  0  0  0
 19 37  1  0  0  0  0
 21 38  1  0  0  0  0
 24 39  1  0  0  0  0
 25 40  1  0  0  0  0
 25 41  1  0  0  0  0
 25 42  1  0  0  0  0
M  END
> <Name>
32

> <IC50[uM]>
0.11

$$$$
