44
  -OEChem-05192314333D
 Structure written by MMmdl.
 46 50  0     0  0  0  0  0  0999 V2000
   -6.3932   12.3500  -12.0125 C   0  0  0  0  0  0  0  0  0  0  0  0
   -6.5644   11.7828  -10.7394 C   0  0  0  0  0  0  0  0  0  0  0  0
   -7.7358   10.5711  -13.0331 C   0  0  0  0  0  0  0  0  0  0  0  0
   -6.9954   11.7572  -13.1322 C   0  0  0  0  0  0  0  0  0  0  0  0
   -7.8242    9.9989  -11.7591 C   0  0  0  0  0  0  0  0  0  0  0  0
   -7.2585   10.6059  -10.6150 C   0  0  0  0  0  0  0  0  0  0  0  0
   -7.6168    9.7386   -9.5213 C   0  0  0  0  0  0  0  0  0  0  0  0
   -8.2709    8.7166   -9.9884 N   0  0  0  0  0  0  0  0  0  0  0  0
   -8.4108    8.8490  -11.3012 N   0  0  0  0  0  0  0  0  0  0  0  0
   -7.3306    9.8912   -8.0312 C   0  0  0  0  0  0  0  0  0  0  0  0
   -4.5413   13.8555  -11.3648 N   0  0  0  0  0  0  0  0  0  0  0  0
   -5.5934   13.6525  -12.1835 C   0  0  0  0  0  0  0  0  0  0  0  0
   -5.9232   14.4812  -13.0224 O   0  0  0  0  0  0  0  0  0  0  0  0
   -5.9508   10.4991   -7.7310 C   0  0  0  0  0  0  0  0  0  0  0  0
   -5.8673   11.7672   -7.1520 C   0  0  0  0  0  0  0  0  0  0  0  0
   -4.6035   12.3102   -6.9134 C   0  0  0  0  0  0  0  0  0  0  0  0
   -3.4392   11.5630   -7.2455 C   0  0  0  0  0  0  0  0  0  0  0  0
   -3.5146   10.2834   -7.8141 C   0  0  0  0  0  0  0  0  0  0  0  0
   -4.7998    9.7761   -8.0492 C   0  0  0  0  0  0  0  0  0  0  0  0
   -4.0885   13.5395   -6.3720 C   0  0  0  0  0  0  0  0  0  0  0  0
   -2.7847   13.5343   -6.3770 N   0  0  0  0  0  0  0  0  0  0  0  0
   -2.3791   12.3751   -6.8806 N   0  0  0  0  0  0  0  0  0  0  0  0
   -0.9494   12.1118   -6.9818 C   0  0  0  0  0  0  0  0  0  0  0  0
   -3.7091   15.0460  -11.2252 C   0  0  0  0  0  0  0  0  0  0  0  0
   -3.1570   14.3608   -9.9755 C   0  0  0  0  0  0  0  0  0  0  0  0
   -4.1684   13.2423  -10.1016 C   0  0  0  0  0  0  0  0  0  0  0  0
   -1.8246   13.9322  -10.0585 O   0  0  0  0  0  0  0  0  0  0  0  0
   -6.1536   12.2683   -9.8665 H   0  0  0  0  0  0  0  0  0  0  0  0
   -8.2120   10.1234  -13.8929 H   0  0  0  0  0  0  0  0  0  0  0  0
   -6.8855   12.2280  -14.0979 H   0  0  0  0  0  0  0  0  0  0  0  0
   -8.6144    7.9513   -9.4440 H   0  0  0  0  0  0  0  0  0  0  0  0
   -8.1010   10.5432   -7.5937 H   0  0  0  0  0  0  0  0  0  0  0  0
   -7.3824    8.8971   -7.5631 H   0  0  0  0  0  0  0  0  0  0  0  0
   -6.7611   12.3160   -6.8944 H   0  0  0  0  0  0  0  0  0  0  0  0
   -2.6276    9.7177   -8.0584 H   0  0  0  0  0  0  0  0  0  0  0  0
   -4.9028    8.7956   -8.4901 H   0  0  0  0  0  0  0  0  0  0  0  0
   -4.6981   14.3547   -6.0110 H   0  0  0  0  0  0  0  0  0  0  0  0
   -0.3887   12.9766   -6.5976 H   0  0  0  0  0  0  0  0  0  0  0  0
   -0.6982   11.2196   -6.3895 H   0  0  0  0  0  0  0  0  0  0  0  0
   -0.6820   11.9401   -8.0349 H   0  0  0  0  0  0  0  0  0  0  0  0
   -2.9790   15.2028  -12.0329 H   0  0  0  0  0  0  0  0  0  0  0  0
   -4.2586   15.9809  -11.0410 H   0  0  0  0  0  0  0  0  0  0  0  0
   -3.3524   14.9686   -9.0797 H   0  0  0  0  0  0  0  0  0  0  0  0
   -4.9575   13.2416   -9.3352 H   0  0  0  0  0  0  0  0  0  0  0  0
   -3.7371   12.2338  -10.1847 H   0  0  0  0  0  0  0  0  0  0  0  0
   -1.5721   13.5212   -9.2401 H   0  0  0  0  0  0  0  0  0  0  0  0
  1  2  2  0  0  0  0
  1  4  1  0  0  0  0
  1 12  1  0  0  0  0
  2  6  1  0  0  0  0
  3  4  2  0  0  0  0
  3  5  1  0  0  0  0
  5  6  1  0  0  0  0
  5  9  2  0  0  0  0
  6  7  2  0  0  0  0
  7  8  1  0  0  0  0
  7 10  1  0  0  0  0
  8  9  1  0  0  0  0
 10 14  1  0  0  0  0
 11 12  1  0  0  0  0
 11 24  1  0  0  0  0
 11 26  1  0  0  0  0
 12 13  2  0  0  0  0
 14 15  2  0  0  0  0
 14 19  1  0  0  0  0
 15 16  1  0  0  0  0
 16 17  2  0  0  0  0
 16 20  1  0  0  0  0
 17 18  1  0  0  0  0
 17 22  1  0  0  0  0
 18 19  2  0  0  0  0
 20 21  2  0  0  0  0
 21 22  1  0  0  0  0
 22 23  1  0  0  0  0
 24 25  1  0  0  0  0
 25 26  1  0  0  0  0
 25 27  1  0  0  0  0
  2 28  1  0  0  0  0
  3 29  1  0  0  0  0
  4 30  1  0  0  0  0
  8 31  1  0  0  0  0
 10 32  1  0  0  0  0
 10 33  1  0  0  0  0
 15 34  1  0  0  0  0
 18 35  1  0  0  0  0
 19 36  1  0  0  0  0
 20 37  1  0  0  0  0
 23 38  1  0  0  0  0
 23 39  1  0  0  0  0
 23 40  1  0  0  0  0
 24 41  1  0  0  0  0
 24 42  1  0  0  0  0
 25 43  1  0  0  0  0
 26 44  1  0  0  0  0
 26 45  1  0  0  0  0
 27 46  1  0  0  0  0
M  END
> <Name>
44

> <IC50[uM]>
0.004

$$$$
44
  -OEChem-05192314333D
 Structure written by MMmdl.
 46 50  0     0  0  0  0  0  0999 V2000
   -6.3932   12.3500  -12.0125 C   0  0  0  0  0  0  0  0  0  0  0  0
   -6.5644   11.7828  -10.7394 C   0  0  0  0  0  0  0  0  0  0  0  0
   -7.7358   10.5711  -13.0331 C   0  0  0  0  0  0  0  0  0  0  0  0
   -6.9954   11.7572  -13.1322 C   0  0  0  0  0  0  0  0  0  0  0  0
   -7.8242    9.9989  -11.7591 C   0  0  0  0  0  0  0  0  0  0  0  0
   -7.2585   10.6059  -10.6150 C   0  0  0  0  0  0  0  0  0  0  0  0
   -7.6168    9.7386   -9.5213 C   0  0  0  0  0  0  0  0  0  0  0  0
   -8.2709    8.7166   -9.9884 N   0  0  0  0  0  0  0  0  0  0  0  0
   -8.4108    8.8490  -11.3012 N   0  0  0  0  0  0  0  0  0  0  0  0
   -7.3306    9.8912   -8.0312 C   0  0  0  0  0  0  0  0  0  0  0  0
   -4.5413   13.8555  -11.3648 N   0  0  0  0  0  0  0  0  0  0  0  0
   -5.5934   13.6525  -12.1835 C   0  0  0  0  0  0  0  0  0  0  0  0
   -5.9232   14.4812  -13.0224 O   0  0  0  0  0  0  0  0  0  0  0  0
   -5.9508   10.4991   -7.7310 C   0  0  0  0  0  0  0  0  0  0  0  0
   -5.8673   11.7672   -7.1520 C   0  0  0  0  0  0  0  0  0  0  0  0
   -4.6035   12.3102   -6.9134 C   0  0  0  0  0  0  0  0  0  0  0  0
   -3.4392   11.5630   -7.2455 C   0  0  0  0  0  0  0  0  0  0  0  0
   -3.5146   10.2834   -7.8141 C   0  0  0  0  0  0  0  0  0  0  0  0
   -4.7998    9.7761   -8.0492 C   0  0  0  0  0  0  0  0  0  0  0  0
   -4.0885   13.5395   -6.3720 C   0  0  0  0  0  0  0  0  0  0  0  0
   -2.7847   13.5343   -6.3770 N   0  0  0  0  0  0  0  0  0  0  0  0
   -2.3791   12.3751   -6.8806 N   0  0  0  0  0  0  0  0  0  0  0  0
   -0.9494   12.1118   -6.9818 C   0  0  0  0  0  0  0  0  0  0  0  0
   -3.7091   15.0460  -11.2252 C   0  0  0  0  0  0  0  0  0  0  0  0
   -3.1570   14.3608   -9.9755 C   0  0  0  0  0  0  0  0  0  0  0  0
   -4.1684   13.2423  -10.1016 C   0  0  0  0  0  0  0  0  0  0  0  0
   -1.8246   13.9322  -10.0585 O   0  0  0  0  0  0  0  0  0  0  0  0
   -6.1536   12.2683   -9.8665 H   0  0  0  0  0  0  0  0  0  0  0  0
   -8.2120   10.1234  -13.8929 H   0  0  0  0  0  0  0  0  0  0  0  0
   -6.8855   12.2280  -14.0979 H   0  0  0  0  0  0  0  0  0  0  0  0
   -8.8860    8.1903  -11.8845 H   0  0  0  0  0  0  0  0  0  0  0  0
   -8.1010   10.5432   -7.5937 H   0  0  0  0  0  0  0  0  0  0  0  0
   -7.3824    8.8971   -7.5631 H   0  0  0  0  0  0  0  0  0  0  0  0
   -6.7611   12.3160   -6.8944 H   0  0  0  0  0  0  0  0  0  0  0  0
   -2.6276    9.7177   -8.0584 H   0  0  0  0  0  0  0  0  0  0  0  0
   -4.9028    8.7956   -8.4901 H   0  0  0  0  0  0  0  0  0  0  0  0
   -4.6981   14.3547   -6.0110 H   0  0  0  0  0  0  0  0  0  0  0  0
   -0.3887   12.9766   -6.5976 H   0  0  0  0  0  0  0  0  0  0  0  0
   -0.6982   11.2196   -6.3895 H   0  0  0  0  0  0  0  0  0  0  0  0
   -0.6820   11.9401   -8.0349 H   0  0  0  0  0  0  0  0  0  0  0  0
   -2.9790   15.2028  -12.0329 H   0  0  0  0  0  0  0  0  0  0  0  0
   -4.2586   15.9809  -11.0410 H   0  0  0  0  0  0  0  0  0  0  0  0
   -3.3524   14.9686   -9.0797 H   0  0  0  0  0  0  0  0  0  0  0  0
   -4.9575   13.2416   -9.3352 H   0  0  0  0  0  0  0  0  0  0  0  0
   -3.7371   12.2338  -10.1847 H   0  0  0  0  0  0  0  0  0  0  0  0
   -1.5721   13.5212   -9.2401 H   0  0  0  0  0  0  0  0  0  0  0  0
  1  2  2  0  0  0  0
  1  4  1  0  0  0  0
  1 12  1  0  0  0  0
  2  6  1  0  0  0  0
  3  4  2  0  0  0  0
  3  5  1  0  0  0  0
  5  6  2  0  0  0  0
  5  9  1  0  0  0  0
  6  7  1  0  0  0  0
  7  8  2  0  0  0  0
  7 10  1  0  0  0  0
  8  9  1  0  0  0  0
 10 14  1  0  0  0  0
 11 12  1  0  0  0  0
 11 24  1  0  0  0  0
 11 26  1  0  0  0  0
 12 13  2  0  0  0  0
 14 15  2  0  0  0  0
 14 19  1  0  0  0  0
 15 16  1  0  0  0  0
 16 17  2  0  0  0  0
 16 20  1  0  0  0  0
 17 18  1  0  0  0  0
 17 22  1  0  0  0  0
 18 19  2  0  0  0  0
 20 21  2  0  0  0  0
 21 22  1  0  0  0  0
 22 23  1  0  0  0  0
 24 25  1  0  0  0  0
 25 26  1  0  0  0  0
 25 27  1  0  0  0  0
  2 28  1  0  0  0  0
  3 29  1  0  0  0  0
  4 30  1  0  0  0  0
  9 31  1  0  0  0  0
 10 32  1  0  0  0  0
 10 33  1  0  0  0  0
 15 34  1  0  0  0  0
 18 35  1  0  0  0  0
 19 36  1  0  0  0  0
 20 37  1  0  0  0  0
 23 38  1  0  0  0  0
 23 39  1  0  0  0  0
 23 40  1  0  0  0  0
 24 41  1  0  0  0  0
 24 42  1  0  0  0  0
 25 43  1  0  0  0  0
 26 44  1  0  0  0  0
 26 45  1  0  0  0  0
 27 46  1  0  0  0  0
M  END
> <Name>
44

> <IC50[uM]>
0.004

$$$$
44
  -OEChem-05192314333D
 Structure written by MMmdl.
 46 50  0     1  0  0  0  0  0999 V2000
   -6.3932   12.3500  -12.0125 C   0  0  0  0  0  0  0  0  0  0  0  0
   -6.5644   11.7828  -10.7394 C   0  0  0  0  0  0  0  0  0  0  0  0
   -7.7358   10.5711  -13.0331 C   0  0  0  0  0  0  0  0  0  0  0  0
   -6.9954   11.7572  -13.1322 C   0  0  0  0  0  0  0  0  0  0  0  0
   -7.8242    9.9989  -11.7591 C   0  0  0  0  0  0  0  0  0  0  0  0
   -7.2585   10.6059  -10.6150 C   0  0  0  0  0  0  0  0  0  0  0  0
   -7.6168    9.7386   -9.5213 C   0  0  3  0  0  0  0  0  0  0  0  0
   -8.2709    8.7166   -9.9884 N   0  0  0  0  0  0  0  0  0  0  0  0
   -8.4108    8.8490  -11.3012 N   0  0  0  0  0  0  0  0  0  0  0  0
   -7.3306    9.8912   -8.0312 C   0  0  0  0  0  0  0  0  0  0  0  0
   -4.5413   13.8555  -11.3648 N   0  0  0  0  0  0  0  0  0  0  0  0
   -5.5934   13.6525  -12.1835 C   0  0  0  0  0  0  0  0  0  0  0  0
   -5.9232   14.4812  -13.0224 O   0  0  0  0  0  0  0  0  0  0  0  0
   -5.9508   10.4991   -7.7310 C   0  0  0  0  0  0  0  0  0  0  0  0
   -5.8673   11.7672   -7.1520 C   0  0  0  0  0  0  0  0  0  0  0  0
   -4.6035   12.3102   -6.9134 C   0  0  0  0  0  0  0  0  0  0  0  0
   -3.4392   11.5630   -7.2455 C   0  0  0  0  0  0  0  0  0  0  0  0
   -3.5146   10.2834   -7.8141 C   0  0  0  0  0  0  0  0  0  0  0  0
   -4.7998    9.7761   -8.0492 C   0  0  0  0  0  0  0  0  0  0  0  0
   -4.0885   13.5395   -6.3720 C   0  0  0  0  0  0  0  0  0  0  0  0
   -2.7847   13.5343   -6.3770 N   0  0  0  0  0  0  0  0  0  0  0  0
   -2.3791   12.3751   -6.8806 N   0  0  0  0  0  0  0  0  0  0  0  0
   -0.9494   12.1118   -6.9818 C   0  0  0  0  0  0  0  0  0  0  0  0
   -3.7091   15.0460  -11.2252 C   0  0  0  0  0  0  0  0  0  0  0  0
   -3.1570   14.3608   -9.9755 C   0  0  0  0  0  0  0  0  0  0  0  0
   -4.1684   13.2423  -10.1016 C   0  0  0  0  0  0  0  0  0  0  0  0
   -1.8246   13.9322  -10.0585 O   0  0  0  0  0  0  0  0  0  0  0  0
   -6.1536   12.2683   -9.8665 H   0  0  0  0  0  0  0  0  0  0  0  0
   -8.2120   10.1234  -13.8929 H   0  0  0  0  0  0  0  0  0  0  0  0
   -6.8855   12.2280  -14.0979 H   0  0  0  0  0  0  0  0  0  0  0  0
   -8.5622   10.2868   -9.3961 H   0  0  0  0  0  0  0  0  0  0  0  0
   -8.1010   10.5432   -7.5937 H   0  0  0  0  0  0  0  0  0  0  0  0
   -7.3824    8.8971   -7.5631 H   0  0  0  0  0  0  0  0  0  0  0  0
   -6.7611   12.3160   -6.8944 H   0  0  0  0  0  0  0  0  0  0  0  0
   -2.6276    9.7177   -8.0584 H   0  0  0  0  0  0  0  0  0  0  0  0
   -4.9028    8.7956   -8.4901 H   0  0  0  0  0  0  0  0  0  0  0  0
   -4.6981   14.3547   -6.0110 H   0  0  0  0  0  0  0  0  0  0  0  0
   -0.3887   12.9766   -6.5976 H   0  0  0  0  0  0  0  0  0  0  0  0
   -0.6982   11.2196   -6.3895 H   0  0  0  0  0  0  0  0  0  0  0  0
   -0.6820   11.9401   -8.0349 H   0  0  0  0  0  0  0  0  0  0  0  0
   -2.9790   15.2028  -12.0329 H   0  0  0  0  0  0  0  0  0  0  0  0
   -4.2586   15.9809  -11.0410 H   0  0  0  0  0  0  0  0  0  0  0  0
   -3.3524   14.9686   -9.0797 H   0  0  0  0  0  0  0  0  0  0  0  0
   -4.9575   13.2416   -9.3352 H   0  0  0  0  0  0  0  0  0  0  0  0
   -3.7371   12.2338  -10.1847 H   0  0  0  0  0  0  0  0  0  0  0  0
   -1.5721   13.5212   -9.2401 H   0  0  0  0  0  0  0  0  0  0  0  0
  1  2  2  0  0  0  0
  1  4  1  0  0  0  0
  1 12  1  0  0  0  0
  2  6  1  0  0  0  0
  3  4  2  0  0  0  0
  3  5  1  0  0  0  0
  5  6  2  0  0  0  0
  5  9  1  0  0  0  0
  6  7  1  0  0  0  0
  7  8  1  0  0  0  0
  7 10  1  0  0  0  0
  8  9  2  0  0  0  0
 10 14  1  0  0  0  0
 11 12  1  0  0  0  0
 11 24  1  0  0  0  0
 11 26  1  0  0  0  0
 12 13  2  0  0  0  0
 14 15  2  0  0  0  0
 14 19  1  0  0  0  0
 15 16  1  0  0  0  0
 16 17  2  0  0  0  0
 16 20  1  0  0  0  0
 17 18  1  0  0  0  0
 17 22  1  0  0  0  0
 18 19  2  0  0  0  0
 20 21  2  0  0  0  0
 21 22  1  0  0  0  0
 22 23  1  0  0  0  0
 24 25  1  0  0  0  0
 25 26  1  0  0  0  0
 25 27  1  0  0  0  0
  2 28  1  0  0  0  0
  3 29  1  0  0  0  0
  4 30  1  0  0  0  0
  7 31  1  0  0  0  0
 10 32  1  0  0  0  0
 10 33  1  0  0  0  0
 15 34  1  0  0  0  0
 18 35  1  0  0  0  0
 19 36  1  0  0  0  0
 20 37  1  0  0  0  0
 23 38  1  0  0  0  0
 23 39  1  0  0  0  0
 23 40  1  0  0  0  0
 24 41  1  0  0  0  0
 24 42  1  0  0  0  0
 25 43  1  0  0  0  0
 26 44  1  0  0  0  0
 26 45  1  0  0  0  0
 27 46  1  0  0  0  0
M  END
> <Name>
44

> <IC50[uM]>
0.004

$$$$
44
  -OEChem-05192314333D
 Structure written by MMmdl.
 46 50  0     0  0  0  0  0  0999 V2000
   -6.3932   12.3500  -12.0125 C   0  0  0  0  0  0  0  0  0  0  0  0
   -6.5644   11.7828  -10.7394 C   0  0  0  0  0  0  0  0  0  0  0  0
   -7.7358   10.5711  -13.0331 C   0  0  0  0  0  0  0  0  0  0  0  0
   -6.9954   11.7572  -13.1322 C   0  0  0  0  0  0  0  0  0  0  0  0
   -7.8242    9.9989  -11.7591 C   0  0  0  0  0  0  0  0  0  0  0  0
   -7.2585   10.6059  -10.6150 C   0  0  0  0  0  0  0  0  0  0  0  0
   -7.6168    9.7386   -9.5213 C   0  0  0  0  0  0  0  0  0  0  0  0
   -8.2709    8.7166   -9.9884 N   0  0  0  0  0  0  0  0  0  0  0  0
   -8.4108    8.8490  -11.3012 N   0  0  0  0  0  0  0  0  0  0  0  0
   -7.3306    9.8912   -8.0312 C   0  0  0  0  0  0  0  0  0  0  0  0
   -4.5413   13.8555  -11.3648 N   0  0  0  0  0  0  0  0  0  0  0  0
   -5.5934   13.6525  -12.1835 C   0  0  0  0  0  0  0  0  0  0  0  0
   -5.9232   14.4812  -13.0224 O   0  0  0  0  0  0  0  0  0  0  0  0
   -5.9508   10.4991   -7.7310 C   0  0  0  0  0  0  0  0  0  0  0  0
   -5.8673   11.7672   -7.1520 C   0  0  0  0  0  0  0  0  0  0  0  0
   -4.6035   12.3102   -6.9134 C   0  0  0  0  0  0  0  0  0  0  0  0
   -3.4392   11.5630   -7.2455 C   0  0  0  0  0  0  0  0  0  0  0  0
   -3.5146   10.2834   -7.8141 C   0  0  0  0  0  0  0  0  0  0  0  0
   -4.7998    9.7761   -8.0492 C   0  0  0  0  0  0  0  0  0  0  0  0
   -4.0885   13.5395   -6.3720 C   0  0  0  0  0  0  0  0  0  0  0  0
   -2.7847   13.5343   -6.3770 N   0  0  0  0  0  0  0  0  0  0  0  0
   -2.3791   12.3751   -6.8806 N   0  0  0  0  0  0  0  0  0  0  0  0
   -0.9494   12.1118   -6.9818 C   0  0  0  0  0  0  0  0  0  0  0  0
   -3.7091   15.0460  -11.2252 C   0  0  0  0  0  0  0  0  0  0  0  0
   -3.1570   14.3608   -9.9755 C   0  0  0  0  0  0  0  0  0  0  0  0
   -4.1684   13.2423  -10.1016 C   0  0  0  0  0  0  0  0  0  0  0  0
   -1.8246   13.9322  -10.0585 O   0  0  0  0  0  0  0  0  0  0  0  0
   -6.1536   12.2683   -9.8665 H   0  0  0  0  0  0  0  0  0  0  0  0
   -8.2120   10.1234  -13.8929 H   0  0  0  0  0  0  0  0  0  0  0  0
   -6.8855   12.2280  -14.0979 H   0  0  0  0  0  0  0  0  0  0  0  0
   -7.7655    7.8770   -9.7892 H   0  0  0  0  0  0  0  0  0  0  0  0
   -9.3857    8.8720  -11.5227 H   0  0  0  0  0  0  0  0  0  0  0  0
   -8.0297    9.6003   -7.2611 H   0  0  0  0  0  0  0  0  0  0  0  0
   -6.7611   12.3160   -6.8944 H   0  0  0  0  0  0  0  0  0  0  0  0
   -2.6276    9.7177   -8.0584 H   0  0  0  0  0  0  0  0  0  0  0  0
   -4.9028    8.7956   -8.4901 H   0  0  0  0  0  0  0  0  0  0  0  0
   -4.6981   14.3547   -6.0110 H   0  0  0  0  0  0  0  0  0  0  0  0
   -0.3887   12.9766   -6.5976 H   0  0  0  0  0  0  0  0  0  0  0  0
   -0.6982   11.2196   -6.3895 H   0  0  0  0  0  0  0  0  0  0  0  0
   -0.6820   11.9401   -8.0349 H   0  0  0  0  0  0  0  0  0  0  0  0
   -2.9790   15.2028  -12.0329 H   0  0  0  0  0  0  0  0  0  0  0  0
   -4.2586   15.9809  -11.0410 H   0  0  0  0  0  0  0  0  0  0  0  0
   -3.3524   14.9686   -9.0797 H   0  0  0  0  0  0  0  0  0  0  0  0
   -4.9575   13.2416   -9.3352 H   0  0  0  0  0  0  0  0  0  0  0  0
   -3.7371   12.2338  -10.1847 H   0  0  0  0  0  0  0  0  0  0  0  0
   -1.5721   13.5212   -9.2401 H   0  0  0  0  0  0  0  0  0  0  0  0
  1  2  2  0  0  0  0
  1  4  1  0  0  0  0
  1 12  1  0  0  0  0
  2  6  1  0  0  0  0
  3  4  2  0  0  0  0
  3  5  1  0  0  0  0
  5  6  2  0  0  0  0
  5  9  1  0  0  0  0
  6  7  1  0  0  0  0
  7  8  1  0  0  0  0
  7 10  2  3  0  0  0
  8  9  1  0  0  0  0
 10 14  1  0  0  0  0
 11 12  1  0  0  0  0
 11 24  1  0  0  0  0
 11 26  1  0  0  0  0
 12 13  2  0  0  0  0
 14 15  2  0  0  0  0
 14 19  1  0  0  0  0
 15 16  1  0  0  0  0
 16 17  2  0  0  0  0
 16 20  1  0  0  0  0
 17 18  1  0  0  0  0
 17 22  1  0  0  0  0
 18 19  2  0  0  0  0
 20 21  2  0  0  0  0
 21 22  1  0  0  0  0
 22 23  1  0  0  0  0
 24 25  1  0  0  0  0
 25 26  1  0  0  0  0
 25 27  1  0  0  0  0
  2 28  1  0  0  0  0
  3 29  1  0  0  0  0
  4 30  1  0  0  0  0
  8 31  1  0  0  0  0
  9 32  1  0  0  0  0
 10 33  1  0  0  0  0
 15 34  1  0  0  0  0
 18 35  1  0  0  0  0
 19 36  1  0  0  0  0
 20 37  1  0  0  0  0
 23 38  1  0  0  0  0
 23 39  1  0  0  0  0
 23 40  1  0  0  0  0
 24 41  1  0  0  0  0
 24 42  1  0  0  0  0
 25 43  1  0  0  0  0
 26 44  1  0  0  0  0
 26 45  1  0  0  0  0
 27 46  1  0  0  0  0
M  END
> <Name>
44

> <IC50[uM]>
0.004

$$$$
44
  -OEChem-05192314333D
 Structure written by MMmdl.
 46 50  0     0  0  0  0  0  0999 V2000
   -6.3932   12.3500  -12.0125 C   0  0  0  0  0  0  0  0  0  0  0  0
   -6.5644   11.7828  -10.7394 C   0  0  0  0  0  0  0  0  0  0  0  0
   -7.7358   10.5711  -13.0331 C   0  0  0  0  0  0  0  0  0  0  0  0
   -6.9954   11.7572  -13.1322 C   0  0  0  0  0  0  0  0  0  0  0  0
   -7.8242    9.9989  -11.7591 C   0  0  0  0  0  0  0  0  0  0  0  0
   -7.2585   10.6059  -10.6150 C   0  0  0  0  0  0  0  0  0  0  0  0
   -7.6168    9.7386   -9.5213 C   0  0  0  0  0  0  0  0  0  0  0  0
   -8.2709    8.7166   -9.9884 N   0  0  0  0  0  0  0  0  0  0  0  0
   -8.4108    8.8490  -11.3012 N   0  0  0  0  0  0  0  0  0  0  0  0
   -7.3306    9.8912   -8.0312 C   0  0  0  0  0  0  0  0  0  0  0  0
   -4.5413   13.8555  -11.3648 N   0  0  0  0  0  0  0  0  0  0  0  0
   -5.5934   13.6525  -12.1835 C   0  0  0  0  0  0  0  0  0  0  0  0
   -5.9232   14.4812  -13.0224 O   0  0  0  0  0  0  0  0  0  0  0  0
   -5.9508   10.4991   -7.7310 C   0  0  0  0  0  0  0  0  0  0  0  0
   -5.8673   11.7672   -7.1520 C   0  0  0  0  0  0  0  0  0  0  0  0
   -4.6035   12.3102   -6.9134 C   0  0  0  0  0  0  0  0  0  0  0  0
   -3.4392   11.5630   -7.2455 C   0  0  0  0  0  0  0  0  0  0  0  0
   -3.5146   10.2834   -7.8141 C   0  0  0  0  0  0  0  0  0  0  0  0
   -4.7998    9.7761   -8.0492 C   0  0  0  0  0  0  0  0  0  0  0  0
   -4.0885   13.5395   -6.3720 C   0  0  0  0  0  0  0  0  0  0  0  0
   -2.7847   13.5343   -6.3770 N   0  0  0  0  0  0  0  0  0  0  0  0
   -2.3791   12.3751   -6.8806 N   0  0  0  0  0  0  0  0  0  0  0  0
   -0.9494   12.1118   -6.9818 C   0  0  0  0  0  0  0  0  0  0  0  0
   -3.7091   15.0460  -11.2252 C   0  0  0  0  0  0  0  0  0  0  0  0
   -3.1570   14.3608   -9.9755 C   0  0  0  0  0  0  0  0  0  0  0  0
   -4.1684   13.2423  -10.1016 C   0  0  0  0  0  0  0  0  0  0  0  0
   -1.8246   13.9322  -10.0585 O   0  0  0  0  0  0  0  0  0  0  0  0
   -6.1536   12.2683   -9.8665 H   0  0  0  0  0  0  0  0  0  0  0  0
   -8.2120   10.1234  -13.8929 H   0  0  0  0  0  0  0  0  0  0  0  0
   -6.8855   12.2280  -14.0979 H   0  0  0  0  0  0  0  0  0  0  0  0
   -8.6144    7.9513   -9.4440 H   0  0  0  0  0  0  0  0  0  0  0  0
   -8.0297    9.6003   -7.2611 H   0  0  0  0  0  0  0  0  0  0  0  0
   -6.3991   12.4633   -7.8173 H   0  0  0  0  0  0  0  0  0  0  0  0
   -6.3867   11.7165   -6.1837 H   0  0  0  0  0  0  0  0  0  0  0  0
   -2.6276    9.7177   -8.0584 H   0  0  0  0  0  0  0  0  0  0  0  0
   -4.9028    8.7956   -8.4901 H   0  0  0  0  0  0  0  0  0  0  0  0
   -4.6981   14.3547   -6.0110 H   0  0  0  0  0  0  0  0  0  0  0  0
   -0.3887   12.9766   -6.5976 H   0  0  0  0  0  0  0  0  0  0  0  0
   -0.6982   11.2196   -6.3895 H   0  0  0  0  0  0  0  0  0  0  0  0
   -0.6820   11.9401   -8.0349 H   0  0  0  0  0  0  0  0  0  0  0  0
   -2.9790   15.2028  -12.0329 H   0  0  0  0  0  0  0  0  0  0  0  0
   -4.2586   15.9809  -11.0410 H   0  0  0  0  0  0  0  0  0  0  0  0
   -3.3524   14.9686   -9.0797 H   0  0  0  0  0  0  0  0  0  0  0  0
   -4.9575   13.2416   -9.3352 H   0  0  0  0  0  0  0  0  0  0  0  0
   -3.7371   12.2338  -10.1847 H   0  0  0  0  0  0  0  0  0  0  0  0
   -1.5721   13.5212   -9.2401 H   0  0  0  0  0  0  0  0  0  0  0  0
  1  2  2  0  0  0  0
  1  4  1  0  0  0  0
  1 12  1  0  0  0  0
  2  6  1  0  0  0  0
  3  4  2  0  0  0  0
  3  5  1  0  0  0  0
  5  6  1  0  0  0  0
  5  9  2  0  0  0  0
  6  7  2  0  0  0  0
  7  8  1  0  0  0  0
  7 10  1  0  0  0  0
  8  9  1  0  0  0  0
 10 14  2  3  0  0  0
 11 12  1  0  0  0  0
 11 24  1  0  0  0  0
 11 26  1  0  0  0  0
 12 13  2  0  0  0  0
 14 15  1  0  0  0  0
 14 19  1  0  0  0  0
 15 16  1  0  0  0  0
 16 17  2  0  0  0  0
 16 20  1  0  0  0  0
 17 18  1  0  0  0  0
 17 22  1  0  0  0  0
 18 19  2  0  0  0  0
 20 21  2  0  0  0  0
 21 22  1  0  0  0  0
 22 23  1  0  0  0  0
 24 25  1  0  0  0  0
 25 26  1  0  0  0  0
 25 27  1  0  0  0  0
  2 28  1  0  0  0  0
  3 29  1  0  0  0  0
  4 30  1  0  0  0  0
  8 31  1  0  0  0  0
 10 32  1  0  0  0  0
 15 33  1  0  0  0  0
 15 34  1  0  0  0  0
 18 35  1  0  0  0  0
 19 36  1  0  0  0  0
 20 37  1  0  0  0  0
 23 38  1  0  0  0  0
 23 39  1  0  0  0  0
 23 40  1  0  0  0  0
 24 41  1  0  0  0  0
 24 42  1  0  0  0  0
 25 43  1  0  0  0  0
 26 44  1  0  0  0  0
 26 45  1  0  0  0  0
 27 46  1  0  0  0  0
M  END
> <Name>
44

> <IC50[uM]>
0.004

$$$$
44
  -OEChem-05192314333D
 Structure written by MMmdl.
 46 50  0     0  0  0  0  0  0999 V2000
   -6.3932   12.3500  -12.0125 C   0  0  0  0  0  0  0  0  0  0  0  0
   -6.5644   11.7828  -10.7394 C   0  0  0  0  0  0  0  0  0  0  0  0
   -7.7358   10.5711  -13.0331 C   0  0  0  0  0  0  0  0  0  0  0  0
   -6.9954   11.7572  -13.1322 C   0  0  0  0  0  0  0  0  0  0  0  0
   -7.8242    9.9989  -11.7591 C   0  0  0  0  0  0  0  0  0  0  0  0
   -7.2585   10.6059  -10.6150 C   0  0  0  0  0  0  0  0  0  0  0  0
   -7.6168    9.7386   -9.5213 C   0  0  0  0  0  0  0  0  0  0  0  0
   -8.2709    8.7166   -9.9884 N   0  0  0  0  0  0  0  0  0  0  0  0
   -8.4108    8.8490  -11.3012 N   0  0  0  0  0  0  0  0  0  0  0  0
   -7.3306    9.8912   -8.0312 C   0  0  0  0  0  0  0  0  0  0  0  0
   -4.5413   13.8555  -11.3648 N   0  0  0  0  0  0  0  0  0  0  0  0
   -5.5934   13.6525  -12.1835 C   0  0  0  0  0  0  0  0  0  0  0  0
   -5.9232   14.4812  -13.0224 O   0  0  0  0  0  0  0  0  0  0  0  0
   -5.9508   10.4991   -7.7310 C   0  0  0  0  0  0  0  0  0  0  0  0
   -5.8673   11.7672   -7.1520 C   0  0  0  0  0  0  0  0  0  0  0  0
   -4.6035   12.3102   -6.9134 C   0  0  0  0  0  0  0  0  0  0  0  0
   -3.4392   11.5630   -7.2455 C   0  0  0  0  0  0  0  0  0  0  0  0
   -3.5146   10.2834   -7.8141 C   0  0  0  0  0  0  0  0  0  0  0  0
   -4.7998    9.7761   -8.0492 C   0  0  0  0  0  0  0  0  0  0  0  0
   -4.0885   13.5395   -6.3720 C   0  0  0  0  0  0  0  0  0  0  0  0
   -2.7847   13.5343   -6.3770 N   0  0  0  0  0  0  0  0  0  0  0  0
   -2.3791   12.3751   -6.8806 N   0  0  0  0  0  0  0  0  0  0  0  0
   -0.9494   12.1118   -6.9818 C   0  0  0  0  0  0  0  0  0  0  0  0
   -3.7091   15.0460  -11.2252 C   0  0  0  0  0  0  0  0  0  0  0  0
   -3.1570   14.3608   -9.9755 C   0  0  0  0  0  0  0  0  0  0  0  0
   -4.1684   13.2423  -10.1016 C   0  0  0  0  0  0  0  0  0  0  0  0
   -1.8246   13.9322  -10.0585 O   0  0  0  0  0  0  0  0  0  0  0  0
   -6.1536   12.2683   -9.8665 H   0  0  0  0  0  0  0  0  0  0  0  0
   -8.2120   10.1234  -13.8929 H   0  0  0  0  0  0  0  0  0  0  0  0
   -6.8855   12.2280  -14.0979 H   0  0  0  0  0  0  0  0  0  0  0  0
   -8.8860    8.1903  -11.8845 H   0  0  0  0  0  0  0  0  0  0  0  0
   -8.0297    9.6003   -7.2611 H   0  0  0  0  0  0  0  0  0  0  0  0
   -6.3991   12.4633   -7.8173 H   0  0  0  0  0  0  0  0  0  0  0  0
   -6.3867   11.7165   -6.1837 H   0  0  0  0  0  0  0  0  0  0  0  0
   -2.6276    9.7177   -8.0584 H   0  0  0  0  0  0  0  0  0  0  0  0
   -4.9028    8.7956   -8.4901 H   0  0  0  0  0  0  0  0  0  0  0  0
   -4.6981   14.3547   -6.0110 H   0  0  0  0  0  0  0  0  0  0  0  0
   -0.3887   12.9766   -6.5976 H   0  0  0  0  0  0  0  0  0  0  0  0
   -0.6982   11.2196   -6.3895 H   0  0  0  0  0  0  0  0  0  0  0  0
   -0.6820   11.9401   -8.0349 H   0  0  0  0  0  0  0  0  0  0  0  0
   -2.9790   15.2028  -12.0329 H   0  0  0  0  0  0  0  0  0  0  0  0
   -4.2586   15.9809  -11.0410 H   0  0  0  0  0  0  0  0  0  0  0  0
   -3.3524   14.9686   -9.0797 H   0  0  0  0  0  0  0  0  0  0  0  0
   -4.9575   13.2416   -9.3352 H   0  0  0  0  0  0  0  0  0  0  0  0
   -3.7371   12.2338  -10.1847 H   0  0  0  0  0  0  0  0  0  0  0  0
   -1.5721   13.5212   -9.2401 H   0  0  0  0  0  0  0  0  0  0  0  0
  1  2  2  0  0  0  0
  1  4  1  0  0  0  0
  1 12  1  0  0  0  0
  2  6  1  0  0  0  0
  3  4  2  0  0  0  0
  3  5  1  0  0  0  0
  5  6  2  0  0  0  0
  5  9  1  0  0  0  0
  6  7  1  0  0  0  0
  7  8  2  0  0  0  0
  7 10  1  0  0  0  0
  8  9  1  0  0  0  0
 10 14  2  3  0  0  0
 11 12  1  0  0  0  0
 11 24  1  0  0  0  0
 11 26  1  0  0  0  0
 12 13  2  0  0  0  0
 14 15  1  0  0  0  0
 14 19  1  0  0  0  0
 15 16  1  0  0  0  0
 16 17  2  0  0  0  0
 16 20  1  0  0  0  0
 17 18  1  0  0  0  0
 17 22  1  0  0  0  0
 18 19  2  0  0  0  0
 20 21  2  0  0  0  0
 21 22  1  0  0  0  0
 22 23  1  0  0  0  0
 24 25  1  0  0  0  0
 25 26  1  0  0  0  0
 25 27  1  0  0  0  0
  2 28  1  0  0  0  0
  3 29  1  0  0  0  0
  4 30  1  0  0  0  0
  9 31  1  0  0  0  0
 10 32  1  0  0  0  0
 15 33  1  0  0  0  0
 15 34  1  0  0  0  0
 18 35  1  0  0  0  0
 19 36  1  0  0  0  0
 20 37  1  0  0  0  0
 23 38  1  0  0  0  0
 23 39  1  0  0  0  0
 23 40  1  0  0  0  0
 24 41  1  0  0  0  0
 24 42  1  0  0  0  0
 25 43  1  0  0  0  0
 26 44  1  0  0  0  0
 26 45  1  0  0  0  0
 27 46  1  0  0  0  0
M  END
> <Name>
44

> <IC50[uM]>
0.004

$$$$
44
  -OEChem-05192314333D
 Structure written by MMmdl.
 46 50  0     1  0  0  0  0  0999 V2000
   -6.3932   12.3500  -12.0125 C   0  0  3  0  0  0  0  0  0  0  0  0
   -6.5644   11.7828  -10.7394 C   0  0  0  0  0  0  0  0  0  0  0  0
   -7.7358   10.5711  -13.0331 C   0  0  0  0  0  0  0  0  0  0  0  0
   -6.9954   11.7572  -13.1322 C   0  0  0  0  0  0  0  0  0  0  0  0
   -7.8242    9.9989  -11.7591 C   0  0  0  0  0  0  0  0  0  0  0  0
   -7.2585   10.6059  -10.6150 C   0  0  0  0  0  0  0  0  0  0  0  0
   -7.6168    9.7386   -9.5213 C   0  0  0  0  0  0  0  0  0  0  0  0
   -8.2709    8.7166   -9.9884 N   0  0  0  0  0  0  0  0  0  0  0  0
   -8.4108    8.8490  -11.3012 N   0  0  0  0  0  0  0  0  0  0  0  0
   -7.3306    9.8912   -8.0312 C   0  0  0  0  0  0  0  0  0  0  0  0
   -4.5413   13.8555  -11.3648 N   0  0  0  0  0  0  0  0  0  0  0  0
   -5.5934   13.6525  -12.1835 C   0  0  0  0  0  0  0  0  0  0  0  0
   -5.9232   14.4812  -13.0224 O   0  0  0  0  0  0  0  0  0  0  0  0
   -5.9508   10.4991   -7.7310 C   0  0  0  0  0  0  0  0  0  0  0  0
   -5.8673   11.7672   -7.1520 C   0  0  0  0  0  0  0  0  0  0  0  0
   -4.6035   12.3102   -6.9134 C   0  0  0  0  0  0  0  0  0  0  0  0
   -3.4392   11.5630   -7.2455 C   0  0  0  0  0  0  0  0  0  0  0  0
   -3.5146   10.2834   -7.8141 C   0  0  0  0  0  0  0  0  0  0  0  0
   -4.7998    9.7761   -8.0492 C   0  0  0  0  0  0  0  0  0  0  0  0
   -4.0885   13.5395   -6.3720 C   0  0  0  0  0  0  0  0  0  0  0  0
   -2.7847   13.5343   -6.3770 N   0  0  0  0  0  0  0  0  0  0  0  0
   -2.3791   12.3751   -6.8806 N   0  0  0  0  0  0  0  0  0  0  0  0
   -0.9494   12.1118   -6.9818 C   0  0  0  0  0  0  0  0  0  0  0  0
   -3.7091   15.0460  -11.2252 C   0  0  0  0  0  0  0  0  0  0  0  0
   -3.1570   14.3608   -9.9755 C   0  0  0  0  0  0  0  0  0  0  0  0
   -4.1684   13.2423  -10.1016 C   0  0  0  0  0  0  0  0  0  0  0  0
   -1.8246   13.9322  -10.0585 O   0  0  0  0  0  0  0  0  0  0  0  0
   -5.4817   11.7548  -12.1703 H   0  0  0  0  0  0  0  0  0  0  0  0
   -6.1536   12.2683   -9.8665 H   0  0  0  0  0  0  0  0  0  0  0  0
   -8.2120   10.1234  -13.8929 H   0  0  0  0  0  0  0  0  0  0  0  0
   -6.8855   12.2280  -14.0979 H   0  0  0  0  0  0  0  0  0  0  0  0
   -8.6144    7.9513   -9.4440 H   0  0  0  0  0  0  0  0  0  0  0  0
   -8.0297    9.6003   -7.2611 H   0  0  0  0  0  0  0  0  0  0  0  0
   -6.7611   12.3160   -6.8944 H   0  0  0  0  0  0  0  0  0  0  0  0
   -2.6276    9.7177   -8.0584 H   0  0  0  0  0  0  0  0  0  0  0  0
   -4.9028    8.7956   -8.4901 H   0  0  0  0  0  0  0  0  0  0  0  0
   -4.6981   14.3547   -6.0110 H   0  0  0  0  0  0  0  0  0  0  0  0
   -0.3887   12.9766   -6.5976 H   0  0  0  0  0  0  0  0  0  0  0  0
   -0.6982   11.2196   -6.3895 H   0  0  0  0  0  0  0  0  0  0  0  0
   -0.6820   11.9401   -8.0349 H   0  0  0  0  0  0  0  0  0  0  0  0
   -2.9790   15.2028  -12.0329 H   0  0  0  0  0  0  0  0  0  0  0  0
   -4.2586   15.9809  -11.0410 H   0  0  0  0  0  0  0  0  0  0  0  0
   -3.3524   14.9686   -9.0797 H   0  0  0  0  0  0  0  0  0  0  0  0
   -4.9575   13.2416   -9.3352 H   0  0  0  0  0  0  0  0  0  0  0  0
   -3.7371   12.2338  -10.1847 H   0  0  0  0  0  0  0  0  0  0  0  0
   -1.5721   13.5212   -9.2401 H   0  0  0  0  0  0  0  0  0  0  0  0
  1  2  1  0  0  0  0
  1  4  1  0  0  0  0
  1 12  1  0  0  0  0
  2  6  2  0  0  0  0
  3  4  2  0  0  0  0
  3  5  1  0  0  0  0
  5  6  1  0  0  0  0
  5  9  2  0  0  0  0
  6  7  1  0  0  0  0
  7  8  1  0  0  0  0
  7 10  2  3  0  0  0
  8  9  1  0  0  0  0
 10 14  1  0  0  0  0
 11 12  1  0  0  0  0
 11 24  1  0  0  0  0
 11 26  1  0  0  0  0
 12 13  2  0  0  0  0
 14 15  2  0  0  0  0
 14 19  1  0  0  0  0
 15 16  1  0  0  0  0
 16 17  2  0  0  0  0
 16 20  1  0  0  0  0
 17 18  1  0  0  0  0
 17 22  1  0  0  0  0
 18 19  2  0  0  0  0
 20 21  2  0  0  0  0
 21 22  1  0  0  0  0
 22 23  1  0  0  0  0
 24 25  1  0  0  0  0
 25 26  1  0  0  0  0
 25 27  1  0  0  0  0
  1 28  1  0  0  0  0
  2 29  1  0  0  0  0
  3 30  1  0  0  0  0
  4 31  1  0  0  0  0
  8 32  1  0  0  0  0
 10 33  1  0  0  0  0
 15 34  1  0  0  0  0
 18 35  1  0  0  0  0
 19 36  1  0  0  0  0
 20 37  1  0  0  0  0
 23 38  1  0  0  0  0
 23 39  1  0  0  0  0
 23 40  1  0  0  0  0
 24 41  1  0  0  0  0
 24 42  1  0  0  0  0
 25 43  1  0  0  0  0
 26 44  1  0  0  0  0
 26 45  1  0  0  0  0
 27 46  1  0  0  0  0
M  END
> <Name>
44

> <IC50[uM]>
0.004

$$$$
44
  -OEChem-05192314333D
 Structure written by MMmdl.
 46 50  0     0  0  0  0  0  0999 V2000
   -6.3932   12.3500  -12.0125 C   0  0  0  0  0  0  0  0  0  0  0  0
   -6.5644   11.7828  -10.7394 C   0  0  0  0  0  0  0  0  0  0  0  0
   -7.7358   10.5711  -13.0331 C   0  0  0  0  0  0  0  0  0  0  0  0
   -6.9954   11.7572  -13.1322 C   0  0  0  0  0  0  0  0  0  0  0  0
   -7.8242    9.9989  -11.7591 C   0  0  0  0  0  0  0  0  0  0  0  0
   -7.2585   10.6059  -10.6150 C   0  0  0  0  0  0  0  0  0  0  0  0
   -7.6168    9.7386   -9.5213 C   0  0  0  0  0  0  0  0  0  0  0  0
   -8.2709    8.7166   -9.9884 N   0  0  0  0  0  0  0  0  0  0  0  0
   -8.4108    8.8490  -11.3012 N   0  0  0  0  0  0  0  0  0  0  0  0
   -7.3306    9.8912   -8.0312 C   0  0  0  0  0  0  0  0  0  0  0  0
   -4.5413   13.8555  -11.3648 N   0  0  0  0  0  0  0  0  0  0  0  0
   -5.5934   13.6525  -12.1835 C   0  0  0  0  0  0  0  0  0  0  0  0
   -5.9232   14.4812  -13.0224 O   0  0  0  0  0  0  0  0  0  0  0  0
   -5.9508   10.4991   -7.7310 C   0  0  0  0  0  0  0  0  0  0  0  0
   -5.8673   11.7672   -7.1520 C   0  0  0  0  0  0  0  0  0  0  0  0
   -4.6035   12.3102   -6.9134 C   0  0  0  0  0  0  0  0  0  0  0  0
   -3.4392   11.5630   -7.2455 C   0  0  0  0  0  0  0  0  0  0  0  0
   -3.5146   10.2834   -7.8141 C   0  0  0  0  0  0  0  0  0  0  0  0
   -4.7998    9.7761   -8.0492 C   0  0  0  0  0  0  0  0  0  0  0  0
   -4.0885   13.5395   -6.3720 C   0  0  0  0  0  0  0  0  0  0  0  0
   -2.7847   13.5343   -6.3770 N   0  0  0  0  0  0  0  0  0  0  0  0
   -2.3791   12.3751   -6.8806 N   0  0  0  0  0  0  0  0  0  0  0  0
   -0.9494   12.1118   -6.9818 C   0  0  0  0  0  0  0  0  0  0  0  0
   -3.7091   15.0460  -11.2252 C   0  0  0  0  0  0  0  0  0  0  0  0
   -3.1570   14.3608   -9.9755 C   0  0  0  0  0  0  0  0  0  0  0  0
   -4.1684   13.2423  -10.1016 C   0  0  0  0  0  0  0  0  0  0  0  0
   -1.8246   13.9322  -10.0585 O   0  0  0  0  0  0  0  0  0  0  0  0
   -6.1536   12.2683   -9.8665 H   0  0  0  0  0  0  0  0  0  0  0  0
   -8.7589   10.7853  -13.3758 H   0  0  0  0  0  0  0  0  0  0  0  0
   -7.2727    9.8304  -13.7016 H   0  0  0  0  0  0  0  0  0  0  0  0
   -6.8855   12.2280  -14.0979 H   0  0  0  0  0  0  0  0  0  0  0  0
   -8.6144    7.9513   -9.4440 H   0  0  0  0  0  0  0  0  0  0  0  0
   -8.0297    9.6003   -7.2611 H   0  0  0  0  0  0  0  0  0  0  0  0
   -6.7611   12.3160   -6.8944 H   0  0  0  0  0  0  0  0  0  0  0  0
   -2.6276    9.7177   -8.0584 H   0  0  0  0  0  0  0  0  0  0  0  0
   -4.9028    8.7956   -8.4901 H   0  0  0  0  0  0  0  0  0  0  0  0
   -4.6981   14.3547   -6.0110 H   0  0  0  0  0  0  0  0  0  0  0  0
   -0.3887   12.9766   -6.5976 H   0  0  0  0  0  0  0  0  0  0  0  0
   -0.6982   11.2196   -6.3895 H   0  0  0  0  0  0  0  0  0  0  0  0
   -0.6820   11.9401   -8.0349 H   0  0  0  0  0  0  0  0  0  0  0  0
   -2.9790   15.2028  -12.0329 H   0  0  0  0  0  0  0  0  0  0  0  0
   -4.2586   15.9809  -11.0410 H   0  0  0  0  0  0  0  0  0  0  0  0
   -3.3524   14.9686   -9.0797 H   0  0  0  0  0  0  0  0  0  0  0  0
   -4.9575   13.2416   -9.3352 H   0  0  0  0  0  0  0  0  0  0  0  0
   -3.7371   12.2338  -10.1847 H   0  0  0  0  0  0  0  0  0  0  0  0
   -1.5721   13.5212   -9.2401 H   0  0  0  0  0  0  0  0  0  0  0  0
  1  2  1  0  0  0  0
  1  4  2  0  0  0  0
  1 12  1  0  0  0  0
  2  6  2  0  0  0  0
  3  4  1  0  0  0  0
  3  5  1  0  0  0  0
  5  6  1  0  0  0  0
  5  9  2  0  0  0  0
  6  7  1  0  0  0  0
  7  8  1  0  0  0  0
  7 10  2  3  0  0  0
  8  9  1  0  0  0  0
 10 14  1  0  0  0  0
 11 12  1  0  0  0  0
 11 24  1  0  0  0  0
 11 26  1  0  0  0  0
 12 13  2  0  0  0  0
 14 15  2  0  0  0  0
 14 19  1  0  0  0  0
 15 16  1  0  0  0  0
 16 17  2  0  0  0  0
 16 20  1  0  0  0  0
 17 18  1  0  0  0  0
 17 22  1  0  0  0  0
 18 19  2  0  0  0  0
 20 21  2  0  0  0  0
 21 22  1  0  0  0  0
 22 23  1  0  0  0  0
 24 25  1  0  0  0  0
 25 26  1  0  0  0  0
 25 27  1  0  0  0  0
  2 28  1  0  0  0  0
  3 29  1  0  0  0  0
  3 30  1  0  0  0  0
  4 31  1  0  0  0  0
  8 32  1  0  0  0  0
 10 33  1  0  0  0  0
 15 34  1  0  0  0  0
 18 35  1  0  0  0  0
 19 36  1  0  0  0  0
 20 37  1  0  0  0  0
 23 38  1  0  0  0  0
 23 39  1  0  0  0  0
 23 40  1  0  0  0  0
 24 41  1  0  0  0  0
 24 42  1  0  0  0  0
 25 43  1  0  0  0  0
 26 44  1  0  0  0  0
 26 45  1  0  0  0  0
 27 46  1  0  0  0  0
M  END
> <Name>
44

> <IC50[uM]>
0.004

$$$$
44
  -OEChem-05192314333D
 Structure written by MMmdl.
 46 50  0     0  0  0  0  0  0999 V2000
   -6.3932   12.3500  -12.0125 C   0  0  0  0  0  0  0  0  0  0  0  0
   -6.5644   11.7828  -10.7394 C   0  0  0  0  0  0  0  0  0  0  0  0
   -7.7358   10.5711  -13.0331 C   0  0  0  0  0  0  0  0  0  0  0  0
   -6.9954   11.7572  -13.1322 C   0  0  0  0  0  0  0  0  0  0  0  0
   -7.8242    9.9989  -11.7591 C   0  0  0  0  0  0  0  0  0  0  0  0
   -7.2585   10.6059  -10.6150 C   0  0  0  0  0  0  0  0  0  0  0  0
   -7.6168    9.7386   -9.5213 C   0  0  0  0  0  0  0  0  0  0  0  0
   -8.2709    8.7166   -9.9884 N   0  0  0  0  0  0  0  0  0  0  0  0
   -8.4108    8.8490  -11.3012 N   0  0  0  0  0  0  0  0  0  0  0  0
   -7.3306    9.8912   -8.0312 C   0  0  0  0  0  0  0  0  0  0  0  0
   -4.5413   13.8555  -11.3648 N   0  0  0  0  0  0  0  0  0  0  0  0
   -5.5934   13.6525  -12.1835 C   0  0  0  0  0  0  0  0  0  0  0  0
   -5.9232   14.4812  -13.0224 O   0  0  0  0  0  0  0  0  0  0  0  0
   -5.9508   10.4991   -7.7310 C   0  0  0  0  0  0  0  0  0  0  0  0
   -5.8673   11.7672   -7.1520 C   0  0  0  0  0  0  0  0  0  0  0  0
   -4.6035   12.3102   -6.9134 C   0  0  0  0  0  0  0  0  0  0  0  0
   -3.4392   11.5630   -7.2455 C   0  0  0  0  0  0  0  0  0  0  0  0
   -3.5146   10.2834   -7.8141 C   0  0  0  0  0  0  0  0  0  0  0  0
   -4.7998    9.7761   -8.0492 C   0  0  0  0  0  0  0  0  0  0  0  0
   -4.0885   13.5395   -6.3720 C   0  0  0  0  0  0  0  0  0  0  0  0
   -2.7847   13.5343   -6.3770 N   0  0  0  0  0  0  0  0  0  0  0  0
   -2.3791   12.3751   -6.8806 N   0  0  0  0  0  0  0  0  0  0  0  0
   -0.9494   12.1118   -6.9818 C   0  0  0  0  0  0  0  0  0  0  0  0
   -3.7091   15.0460  -11.2252 C   0  0  0  0  0  0  0  0  0  0  0  0
   -3.1570   14.3608   -9.9755 C   0  0  0  0  0  0  0  0  0  0  0  0
   -4.1684   13.2423  -10.1016 C   0  0  0  0  0  0  0  0  0  0  0  0
   -1.8246   13.9322  -10.0585 O   0  0  0  0  0  0  0  0  0  0  0  0
   -6.1536   12.2683   -9.8665 H   0  0  0  0  0  0  0  0  0  0  0  0
   -8.2120   10.1234  -13.8929 H   0  0  0  0  0  0  0  0  0  0  0  0
   -6.8855   12.2280  -14.0979 H   0  0  0  0  0  0  0  0  0  0  0  0
   -8.6144    7.9513   -9.4440 H   0  0  0  0  0  0  0  0  0  0  0  0
   -8.0297    9.6003   -7.2611 H   0  0  0  0  0  0  0  0  0  0  0  0
   -6.7611   12.3160   -6.8944 H   0  0  0  0  0  0  0  0  0  0  0  0
   -2.6276    9.7177   -8.0584 H   0  0  0  0  0  0  0  0  0  0  0  0
   -4.8650    8.8316   -7.4892 H   0  0  0  0  0  0  0  0  0  0  0  0
   -4.8558    9.5675   -9.1278 H   0  0  0  0  0  0  0  0  0  0  0  0
   -4.6981   14.3547   -6.0110 H   0  0  0  0  0  0  0  0  0  0  0  0
   -0.3887   12.9766   -6.5976 H   0  0  0  0  0  0  0  0  0  0  0  0
   -0.6982   11.2196   -6.3895 H   0  0  0  0  0  0  0  0  0  0  0  0
   -0.6820   11.9401   -8.0349 H   0  0  0  0  0  0  0  0  0  0  0  0
   -2.9790   15.2028  -12.0329 H   0  0  0  0  0  0  0  0  0  0  0  0
   -4.2586   15.9809  -11.0410 H   0  0  0  0  0  0  0  0  0  0  0  0
   -3.3524   14.9686   -9.0797 H   0  0  0  0  0  0  0  0  0  0  0  0
   -4.9575   13.2416   -9.3352 H   0  0  0  0  0  0  0  0  0  0  0  0
   -3.7371   12.2338  -10.1847 H   0  0  0  0  0  0  0  0  0  0  0  0
   -1.5721   13.5212   -9.2401 H   0  0  0  0  0  0  0  0  0  0  0  0
  1  2  2  0  0  0  0
  1  4  1  0  0  0  0
  1 12  1  0  0  0  0
  2  6  1  0  0  0  0
  3  4  2  0  0  0  0
  3  5  1  0  0  0  0
  5  6  1  0  0  0  0
  5  9  2  0  0  0  0
  6  7  2  0  0  0  0
  7  8  1  0  0  0  0
  7 10  1  0  0  0  0
  8  9  1  0  0  0  0
 10 14  2  3  0  0  0
 11 12  1  0  0  0  0
 11 24  1  0  0  0  0
 11 26  1  0  0  0  0
 12 13  2  0  0  0  0
 14 15  1  0  0  0  0
 14 19  1  0  0  0  0
 15 16  2  0  0  0  0
 16 17  1  0  0  0  0
 16 20  1  0  0  0  0
 17 18  2  0  0  0  0
 17 22  1  0  0  0  0
 18 19  1  0  0  0  0
 20 21  2  0  0  0  0
 21 22  1  0  0  0  0
 22 23  1  0  0  0  0
 24 25  1  0  0  0  0
 25 26  1  0  0  0  0
 25 27  1  0  0  0  0
  2 28  1  0  0  0  0
  3 29  1  0  0  0  0
  4 30  1  0  0  0  0
  8 31  1  0  0  0  0
 10 32  1  0  0  0  0
 15 33  1  0  0  0  0
 18 34  1  0  0  0  0
 19 35  1  0  0  0  0
 19 36  1  0  0  0  0
 20 37  1  0  0  0  0
 23 38  1  0  0  0  0
 23 39  1  0  0  0  0
 23 40  1  0  0  0  0
 24 41  1  0  0  0  0
 24 42  1  0  0  0  0
 25 43  1  0  0  0  0
 26 44  1  0  0  0  0
 26 45  1  0  0  0  0
 27 46  1  0  0  0  0
M  END
> <Name>
44

> <IC50[uM]>
0.004

$$$$
44
  -OEChem-05192314333D
 Structure written by MMmdl.
 46 50  0     0  0  0  0  0  0999 V2000
   -6.3932   12.3500  -12.0125 C   0  0  0  0  0  0  0  0  0  0  0  0
   -6.5644   11.7828  -10.7394 C   0  0  0  0  0  0  0  0  0  0  0  0
   -7.7358   10.5711  -13.0331 C   0  0  0  0  0  0  0  0  0  0  0  0
   -6.9954   11.7572  -13.1322 C   0  0  0  0  0  0  0  0  0  0  0  0
   -7.8242    9.9989  -11.7591 C   0  0  0  0  0  0  0  0  0  0  0  0
   -7.2585   10.6059  -10.6150 C   0  0  0  0  0  0  0  0  0  0  0  0
   -7.6168    9.7386   -9.5213 C   0  0  0  0  0  0  0  0  0  0  0  0
   -8.2709    8.7166   -9.9884 N   0  0  0  0  0  0  0  0  0  0  0  0
   -8.4108    8.8490  -11.3012 N   0  0  0  0  0  0  0  0  0  0  0  0
   -7.3306    9.8912   -8.0312 C   0  0  0  0  0  0  0  0  0  0  0  0
   -4.5413   13.8555  -11.3648 N   0  0  0  0  0  0  0  0  0  0  0  0
   -5.5934   13.6525  -12.1835 C   0  0  0  0  0  0  0  0  0  0  0  0
   -5.9232   14.4812  -13.0224 O   0  0  0  0  0  0  0  0  0  0  0  0
   -5.9508   10.4991   -7.7310 C   0  0  0  0  0  0  0  0  0  0  0  0
   -5.8673   11.7672   -7.1520 C   0  0  0  0  0  0  0  0  0  0  0  0
   -4.6035   12.3102   -6.9134 C   0  0  0  0  0  0  0  0  0  0  0  0
   -3.4392   11.5630   -7.2455 C   0  0  0  0  0  0  0  0  0  0  0  0
   -3.5146   10.2834   -7.8141 C   0  0  0  0  0  0  0  0  0  0  0  0
   -4.7998    9.7761   -8.0492 C   0  0  0  0  0  0  0  0  0  0  0  0
   -4.0885   13.5395   -6.3720 C   0  0  0  0  0  0  0  0  0  0  0  0
   -2.7847   13.5343   -6.3770 N   0  0  0  0  0  0  0  0  0  0  0  0
   -2.3791   12.3751   -6.8806 N   0  0  0  0  0  0  0  0  0  0  0  0
   -0.9494   12.1118   -6.9818 C   0  0  0  0  0  0  0  0  0  0  0  0
   -3.7091   15.0460  -11.2252 C   0  0  0  0  0  0  0  0  0  0  0  0
   -3.1570   14.3608   -9.9755 C   0  0  0  0  0  0  0  0  0  0  0  0
   -4.1684   13.2423  -10.1016 C   0  0  0  0  0  0  0  0  0  0  0  0
   -1.8246   13.9322  -10.0585 O   0  0  0  0  0  0  0  0  0  0  0  0
   -6.1536   12.2683   -9.8665 H   0  0  0  0  0  0  0  0  0  0  0  0
   -8.2120   10.1234  -13.8929 H   0  0  0  0  0  0  0  0  0  0  0  0
   -6.8855   12.2280  -14.0979 H   0  0  0  0  0  0  0  0  0  0  0  0
   -8.8860    8.1903  -11.8845 H   0  0  0  0  0  0  0  0  0  0  0  0
   -8.0297    9.6003   -7.2611 H   0  0  0  0  0  0  0  0  0  0  0  0
   -6.7611   12.3160   -6.8944 H   0  0  0  0  0  0  0  0  0  0  0  0
   -2.6276    9.7177   -8.0584 H   0  0  0  0  0  0  0  0  0  0  0  0
   -4.8650    8.8316   -7.4892 H   0  0  0  0  0  0  0  0  0  0  0  0
   -4.8558    9.5675   -9.1278 H   0  0  0  0  0  0  0  0  0  0  0  0
   -4.6981   14.3547   -6.0110 H   0  0  0  0  0  0  0  0  0  0  0  0
   -0.3887   12.9766   -6.5976 H   0  0  0  0  0  0  0  0  0  0  0  0
   -0.6982   11.2196   -6.3895 H   0  0  0  0  0  0  0  0  0  0  0  0
   -0.6820   11.9401   -8.0349 H   0  0  0  0  0  0  0  0  0  0  0  0
   -2.9790   15.2028  -12.0329 H   0  0  0  0  0  0  0  0  0  0  0  0
   -4.2586   15.9809  -11.0410 H   0  0  0  0  0  0  0  0  0  0  0  0
   -3.3524   14.9686   -9.0797 H   0  0  0  0  0  0  0  0  0  0  0  0
   -4.9575   13.2416   -9.3352 H   0  0  0  0  0  0  0  0  0  0  0  0
   -3.7371   12.2338  -10.1847 H   0  0  0  0  0  0  0  0  0  0  0  0
   -1.5721   13.5212   -9.2401 H   0  0  0  0  0  0  0  0  0  0  0  0
  1  2  2  0  0  0  0
  1  4  1  0  0  0  0
  1 12  1  0  0  0  0
  2  6  1  0  0  0  0
  3  4  2  0  0  0  0
  3  5  1  0  0  0  0
  5  6  2  0  0  0  0
  5  9  1  0  0  0  0
  6  7  1  0  0  0  0
  7  8  2  0  0  0  0
  7 10  1  0  0  0  0
  8  9  1  0  0  0  0
 10 14  2  3  0  0  0
 11 12  1  0  0  0  0
 11 24  1  0  0  0  0
 11 26  1  0  0  0  0
 12 13  2  0  0  0  0
 14 15  1  0  0  0  0
 14 19  1  0  0  0  0
 15 16  2  0  0  0  0
 16 17  1  0  0  0  0
 16 20  1  0  0  0  0
 17 18  2  0  0  0  0
 17 22  1  0  0  0  0
 18 19  1  0  0  0  0
 20 21  2  0  0  0  0
 21 22  1  0  0  0  0
 22 23  1  0  0  0  0
 24 25  1  0  0  0  0
 25 26  1  0  0  0  0
 25 27  1  0  0  0  0
  2 28  1  0  0  0  0
  3 29  1  0  0  0  0
  4 30  1  0  0  0  0
  9 31  1  0  0  0  0
 10 32  1  0  0  0  0
 15 33  1  0  0  0  0
 18 34  1  0  0  0  0
 19 35  1  0  0  0  0
 19 36  1  0  0  0  0
 20 37  1  0  0  0  0
 23 38  1  0  0  0  0
 23 39  1  0  0  0  0
 23 40  1  0  0  0  0
 24 41  1  0  0  0  0
 24 42  1  0  0  0  0
 25 43  1  0  0  0  0
 26 44  1  0  0  0  0
 26 45  1  0  0  0  0
 27 46  1  0  0  0  0
M  END
> <Name>
44

> <IC50[uM]>
0.004

$$$$
44
  -OEChem-05192314333D
 Structure written by MMmdl.
 46 50  0     1  0  0  0  0  0999 V2000
   -6.3932   12.3500  -12.0125 C   0  0  0  0  0  0  0  0  0  0  0  0
   -6.5644   11.7828  -10.7394 C   0  0  0  0  0  0  0  0  0  0  0  0
   -7.7358   10.5711  -13.0331 C   0  0  0  0  0  0  0  0  0  0  0  0
   -6.9954   11.7572  -13.1322 C   0  0  0  0  0  0  0  0  0  0  0  0
   -7.8242    9.9989  -11.7591 C   0  0  0  0  0  0  0  0  0  0  0  0
   -7.2585   10.6059  -10.6150 C   0  0  0  0  0  0  0  0  0  0  0  0
   -7.6168    9.7386   -9.5213 C   0  0  0  0  0  0  0  0  0  0  0  0
   -8.2709    8.7166   -9.9884 N   0  0  0  0  0  0  0  0  0  0  0  0
   -8.4108    8.8490  -11.3012 N   0  0  0  0  0  0  0  0  0  0  0  0
   -7.3306    9.8912   -8.0312 C   0  0  0  0  0  0  0  0  0  0  0  0
   -4.5413   13.8555  -11.3648 N   0  0  0  0  0  0  0  0  0  0  0  0
   -5.5934   13.6525  -12.1835 C   0  0  0  0  0  0  0  0  0  0  0  0
   -5.9232   14.4812  -13.0224 O   0  0  0  0  0  0  0  0  0  0  0  0
   -5.9508   10.4991   -7.7310 C   0  0  0  0  0  0  0  0  0  0  0  0
   -5.8673   11.7672   -7.1520 C   0  0  0  0  0  0  0  0  0  0  0  0
   -4.6035   12.3102   -6.9134 C   0  0  0  0  0  0  0  0  0  0  0  0
   -3.4392   11.5630   -7.2455 C   0  0  0  0  0  0  0  0  0  0  0  0
   -3.5146   10.2834   -7.8141 C   0  0  0  0  0  0  0  0  0  0  0  0
   -4.7998    9.7761   -8.0492 C   0  0  0  0  0  0  0  0  0  0  0  0
   -4.0885   13.5395   -6.3720 C   0  0  0  0  0  0  0  0  0  0  0  0
   -2.7847   13.5343   -6.3770 N   0  0  0  0  0  0  0  0  0  0  0  0
   -2.3791   12.3751   -6.8806 N   0  0  3  0  0  0  0  0  0  0  0  0
   -0.9494   12.1118   -6.9818 C   0  0  0  0  0  0  0  0  0  0  0  0
   -3.7091   15.0460  -11.2252 C   0  0  0  0  0  0  0  0  0  0  0  0
   -3.1570   14.3608   -9.9755 C   0  0  0  0  0  0  0  0  0  0  0  0
   -4.1684   13.2423  -10.1016 C   0  0  0  0  0  0  0  0  0  0  0  0
   -1.8246   13.9322  -10.0585 O   0  0  0  0  0  0  0  0  0  0  0  0
   -6.1536   12.2683   -9.8665 H   0  0  0  0  0  0  0  0  0  0  0  0
   -8.2120   10.1234  -13.8929 H   0  0  0  0  0  0  0  0  0  0  0  0
   -6.8855   12.2280  -14.0979 H   0  0  0  0  0  0  0  0  0  0  0  0
   -8.0297    9.6003   -7.2611 H   0  0  0  0  0  0  0  0  0  0  0  0
   -6.7611   12.3160   -6.8944 H   0  0  0  0  0  0  0  0  0  0  0  0
   -2.6276    9.7177   -8.0584 H   0  0  0  0  0  0  0  0  0  0  0  0
   -4.9028    8.7956   -8.4901 H   0  0  0  0  0  0  0  0  0  0  0  0
   -4.4487   14.3815   -6.9814 H   0  0  0  0  0  0  0  0  0  0  0  0
   -4.4453   13.6563   -5.3380 H   0  0  0  0  0  0  0  0  0  0  0  0
   -2.4449   14.2866   -6.9414 H   0  0  0  0  0  0  0  0  0  0  0  0
   -0.3887   12.9770   -6.5985 H   0  0  0  0  0  0  0  0  0  0  0  0
   -0.6980   11.2202   -6.3887 H   0  0  0  0  0  0  0  0  0  0  0  0
   -0.6821   11.9391   -8.0348 H   0  0  0  0  0  0  0  0  0  0  0  0
   -2.9790   15.2028  -12.0329 H   0  0  0  0  0  0  0  0  0  0  0  0
   -4.2586   15.9809  -11.0410 H   0  0  0  0  0  0  0  0  0  0  0  0
   -3.3524   14.9686   -9.0797 H   0  0  0  0  0  0  0  0  0  0  0  0
   -4.9575   13.2416   -9.3352 H   0  0  0  0  0  0  0  0  0  0  0  0
   -3.7371   12.2338  -10.1847 H   0  0  0  0  0  0  0  0  0  0  0  0
   -1.5721   13.5212   -9.2401 H   0  0  0  0  0  0  0  0  0  0  0  0
  1  2  2  0  0  0  0
  1  4  1  0  0  0  0
  1 12  1  0  0  0  0
  2  6  1  0  0  0  0
  3  4  2  0  0  0  0
  3  5  1  0  0  0  0
  5  6  2  0  0  0  0
  5  9  1  0  0  0  0
  6  7  1  0  0  0  0
  7  8  1  0  0  0  0
  7 10  2  3  0  0  0
  8  9  2  0  0  0  0
 10 14  1  0  0  0  0
 11 12  1  0  0  0  0
 11 24  1  0  0  0  0
 11 26  1  0  0  0  0
 12 13  2  0  0  0  0
 14 15  2  0  0  0  0
 14 19  1  0  0  0  0
 15 16  1  0  0  0  0
 16 17  2  0  0  0  0
 16 20  1  0  0  0  0
 17 18  1  0  0  0  0
 17 22  1  0  0  0  0
 18 19  2  0  0  0  0
 20 21  1  0  0  0  0
 21 22  1  0  0  0  0
 22 23  1  0  0  0  0
 24 25  1  0  0  0  0
 25 26  1  0  0  0  0
 25 27  1  0  0  0  0
  2 28  1  0  0  0  0
  3 29  1  0  0  0  0
  4 30  1  0  0  0  0
 10 31  1  0  0  0  0
 15 32  1  0  0  0  0
 18 33  1  0  0  0  0
 19 34  1  0  0  0  0
 20 35  1  0  0  0  0
 20 36  1  0  0  0  0
 21 37  1  0  0  0  0
 23 38  1  0  0  0  0
 23 39  1  0  0  0  0
 23 40  1  0  0  0  0
 24 41  1  0  0  0  0
 24 42  1  0  0  0  0
 25 43  1  0  0  0  0
 26 44  1  0  0  0  0
 26 45  1  0  0  0  0
 27 46  1  0  0  0  0
M  END
> <Name>
44

> <IC50[uM]>
0.004

$$$$
44
  -OEChem-05192314333D
 Structure written by MMmdl.
 46 50  0     0  0  0  0  0  0999 V2000
   -6.3932   12.3500  -12.0125 C   0  0  0  0  0  0  0  0  0  0  0  0
   -6.5644   11.7828  -10.7394 C   0  0  0  0  0  0  0  0  0  0  0  0
   -7.7358   10.5711  -13.0331 C   0  0  0  0  0  0  0  0  0  0  0  0
   -6.9954   11.7572  -13.1322 C   0  0  0  0  0  0  0  0  0  0  0  0
   -7.8242    9.9989  -11.7591 C   0  0  0  0  0  0  0  0  0  0  0  0
   -7.2585   10.6059  -10.6150 C   0  0  0  0  0  0  0  0  0  0  0  0
   -7.6168    9.7386   -9.5213 C   0  0  0  0  0  0  0  0  0  0  0  0
   -8.2709    8.7166   -9.9884 N   0  0  0  0  0  0  0  0  0  0  0  0
   -8.4108    8.8490  -11.3012 N   0  0  0  0  0  0  0  0  0  0  0  0
   -7.3306    9.8912   -8.0312 C   0  0  0  0  0  0  0  0  0  0  0  0
   -4.5413   13.8555  -11.3648 N   0  0  0  0  0  0  0  0  0  0  0  0
   -5.5934   13.6525  -12.1835 C   0  0  0  0  0  0  0  0  0  0  0  0
   -5.9232   14.4812  -13.0224 O   0  0  0  0  0  0  0  0  0  0  0  0
   -5.9508   10.4991   -7.7310 C   0  0  0  0  0  0  0  0  0  0  0  0
   -5.8673   11.7672   -7.1520 C   0  0  0  0  0  0  0  0  0  0  0  0
   -4.6035   12.3102   -6.9134 C   0  0  0  0  0  0  0  0  0  0  0  0
   -3.4392   11.5630   -7.2455 C   0  0  0  0  0  0  0  0  0  0  0  0
   -3.5146   10.2834   -7.8141 C   0  0  0  0  0  0  0  0  0  0  0  0
   -4.7998    9.7761   -8.0492 C   0  0  0  0  0  0  0  0  0  0  0  0
   -4.0885   13.5395   -6.3720 C   0  0  0  0  0  0  0  0  0  0  0  0
   -2.7847   13.5343   -6.3770 N   0  0  0  0  0  0  0  0  0  0  0  0
   -2.3791   12.3751   -6.8806 N   0  0  0  0  0  0  0  0  0  0  0  0
   -0.9494   12.1118   -6.9818 C   0  0  0  0  0  0  0  0  0  0  0  0
   -3.7091   15.0460  -11.2252 C   0  0  0  0  0  0  0  0  0  0  0  0
   -3.1570   14.3608   -9.9755 C   0  0  0  0  0  0  0  0  0  0  0  0
   -4.1684   13.2423  -10.1016 C   0  0  0  0  0  0  0  0  0  0  0  0
   -1.8246   13.9322  -10.0585 O   0  0  0  0  0  0  0  0  0  0  0  0
   -6.1536   12.2683   -9.8665 H   0  0  0  0  0  0  0  0  0  0  0  0
   -8.2120   10.1234  -13.8929 H   0  0  0  0  0  0  0  0  0  0  0  0
   -6.8855   12.2280  -14.0979 H   0  0  0  0  0  0  0  0  0  0  0  0
   -8.0297    9.6003   -7.2611 H   0  0  0  0  0  0  0  0  0  0  0  0
   -6.7611   12.3160   -6.8944 H   0  0  0  0  0  0  0  0  0  0  0  0
   -2.9867   10.3151   -8.7786 H   0  0  0  0  0  0  0  0  0  0  0  0
   -2.9994    9.5863   -7.1369 H   0  0  0  0  0  0  0  0  0  0  0  0
   -4.8650    8.8316   -7.4892 H   0  0  0  0  0  0  0  0  0  0  0  0
   -4.8558    9.5675   -9.1278 H   0  0  0  0  0  0  0  0  0  0  0  0
   -4.6981   14.3547   -6.0110 H   0  0  0  0  0  0  0  0  0  0  0  0
   -0.3887   12.9766   -6.5976 H   0  0  0  0  0  0  0  0  0  0  0  0
   -0.6982   11.2196   -6.3895 H   0  0  0  0  0  0  0  0  0  0  0  0
   -0.6820   11.9401   -8.0349 H   0  0  0  0  0  0  0  0  0  0  0  0
   -2.9790   15.2028  -12.0329 H   0  0  0  0  0  0  0  0  0  0  0  0
   -4.2586   15.9809  -11.0410 H   0  0  0  0  0  0  0  0  0  0  0  0
   -3.3524   14.9686   -9.0797 H   0  0  0  0  0  0  0  0  0  0  0  0
   -4.9575   13.2416   -9.3352 H   0  0  0  0  0  0  0  0  0  0  0  0
   -3.7371   12.2338  -10.1847 H   0  0  0  0  0  0  0  0  0  0  0  0
   -1.5721   13.5212   -9.2401 H   0  0  0  0  0  0  0  0  0  0  0  0
  1  2  2  0  0  0  0
  1  4  1  0  0  0  0
  1 12  1  0  0  0  0
  2  6  1  0  0  0  0
  3  4  2  0  0  0  0
  3  5  1  0  0  0  0
  5  6  2  0  0  0  0
  5  9  1  0  0  0  0
  6  7  1  0  0  0  0
  7  8  1  0  0  0  0
  7 10  2  3  0  0  0
  8  9  2  0  0  0  0
 10 14  1  0  0  0  0
 11 12  1  0  0  0  0
 11 24  1  0  0  0  0
 11 26  1  0  0  0  0
 12 13  2  0  0  0  0
 14 15  2  0  0  0  0
 14 19  1  0  0  0  0
 15 16  1  0  0  0  0
 16 17  2  0  0  0  0
 16 20  1  0  0  0  0
 17 18  1  0  0  0  0
 17 22  1  0  0  0  0
 18 19  1  0  0  0  0
 20 21  2  0  0  0  0
 21 22  1  0  0  0  0
 22 23  1  0  0  0  0
 24 25  1  0  0  0  0
 25 26  1  0  0  0  0
 25 27  1  0  0  0  0
  2 28  1  0  0  0  0
  3 29  1  0  0  0  0
  4 30  1  0  0  0  0
 10 31  1  0  0  0  0
 15 32  1  0  0  0  0
 18 33  1  0  0  0  0
 18 34  1  0  0  0  0
 19 35  1  0  0  0  0
 19 36  1  0  0  0  0
 20 37  1  0  0  0  0
 23 38  1  0  0  0  0
 23 39  1  0  0  0  0
 23 40  1  0  0  0  0
 24 41  1  0  0  0  0
 24 42  1  0  0  0  0
 25 43  1  0  0  0  0
 26 44  1  0  0  0  0
 26 45  1  0  0  0  0
 27 46  1  0  0  0  0
M  END
> <Name>
44

> <IC50[uM]>
0.004

$$$$
44
  -OEChem-05192314333D
 Structure written by MMmdl.
 46 50  0     1  0  0  0  0  0999 V2000
   -6.3932   12.3500  -12.0125 C   0  0  0  0  0  0  0  0  0  0  0  0
   -6.5644   11.7828  -10.7394 C   0  0  0  0  0  0  0  0  0  0  0  0
   -7.7358   10.5711  -13.0331 C   0  0  0  0  0  0  0  0  0  0  0  0
   -6.9954   11.7572  -13.1322 C   0  0  0  0  0  0  0  0  0  0  0  0
   -7.8242    9.9989  -11.7591 C   0  0  0  0  0  0  0  0  0  0  0  0
   -7.2585   10.6059  -10.6150 C   0  0  0  0  0  0  0  0  0  0  0  0
   -7.6168    9.7386   -9.5213 C   0  0  0  0  0  0  0  0  0  0  0  0
   -8.2709    8.7166   -9.9884 N   0  0  0  0  0  0  0  0  0  0  0  0
   -8.4108    8.8490  -11.3012 N   0  0  0  0  0  0  0  0  0  0  0  0
   -7.3306    9.8912   -8.0312 C   0  0  0  0  0  0  0  0  0  0  0  0
   -4.5413   13.8555  -11.3648 N   0  0  0  0  0  0  0  0  0  0  0  0
   -5.5934   13.6525  -12.1835 C   0  0  0  0  0  0  0  0  0  0  0  0
   -5.9232   14.4812  -13.0224 O   0  0  0  0  0  0  0  0  0  0  0  0
   -5.9508   10.4991   -7.7310 C   0  0  3  0  0  0  0  0  0  0  0  0
   -5.8673   11.7672   -7.1520 C   0  0  0  0  0  0  0  0  0  0  0  0
   -4.6035   12.3102   -6.9134 C   0  0  0  0  0  0  0  0  0  0  0  0
   -3.4392   11.5630   -7.2455 C   0  0  0  0  0  0  0  0  0  0  0  0
   -3.5146   10.2834   -7.8141 C   0  0  0  0  0  0  0  0  0  0  0  0
   -4.7998    9.7761   -8.0492 C   0  0  0  0  0  0  0  0  0  0  0  0
   -4.0885   13.5395   -6.3720 C   0  0  0  0  0  0  0  0  0  0  0  0
   -2.7847   13.5343   -6.3770 N   0  0  0  0  0  0  0  0  0  0  0  0
   -2.3791   12.3751   -6.8806 N   0  0  0  0  0  0  0  0  0  0  0  0
   -0.9494   12.1118   -6.9818 C   0  0  0  0  0  0  0  0  0  0  0  0
   -3.7091   15.0460  -11.2252 C   0  0  0  0  0  0  0  0  0  0  0  0
   -3.1570   14.3608   -9.9755 C   0  0  0  0  0  0  0  0  0  0  0  0
   -4.1684   13.2423  -10.1016 C   0  0  0  0  0  0  0  0  0  0  0  0
   -1.8246   13.9322  -10.0585 O   0  0  0  0  0  0  0  0  0  0  0  0
   -6.1536   12.2683   -9.8665 H   0  0  0  0  0  0  0  0  0  0  0  0
   -8.2120   10.1234  -13.8929 H   0  0  0  0  0  0  0  0  0  0  0  0
   -6.8855   12.2280  -14.0979 H   0  0  0  0  0  0  0  0  0  0  0  0
   -8.0297    9.6003   -7.2611 H   0  0  0  0  0  0  0  0  0  0  0  0
   -5.9645   10.0411   -6.7310 H   0  0  0  0  0  0  0  0  0  0  0  0
   -6.3991   12.4633   -7.8173 H   0  0  0  0  0  0  0  0  0  0  0  0
   -6.3867   11.7165   -6.1837 H   0  0  0  0  0  0  0  0  0  0  0  0
   -2.6276    9.7177   -8.0584 H   0  0  0  0  0  0  0  0  0  0  0  0
   -4.9028    8.7956   -8.4901 H   0  0  0  0  0  0  0  0  0  0  0  0
   -4.6981   14.3547   -6.0110 H   0  0  0  0  0  0  0  0  0  0  0  0
   -0.3887   12.9766   -6.5976 H   0  0  0  0  0  0  0  0  0  0  0  0
   -0.6982   11.2196   -6.3895 H   0  0  0  0  0  0  0  0  0  0  0  0
   -0.6820   11.9401   -8.0349 H   0  0  0  0  0  0  0  0  0  0  0  0
   -2.9790   15.2028  -12.0329 H   0  0  0  0  0  0  0  0  0  0  0  0
   -4.2586   15.9809  -11.0410 H   0  0  0  0  0  0  0  0  0  0  0  0
   -3.3524   14.9686   -9.0797 H   0  0  0  0  0  0  0  0  0  0  0  0
   -4.9575   13.2416   -9.3352 H   0  0  0  0  0  0  0  0  0  0  0  0
   -3.7371   12.2338  -10.1847 H   0  0  0  0  0  0  0  0  0  0  0  0
   -1.5721   13.5212   -9.2401 H   0  0  0  0  0  0  0  0  0  0  0  0
  1  2  2  0  0  0  0
  1  4  1  0  0  0  0
  1 12  1  0  0  0  0
  2  6  1  0  0  0  0
  3  4  2  0  0  0  0
  3  5  1  0  0  0  0
  5  6  2  0  0  0  0
  5  9  1  0  0  0  0
  6  7  1  0  0  0  0
  7  8  1  0  0  0  0
  7 10  2  3  0  0  0
  8  9  2  0  0  0  0
 10 14  1  0  0  0  0
 11 12  1  0  0  0  0
 11 24  1  0  0  0  0
 11 26  1  0  0  0  0
 12 13  2  0  0  0  0
 14 15  1  0  0  0  0
 14 19  1  0  0  0  0
 15 16  1  0  0  0  0
 16 17  2  0  0  0  0
 16 20  1  0  0  0  0
 17 18  1  0  0  0  0
 17 22  1  0  0  0  0
 18 19  2  0  0  0  0
 20 21  2  0  0  0  0
 21 22  1  0  0  0  0
 22 23  1  0  0  0  0
 24 25  1  0  0  0  0
 25 26  1  0  0  0  0
 25 27  1  0  0  0  0
  2 28  1  0  0  0  0
  3 29  1  0  0  0  0
  4 30  1  0  0  0  0
 10 31  1  0  0  0  0
 14 32  1  0  0  0  0
 15 33  1  0  0  0  0
 15 34  1  0  0  0  0
 18 35  1  0  0  0  0
 19 36  1  0  0  0  0
 20 37  1  0  0  0  0
 23 38  1  0  0  0  0
 23 39  1  0  0  0  0
 23 40  1  0  0  0  0
 24 41  1  0  0  0  0
 24 42  1  0  0  0  0
 25 43  1  0  0  0  0
 26 44  1  0  0  0  0
 26 45  1  0  0  0  0
 27 46  1  0  0  0  0
M  END
> <Name>
44

> <IC50[uM]>
0.004

$$$$
44
  -OEChem-05192314333D
 Structure written by MMmdl.
 46 50  0     1  0  0  0  0  0999 V2000
   -6.3932   12.3500  -12.0125 C   0  0  0  0  0  0  0  0  0  0  0  0
   -6.5644   11.7828  -10.7394 C   0  0  0  0  0  0  0  0  0  0  0  0
   -7.7358   10.5711  -13.0331 C   0  0  0  0  0  0  0  0  0  0  0  0
   -6.9954   11.7572  -13.1322 C   0  0  0  0  0  0  0  0  0  0  0  0
   -7.8242    9.9989  -11.7591 C   0  0  0  0  0  0  0  0  0  0  0  0
   -7.2585   10.6059  -10.6150 C   0  0  0  0  0  0  0  0  0  0  0  0
   -7.6168    9.7386   -9.5213 C   0  0  3  0  0  0  0  0  0  0  0  0
   -8.2709    8.7166   -9.9884 N   0  0  0  0  0  0  0  0  0  0  0  0
   -8.4108    8.8490  -11.3012 N   0  0  0  0  0  0  0  0  0  0  0  0
   -7.3306    9.8912   -8.0312 C   0  0  0  0  0  0  0  0  0  0  0  0
   -4.5413   13.8555  -11.3648 N   0  0  0  0  0  0  0  0  0  0  0  0
   -5.5934   13.6525  -12.1835 C   0  0  0  0  0  0  0  0  0  0  0  0
   -5.9232   14.4812  -13.0224 O   0  0  0  0  0  0  0  0  0  0  0  0
   -5.9508   10.4991   -7.7310 C   0  0  0  0  0  0  0  0  0  0  0  0
   -5.8673   11.7672   -7.1520 C   0  0  0  0  0  0  0  0  0  0  0  0
   -4.6035   12.3102   -6.9134 C   0  0  0  0  0  0  0  0  0  0  0  0
   -3.4392   11.5630   -7.2455 C   0  0  0  0  0  0  0  0  0  0  0  0
   -3.5146   10.2834   -7.8141 C   0  0  0  0  0  0  0  0  0  0  0  0
   -4.7998    9.7761   -8.0492 C   0  0  0  0  0  0  0  0  0  0  0  0
   -4.0885   13.5395   -6.3720 C   0  0  0  0  0  0  0  0  0  0  0  0
   -2.7847   13.5343   -6.3770 N   0  0  0  0  0  0  0  0  0  0  0  0
   -2.3791   12.3751   -6.8806 N   0  0  0  0  0  0  0  0  0  0  0  0
   -0.9494   12.1118   -6.9818 C   0  0  0  0  0  0  0  0  0  0  0  0
   -3.7091   15.0460  -11.2252 C   0  0  0  0  0  0  0  0  0  0  0  0
   -3.1570   14.3608   -9.9755 C   0  0  0  0  0  0  0  0  0  0  0  0
   -4.1684   13.2423  -10.1016 C   0  0  0  0  0  0  0  0  0  0  0  0
   -1.8246   13.9322  -10.0585 O   0  0  0  0  0  0  0  0  0  0  0  0
   -6.1536   12.2683   -9.8665 H   0  0  0  0  0  0  0  0  0  0  0  0
   -8.2120   10.1234  -13.8929 H   0  0  0  0  0  0  0  0  0  0  0  0
   -6.8855   12.2280  -14.0979 H   0  0  0  0  0  0  0  0  0  0  0  0
   -8.5622   10.2868   -9.3961 H   0  0  0  0  0  0  0  0  0  0  0  0
   -8.0297    9.6003   -7.2611 H   0  0  0  0  0  0  0  0  0  0  0  0
   -6.3991   12.4633   -7.8173 H   0  0  0  0  0  0  0  0  0  0  0  0
   -6.3867   11.7165   -6.1837 H   0  0  0  0  0  0  0  0  0  0  0  0
   -2.6276    9.7177   -8.0584 H   0  0  0  0  0  0  0  0  0  0  0  0
   -4.9028    8.7956   -8.4901 H   0  0  0  0  0  0  0  0  0  0  0  0
   -4.6981   14.3547   -6.0110 H   0  0  0  0  0  0  0  0  0  0  0  0
   -0.3887   12.9766   -6.5976 H   0  0  0  0  0  0  0  0  0  0  0  0
   -0.6982   11.2196   -6.3895 H   0  0  0  0  0  0  0  0  0  0  0  0
   -0.6820   11.9401   -8.0349 H   0  0  0  0  0  0  0  0  0  0  0  0
   -2.9790   15.2028  -12.0329 H   0  0  0  0  0  0  0  0  0  0  0  0
   -4.2586   15.9809  -11.0410 H   0  0  0  0  0  0  0  0  0  0  0  0
   -3.3524   14.9686   -9.0797 H   0  0  0  0  0  0  0  0  0  0  0  0
   -4.9575   13.2416   -9.3352 H   0  0  0  0  0  0  0  0  0  0  0  0
   -3.7371   12.2338  -10.1847 H   0  0  0  0  0  0  0  0  0  0  0  0
   -1.5721   13.5212   -9.2401 H   0  0  0  0  0  0  0  0  0  0  0  0
  1  2  2  0  0  0  0
  1  4  1  0  0  0  0
  1 12  1  0  0  0  0
  2  6  1  0  0  0  0
  3  4  2  0  0  0  0
  3  5  1  0  0  0  0
  5  6  2  0  0  0  0
  5  9  1  0  0  0  0
  6  7  1  0  0  0  0
  7  8  1  0  0  0  0
  7 10  1  0  0  0  0
  8  9  2  0  0  0  0
 10 14  2  3  0  0  0
 11 12  1  0  0  0  0
 11 24  1  0  0  0  0
 11 26  1  0  0  0  0
 12 13  2  0  0  0  0
 14 15  1  0  0  0  0
 14 19  1  0  0  0  0
 15 16  1  0  0  0  0
 16 17  2  0  0  0  0
 16 20  1  0  0  0  0
 17 18  1  0  0  0  0
 17 22  1  0  0  0  0
 18 19  2  0  0  0  0
 20 21  2  0  0  0  0
 21 22  1  0  0  0  0
 22 23  1  0  0  0  0
 24 25  1  0  0  0  0
 25 26  1  0  0  0  0
 25 27  1  0  0  0  0
  2 28  1  0  0  0  0
  3 29  1  0  0  0  0
  4 30  1  0  0  0  0
  7 31  1  0  0  0  0
 10 32  1  0  0  0  0
 15 33  1  0  0  0  0
 15 34  1  0  0  0  0
 18 35  1  0  0  0  0
 19 36  1  0  0  0  0
 20 37  1  0  0  0  0
 23 38  1  0  0  0  0
 23 39  1  0  0  0  0
 23 40  1  0  0  0  0
 24 41  1  0  0  0  0
 24 42  1  0  0  0  0
 25 43  1  0  0  0  0
 26 44  1  0  0  0  0
 26 45  1  0  0  0  0
 27 46  1  0  0  0  0
M  END
> <Name>
44

> <IC50[uM]>
0.004

$$$$
44
  -OEChem-05192314333D
 Structure written by MMmdl.
 46 50  0     0  0  0  0  0  0999 V2000
   -6.3932   12.3500  -12.0125 C   0  0  0  0  0  0  0  0  0  0  0  0
   -6.5644   11.7828  -10.7394 C   0  0  0  0  0  0  0  0  0  0  0  0
   -7.7358   10.5711  -13.0331 C   0  0  0  0  0  0  0  0  0  0  0  0
   -6.9954   11.7572  -13.1322 C   0  0  0  0  0  0  0  0  0  0  0  0
   -7.8242    9.9989  -11.7591 C   0  0  0  0  0  0  0  0  0  0  0  0
   -7.2585   10.6059  -10.6150 C   0  0  0  0  0  0  0  0  0  0  0  0
   -7.6168    9.7386   -9.5213 C   0  0  0  0  0  0  0  0  0  0  0  0
   -8.2709    8.7166   -9.9884 N   0  0  0  0  0  0  0  0  0  0  0  0
   -8.4108    8.8490  -11.3012 N   0  0  0  0  0  0  0  0  0  0  0  0
   -7.3306    9.8912   -8.0312 C   0  0  0  0  0  0  0  0  0  0  0  0
   -4.5413   13.8555  -11.3648 N   0  0  0  0  0  0  0  0  0  0  0  0
   -5.5934   13.6525  -12.1835 C   0  0  0  0  0  0  0  0  0  0  0  0
   -5.9232   14.4812  -13.0224 O   0  0  0  0  0  0  0  0  0  0  0  0
   -5.9508   10.4991   -7.7310 C   0  0  0  0  0  0  0  0  0  0  0  0
   -5.8673   11.7672   -7.1520 C   0  0  0  0  0  0  0  0  0  0  0  0
   -4.6035   12.3102   -6.9134 C   0  0  0  0  0  0  0  0  0  0  0  0
   -3.4392   11.5630   -7.2455 C   0  0  0  0  0  0  0  0  0  0  0  0
   -3.5146   10.2834   -7.8141 C   0  0  0  0  0  0  0  0  0  0  0  0
   -4.7998    9.7761   -8.0492 C   0  0  0  0  0  0  0  0  0  0  0  0
   -4.0885   13.5395   -6.3720 C   0  0  0  0  0  0  0  0  0  0  0  0
   -2.7847   13.5343   -6.3770 N   0  0  0  0  0  0  0  0  0  0  0  0
   -2.3791   12.3751   -6.8806 N   0  0  0  0  0  0  0  0  0  0  0  0
   -0.9494   12.1118   -6.9818 C   0  0  0  0  0  0  0  0  0  0  0  0
   -3.7091   15.0460  -11.2252 C   0  0  0  0  0  0  0  0  0  0  0  0
   -3.1570   14.3608   -9.9755 C   0  0  0  0  0  0  0  0  0  0  0  0
   -4.1684   13.2423  -10.1016 C   0  0  0  0  0  0  0  0  0  0  0  0
   -1.8246   13.9322  -10.0585 O   0  0  0  0  0  0  0  0  0  0  0  0
   -6.1536   12.2683   -9.8665 H   0  0  0  0  0  0  0  0  0  0  0  0
   -8.2120   10.1234  -13.8929 H   0  0  0  0  0  0  0  0  0  0  0  0
   -6.8855   12.2280  -14.0979 H   0  0  0  0  0  0  0  0  0  0  0  0
   -8.0297    9.6003   -7.2611 H   0  0  0  0  0  0  0  0  0  0  0  0
   -6.3991   12.4633   -7.8173 H   0  0  0  0  0  0  0  0  0  0  0  0
   -6.3867   11.7165   -6.1837 H   0  0  0  0  0  0  0  0  0  0  0  0
   -2.9867   10.3151   -8.7786 H   0  0  0  0  0  0  0  0  0  0  0  0
   -2.9994    9.5863   -7.1369 H   0  0  0  0  0  0  0  0  0  0  0  0
   -4.9028    8.7956   -8.4901 H   0  0  0  0  0  0  0  0  0  0  0  0
   -4.6981   14.3547   -6.0110 H   0  0  0  0  0  0  0  0  0  0  0  0
   -0.3887   12.9766   -6.5976 H   0  0  0  0  0  0  0  0  0  0  0  0
   -0.6982   11.2196   -6.3895 H   0  0  0  0  0  0  0  0  0  0  0  0
   -0.6820   11.9401   -8.0349 H   0  0  0  0  0  0  0  0  0  0  0  0
   -2.9790   15.2028  -12.0329 H   0  0  0  0  0  0  0  0  0  0  0  0
   -4.2586   15.9809  -11.0410 H   0  0  0  0  0  0  0  0  0  0  0  0
   -3.3524   14.9686   -9.0797 H   0  0  0  0  0  0  0  0  0  0  0  0
   -4.9575   13.2416   -9.3352 H   0  0  0  0  0  0  0  0  0  0  0  0
   -3.7371   12.2338  -10.1847 H   0  0  0  0  0  0  0  0  0  0  0  0
   -1.5721   13.5212   -9.2401 H   0  0  0  0  0  0  0  0  0  0  0  0
  1  2  2  0  0  0  0
  1  4  1  0  0  0  0
  1 12  1  0  0  0  0
  2  6  1  0  0  0  0
  3  4  2  0  0  0  0
  3  5  1  0  0  0  0
  5  6  2  0  0  0  0
  5  9  1  0  0  0  0
  6  7  1  0  0  0  0
  7  8  1  0  0  0  0
  7 10  2  3  0  0  0
  8  9  2  0  0  0  0
 10 14  1  0  0  0  0
 11 12  1  0  0  0  0
 11 24  1  0  0  0  0
 11 26  1  0  0  0  0
 12 13  2  0  0  0  0
 14 15  1  0  0  0  0
 14 19  2  0  0  0  0
 15 16  1  0  0  0  0
 16 17  2  0  0  0  0
 16 20  1  0  0  0  0
 17 18  1  0  0  0  0
 17 22  1  0  0  0  0
 18 19  1  0  0  0  0
 20 21  2  0  0  0  0
 21 22  1  0  0  0  0
 22 23  1  0  0  0  0
 24 25  1  0  0  0  0
 25 26  1  0  0  0  0
 25 27  1  0  0  0  0
  2 28  1  0  0  0  0
  3 29  1  0  0  0  0
  4 30  1  0  0  0  0
 10 31  1  0  0  0  0
 15 32  1  0  0  0  0
 15 33  1  0  0  0  0
 18 34  1  0  0  0  0
 18 35  1  0  0  0  0
 19 36  1  0  0  0  0
 20 37  1  0  0  0  0
 23 38  1  0  0  0  0
 23 39  1  0  0  0  0
 23 40  1  0  0  0  0
 24 41  1  0  0  0  0
 24 42  1  0  0  0  0
 25 43  1  0  0  0  0
 26 44  1  0  0  0  0
 26 45  1  0  0  0  0
 27 46  1  0  0  0  0
M  END
> <Name>
44

> <IC50[uM]>
0.004

$$$$
44
  -OEChem-05192314333D
 Structure written by MMmdl.
 46 50  0     1  0  0  0  0  0999 V2000
   -6.3932   12.3500  -12.0125 C   0  0  0  0  0  0  0  0  0  0  0  0
   -6.5644   11.7828  -10.7394 C   0  0  0  0  0  0  0  0  0  0  0  0
   -7.7358   10.5711  -13.0331 C   0  0  0  0  0  0  0  0  0  0  0  0
   -6.9954   11.7572  -13.1322 C   0  0  0  0  0  0  0  0  0  0  0  0
   -7.8242    9.9989  -11.7591 C   0  0  0  0  0  0  0  0  0  0  0  0
   -7.2585   10.6059  -10.6150 C   0  0  0  0  0  0  0  0  0  0  0  0
   -7.6168    9.7386   -9.5213 C   0  0  0  0  0  0  0  0  0  0  0  0
   -8.2709    8.7166   -9.9884 N   0  0  0  0  0  0  0  0  0  0  0  0
   -8.4108    8.8490  -11.3012 N   0  0  0  0  0  0  0  0  0  0  0  0
   -7.3306    9.8912   -8.0312 C   0  0  0  0  0  0  0  0  0  0  0  0
   -4.5413   13.8555  -11.3648 N   0  0  0  0  0  0  0  0  0  0  0  0
   -5.5934   13.6525  -12.1835 C   0  0  0  0  0  0  0  0  0  0  0  0
   -5.9232   14.4812  -13.0224 O   0  0  0  0  0  0  0  0  0  0  0  0
   -5.9508   10.4991   -7.7310 C   0  0  3  0  0  0  0  0  0  0  0  0
   -5.8673   11.7672   -7.1520 C   0  0  0  0  0  0  0  0  0  0  0  0
   -4.6035   12.3102   -6.9134 C   0  0  0  0  0  0  0  0  0  0  0  0
   -3.4392   11.5630   -7.2455 C   0  0  0  0  0  0  0  0  0  0  0  0
   -3.5146   10.2834   -7.8141 C   0  0  0  0  0  0  0  0  0  0  0  0
   -4.7998    9.7761   -8.0492 C   0  0  0  0  0  0  0  0  0  0  0  0
   -4.0885   13.5395   -6.3720 C   0  0  0  0  0  0  0  0  0  0  0  0
   -2.7847   13.5343   -6.3770 N   0  0  0  0  0  0  0  0  0  0  0  0
   -2.3791   12.3751   -6.8806 N   0  0  0  0  0  0  0  0  0  0  0  0
   -0.9494   12.1118   -6.9818 C   0  0  0  0  0  0  0  0  0  0  0  0
   -3.7091   15.0460  -11.2252 C   0  0  0  0  0  0  0  0  0  0  0  0
   -3.1570   14.3608   -9.9755 C   0  0  0  0  0  0  0  0  0  0  0  0
   -4.1684   13.2423  -10.1016 C   0  0  0  0  0  0  0  0  0  0  0  0
   -1.8246   13.9322  -10.0585 O   0  0  0  0  0  0  0  0  0  0  0  0
   -6.1536   12.2683   -9.8665 H   0  0  0  0  0  0  0  0  0  0  0  0
   -8.2120   10.1234  -13.8929 H   0  0  0  0  0  0  0  0  0  0  0  0
   -6.8855   12.2280  -14.0979 H   0  0  0  0  0  0  0  0  0  0  0  0
   -8.0297    9.6003   -7.2611 H   0  0  0  0  0  0  0  0  0  0  0  0
   -5.9645   10.0411   -6.7310 H   0  0  0  0  0  0  0  0  0  0  0  0
   -6.7611   12.3160   -6.8944 H   0  0  0  0  0  0  0  0  0  0  0  0
   -2.6276    9.7177   -8.0584 H   0  0  0  0  0  0  0  0  0  0  0  0
   -4.8650    8.8316   -7.4892 H   0  0  0  0  0  0  0  0  0  0  0  0
   -4.8558    9.5675   -9.1278 H   0  0  0  0  0  0  0  0  0  0  0  0
   -4.6981   14.3547   -6.0110 H   0  0  0  0  0  0  0  0  0  0  0  0
   -0.3887   12.9766   -6.5976 H   0  0  0  0  0  0  0  0  0  0  0  0
   -0.6982   11.2196   -6.3895 H   0  0  0  0  0  0  0  0  0  0  0  0
   -0.6820   11.9401   -8.0349 H   0  0  0  0  0  0  0  0  0  0  0  0
   -2.9790   15.2028  -12.0329 H   0  0  0  0  0  0  0  0  0  0  0  0
   -4.2586   15.9809  -11.0410 H   0  0  0  0  0  0  0  0  0  0  0  0
   -3.3524   14.9686   -9.0797 H   0  0  0  0  0  0  0  0  0  0  0  0
   -4.9575   13.2416   -9.3352 H   0  0  0  0  0  0  0  0  0  0  0  0
   -3.7371   12.2338  -10.1847 H   0  0  0  0  0  0  0  0  0  0  0  0
   -1.5721   13.5212   -9.2401 H   0  0  0  0  0  0  0  0  0  0  0  0
  1  2  2  0  0  0  0
  1  4  1  0  0  0  0
  1 12  1  0  0  0  0
  2  6  1  0  0  0  0
  3  4  2  0  0  0  0
  3  5  1  0  0  0  0
  5  6  2  0  0  0  0
  5  9  1  0  0  0  0
  6  7  1  0  0  0  0
  7  8  1  0  0  0  0
  7 10  2  3  0  0  0
  8  9  2  0  0  0  0
 10 14  1  0  0  0  0
 11 12  1  0  0  0  0
 11 24  1  0  0  0  0
 11 26  1  0  0  0  0
 12 13  2  0  0  0  0
 14 15  1  0  0  0  0
 14 19  1  0  0  0  0
 15 16  2  0  0  0  0
 16 17  1  0  0  0  0
 16 20  1  0  0  0  0
 17 18  2  0  0  0  0
 17 22  1  0  0  0  0
 18 19  1  0  0  0  0
 20 21  2  0  0  0  0
 21 22  1  0  0  0  0
 22 23  1  0  0  0  0
 24 25  1  0  0  0  0
 25 26  1  0  0  0  0
 25 27  1  0  0  0  0
  2 28  1  0  0  0  0
  3 29  1  0  0  0  0
  4 30  1  0  0  0  0
 10 31  1  0  0  0  0
 14 32  1  0  0  0  0
 15 33  1  0  0  0  0
 18 34  1  0  0  0  0
 19 35  1  0  0  0  0
 19 36  1  0  0  0  0
 20 37  1  0  0  0  0
 23 38  1  0  0  0  0
 23 39  1  0  0  0  0
 23 40  1  0  0  0  0
 24 41  1  0  0  0  0
 24 42  1  0  0  0  0
 25 43  1  0  0  0  0
 26 44  1  0  0  0  0
 26 45  1  0  0  0  0
 27 46  1  0  0  0  0
M  END
> <Name>
44

> <IC50[uM]>
0.004

$$$$
44
  -OEChem-05192314333D
 Structure written by MMmdl.
 46 50  0     1  0  0  0  0  0999 V2000
   -6.3932   12.3500  -12.0125 C   0  0  0  0  0  0  0  0  0  0  0  0
   -6.5644   11.7828  -10.7394 C   0  0  0  0  0  0  0  0  0  0  0  0
   -7.7358   10.5711  -13.0331 C   0  0  0  0  0  0  0  0  0  0  0  0
   -6.9954   11.7572  -13.1322 C   0  0  0  0  0  0  0  0  0  0  0  0
   -7.8242    9.9989  -11.7591 C   0  0  0  0  0  0  0  0  0  0  0  0
   -7.2585   10.6059  -10.6150 C   0  0  0  0  0  0  0  0  0  0  0  0
   -7.6168    9.7386   -9.5213 C   0  0  3  0  0  0  0  0  0  0  0  0
   -8.2709    8.7166   -9.9884 N   0  0  0  0  0  0  0  0  0  0  0  0
   -8.4108    8.8490  -11.3012 N   0  0  0  0  0  0  0  0  0  0  0  0
   -7.3306    9.8912   -8.0312 C   0  0  0  0  0  0  0  0  0  0  0  0
   -4.5413   13.8555  -11.3648 N   0  0  0  0  0  0  0  0  0  0  0  0
   -5.5934   13.6525  -12.1835 C   0  0  0  0  0  0  0  0  0  0  0  0
   -5.9232   14.4812  -13.0224 O   0  0  0  0  0  0  0  0  0  0  0  0
   -5.9508   10.4991   -7.7310 C   0  0  0  0  0  0  0  0  0  0  0  0
   -5.8673   11.7672   -7.1520 C   0  0  0  0  0  0  0  0  0  0  0  0
   -4.6035   12.3102   -6.9134 C   0  0  0  0  0  0  0  0  0  0  0  0
   -3.4392   11.5630   -7.2455 C   0  0  0  0  0  0  0  0  0  0  0  0
   -3.5146   10.2834   -7.8141 C   0  0  0  0  0  0  0  0  0  0  0  0
   -4.7998    9.7761   -8.0492 C   0  0  0  0  0  0  0  0  0  0  0  0
   -4.0885   13.5395   -6.3720 C   0  0  0  0  0  0  0  0  0  0  0  0
   -2.7847   13.5343   -6.3770 N   0  0  0  0  0  0  0  0  0  0  0  0
   -2.3791   12.3751   -6.8806 N   0  0  0  0  0  0  0  0  0  0  0  0
   -0.9494   12.1118   -6.9818 C   0  0  0  0  0  0  0  0  0  0  0  0
   -3.7091   15.0460  -11.2252 C   0  0  0  0  0  0  0  0  0  0  0  0
   -3.1570   14.3608   -9.9755 C   0  0  0  0  0  0  0  0  0  0  0  0
   -4.1684   13.2423  -10.1016 C   0  0  0  0  0  0  0  0  0  0  0  0
   -1.8246   13.9322  -10.0585 O   0  0  0  0  0  0  0  0  0  0  0  0
   -6.1536   12.2683   -9.8665 H   0  0  0  0  0  0  0  0  0  0  0  0
   -8.2120   10.1234  -13.8929 H   0  0  0  0  0  0  0  0  0  0  0  0
   -6.8855   12.2280  -14.0979 H   0  0  0  0  0  0  0  0  0  0  0  0
   -8.5622   10.2868   -9.3961 H   0  0  0  0  0  0  0  0  0  0  0  0
   -8.0297    9.6003   -7.2611 H   0  0  0  0  0  0  0  0  0  0  0  0
   -6.7611   12.3160   -6.8944 H   0  0  0  0  0  0  0  0  0  0  0  0
   -2.6276    9.7177   -8.0584 H   0  0  0  0  0  0  0  0  0  0  0  0
   -4.8650    8.8316   -7.4892 H   0  0  0  0  0  0  0  0  0  0  0  0
   -4.8558    9.5675   -9.1278 H   0  0  0  0  0  0  0  0  0  0  0  0
   -4.6981   14.3547   -6.0110 H   0  0  0  0  0  0  0  0  0  0  0  0
   -0.3887   12.9766   -6.5976 H   0  0  0  0  0  0  0  0  0  0  0  0
   -0.6982   11.2196   -6.3895 H   0  0  0  0  0  0  0  0  0  0  0  0
   -0.6820   11.9401   -8.0349 H   0  0  0  0  0  0  0  0  0  0  0  0
   -2.9790   15.2028  -12.0329 H   0  0  0  0  0  0  0  0  0  0  0  0
   -4.2586   15.9809  -11.0410 H   0  0  0  0  0  0  0  0  0  0  0  0
   -3.3524   14.9686   -9.0797 H   0  0  0  0  0  0  0  0  0  0  0  0
   -4.9575   13.2416   -9.3352 H   0  0  0  0  0  0  0  0  0  0  0  0
   -3.7371   12.2338  -10.1847 H   0  0  0  0  0  0  0  0  0  0  0  0
   -1.5721   13.5212   -9.2401 H   0  0  0  0  0  0  0  0  0  0  0  0
  1  2  2  0  0  0  0
  1  4  1  0  0  0  0
  1 12  1  0  0  0  0
  2  6  1  0  0  0  0
  3  4  2  0  0  0  0
  3  5  1  0  0  0  0
  5  6  2  0  0  0  0
  5  9  1  0  0  0  0
  6  7  1  0  0  0  0
  7  8  1  0  0  0  0
  7 10  1  0  0  0  0
  8  9  2  0  0  0  0
 10 14  2  3  0  0  0
 11 12  1  0  0  0  0
 11 24  1  0  0  0  0
 11 26  1  0  0  0  0
 12 13  2  0  0  0  0
 14 15  1  0  0  0  0
 14 19  1  0  0  0  0
 15 16  2  0  0  0  0
 16 17  1  0  0  0  0
 16 20  1  0  0  0  0
 17 18  2  0  0  0  0
 17 22  1  0  0  0  0
 18 19  1  0  0  0  0
 20 21  2  0  0  0  0
 21 22  1  0  0  0  0
 22 23  1  0  0  0  0
 24 25  1  0  0  0  0
 25 26  1  0  0  0  0
 25 27  1  0  0  0  0
  2 28  1  0  0  0  0
  3 29  1  0  0  0  0
  4 30  1  0  0  0  0
  7 31  1  0  0  0  0
 10 32  1  0  0  0  0
 15 33  1  0  0  0  0
 18 34  1  0  0  0  0
 19 35  1  0  0  0  0
 19 36  1  0  0  0  0
 20 37  1  0  0  0  0
 23 38  1  0  0  0  0
 23 39  1  0  0  0  0
 23 40  1  0  0  0  0
 24 41  1  0  0  0  0
 24 42  1  0  0  0  0
 25 43  1  0  0  0  0
 26 44  1  0  0  0  0
 26 45  1  0  0  0  0
 27 46  1  0  0  0  0
M  END
> <Name>
44

> <IC50[uM]>
0.004

$$$$
44
  -OEChem-05192314333D
 Structure written by MMmdl.
 46 50  0     1  0  0  0  0  0999 V2000
   -6.3932   12.3500  -12.0125 C   0  0  3  0  0  0  0  0  0  0  0  0
   -6.5644   11.7828  -10.7394 C   0  0  0  0  0  0  0  0  0  0  0  0
   -7.7358   10.5711  -13.0331 C   0  0  0  0  0  0  0  0  0  0  0  0
   -6.9954   11.7572  -13.1322 C   0  0  0  0  0  0  0  0  0  0  0  0
   -7.8242    9.9989  -11.7591 C   0  0  0  0  0  0  0  0  0  0  0  0
   -7.2585   10.6059  -10.6150 C   0  0  0  0  0  0  0  0  0  0  0  0
   -7.6168    9.7386   -9.5213 C   0  0  0  0  0  0  0  0  0  0  0  0
   -8.2709    8.7166   -9.9884 N   0  0  0  0  0  0  0  0  0  0  0  0
   -8.4108    8.8490  -11.3012 N   0  0  0  0  0  0  0  0  0  0  0  0
   -7.3306    9.8912   -8.0312 C   0  0  0  0  0  0  0  0  0  0  0  0
   -4.5413   13.8555  -11.3648 N   0  0  0  0  0  0  0  0  0  0  0  0
   -5.5934   13.6525  -12.1835 C   0  0  0  0  0  0  0  0  0  0  0  0
   -5.9232   14.4812  -13.0224 O   0  0  0  0  0  0  0  0  0  0  0  0
   -5.9508   10.4991   -7.7310 C   0  0  0  0  0  0  0  0  0  0  0  0
   -5.8673   11.7672   -7.1520 C   0  0  0  0  0  0  0  0  0  0  0  0
   -4.6035   12.3102   -6.9134 C   0  0  0  0  0  0  0  0  0  0  0  0
   -3.4392   11.5630   -7.2455 C   0  0  0  0  0  0  0  0  0  0  0  0
   -3.5146   10.2834   -7.8141 C   0  0  0  0  0  0  0  0  0  0  0  0
   -4.7998    9.7761   -8.0492 C   0  0  0  0  0  0  0  0  0  0  0  0
   -4.0885   13.5395   -6.3720 C   0  0  0  0  0  0  0  0  0  0  0  0
   -2.7847   13.5343   -6.3770 N   0  0  0  0  0  0  0  0  0  0  0  0
   -2.3791   12.3751   -6.8806 N   0  0  0  0  0  0  0  0  0  0  0  0
   -0.9494   12.1118   -6.9818 C   0  0  0  0  0  0  0  0  0  0  0  0
   -3.7091   15.0460  -11.2252 C   0  0  0  0  0  0  0  0  0  0  0  0
   -3.1570   14.3608   -9.9755 C   0  0  0  0  0  0  0  0  0  0  0  0
   -4.1684   13.2423  -10.1016 C   0  0  0  0  0  0  0  0  0  0  0  0
   -1.8246   13.9322  -10.0585 O   0  0  0  0  0  0  0  0  0  0  0  0
   -5.4817   11.7548  -12.1703 H   0  0  0  0  0  0  0  0  0  0  0  0
   -6.1536   12.2683   -9.8665 H   0  0  0  0  0  0  0  0  0  0  0  0
   -8.2120   10.1234  -13.8929 H   0  0  0  0  0  0  0  0  0  0  0  0
   -6.8855   12.2280  -14.0979 H   0  0  0  0  0  0  0  0  0  0  0  0
   -8.1010   10.5432   -7.5937 H   0  0  0  0  0  0  0  0  0  0  0  0
   -7.3824    8.8971   -7.5631 H   0  0  0  0  0  0  0  0  0  0  0  0
   -6.7611   12.3160   -6.8944 H   0  0  0  0  0  0  0  0  0  0  0  0
   -2.6276    9.7177   -8.0584 H   0  0  0  0  0  0  0  0  0  0  0  0
   -4.9028    8.7956   -8.4901 H   0  0  0  0  0  0  0  0  0  0  0  0
   -4.6981   14.3547   -6.0110 H   0  0  0  0  0  0  0  0  0  0  0  0
   -0.3887   12.9766   -6.5976 H   0  0  0  0  0  0  0  0  0  0  0  0
   -0.6982   11.2196   -6.3895 H   0  0  0  0  0  0  0  0  0  0  0  0
   -0.6820   11.9401   -8.0349 H   0  0  0  0  0  0  0  0  0  0  0  0
   -2.9790   15.2028  -12.0329 H   0  0  0  0  0  0  0  0  0  0  0  0
   -4.2586   15.9809  -11.0410 H   0  0  0  0  0  0  0  0  0  0  0  0
   -3.3524   14.9686   -9.0797 H   0  0  0  0  0  0  0  0  0  0  0  0
   -4.9575   13.2416   -9.3352 H   0  0  0  0  0  0  0  0  0  0  0  0
   -3.7371   12.2338  -10.1847 H   0  0  0  0  0  0  0  0  0  0  0  0
   -1.5721   13.5212   -9.2401 H   0  0  0  0  0  0  0  0  0  0  0  0
  1  2  1  0  0  0  0
  1  4  1  0  0  0  0
  1 12  1  0  0  0  0
  2  6  2  0  0  0  0
  3  4  2  0  0  0  0
  3  5  1  0  0  0  0
  5  6  1  0  0  0  0
  5  9  2  0  0  0  0
  6  7  1  0  0  0  0
  7  8  2  0  0  0  0
  7 10  1  0  0  0  0
  8  9  1  0  0  0  0
 10 14  1  0  0  0  0
 11 12  1  0  0  0  0
 11 24  1  0  0  0  0
 11 26  1  0  0  0  0
 12 13  2  0  0  0  0
 14 15  2  0  0  0  0
 14 19  1  0  0  0  0
 15 16  1  0  0  0  0
 16 17  2  0  0  0  0
 16 20  1  0  0  0  0
 17 18  1  0  0  0  0
 17 22  1  0  0  0  0
 18 19  2  0  0  0  0
 20 21  2  0  0  0  0
 21 22  1  0  0  0  0
 22 23  1  0  0  0  0
 24 25  1  0  0  0  0
 25 26  1  0  0  0  0
 25 27  1  0  0  0  0
  1 28  1  0  0  0  0
  2 29  1  0  0  0  0
  3 30  1  0  0  0  0
  4 31  1  0  0  0  0
 10 32  1  0  0  0  0
 10 33  1  0  0  0  0
 15 34  1  0  0  0  0
 18 35  1  0  0  0  0
 19 36  1  0  0  0  0
 20 37  1  0  0  0  0
 23 38  1  0  0  0  0
 23 39  1  0  0  0  0
 23 40  1  0  0  0  0
 24 41  1  0  0  0  0
 24 42  1  0  0  0  0
 25 43  1  0  0  0  0
 26 44  1  0  0  0  0
 26 45  1  0  0  0  0
 27 46  1  0  0  0  0
M  END
> <Name>
44

> <IC50[uM]>
0.004

$$$$
44
  -OEChem-05192314333D
 Structure written by MMmdl.
 46 50  0     1  0  0  0  0  0999 V2000
   -6.3932   12.3500  -12.0125 C   0  0  0  0  0  0  0  0  0  0  0  0
   -6.5644   11.7828  -10.7394 C   0  0  0  0  0  0  0  0  0  0  0  0
   -7.7358   10.5711  -13.0331 C   0  0  0  0  0  0  0  0  0  0  0  0
   -6.9954   11.7572  -13.1322 C   0  0  0  0  0  0  0  0  0  0  0  0
   -7.8242    9.9989  -11.7591 C   0  0  0  0  0  0  0  0  0  0  0  0
   -7.2585   10.6059  -10.6150 C   0  0  3  0  0  0  0  0  0  0  0  0
   -7.6168    9.7386   -9.5213 C   0  0  0  0  0  0  0  0  0  0  0  0
   -8.2709    8.7166   -9.9884 N   0  0  0  0  0  0  0  0  0  0  0  0
   -8.4108    8.8490  -11.3012 N   0  0  0  0  0  0  0  0  0  0  0  0
   -7.3306    9.8912   -8.0312 C   0  0  0  0  0  0  0  0  0  0  0  0
   -4.5413   13.8555  -11.3648 N   0  0  0  0  0  0  0  0  0  0  0  0
   -5.5934   13.6525  -12.1835 C   0  0  0  0  0  0  0  0  0  0  0  0
   -5.9232   14.4812  -13.0224 O   0  0  0  0  0  0  0  0  0  0  0  0
   -5.9508   10.4991   -7.7310 C   0  0  0  0  0  0  0  0  0  0  0  0
   -5.8673   11.7672   -7.1520 C   0  0  0  0  0  0  0  0  0  0  0  0
   -4.6035   12.3102   -6.9134 C   0  0  0  0  0  0  0  0  0  0  0  0
   -3.4392   11.5630   -7.2455 C   0  0  0  0  0  0  0  0  0  0  0  0
   -3.5146   10.2834   -7.8141 C   0  0  0  0  0  0  0  0  0  0  0  0
   -4.7998    9.7761   -8.0492 C   0  0  0  0  0  0  0  0  0  0  0  0
   -4.0885   13.5395   -6.3720 C   0  0  0  0  0  0  0  0  0  0  0  0
   -2.7847   13.5343   -6.3770 N   0  0  0  0  0  0  0  0  0  0  0  0
   -2.3791   12.3751   -6.8806 N   0  0  0  0  0  0  0  0  0  0  0  0
   -0.9494   12.1118   -6.9818 C   0  0  0  0  0  0  0  0  0  0  0  0
   -3.7091   15.0460  -11.2252 C   0  0  0  0  0  0  0  0  0  0  0  0
   -3.1570   14.3608   -9.9755 C   0  0  0  0  0  0  0  0  0  0  0  0
   -4.1684   13.2423  -10.1016 C   0  0  0  0  0  0  0  0  0  0  0  0
   -1.8246   13.9322  -10.0585 O   0  0  0  0  0  0  0  0  0  0  0  0
   -6.1536   12.2683   -9.8665 H   0  0  0  0  0  0  0  0  0  0  0  0
   -8.2120   10.1234  -13.8929 H   0  0  0  0  0  0  0  0  0  0  0  0
   -6.8855   12.2280  -14.0979 H   0  0  0  0  0  0  0  0  0  0  0  0
   -6.3295   10.0369  -10.7673 H   0  0  0  0  0  0  0  0  0  0  0  0
   -8.1010   10.5432   -7.5937 H   0  0  0  0  0  0  0  0  0  0  0  0
   -7.3824    8.8971   -7.5631 H   0  0  0  0  0  0  0  0  0  0  0  0
   -6.7611   12.3160   -6.8944 H   0  0  0  0  0  0  0  0  0  0  0  0
   -2.6276    9.7177   -8.0584 H   0  0  0  0  0  0  0  0  0  0  0  0
   -4.9028    8.7956   -8.4901 H   0  0  0  0  0  0  0  0  0  0  0  0
   -4.6981   14.3547   -6.0110 H   0  0  0  0  0  0  0  0  0  0  0  0
   -0.3887   12.9766   -6.5976 H   0  0  0  0  0  0  0  0  0  0  0  0
   -0.6982   11.2196   -6.3895 H   0  0  0  0  0  0  0  0  0  0  0  0
   -0.6820   11.9401   -8.0349 H   0  0  0  0  0  0  0  0  0  0  0  0
   -2.9790   15.2028  -12.0329 H   0  0  0  0  0  0  0  0  0  0  0  0
   -4.2586   15.9809  -11.0410 H   0  0  0  0  0  0  0  0  0  0  0  0
   -3.3524   14.9686   -9.0797 H   0  0  0  0  0  0  0  0  0  0  0  0
   -4.9575   13.2416   -9.3352 H   0  0  0  0  0  0  0  0  0  0  0  0
   -3.7371   12.2338  -10.1847 H   0  0  0  0  0  0  0  0  0  0  0  0
   -1.5721   13.5212   -9.2401 H   0  0  0  0  0  0  0  0  0  0  0  0
  1  2  2  0  0  0  0
  1  4  1  0  0  0  0
  1 12  1  0  0  0  0
  2  6  1  0  0  0  0
  3  4  2  0  0  0  0
  3  5  1  0  0  0  0
  5  6  1  0  0  0  0
  5  9  2  0  0  0  0
  6  7  1  0  0  0  0
  7  8  2  0  0  0  0
  7 10  1  0  0  0  0
  8  9  1  0  0  0  0
 10 14  1  0  0  0  0
 11 12  1  0  0  0  0
 11 24  1  0  0  0  0
 11 26  1  0  0  0  0
 12 13  2  0  0  0  0
 14 15  2  0  0  0  0
 14 19  1  0  0  0  0
 15 16  1  0  0  0  0
 16 17  2  0  0  0  0
 16 20  1  0  0  0  0
 17 18  1  0  0  0  0
 17 22  1  0  0  0  0
 18 19  2  0  0  0  0
 20 21  2  0  0  0  0
 21 22  1  0  0  0  0
 22 23  1  0  0  0  0
 24 25  1  0  0  0  0
 25 26  1  0  0  0  0
 25 27  1  0  0  0  0
  2 28  1  0  0  0  0
  3 29  1  0  0  0  0
  4 30  1  0  0  0  0
  6 31  1  0  0  0  0
 10 32  1  0  0  0  0
 10 33  1  0  0  0  0
 15 34  1  0  0  0  0
 18 35  1  0  0  0  0
 19 36  1  0  0  0  0
 20 37  1  0  0  0  0
 23 38  1  0  0  0  0
 23 39  1  0  0  0  0
 23 40  1  0  0  0  0
 24 41  1  0  0  0  0
 24 42  1  0  0  0  0
 25 43  1  0  0  0  0
 26 44  1  0  0  0  0
 26 45  1  0  0  0  0
 27 46  1  0  0  0  0
M  END
> <Name>
44

> <IC50[uM]>
0.004

$$$$
44
  -OEChem-05192314333D
 Structure written by MMmdl.
 46 50  0     0  0  0  0  0  0999 V2000
   -6.3932   12.3500  -12.0125 C   0  0  0  0  0  0  0  0  0  0  0  0
   -6.5644   11.7828  -10.7394 C   0  0  0  0  0  0  0  0  0  0  0  0
   -7.7358   10.5711  -13.0331 C   0  0  0  0  0  0  0  0  0  0  0  0
   -6.9954   11.7572  -13.1322 C   0  0  0  0  0  0  0  0  0  0  0  0
   -7.8242    9.9989  -11.7591 C   0  0  0  0  0  0  0  0  0  0  0  0
   -7.2585   10.6059  -10.6150 C   0  0  0  0  0  0  0  0  0  0  0  0
   -7.6168    9.7386   -9.5213 C   0  0  0  0  0  0  0  0  0  0  0  0
   -8.2709    8.7166   -9.9884 N   0  0  0  0  0  0  0  0  0  0  0  0
   -8.4108    8.8490  -11.3012 N   0  0  0  0  0  0  0  0  0  0  0  0
   -7.3306    9.8912   -8.0312 C   0  0  0  0  0  0  0  0  0  0  0  0
   -4.5413   13.8555  -11.3648 N   0  0  0  0  0  0  0  0  0  0  0  0
   -5.5934   13.6525  -12.1835 C   0  0  0  0  0  0  0  0  0  0  0  0
   -5.9232   14.4812  -13.0224 O   0  0  0  0  0  0  0  0  0  0  0  0
   -5.9508   10.4991   -7.7310 C   0  0  0  0  0  0  0  0  0  0  0  0
   -5.8673   11.7672   -7.1520 C   0  0  0  0  0  0  0  0  0  0  0  0
   -4.6035   12.3102   -6.9134 C   0  0  0  0  0  0  0  0  0  0  0  0
   -3.4392   11.5630   -7.2455 C   0  0  0  0  0  0  0  0  0  0  0  0
   -3.5146   10.2834   -7.8141 C   0  0  0  0  0  0  0  0  0  0  0  0
   -4.7998    9.7761   -8.0492 C   0  0  0  0  0  0  0  0  0  0  0  0
   -4.0885   13.5395   -6.3720 C   0  0  0  0  0  0  0  0  0  0  0  0
   -2.7847   13.5343   -6.3770 N   0  0  0  0  0  0  0  0  0  0  0  0
   -2.3791   12.3751   -6.8806 N   0  0  0  0  0  0  0  0  0  0  0  0
   -0.9494   12.1118   -6.9818 C   0  0  0  0  0  0  0  0  0  0  0  0
   -3.7091   15.0460  -11.2252 C   0  0  0  0  0  0  0  0  0  0  0  0
   -3.1570   14.3608   -9.9755 C   0  0  0  0  0  0  0  0  0  0  0  0
   -4.1684   13.2423  -10.1016 C   0  0  0  0  0  0  0  0  0  0  0  0
   -1.8246   13.9322  -10.0585 O   0  0  0  0  0  0  0  0  0  0  0  0
   -6.1536   12.2683   -9.8665 H   0  0  0  0  0  0  0  0  0  0  0  0
   -8.7589   10.7853  -13.3758 H   0  0  0  0  0  0  0  0  0  0  0  0
   -7.2727    9.8304  -13.7016 H   0  0  0  0  0  0  0  0  0  0  0  0
   -6.8855   12.2280  -14.0979 H   0  0  0  0  0  0  0  0  0  0  0  0
   -8.1010   10.5432   -7.5937 H   0  0  0  0  0  0  0  0  0  0  0  0
   -7.3824    8.8971   -7.5631 H   0  0  0  0  0  0  0  0  0  0  0  0
   -6.7611   12.3160   -6.8944 H   0  0  0  0  0  0  0  0  0  0  0  0
   -2.6276    9.7177   -8.0584 H   0  0  0  0  0  0  0  0  0  0  0  0
   -4.9028    8.7956   -8.4901 H   0  0  0  0  0  0  0  0  0  0  0  0
   -4.6981   14.3547   -6.0110 H   0  0  0  0  0  0  0  0  0  0  0  0
   -0.3887   12.9766   -6.5976 H   0  0  0  0  0  0  0  0  0  0  0  0
   -0.6982   11.2196   -6.3895 H   0  0  0  0  0  0  0  0  0  0  0  0
   -0.6820   11.9401   -8.0349 H   0  0  0  0  0  0  0  0  0  0  0  0
   -2.9790   15.2028  -12.0329 H   0  0  0  0  0  0  0  0  0  0  0  0
   -4.2586   15.9809  -11.0410 H   0  0  0  0  0  0  0  0  0  0  0  0
   -3.3524   14.9686   -9.0797 H   0  0  0  0  0  0  0  0  0  0  0  0
   -4.9575   13.2416   -9.3352 H   0  0  0  0  0  0  0  0  0  0  0  0
   -3.7371   12.2338  -10.1847 H   0  0  0  0  0  0  0  0  0  0  0  0
   -1.5721   13.5212   -9.2401 H   0  0  0  0  0  0  0  0  0  0  0  0
  1  2  1  0  0  0  0
  1  4  2  0  0  0  0
  1 12  1  0  0  0  0
  2  6  2  0  0  0  0
  3  4  1  0  0  0  0
  3  5  1  0  0  0  0
  5  6  1  0  0  0  0
  5  9  2  0  0  0  0
  6  7  1  0  0  0  0
  7  8  2  0  0  0  0
  7 10  1  0  0  0  0
  8  9  1  0  0  0  0
 10 14  1  0  0  0  0
 11 12  1  0  0  0  0
 11 24  1  0  0  0  0
 11 26  1  0  0  0  0
 12 13  2  0  0  0  0
 14 15  2  0  0  0  0
 14 19  1  0  0  0  0
 15 16  1  0  0  0  0
 16 17  2  0  0  0  0
 16 20  1  0  0  0  0
 17 18  1  0  0  0  0
 17 22  1  0  0  0  0
 18 19  2  0  0  0  0
 20 21  2  0  0  0  0
 21 22  1  0  0  0  0
 22 23  1  0  0  0  0
 24 25  1  0  0  0  0
 25 26  1  0  0  0  0
 25 27  1  0  0  0  0
  2 28  1  0  0  0  0
  3 29  1  0  0  0  0
  3 30  1  0  0  0  0
  4 31  1  0  0  0  0
 10 32  1  0  0  0  0
 10 33  1  0  0  0  0
 15 34  1  0  0  0  0
 18 35  1  0  0  0  0
 19 36  1  0  0  0  0
 20 37  1  0  0  0  0
 23 38  1  0  0  0  0
 23 39  1  0  0  0  0
 23 40  1  0  0  0  0
 24 41  1  0  0  0  0
 24 42  1  0  0  0  0
 25 43  1  0  0  0  0
 26 44  1  0  0  0  0
 26 45  1  0  0  0  0
 27 46  1  0  0  0  0
M  END
> <Name>
44

> <IC50[uM]>
0.004

$$$$
44
  -OEChem-05192314333D
 Structure written by MMmdl.
 46 50  0     1  0  0  0  0  0999 V2000
   -6.3932   12.3500  -12.0125 C   0  0  3  0  0  0  0  0  0  0  0  0
   -6.5644   11.7828  -10.7394 C   0  0  0  0  0  0  0  0  0  0  0  0
   -7.7358   10.5711  -13.0331 C   0  0  0  0  0  0  0  0  0  0  0  0
   -6.9954   11.7572  -13.1322 C   0  0  0  0  0  0  0  0  0  0  0  0
   -7.8242    9.9989  -11.7591 C   0  0  3  0  0  0  0  0  0  0  0  0
   -7.2585   10.6059  -10.6150 C   0  0  0  0  0  0  0  0  0  0  0  0
   -7.6168    9.7386   -9.5213 C   0  0  0  0  0  0  0  0  0  0  0  0
   -8.2709    8.7166   -9.9884 N   0  0  0  0  0  0  0  0  0  0  0  0
   -8.4108    8.8490  -11.3012 N   0  0  0  0  0  0  0  0  0  0  0  0
   -7.3306    9.8912   -8.0312 C   0  0  0  0  0  0  0  0  0  0  0  0
   -4.5413   13.8555  -11.3648 N   0  0  0  0  0  0  0  0  0  0  0  0
   -5.5934   13.6525  -12.1835 C   0  0  0  0  0  0  0  0  0  0  0  0
   -5.9232   14.4812  -13.0224 O   0  0  0  0  0  0  0  0  0  0  0  0
   -5.9508   10.4991   -7.7310 C   0  0  0  0  0  0  0  0  0  0  0  0
   -5.8673   11.7672   -7.1520 C   0  0  0  0  0  0  0  0  0  0  0  0
   -4.6035   12.3102   -6.9134 C   0  0  0  0  0  0  0  0  0  0  0  0
   -3.4392   11.5630   -7.2455 C   0  0  0  0  0  0  0  0  0  0  0  0
   -3.5146   10.2834   -7.8141 C   0  0  0  0  0  0  0  0  0  0  0  0
   -4.7998    9.7761   -8.0492 C   0  0  0  0  0  0  0  0  0  0  0  0
   -4.0885   13.5395   -6.3720 C   0  0  0  0  0  0  0  0  0  0  0  0
   -2.7847   13.5343   -6.3770 N   0  0  0  0  0  0  0  0  0  0  0  0
   -2.3791   12.3751   -6.8806 N   0  0  0  0  0  0  0  0  0  0  0  0
   -0.9494   12.1118   -6.9818 C   0  0  0  0  0  0  0  0  0  0  0  0
   -3.7091   15.0460  -11.2252 C   0  0  0  0  0  0  0  0  0  0  0  0
   -3.1570   14.3608   -9.9755 C   0  0  0  0  0  0  0  0  0  0  0  0
   -4.1684   13.2423  -10.1016 C   0  0  0  0  0  0  0  0  0  0  0  0
   -1.8246   13.9322  -10.0585 O   0  0  0  0  0  0  0  0  0  0  0  0
   -5.4817   11.7548  -12.1703 H   0  0  0  0  0  0  0  0  0  0  0  0
   -6.1536   12.2683   -9.8665 H   0  0  0  0  0  0  0  0  0  0  0  0
   -8.2120   10.1234  -13.8929 H   0  0  0  0  0  0  0  0  0  0  0  0
   -6.8855   12.2280  -14.0979 H   0  0  0  0  0  0  0  0  0  0  0  0
   -6.8859    9.4528  -11.9364 H   0  0  0  0  0  0  0  0  0  0  0  0
   -8.0297    9.6003   -7.2611 H   0  0  0  0  0  0  0  0  0  0  0  0
   -6.7611   12.3160   -6.8944 H   0  0  0  0  0  0  0  0  0  0  0  0
   -2.6276    9.7177   -8.0584 H   0  0  0  0  0  0  0  0  0  0  0  0
   -4.9028    8.7956   -8.4901 H   0  0  0  0  0  0  0  0  0  0  0  0
   -4.6981   14.3547   -6.0110 H   0  0  0  0  0  0  0  0  0  0  0  0
   -0.3887   12.9766   -6.5976 H   0  0  0  0  0  0  0  0  0  0  0  0
   -0.6982   11.2196   -6.3895 H   0  0  0  0  0  0  0  0  0  0  0  0
   -0.6820   11.9401   -8.0349 H   0  0  0  0  0  0  0  0  0  0  0  0
   -2.9790   15.2028  -12.0329 H   0  0  0  0  0  0  0  0  0  0  0  0
   -4.2586   15.9809  -11.0410 H   0  0  0  0  0  0  0  0  0  0  0  0
   -3.3524   14.9686   -9.0797 H   0  0  0  0  0  0  0  0  0  0  0  0
   -4.9575   13.2416   -9.3352 H   0  0  0  0  0  0  0  0  0  0  0  0
   -3.7371   12.2338  -10.1847 H   0  0  0  0  0  0  0  0  0  0  0  0
   -1.5721   13.5212   -9.2401 H   0  0  0  0  0  0  0  0  0  0  0  0
  1  2  1  0  0  0  0
  1  4  1  0  0  0  0
  1 12  1  0  0  0  0
  2  6  2  0  0  0  0
  3  4  2  0  0  0  0
  3  5  1  0  0  0  0
  5  6  1  0  0  0  0
  5  9  1  0  0  0  0
  6  7  1  0  0  0  0
  7  8  1  0  0  0  0
  7 10  2  3  0  0  0
  8  9  2  0  0  0  0
 10 14  1  0  0  0  0
 11 12  1  0  0  0  0
 11 24  1  0  0  0  0
 11 26  1  0  0  0  0
 12 13  2  0  0  0  0
 14 15  2  0  0  0  0
 14 19  1  0  0  0  0
 15 16  1  0  0  0  0
 16 17  2  0  0  0  0
 16 20  1  0  0  0  0
 17 18  1  0  0  0  0
 17 22  1  0  0  0  0
 18 19  2  0  0  0  0
 20 21  2  0  0  0  0
 21 22  1  0  0  0  0
 22 23  1  0  0  0  0
 24 25  1  0  0  0  0
 25 26  1  0  0  0  0
 25 27  1  0  0  0  0
  1 28  1  0  0  0  0
  2 29  1  0  0  0  0
  3 30  1  0  0  0  0
  4 31  1  0  0  0  0
  5 32  1  0  0  0  0
 10 33  1  0  0  0  0
 15 34  1  0  0  0  0
 18 35  1  0  0  0  0
 19 36  1  0  0  0  0
 20 37  1  0  0  0  0
 23 38  1  0  0  0  0
 23 39  1  0  0  0  0
 23 40  1  0  0  0  0
 24 41  1  0  0  0  0
 24 42  1  0  0  0  0
 25 43  1  0  0  0  0
 26 44  1  0  0  0  0
 26 45  1  0  0  0  0
 27 46  1  0  0  0  0
M  END
> <Name>
44

> <IC50[uM]>
0.004

$$$$
44
  -OEChem-05192314333D
 Structure written by MMmdl.
 46 50  0     1  0  0  0  0  0999 V2000
   -6.3932   12.3500  -12.0125 C   0  0  0  0  0  0  0  0  0  0  0  0
   -6.5644   11.7828  -10.7394 C   0  0  0  0  0  0  0  0  0  0  0  0
   -7.7358   10.5711  -13.0331 C   0  0  0  0  0  0  0  0  0  0  0  0
   -6.9954   11.7572  -13.1322 C   0  0  0  0  0  0  0  0  0  0  0  0
   -7.8242    9.9989  -11.7591 C   0  0  3  0  0  0  0  0  0  0  0  0
   -7.2585   10.6059  -10.6150 C   0  0  3  0  0  0  0  0  0  0  0  0
   -7.6168    9.7386   -9.5213 C   0  0  0  0  0  0  0  0  0  0  0  0
   -8.2709    8.7166   -9.9884 N   0  0  0  0  0  0  0  0  0  0  0  0
   -8.4108    8.8490  -11.3012 N   0  0  0  0  0  0  0  0  0  0  0  0
   -7.3306    9.8912   -8.0312 C   0  0  0  0  0  0  0  0  0  0  0  0
   -4.5413   13.8555  -11.3648 N   0  0  0  0  0  0  0  0  0  0  0  0
   -5.5934   13.6525  -12.1835 C   0  0  0  0  0  0  0  0  0  0  0  0
   -5.9232   14.4812  -13.0224 O   0  0  0  0  0  0  0  0  0  0  0  0
   -5.9508   10.4991   -7.7310 C   0  0  0  0  0  0  0  0  0  0  0  0
   -5.8673   11.7672   -7.1520 C   0  0  0  0  0  0  0  0  0  0  0  0
   -4.6035   12.3102   -6.9134 C   0  0  0  0  0  0  0  0  0  0  0  0
   -3.4392   11.5630   -7.2455 C   0  0  0  0  0  0  0  0  0  0  0  0
   -3.5146   10.2834   -7.8141 C   0  0  0  0  0  0  0  0  0  0  0  0
   -4.7998    9.7761   -8.0492 C   0  0  0  0  0  0  0  0  0  0  0  0
   -4.0885   13.5395   -6.3720 C   0  0  0  0  0  0  0  0  0  0  0  0
   -2.7847   13.5343   -6.3770 N   0  0  0  0  0  0  0  0  0  0  0  0
   -2.3791   12.3751   -6.8806 N   0  0  0  0  0  0  0  0  0  0  0  0
   -0.9494   12.1118   -6.9818 C   0  0  0  0  0  0  0  0  0  0  0  0
   -3.7091   15.0460  -11.2252 C   0  0  0  0  0  0  0  0  0  0  0  0
   -3.1570   14.3608   -9.9755 C   0  0  0  0  0  0  0  0  0  0  0  0
   -4.1684   13.2423  -10.1016 C   0  0  0  0  0  0  0  0  0  0  0  0
   -1.8246   13.9322  -10.0585 O   0  0  0  0  0  0  0  0  0  0  0  0
   -6.1536   12.2683   -9.8665 H   0  0  0  0  0  0  0  0  0  0  0  0
   -8.2120   10.1234  -13.8929 H   0  0  0  0  0  0  0  0  0  0  0  0
   -6.8855   12.2280  -14.0979 H   0  0  0  0  0  0  0  0  0  0  0  0
   -6.8859    9.4528  -11.9364 H   0  0  0  0  0  0  0  0  0  0  0  0
   -6.3295   10.0369  -10.7673 H   0  0  0  0  0  0  0  0  0  0  0  0
   -8.0297    9.6003   -7.2611 H   0  0  0  0  0  0  0  0  0  0  0  0
   -6.7611   12.3160   -6.8944 H   0  0  0  0  0  0  0  0  0  0  0  0
   -2.6276    9.7177   -8.0584 H   0  0  0  0  0  0  0  0  0  0  0  0
   -4.9028    8.7956   -8.4901 H   0  0  0  0  0  0  0  0  0  0  0  0
   -4.6981   14.3547   -6.0110 H   0  0  0  0  0  0  0  0  0  0  0  0
   -0.3887   12.9766   -6.5976 H   0  0  0  0  0  0  0  0  0  0  0  0
   -0.6982   11.2196   -6.3895 H   0  0  0  0  0  0  0  0  0  0  0  0
   -0.6820   11.9401   -8.0349 H   0  0  0  0  0  0  0  0  0  0  0  0
   -2.9790   15.2028  -12.0329 H   0  0  0  0  0  0  0  0  0  0  0  0
   -4.2586   15.9809  -11.0410 H   0  0  0  0  0  0  0  0  0  0  0  0
   -3.3524   14.9686   -9.0797 H   0  0  0  0  0  0  0  0  0  0  0  0
   -4.9575   13.2416   -9.3352 H   0  0  0  0  0  0  0  0  0  0  0  0
   -3.7371   12.2338  -10.1847 H   0  0  0  0  0  0  0  0  0  0  0  0
   -1.5721   13.5212   -9.2401 H   0  0  0  0  0  0  0  0  0  0  0  0
  1  2  2  0  0  0  0
  1  4  1  0  0  0  0
  1 12  1  0  0  0  0
  2  6  1  0  0  0  0
  3  4  2  0  0  0  0
  3  5  1  0  0  0  0
  5  6  1  0  0  0  0
  5  9  1  0  0  0  0
  6  7  1  0  0  0  0
  7  8  1  0  0  0  0
  7 10  2  3  0  0  0
  8  9  2  0  0  0  0
 10 14  1  0  0  0  0
 11 12  1  0  0  0  0
 11 24  1  0  0  0  0
 11 26  1  0  0  0  0
 12 13  2  0  0  0  0
 14 15  2  0  0  0  0
 14 19  1  0  0  0  0
 15 16  1  0  0  0  0
 16 17  2  0  0  0  0
 16 20  1  0  0  0  0
 17 18  1  0  0  0  0
 17 22  1  0  0  0  0
 18 19  2  0  0  0  0
 20 21  2  0  0  0  0
 21 22  1  0  0  0  0
 22 23  1  0  0  0  0
 24 25  1  0  0  0  0
 25 26  1  0  0  0  0
 25 27  1  0  0  0  0
  2 28  1  0  0  0  0
  3 29  1  0  0  0  0
  4 30  1  0  0  0  0
  5 31  1  0  0  0  0
  6 32  1  0  0  0  0
 10 33  1  0  0  0  0
 15 34  1  0  0  0  0
 18 35  1  0  0  0  0
 19 36  1  0  0  0  0
 20 37  1  0  0  0  0
 23 38  1  0  0  0  0
 23 39  1  0  0  0  0
 23 40  1  0  0  0  0
 24 41  1  0  0  0  0
 24 42  1  0  0  0  0
 25 43  1  0  0  0  0
 26 44  1  0  0  0  0
 26 45  1  0  0  0  0
 27 46  1  0  0  0  0
M  END
> <Name>
44

> <IC50[uM]>
0.004

$$$$
44
  -OEChem-05192314333D
 Structure written by MMmdl.
 46 50  0     1  0  0  0  0  0999 V2000
   -6.3932   12.3500  -12.0125 C   0  0  0  0  0  0  0  0  0  0  0  0
   -6.5644   11.7828  -10.7394 C   0  0  0  0  0  0  0  0  0  0  0  0
   -7.7358   10.5711  -13.0331 C   0  0  0  0  0  0  0  0  0  0  0  0
   -6.9954   11.7572  -13.1322 C   0  0  0  0  0  0  0  0  0  0  0  0
   -7.8242    9.9989  -11.7591 C   0  0  3  0  0  0  0  0  0  0  0  0
   -7.2585   10.6059  -10.6150 C   0  0  0  0  0  0  0  0  0  0  0  0
   -7.6168    9.7386   -9.5213 C   0  0  0  0  0  0  0  0  0  0  0  0
   -8.2709    8.7166   -9.9884 N   0  0  0  0  0  0  0  0  0  0  0  0
   -8.4108    8.8490  -11.3012 N   0  0  0  0  0  0  0  0  0  0  0  0
   -7.3306    9.8912   -8.0312 C   0  0  0  0  0  0  0  0  0  0  0  0
   -4.5413   13.8555  -11.3648 N   0  0  0  0  0  0  0  0  0  0  0  0
   -5.5934   13.6525  -12.1835 C   0  0  0  0  0  0  0  0  0  0  0  0
   -5.9232   14.4812  -13.0224 O   0  0  0  0  0  0  0  0  0  0  0  0
   -5.9508   10.4991   -7.7310 C   0  0  0  0  0  0  0  0  0  0  0  0
   -5.8673   11.7672   -7.1520 C   0  0  0  0  0  0  0  0  0  0  0  0
   -4.6035   12.3102   -6.9134 C   0  0  0  0  0  0  0  0  0  0  0  0
   -3.4392   11.5630   -7.2455 C   0  0  0  0  0  0  0  0  0  0  0  0
   -3.5146   10.2834   -7.8141 C   0  0  0  0  0  0  0  0  0  0  0  0
   -4.7998    9.7761   -8.0492 C   0  0  0  0  0  0  0  0  0  0  0  0
   -4.0885   13.5395   -6.3720 C   0  0  0  0  0  0  0  0  0  0  0  0
   -2.7847   13.5343   -6.3770 N   0  0  0  0  0  0  0  0  0  0  0  0
   -2.3791   12.3751   -6.8806 N   0  0  0  0  0  0  0  0  0  0  0  0
   -0.9494   12.1118   -6.9818 C   0  0  0  0  0  0  0  0  0  0  0  0
   -3.7091   15.0460  -11.2252 C   0  0  0  0  0  0  0  0  0  0  0  0
   -3.1570   14.3608   -9.9755 C   0  0  0  0  0  0  0  0  0  0  0  0
   -4.1684   13.2423  -10.1016 C   0  0  0  0  0  0  0  0  0  0  0  0
   -1.8246   13.9322  -10.0585 O   0  0  0  0  0  0  0  0  0  0  0  0
   -6.1536   12.2683   -9.8665 H   0  0  0  0  0  0  0  0  0  0  0  0
   -8.7589   10.7853  -13.3758 H   0  0  0  0  0  0  0  0  0  0  0  0
   -7.2727    9.8304  -13.7016 H   0  0  0  0  0  0  0  0  0  0  0  0
   -6.8855   12.2280  -14.0979 H   0  0  0  0  0  0  0  0  0  0  0  0
   -6.8859    9.4528  -11.9364 H   0  0  0  0  0  0  0  0  0  0  0  0
   -8.0297    9.6003   -7.2611 H   0  0  0  0  0  0  0  0  0  0  0  0
   -6.7611   12.3160   -6.8944 H   0  0  0  0  0  0  0  0  0  0  0  0
   -2.6276    9.7177   -8.0584 H   0  0  0  0  0  0  0  0  0  0  0  0
   -4.9028    8.7956   -8.4901 H   0  0  0  0  0  0  0  0  0  0  0  0
   -4.6981   14.3547   -6.0110 H   0  0  0  0  0  0  0  0  0  0  0  0
   -0.3887   12.9766   -6.5976 H   0  0  0  0  0  0  0  0  0  0  0  0
   -0.6982   11.2196   -6.3895 H   0  0  0  0  0  0  0  0  0  0  0  0
   -0.6820   11.9401   -8.0349 H   0  0  0  0  0  0  0  0  0  0  0  0
   -2.9790   15.2028  -12.0329 H   0  0  0  0  0  0  0  0  0  0  0  0
   -4.2586   15.9809  -11.0410 H   0  0  0  0  0  0  0  0  0  0  0  0
   -3.3524   14.9686   -9.0797 H   0  0  0  0  0  0  0  0  0  0  0  0
   -4.9575   13.2416   -9.3352 H   0  0  0  0  0  0  0  0  0  0  0  0
   -3.7371   12.2338  -10.1847 H   0  0  0  0  0  0  0  0  0  0  0  0
   -1.5721   13.5212   -9.2401 H   0  0  0  0  0  0  0  0  0  0  0  0
  1  2  1  0  0  0  0
  1  4  2  0  0  0  0
  1 12  1  0  0  0  0
  2  6  2  0  0  0  0
  3  4  1  0  0  0  0
  3  5  1  0  0  0  0
  5  6  1  0  0  0  0
  5  9  1  0  0  0  0
  6  7  1  0  0  0  0
  7  8  1  0  0  0  0
  7 10  2  3  0  0  0
  8  9  2  0  0  0  0
 10 14  1  0  0  0  0
 11 12  1  0  0  0  0
 11 24  1  0  0  0  0
 11 26  1  0  0  0  0
 12 13  2  0  0  0  0
 14 15  2  0  0  0  0
 14 19  1  0  0  0  0
 15 16  1  0  0  0  0
 16 17  2  0  0  0  0
 16 20  1  0  0  0  0
 17 18  1  0  0  0  0
 17 22  1  0  0  0  0
 18 19  2  0  0  0  0
 20 21  2  0  0  0  0
 21 22  1  0  0  0  0
 22 23  1  0  0  0  0
 24 25  1  0  0  0  0
 25 26  1  0  0  0  0
 25 27  1  0  0  0  0
  2 28  1  0  0  0  0
  3 29  1  0  0  0  0
  3 30  1  0  0  0  0
  4 31  1  0  0  0  0
  5 32  1  0  0  0  0
 10 33  1  0  0  0  0
 15 34  1  0  0  0  0
 18 35  1  0  0  0  0
 19 36  1  0  0  0  0
 20 37  1  0  0  0  0
 23 38  1  0  0  0  0
 23 39  1  0  0  0  0
 23 40  1  0  0  0  0
 24 41  1  0  0  0  0
 24 42  1  0  0  0  0
 25 43  1  0  0  0  0
 26 44  1  0  0  0  0
 26 45  1  0  0  0  0
 27 46  1  0  0  0  0
M  END
> <Name>
44

> <IC50[uM]>
0.004

$$$$
44
  -OEChem-05192314333D
 Structure written by MMmdl.
 46 50  0     1  0  0  0  0  0999 V2000
   -6.3932   12.3500  -12.0125 C   0  0  3  0  0  0  0  0  0  0  0  0
   -6.5644   11.7828  -10.7394 C   0  0  0  0  0  0  0  0  0  0  0  0
   -7.7358   10.5711  -13.0331 C   0  0  0  0  0  0  0  0  0  0  0  0
   -6.9954   11.7572  -13.1322 C   0  0  0  0  0  0  0  0  0  0  0  0
   -7.8242    9.9989  -11.7591 C   0  0  0  0  0  0  0  0  0  0  0  0
   -7.2585   10.6059  -10.6150 C   0  0  0  0  0  0  0  0  0  0  0  0
   -7.6168    9.7386   -9.5213 C   0  0  0  0  0  0  0  0  0  0  0  0
   -8.2709    8.7166   -9.9884 N   0  0  0  0  0  0  0  0  0  0  0  0
   -8.4108    8.8490  -11.3012 N   0  0  0  0  0  0  0  0  0  0  0  0
   -7.3306    9.8912   -8.0312 C   0  0  0  0  0  0  0  0  0  0  0  0
   -4.5413   13.8555  -11.3648 N   0  0  0  0  0  0  0  0  0  0  0  0
   -5.5934   13.6525  -12.1835 C   0  0  0  0  0  0  0  0  0  0  0  0
   -5.9232   14.4812  -13.0224 O   0  0  0  0  0  0  0  0  0  0  0  0
   -5.9508   10.4991   -7.7310 C   0  0  0  0  0  0  0  0  0  0  0  0
   -5.8673   11.7672   -7.1520 C   0  0  0  0  0  0  0  0  0  0  0  0
   -4.6035   12.3102   -6.9134 C   0  0  0  0  0  0  0  0  0  0  0  0
   -3.4392   11.5630   -7.2455 C   0  0  0  0  0  0  0  0  0  0  0  0
   -3.5146   10.2834   -7.8141 C   0  0  0  0  0  0  0  0  0  0  0  0
   -4.7998    9.7761   -8.0492 C   0  0  0  0  0  0  0  0  0  0  0  0
   -4.0885   13.5395   -6.3720 C   0  0  0  0  0  0  0  0  0  0  0  0
   -2.7847   13.5343   -6.3770 N   0  0  0  0  0  0  0  0  0  0  0  0
   -2.3791   12.3751   -6.8806 N   0  0  0  0  0  0  0  0  0  0  0  0
   -0.9494   12.1118   -6.9818 C   0  0  0  0  0  0  0  0  0  0  0  0
   -3.7091   15.0460  -11.2252 C   0  0  0  0  0  0  0  0  0  0  0  0
   -3.1570   14.3608   -9.9755 C   0  0  0  0  0  0  0  0  0  0  0  0
   -4.1684   13.2423  -10.1016 C   0  0  0  0  0  0  0  0  0  0  0  0
   -1.8246   13.9322  -10.0585 O   0  0  0  0  0  0  0  0  0  0  0  0
   -5.4817   11.7548  -12.1703 H   0  0  0  0  0  0  0  0  0  0  0  0
   -6.1536   12.2683   -9.8665 H   0  0  0  0  0  0  0  0  0  0  0  0
   -8.2120   10.1234  -13.8929 H   0  0  0  0  0  0  0  0  0  0  0  0
   -7.6766   12.5120  -13.5520 H   0  0  0  0  0  0  0  0  0  0  0  0
   -6.1849   11.5561  -13.8482 H   0  0  0  0  0  0  0  0  0  0  0  0
   -8.0297    9.6003   -7.2611 H   0  0  0  0  0  0  0  0  0  0  0  0
   -6.7611   12.3160   -6.8944 H   0  0  0  0  0  0  0  0  0  0  0  0
   -2.6276    9.7177   -8.0584 H   0  0  0  0  0  0  0  0  0  0  0  0
   -4.9028    8.7956   -8.4901 H   0  0  0  0  0  0  0  0  0  0  0  0
   -4.6981   14.3547   -6.0110 H   0  0  0  0  0  0  0  0  0  0  0  0
   -0.3887   12.9766   -6.5976 H   0  0  0  0  0  0  0  0  0  0  0  0
   -0.6982   11.2196   -6.3895 H   0  0  0  0  0  0  0  0  0  0  0  0
   -0.6820   11.9401   -8.0349 H   0  0  0  0  0  0  0  0  0  0  0  0
   -2.9790   15.2028  -12.0329 H   0  0  0  0  0  0  0  0  0  0  0  0
   -4.2586   15.9809  -11.0410 H   0  0  0  0  0  0  0  0  0  0  0  0
   -3.3524   14.9686   -9.0797 H   0  0  0  0  0  0  0  0  0  0  0  0
   -4.9575   13.2416   -9.3352 H   0  0  0  0  0  0  0  0  0  0  0  0
   -3.7371   12.2338  -10.1847 H   0  0  0  0  0  0  0  0  0  0  0  0
   -1.5721   13.5212   -9.2401 H   0  0  0  0  0  0  0  0  0  0  0  0
  1  2  1  0  0  0  0
  1  4  1  0  0  0  0
  1 12  1  0  0  0  0
  2  6  2  0  0  0  0
  3  4  1  0  0  0  0
  3  5  2  0  0  0  0
  5  6  1  0  0  0  0
  5  9  1  0  0  0  0
  6  7  1  0  0  0  0
  7  8  1  0  0  0  0
  7 10  2  3  0  0  0
  8  9  2  0  0  0  0
 10 14  1  0  0  0  0
 11 12  1  0  0  0  0
 11 24  1  0  0  0  0
 11 26  1  0  0  0  0
 12 13  2  0  0  0  0
 14 15  2  0  0  0  0
 14 19  1  0  0  0  0
 15 16  1  0  0  0  0
 16 17  2  0  0  0  0
 16 20  1  0  0  0  0
 17 18  1  0  0  0  0
 17 22  1  0  0  0  0
 18 19  2  0  0  0  0
 20 21  2  0  0  0  0
 21 22  1  0  0  0  0
 22 23  1  0  0  0  0
 24 25  1  0  0  0  0
 25 26  1  0  0  0  0
 25 27  1  0  0  0  0
  1 28  1  0  0  0  0
  2 29  1  0  0  0  0
  3 30  1  0  0  0  0
  4 31  1  0  0  0  0
  4 32  1  0  0  0  0
 10 33  1  0  0  0  0
 15 34  1  0  0  0  0
 18 35  1  0  0  0  0
 19 36  1  0  0  0  0
 20 37  1  0  0  0  0
 23 38  1  0  0  0  0
 23 39  1  0  0  0  0
 23 40  1  0  0  0  0
 24 41  1  0  0  0  0
 24 42  1  0  0  0  0
 25 43  1  0  0  0  0
 26 44  1  0  0  0  0
 26 45  1  0  0  0  0
 27 46  1  0  0  0  0
M  END
> <Name>
44

> <IC50[uM]>
0.004

$$$$
44
  -OEChem-05192314333D
 Structure written by MMmdl.
 46 50  0     1  0  0  0  0  0999 V2000
   -6.3932   12.3500  -12.0125 C   0  0  0  0  0  0  0  0  0  0  0  0
   -6.5644   11.7828  -10.7394 C   0  0  0  0  0  0  0  0  0  0  0  0
   -7.7358   10.5711  -13.0331 C   0  0  0  0  0  0  0  0  0  0  0  0
   -6.9954   11.7572  -13.1322 C   0  0  0  0  0  0  0  0  0  0  0  0
   -7.8242    9.9989  -11.7591 C   0  0  0  0  0  0  0  0  0  0  0  0
   -7.2585   10.6059  -10.6150 C   0  0  3  0  0  0  0  0  0  0  0  0
   -7.6168    9.7386   -9.5213 C   0  0  0  0  0  0  0  0  0  0  0  0
   -8.2709    8.7166   -9.9884 N   0  0  0  0  0  0  0  0  0  0  0  0
   -8.4108    8.8490  -11.3012 N   0  0  0  0  0  0  0  0  0  0  0  0
   -7.3306    9.8912   -8.0312 C   0  0  0  0  0  0  0  0  0  0  0  0
   -4.5413   13.8555  -11.3648 N   0  0  0  0  0  0  0  0  0  0  0  0
   -5.5934   13.6525  -12.1835 C   0  0  0  0  0  0  0  0  0  0  0  0
   -5.9232   14.4812  -13.0224 O   0  0  0  0  0  0  0  0  0  0  0  0
   -5.9508   10.4991   -7.7310 C   0  0  0  0  0  0  0  0  0  0  0  0
   -5.8673   11.7672   -7.1520 C   0  0  0  0  0  0  0  0  0  0  0  0
   -4.6035   12.3102   -6.9134 C   0  0  0  0  0  0  0  0  0  0  0  0
   -3.4392   11.5630   -7.2455 C   0  0  0  0  0  0  0  0  0  0  0  0
   -3.5146   10.2834   -7.8141 C   0  0  0  0  0  0  0  0  0  0  0  0
   -4.7998    9.7761   -8.0492 C   0  0  0  0  0  0  0  0  0  0  0  0
   -4.0885   13.5395   -6.3720 C   0  0  0  0  0  0  0  0  0  0  0  0
   -2.7847   13.5343   -6.3770 N   0  0  0  0  0  0  0  0  0  0  0  0
   -2.3791   12.3751   -6.8806 N   0  0  0  0  0  0  0  0  0  0  0  0
   -0.9494   12.1118   -6.9818 C   0  0  0  0  0  0  0  0  0  0  0  0
   -3.7091   15.0460  -11.2252 C   0  0  0  0  0  0  0  0  0  0  0  0
   -3.1570   14.3608   -9.9755 C   0  0  0  0  0  0  0  0  0  0  0  0
   -4.1684   13.2423  -10.1016 C   0  0  0  0  0  0  0  0  0  0  0  0
   -1.8246   13.9322  -10.0585 O   0  0  0  0  0  0  0  0  0  0  0  0
   -6.1536   12.2683   -9.8665 H   0  0  0  0  0  0  0  0  0  0  0  0
   -8.2120   10.1234  -13.8929 H   0  0  0  0  0  0  0  0  0  0  0  0
   -7.6766   12.5120  -13.5520 H   0  0  0  0  0  0  0  0  0  0  0  0
   -6.1849   11.5561  -13.8482 H   0  0  0  0  0  0  0  0  0  0  0  0
   -6.3295   10.0369  -10.7673 H   0  0  0  0  0  0  0  0  0  0  0  0
   -8.0297    9.6003   -7.2611 H   0  0  0  0  0  0  0  0  0  0  0  0
   -6.7611   12.3160   -6.8944 H   0  0  0  0  0  0  0  0  0  0  0  0
   -2.6276    9.7177   -8.0584 H   0  0  0  0  0  0  0  0  0  0  0  0
   -4.9028    8.7956   -8.4901 H   0  0  0  0  0  0  0  0  0  0  0  0
   -4.6981   14.3547   -6.0110 H   0  0  0  0  0  0  0  0  0  0  0  0
   -0.3887   12.9766   -6.5976 H   0  0  0  0  0  0  0  0  0  0  0  0
   -0.6982   11.2196   -6.3895 H   0  0  0  0  0  0  0  0  0  0  0  0
   -0.6820   11.9401   -8.0349 H   0  0  0  0  0  0  0  0  0  0  0  0
   -2.9790   15.2028  -12.0329 H   0  0  0  0  0  0  0  0  0  0  0  0
   -4.2586   15.9809  -11.0410 H   0  0  0  0  0  0  0  0  0  0  0  0
   -3.3524   14.9686   -9.0797 H   0  0  0  0  0  0  0  0  0  0  0  0
   -4.9575   13.2416   -9.3352 H   0  0  0  0  0  0  0  0  0  0  0  0
   -3.7371   12.2338  -10.1847 H   0  0  0  0  0  0  0  0  0  0  0  0
   -1.5721   13.5212   -9.2401 H   0  0  0  0  0  0  0  0  0  0  0  0
  1  2  2  0  0  0  0
  1  4  1  0  0  0  0
  1 12  1  0  0  0  0
  2  6  1  0  0  0  0
  3  4  1  0  0  0  0
  3  5  2  0  0  0  0
  5  6  1  0  0  0  0
  5  9  1  0  0  0  0
  6  7  1  0  0  0  0
  7  8  1  0  0  0  0
  7 10  2  3  0  0  0
  8  9  2  0  0  0  0
 10 14  1  0  0  0  0
 11 12  1  0  0  0  0
 11 24  1  0  0  0  0
 11 26  1  0  0  0  0
 12 13  2  0  0  0  0
 14 15  2  0  0  0  0
 14 19  1  0  0  0  0
 15 16  1  0  0  0  0
 16 17  2  0  0  0  0
 16 20  1  0  0  0  0
 17 18  1  0  0  0  0
 17 22  1  0  0  0  0
 18 19  2  0  0  0  0
 20 21  2  0  0  0  0
 21 22  1  0  0  0  0
 22 23  1  0  0  0  0
 24 25  1  0  0  0  0
 25 26  1  0  0  0  0
 25 27  1  0  0  0  0
  2 28  1  0  0  0  0
  3 29  1  0  0  0  0
  4 30  1  0  0  0  0
  4 31  1  0  0  0  0
  6 32  1  0  0  0  0
 10 33  1  0  0  0  0
 15 34  1  0  0  0  0
 18 35  1  0  0  0  0
 19 36  1  0  0  0  0
 20 37  1  0  0  0  0
 23 38  1  0  0  0  0
 23 39  1  0  0  0  0
 23 40  1  0  0  0  0
 24 41  1  0  0  0  0
 24 42  1  0  0  0  0
 25 43  1  0  0  0  0
 26 44  1  0  0  0  0
 26 45  1  0  0  0  0
 27 46  1  0  0  0  0
M  END
> <Name>
44

> <IC50[uM]>
0.004

$$$$
44
  -OEChem-05192314333D
 Structure written by MMmdl.
 46 50  0     0  0  0  0  0  0999 V2000
   -6.3932   12.3500  -12.0125 C   0  0  0  0  0  0  0  0  0  0  0  0
   -6.5644   11.7828  -10.7394 C   0  0  0  0  0  0  0  0  0  0  0  0
   -7.7358   10.5711  -13.0331 C   0  0  0  0  0  0  0  0  0  0  0  0
   -6.9954   11.7572  -13.1322 C   0  0  0  0  0  0  0  0  0  0  0  0
   -7.8242    9.9989  -11.7591 C   0  0  0  0  0  0  0  0  0  0  0  0
   -7.2585   10.6059  -10.6150 C   0  0  0  0  0  0  0  0  0  0  0  0
   -7.6168    9.7386   -9.5213 C   0  0  0  0  0  0  0  0  0  0  0  0
   -8.2709    8.7166   -9.9884 N   0  0  0  0  0  0  0  0  0  0  0  0
   -8.4108    8.8490  -11.3012 N   0  0  0  0  0  0  0  0  0  0  0  0
   -7.3306    9.8912   -8.0312 C   0  0  0  0  0  0  0  0  0  0  0  0
   -4.5413   13.8555  -11.3648 N   0  0  0  0  0  0  0  0  0  0  0  0
   -5.5934   13.6525  -12.1835 C   0  0  0  0  0  0  0  0  0  0  0  0
   -5.9232   14.4812  -13.0224 O   0  0  0  0  0  0  0  0  0  0  0  0
   -5.9508   10.4991   -7.7310 C   0  0  0  0  0  0  0  0  0  0  0  0
   -5.8673   11.7672   -7.1520 C   0  0  0  0  0  0  0  0  0  0  0  0
   -4.6035   12.3102   -6.9134 C   0  0  0  0  0  0  0  0  0  0  0  0
   -3.4392   11.5630   -7.2455 C   0  0  0  0  0  0  0  0  0  0  0  0
   -3.5146   10.2834   -7.8141 C   0  0  0  0  0  0  0  0  0  0  0  0
   -4.7998    9.7761   -8.0492 C   0  0  0  0  0  0  0  0  0  0  0  0
   -4.0885   13.5395   -6.3720 C   0  0  0  0  0  0  0  0  0  0  0  0
   -2.7847   13.5343   -6.3770 N   0  0  0  0  0  0  0  0  0  0  0  0
   -2.3791   12.3751   -6.8806 N   0  0  0  0  0  0  0  0  0  0  0  0
   -0.9494   12.1118   -6.9818 C   0  0  0  0  0  0  0  0  0  0  0  0
   -3.7091   15.0460  -11.2252 C   0  0  0  0  0  0  0  0  0  0  0  0
   -3.1570   14.3608   -9.9755 C   0  0  0  0  0  0  0  0  0  0  0  0
   -4.1684   13.2423  -10.1016 C   0  0  0  0  0  0  0  0  0  0  0  0
   -1.8246   13.9322  -10.0585 O   0  0  0  0  0  0  0  0  0  0  0  0
   -6.1536   12.2683   -9.8665 H   0  0  0  0  0  0  0  0  0  0  0  0
   -8.7589   10.7853  -13.3758 H   0  0  0  0  0  0  0  0  0  0  0  0
   -7.2727    9.8304  -13.7016 H   0  0  0  0  0  0  0  0  0  0  0  0
   -7.6766   12.5120  -13.5520 H   0  0  0  0  0  0  0  0  0  0  0  0
   -6.1849   11.5561  -13.8482 H   0  0  0  0  0  0  0  0  0  0  0  0
   -8.0297    9.6003   -7.2611 H   0  0  0  0  0  0  0  0  0  0  0  0
   -6.7611   12.3160   -6.8944 H   0  0  0  0  0  0  0  0  0  0  0  0
   -2.6276    9.7177   -8.0584 H   0  0  0  0  0  0  0  0  0  0  0  0
   -4.9028    8.7956   -8.4901 H   0  0  0  0  0  0  0  0  0  0  0  0
   -4.6981   14.3547   -6.0110 H   0  0  0  0  0  0  0  0  0  0  0  0
   -0.3887   12.9766   -6.5976 H   0  0  0  0  0  0  0  0  0  0  0  0
   -0.6982   11.2196   -6.3895 H   0  0  0  0  0  0  0  0  0  0  0  0
   -0.6820   11.9401   -8.0349 H   0  0  0  0  0  0  0  0  0  0  0  0
   -2.9790   15.2028  -12.0329 H   0  0  0  0  0  0  0  0  0  0  0  0
   -4.2586   15.9809  -11.0410 H   0  0  0  0  0  0  0  0  0  0  0  0
   -3.3524   14.9686   -9.0797 H   0  0  0  0  0  0  0  0  0  0  0  0
   -4.9575   13.2416   -9.3352 H   0  0  0  0  0  0  0  0  0  0  0  0
   -3.7371   12.2338  -10.1847 H   0  0  0  0  0  0  0  0  0  0  0  0
   -1.5721   13.5212   -9.2401 H   0  0  0  0  0  0  0  0  0  0  0  0
  1  2  2  0  0  0  0
  1  4  1  0  0  0  0
  1 12  1  0  0  0  0
  2  6  1  0  0  0  0
  3  4  1  0  0  0  0
  3  5  1  0  0  0  0
  5  6  2  0  0  0  0
  5  9  1  0  0  0  0
  6  7  1  0  0  0  0
  7  8  1  0  0  0  0
  7 10  2  3  0  0  0
  8  9  2  0  0  0  0
 10 14  1  0  0  0  0
 11 12  1  0  0  0  0
 11 24  1  0  0  0  0
 11 26  1  0  0  0  0
 12 13  2  0  0  0  0
 14 15  2  0  0  0  0
 14 19  1  0  0  0  0
 15 16  1  0  0  0  0
 16 17  2  0  0  0  0
 16 20  1  0  0  0  0
 17 18  1  0  0  0  0
 17 22  1  0  0  0  0
 18 19  2  0  0  0  0
 20 21  2  0  0  0  0
 21 22  1  0  0  0  0
 22 23  1  0  0  0  0
 24 25  1  0  0  0  0
 25 26  1  0  0  0  0
 25 27  1  0  0  0  0
  2 28  1  0  0  0  0
  3 29  1  0  0  0  0
  3 30  1  0  0  0  0
  4 31  1  0  0  0  0
  4 32  1  0  0  0  0
 10 33  1  0  0  0  0
 15 34  1  0  0  0  0
 18 35  1  0  0  0  0
 19 36  1  0  0  0  0
 20 37  1  0  0  0  0
 23 38  1  0  0  0  0
 23 39  1  0  0  0  0
 23 40  1  0  0  0  0
 24 41  1  0  0  0  0
 24 42  1  0  0  0  0
 25 43  1  0  0  0  0
 26 44  1  0  0  0  0
 26 45  1  0  0  0  0
 27 46  1  0  0  0  0
M  END
> <Name>
44

> <IC50[uM]>
0.004

$$$$
44
  -OEChem-05192314333D
 Structure written by MMmdl.
 46 50  0     1  0  0  0  0  0999 V2000
   -6.3932   12.3500  -12.0125 C   0  0  3  0  0  0  0  0  0  0  0  0
   -6.5644   11.7828  -10.7394 C   0  0  0  0  0  0  0  0  0  0  0  0
   -7.7358   10.5711  -13.0331 C   0  0  0  0  0  0  0  0  0  0  0  0
   -6.9954   11.7572  -13.1322 C   0  0  0  0  0  0  0  0  0  0  0  0
   -7.8242    9.9989  -11.7591 C   0  0  0  0  0  0  0  0  0  0  0  0
   -7.2585   10.6059  -10.6150 C   0  0  0  0  0  0  0  0  0  0  0  0
   -7.6168    9.7386   -9.5213 C   0  0  0  0  0  0  0  0  0  0  0  0
   -8.2709    8.7166   -9.9884 N   0  0  0  0  0  0  0  0  0  0  0  0
   -8.4108    8.8490  -11.3012 N   0  0  0  0  0  0  0  0  0  0  0  0
   -7.3306    9.8912   -8.0312 C   0  0  0  0  0  0  0  0  0  0  0  0
   -4.5413   13.8555  -11.3648 N   0  0  0  0  0  0  0  0  0  0  0  0
   -5.5934   13.6525  -12.1835 C   0  0  0  0  0  0  0  0  0  0  0  0
   -5.9232   14.4812  -13.0224 O   0  0  0  0  0  0  0  0  0  0  0  0
   -5.9508   10.4991   -7.7310 C   0  0  0  0  0  0  0  0  0  0  0  0
   -5.8673   11.7672   -7.1520 C   0  0  0  0  0  0  0  0  0  0  0  0
   -4.6035   12.3102   -6.9134 C   0  0  0  0  0  0  0  0  0  0  0  0
   -3.4392   11.5630   -7.2455 C   0  0  0  0  0  0  0  0  0  0  0  0
   -3.5146   10.2834   -7.8141 C   0  0  0  0  0  0  0  0  0  0  0  0
   -4.7998    9.7761   -8.0492 C   0  0  0  0  0  0  0  0  0  0  0  0
   -4.0885   13.5395   -6.3720 C   0  0  0  0  0  0  0  0  0  0  0  0
   -2.7847   13.5343   -6.3770 N   0  0  0  0  0  0  0  0  0  0  0  0
   -2.3791   12.3751   -6.8806 N   0  0  0  0  0  0  0  0  0  0  0  0
   -0.9494   12.1118   -6.9818 C   0  0  0  0  0  0  0  0  0  0  0  0
   -3.7091   15.0460  -11.2252 C   0  0  0  0  0  0  0  0  0  0  0  0
   -3.1570   14.3608   -9.9755 C   0  0  0  0  0  0  0  0  0  0  0  0
   -4.1684   13.2423  -10.1016 C   0  0  0  0  0  0  0  0  0  0  0  0
   -1.8246   13.9322  -10.0585 O   0  0  0  0  0  0  0  0  0  0  0  0
   -5.4817   11.7548  -12.1703 H   0  0  0  0  0  0  0  0  0  0  0  0
   -5.5591   11.6070  -10.3289 H   0  0  0  0  0  0  0  0  0  0  0  0
   -7.0866   12.5296  -10.1233 H   0  0  0  0  0  0  0  0  0  0  0  0
   -8.2120   10.1234  -13.8929 H   0  0  0  0  0  0  0  0  0  0  0  0
   -6.8855   12.2280  -14.0979 H   0  0  0  0  0  0  0  0  0  0  0  0
   -8.0297    9.6003   -7.2611 H   0  0  0  0  0  0  0  0  0  0  0  0
   -6.7611   12.3160   -6.8944 H   0  0  0  0  0  0  0  0  0  0  0  0
   -2.6276    9.7177   -8.0584 H   0  0  0  0  0  0  0  0  0  0  0  0
   -4.9028    8.7956   -8.4901 H   0  0  0  0  0  0  0  0  0  0  0  0
   -4.6981   14.3547   -6.0110 H   0  0  0  0  0  0  0  0  0  0  0  0
   -0.3887   12.9766   -6.5976 H   0  0  0  0  0  0  0  0  0  0  0  0
   -0.6982   11.2196   -6.3895 H   0  0  0  0  0  0  0  0  0  0  0  0
   -0.6820   11.9401   -8.0349 H   0  0  0  0  0  0  0  0  0  0  0  0
   -2.9790   15.2028  -12.0329 H   0  0  0  0  0  0  0  0  0  0  0  0
   -4.2586   15.9809  -11.0410 H   0  0  0  0  0  0  0  0  0  0  0  0
   -3.3524   14.9686   -9.0797 H   0  0  0  0  0  0  0  0  0  0  0  0
   -4.9575   13.2416   -9.3352 H   0  0  0  0  0  0  0  0  0  0  0  0
   -3.7371   12.2338  -10.1847 H   0  0  0  0  0  0  0  0  0  0  0  0
   -1.5721   13.5212   -9.2401 H   0  0  0  0  0  0  0  0  0  0  0  0
  1  2  1  0  0  0  0
  1  4  1  0  0  0  0
  1 12  1  0  0  0  0
  2  6  1  0  0  0  0
  3  4  2  0  0  0  0
  3  5  1  0  0  0  0
  5  6  2  0  0  0  0
  5  9  1  0  0  0  0
  6  7  1  0  0  0  0
  7  8  1  0  0  0  0
  7 10  2  3  0  0  0
  8  9  2  0  0  0  0
 10 14  1  0  0  0  0
 11 12  1  0  0  0  0
 11 24  1  0  0  0  0
 11 26  1  0  0  0  0
 12 13  2  0  0  0  0
 14 15  2  0  0  0  0
 14 19  1  0  0  0  0
 15 16  1  0  0  0  0
 16 17  2  0  0  0  0
 16 20  1  0  0  0  0
 17 18  1  0  0  0  0
 17 22  1  0  0  0  0
 18 19  2  0  0  0  0
 20 21  2  0  0  0  0
 21 22  1  0  0  0  0
 22 23  1  0  0  0  0
 24 25  1  0  0  0  0
 25 26  1  0  0  0  0
 25 27  1  0  0  0  0
  1 28  1  0  0  0  0
  2 29  1  0  0  0  0
  2 30  1  0  0  0  0
  3 31  1  0  0  0  0
  4 32  1  0  0  0  0
 10 33  1  0  0  0  0
 15 34  1  0  0  0  0
 18 35  1  0  0  0  0
 19 36  1  0  0  0  0
 20 37  1  0  0  0  0
 23 38  1  0  0  0  0
 23 39  1  0  0  0  0
 23 40  1  0  0  0  0
 24 41  1  0  0  0  0
 24 42  1  0  0  0  0
 25 43  1  0  0  0  0
 26 44  1  0  0  0  0
 26 45  1  0  0  0  0
 27 46  1  0  0  0  0
M  END
> <Name>
44

> <IC50[uM]>
0.004

$$$$
44
  -OEChem-05192314333D
 Structure written by MMmdl.
 46 50  0     1  0  0  0  0  0999 V2000
   -6.3932   12.3500  -12.0125 C   0  0  0  0  0  0  0  0  0  0  0  0
   -6.5644   11.7828  -10.7394 C   0  0  0  0  0  0  0  0  0  0  0  0
   -7.7358   10.5711  -13.0331 C   0  0  0  0  0  0  0  0  0  0  0  0
   -6.9954   11.7572  -13.1322 C   0  0  0  0  0  0  0  0  0  0  0  0
   -7.8242    9.9989  -11.7591 C   0  0  0  0  0  0  0  0  0  0  0  0
   -7.2585   10.6059  -10.6150 C   0  0  3  0  0  0  0  0  0  0  0  0
   -7.6168    9.7386   -9.5213 C   0  0  0  0  0  0  0  0  0  0  0  0
   -8.2709    8.7166   -9.9884 N   0  0  0  0  0  0  0  0  0  0  0  0
   -8.4108    8.8490  -11.3012 N   0  0  0  0  0  0  0  0  0  0  0  0
   -7.3306    9.8912   -8.0312 C   0  0  0  0  0  0  0  0  0  0  0  0
   -4.5413   13.8555  -11.3648 N   0  0  0  0  0  0  0  0  0  0  0  0
   -5.5934   13.6525  -12.1835 C   0  0  0  0  0  0  0  0  0  0  0  0
   -5.9232   14.4812  -13.0224 O   0  0  0  0  0  0  0  0  0  0  0  0
   -5.9508   10.4991   -7.7310 C   0  0  0  0  0  0  0  0  0  0  0  0
   -5.8673   11.7672   -7.1520 C   0  0  0  0  0  0  0  0  0  0  0  0
   -4.6035   12.3102   -6.9134 C   0  0  0  0  0  0  0  0  0  0  0  0
   -3.4392   11.5630   -7.2455 C   0  0  0  0  0  0  0  0  0  0  0  0
   -3.5146   10.2834   -7.8141 C   0  0  0  0  0  0  0  0  0  0  0  0
   -4.7998    9.7761   -8.0492 C   0  0  0  0  0  0  0  0  0  0  0  0
   -4.0885   13.5395   -6.3720 C   0  0  0  0  0  0  0  0  0  0  0  0
   -2.7847   13.5343   -6.3770 N   0  0  0  0  0  0  0  0  0  0  0  0
   -2.3791   12.3751   -6.8806 N   0  0  0  0  0  0  0  0  0  0  0  0
   -0.9494   12.1118   -6.9818 C   0  0  0  0  0  0  0  0  0  0  0  0
   -3.7091   15.0460  -11.2252 C   0  0  0  0  0  0  0  0  0  0  0  0
   -3.1570   14.3608   -9.9755 C   0  0  0  0  0  0  0  0  0  0  0  0
   -4.1684   13.2423  -10.1016 C   0  0  0  0  0  0  0  0  0  0  0  0
   -1.8246   13.9322  -10.0585 O   0  0  0  0  0  0  0  0  0  0  0  0
   -5.5591   11.6070  -10.3289 H   0  0  0  0  0  0  0  0  0  0  0  0
   -7.0866   12.5296  -10.1233 H   0  0  0  0  0  0  0  0  0  0  0  0
   -8.2120   10.1234  -13.8929 H   0  0  0  0  0  0  0  0  0  0  0  0
   -6.8855   12.2280  -14.0979 H   0  0  0  0  0  0  0  0  0  0  0  0
   -6.3295   10.0369  -10.7673 H   0  0  0  0  0  0  0  0  0  0  0  0
   -8.0297    9.6003   -7.2611 H   0  0  0  0  0  0  0  0  0  0  0  0
   -6.7611   12.3160   -6.8944 H   0  0  0  0  0  0  0  0  0  0  0  0
   -2.6276    9.7177   -8.0584 H   0  0  0  0  0  0  0  0  0  0  0  0
   -4.9028    8.7956   -8.4901 H   0  0  0  0  0  0  0  0  0  0  0  0
   -4.6981   14.3547   -6.0110 H   0  0  0  0  0  0  0  0  0  0  0  0
   -0.3887   12.9766   -6.5976 H   0  0  0  0  0  0  0  0  0  0  0  0
   -0.6982   11.2196   -6.3895 H   0  0  0  0  0  0  0  0  0  0  0  0
   -0.6820   11.9401   -8.0349 H   0  0  0  0  0  0  0  0  0  0  0  0
   -2.9790   15.2028  -12.0329 H   0  0  0  0  0  0  0  0  0  0  0  0
   -4.2586   15.9809  -11.0410 H   0  0  0  0  0  0  0  0  0  0  0  0
   -3.3524   14.9686   -9.0797 H   0  0  0  0  0  0  0  0  0  0  0  0
   -4.9575   13.2416   -9.3352 H   0  0  0  0  0  0  0  0  0  0  0  0
   -3.7371   12.2338  -10.1847 H   0  0  0  0  0  0  0  0  0  0  0  0
   -1.5721   13.5212   -9.2401 H   0  0  0  0  0  0  0  0  0  0  0  0
  1  2  1  0  0  0  0
  1  4  2  0  0  0  0
  1 12  1  0  0  0  0
  2  6  1  0  0  0  0
  3  4  1  0  0  0  0
  3  5  2  0  0  0  0
  5  6  1  0  0  0  0
  5  9  1  0  0  0  0
  6  7  1  0  0  0  0
  7  8  1  0  0  0  0
  7 10  2  3  0  0  0
  8  9  2  0  0  0  0
 10 14  1  0  0  0  0
 11 12  1  0  0  0  0
 11 24  1  0  0  0  0
 11 26  1  0  0  0  0
 12 13  2  0  0  0  0
 14 15  2  0  0  0  0
 14 19  1  0  0  0  0
 15 16  1  0  0  0  0
 16 17  2  0  0  0  0
 16 20  1  0  0  0  0
 17 18  1  0  0  0  0
 17 22  1  0  0  0  0
 18 19  2  0  0  0  0
 20 21  2  0  0  0  0
 21 22  1  0  0  0  0
 22 23  1  0  0  0  0
 24 25  1  0  0  0  0
 25 26  1  0  0  0  0
 25 27  1  0  0  0  0
  2 28  1  0  0  0  0
  2 29  1  0  0  0  0
  3 30  1  0  0  0  0
  4 31  1  0  0  0  0
  6 32  1  0  0  0  0
 10 33  1  0  0  0  0
 15 34  1  0  0  0  0
 18 35  1  0  0  0  0
 19 36  1  0  0  0  0
 20 37  1  0  0  0  0
 23 38  1  0  0  0  0
 23 39  1  0  0  0  0
 23 40  1  0  0  0  0
 24 41  1  0  0  0  0
 24 42  1  0  0  0  0
 25 43  1  0  0  0  0
 26 44  1  0  0  0  0
 26 45  1  0  0  0  0
 27 46  1  0  0  0  0
M  END
> <Name>
44

> <IC50[uM]>
0.004

$$$$
44
  -OEChem-05192314333D
 Structure written by MMmdl.
 46 50  0     0  0  0  0  0  0999 V2000
   -6.3932   12.3500  -12.0125 C   0  0  0  0  0  0  0  0  0  0  0  0
   -6.5644   11.7828  -10.7394 C   0  0  0  0  0  0  0  0  0  0  0  0
   -7.7358   10.5711  -13.0331 C   0  0  0  0  0  0  0  0  0  0  0  0
   -6.9954   11.7572  -13.1322 C   0  0  0  0  0  0  0  0  0  0  0  0
   -7.8242    9.9989  -11.7591 C   0  0  0  0  0  0  0  0  0  0  0  0
   -7.2585   10.6059  -10.6150 C   0  0  0  0  0  0  0  0  0  0  0  0
   -7.6168    9.7386   -9.5213 C   0  0  0  0  0  0  0  0  0  0  0  0
   -8.2709    8.7166   -9.9884 N   0  0  0  0  0  0  0  0  0  0  0  0
   -8.4108    8.8490  -11.3012 N   0  0  0  0  0  0  0  0  0  0  0  0
   -7.3306    9.8912   -8.0312 C   0  0  0  0  0  0  0  0  0  0  0  0
   -4.5413   13.8555  -11.3648 N   0  0  0  0  0  0  0  0  0  0  0  0
   -5.5934   13.6525  -12.1835 C   0  0  0  0  0  0  0  0  0  0  0  0
   -5.9232   14.4812  -13.0224 O   0  0  0  0  0  0  0  0  0  0  0  0
   -5.9508   10.4991   -7.7310 C   0  0  0  0  0  0  0  0  0  0  0  0
   -5.8673   11.7672   -7.1520 C   0  0  0  0  0  0  0  0  0  0  0  0
   -4.6035   12.3102   -6.9134 C   0  0  0  0  0  0  0  0  0  0  0  0
   -3.4392   11.5630   -7.2455 C   0  0  0  0  0  0  0  0  0  0  0  0
   -3.5146   10.2834   -7.8141 C   0  0  0  0  0  0  0  0  0  0  0  0
   -4.7998    9.7761   -8.0492 C   0  0  0  0  0  0  0  0  0  0  0  0
   -4.0885   13.5395   -6.3720 C   0  0  0  0  0  0  0  0  0  0  0  0
   -2.7847   13.5343   -6.3770 N   0  0  0  0  0  0  0  0  0  0  0  0
   -2.3791   12.3751   -6.8806 N   0  0  0  0  0  0  0  0  0  0  0  0
   -0.9494   12.1118   -6.9818 C   0  0  0  0  0  0  0  0  0  0  0  0
   -3.7091   15.0460  -11.2252 C   0  0  0  0  0  0  0  0  0  0  0  0
   -3.1570   14.3608   -9.9755 C   0  0  0  0  0  0  0  0  0  0  0  0
   -4.1684   13.2423  -10.1016 C   0  0  0  0  0  0  0  0  0  0  0  0
   -1.8246   13.9322  -10.0585 O   0  0  0  0  0  0  0  0  0  0  0  0
   -5.5591   11.6070  -10.3289 H   0  0  0  0  0  0  0  0  0  0  0  0
   -7.0866   12.5296  -10.1233 H   0  0  0  0  0  0  0  0  0  0  0  0
   -8.7589   10.7853  -13.3758 H   0  0  0  0  0  0  0  0  0  0  0  0
   -7.2727    9.8304  -13.7016 H   0  0  0  0  0  0  0  0  0  0  0  0
   -6.8855   12.2280  -14.0979 H   0  0  0  0  0  0  0  0  0  0  0  0
   -8.0297    9.6003   -7.2611 H   0  0  0  0  0  0  0  0  0  0  0  0
   -6.7611   12.3160   -6.8944 H   0  0  0  0  0  0  0  0  0  0  0  0
   -2.6276    9.7177   -8.0584 H   0  0  0  0  0  0  0  0  0  0  0  0
   -4.9028    8.7956   -8.4901 H   0  0  0  0  0  0  0  0  0  0  0  0
   -4.6981   14.3547   -6.0110 H   0  0  0  0  0  0  0  0  0  0  0  0
   -0.3887   12.9766   -6.5976 H   0  0  0  0  0  0  0  0  0  0  0  0
   -0.6982   11.2196   -6.3895 H   0  0  0  0  0  0  0  0  0  0  0  0
   -0.6820   11.9401   -8.0349 H   0  0  0  0  0  0  0  0  0  0  0  0
   -2.9790   15.2028  -12.0329 H   0  0  0  0  0  0  0  0  0  0  0  0
   -4.2586   15.9809  -11.0410 H   0  0  0  0  0  0  0  0  0  0  0  0
   -3.3524   14.9686   -9.0797 H   0  0  0  0  0  0  0  0  0  0  0  0
   -4.9575   13.2416   -9.3352 H   0  0  0  0  0  0  0  0  0  0  0  0
   -3.7371   12.2338  -10.1847 H   0  0  0  0  0  0  0  0  0  0  0  0
   -1.5721   13.5212   -9.2401 H   0  0  0  0  0  0  0  0  0  0  0  0
  1  2  1  0  0  0  0
  1  4  2  0  0  0  0
  1 12  1  0  0  0  0
  2  6  1  0  0  0  0
  3  4  1  0  0  0  0
  3  5  1  0  0  0  0
  5  6  2  0  0  0  0
  5  9  1  0  0  0  0
  6  7  1  0  0  0  0
  7  8  1  0  0  0  0
  7 10  2  3  0  0  0
  8  9  2  0  0  0  0
 10 14  1  0  0  0  0
 11 12  1  0  0  0  0
 11 24  1  0  0  0  0
 11 26  1  0  0  0  0
 12 13  2  0  0  0  0
 14 15  2  0  0  0  0
 14 19  1  0  0  0  0
 15 16  1  0  0  0  0
 16 17  2  0  0  0  0
 16 20  1  0  0  0  0
 17 18  1  0  0  0  0
 17 22  1  0  0  0  0
 18 19  2  0  0  0  0
 20 21  2  0  0  0  0
 21 22  1  0  0  0  0
 22 23  1  0  0  0  0
 24 25  1  0  0  0  0
 25 26  1  0  0  0  0
 25 27  1  0  0  0  0
  2 28  1  0  0  0  0
  2 29  1  0  0  0  0
  3 30  1  0  0  0  0
  3 31  1  0  0  0  0
  4 32  1  0  0  0  0
 10 33  1  0  0  0  0
 15 34  1  0  0  0  0
 18 35  1  0  0  0  0
 19 36  1  0  0  0  0
 20 37  1  0  0  0  0
 23 38  1  0  0  0  0
 23 39  1  0  0  0  0
 23 40  1  0  0  0  0
 24 41  1  0  0  0  0
 24 42  1  0  0  0  0
 25 43  1  0  0  0  0
 26 44  1  0  0  0  0
 26 45  1  0  0  0  0
 27 46  1  0  0  0  0
M  END
> <Name>
44

> <IC50[uM]>
0.004

$$$$
44
  -OEChem-05192314333D
 Structure written by MMmdl.
 46 50  0     1  0  0  0  0  0999 V2000
   -6.3932   12.3500  -12.0125 C   0  0  0  0  0  0  0  0  0  0  0  0
   -6.5644   11.7828  -10.7394 C   0  0  0  0  0  0  0  0  0  0  0  0
   -7.7358   10.5711  -13.0331 C   0  0  0  0  0  0  0  0  0  0  0  0
   -6.9954   11.7572  -13.1322 C   0  0  0  0  0  0  0  0  0  0  0  0
   -7.8242    9.9989  -11.7591 C   0  0  3  0  0  0  0  0  0  0  0  0
   -7.2585   10.6059  -10.6150 C   0  0  0  0  0  0  0  0  0  0  0  0
   -7.6168    9.7386   -9.5213 C   0  0  0  0  0  0  0  0  0  0  0  0
   -8.2709    8.7166   -9.9884 N   0  0  0  0  0  0  0  0  0  0  0  0
   -8.4108    8.8490  -11.3012 N   0  0  0  0  0  0  0  0  0  0  0  0
   -7.3306    9.8912   -8.0312 C   0  0  0  0  0  0  0  0  0  0  0  0
   -4.5413   13.8555  -11.3648 N   0  0  0  0  0  0  0  0  0  0  0  0
   -5.5934   13.6525  -12.1835 C   0  0  0  0  0  0  0  0  0  0  0  0
   -5.9232   14.4812  -13.0224 O   0  0  0  0  0  0  0  0  0  0  0  0
   -5.9508   10.4991   -7.7310 C   0  0  0  0  0  0  0  0  0  0  0  0
   -5.8673   11.7672   -7.1520 C   0  0  0  0  0  0  0  0  0  0  0  0
   -4.6035   12.3102   -6.9134 C   0  0  0  0  0  0  0  0  0  0  0  0
   -3.4392   11.5630   -7.2455 C   0  0  0  0  0  0  0  0  0  0  0  0
   -3.5146   10.2834   -7.8141 C   0  0  0  0  0  0  0  0  0  0  0  0
   -4.7998    9.7761   -8.0492 C   0  0  0  0  0  0  0  0  0  0  0  0
   -4.0885   13.5395   -6.3720 C   0  0  0  0  0  0  0  0  0  0  0  0
   -2.7847   13.5343   -6.3770 N   0  0  0  0  0  0  0  0  0  0  0  0
   -2.3791   12.3751   -6.8806 N   0  0  0  0  0  0  0  0  0  0  0  0
   -0.9494   12.1118   -6.9818 C   0  0  0  0  0  0  0  0  0  0  0  0
   -3.7091   15.0460  -11.2252 C   0  0  0  0  0  0  0  0  0  0  0  0
   -3.1570   14.3608   -9.9755 C   0  0  0  0  0  0  0  0  0  0  0  0
   -4.1684   13.2423  -10.1016 C   0  0  0  0  0  0  0  0  0  0  0  0
   -1.8246   13.9322  -10.0585 O   0  0  0  0  0  0  0  0  0  0  0  0
   -6.1536   12.2683   -9.8665 H   0  0  0  0  0  0  0  0  0  0  0  0
   -8.2120   10.1234  -13.8929 H   0  0  0  0  0  0  0  0  0  0  0  0
   -6.8855   12.2280  -14.0979 H   0  0  0  0  0  0  0  0  0  0  0  0
   -6.8859    9.4528  -11.9364 H   0  0  0  0  0  0  0  0  0  0  0  0
   -8.1010   10.5432   -7.5937 H   0  0  0  0  0  0  0  0  0  0  0  0
   -7.3824    8.8971   -7.5631 H   0  0  0  0  0  0  0  0  0  0  0  0
   -6.7611   12.3160   -6.8944 H   0  0  0  0  0  0  0  0  0  0  0  0
   -2.6276    9.7177   -8.0584 H   0  0  0  0  0  0  0  0  0  0  0  0
   -4.9028    8.7956   -8.4901 H   0  0  0  0  0  0  0  0  0  0  0  0
   -4.6981   14.3547   -6.0110 H   0  0  0  0  0  0  0  0  0  0  0  0
   -0.3887   12.9766   -6.5976 H   0  0  0  0  0  0  0  0  0  0  0  0
   -0.6982   11.2196   -6.3895 H   0  0  0  0  0  0  0  0  0  0  0  0
   -0.6820   11.9401   -8.0349 H   0  0  0  0  0  0  0  0  0  0  0  0
   -2.9790   15.2028  -12.0329 H   0  0  0  0  0  0  0  0  0  0  0  0
   -4.2586   15.9809  -11.0410 H   0  0  0  0  0  0  0  0  0  0  0  0
   -3.3524   14.9686   -9.0797 H   0  0  0  0  0  0  0  0  0  0  0  0
   -4.9575   13.2416   -9.3352 H   0  0  0  0  0  0  0  0  0  0  0  0
   -3.7371   12.2338  -10.1847 H   0  0  0  0  0  0  0  0  0  0  0  0
   -1.5721   13.5212   -9.2401 H   0  0  0  0  0  0  0  0  0  0  0  0
  1  2  2  0  0  0  0
  1  4  1  0  0  0  0
  1 12  1  0  0  0  0
  2  6  1  0  0  0  0
  3  4  2  0  0  0  0
  3  5  1  0  0  0  0
  5  6  1  0  0  0  0
  5  9  1  0  0  0  0
  6  7  2  0  0  0  0
  7  8  1  0  0  0  0
  7 10  1  0  0  0  0
  8  9  2  0  0  0  0
 10 14  1  0  0  0  0
 11 12  1  0  0  0  0
 11 24  1  0  0  0  0
 11 26  1  0  0  0  0
 12 13  2  0  0  0  0
 14 15  2  0  0  0  0
 14 19  1  0  0  0  0
 15 16  1  0  0  0  0
 16 17  2  0  0  0  0
 16 20  1  0  0  0  0
 17 18  1  0  0  0  0
 17 22  1  0  0  0  0
 18 19  2  0  0  0  0
 20 21  2  0  0  0  0
 21 22  1  0  0  0  0
 22 23  1  0  0  0  0
 24 25  1  0  0  0  0
 25 26  1  0  0  0  0
 25 27  1  0  0  0  0
  2 28  1  0  0  0  0
  3 29  1  0  0  0  0
  4 30  1  0  0  0  0
  5 31  1  0  0  0  0
 10 32  1  0  0  0  0
 10 33  1  0  0  0  0
 15 34  1  0  0  0  0
 18 35  1  0  0  0  0
 19 36  1  0  0  0  0
 20 37  1  0  0  0  0
 23 38  1  0  0  0  0
 23 39  1  0  0  0  0
 23 40  1  0  0  0  0
 24 41  1  0  0  0  0
 24 42  1  0  0  0  0
 25 43  1  0  0  0  0
 26 44  1  0  0  0  0
 26 45  1  0  0  0  0
 27 46  1  0  0  0  0
M  END
> <Name>
44

> <IC50[uM]>
0.004

$$$$
44
  -OEChem-05192314333D
 Structure written by MMmdl.
 46 50  0     0  0  0  0  0  0999 V2000
   -6.3932   12.3500  -12.0125 C   0  0  0  0  0  0  0  0  0  0  0  0
   -6.5644   11.7828  -10.7394 C   0  0  0  0  0  0  0  0  0  0  0  0
   -7.7358   10.5711  -13.0331 C   0  0  0  0  0  0  0  0  0  0  0  0
   -6.9954   11.7572  -13.1322 C   0  0  0  0  0  0  0  0  0  0  0  0
   -7.8242    9.9989  -11.7591 C   0  0  0  0  0  0  0  0  0  0  0  0
   -7.2585   10.6059  -10.6150 C   0  0  0  0  0  0  0  0  0  0  0  0
   -7.6168    9.7386   -9.5213 C   0  0  0  0  0  0  0  0  0  0  0  0
   -8.2709    8.7166   -9.9884 N   0  0  0  0  0  0  0  0  0  0  0  0
   -8.4108    8.8490  -11.3012 N   0  0  0  0  0  0  0  0  0  0  0  0
   -7.3306    9.8912   -8.0312 C   0  0  0  0  0  0  0  0  0  0  0  0
   -4.5413   13.8555  -11.3648 N   0  0  0  0  0  0  0  0  0  0  0  0
   -5.5934   13.6525  -12.1835 C   0  0  0  0  0  0  0  0  0  0  0  0
   -5.9232   14.4812  -13.0224 O   0  0  0  0  0  0  0  0  0  0  0  0
   -5.9508   10.4991   -7.7310 C   0  0  0  0  0  0  0  0  0  0  0  0
   -5.8673   11.7672   -7.1520 C   0  0  0  0  0  0  0  0  0  0  0  0
   -4.6035   12.3102   -6.9134 C   0  0  0  0  0  0  0  0  0  0  0  0
   -3.4392   11.5630   -7.2455 C   0  0  0  0  0  0  0  0  0  0  0  0
   -3.5146   10.2834   -7.8141 C   0  0  0  0  0  0  0  0  0  0  0  0
   -4.7998    9.7761   -8.0492 C   0  0  0  0  0  0  0  0  0  0  0  0
   -4.0885   13.5395   -6.3720 C   0  0  0  0  0  0  0  0  0  0  0  0
   -2.7847   13.5343   -6.3770 N   0  0  0  0  0  0  0  0  0  0  0  0
   -2.3791   12.3751   -6.8806 N   0  0  0  0  0  0  0  0  0  0  0  0
   -0.9494   12.1118   -6.9818 C   0  0  0  0  0  0  0  0  0  0  0  0
   -3.7091   15.0460  -11.2252 C   0  0  0  0  0  0  0  0  0  0  0  0
   -3.1570   14.3608   -9.9755 C   0  0  0  0  0  0  0  0  0  0  0  0
   -4.1684   13.2423  -10.1016 C   0  0  0  0  0  0  0  0  0  0  0  0
   -1.8246   13.9322  -10.0585 O   0  0  0  0  0  0  0  0  0  0  0  0
   -6.1536   12.2683   -9.8665 H   0  0  0  0  0  0  0  0  0  0  0  0
   -8.2120   10.1234  -13.8929 H   0  0  0  0  0  0  0  0  0  0  0  0
   -7.6766   12.5120  -13.5520 H   0  0  0  0  0  0  0  0  0  0  0  0
   -6.1849   11.5561  -13.8482 H   0  0  0  0  0  0  0  0  0  0  0  0
   -8.1010   10.5432   -7.5937 H   0  0  0  0  0  0  0  0  0  0  0  0
   -7.3824    8.8971   -7.5631 H   0  0  0  0  0  0  0  0  0  0  0  0
   -6.7611   12.3160   -6.8944 H   0  0  0  0  0  0  0  0  0  0  0  0
   -2.6276    9.7177   -8.0584 H   0  0  0  0  0  0  0  0  0  0  0  0
   -4.9028    8.7956   -8.4901 H   0  0  0  0  0  0  0  0  0  0  0  0
   -4.6981   14.3547   -6.0110 H   0  0  0  0  0  0  0  0  0  0  0  0
   -0.3887   12.9766   -6.5976 H   0  0  0  0  0  0  0  0  0  0  0  0
   -0.6982   11.2196   -6.3895 H   0  0  0  0  0  0  0  0  0  0  0  0
   -0.6820   11.9401   -8.0349 H   0  0  0  0  0  0  0  0  0  0  0  0
   -2.9790   15.2028  -12.0329 H   0  0  0  0  0  0  0  0  0  0  0  0
   -4.2586   15.9809  -11.0410 H   0  0  0  0  0  0  0  0  0  0  0  0
   -3.3524   14.9686   -9.0797 H   0  0  0  0  0  0  0  0  0  0  0  0
   -4.9575   13.2416   -9.3352 H   0  0  0  0  0  0  0  0  0  0  0  0
   -3.7371   12.2338  -10.1847 H   0  0  0  0  0  0  0  0  0  0  0  0
   -1.5721   13.5212   -9.2401 H   0  0  0  0  0  0  0  0  0  0  0  0
  1  2  2  0  0  0  0
  1  4  1  0  0  0  0
  1 12  1  0  0  0  0
  2  6  1  0  0  0  0
  3  4  1  0  0  0  0
  3  5  2  0  0  0  0
  5  6  1  0  0  0  0
  5  9  1  0  0  0  0
  6  7  2  0  0  0  0
  7  8  1  0  0  0  0
  7 10  1  0  0  0  0
  8  9  2  0  0  0  0
 10 14  1  0  0  0  0
 11 12  1  0  0  0  0
 11 24  1  0  0  0  0
 11 26  1  0  0  0  0
 12 13  2  0  0  0  0
 14 15  2  0  0  0  0
 14 19  1  0  0  0  0
 15 16  1  0  0  0  0
 16 17  2  0  0  0  0
 16 20  1  0  0  0  0
 17 18  1  0  0  0  0
 17 22  1  0  0  0  0
 18 19  2  0  0  0  0
 20 21  2  0  0  0  0
 21 22  1  0  0  0  0
 22 23  1  0  0  0  0
 24 25  1  0  0  0  0
 25 26  1  0  0  0  0
 25 27  1  0  0  0  0
  2 28  1  0  0  0  0
  3 29  1  0  0  0  0
  4 30  1  0  0  0  0
  4 31  1  0  0  0  0
 10 32  1  0  0  0  0
 10 33  1  0  0  0  0
 15 34  1  0  0  0  0
 18 35  1  0  0  0  0
 19 36  1  0  0  0  0
 20 37  1  0  0  0  0
 23 38  1  0  0  0  0
 23 39  1  0  0  0  0
 23 40  1  0  0  0  0
 24 41  1  0  0  0  0
 24 42  1  0  0  0  0
 25 43  1  0  0  0  0
 26 44  1  0  0  0  0
 26 45  1  0  0  0  0
 27 46  1  0  0  0  0
M  END
> <Name>
44

> <IC50[uM]>
0.004

$$$$
44
  -OEChem-05192314333D
 Structure written by MMmdl.
 46 50  0     0  0  0  0  0  0999 V2000
   -6.3932   12.3500  -12.0125 C   0  0  0  0  0  0  0  0  0  0  0  0
   -6.5644   11.7828  -10.7394 C   0  0  0  0  0  0  0  0  0  0  0  0
   -7.7358   10.5711  -13.0331 C   0  0  0  0  0  0  0  0  0  0  0  0
   -6.9954   11.7572  -13.1322 C   0  0  0  0  0  0  0  0  0  0  0  0
   -7.8242    9.9989  -11.7591 C   0  0  0  0  0  0  0  0  0  0  0  0
   -7.2585   10.6059  -10.6150 C   0  0  0  0  0  0  0  0  0  0  0  0
   -7.6168    9.7386   -9.5213 C   0  0  0  0  0  0  0  0  0  0  0  0
   -8.2709    8.7166   -9.9884 N   0  0  0  0  0  0  0  0  0  0  0  0
   -8.4108    8.8490  -11.3012 N   0  0  0  0  0  0  0  0  0  0  0  0
   -7.3306    9.8912   -8.0312 C   0  0  0  0  0  0  0  0  0  0  0  0
   -4.5413   13.8555  -11.3648 N   0  0  0  0  0  0  0  0  0  0  0  0
   -5.5934   13.6525  -12.1835 C   0  0  0  0  0  0  0  0  0  0  0  0
   -5.9232   14.4812  -13.0224 O   0  0  0  0  0  0  0  0  0  0  0  0
   -5.9508   10.4991   -7.7310 C   0  0  0  0  0  0  0  0  0  0  0  0
   -5.8673   11.7672   -7.1520 C   0  0  0  0  0  0  0  0  0  0  0  0
   -4.6035   12.3102   -6.9134 C   0  0  0  0  0  0  0  0  0  0  0  0
   -3.4392   11.5630   -7.2455 C   0  0  0  0  0  0  0  0  0  0  0  0
   -3.5146   10.2834   -7.8141 C   0  0  0  0  0  0  0  0  0  0  0  0
   -4.7998    9.7761   -8.0492 C   0  0  0  0  0  0  0  0  0  0  0  0
   -4.0885   13.5395   -6.3720 C   0  0  0  0  0  0  0  0  0  0  0  0
   -2.7847   13.5343   -6.3770 N   0  0  0  0  0  0  0  0  0  0  0  0
   -2.3791   12.3751   -6.8806 N   0  0  0  0  0  0  0  0  0  0  0  0
   -0.9494   12.1118   -6.9818 C   0  0  0  0  0  0  0  0  0  0  0  0
   -3.7091   15.0460  -11.2252 C   0  0  0  0  0  0  0  0  0  0  0  0
   -3.1570   14.3608   -9.9755 C   0  0  0  0  0  0  0  0  0  0  0  0
   -4.1684   13.2423  -10.1016 C   0  0  0  0  0  0  0  0  0  0  0  0
   -1.8246   13.9322  -10.0585 O   0  0  0  0  0  0  0  0  0  0  0  0
   -5.5591   11.6070  -10.3289 H   0  0  0  0  0  0  0  0  0  0  0  0
   -7.0866   12.5296  -10.1233 H   0  0  0  0  0  0  0  0  0  0  0  0
   -8.2120   10.1234  -13.8929 H   0  0  0  0  0  0  0  0  0  0  0  0
   -6.8855   12.2280  -14.0979 H   0  0  0  0  0  0  0  0  0  0  0  0
   -8.1010   10.5432   -7.5937 H   0  0  0  0  0  0  0  0  0  0  0  0
   -7.3824    8.8971   -7.5631 H   0  0  0  0  0  0  0  0  0  0  0  0
   -6.7611   12.3160   -6.8944 H   0  0  0  0  0  0  0  0  0  0  0  0
   -2.6276    9.7177   -8.0584 H   0  0  0  0  0  0  0  0  0  0  0  0
   -4.9028    8.7956   -8.4901 H   0  0  0  0  0  0  0  0  0  0  0  0
   -4.6981   14.3547   -6.0110 H   0  0  0  0  0  0  0  0  0  0  0  0
   -0.3887   12.9766   -6.5976 H   0  0  0  0  0  0  0  0  0  0  0  0
   -0.6982   11.2196   -6.3895 H   0  0  0  0  0  0  0  0  0  0  0  0
   -0.6820   11.9401   -8.0349 H   0  0  0  0  0  0  0  0  0  0  0  0
   -2.9790   15.2028  -12.0329 H   0  0  0  0  0  0  0  0  0  0  0  0
   -4.2586   15.9809  -11.0410 H   0  0  0  0  0  0  0  0  0  0  0  0
   -3.3524   14.9686   -9.0797 H   0  0  0  0  0  0  0  0  0  0  0  0
   -4.9575   13.2416   -9.3352 H   0  0  0  0  0  0  0  0  0  0  0  0
   -3.7371   12.2338  -10.1847 H   0  0  0  0  0  0  0  0  0  0  0  0
   -1.5721   13.5212   -9.2401 H   0  0  0  0  0  0  0  0  0  0  0  0
  1  2  1  0  0  0  0
  1  4  2  0  0  0  0
  1 12  1  0  0  0  0
  2  6  1  0  0  0  0
  3  4  1  0  0  0  0
  3  5  2  0  0  0  0
  5  6  1  0  0  0  0
  5  9  1  0  0  0  0
  6  7  2  0  0  0  0
  7  8  1  0  0  0  0
  7 10  1  0  0  0  0
  8  9  2  0  0  0  0
 10 14  1  0  0  0  0
 11 12  1  0  0  0  0
 11 24  1  0  0  0  0
 11 26  1  0  0  0  0
 12 13  2  0  0  0  0
 14 15  2  0  0  0  0
 14 19  1  0  0  0  0
 15 16  1  0  0  0  0
 16 17  2  0  0  0  0
 16 20  1  0  0  0  0
 17 18  1  0  0  0  0
 17 22  1  0  0  0  0
 18 19  2  0  0  0  0
 20 21  2  0  0  0  0
 21 22  1  0  0  0  0
 22 23  1  0  0  0  0
 24 25  1  0  0  0  0
 25 26  1  0  0  0  0
 25 27  1  0  0  0  0
  2 28  1  0  0  0  0
  2 29  1  0  0  0  0
  3 30  1  0  0  0  0
  4 31  1  0  0  0  0
 10 32  1  0  0  0  0
 10 33  1  0  0  0  0
 15 34  1  0  0  0  0
 18 35  1  0  0  0  0
 19 36  1  0  0  0  0
 20 37  1  0  0  0  0
 23 38  1  0  0  0  0
 23 39  1  0  0  0  0
 23 40  1  0  0  0  0
 24 41  1  0  0  0  0
 24 42  1  0  0  0  0
 25 43  1  0  0  0  0
 26 44  1  0  0  0  0
 26 45  1  0  0  0  0
 27 46  1  0  0  0  0
M  END
> <Name>
44

> <IC50[uM]>
0.004

$$$$
44
  -OEChem-05192314333D
 Structure written by MMmdl.
 46 50  0     1  0  0  0  0  0999 V2000
   -6.3932   12.3500  -12.0125 C   0  0  0  0  0  0  0  0  0  0  0  0
   -6.5644   11.7828  -10.7394 C   0  0  0  0  0  0  0  0  0  0  0  0
   -7.7358   10.5711  -13.0331 C   0  0  0  0  0  0  0  0  0  0  0  0
   -6.9954   11.7572  -13.1322 C   0  0  0  0  0  0  0  0  0  0  0  0
   -7.8242    9.9989  -11.7591 C   0  0  0  0  0  0  0  0  0  0  0  0
   -7.2585   10.6059  -10.6150 C   0  0  3  0  0  0  0  0  0  0  0  0
   -7.6168    9.7386   -9.5213 C   0  0  0  0  0  0  0  0  0  0  0  0
   -8.2709    8.7166   -9.9884 N   0  0  0  0  0  0  0  0  0  0  0  0
   -8.4108    8.8490  -11.3012 N   0  0  0  0  0  0  0  0  0  0  0  0
   -7.3306    9.8912   -8.0312 C   0  0  0  0  0  0  0  0  0  0  0  0
   -4.5413   13.8555  -11.3648 N   0  0  0  0  0  0  0  0  0  0  0  0
   -5.5934   13.6525  -12.1835 C   0  0  0  0  0  0  0  0  0  0  0  0
   -5.9232   14.4812  -13.0224 O   0  0  0  0  0  0  0  0  0  0  0  0
   -5.9508   10.4991   -7.7310 C   0  0  0  0  0  0  0  0  0  0  0  0
   -5.8673   11.7672   -7.1520 C   0  0  0  0  0  0  0  0  0  0  0  0
   -4.6035   12.3102   -6.9134 C   0  0  0  0  0  0  0  0  0  0  0  0
   -3.4392   11.5630   -7.2455 C   0  0  0  0  0  0  0  0  0  0  0  0
   -3.5146   10.2834   -7.8141 C   0  0  0  0  0  0  0  0  0  0  0  0
   -4.7998    9.7761   -8.0492 C   0  0  0  0  0  0  0  0  0  0  0  0
   -4.0885   13.5395   -6.3720 C   0  0  0  0  0  0  0  0  0  0  0  0
   -2.7847   13.5343   -6.3770 N   0  0  0  0  0  0  0  0  0  0  0  0
   -2.3791   12.3751   -6.8806 N   0  0  0  0  0  0  0  0  0  0  0  0
   -0.9494   12.1118   -6.9818 C   0  0  0  0  0  0  0  0  0  0  0  0
   -3.7091   15.0460  -11.2252 C   0  0  0  0  0  0  0  0  0  0  0  0
   -3.1570   14.3608   -9.9755 C   0  0  0  0  0  0  0  0  0  0  0  0
   -4.1684   13.2423  -10.1016 C   0  0  0  0  0  0  0  0  0  0  0  0
   -1.8246   13.9322  -10.0585 O   0  0  0  0  0  0  0  0  0  0  0  0
   -6.1536   12.2683   -9.8665 H   0  0  0  0  0  0  0  0  0  0  0  0
   -8.2120   10.1234  -13.8929 H   0  0  0  0  0  0  0  0  0  0  0  0
   -6.8855   12.2280  -14.0979 H   0  0  0  0  0  0  0  0  0  0  0  0
   -6.3295   10.0369  -10.7673 H   0  0  0  0  0  0  0  0  0  0  0  0
   -8.6144    7.9513   -9.4440 H   0  0  0  0  0  0  0  0  0  0  0  0
   -8.0297    9.6003   -7.2611 H   0  0  0  0  0  0  0  0  0  0  0  0
   -6.7611   12.3160   -6.8944 H   0  0  0  0  0  0  0  0  0  0  0  0
   -2.6276    9.7177   -8.0584 H   0  0  0  0  0  0  0  0  0  0  0  0
   -4.9028    8.7956   -8.4901 H   0  0  0  0  0  0  0  0  0  0  0  0
   -4.6981   14.3547   -6.0110 H   0  0  0  0  0  0  0  0  0  0  0  0
   -0.3887   12.9766   -6.5976 H   0  0  0  0  0  0  0  0  0  0  0  0
   -0.6982   11.2196   -6.3895 H   0  0  0  0  0  0  0  0  0  0  0  0
   -0.6820   11.9401   -8.0349 H   0  0  0  0  0  0  0  0  0  0  0  0
   -2.9790   15.2028  -12.0329 H   0  0  0  0  0  0  0  0  0  0  0  0
   -4.2586   15.9809  -11.0410 H   0  0  0  0  0  0  0  0  0  0  0  0
   -3.3524   14.9686   -9.0797 H   0  0  0  0  0  0  0  0  0  0  0  0
   -4.9575   13.2416   -9.3352 H   0  0  0  0  0  0  0  0  0  0  0  0
   -3.7371   12.2338  -10.1847 H   0  0  0  0  0  0  0  0  0  0  0  0
   -1.5721   13.5212   -9.2401 H   0  0  0  0  0  0  0  0  0  0  0  0
  1  2  2  0  0  0  0
  1  4  1  0  0  0  0
  1 12  1  0  0  0  0
  2  6  1  0  0  0  0
  3  4  2  0  0  0  0
  3  5  1  0  0  0  0
  5  6  1  0  0  0  0
  5  9  2  0  0  0  0
  6  7  1  0  0  0  0
  7  8  1  0  0  0  0
  7 10  2  3  0  0  0
  8  9  1  0  0  0  0
 10 14  1  0  0  0  0
 11 12  1  0  0  0  0
 11 24  1  0  0  0  0
 11 26  1  0  0  0  0
 12 13  2  0  0  0  0
 14 15  2  0  0  0  0
 14 19  1  0  0  0  0
 15 16  1  0  0  0  0
 16 17  2  0  0  0  0
 16 20  1  0  0  0  0
 17 18  1  0  0  0  0
 17 22  1  0  0  0  0
 18 19  2  0  0  0  0
 20 21  2  0  0  0  0
 21 22  1  0  0  0  0
 22 23  1  0  0  0  0
 24 25  1  0  0  0  0
 25 26  1  0  0  0  0
 25 27  1  0  0  0  0
  2 28  1  0  0  0  0
  3 29  1  0  0  0  0
  4 30  1  0  0  0  0
  6 31  1  0  0  0  0
  8 32  1  0  0  0  0
 10 33  1  0  0  0  0
 15 34  1  0  0  0  0
 18 35  1  0  0  0  0
 19 36  1  0  0  0  0
 20 37  1  0  0  0  0
 23 38  1  0  0  0  0
 23 39  1  0  0  0  0
 23 40  1  0  0  0  0
 24 41  1  0  0  0  0
 24 42  1  0  0  0  0
 25 43  1  0  0  0  0
 26 44  1  0  0  0  0
 26 45  1  0  0  0  0
 27 46  1  0  0  0  0
M  END
> <Name>
44

> <IC50[uM]>
0.004

$$$$
44
  -OEChem-05192314333D
 Structure written by MMmdl.
 46 50  0     1  0  0  0  0  0999 V2000
   -6.3932   12.3500  -12.0125 C   0  0  0  0  0  0  0  0  0  0  0  0
   -6.5644   11.7828  -10.7394 C   0  0  0  0  0  0  0  0  0  0  0  0
   -7.7358   10.5711  -13.0331 C   0  0  0  0  0  0  0  0  0  0  0  0
   -6.9954   11.7572  -13.1322 C   0  0  0  0  0  0  0  0  0  0  0  0
   -7.8242    9.9989  -11.7591 C   0  0  0  0  0  0  0  0  0  0  0  0
   -7.2585   10.6059  -10.6150 C   0  0  0  0  0  0  0  0  0  0  0  0
   -7.6168    9.7386   -9.5213 C   0  0  0  0  0  0  0  0  0  0  0  0
   -8.2709    8.7166   -9.9884 N   0  0  0  0  0  0  0  0  0  0  0  0
   -8.4108    8.8490  -11.3012 N   0  0  0  0  0  0  0  0  0  0  0  0
   -7.3306    9.8912   -8.0312 C   0  0  0  0  0  0  0  0  0  0  0  0
   -4.5413   13.8555  -11.3648 N   0  0  0  0  0  0  0  0  0  0  0  0
   -5.5934   13.6525  -12.1835 C   0  0  0  0  0  0  0  0  0  0  0  0
   -5.9232   14.4812  -13.0224 O   0  0  0  0  0  0  0  0  0  0  0  0
   -5.9508   10.4991   -7.7310 C   0  0  0  0  0  0  0  0  0  0  0  0
   -5.8673   11.7672   -7.1520 C   0  0  0  0  0  0  0  0  0  0  0  0
   -4.6035   12.3102   -6.9134 C   0  0  0  0  0  0  0  0  0  0  0  0
   -3.4392   11.5630   -7.2455 C   0  0  3  0  0  0  0  0  0  0  0  0
   -3.5146   10.2834   -7.8141 C   0  0  0  0  0  0  0  0  0  0  0  0
   -4.7998    9.7761   -8.0492 C   0  0  0  0  0  0  0  0  0  0  0  0
   -4.0885   13.5395   -6.3720 C   0  0  0  0  0  0  0  0  0  0  0  0
   -2.7847   13.5343   -6.3770 N   0  0  0  0  0  0  0  0  0  0  0  0
   -2.3791   12.3751   -6.8806 N   0  0  3  0  0  0  0  0  0  0  0  0
   -0.9494   12.1118   -6.9818 C   0  0  0  0  0  0  0  0  0  0  0  0
   -3.7091   15.0460  -11.2252 C   0  0  0  0  0  0  0  0  0  0  0  0
   -3.1570   14.3608   -9.9755 C   0  0  0  0  0  0  0  0  0  0  0  0
   -4.1684   13.2423  -10.1016 C   0  0  0  0  0  0  0  0  0  0  0  0
   -1.8246   13.9322  -10.0585 O   0  0  0  0  0  0  0  0  0  0  0  0
   -6.1536   12.2683   -9.8665 H   0  0  0  0  0  0  0  0  0  0  0  0
   -8.2120   10.1234  -13.8929 H   0  0  0  0  0  0  0  0  0  0  0  0
   -6.8855   12.2280  -14.0979 H   0  0  0  0  0  0  0  0  0  0  0  0
   -8.6144    7.9513   -9.4440 H   0  0  0  0  0  0  0  0  0  0  0  0
   -8.0297    9.6003   -7.2611 H   0  0  0  0  0  0  0  0  0  0  0  0
   -6.7611   12.3160   -6.8944 H   0  0  0  0  0  0  0  0  0  0  0  0
   -3.4374   12.0105   -8.2504 H   0  0  0  0  0  0  0  0  0  0  0  0
   -2.6276    9.7177   -8.0584 H   0  0  0  0  0  0  0  0  0  0  0  0
   -4.9028    8.7956   -8.4901 H   0  0  0  0  0  0  0  0  0  0  0  0
   -4.6981   14.3547   -6.0110 H   0  0  0  0  0  0  0  0  0  0  0  0
   -0.3887   12.9766   -6.5976 H   0  0  0  0  0  0  0  0  0  0  0  0
   -0.6982   11.2196   -6.3895 H   0  0  0  0  0  0  0  0  0  0  0  0
   -0.6820   11.9401   -8.0349 H   0  0  0  0  0  0  0  0  0  0  0  0
   -2.9790   15.2028  -12.0329 H   0  0  0  0  0  0  0  0  0  0  0  0
   -4.2586   15.9809  -11.0410 H   0  0  0  0  0  0  0  0  0  0  0  0
   -3.3524   14.9686   -9.0797 H   0  0  0  0  0  0  0  0  0  0  0  0
   -4.9575   13.2416   -9.3352 H   0  0  0  0  0  0  0  0  0  0  0  0
   -3.7371   12.2338  -10.1847 H   0  0  0  0  0  0  0  0  0  0  0  0
   -1.5721   13.5212   -9.2401 H   0  0  0  0  0  0  0  0  0  0  0  0
  1  2  2  0  0  0  0
  1  4  1  0  0  0  0
  1 12  1  0  0  0  0
  2  6  1  0  0  0  0
  3  4  2  0  0  0  0
  3  5  1  0  0  0  0
  5  6  1  0  0  0  0
  5  9  2  0  0  0  0
  6  7  2  0  0  0  0
  7  8  1  0  0  0  0
  7 10  1  0  0  0  0
  8  9  1  0  0  0  0
 10 14  2  3  0  0  0
 11 12  1  0  0  0  0
 11 24  1  0  0  0  0
 11 26  1  0  0  0  0
 12 13  2  0  0  0  0
 14 15  1  0  0  0  0
 14 19  1  0  0  0  0
 15 16  2  0  0  0  0
 16 17  1  0  0  0  0
 16 20  1  0  0  0  0
 17 18  1  0  0  0  0
 17 22  1  0  0  0  0
 18 19  2  0  0  0  0
 20 21  2  0  0  0  0
 21 22  1  0  0  0  0
 22 23  1  0  0  0  0
 24 25  1  0  0  0  0
 25 26  1  0  0  0  0
 25 27  1  0  0  0  0
  2 28  1  0  0  0  0
  3 29  1  0  0  0  0
  4 30  1  0  0  0  0
  8 31  1  0  0  0  0
 10 32  1  0  0  0  0
 15 33  1  0  0  0  0
 17 34  1  0  0  0  0
 18 35  1  0  0  0  0
 19 36  1  0  0  0  0
 20 37  1  0  0  0  0
 23 38  1  0  0  0  0
 23 39  1  0  0  0  0
 23 40  1  0  0  0  0
 24 41  1  0  0  0  0
 24 42  1  0  0  0  0
 25 43  1  0  0  0  0
 26 44  1  0  0  0  0
 26 45  1  0  0  0  0
 27 46  1  0  0  0  0
M  END
> <Name>
44

> <IC50[uM]>
0.004

$$$$
44
  -OEChem-05192314333D
 Structure written by MMmdl.
 46 50  0     1  0  0  0  0  0999 V2000
   -6.3932   12.3500  -12.0125 C   0  0  0  0  0  0  0  0  0  0  0  0
   -6.5644   11.7828  -10.7394 C   0  0  0  0  0  0  0  0  0  0  0  0
   -7.7358   10.5711  -13.0331 C   0  0  0  0  0  0  0  0  0  0  0  0
   -6.9954   11.7572  -13.1322 C   0  0  0  0  0  0  0  0  0  0  0  0
   -7.8242    9.9989  -11.7591 C   0  0  0  0  0  0  0  0  0  0  0  0
   -7.2585   10.6059  -10.6150 C   0  0  0  0  0  0  0  0  0  0  0  0
   -7.6168    9.7386   -9.5213 C   0  0  0  0  0  0  0  0  0  0  0  0
   -8.2709    8.7166   -9.9884 N   0  0  0  0  0  0  0  0  0  0  0  0
   -8.4108    8.8490  -11.3012 N   0  0  0  0  0  0  0  0  0  0  0  0
   -7.3306    9.8912   -8.0312 C   0  0  0  0  0  0  0  0  0  0  0  0
   -4.5413   13.8555  -11.3648 N   0  0  0  0  0  0  0  0  0  0  0  0
   -5.5934   13.6525  -12.1835 C   0  0  0  0  0  0  0  0  0  0  0  0
   -5.9232   14.4812  -13.0224 O   0  0  0  0  0  0  0  0  0  0  0  0
   -5.9508   10.4991   -7.7310 C   0  0  0  0  0  0  0  0  0  0  0  0
   -5.8673   11.7672   -7.1520 C   0  0  0  0  0  0  0  0  0  0  0  0
   -4.6035   12.3102   -6.9134 C   0  0  0  0  0  0  0  0  0  0  0  0
   -3.4392   11.5630   -7.2455 C   0  0  3  0  0  0  0  0  0  0  0  0
   -3.5146   10.2834   -7.8141 C   0  0  0  0  0  0  0  0  0  0  0  0
   -4.7998    9.7761   -8.0492 C   0  0  0  0  0  0  0  0  0  0  0  0
   -4.0885   13.5395   -6.3720 C   0  0  0  0  0  0  0  0  0  0  0  0
   -2.7847   13.5343   -6.3770 N   0  0  0  0  0  0  0  0  0  0  0  0
   -2.3791   12.3751   -6.8806 N   0  0  3  0  0  0  0  0  0  0  0  0
   -0.9494   12.1118   -6.9818 C   0  0  0  0  0  0  0  0  0  0  0  0
   -3.7091   15.0460  -11.2252 C   0  0  0  0  0  0  0  0  0  0  0  0
   -3.1570   14.3608   -9.9755 C   0  0  0  0  0  0  0  0  0  0  0  0
   -4.1684   13.2423  -10.1016 C   0  0  0  0  0  0  0  0  0  0  0  0
   -1.8246   13.9322  -10.0585 O   0  0  0  0  0  0  0  0  0  0  0  0
   -6.1536   12.2683   -9.8665 H   0  0  0  0  0  0  0  0  0  0  0  0
   -8.2120   10.1234  -13.8929 H   0  0  0  0  0  0  0  0  0  0  0  0
   -6.8855   12.2280  -14.0979 H   0  0  0  0  0  0  0  0  0  0  0  0
   -8.8860    8.1903  -11.8845 H   0  0  0  0  0  0  0  0  0  0  0  0
   -8.0297    9.6003   -7.2611 H   0  0  0  0  0  0  0  0  0  0  0  0
   -6.7611   12.3160   -6.8944 H   0  0  0  0  0  0  0  0  0  0  0  0
   -3.4374   12.0105   -8.2504 H   0  0  0  0  0  0  0  0  0  0  0  0
   -2.6276    9.7177   -8.0584 H   0  0  0  0  0  0  0  0  0  0  0  0
   -4.9028    8.7956   -8.4901 H   0  0  0  0  0  0  0  0  0  0  0  0
   -4.6981   14.3547   -6.0110 H   0  0  0  0  0  0  0  0  0  0  0  0
   -0.3887   12.9766   -6.5976 H   0  0  0  0  0  0  0  0  0  0  0  0
   -0.6982   11.2196   -6.3895 H   0  0  0  0  0  0  0  0  0  0  0  0
   -0.6820   11.9401   -8.0349 H   0  0  0  0  0  0  0  0  0  0  0  0
   -2.9790   15.2028  -12.0329 H   0  0  0  0  0  0  0  0  0  0  0  0
   -4.2586   15.9809  -11.0410 H   0  0  0  0  0  0  0  0  0  0  0  0
   -3.3524   14.9686   -9.0797 H   0  0  0  0  0  0  0  0  0  0  0  0
   -4.9575   13.2416   -9.3352 H   0  0  0  0  0  0  0  0  0  0  0  0
   -3.7371   12.2338  -10.1847 H   0  0  0  0  0  0  0  0  0  0  0  0
   -1.5721   13.5212   -9.2401 H   0  0  0  0  0  0  0  0  0  0  0  0
  1  2  2  0  0  0  0
  1  4  1  0  0  0  0
  1 12  1  0  0  0  0
  2  6  1  0  0  0  0
  3  4  2  0  0  0  0
  3  5  1  0  0  0  0
  5  6  2  0  0  0  0
  5  9  1  0  0  0  0
  6  7  1  0  0  0  0
  7  8  2  0  0  0  0
  7 10  1  0  0  0  0
  8  9  1  0  0  0  0
 10 14  2  3  0  0  0
 11 12  1  0  0  0  0
 11 24  1  0  0  0  0
 11 26  1  0  0  0  0
 12 13  2  0  0  0  0
 14 15  1  0  0  0  0
 14 19  1  0  0  0  0
 15 16  2  0  0  0  0
 16 17  1  0  0  0  0
 16 20  1  0  0  0  0
 17 18  1  0  0  0  0
 17 22  1  0  0  0  0
 18 19  2  0  0  0  0
 20 21  2  0  0  0  0
 21 22  1  0  0  0  0
 22 23  1  0  0  0  0
 24 25  1  0  0  0  0
 25 26  1  0  0  0  0
 25 27  1  0  0  0  0
  2 28  1  0  0  0  0
  3 29  1  0  0  0  0
  4 30  1  0  0  0  0
  9 31  1  0  0  0  0
 10 32  1  0  0  0  0
 15 33  1  0  0  0  0
 17 34  1  0  0  0  0
 18 35  1  0  0  0  0
 19 36  1  0  0  0  0
 20 37  1  0  0  0  0
 23 38  1  0  0  0  0
 23 39  1  0  0  0  0
 23 40  1  0  0  0  0
 24 41  1  0  0  0  0
 24 42  1  0  0  0  0
 25 43  1  0  0  0  0
 26 44  1  0  0  0  0
 26 45  1  0  0  0  0
 27 46  1  0  0  0  0
M  END
> <Name>
44

> <IC50[uM]>
0.004

$$$$
44
  -OEChem-05192314333D
 Structure written by MMmdl.
 46 50  0     1  0  0  0  0  0999 V2000
   -6.3932   12.3500  -12.0125 C   0  0  0  0  0  0  0  0  0  0  0  0
   -6.5644   11.7828  -10.7394 C   0  0  0  0  0  0  0  0  0  0  0  0
   -7.7358   10.5711  -13.0331 C   0  0  0  0  0  0  0  0  0  0  0  0
   -6.9954   11.7572  -13.1322 C   0  0  0  0  0  0  0  0  0  0  0  0
   -7.8242    9.9989  -11.7591 C   0  0  0  0  0  0  0  0  0  0  0  0
   -7.2585   10.6059  -10.6150 C   0  0  0  0  0  0  0  0  0  0  0  0
   -7.6168    9.7386   -9.5213 C   0  0  0  0  0  0  0  0  0  0  0  0
   -8.2709    8.7166   -9.9884 N   0  0  0  0  0  0  0  0  0  0  0  0
   -8.4108    8.8490  -11.3012 N   0  0  0  0  0  0  0  0  0  0  0  0
   -7.3306    9.8912   -8.0312 C   0  0  0  0  0  0  0  0  0  0  0  0
   -4.5413   13.8555  -11.3648 N   0  0  0  0  0  0  0  0  0  0  0  0
   -5.5934   13.6525  -12.1835 C   0  0  0  0  0  0  0  0  0  0  0  0
   -5.9232   14.4812  -13.0224 O   0  0  0  0  0  0  0  0  0  0  0  0
   -5.9508   10.4991   -7.7310 C   0  0  3  0  0  0  0  0  0  0  0  0
   -5.8673   11.7672   -7.1520 C   0  0  0  0  0  0  0  0  0  0  0  0
   -4.6035   12.3102   -6.9134 C   0  0  0  0  0  0  0  0  0  0  0  0
   -3.4392   11.5630   -7.2455 C   0  0  3  0  0  0  0  0  0  0  0  0
   -3.5146   10.2834   -7.8141 C   0  0  0  0  0  0  0  0  0  0  0  0
   -4.7998    9.7761   -8.0492 C   0  0  0  0  0  0  0  0  0  0  0  0
   -4.0885   13.5395   -6.3720 C   0  0  0  0  0  0  0  0  0  0  0  0
   -2.7847   13.5343   -6.3770 N   0  0  0  0  0  0  0  0  0  0  0  0
   -2.3791   12.3751   -6.8806 N   0  0  3  0  0  0  0  0  0  0  0  0
   -0.9494   12.1118   -6.9818 C   0  0  0  0  0  0  0  0  0  0  0  0
   -3.7091   15.0460  -11.2252 C   0  0  0  0  0  0  0  0  0  0  0  0
   -3.1570   14.3608   -9.9755 C   0  0  0  0  0  0  0  0  0  0  0  0
   -4.1684   13.2423  -10.1016 C   0  0  0  0  0  0  0  0  0  0  0  0
   -1.8246   13.9322  -10.0585 O   0  0  0  0  0  0  0  0  0  0  0  0
   -6.1536   12.2683   -9.8665 H   0  0  0  0  0  0  0  0  0  0  0  0
   -8.2120   10.1234  -13.8929 H   0  0  0  0  0  0  0  0  0  0  0  0
   -6.8855   12.2280  -14.0979 H   0  0  0  0  0  0  0  0  0  0  0  0
   -8.0297    9.6003   -7.2611 H   0  0  0  0  0  0  0  0  0  0  0  0
   -5.9645   10.0411   -6.7310 H   0  0  0  0  0  0  0  0  0  0  0  0
   -6.7611   12.3160   -6.8944 H   0  0  0  0  0  0  0  0  0  0  0  0
   -3.4374   12.0105   -8.2504 H   0  0  0  0  0  0  0  0  0  0  0  0
   -2.6276    9.7177   -8.0584 H   0  0  0  0  0  0  0  0  0  0  0  0
   -4.9028    8.7956   -8.4901 H   0  0  0  0  0  0  0  0  0  0  0  0
   -4.6981   14.3547   -6.0110 H   0  0  0  0  0  0  0  0  0  0  0  0
   -0.3887   12.9766   -6.5976 H   0  0  0  0  0  0  0  0  0  0  0  0
   -0.6982   11.2196   -6.3895 H   0  0  0  0  0  0  0  0  0  0  0  0
   -0.6820   11.9401   -8.0349 H   0  0  0  0  0  0  0  0  0  0  0  0
   -2.9790   15.2028  -12.0329 H   0  0  0  0  0  0  0  0  0  0  0  0
   -4.2586   15.9809  -11.0410 H   0  0  0  0  0  0  0  0  0  0  0  0
   -3.3524   14.9686   -9.0797 H   0  0  0  0  0  0  0  0  0  0  0  0
   -4.9575   13.2416   -9.3352 H   0  0  0  0  0  0  0  0  0  0  0  0
   -3.7371   12.2338  -10.1847 H   0  0  0  0  0  0  0  0  0  0  0  0
   -1.5721   13.5212   -9.2401 H   0  0  0  0  0  0  0  0  0  0  0  0
  1  2  2  0  0  0  0
  1  4  1  0  0  0  0
  1 12  1  0  0  0  0
  2  6  1  0  0  0  0
  3  4  2  0  0  0  0
  3  5  1  0  0  0  0
  5  6  2  0  0  0  0
  5  9  1  0  0  0  0
  6  7  1  0  0  0  0
  7  8  1  0  0  0  0
  7 10  2  3  0  0  0
  8  9  2  0  0  0  0
 10 14  1  0  0  0  0
 11 12  1  0  0  0  0
 11 24  1  0  0  0  0
 11 26  1  0  0  0  0
 12 13  2  0  0  0  0
 14 15  1  0  0  0  0
 14 19  1  0  0  0  0
 15 16  2  0  0  0  0
 16 17  1  0  0  0  0
 16 20  1  0  0  0  0
 17 18  1  0  0  0  0
 17 22  1  0  0  0  0
 18 19  2  0  0  0  0
 20 21  2  0  0  0  0
 21 22  1  0  0  0  0
 22 23  1  0  0  0  0
 24 25  1  0  0  0  0
 25 26  1  0  0  0  0
 25 27  1  0  0  0  0
  2 28  1  0  0  0  0
  3 29  1  0  0  0  0
  4 30  1  0  0  0  0
 10 31  1  0  0  0  0
 14 32  1  0  0  0  0
 15 33  1  0  0  0  0
 17 34  1  0  0  0  0
 18 35  1  0  0  0  0
 19 36  1  0  0  0  0
 20 37  1  0  0  0  0
 23 38  1  0  0  0  0
 23 39  1  0  0  0  0
 23 40  1  0  0  0  0
 24 41  1  0  0  0  0
 24 42  1  0  0  0  0
 25 43  1  0  0  0  0
 26 44  1  0  0  0  0
 26 45  1  0  0  0  0
 27 46  1  0  0  0  0
M  END
> <Name>
44

> <IC50[uM]>
0.004

$$$$
44
  -OEChem-05192314333D
 Structure written by MMmdl.
 46 50  0     1  0  0  0  0  0999 V2000
   -6.3932   12.3500  -12.0125 C   0  0  0  0  0  0  0  0  0  0  0  0
   -6.5644   11.7828  -10.7394 C   0  0  0  0  0  0  0  0  0  0  0  0
   -7.7358   10.5711  -13.0331 C   0  0  0  0  0  0  0  0  0  0  0  0
   -6.9954   11.7572  -13.1322 C   0  0  0  0  0  0  0  0  0  0  0  0
   -7.8242    9.9989  -11.7591 C   0  0  0  0  0  0  0  0  0  0  0  0
   -7.2585   10.6059  -10.6150 C   0  0  0  0  0  0  0  0  0  0  0  0
   -7.6168    9.7386   -9.5213 C   0  0  0  0  0  0  0  0  0  0  0  0
   -8.2709    8.7166   -9.9884 N   0  0  0  0  0  0  0  0  0  0  0  0
   -8.4108    8.8490  -11.3012 N   0  0  0  0  0  0  0  0  0  0  0  0
   -7.3306    9.8912   -8.0312 C   0  0  0  0  0  0  0  0  0  0  0  0
   -4.5413   13.8555  -11.3648 N   0  0  0  0  0  0  0  0  0  0  0  0
   -5.5934   13.6525  -12.1835 C   0  0  0  0  0  0  0  0  0  0  0  0
   -5.9232   14.4812  -13.0224 O   0  0  0  0  0  0  0  0  0  0  0  0
   -5.9508   10.4991   -7.7310 C   0  0  0  0  0  0  0  0  0  0  0  0
   -5.8673   11.7672   -7.1520 C   0  0  0  0  0  0  0  0  0  0  0  0
   -4.6035   12.3102   -6.9134 C   0  0  3  0  0  0  0  0  0  0  0  0
   -3.4392   11.5630   -7.2455 C   0  0  3  0  0  0  0  0  0  0  0  0
   -3.5146   10.2834   -7.8141 C   0  0  0  0  0  0  0  0  0  0  0  0
   -4.7998    9.7761   -8.0492 C   0  0  0  0  0  0  0  0  0  0  0  0
   -4.0885   13.5395   -6.3720 C   0  0  0  0  0  0  0  0  0  0  0  0
   -2.7847   13.5343   -6.3770 N   0  0  0  0  0  0  0  0  0  0  0  0
   -2.3791   12.3751   -6.8806 N   0  0  3  0  0  0  0  0  0  0  0  0
   -0.9494   12.1118   -6.9818 C   0  0  0  0  0  0  0  0  0  0  0  0
   -3.7091   15.0460  -11.2252 C   0  0  0  0  0  0  0  0  0  0  0  0
   -3.1570   14.3608   -9.9755 C   0  0  0  0  0  0  0  0  0  0  0  0
   -4.1684   13.2423  -10.1016 C   0  0  0  0  0  0  0  0  0  0  0  0
   -1.8246   13.9322  -10.0585 O   0  0  0  0  0  0  0  0  0  0  0  0
   -6.1536   12.2683   -9.8665 H   0  0  0  0  0  0  0  0  0  0  0  0
   -8.2120   10.1234  -13.8929 H   0  0  0  0  0  0  0  0  0  0  0  0
   -6.8855   12.2280  -14.0979 H   0  0  0  0  0  0  0  0  0  0  0  0
   -8.0297    9.6003   -7.2611 H   0  0  0  0  0  0  0  0  0  0  0  0
   -6.7611   12.3160   -6.8944 H   0  0  0  0  0  0  0  0  0  0  0  0
   -4.6021   11.8659   -5.9071 H   0  0  0  0  0  0  0  0  0  0  0  0
   -3.4374   12.0105   -8.2504 H   0  0  0  0  0  0  0  0  0  0  0  0
   -2.6276    9.7177   -8.0584 H   0  0  0  0  0  0  0  0  0  0  0  0
   -4.9028    8.7956   -8.4901 H   0  0  0  0  0  0  0  0  0  0  0  0
   -4.6981   14.3547   -6.0110 H   0  0  0  0  0  0  0  0  0  0  0  0
   -0.3887   12.9766   -6.5976 H   0  0  0  0  0  0  0  0  0  0  0  0
   -0.6982   11.2196   -6.3895 H   0  0  0  0  0  0  0  0  0  0  0  0
   -0.6820   11.9401   -8.0349 H   0  0  0  0  0  0  0  0  0  0  0  0
   -2.9790   15.2028  -12.0329 H   0  0  0  0  0  0  0  0  0  0  0  0
   -4.2586   15.9809  -11.0410 H   0  0  0  0  0  0  0  0  0  0  0  0
   -3.3524   14.9686   -9.0797 H   0  0  0  0  0  0  0  0  0  0  0  0
   -4.9575   13.2416   -9.3352 H   0  0  0  0  0  0  0  0  0  0  0  0
   -3.7371   12.2338  -10.1847 H   0  0  0  0  0  0  0  0  0  0  0  0
   -1.5721   13.5212   -9.2401 H   0  0  0  0  0  0  0  0  0  0  0  0
  1  2  2  0  0  0  0
  1  4  1  0  0  0  0
  1 12  1  0  0  0  0
  2  6  1  0  0  0  0
  3  4  2  0  0  0  0
  3  5  1  0  0  0  0
  5  6  2  0  0  0  0
  5  9  1  0  0  0  0
  6  7  1  0  0  0  0
  7  8  1  0  0  0  0
  7 10  2  3  0  0  0
  8  9  2  0  0  0  0
 10 14  1  0  0  0  0
 11 12  1  0  0  0  0
 11 24  1  0  0  0  0
 11 26  1  0  0  0  0
 12 13  2  0  0  0  0
 14 15  2  0  0  0  0
 14 19  1  0  0  0  0
 15 16  1  0  0  0  0
 16 17  1  0  0  0  0
 16 20  1  0  0  0  0
 17 18  1  0  0  0  0
 17 22  1  0  0  0  0
 18 19  2  0  0  0  0
 20 21  2  0  0  0  0
 21 22  1  0  0  0  0
 22 23  1  0  0  0  0
 24 25  1  0  0  0  0
 25 26  1  0  0  0  0
 25 27  1  0  0  0  0
  2 28  1  0  0  0  0
  3 29  1  0  0  0  0
  4 30  1  0  0  0  0
 10 31  1  0  0  0  0
 15 32  1  0  0  0  0
 16 33  1  0  0  0  0
 17 34  1  0  0  0  0
 18 35  1  0  0  0  0
 19 36  1  0  0  0  0
 20 37  1  0  0  0  0
 23 38  1  0  0  0  0
 23 39  1  0  0  0  0
 23 40  1  0  0  0  0
 24 41  1  0  0  0  0
 24 42  1  0  0  0  0
 25 43  1  0  0  0  0
 26 44  1  0  0  0  0
 26 45  1  0  0  0  0
 27 46  1  0  0  0  0
M  END
> <Name>
44

> <IC50[uM]>
0.004

$$$$
44
  -OEChem-05192314333D
 Structure written by MMmdl.
 46 50  0     1  0  0  0  0  0999 V2000
   -6.3932   12.3500  -12.0125 C   0  0  0  0  0  0  0  0  0  0  0  0
   -6.5644   11.7828  -10.7394 C   0  0  0  0  0  0  0  0  0  0  0  0
   -7.7358   10.5711  -13.0331 C   0  0  0  0  0  0  0  0  0  0  0  0
   -6.9954   11.7572  -13.1322 C   0  0  0  0  0  0  0  0  0  0  0  0
   -7.8242    9.9989  -11.7591 C   0  0  0  0  0  0  0  0  0  0  0  0
   -7.2585   10.6059  -10.6150 C   0  0  0  0  0  0  0  0  0  0  0  0
   -7.6168    9.7386   -9.5213 C   0  0  3  0  0  0  0  0  0  0  0  0
   -8.2709    8.7166   -9.9884 N   0  0  0  0  0  0  0  0  0  0  0  0
   -8.4108    8.8490  -11.3012 N   0  0  0  0  0  0  0  0  0  0  0  0
   -7.3306    9.8912   -8.0312 C   0  0  0  0  0  0  0  0  0  0  0  0
   -4.5413   13.8555  -11.3648 N   0  0  0  0  0  0  0  0  0  0  0  0
   -5.5934   13.6525  -12.1835 C   0  0  0  0  0  0  0  0  0  0  0  0
   -5.9232   14.4812  -13.0224 O   0  0  0  0  0  0  0  0  0  0  0  0
   -5.9508   10.4991   -7.7310 C   0  0  0  0  0  0  0  0  0  0  0  0
   -5.8673   11.7672   -7.1520 C   0  0  0  0  0  0  0  0  0  0  0  0
   -4.6035   12.3102   -6.9134 C   0  0  0  0  0  0  0  0  0  0  0  0
   -3.4392   11.5630   -7.2455 C   0  0  3  0  0  0  0  0  0  0  0  0
   -3.5146   10.2834   -7.8141 C   0  0  0  0  0  0  0  0  0  0  0  0
   -4.7998    9.7761   -8.0492 C   0  0  0  0  0  0  0  0  0  0  0  0
   -4.0885   13.5395   -6.3720 C   0  0  0  0  0  0  0  0  0  0  0  0
   -2.7847   13.5343   -6.3770 N   0  0  0  0  0  0  0  0  0  0  0  0
   -2.3791   12.3751   -6.8806 N   0  0  3  0  0  0  0  0  0  0  0  0
   -0.9494   12.1118   -6.9818 C   0  0  0  0  0  0  0  0  0  0  0  0
   -3.7091   15.0460  -11.2252 C   0  0  0  0  0  0  0  0  0  0  0  0
   -3.1570   14.3608   -9.9755 C   0  0  0  0  0  0  0  0  0  0  0  0
   -4.1684   13.2423  -10.1016 C   0  0  0  0  0  0  0  0  0  0  0  0
   -1.8246   13.9322  -10.0585 O   0  0  0  0  0  0  0  0  0  0  0  0
   -6.1536   12.2683   -9.8665 H   0  0  0  0  0  0  0  0  0  0  0  0
   -8.2120   10.1234  -13.8929 H   0  0  0  0  0  0  0  0  0  0  0  0
   -6.8855   12.2280  -14.0979 H   0  0  0  0  0  0  0  0  0  0  0  0
   -8.5622   10.2868   -9.3961 H   0  0  0  0  0  0  0  0  0  0  0  0
   -8.0297    9.6003   -7.2611 H   0  0  0  0  0  0  0  0  0  0  0  0
   -6.7611   12.3160   -6.8944 H   0  0  0  0  0  0  0  0  0  0  0  0
   -3.4374   12.0105   -8.2504 H   0  0  0  0  0  0  0  0  0  0  0  0
   -2.6276    9.7177   -8.0584 H   0  0  0  0  0  0  0  0  0  0  0  0
   -4.9028    8.7956   -8.4901 H   0  0  0  0  0  0  0  0  0  0  0  0
   -4.6981   14.3547   -6.0110 H   0  0  0  0  0  0  0  0  0  0  0  0
   -0.3887   12.9766   -6.5976 H   0  0  0  0  0  0  0  0  0  0  0  0
   -0.6982   11.2196   -6.3895 H   0  0  0  0  0  0  0  0  0  0  0  0
   -0.6820   11.9401   -8.0349 H   0  0  0  0  0  0  0  0  0  0  0  0
   -2.9790   15.2028  -12.0329 H   0  0  0  0  0  0  0  0  0  0  0  0
   -4.2586   15.9809  -11.0410 H   0  0  0  0  0  0  0  0  0  0  0  0
   -3.3524   14.9686   -9.0797 H   0  0  0  0  0  0  0  0  0  0  0  0
   -4.9575   13.2416   -9.3352 H   0  0  0  0  0  0  0  0  0  0  0  0
   -3.7371   12.2338  -10.1847 H   0  0  0  0  0  0  0  0  0  0  0  0
   -1.5721   13.5212   -9.2401 H   0  0  0  0  0  0  0  0  0  0  0  0
  1  2  2  0  0  0  0
  1  4  1  0  0  0  0
  1 12  1  0  0  0  0
  2  6  1  0  0  0  0
  3  4  2  0  0  0  0
  3  5  1  0  0  0  0
  5  6  2  0  0  0  0
  5  9  1  0  0  0  0
  6  7  1  0  0  0  0
  7  8  1  0  0  0  0
  7 10  1  0  0  0  0
  8  9  2  0  0  0  0
 10 14  2  3  0  0  0
 11 12  1  0  0  0  0
 11 24  1  0  0  0  0
 11 26  1  0  0  0  0
 12 13  2  0  0  0  0
 14 15  1  0  0  0  0
 14 19  1  0  0  0  0
 15 16  2  0  0  0  0
 16 17  1  0  0  0  0
 16 20  1  0  0  0  0
 17 18  1  0  0  0  0
 17 22  1  0  0  0  0
 18 19  2  0  0  0  0
 20 21  2  0  0  0  0
 21 22  1  0  0  0  0
 22 23  1  0  0  0  0
 24 25  1  0  0  0  0
 25 26  1  0  0  0  0
 25 27  1  0  0  0  0
  2 28  1  0  0  0  0
  3 29  1  0  0  0  0
  4 30  1  0  0  0  0
  7 31  1  0  0  0  0
 10 32  1  0  0  0  0
 15 33  1  0  0  0  0
 17 34  1  0  0  0  0
 18 35  1  0  0  0  0
 19 36  1  0  0  0  0
 20 37  1  0  0  0  0
 23 38  1  0  0  0  0
 23 39  1  0  0  0  0
 23 40  1  0  0  0  0
 24 41  1  0  0  0  0
 24 42  1  0  0  0  0
 25 43  1  0  0  0  0
 26 44  1  0  0  0  0
 26 45  1  0  0  0  0
 27 46  1  0  0  0  0
M  END
> <Name>
44

> <IC50[uM]>
0.004

$$$$
44
  -OEChem-05192314333D
 Structure written by MMmdl.
 46 50  0     1  0  0  0  0  0999 V2000
   -6.3932   12.3500  -12.0125 C   0  0  0  0  0  0  0  0  0  0  0  0
   -6.5644   11.7828  -10.7394 C   0  0  0  0  0  0  0  0  0  0  0  0
   -7.7358   10.5711  -13.0331 C   0  0  0  0  0  0  0  0  0  0  0  0
   -6.9954   11.7572  -13.1322 C   0  0  0  0  0  0  0  0  0  0  0  0
   -7.8242    9.9989  -11.7591 C   0  0  0  0  0  0  0  0  0  0  0  0
   -7.2585   10.6059  -10.6150 C   0  0  0  0  0  0  0  0  0  0  0  0
   -7.6168    9.7386   -9.5213 C   0  0  0  0  0  0  0  0  0  0  0  0
   -8.2709    8.7166   -9.9884 N   0  0  0  0  0  0  0  0  0  0  0  0
   -8.4108    8.8490  -11.3012 N   0  0  0  0  0  0  0  0  0  0  0  0
   -7.3306    9.8912   -8.0312 C   0  0  0  0  0  0  0  0  0  0  0  0
   -4.5413   13.8555  -11.3648 N   0  0  0  0  0  0  0  0  0  0  0  0
   -5.5934   13.6525  -12.1835 C   0  0  0  0  0  0  0  0  0  0  0  0
   -5.9232   14.4812  -13.0224 O   0  0  0  0  0  0  0  0  0  0  0  0
   -5.9508   10.4991   -7.7310 C   0  0  0  0  0  0  0  0  0  0  0  0
   -5.8673   11.7672   -7.1520 C   0  0  0  0  0  0  0  0  0  0  0  0
   -4.6035   12.3102   -6.9134 C   0  0  0  0  0  0  0  0  0  0  0  0
   -3.4392   11.5630   -7.2455 C   0  0  3  0  0  0  0  0  0  0  0  0
   -3.5146   10.2834   -7.8141 C   0  0  0  0  0  0  0  0  0  0  0  0
   -4.7998    9.7761   -8.0492 C   0  0  0  0  0  0  0  0  0  0  0  0
   -4.0885   13.5395   -6.3720 C   0  0  0  0  0  0  0  0  0  0  0  0
   -2.7847   13.5343   -6.3770 N   0  0  0  0  0  0  0  0  0  0  0  0
   -2.3791   12.3751   -6.8806 N   0  0  3  0  0  0  0  0  0  0  0  0
   -0.9494   12.1118   -6.9818 C   0  0  0  0  0  0  0  0  0  0  0  0
   -3.7091   15.0460  -11.2252 C   0  0  0  0  0  0  0  0  0  0  0  0
   -3.1570   14.3608   -9.9755 C   0  0  0  0  0  0  0  0  0  0  0  0
   -4.1684   13.2423  -10.1016 C   0  0  0  0  0  0  0  0  0  0  0  0
   -1.8246   13.9322  -10.0585 O   0  0  0  0  0  0  0  0  0  0  0  0
   -6.1536   12.2683   -9.8665 H   0  0  0  0  0  0  0  0  0  0  0  0
   -8.2120   10.1234  -13.8929 H   0  0  0  0  0  0  0  0  0  0  0  0
   -6.8855   12.2280  -14.0979 H   0  0  0  0  0  0  0  0  0  0  0  0
   -8.0297    9.6003   -7.2611 H   0  0  0  0  0  0  0  0  0  0  0  0
   -6.7611   12.3160   -6.8944 H   0  0  0  0  0  0  0  0  0  0  0  0
   -3.4374   12.0105   -8.2504 H   0  0  0  0  0  0  0  0  0  0  0  0
   -2.9867   10.3151   -8.7786 H   0  0  0  0  0  0  0  0  0  0  0  0
   -2.9994    9.5863   -7.1369 H   0  0  0  0  0  0  0  0  0  0  0  0
   -4.9028    8.7956   -8.4901 H   0  0  0  0  0  0  0  0  0  0  0  0
   -4.6981   14.3547   -6.0110 H   0  0  0  0  0  0  0  0  0  0  0  0
   -0.3887   12.9766   -6.5976 H   0  0  0  0  0  0  0  0  0  0  0  0
   -0.6982   11.2196   -6.3895 H   0  0  0  0  0  0  0  0  0  0  0  0
   -0.6820   11.9401   -8.0349 H   0  0  0  0  0  0  0  0  0  0  0  0
   -2.9790   15.2028  -12.0329 H   0  0  0  0  0  0  0  0  0  0  0  0
   -4.2586   15.9809  -11.0410 H   0  0  0  0  0  0  0  0  0  0  0  0
   -3.3524   14.9686   -9.0797 H   0  0  0  0  0  0  0  0  0  0  0  0
   -4.9575   13.2416   -9.3352 H   0  0  0  0  0  0  0  0  0  0  0  0
   -3.7371   12.2338  -10.1847 H   0  0  0  0  0  0  0  0  0  0  0  0
   -1.5721   13.5212   -9.2401 H   0  0  0  0  0  0  0  0  0  0  0  0
  1  2  2  0  0  0  0
  1  4  1  0  0  0  0
  1 12  1  0  0  0  0
  2  6  1  0  0  0  0
  3  4  2  0  0  0  0
  3  5  1  0  0  0  0
  5  6  2  0  0  0  0
  5  9  1  0  0  0  0
  6  7  1  0  0  0  0
  7  8  1  0  0  0  0
  7 10  2  3  0  0  0
  8  9  2  0  0  0  0
 10 14  1  0  0  0  0
 11 12  1  0  0  0  0
 11 24  1  0  0  0  0
 11 26  1  0  0  0  0
 12 13  2  0  0  0  0
 14 15  1  0  0  0  0
 14 19  2  0  0  0  0
 15 16  2  0  0  0  0
 16 17  1  0  0  0  0
 16 20  1  0  0  0  0
 17 18  1  0  0  0  0
 17 22  1  0  0  0  0
 18 19  1  0  0  0  0
 20 21  2  0  0  0  0
 21 22  1  0  0  0  0
 22 23  1  0  0  0  0
 24 25  1  0  0  0  0
 25 26  1  0  0  0  0
 25 27  1  0  0  0  0
  2 28  1  0  0  0  0
  3 29  1  0  0  0  0
  4 30  1  0  0  0  0
 10 31  1  0  0  0  0
 15 32  1  0  0  0  0
 17 33  1  0  0  0  0
 18 34  1  0  0  0  0
 18 35  1  0  0  0  0
 19 36  1  0  0  0  0
 20 37  1  0  0  0  0
 23 38  1  0  0  0  0
 23 39  1  0  0  0  0
 23 40  1  0  0  0  0
 24 41  1  0  0  0  0
 24 42  1  0  0  0  0
 25 43  1  0  0  0  0
 26 44  1  0  0  0  0
 26 45  1  0  0  0  0
 27 46  1  0  0  0  0
M  END
> <Name>
44

> <IC50[uM]>
0.004

$$$$
44
  -OEChem-05192314333D
 Structure written by MMmdl.
 46 50  0     1  0  0  0  0  0999 V2000
   -6.3932   12.3500  -12.0125 C   0  0  0  0  0  0  0  0  0  0  0  0
   -6.5644   11.7828  -10.7394 C   0  0  0  0  0  0  0  0  0  0  0  0
   -7.7358   10.5711  -13.0331 C   0  0  0  0  0  0  0  0  0  0  0  0
   -6.9954   11.7572  -13.1322 C   0  0  0  0  0  0  0  0  0  0  0  0
   -7.8242    9.9989  -11.7591 C   0  0  0  0  0  0  0  0  0  0  0  0
   -7.2585   10.6059  -10.6150 C   0  0  0  0  0  0  0  0  0  0  0  0
   -7.6168    9.7386   -9.5213 C   0  0  0  0  0  0  0  0  0  0  0  0
   -8.2709    8.7166   -9.9884 N   0  0  0  0  0  0  0  0  0  0  0  0
   -8.4108    8.8490  -11.3012 N   0  0  0  0  0  0  0  0  0  0  0  0
   -7.3306    9.8912   -8.0312 C   0  0  0  0  0  0  0  0  0  0  0  0
   -4.5413   13.8555  -11.3648 N   0  0  0  0  0  0  0  0  0  0  0  0
   -5.5934   13.6525  -12.1835 C   0  0  0  0  0  0  0  0  0  0  0  0
   -5.9232   14.4812  -13.0224 O   0  0  0  0  0  0  0  0  0  0  0  0
   -5.9508   10.4991   -7.7310 C   0  0  0  0  0  0  0  0  0  0  0  0
   -5.8673   11.7672   -7.1520 C   0  0  0  0  0  0  0  0  0  0  0  0
   -4.6035   12.3102   -6.9134 C   0  0  3  0  0  0  0  0  0  0  0  0
   -3.4392   11.5630   -7.2455 C   0  0  0  0  0  0  0  0  0  0  0  0
   -3.5146   10.2834   -7.8141 C   0  0  0  0  0  0  0  0  0  0  0  0
   -4.7998    9.7761   -8.0492 C   0  0  0  0  0  0  0  0  0  0  0  0
   -4.0885   13.5395   -6.3720 C   0  0  0  0  0  0  0  0  0  0  0  0
   -2.7847   13.5343   -6.3770 N   0  0  0  0  0  0  0  0  0  0  0  0
   -2.3791   12.3751   -6.8806 N   0  0  0  0  0  0  0  0  0  0  0  0
   -0.9494   12.1118   -6.9818 C   0  0  0  0  0  0  0  0  0  0  0  0
   -3.7091   15.0460  -11.2252 C   0  0  0  0  0  0  0  0  0  0  0  0
   -3.1570   14.3608   -9.9755 C   0  0  0  0  0  0  0  0  0  0  0  0
   -4.1684   13.2423  -10.1016 C   0  0  0  0  0  0  0  0  0  0  0  0
   -1.8246   13.9322  -10.0585 O   0  0  0  0  0  0  0  0  0  0  0  0
   -6.1536   12.2683   -9.8665 H   0  0  0  0  0  0  0  0  0  0  0  0
   -8.2120   10.1234  -13.8929 H   0  0  0  0  0  0  0  0  0  0  0  0
   -6.8855   12.2280  -14.0979 H   0  0  0  0  0  0  0  0  0  0  0  0
   -8.0297    9.6003   -7.2611 H   0  0  0  0  0  0  0  0  0  0  0  0
   -6.7611   12.3160   -6.8944 H   0  0  0  0  0  0  0  0  0  0  0  0
   -4.6021   11.8659   -5.9071 H   0  0  0  0  0  0  0  0  0  0  0  0
   -2.6276    9.7177   -8.0584 H   0  0  0  0  0  0  0  0  0  0  0  0
   -4.8650    8.8316   -7.4892 H   0  0  0  0  0  0  0  0  0  0  0  0
   -4.8558    9.5675   -9.1278 H   0  0  0  0  0  0  0  0  0  0  0  0
   -4.6981   14.3547   -6.0110 H   0  0  0  0  0  0  0  0  0  0  0  0
   -0.3887   12.9766   -6.5976 H   0  0  0  0  0  0  0  0  0  0  0  0
   -0.6982   11.2196   -6.3895 H   0  0  0  0  0  0  0  0  0  0  0  0
   -0.6820   11.9401   -8.0349 H   0  0  0  0  0  0  0  0  0  0  0  0
   -2.9790   15.2028  -12.0329 H   0  0  0  0  0  0  0  0  0  0  0  0
   -4.2586   15.9809  -11.0410 H   0  0  0  0  0  0  0  0  0  0  0  0
   -3.3524   14.9686   -9.0797 H   0  0  0  0  0  0  0  0  0  0  0  0
   -4.9575   13.2416   -9.3352 H   0  0  0  0  0  0  0  0  0  0  0  0
   -3.7371   12.2338  -10.1847 H   0  0  0  0  0  0  0  0  0  0  0  0
   -1.5721   13.5212   -9.2401 H   0  0  0  0  0  0  0  0  0  0  0  0
  1  2  2  0  0  0  0
  1  4  1  0  0  0  0
  1 12  1  0  0  0  0
  2  6  1  0  0  0  0
  3  4  2  0  0  0  0
  3  5  1  0  0  0  0
  5  6  2  0  0  0  0
  5  9  1  0  0  0  0
  6  7  1  0  0  0  0
  7  8  1  0  0  0  0
  7 10  2  3  0  0  0
  8  9  2  0  0  0  0
 10 14  1  0  0  0  0
 11 12  1  0  0  0  0
 11 24  1  0  0  0  0
 11 26  1  0  0  0  0
 12 13  2  0  0  0  0
 14 15  2  0  0  0  0
 14 19  1  0  0  0  0
 15 16  1  0  0  0  0
 16 17  1  0  0  0  0
 16 20  1  0  0  0  0
 17 18  2  0  0  0  0
 17 22  1  0  0  0  0
 18 19  1  0  0  0  0
 20 21  2  0  0  0  0
 21 22  1  0  0  0  0
 22 23  1  0  0  0  0
 24 25  1  0  0  0  0
 25 26  1  0  0  0  0
 25 27  1  0  0  0  0
  2 28  1  0  0  0  0
  3 29  1  0  0  0  0
  4 30  1  0  0  0  0
 10 31  1  0  0  0  0
 15 32  1  0  0  0  0
 16 33  1  0  0  0  0
 18 34  1  0  0  0  0
 19 35  1  0  0  0  0
 19 36  1  0  0  0  0
 20 37  1  0  0  0  0
 23 38  1  0  0  0  0
 23 39  1  0  0  0  0
 23 40  1  0  0  0  0
 24 41  1  0  0  0  0
 24 42  1  0  0  0  0
 25 43  1  0  0  0  0
 26 44  1  0  0  0  0
 26 45  1  0  0  0  0
 27 46  1  0  0  0  0
M  END
> <Name>
44

> <IC50[uM]>
0.004

$$$$
44
  -OEChem-05192314333D
 Structure written by MMmdl.
 46 50  0     1  0  0  0  0  0999 V2000
   -6.3932   12.3500  -12.0125 C   0  0  0  0  0  0  0  0  0  0  0  0
   -6.5644   11.7828  -10.7394 C   0  0  0  0  0  0  0  0  0  0  0  0
   -7.7358   10.5711  -13.0331 C   0  0  0  0  0  0  0  0  0  0  0  0
   -6.9954   11.7572  -13.1322 C   0  0  0  0  0  0  0  0  0  0  0  0
   -7.8242    9.9989  -11.7591 C   0  0  0  0  0  0  0  0  0  0  0  0
   -7.2585   10.6059  -10.6150 C   0  0  0  0  0  0  0  0  0  0  0  0
   -7.6168    9.7386   -9.5213 C   0  0  0  0  0  0  0  0  0  0  0  0
   -8.2709    8.7166   -9.9884 N   0  0  0  0  0  0  0  0  0  0  0  0
   -8.4108    8.8490  -11.3012 N   0  0  0  0  0  0  0  0  0  0  0  0
   -7.3306    9.8912   -8.0312 C   0  0  0  0  0  0  0  0  0  0  0  0
   -4.5413   13.8555  -11.3648 N   0  0  0  0  0  0  0  0  0  0  0  0
   -5.5934   13.6525  -12.1835 C   0  0  0  0  0  0  0  0  0  0  0  0
   -5.9232   14.4812  -13.0224 O   0  0  0  0  0  0  0  0  0  0  0  0
   -5.9508   10.4991   -7.7310 C   0  0  0  0  0  0  0  0  0  0  0  0
   -5.8673   11.7672   -7.1520 C   0  0  0  0  0  0  0  0  0  0  0  0
   -4.6035   12.3102   -6.9134 C   0  0  3  0  0  0  0  0  0  0  0  0
   -3.4392   11.5630   -7.2455 C   0  0  0  0  0  0  0  0  0  0  0  0
   -3.5146   10.2834   -7.8141 C   0  0  0  0  0  0  0  0  0  0  0  0
   -4.7998    9.7761   -8.0492 C   0  0  0  0  0  0  0  0  0  0  0  0
   -4.0885   13.5395   -6.3720 C   0  0  0  0  0  0  0  0  0  0  0  0
   -2.7847   13.5343   -6.3770 N   0  0  0  0  0  0  0  0  0  0  0  0
   -2.3791   12.3751   -6.8806 N   0  0  0  0  0  0  0  0  0  0  0  0
   -0.9494   12.1118   -6.9818 C   0  0  0  0  0  0  0  0  0  0  0  0
   -3.7091   15.0460  -11.2252 C   0  0  0  0  0  0  0  0  0  0  0  0
   -3.1570   14.3608   -9.9755 C   0  0  0  0  0  0  0  0  0  0  0  0
   -4.1684   13.2423  -10.1016 C   0  0  0  0  0  0  0  0  0  0  0  0
   -1.8246   13.9322  -10.0585 O   0  0  0  0  0  0  0  0  0  0  0  0
   -6.1536   12.2683   -9.8665 H   0  0  0  0  0  0  0  0  0  0  0  0
   -8.2120   10.1234  -13.8929 H   0  0  0  0  0  0  0  0  0  0  0  0
   -6.8855   12.2280  -14.0979 H   0  0  0  0  0  0  0  0  0  0  0  0
   -8.0297    9.6003   -7.2611 H   0  0  0  0  0  0  0  0  0  0  0  0
   -6.3991   12.4633   -7.8173 H   0  0  0  0  0  0  0  0  0  0  0  0
   -6.3867   11.7165   -6.1837 H   0  0  0  0  0  0  0  0  0  0  0  0
   -4.6021   11.8659   -5.9071 H   0  0  0  0  0  0  0  0  0  0  0  0
   -2.6276    9.7177   -8.0584 H   0  0  0  0  0  0  0  0  0  0  0  0
   -4.9028    8.7956   -8.4901 H   0  0  0  0  0  0  0  0  0  0  0  0
   -4.6981   14.3547   -6.0110 H   0  0  0  0  0  0  0  0  0  0  0  0
   -0.3887   12.9766   -6.5976 H   0  0  0  0  0  0  0  0  0  0  0  0
   -0.6982   11.2196   -6.3895 H   0  0  0  0  0  0  0  0  0  0  0  0
   -0.6820   11.9401   -8.0349 H   0  0  0  0  0  0  0  0  0  0  0  0
   -2.9790   15.2028  -12.0329 H   0  0  0  0  0  0  0  0  0  0  0  0
   -4.2586   15.9809  -11.0410 H   0  0  0  0  0  0  0  0  0  0  0  0
   -3.3524   14.9686   -9.0797 H   0  0  0  0  0  0  0  0  0  0  0  0
   -4.9575   13.2416   -9.3352 H   0  0  0  0  0  0  0  0  0  0  0  0
   -3.7371   12.2338  -10.1847 H   0  0  0  0  0  0  0  0  0  0  0  0
   -1.5721   13.5212   -9.2401 H   0  0  0  0  0  0  0  0  0  0  0  0
  1  2  2  0  0  0  0
  1  4  1  0  0  0  0
  1 12  1  0  0  0  0
  2  6  1  0  0  0  0
  3  4  2  0  0  0  0
  3  5  1  0  0  0  0
  5  6  2  0  0  0  0
  5  9  1  0  0  0  0
  6  7  1  0  0  0  0
  7  8  1  0  0  0  0
  7 10  2  3  0  0  0
  8  9  2  0  0  0  0
 10 14  1  0  0  0  0
 11 12  1  0  0  0  0
 11 24  1  0  0  0  0
 11 26  1  0  0  0  0
 12 13  2  0  0  0  0
 14 15  1  0  0  0  0
 14 19  2  0  0  0  0
 15 16  1  0  0  0  0
 16 17  1  0  0  0  0
 16 20  1  0  0  0  0
 17 18  2  0  0  0  0
 17 22  1  0  0  0  0
 18 19  1  0  0  0  0
 20 21  2  0  0  0  0
 21 22  1  0  0  0  0
 22 23  1  0  0  0  0
 24 25  1  0  0  0  0
 25 26  1  0  0  0  0
 25 27  1  0  0  0  0
  2 28  1  0  0  0  0
  3 29  1  0  0  0  0
  4 30  1  0  0  0  0
 10 31  1  0  0  0  0
 15 32  1  0  0  0  0
 15 33  1  0  0  0  0
 16 34  1  0  0  0  0
 18 35  1  0  0  0  0
 19 36  1  0  0  0  0
 20 37  1  0  0  0  0
 23 38  1  0  0  0  0
 23 39  1  0  0  0  0
 23 40  1  0  0  0  0
 24 41  1  0  0  0  0
 24 42  1  0  0  0  0
 25 43  1  0  0  0  0
 26 44  1  0  0  0  0
 26 45  1  0  0  0  0
 27 46  1  0  0  0  0
M  END
> <Name>
44

> <IC50[uM]>
0.004

$$$$
44
  -OEChem-05192314333D
 Structure written by MMmdl.
 46 50  0     1  0  0  0  0  0999 V2000
   -6.3932   12.3500  -12.0125 C   0  0  0  0  0  0  0  0  0  0  0  0
   -6.5644   11.7828  -10.7394 C   0  0  0  0  0  0  0  0  0  0  0  0
   -7.7358   10.5711  -13.0331 C   0  0  0  0  0  0  0  0  0  0  0  0
   -6.9954   11.7572  -13.1322 C   0  0  0  0  0  0  0  0  0  0  0  0
   -7.8242    9.9989  -11.7591 C   0  0  0  0  0  0  0  0  0  0  0  0
   -7.2585   10.6059  -10.6150 C   0  0  0  0  0  0  0  0  0  0  0  0
   -7.6168    9.7386   -9.5213 C   0  0  0  0  0  0  0  0  0  0  0  0
   -8.2709    8.7166   -9.9884 N   0  0  0  0  0  0  0  0  0  0  0  0
   -8.4108    8.8490  -11.3012 N   0  0  0  0  0  0  0  0  0  0  0  0
   -7.3306    9.8912   -8.0312 C   0  0  0  0  0  0  0  0  0  0  0  0
   -4.5413   13.8555  -11.3648 N   0  0  0  0  0  0  0  0  0  0  0  0
   -5.5934   13.6525  -12.1835 C   0  0  0  0  0  0  0  0  0  0  0  0
   -5.9232   14.4812  -13.0224 O   0  0  0  0  0  0  0  0  0  0  0  0
   -5.9508   10.4991   -7.7310 C   0  0  0  0  0  0  0  0  0  0  0  0
   -5.8673   11.7672   -7.1520 C   0  0  0  0  0  0  0  0  0  0  0  0
   -4.6035   12.3102   -6.9134 C   0  0  0  0  0  0  0  0  0  0  0  0
   -3.4392   11.5630   -7.2455 C   0  0  3  0  0  0  0  0  0  0  0  0
   -3.5146   10.2834   -7.8141 C   0  0  0  0  0  0  0  0  0  0  0  0
   -4.7998    9.7761   -8.0492 C   0  0  0  0  0  0  0  0  0  0  0  0
   -4.0885   13.5395   -6.3720 C   0  0  0  0  0  0  0  0  0  0  0  0
   -2.7847   13.5343   -6.3770 N   0  0  0  0  0  0  0  0  0  0  0  0
   -2.3791   12.3751   -6.8806 N   0  0  3  0  0  0  0  0  0  0  0  0
   -0.9494   12.1118   -6.9818 C   0  0  0  0  0  0  0  0  0  0  0  0
   -3.7091   15.0460  -11.2252 C   0  0  0  0  0  0  0  0  0  0  0  0
   -3.1570   14.3608   -9.9755 C   0  0  0  0  0  0  0  0  0  0  0  0
   -4.1684   13.2423  -10.1016 C   0  0  0  0  0  0  0  0  0  0  0  0
   -1.8246   13.9322  -10.0585 O   0  0  0  0  0  0  0  0  0  0  0  0
   -6.1536   12.2683   -9.8665 H   0  0  0  0  0  0  0  0  0  0  0  0
   -8.2120   10.1234  -13.8929 H   0  0  0  0  0  0  0  0  0  0  0  0
   -6.8855   12.2280  -14.0979 H   0  0  0  0  0  0  0  0  0  0  0  0
   -8.0297    9.6003   -7.2611 H   0  0  0  0  0  0  0  0  0  0  0  0
   -6.7611   12.3160   -6.8944 H   0  0  0  0  0  0  0  0  0  0  0  0
   -3.4374   12.0105   -8.2504 H   0  0  0  0  0  0  0  0  0  0  0  0
   -2.6276    9.7177   -8.0584 H   0  0  0  0  0  0  0  0  0  0  0  0
   -4.9028    8.7956   -8.4901 H   0  0  0  0  0  0  0  0  0  0  0  0
   -4.6981   14.3547   -6.0110 H   0  0  0  0  0  0  0  0  0  0  0  0
   -2.4449   14.2866   -6.9414 H   0  0  0  0  0  0  0  0  0  0  0  0
   -0.3887   12.9770   -6.5985 H   0  0  0  0  0  0  0  0  0  0  0  0
   -0.6980   11.2202   -6.3887 H   0  0  0  0  0  0  0  0  0  0  0  0
   -0.6821   11.9391   -8.0348 H   0  0  0  0  0  0  0  0  0  0  0  0
   -2.9790   15.2028  -12.0329 H   0  0  0  0  0  0  0  0  0  0  0  0
   -4.2586   15.9809  -11.0410 H   0  0  0  0  0  0  0  0  0  0  0  0
   -3.3524   14.9686   -9.0797 H   0  0  0  0  0  0  0  0  0  0  0  0
   -4.9575   13.2416   -9.3352 H   0  0  0  0  0  0  0  0  0  0  0  0
   -3.7371   12.2338  -10.1847 H   0  0  0  0  0  0  0  0  0  0  0  0
   -1.5721   13.5212   -9.2401 H   0  0  0  0  0  0  0  0  0  0  0  0
  1  2  2  0  0  0  0
  1  4  1  0  0  0  0
  1 12  1  0  0  0  0
  2  6  1  0  0  0  0
  3  4  2  0  0  0  0
  3  5  1  0  0  0  0
  5  6  2  0  0  0  0
  5  9  1  0  0  0  0
  6  7  1  0  0  0  0
  7  8  1  0  0  0  0
  7 10  2  3  0  0  0
  8  9  2  0  0  0  0
 10 14  1  0  0  0  0
 11 12  1  0  0  0  0
 11 24  1  0  0  0  0
 11 26  1  0  0  0  0
 12 13  2  0  0  0  0
 14 15  2  0  0  0  0
 14 19  1  0  0  0  0
 15 16  1  0  0  0  0
 16 17  1  0  0  0  0
 16 20  2  0  0  0  0
 17 18  1  0  0  0  0
 17 22  1  0  0  0  0
 18 19  2  0  0  0  0
 20 21  1  0  0  0  0
 21 22  1  0  0  0  0
 22 23  1  0  0  0  0
 24 25  1  0  0  0  0
 25 26  1  0  0  0  0
 25 27  1  0  0  0  0
  2 28  1  0  0  0  0
  3 29  1  0  0  0  0
  4 30  1  0  0  0  0
 10 31  1  0  0  0  0
 15 32  1  0  0  0  0
 17 33  1  0  0  0  0
 18 34  1  0  0  0  0
 19 35  1  0  0  0  0
 20 36  1  0  0  0  0
 21 37  1  0  0  0  0
 23 38  1  0  0  0  0
 23 39  1  0  0  0  0
 23 40  1  0  0  0  0
 24 41  1  0  0  0  0
 24 42  1  0  0  0  0
 25 43  1  0  0  0  0
 26 44  1  0  0  0  0
 26 45  1  0  0  0  0
 27 46  1  0  0  0  0
M  END
> <Name>
44

> <IC50[uM]>
0.004

$$$$
44
  -OEChem-05192314333D
 Structure written by MMmdl.
 46 50  0     1  0  0  0  0  0999 V2000
   -6.3932   12.3500  -12.0125 C   0  0  0  0  0  0  0  0  0  0  0  0
   -6.5644   11.7828  -10.7394 C   0  0  0  0  0  0  0  0  0  0  0  0
   -7.7358   10.5711  -13.0331 C   0  0  0  0  0  0  0  0  0  0  0  0
   -6.9954   11.7572  -13.1322 C   0  0  0  0  0  0  0  0  0  0  0  0
   -7.8242    9.9989  -11.7591 C   0  0  0  0  0  0  0  0  0  0  0  0
   -7.2585   10.6059  -10.6150 C   0  0  0  0  0  0  0  0  0  0  0  0
   -7.6168    9.7386   -9.5213 C   0  0  0  0  0  0  0  0  0  0  0  0
   -8.2709    8.7166   -9.9884 N   0  0  0  0  0  0  0  0  0  0  0  0
   -8.4108    8.8490  -11.3012 N   0  0  0  0  0  0  0  0  0  0  0  0
   -7.3306    9.8912   -8.0312 C   0  0  0  0  0  0  0  0  0  0  0  0
   -4.5413   13.8555  -11.3648 N   0  0  0  0  0  0  0  0  0  0  0  0
   -5.5934   13.6525  -12.1835 C   0  0  0  0  0  0  0  0  0  0  0  0
   -5.9232   14.4812  -13.0224 O   0  0  0  0  0  0  0  0  0  0  0  0
   -5.9508   10.4991   -7.7310 C   0  0  0  0  0  0  0  0  0  0  0  0
   -5.8673   11.7672   -7.1520 C   0  0  0  0  0  0  0  0  0  0  0  0
   -4.6035   12.3102   -6.9134 C   0  0  0  0  0  0  0  0  0  0  0  0
   -3.4392   11.5630   -7.2455 C   0  0  0  0  0  0  0  0  0  0  0  0
   -3.5146   10.2834   -7.8141 C   0  0  0  0  0  0  0  0  0  0  0  0
   -4.7998    9.7761   -8.0492 C   0  0  0  0  0  0  0  0  0  0  0  0
   -4.0885   13.5395   -6.3720 C   0  0  0  0  0  0  0  0  0  0  0  0
   -2.7847   13.5343   -6.3770 N   0  0  0  0  0  0  0  0  0  0  0  0
   -2.3791   12.3751   -6.8806 N   0  0  3  0  0  0  0  0  0  0  0  0
   -0.9494   12.1118   -6.9818 C   0  0  0  0  0  0  0  0  0  0  0  0
   -3.7091   15.0460  -11.2252 C   0  0  0  0  0  0  0  0  0  0  0  0
   -3.1570   14.3608   -9.9755 C   0  0  0  0  0  0  0  0  0  0  0  0
   -4.1684   13.2423  -10.1016 C   0  0  0  0  0  0  0  0  0  0  0  0
   -1.8246   13.9322  -10.0585 O   0  0  0  0  0  0  0  0  0  0  0  0
   -6.1536   12.2683   -9.8665 H   0  0  0  0  0  0  0  0  0  0  0  0
   -8.2120   10.1234  -13.8929 H   0  0  0  0  0  0  0  0  0  0  0  0
   -6.8855   12.2280  -14.0979 H   0  0  0  0  0  0  0  0  0  0  0  0
   -8.0297    9.6003   -7.2611 H   0  0  0  0  0  0  0  0  0  0  0  0
   -6.7611   12.3160   -6.8944 H   0  0  0  0  0  0  0  0  0  0  0  0
   -2.6276    9.7177   -8.0584 H   0  0  0  0  0  0  0  0  0  0  0  0
   -4.8650    8.8316   -7.4892 H   0  0  0  0  0  0  0  0  0  0  0  0
   -4.8558    9.5675   -9.1278 H   0  0  0  0  0  0  0  0  0  0  0  0
   -4.6981   14.3547   -6.0110 H   0  0  0  0  0  0  0  0  0  0  0  0
   -2.4449   14.2866   -6.9414 H   0  0  0  0  0  0  0  0  0  0  0  0
   -0.3887   12.9770   -6.5985 H   0  0  0  0  0  0  0  0  0  0  0  0
   -0.6980   11.2202   -6.3887 H   0  0  0  0  0  0  0  0  0  0  0  0
   -0.6821   11.9391   -8.0348 H   0  0  0  0  0  0  0  0  0  0  0  0
   -2.9790   15.2028  -12.0329 H   0  0  0  0  0  0  0  0  0  0  0  0
   -4.2586   15.9809  -11.0410 H   0  0  0  0  0  0  0  0  0  0  0  0
   -3.3524   14.9686   -9.0797 H   0  0  0  0  0  0  0  0  0  0  0  0
   -4.9575   13.2416   -9.3352 H   0  0  0  0  0  0  0  0  0  0  0  0
   -3.7371   12.2338  -10.1847 H   0  0  0  0  0  0  0  0  0  0  0  0
   -1.5721   13.5212   -9.2401 H   0  0  0  0  0  0  0  0  0  0  0  0
  1  2  2  0  0  0  0
  1  4  1  0  0  0  0
  1 12  1  0  0  0  0
  2  6  1  0  0  0  0
  3  4  2  0  0  0  0
  3  5  1  0  0  0  0
  5  6  2  0  0  0  0
  5  9  1  0  0  0  0
  6  7  1  0  0  0  0
  7  8  1  0  0  0  0
  7 10  2  3  0  0  0
  8  9  2  0  0  0  0
 10 14  1  0  0  0  0
 11 12  1  0  0  0  0
 11 24  1  0  0  0  0
 11 26  1  0  0  0  0
 12 13  2  0  0  0  0
 14 15  2  0  0  0  0
 14 19  1  0  0  0  0
 15 16  1  0  0  0  0
 16 17  1  0  0  0  0
 16 20  2  0  0  0  0
 17 18  2  0  0  0  0
 17 22  1  0  0  0  0
 18 19  1  0  0  0  0
 20 21  1  0  0  0  0
 21 22  1  0  0  0  0
 22 23  1  0  0  0  0
 24 25  1  0  0  0  0
 25 26  1  0  0  0  0
 25 27  1  0  0  0  0
  2 28  1  0  0  0  0
  3 29  1  0  0  0  0
  4 30  1  0  0  0  0
 10 31  1  0  0  0  0
 15 32  1  0  0  0  0
 18 33  1  0  0  0  0
 19 34  1  0  0  0  0
 19 35  1  0  0  0  0
 20 36  1  0  0  0  0
 21 37  1  0  0  0  0
 23 38  1  0  0  0  0
 23 39  1  0  0  0  0
 23 40  1  0  0  0  0
 24 41  1  0  0  0  0
 24 42  1  0  0  0  0
 25 43  1  0  0  0  0
 26 44  1  0  0  0  0
 26 45  1  0  0  0  0
 27 46  1  0  0  0  0
M  END
> <Name>
44

> <IC50[uM]>
0.004

$$$$
44
  -OEChem-05192314333D
 Structure written by MMmdl.
 46 50  0     1  0  0  0  0  0999 V2000
   -6.3932   12.3500  -12.0125 C   0  0  0  0  0  0  0  0  0  0  0  0
   -6.5644   11.7828  -10.7394 C   0  0  0  0  0  0  0  0  0  0  0  0
   -7.7358   10.5711  -13.0331 C   0  0  0  0  0  0  0  0  0  0  0  0
   -6.9954   11.7572  -13.1322 C   0  0  0  0  0  0  0  0  0  0  0  0
   -7.8242    9.9989  -11.7591 C   0  0  0  0  0  0  0  0  0  0  0  0
   -7.2585   10.6059  -10.6150 C   0  0  0  0  0  0  0  0  0  0  0  0
   -7.6168    9.7386   -9.5213 C   0  0  0  0  0  0  0  0  0  0  0  0
   -8.2709    8.7166   -9.9884 N   0  0  0  0  0  0  0  0  0  0  0  0
   -8.4108    8.8490  -11.3012 N   0  0  0  0  0  0  0  0  0  0  0  0
   -7.3306    9.8912   -8.0312 C   0  0  0  0  0  0  0  0  0  0  0  0
   -4.5413   13.8555  -11.3648 N   0  0  0  0  0  0  0  0  0  0  0  0
   -5.5934   13.6525  -12.1835 C   0  0  0  0  0  0  0  0  0  0  0  0
   -5.9232   14.4812  -13.0224 O   0  0  0  0  0  0  0  0  0  0  0  0
   -5.9508   10.4991   -7.7310 C   0  0  0  0  0  0  0  0  0  0  0  0
   -5.8673   11.7672   -7.1520 C   0  0  0  0  0  0  0  0  0  0  0  0
   -4.6035   12.3102   -6.9134 C   0  0  0  0  0  0  0  0  0  0  0  0
   -3.4392   11.5630   -7.2455 C   0  0  0  0  0  0  0  0  0  0  0  0
   -3.5146   10.2834   -7.8141 C   0  0  0  0  0  0  0  0  0  0  0  0
   -4.7998    9.7761   -8.0492 C   0  0  0  0  0  0  0  0  0  0  0  0
   -4.0885   13.5395   -6.3720 C   0  0  0  0  0  0  0  0  0  0  0  0
   -2.7847   13.5343   -6.3770 N   0  0  0  0  0  0  0  0  0  0  0  0
   -2.3791   12.3751   -6.8806 N   0  0  3  0  0  0  0  0  0  0  0  0
   -0.9494   12.1118   -6.9818 C   0  0  0  0  0  0  0  0  0  0  0  0
   -3.7091   15.0460  -11.2252 C   0  0  0  0  0  0  0  0  0  0  0  0
   -3.1570   14.3608   -9.9755 C   0  0  0  0  0  0  0  0  0  0  0  0
   -4.1684   13.2423  -10.1016 C   0  0  0  0  0  0  0  0  0  0  0  0
   -1.8246   13.9322  -10.0585 O   0  0  0  0  0  0  0  0  0  0  0  0
   -6.1536   12.2683   -9.8665 H   0  0  0  0  0  0  0  0  0  0  0  0
   -8.2120   10.1234  -13.8929 H   0  0  0  0  0  0  0  0  0  0  0  0
   -6.8855   12.2280  -14.0979 H   0  0  0  0  0  0  0  0  0  0  0  0
   -8.0297    9.6003   -7.2611 H   0  0  0  0  0  0  0  0  0  0  0  0
   -6.3991   12.4633   -7.8173 H   0  0  0  0  0  0  0  0  0  0  0  0
   -6.3867   11.7165   -6.1837 H   0  0  0  0  0  0  0  0  0  0  0  0
   -2.6276    9.7177   -8.0584 H   0  0  0  0  0  0  0  0  0  0  0  0
   -4.9028    8.7956   -8.4901 H   0  0  0  0  0  0  0  0  0  0  0  0
   -4.6981   14.3547   -6.0110 H   0  0  0  0  0  0  0  0  0  0  0  0
   -2.4449   14.2866   -6.9414 H   0  0  0  0  0  0  0  0  0  0  0  0
   -0.3887   12.9770   -6.5985 H   0  0  0  0  0  0  0  0  0  0  0  0
   -0.6980   11.2202   -6.3887 H   0  0  0  0  0  0  0  0  0  0  0  0
   -0.6821   11.9391   -8.0348 H   0  0  0  0  0  0  0  0  0  0  0  0
   -2.9790   15.2028  -12.0329 H   0  0  0  0  0  0  0  0  0  0  0  0
   -4.2586   15.9809  -11.0410 H   0  0  0  0  0  0  0  0  0  0  0  0
   -3.3524   14.9686   -9.0797 H   0  0  0  0  0  0  0  0  0  0  0  0
   -4.9575   13.2416   -9.3352 H   0  0  0  0  0  0  0  0  0  0  0  0
   -3.7371   12.2338  -10.1847 H   0  0  0  0  0  0  0  0  0  0  0  0
   -1.5721   13.5212   -9.2401 H   0  0  0  0  0  0  0  0  0  0  0  0
  1  2  2  0  0  0  0
  1  4  1  0  0  0  0
  1 12  1  0  0  0  0
  2  6  1  0  0  0  0
  3  4  2  0  0  0  0
  3  5  1  0  0  0  0
  5  6  2  0  0  0  0
  5  9  1  0  0  0  0
  6  7  1  0  0  0  0
  7  8  1  0  0  0  0
  7 10  2  3  0  0  0
  8  9  2  0  0  0  0
 10 14  1  0  0  0  0
 11 12  1  0  0  0  0
 11 24  1  0  0  0  0
 11 26  1  0  0  0  0
 12 13  2  0  0  0  0
 14 15  1  0  0  0  0
 14 19  2  0  0  0  0
 15 16  1  0  0  0  0
 16 17  1  0  0  0  0
 16 20  2  0  0  0  0
 17 18  2  0  0  0  0
 17 22  1  0  0  0  0
 18 19  1  0  0  0  0
 20 21  1  0  0  0  0
 21 22  1  0  0  0  0
 22 23  1  0  0  0  0
 24 25  1  0  0  0  0
 25 26  1  0  0  0  0
 25 27  1  0  0  0  0
  2 28  1  0  0  0  0
  3 29  1  0  0  0  0
  4 30  1  0  0  0  0
 10 31  1  0  0  0  0
 15 32  1  0  0  0  0
 15 33  1  0  0  0  0
 18 34  1  0  0  0  0
 19 35  1  0  0  0  0
 20 36  1  0  0  0  0
 21 37  1  0  0  0  0
 23 38  1  0  0  0  0
 23 39  1  0  0  0  0
 23 40  1  0  0  0  0
 24 41  1  0  0  0  0
 24 42  1  0  0  0  0
 25 43  1  0  0  0  0
 26 44  1  0  0  0  0
 26 45  1  0  0  0  0
 27 46  1  0  0  0  0
M  END
> <Name>
44

> <IC50[uM]>
0.004

$$$$
44
  -OEChem-05192314333D
 Structure written by MMmdl.
 46 50  0     1  0  0  0  0  0999 V2000
   -6.3932   12.3500  -12.0125 C   0  0  3  0  0  0  0  0  0  0  0  0
   -6.5644   11.7828  -10.7394 C   0  0  0  0  0  0  0  0  0  0  0  0
   -7.7358   10.5711  -13.0331 C   0  0  0  0  0  0  0  0  0  0  0  0
   -6.9954   11.7572  -13.1322 C   0  0  0  0  0  0  0  0  0  0  0  0
   -7.8242    9.9989  -11.7591 C   0  0  0  0  0  0  0  0  0  0  0  0
   -7.2585   10.6059  -10.6150 C   0  0  0  0  0  0  0  0  0  0  0  0
   -7.6168    9.7386   -9.5213 C   0  0  0  0  0  0  0  0  0  0  0  0
   -8.2709    8.7166   -9.9884 N   0  0  0  0  0  0  0  0  0  0  0  0
   -8.4108    8.8490  -11.3012 N   0  0  0  0  0  0  0  0  0  0  0  0
   -7.3306    9.8912   -8.0312 C   0  0  0  0  0  0  0  0  0  0  0  0
   -4.5413   13.8555  -11.3648 N   0  0  0  0  0  0  0  0  0  0  0  0
   -5.5934   13.6525  -12.1835 C   0  0  0  0  0  0  0  0  0  0  0  0
   -5.9232   14.4812  -13.0224 O   0  0  0  0  0  0  0  0  0  0  0  0
   -5.9508   10.4991   -7.7310 C   0  0  0  0  0  0  0  0  0  0  0  0
   -5.8673   11.7672   -7.1520 C   0  0  0  0  0  0  0  0  0  0  0  0
   -4.6035   12.3102   -6.9134 C   0  0  0  0  0  0  0  0  0  0  0  0
   -3.4392   11.5630   -7.2455 C   0  0  0  0  0  0  0  0  0  0  0  0
   -3.5146   10.2834   -7.8141 C   0  0  0  0  0  0  0  0  0  0  0  0
   -4.7998    9.7761   -8.0492 C   0  0  0  0  0  0  0  0  0  0  0  0
   -4.0885   13.5395   -6.3720 C   0  0  0  0  0  0  0  0  0  0  0  0
   -2.7847   13.5343   -6.3770 N   0  0  0  0  0  0  0  0  0  0  0  0
   -2.3791   12.3751   -6.8806 N   0  0  0  0  0  0  0  0  0  0  0  0
   -0.9494   12.1118   -6.9818 C   0  0  0  0  0  0  0  0  0  0  0  0
   -3.7091   15.0460  -11.2252 C   0  0  0  0  0  0  0  0  0  0  0  0
   -3.1570   14.3608   -9.9755 C   0  0  0  0  0  0  0  0  0  0  0  0
   -4.1684   13.2423  -10.1016 C   0  0  0  0  0  0  0  0  0  0  0  0
   -1.8246   13.9322  -10.0585 O   0  0  0  0  0  0  0  0  0  0  0  0
   -5.4817   11.7548  -12.1703 H   0  0  0  0  0  0  0  0  0  0  0  0
   -6.1536   12.2683   -9.8665 H   0  0  0  0  0  0  0  0  0  0  0  0
   -8.2120   10.1234  -13.8929 H   0  0  0  0  0  0  0  0  0  0  0  0
   -6.8855   12.2280  -14.0979 H   0  0  0  0  0  0  0  0  0  0  0  0
   -8.0297    9.6003   -7.2611 H   0  0  0  0  0  0  0  0  0  0  0  0
   -6.3991   12.4633   -7.8173 H   0  0  0  0  0  0  0  0  0  0  0  0
   -6.3867   11.7165   -6.1837 H   0  0  0  0  0  0  0  0  0  0  0  0
   -2.6276    9.7177   -8.0584 H   0  0  0  0  0  0  0  0  0  0  0  0
   -4.9028    8.7956   -8.4901 H   0  0  0  0  0  0  0  0  0  0  0  0
   -4.6981   14.3547   -6.0110 H   0  0  0  0  0  0  0  0  0  0  0  0
   -0.3887   12.9766   -6.5976 H   0  0  0  0  0  0  0  0  0  0  0  0
   -0.6982   11.2196   -6.3895 H   0  0  0  0  0  0  0  0  0  0  0  0
   -0.6820   11.9401   -8.0349 H   0  0  0  0  0  0  0  0  0  0  0  0
   -2.9790   15.2028  -12.0329 H   0  0  0  0  0  0  0  0  0  0  0  0
   -4.2586   15.9809  -11.0410 H   0  0  0  0  0  0  0  0  0  0  0  0
   -3.3524   14.9686   -9.0797 H   0  0  0  0  0  0  0  0  0  0  0  0
   -4.9575   13.2416   -9.3352 H   0  0  0  0  0  0  0  0  0  0  0  0
   -3.7371   12.2338  -10.1847 H   0  0  0  0  0  0  0  0  0  0  0  0
   -1.5721   13.5212   -9.2401 H   0  0  0  0  0  0  0  0  0  0  0  0
  1  2  1  0  0  0  0
  1  4  1  0  0  0  0
  1 12  1  0  0  0  0
  2  6  2  0  0  0  0
  3  4  2  0  0  0  0
  3  5  1  0  0  0  0
  5  6  1  0  0  0  0
  5  9  2  0  0  0  0
  6  7  1  0  0  0  0
  7  8  2  0  0  0  0
  7 10  1  0  0  0  0
  8  9  1  0  0  0  0
 10 14  2  3  0  0  0
 11 12  1  0  0  0  0
 11 24  1  0  0  0  0
 11 26  1  0  0  0  0
 12 13  2  0  0  0  0
 14 15  1  0  0  0  0
 14 19  1  0  0  0  0
 15 16  1  0  0  0  0
 16 17  2  0  0  0  0
 16 20  1  0  0  0  0
 17 18  1  0  0  0  0
 17 22  1  0  0  0  0
 18 19  2  0  0  0  0
 20 21  2  0  0  0  0
 21 22  1  0  0  0  0
 22 23  1  0  0  0  0
 24 25  1  0  0  0  0
 25 26  1  0  0  0  0
 25 27  1  0  0  0  0
  1 28  1  0  0  0  0
  2 29  1  0  0  0  0
  3 30  1  0  0  0  0
  4 31  1  0  0  0  0
 10 32  1  0  0  0  0
 15 33  1  0  0  0  0
 15 34  1  0  0  0  0
 18 35  1  0  0  0  0
 19 36  1  0  0  0  0
 20 37  1  0  0  0  0
 23 38  1  0  0  0  0
 23 39  1  0  0  0  0
 23 40  1  0  0  0  0
 24 41  1  0  0  0  0
 24 42  1  0  0  0  0
 25 43  1  0  0  0  0
 26 44  1  0  0  0  0
 26 45  1  0  0  0  0
 27 46  1  0  0  0  0
M  END
> <Name>
44

> <IC50[uM]>
0.004

$$$$
44
  -OEChem-05192314333D
 Structure written by MMmdl.
 46 50  0     1  0  0  0  0  0999 V2000
   -6.3932   12.3500  -12.0125 C   0  0  0  0  0  0  0  0  0  0  0  0
   -6.5644   11.7828  -10.7394 C   0  0  0  0  0  0  0  0  0  0  0  0
   -7.7358   10.5711  -13.0331 C   0  0  0  0  0  0  0  0  0  0  0  0
   -6.9954   11.7572  -13.1322 C   0  0  0  0  0  0  0  0  0  0  0  0
   -7.8242    9.9989  -11.7591 C   0  0  0  0  0  0  0  0  0  0  0  0
   -7.2585   10.6059  -10.6150 C   0  0  3  0  0  0  0  0  0  0  0  0
   -7.6168    9.7386   -9.5213 C   0  0  0  0  0  0  0  0  0  0  0  0
   -8.2709    8.7166   -9.9884 N   0  0  0  0  0  0  0  0  0  0  0  0
   -8.4108    8.8490  -11.3012 N   0  0  0  0  0  0  0  0  0  0  0  0
   -7.3306    9.8912   -8.0312 C   0  0  0  0  0  0  0  0  0  0  0  0
   -4.5413   13.8555  -11.3648 N   0  0  0  0  0  0  0  0  0  0  0  0
   -5.5934   13.6525  -12.1835 C   0  0  0  0  0  0  0  0  0  0  0  0
   -5.9232   14.4812  -13.0224 O   0  0  0  0  0  0  0  0  0  0  0  0
   -5.9508   10.4991   -7.7310 C   0  0  0  0  0  0  0  0  0  0  0  0
   -5.8673   11.7672   -7.1520 C   0  0  0  0  0  0  0  0  0  0  0  0
   -4.6035   12.3102   -6.9134 C   0  0  0  0  0  0  0  0  0  0  0  0
   -3.4392   11.5630   -7.2455 C   0  0  0  0  0  0  0  0  0  0  0  0
   -3.5146   10.2834   -7.8141 C   0  0  0  0  0  0  0  0  0  0  0  0
   -4.7998    9.7761   -8.0492 C   0  0  0  0  0  0  0  0  0  0  0  0
   -4.0885   13.5395   -6.3720 C   0  0  0  0  0  0  0  0  0  0  0  0
   -2.7847   13.5343   -6.3770 N   0  0  0  0  0  0  0  0  0  0  0  0
   -2.3791   12.3751   -6.8806 N   0  0  0  0  0  0  0  0  0  0  0  0
   -0.9494   12.1118   -6.9818 C   0  0  0  0  0  0  0  0  0  0  0  0
   -3.7091   15.0460  -11.2252 C   0  0  0  0  0  0  0  0  0  0  0  0
   -3.1570   14.3608   -9.9755 C   0  0  0  0  0  0  0  0  0  0  0  0
   -4.1684   13.2423  -10.1016 C   0  0  0  0  0  0  0  0  0  0  0  0
   -1.8246   13.9322  -10.0585 O   0  0  0  0  0  0  0  0  0  0  0  0
   -6.1536   12.2683   -9.8665 H   0  0  0  0  0  0  0  0  0  0  0  0
   -8.2120   10.1234  -13.8929 H   0  0  0  0  0  0  0  0  0  0  0  0
   -6.8855   12.2280  -14.0979 H   0  0  0  0  0  0  0  0  0  0  0  0
   -6.3295   10.0369  -10.7673 H   0  0  0  0  0  0  0  0  0  0  0  0
   -8.0297    9.6003   -7.2611 H   0  0  0  0  0  0  0  0  0  0  0  0
   -6.3991   12.4633   -7.8173 H   0  0  0  0  0  0  0  0  0  0  0  0
   -6.3867   11.7165   -6.1837 H   0  0  0  0  0  0  0  0  0  0  0  0
   -2.6276    9.7177   -8.0584 H   0  0  0  0  0  0  0  0  0  0  0  0
   -4.9028    8.7956   -8.4901 H   0  0  0  0  0  0  0  0  0  0  0  0
   -4.6981   14.3547   -6.0110 H   0  0  0  0  0  0  0  0  0  0  0  0
   -0.3887   12.9766   -6.5976 H   0  0  0  0  0  0  0  0  0  0  0  0
   -0.6982   11.2196   -6.3895 H   0  0  0  0  0  0  0  0  0  0  0  0
   -0.6820   11.9401   -8.0349 H   0  0  0  0  0  0  0  0  0  0  0  0
   -2.9790   15.2028  -12.0329 H   0  0  0  0  0  0  0  0  0  0  0  0
   -4.2586   15.9809  -11.0410 H   0  0  0  0  0  0  0  0  0  0  0  0
   -3.3524   14.9686   -9.0797 H   0  0  0  0  0  0  0  0  0  0  0  0
   -4.9575   13.2416   -9.3352 H   0  0  0  0  0  0  0  0  0  0  0  0
   -3.7371   12.2338  -10.1847 H   0  0  0  0  0  0  0  0  0  0  0  0
   -1.5721   13.5212   -9.2401 H   0  0  0  0  0  0  0  0  0  0  0  0
  1  2  2  0  0  0  0
  1  4  1  0  0  0  0
  1 12  1  0  0  0  0
  2  6  1  0  0  0  0
  3  4  2  0  0  0  0
  3  5  1  0  0  0  0
  5  6  1  0  0  0  0
  5  9  2  0  0  0  0
  6  7  1  0  0  0  0
  7  8  2  0  0  0  0
  7 10  1  0  0  0  0
  8  9  1  0  0  0  0
 10 14  2  3  0  0  0
 11 12  1  0  0  0  0
 11 24  1  0  0  0  0
 11 26  1  0  0  0  0
 12 13  2  0  0  0  0
 14 15  1  0  0  0  0
 14 19  1  0  0  0  0
 15 16  1  0  0  0  0
 16 17  2  0  0  0  0
 16 20  1  0  0  0  0
 17 18  1  0  0  0  0
 17 22  1  0  0  0  0
 18 19  2  0  0  0  0
 20 21  2  0  0  0  0
 21 22  1  0  0  0  0
 22 23  1  0  0  0  0
 24 25  1  0  0  0  0
 25 26  1  0  0  0  0
 25 27  1  0  0  0  0
  2 28  1  0  0  0  0
  3 29  1  0  0  0  0
  4 30  1  0  0  0  0
  6 31  1  0  0  0  0
 10 32  1  0  0  0  0
 15 33  1  0  0  0  0
 15 34  1  0  0  0  0
 18 35  1  0  0  0  0
 19 36  1  0  0  0  0
 20 37  1  0  0  0  0
 23 38  1  0  0  0  0
 23 39  1  0  0  0  0
 23 40  1  0  0  0  0
 24 41  1  0  0  0  0
 24 42  1  0  0  0  0
 25 43  1  0  0  0  0
 26 44  1  0  0  0  0
 26 45  1  0  0  0  0
 27 46  1  0  0  0  0
M  END
> <Name>
44

> <IC50[uM]>
0.004

$$$$
44
  -OEChem-05192314333D
 Structure written by MMmdl.
 46 50  0     0  0  0  0  0  0999 V2000
   -6.3932   12.3500  -12.0125 C   0  0  0  0  0  0  0  0  0  0  0  0
   -6.5644   11.7828  -10.7394 C   0  0  0  0  0  0  0  0  0  0  0  0
   -7.7358   10.5711  -13.0331 C   0  0  0  0  0  0  0  0  0  0  0  0
   -6.9954   11.7572  -13.1322 C   0  0  0  0  0  0  0  0  0  0  0  0
   -7.8242    9.9989  -11.7591 C   0  0  0  0  0  0  0  0  0  0  0  0
   -7.2585   10.6059  -10.6150 C   0  0  0  0  0  0  0  0  0  0  0  0
   -7.6168    9.7386   -9.5213 C   0  0  0  0  0  0  0  0  0  0  0  0
   -8.2709    8.7166   -9.9884 N   0  0  0  0  0  0  0  0  0  0  0  0
   -8.4108    8.8490  -11.3012 N   0  0  0  0  0  0  0  0  0  0  0  0
   -7.3306    9.8912   -8.0312 C   0  0  0  0  0  0  0  0  0  0  0  0
   -4.5413   13.8555  -11.3648 N   0  0  0  0  0  0  0  0  0  0  0  0
   -5.5934   13.6525  -12.1835 C   0  0  0  0  0  0  0  0  0  0  0  0
   -5.9232   14.4812  -13.0224 O   0  0  0  0  0  0  0  0  0  0  0  0
   -5.9508   10.4991   -7.7310 C   0  0  0  0  0  0  0  0  0  0  0  0
   -5.8673   11.7672   -7.1520 C   0  0  0  0  0  0  0  0  0  0  0  0
   -4.6035   12.3102   -6.9134 C   0  0  0  0  0  0  0  0  0  0  0  0
   -3.4392   11.5630   -7.2455 C   0  0  0  0  0  0  0  0  0  0  0  0
   -3.5146   10.2834   -7.8141 C   0  0  0  0  0  0  0  0  0  0  0  0
   -4.7998    9.7761   -8.0492 C   0  0  0  0  0  0  0  0  0  0  0  0
   -4.0885   13.5395   -6.3720 C   0  0  0  0  0  0  0  0  0  0  0  0
   -2.7847   13.5343   -6.3770 N   0  0  0  0  0  0  0  0  0  0  0  0
   -2.3791   12.3751   -6.8806 N   0  0  0  0  0  0  0  0  0  0  0  0
   -0.9494   12.1118   -6.9818 C   0  0  0  0  0  0  0  0  0  0  0  0
   -3.7091   15.0460  -11.2252 C   0  0  0  0  0  0  0  0  0  0  0  0
   -3.1570   14.3608   -9.9755 C   0  0  0  0  0  0  0  0  0  0  0  0
   -4.1684   13.2423  -10.1016 C   0  0  0  0  0  0  0  0  0  0  0  0
   -1.8246   13.9322  -10.0585 O   0  0  0  0  0  0  0  0  0  0  0  0
   -6.1536   12.2683   -9.8665 H   0  0  0  0  0  0  0  0  0  0  0  0
   -8.7589   10.7853  -13.3758 H   0  0  0  0  0  0  0  0  0  0  0  0
   -7.2727    9.8304  -13.7016 H   0  0  0  0  0  0  0  0  0  0  0  0
   -6.8855   12.2280  -14.0979 H   0  0  0  0  0  0  0  0  0  0  0  0
   -8.0297    9.6003   -7.2611 H   0  0  0  0  0  0  0  0  0  0  0  0
   -6.3991   12.4633   -7.8173 H   0  0  0  0  0  0  0  0  0  0  0  0
   -6.3867   11.7165   -6.1837 H   0  0  0  0  0  0  0  0  0  0  0  0
   -2.6276    9.7177   -8.0584 H   0  0  0  0  0  0  0  0  0  0  0  0
   -4.9028    8.7956   -8.4901 H   0  0  0  0  0  0  0  0  0  0  0  0
   -4.6981   14.3547   -6.0110 H   0  0  0  0  0  0  0  0  0  0  0  0
   -0.3887   12.9766   -6.5976 H   0  0  0  0  0  0  0  0  0  0  0  0
   -0.6982   11.2196   -6.3895 H   0  0  0  0  0  0  0  0  0  0  0  0
   -0.6820   11.9401   -8.0349 H   0  0  0  0  0  0  0  0  0  0  0  0
   -2.9790   15.2028  -12.0329 H   0  0  0  0  0  0  0  0  0  0  0  0
   -4.2586   15.9809  -11.0410 H   0  0  0  0  0  0  0  0  0  0  0  0
   -3.3524   14.9686   -9.0797 H   0  0  0  0  0  0  0  0  0  0  0  0
   -4.9575   13.2416   -9.3352 H   0  0  0  0  0  0  0  0  0  0  0  0
   -3.7371   12.2338  -10.1847 H   0  0  0  0  0  0  0  0  0  0  0  0
   -1.5721   13.5212   -9.2401 H   0  0  0  0  0  0  0  0  0  0  0  0
  1  2  1  0  0  0  0
  1  4  2  0  0  0  0
  1 12  1  0  0  0  0
  2  6  2  0  0  0  0
  3  4  1  0  0  0  0
  3  5  1  0  0  0  0
  5  6  1  0  0  0  0
  5  9  2  0  0  0  0
  6  7  1  0  0  0  0
  7  8  2  0  0  0  0
  7 10  1  0  0  0  0
  8  9  1  0  0  0  0
 10 14  2  3  0  0  0
 11 12  1  0  0  0  0
 11 24  1  0  0  0  0
 11 26  1  0  0  0  0
 12 13  2  0  0  0  0
 14 15  1  0  0  0  0
 14 19  1  0  0  0  0
 15 16  1  0  0  0  0
 16 17  2  0  0  0  0
 16 20  1  0  0  0  0
 17 18  1  0  0  0  0
 17 22  1  0  0  0  0
 18 19  2  0  0  0  0
 20 21  2  0  0  0  0
 21 22  1  0  0  0  0
 22 23  1  0  0  0  0
 24 25  1  0  0  0  0
 25 26  1  0  0  0  0
 25 27  1  0  0  0  0
  2 28  1  0  0  0  0
  3 29  1  0  0  0  0
  3 30  1  0  0  0  0
  4 31  1  0  0  0  0
 10 32  1  0  0  0  0
 15 33  1  0  0  0  0
 15 34  1  0  0  0  0
 18 35  1  0  0  0  0
 19 36  1  0  0  0  0
 20 37  1  0  0  0  0
 23 38  1  0  0  0  0
 23 39  1  0  0  0  0
 23 40  1  0  0  0  0
 24 41  1  0  0  0  0
 24 42  1  0  0  0  0
 25 43  1  0  0  0  0
 26 44  1  0  0  0  0
 26 45  1  0  0  0  0
 27 46  1  0  0  0  0
M  END
> <Name>
44

> <IC50[uM]>
0.004

$$$$
44
  -OEChem-05192314333D
 Structure written by MMmdl.
 46 50  0     1  0  0  0  0  0999 V2000
   -6.3932   12.3500  -12.0125 C   0  0  0  0  0  0  0  0  0  0  0  0
   -6.5644   11.7828  -10.7394 C   0  0  0  0  0  0  0  0  0  0  0  0
   -7.7358   10.5711  -13.0331 C   0  0  0  0  0  0  0  0  0  0  0  0
   -6.9954   11.7572  -13.1322 C   0  0  0  0  0  0  0  0  0  0  0  0
   -7.8242    9.9989  -11.7591 C   0  0  3  0  0  0  0  0  0  0  0  0
   -7.2585   10.6059  -10.6150 C   0  0  0  0  0  0  0  0  0  0  0  0
   -7.6168    9.7386   -9.5213 C   0  0  0  0  0  0  0  0  0  0  0  0
   -8.2709    8.7166   -9.9884 N   0  0  0  0  0  0  0  0  0  0  0  0
   -8.4108    8.8490  -11.3012 N   0  0  0  0  0  0  0  0  0  0  0  0
   -7.3306    9.8912   -8.0312 C   0  0  0  0  0  0  0  0  0  0  0  0
   -4.5413   13.8555  -11.3648 N   0  0  0  0  0  0  0  0  0  0  0  0
   -5.5934   13.6525  -12.1835 C   0  0  0  0  0  0  0  0  0  0  0  0
   -5.9232   14.4812  -13.0224 O   0  0  0  0  0  0  0  0  0  0  0  0
   -5.9508   10.4991   -7.7310 C   0  0  0  0  0  0  0  0  0  0  0  0
   -5.8673   11.7672   -7.1520 C   0  0  0  0  0  0  0  0  0  0  0  0
   -4.6035   12.3102   -6.9134 C   0  0  0  0  0  0  0  0  0  0  0  0
   -3.4392   11.5630   -7.2455 C   0  0  0  0  0  0  0  0  0  0  0  0
   -3.5146   10.2834   -7.8141 C   0  0  0  0  0  0  0  0  0  0  0  0
   -4.7998    9.7761   -8.0492 C   0  0  0  0  0  0  0  0  0  0  0  0
   -4.0885   13.5395   -6.3720 C   0  0  0  0  0  0  0  0  0  0  0  0
   -2.7847   13.5343   -6.3770 N   0  0  0  0  0  0  0  0  0  0  0  0
   -2.3791   12.3751   -6.8806 N   0  0  0  0  0  0  0  0  0  0  0  0
   -0.9494   12.1118   -6.9818 C   0  0  0  0  0  0  0  0  0  0  0  0
   -3.7091   15.0460  -11.2252 C   0  0  0  0  0  0  0  0  0  0  0  0
   -3.1570   14.3608   -9.9755 C   0  0  0  0  0  0  0  0  0  0  0  0
   -4.1684   13.2423  -10.1016 C   0  0  0  0  0  0  0  0  0  0  0  0
   -1.8246   13.9322  -10.0585 O   0  0  0  0  0  0  0  0  0  0  0  0
   -6.1536   12.2683   -9.8665 H   0  0  0  0  0  0  0  0  0  0  0  0
   -8.2120   10.1234  -13.8929 H   0  0  0  0  0  0  0  0  0  0  0  0
   -6.8855   12.2280  -14.0979 H   0  0  0  0  0  0  0  0  0  0  0  0
   -6.8859    9.4528  -11.9364 H   0  0  0  0  0  0  0  0  0  0  0  0
   -8.0297    9.6003   -7.2611 H   0  0  0  0  0  0  0  0  0  0  0  0
   -6.3991   12.4633   -7.8173 H   0  0  0  0  0  0  0  0  0  0  0  0
   -6.3867   11.7165   -6.1837 H   0  0  0  0  0  0  0  0  0  0  0  0
   -2.6276    9.7177   -8.0584 H   0  0  0  0  0  0  0  0  0  0  0  0
   -4.9028    8.7956   -8.4901 H   0  0  0  0  0  0  0  0  0  0  0  0
   -4.6981   14.3547   -6.0110 H   0  0  0  0  0  0  0  0  0  0  0  0
   -0.3887   12.9766   -6.5976 H   0  0  0  0  0  0  0  0  0  0  0  0
   -0.6982   11.2196   -6.3895 H   0  0  0  0  0  0  0  0  0  0  0  0
   -0.6820   11.9401   -8.0349 H   0  0  0  0  0  0  0  0  0  0  0  0
   -2.9790   15.2028  -12.0329 H   0  0  0  0  0  0  0  0  0  0  0  0
   -4.2586   15.9809  -11.0410 H   0  0  0  0  0  0  0  0  0  0  0  0
   -3.3524   14.9686   -9.0797 H   0  0  0  0  0  0  0  0  0  0  0  0
   -4.9575   13.2416   -9.3352 H   0  0  0  0  0  0  0  0  0  0  0  0
   -3.7371   12.2338  -10.1847 H   0  0  0  0  0  0  0  0  0  0  0  0
   -1.5721   13.5212   -9.2401 H   0  0  0  0  0  0  0  0  0  0  0  0
  1  2  2  0  0  0  0
  1  4  1  0  0  0  0
  1 12  1  0  0  0  0
  2  6  1  0  0  0  0
  3  4  2  0  0  0  0
  3  5  1  0  0  0  0
  5  6  1  0  0  0  0
  5  9  1  0  0  0  0
  6  7  2  0  0  0  0
  7  8  1  0  0  0  0
  7 10  1  0  0  0  0
  8  9  2  0  0  0  0
 10 14  2  3  0  0  0
 11 12  1  0  0  0  0
 11 24  1  0  0  0  0
 11 26  1  0  0  0  0
 12 13  2  0  0  0  0
 14 15  1  0  0  0  0
 14 19  1  0  0  0  0
 15 16  1  0  0  0  0
 16 17  2  0  0  0  0
 16 20  1  0  0  0  0
 17 18  1  0  0  0  0
 17 22  1  0  0  0  0
 18 19  2  0  0  0  0
 20 21  2  0  0  0  0
 21 22  1  0  0  0  0
 22 23  1  0  0  0  0
 24 25  1  0  0  0  0
 25 26  1  0  0  0  0
 25 27  1  0  0  0  0
  2 28  1  0  0  0  0
  3 29  1  0  0  0  0
  4 30  1  0  0  0  0
  5 31  1  0  0  0  0
 10 32  1  0  0  0  0
 15 33  1  0  0  0  0
 15 34  1  0  0  0  0
 18 35  1  0  0  0  0
 19 36  1  0  0  0  0
 20 37  1  0  0  0  0
 23 38  1  0  0  0  0
 23 39  1  0  0  0  0
 23 40  1  0  0  0  0
 24 41  1  0  0  0  0
 24 42  1  0  0  0  0
 25 43  1  0  0  0  0
 26 44  1  0  0  0  0
 26 45  1  0  0  0  0
 27 46  1  0  0  0  0
M  END
> <Name>
44

> <IC50[uM]>
0.004

$$$$
44
  -OEChem-05192314333D
 Structure written by MMmdl.
 46 50  0     0  0  0  0  0  0999 V2000
   -6.3932   12.3500  -12.0125 C   0  0  0  0  0  0  0  0  0  0  0  0
   -6.5644   11.7828  -10.7394 C   0  0  0  0  0  0  0  0  0  0  0  0
   -7.7358   10.5711  -13.0331 C   0  0  0  0  0  0  0  0  0  0  0  0
   -6.9954   11.7572  -13.1322 C   0  0  0  0  0  0  0  0  0  0  0  0
   -7.8242    9.9989  -11.7591 C   0  0  0  0  0  0  0  0  0  0  0  0
   -7.2585   10.6059  -10.6150 C   0  0  0  0  0  0  0  0  0  0  0  0
   -7.6168    9.7386   -9.5213 C   0  0  0  0  0  0  0  0  0  0  0  0
   -8.2709    8.7166   -9.9884 N   0  0  0  0  0  0  0  0  0  0  0  0
   -8.4108    8.8490  -11.3012 N   0  0  0  0  0  0  0  0  0  0  0  0
   -7.3306    9.8912   -8.0312 C   0  0  0  0  0  0  0  0  0  0  0  0
   -4.5413   13.8555  -11.3648 N   0  0  0  0  0  0  0  0  0  0  0  0
   -5.5934   13.6525  -12.1835 C   0  0  0  0  0  0  0  0  0  0  0  0
   -5.9232   14.4812  -13.0224 O   0  0  0  0  0  0  0  0  0  0  0  0
   -5.9508   10.4991   -7.7310 C   0  0  0  0  0  0  0  0  0  0  0  0
   -5.8673   11.7672   -7.1520 C   0  0  0  0  0  0  0  0  0  0  0  0
   -4.6035   12.3102   -6.9134 C   0  0  0  0  0  0  0  0  0  0  0  0
   -3.4392   11.5630   -7.2455 C   0  0  0  0  0  0  0  0  0  0  0  0
   -3.5146   10.2834   -7.8141 C   0  0  0  0  0  0  0  0  0  0  0  0
   -4.7998    9.7761   -8.0492 C   0  0  0  0  0  0  0  0  0  0  0  0
   -4.0885   13.5395   -6.3720 C   0  0  0  0  0  0  0  0  0  0  0  0
   -2.7847   13.5343   -6.3770 N   0  0  0  0  0  0  0  0  0  0  0  0
   -2.3791   12.3751   -6.8806 N   0  0  0  0  0  0  0  0  0  0  0  0
   -0.9494   12.1118   -6.9818 C   0  0  0  0  0  0  0  0  0  0  0  0
   -3.7091   15.0460  -11.2252 C   0  0  0  0  0  0  0  0  0  0  0  0
   -3.1570   14.3608   -9.9755 C   0  0  0  0  0  0  0  0  0  0  0  0
   -4.1684   13.2423  -10.1016 C   0  0  0  0  0  0  0  0  0  0  0  0
   -1.8246   13.9322  -10.0585 O   0  0  0  0  0  0  0  0  0  0  0  0
   -6.1536   12.2683   -9.8665 H   0  0  0  0  0  0  0  0  0  0  0  0
   -8.2120   10.1234  -13.8929 H   0  0  0  0  0  0  0  0  0  0  0  0
   -7.6766   12.5120  -13.5520 H   0  0  0  0  0  0  0  0  0  0  0  0
   -6.1849   11.5561  -13.8482 H   0  0  0  0  0  0  0  0  0  0  0  0
   -8.0297    9.6003   -7.2611 H   0  0  0  0  0  0  0  0  0  0  0  0
   -6.3991   12.4633   -7.8173 H   0  0  0  0  0  0  0  0  0  0  0  0
   -6.3867   11.7165   -6.1837 H   0  0  0  0  0  0  0  0  0  0  0  0
   -2.6276    9.7177   -8.0584 H   0  0  0  0  0  0  0  0  0  0  0  0
   -4.9028    8.7956   -8.4901 H   0  0  0  0  0  0  0  0  0  0  0  0
   -4.6981   14.3547   -6.0110 H   0  0  0  0  0  0  0  0  0  0  0  0
   -0.3887   12.9766   -6.5976 H   0  0  0  0  0  0  0  0  0  0  0  0
   -0.6982   11.2196   -6.3895 H   0  0  0  0  0  0  0  0  0  0  0  0
   -0.6820   11.9401   -8.0349 H   0  0  0  0  0  0  0  0  0  0  0  0
   -2.9790   15.2028  -12.0329 H   0  0  0  0  0  0  0  0  0  0  0  0
   -4.2586   15.9809  -11.0410 H   0  0  0  0  0  0  0  0  0  0  0  0
   -3.3524   14.9686   -9.0797 H   0  0  0  0  0  0  0  0  0  0  0  0
   -4.9575   13.2416   -9.3352 H   0  0  0  0  0  0  0  0  0  0  0  0
   -3.7371   12.2338  -10.1847 H   0  0  0  0  0  0  0  0  0  0  0  0
   -1.5721   13.5212   -9.2401 H   0  0  0  0  0  0  0  0  0  0  0  0
  1  2  2  0  0  0  0
  1  4  1  0  0  0  0
  1 12  1  0  0  0  0
  2  6  1  0  0  0  0
  3  4  1  0  0  0  0
  3  5  2  0  0  0  0
  5  6  1  0  0  0  0
  5  9  1  0  0  0  0
  6  7  2  0  0  0  0
  7  8  1  0  0  0  0
  7 10  1  0  0  0  0
  8  9  2  0  0  0  0
 10 14  2  3  0  0  0
 11 12  1  0  0  0  0
 11 24  1  0  0  0  0
 11 26  1  0  0  0  0
 12 13  2  0  0  0  0
 14 15  1  0  0  0  0
 14 19  1  0  0  0  0
 15 16  1  0  0  0  0
 16 17  2  0  0  0  0
 16 20  1  0  0  0  0
 17 18  1  0  0  0  0
 17 22  1  0  0  0  0
 18 19  2  0  0  0  0
 20 21  2  0  0  0  0
 21 22  1  0  0  0  0
 22 23  1  0  0  0  0
 24 25  1  0  0  0  0
 25 26  1  0  0  0  0
 25 27  1  0  0  0  0
  2 28  1  0  0  0  0
  3 29  1  0  0  0  0
  4 30  1  0  0  0  0
  4 31  1  0  0  0  0
 10 32  1  0  0  0  0
 15 33  1  0  0  0  0
 15 34  1  0  0  0  0
 18 35  1  0  0  0  0
 19 36  1  0  0  0  0
 20 37  1  0  0  0  0
 23 38  1  0  0  0  0
 23 39  1  0  0  0  0
 23 40  1  0  0  0  0
 24 41  1  0  0  0  0
 24 42  1  0  0  0  0
 25 43  1  0  0  0  0
 26 44  1  0  0  0  0
 26 45  1  0  0  0  0
 27 46  1  0  0  0  0
M  END
> <Name>
44

> <IC50[uM]>
0.004

$$$$
44
  -OEChem-05192314333D
 Structure written by MMmdl.
 46 50  0     0  0  0  0  0  0999 V2000
   -6.3932   12.3500  -12.0125 C   0  0  0  0  0  0  0  0  0  0  0  0
   -6.5644   11.7828  -10.7394 C   0  0  0  0  0  0  0  0  0  0  0  0
   -7.7358   10.5711  -13.0331 C   0  0  0  0  0  0  0  0  0  0  0  0
   -6.9954   11.7572  -13.1322 C   0  0  0  0  0  0  0  0  0  0  0  0
   -7.8242    9.9989  -11.7591 C   0  0  0  0  0  0  0  0  0  0  0  0
   -7.2585   10.6059  -10.6150 C   0  0  0  0  0  0  0  0  0  0  0  0
   -7.6168    9.7386   -9.5213 C   0  0  0  0  0  0  0  0  0  0  0  0
   -8.2709    8.7166   -9.9884 N   0  0  0  0  0  0  0  0  0  0  0  0
   -8.4108    8.8490  -11.3012 N   0  0  0  0  0  0  0  0  0  0  0  0
   -7.3306    9.8912   -8.0312 C   0  0  0  0  0  0  0  0  0  0  0  0
   -4.5413   13.8555  -11.3648 N   0  0  0  0  0  0  0  0  0  0  0  0
   -5.5934   13.6525  -12.1835 C   0  0  0  0  0  0  0  0  0  0  0  0
   -5.9232   14.4812  -13.0224 O   0  0  0  0  0  0  0  0  0  0  0  0
   -5.9508   10.4991   -7.7310 C   0  0  0  0  0  0  0  0  0  0  0  0
   -5.8673   11.7672   -7.1520 C   0  0  0  0  0  0  0  0  0  0  0  0
   -4.6035   12.3102   -6.9134 C   0  0  0  0  0  0  0  0  0  0  0  0
   -3.4392   11.5630   -7.2455 C   0  0  0  0  0  0  0  0  0  0  0  0
   -3.5146   10.2834   -7.8141 C   0  0  0  0  0  0  0  0  0  0  0  0
   -4.7998    9.7761   -8.0492 C   0  0  0  0  0  0  0  0  0  0  0  0
   -4.0885   13.5395   -6.3720 C   0  0  0  0  0  0  0  0  0  0  0  0
   -2.7847   13.5343   -6.3770 N   0  0  0  0  0  0  0  0  0  0  0  0
   -2.3791   12.3751   -6.8806 N   0  0  0  0  0  0  0  0  0  0  0  0
   -0.9494   12.1118   -6.9818 C   0  0  0  0  0  0  0  0  0  0  0  0
   -3.7091   15.0460  -11.2252 C   0  0  0  0  0  0  0  0  0  0  0  0
   -3.1570   14.3608   -9.9755 C   0  0  0  0  0  0  0  0  0  0  0  0
   -4.1684   13.2423  -10.1016 C   0  0  0  0  0  0  0  0  0  0  0  0
   -1.8246   13.9322  -10.0585 O   0  0  0  0  0  0  0  0  0  0  0  0
   -5.5591   11.6070  -10.3289 H   0  0  0  0  0  0  0  0  0  0  0  0
   -7.0866   12.5296  -10.1233 H   0  0  0  0  0  0  0  0  0  0  0  0
   -8.2120   10.1234  -13.8929 H   0  0  0  0  0  0  0  0  0  0  0  0
   -6.8855   12.2280  -14.0979 H   0  0  0  0  0  0  0  0  0  0  0  0
   -8.0297    9.6003   -7.2611 H   0  0  0  0  0  0  0  0  0  0  0  0
   -6.3991   12.4633   -7.8173 H   0  0  0  0  0  0  0  0  0  0  0  0
   -6.3867   11.7165   -6.1837 H   0  0  0  0  0  0  0  0  0  0  0  0
   -2.6276    9.7177   -8.0584 H   0  0  0  0  0  0  0  0  0  0  0  0
   -4.9028    8.7956   -8.4901 H   0  0  0  0  0  0  0  0  0  0  0  0
   -4.6981   14.3547   -6.0110 H   0  0  0  0  0  0  0  0  0  0  0  0
   -0.3887   12.9766   -6.5976 H   0  0  0  0  0  0  0  0  0  0  0  0
   -0.6982   11.2196   -6.3895 H   0  0  0  0  0  0  0  0  0  0  0  0
   -0.6820   11.9401   -8.0349 H   0  0  0  0  0  0  0  0  0  0  0  0
   -2.9790   15.2028  -12.0329 H   0  0  0  0  0  0  0  0  0  0  0  0
   -4.2586   15.9809  -11.0410 H   0  0  0  0  0  0  0  0  0  0  0  0
   -3.3524   14.9686   -9.0797 H   0  0  0  0  0  0  0  0  0  0  0  0
   -4.9575   13.2416   -9.3352 H   0  0  0  0  0  0  0  0  0  0  0  0
   -3.7371   12.2338  -10.1847 H   0  0  0  0  0  0  0  0  0  0  0  0
   -1.5721   13.5212   -9.2401 H   0  0  0  0  0  0  0  0  0  0  0  0
  1  2  1  0  0  0  0
  1  4  2  0  0  0  0
  1 12  1  0  0  0  0
  2  6  1  0  0  0  0
  3  4  1  0  0  0  0
  3  5  2  0  0  0  0
  5  6  1  0  0  0  0
  5  9  1  0  0  0  0
  6  7  2  0  0  0  0
  7  8  1  0  0  0  0
  7 10  1  0  0  0  0
  8  9  2  0  0  0  0
 10 14  2  3  0  0  0
 11 12  1  0  0  0  0
 11 24  1  0  0  0  0
 11 26  1  0  0  0  0
 12 13  2  0  0  0  0
 14 15  1  0  0  0  0
 14 19  1  0  0  0  0
 15 16  1  0  0  0  0
 16 17  2  0  0  0  0
 16 20  1  0  0  0  0
 17 18  1  0  0  0  0
 17 22  1  0  0  0  0
 18 19  2  0  0  0  0
 20 21  2  0  0  0  0
 21 22  1  0  0  0  0
 22 23  1  0  0  0  0
 24 25  1  0  0  0  0
 25 26  1  0  0  0  0
 25 27  1  0  0  0  0
  2 28  1  0  0  0  0
  2 29  1  0  0  0  0
  3 30  1  0  0  0  0
  4 31  1  0  0  0  0
 10 32  1  0  0  0  0
 15 33  1  0  0  0  0
 15 34  1  0  0  0  0
 18 35  1  0  0  0  0
 19 36  1  0  0  0  0
 20 37  1  0  0  0  0
 23 38  1  0  0  0  0
 23 39  1  0  0  0  0
 23 40  1  0  0  0  0
 24 41  1  0  0  0  0
 24 42  1  0  0  0  0
 25 43  1  0  0  0  0
 26 44  1  0  0  0  0
 26 45  1  0  0  0  0
 27 46  1  0  0  0  0
M  END
> <Name>
44

> <IC50[uM]>
0.004

$$$$
44
  -OEChem-05192314333D
 Structure written by MMmdl.
 46 50  0     1  0  0  0  0  0999 V2000
   -6.3932   12.3500  -12.0125 C   0  0  3  0  0  0  0  0  0  0  0  0
   -6.5644   11.7828  -10.7394 C   0  0  0  0  0  0  0  0  0  0  0  0
   -7.7358   10.5711  -13.0331 C   0  0  0  0  0  0  0  0  0  0  0  0
   -6.9954   11.7572  -13.1322 C   0  0  0  0  0  0  0  0  0  0  0  0
   -7.8242    9.9989  -11.7591 C   0  0  0  0  0  0  0  0  0  0  0  0
   -7.2585   10.6059  -10.6150 C   0  0  0  0  0  0  0  0  0  0  0  0
   -7.6168    9.7386   -9.5213 C   0  0  0  0  0  0  0  0  0  0  0  0
   -8.2709    8.7166   -9.9884 N   0  0  0  0  0  0  0  0  0  0  0  0
   -8.4108    8.8490  -11.3012 N   0  0  0  0  0  0  0  0  0  0  0  0
   -7.3306    9.8912   -8.0312 C   0  0  0  0  0  0  0  0  0  0  0  0
   -4.5413   13.8555  -11.3648 N   0  0  0  0  0  0  0  0  0  0  0  0
   -5.5934   13.6525  -12.1835 C   0  0  0  0  0  0  0  0  0  0  0  0
   -5.9232   14.4812  -13.0224 O   0  0  0  0  0  0  0  0  0  0  0  0
   -5.9508   10.4991   -7.7310 C   0  0  0  0  0  0  0  0  0  0  0  0
   -5.8673   11.7672   -7.1520 C   0  0  0  0  0  0  0  0  0  0  0  0
   -4.6035   12.3102   -6.9134 C   0  0  0  0  0  0  0  0  0  0  0  0
   -3.4392   11.5630   -7.2455 C   0  0  0  0  0  0  0  0  0  0  0  0
   -3.5146   10.2834   -7.8141 C   0  0  0  0  0  0  0  0  0  0  0  0
   -4.7998    9.7761   -8.0492 C   0  0  0  0  0  0  0  0  0  0  0  0
   -4.0885   13.5395   -6.3720 C   0  0  0  0  0  0  0  0  0  0  0  0
   -2.7847   13.5343   -6.3770 N   0  0  0  0  0  0  0  0  0  0  0  0
   -2.3791   12.3751   -6.8806 N   0  0  0  0  0  0  0  0  0  0  0  0
   -0.9494   12.1118   -6.9818 C   0  0  0  0  0  0  0  0  0  0  0  0
   -3.7091   15.0460  -11.2252 C   0  0  0  0  0  0  0  0  0  0  0  0
   -3.1570   14.3608   -9.9755 C   0  0  0  0  0  0  0  0  0  0  0  0
   -4.1684   13.2423  -10.1016 C   0  0  0  0  0  0  0  0  0  0  0  0
   -1.8246   13.9322  -10.0585 O   0  0  0  0  0  0  0  0  0  0  0  0
   -5.4817   11.7548  -12.1703 H   0  0  0  0  0  0  0  0  0  0  0  0
   -6.1536   12.2683   -9.8665 H   0  0  0  0  0  0  0  0  0  0  0  0
   -8.2120   10.1234  -13.8929 H   0  0  0  0  0  0  0  0  0  0  0  0
   -6.8855   12.2280  -14.0979 H   0  0  0  0  0  0  0  0  0  0  0  0
   -8.0297    9.6003   -7.2611 H   0  0  0  0  0  0  0  0  0  0  0  0
   -6.7611   12.3160   -6.8944 H   0  0  0  0  0  0  0  0  0  0  0  0
   -2.6276    9.7177   -8.0584 H   0  0  0  0  0  0  0  0  0  0  0  0
   -4.8650    8.8316   -7.4892 H   0  0  0  0  0  0  0  0  0  0  0  0
   -4.8558    9.5675   -9.1278 H   0  0  0  0  0  0  0  0  0  0  0  0
   -4.6981   14.3547   -6.0110 H   0  0  0  0  0  0  0  0  0  0  0  0
   -0.3887   12.9766   -6.5976 H   0  0  0  0  0  0  0  0  0  0  0  0
   -0.6982   11.2196   -6.3895 H   0  0  0  0  0  0  0  0  0  0  0  0
   -0.6820   11.9401   -8.0349 H   0  0  0  0  0  0  0  0  0  0  0  0
   -2.9790   15.2028  -12.0329 H   0  0  0  0  0  0  0  0  0  0  0  0
   -4.2586   15.9809  -11.0410 H   0  0  0  0  0  0  0  0  0  0  0  0
   -3.3524   14.9686   -9.0797 H   0  0  0  0  0  0  0  0  0  0  0  0
   -4.9575   13.2416   -9.3352 H   0  0  0  0  0  0  0  0  0  0  0  0
   -3.7371   12.2338  -10.1847 H   0  0  0  0  0  0  0  0  0  0  0  0
   -1.5721   13.5212   -9.2401 H   0  0  0  0  0  0  0  0  0  0  0  0
  1  2  1  0  0  0  0
  1  4  1  0  0  0  0
  1 12  1  0  0  0  0
  2  6  2  0  0  0  0
  3  4  2  0  0  0  0
  3  5  1  0  0  0  0
  5  6  1  0  0  0  0
  5  9  2  0  0  0  0
  6  7  1  0  0  0  0
  7  8  2  0  0  0  0
  7 10  1  0  0  0  0
  8  9  1  0  0  0  0
 10 14  2  3  0  0  0
 11 12  1  0  0  0  0
 11 24  1  0  0  0  0
 11 26  1  0  0  0  0
 12 13  2  0  0  0  0
 14 15  1  0  0  0  0
 14 19  1  0  0  0  0
 15 16  2  0  0  0  0
 16 17  1  0  0  0  0
 16 20  1  0  0  0  0
 17 18  2  0  0  0  0
 17 22  1  0  0  0  0
 18 19  1  0  0  0  0
 20 21  2  0  0  0  0
 21 22  1  0  0  0  0
 22 23  1  0  0  0  0
 24 25  1  0  0  0  0
 25 26  1  0  0  0  0
 25 27  1  0  0  0  0
  1 28  1  0  0  0  0
  2 29  1  0  0  0  0
  3 30  1  0  0  0  0
  4 31  1  0  0  0  0
 10 32  1  0  0  0  0
 15 33  1  0  0  0  0
 18 34  1  0  0  0  0
 19 35  1  0  0  0  0
 19 36  1  0  0  0  0
 20 37  1  0  0  0  0
 23 38  1  0  0  0  0
 23 39  1  0  0  0  0
 23 40  1  0  0  0  0
 24 41  1  0  0  0  0
 24 42  1  0  0  0  0
 25 43  1  0  0  0  0
 26 44  1  0  0  0  0
 26 45  1  0  0  0  0
 27 46  1  0  0  0  0
M  END
> <Name>
44

> <IC50[uM]>
0.004

$$$$
44
  -OEChem-05192314333D
 Structure written by MMmdl.
 46 50  0     1  0  0  0  0  0999 V2000
   -6.3932   12.3500  -12.0125 C   0  0  0  0  0  0  0  0  0  0  0  0
   -6.5644   11.7828  -10.7394 C   0  0  0  0  0  0  0  0  0  0  0  0
   -7.7358   10.5711  -13.0331 C   0  0  0  0  0  0  0  0  0  0  0  0
   -6.9954   11.7572  -13.1322 C   0  0  0  0  0  0  0  0  0  0  0  0
   -7.8242    9.9989  -11.7591 C   0  0  0  0  0  0  0  0  0  0  0  0
   -7.2585   10.6059  -10.6150 C   0  0  3  0  0  0  0  0  0  0  0  0
   -7.6168    9.7386   -9.5213 C   0  0  0  0  0  0  0  0  0  0  0  0
   -8.2709    8.7166   -9.9884 N   0  0  0  0  0  0  0  0  0  0  0  0
   -8.4108    8.8490  -11.3012 N   0  0  0  0  0  0  0  0  0  0  0  0
   -7.3306    9.8912   -8.0312 C   0  0  0  0  0  0  0  0  0  0  0  0
   -4.5413   13.8555  -11.3648 N   0  0  0  0  0  0  0  0  0  0  0  0
   -5.5934   13.6525  -12.1835 C   0  0  0  0  0  0  0  0  0  0  0  0
   -5.9232   14.4812  -13.0224 O   0  0  0  0  0  0  0  0  0  0  0  0
   -5.9508   10.4991   -7.7310 C   0  0  0  0  0  0  0  0  0  0  0  0
   -5.8673   11.7672   -7.1520 C   0  0  0  0  0  0  0  0  0  0  0  0
   -4.6035   12.3102   -6.9134 C   0  0  0  0  0  0  0  0  0  0  0  0
   -3.4392   11.5630   -7.2455 C   0  0  0  0  0  0  0  0  0  0  0  0
   -3.5146   10.2834   -7.8141 C   0  0  0  0  0  0  0  0  0  0  0  0
   -4.7998    9.7761   -8.0492 C   0  0  0  0  0  0  0  0  0  0  0  0
   -4.0885   13.5395   -6.3720 C   0  0  0  0  0  0  0  0  0  0  0  0
   -2.7847   13.5343   -6.3770 N   0  0  0  0  0  0  0  0  0  0  0  0
   -2.3791   12.3751   -6.8806 N   0  0  0  0  0  0  0  0  0  0  0  0
   -0.9494   12.1118   -6.9818 C   0  0  0  0  0  0  0  0  0  0  0  0
   -3.7091   15.0460  -11.2252 C   0  0  0  0  0  0  0  0  0  0  0  0
   -3.1570   14.3608   -9.9755 C   0  0  0  0  0  0  0  0  0  0  0  0
   -4.1684   13.2423  -10.1016 C   0  0  0  0  0  0  0  0  0  0  0  0
   -1.8246   13.9322  -10.0585 O   0  0  0  0  0  0  0  0  0  0  0  0
   -6.1536   12.2683   -9.8665 H   0  0  0  0  0  0  0  0  0  0  0  0
   -8.2120   10.1234  -13.8929 H   0  0  0  0  0  0  0  0  0  0  0  0
   -6.8855   12.2280  -14.0979 H   0  0  0  0  0  0  0  0  0  0  0  0
   -6.3295   10.0369  -10.7673 H   0  0  0  0  0  0  0  0  0  0  0  0
   -8.0297    9.6003   -7.2611 H   0  0  0  0  0  0  0  0  0  0  0  0
   -6.7611   12.3160   -6.8944 H   0  0  0  0  0  0  0  0  0  0  0  0
   -2.6276    9.7177   -8.0584 H   0  0  0  0  0  0  0  0  0  0  0  0
   -4.8650    8.8316   -7.4892 H   0  0  0  0  0  0  0  0  0  0  0  0
   -4.8558    9.5675   -9.1278 H   0  0  0  0  0  0  0  0  0  0  0  0
   -4.6981   14.3547   -6.0110 H   0  0  0  0  0  0  0  0  0  0  0  0
   -0.3887   12.9766   -6.5976 H   0  0  0  0  0  0  0  0  0  0  0  0
   -0.6982   11.2196   -6.3895 H   0  0  0  0  0  0  0  0  0  0  0  0
   -0.6820   11.9401   -8.0349 H   0  0  0  0  0  0  0  0  0  0  0  0
   -2.9790   15.2028  -12.0329 H   0  0  0  0  0  0  0  0  0  0  0  0
   -4.2586   15.9809  -11.0410 H   0  0  0  0  0  0  0  0  0  0  0  0
   -3.3524   14.9686   -9.0797 H   0  0  0  0  0  0  0  0  0  0  0  0
   -4.9575   13.2416   -9.3352 H   0  0  0  0  0  0  0  0  0  0  0  0
   -3.7371   12.2338  -10.1847 H   0  0  0  0  0  0  0  0  0  0  0  0
   -1.5721   13.5212   -9.2401 H   0  0  0  0  0  0  0  0  0  0  0  0
  1  2  2  0  0  0  0
  1  4  1  0  0  0  0
  1 12  1  0  0  0  0
  2  6  1  0  0  0  0
  3  4  2  0  0  0  0
  3  5  1  0  0  0  0
  5  6  1  0  0  0  0
  5  9  2  0  0  0  0
  6  7  1  0  0  0  0
  7  8  2  0  0  0  0
  7 10  1  0  0  0  0
  8  9  1  0  0  0  0
 10 14  2  3  0  0  0
 11 12  1  0  0  0  0
 11 24  1  0  0  0  0
 11 26  1  0  0  0  0
 12 13  2  0  0  0  0
 14 15  1  0  0  0  0
 14 19  1  0  0  0  0
 15 16  2  0  0  0  0
 16 17  1  0  0  0  0
 16 20  1  0  0  0  0
 17 18  2  0  0  0  0
 17 22  1  0  0  0  0
 18 19  1  0  0  0  0
 20 21  2  0  0  0  0
 21 22  1  0  0  0  0
 22 23  1  0  0  0  0
 24 25  1  0  0  0  0
 25 26  1  0  0  0  0
 25 27  1  0  0  0  0
  2 28  1  0  0  0  0
  3 29  1  0  0  0  0
  4 30  1  0  0  0  0
  6 31  1  0  0  0  0
 10 32  1  0  0  0  0
 15 33  1  0  0  0  0
 18 34  1  0  0  0  0
 19 35  1  0  0  0  0
 19 36  1  0  0  0  0
 20 37  1  0  0  0  0
 23 38  1  0  0  0  0
 23 39  1  0  0  0  0
 23 40  1  0  0  0  0
 24 41  1  0  0  0  0
 24 42  1  0  0  0  0
 25 43  1  0  0  0  0
 26 44  1  0  0  0  0
 26 45  1  0  0  0  0
 27 46  1  0  0  0  0
M  END
> <Name>
44

> <IC50[uM]>
0.004

$$$$
44
  -OEChem-05192314333D
 Structure written by MMmdl.
 46 50  0     0  0  0  0  0  0999 V2000
   -6.3932   12.3500  -12.0125 C   0  0  0  0  0  0  0  0  0  0  0  0
   -6.5644   11.7828  -10.7394 C   0  0  0  0  0  0  0  0  0  0  0  0
   -7.7358   10.5711  -13.0331 C   0  0  0  0  0  0  0  0  0  0  0  0
   -6.9954   11.7572  -13.1322 C   0  0  0  0  0  0  0  0  0  0  0  0
   -7.8242    9.9989  -11.7591 C   0  0  0  0  0  0  0  0  0  0  0  0
   -7.2585   10.6059  -10.6150 C   0  0  0  0  0  0  0  0  0  0  0  0
   -7.6168    9.7386   -9.5213 C   0  0  0  0  0  0  0  0  0  0  0  0
   -8.2709    8.7166   -9.9884 N   0  0  0  0  0  0  0  0  0  0  0  0
   -8.4108    8.8490  -11.3012 N   0  0  0  0  0  0  0  0  0  0  0  0
   -7.3306    9.8912   -8.0312 C   0  0  0  0  0  0  0  0  0  0  0  0
   -4.5413   13.8555  -11.3648 N   0  0  0  0  0  0  0  0  0  0  0  0
   -5.5934   13.6525  -12.1835 C   0  0  0  0  0  0  0  0  0  0  0  0
   -5.9232   14.4812  -13.0224 O   0  0  0  0  0  0  0  0  0  0  0  0
   -5.9508   10.4991   -7.7310 C   0  0  0  0  0  0  0  0  0  0  0  0
   -5.8673   11.7672   -7.1520 C   0  0  0  0  0  0  0  0  0  0  0  0
   -4.6035   12.3102   -6.9134 C   0  0  0  0  0  0  0  0  0  0  0  0
   -3.4392   11.5630   -7.2455 C   0  0  0  0  0  0  0  0  0  0  0  0
   -3.5146   10.2834   -7.8141 C   0  0  0  0  0  0  0  0  0  0  0  0
   -4.7998    9.7761   -8.0492 C   0  0  0  0  0  0  0  0  0  0  0  0
   -4.0885   13.5395   -6.3720 C   0  0  0  0  0  0  0  0  0  0  0  0
   -2.7847   13.5343   -6.3770 N   0  0  0  0  0  0  0  0  0  0  0  0
   -2.3791   12.3751   -6.8806 N   0  0  0  0  0  0  0  0  0  0  0  0
   -0.9494   12.1118   -6.9818 C   0  0  0  0  0  0  0  0  0  0  0  0
   -3.7091   15.0460  -11.2252 C   0  0  0  0  0  0  0  0  0  0  0  0
   -3.1570   14.3608   -9.9755 C   0  0  0  0  0  0  0  0  0  0  0  0
   -4.1684   13.2423  -10.1016 C   0  0  0  0  0  0  0  0  0  0  0  0
   -1.8246   13.9322  -10.0585 O   0  0  0  0  0  0  0  0  0  0  0  0
   -6.1536   12.2683   -9.8665 H   0  0  0  0  0  0  0  0  0  0  0  0
   -8.7589   10.7853  -13.3758 H   0  0  0  0  0  0  0  0  0  0  0  0
   -7.2727    9.8304  -13.7016 H   0  0  0  0  0  0  0  0  0  0  0  0
   -6.8855   12.2280  -14.0979 H   0  0  0  0  0  0  0  0  0  0  0  0
   -8.0297    9.6003   -7.2611 H   0  0  0  0  0  0  0  0  0  0  0  0
   -6.7611   12.3160   -6.8944 H   0  0  0  0  0  0  0  0  0  0  0  0
   -2.6276    9.7177   -8.0584 H   0  0  0  0  0  0  0  0  0  0  0  0
   -4.8650    8.8316   -7.4892 H   0  0  0  0  0  0  0  0  0  0  0  0
   -4.8558    9.5675   -9.1278 H   0  0  0  0  0  0  0  0  0  0  0  0
   -4.6981   14.3547   -6.0110 H   0  0  0  0  0  0  0  0  0  0  0  0
   -0.3887   12.9766   -6.5976 H   0  0  0  0  0  0  0  0  0  0  0  0
   -0.6982   11.2196   -6.3895 H   0  0  0  0  0  0  0  0  0  0  0  0
   -0.6820   11.9401   -8.0349 H   0  0  0  0  0  0  0  0  0  0  0  0
   -2.9790   15.2028  -12.0329 H   0  0  0  0  0  0  0  0  0  0  0  0
   -4.2586   15.9809  -11.0410 H   0  0  0  0  0  0  0  0  0  0  0  0
   -3.3524   14.9686   -9.0797 H   0  0  0  0  0  0  0  0  0  0  0  0
   -4.9575   13.2416   -9.3352 H   0  0  0  0  0  0  0  0  0  0  0  0
   -3.7371   12.2338  -10.1847 H   0  0  0  0  0  0  0  0  0  0  0  0
   -1.5721   13.5212   -9.2401 H   0  0  0  0  0  0  0  0  0  0  0  0
  1  2  1  0  0  0  0
  1  4  2  0  0  0  0
  1 12  1  0  0  0  0
  2  6  2  0  0  0  0
  3  4  1  0  0  0  0
  3  5  1  0  0  0  0
  5  6  1  0  0  0  0
  5  9  2  0  0  0  0
  6  7  1  0  0  0  0
  7  8  2  0  0  0  0
  7 10  1  0  0  0  0
  8  9  1  0  0  0  0
 10 14  2  3  0  0  0
 11 12  1  0  0  0  0
 11 24  1  0  0  0  0
 11 26  1  0  0  0  0
 12 13  2  0  0  0  0
 14 15  1  0  0  0  0
 14 19  1  0  0  0  0
 15 16  2  0  0  0  0
 16 17  1  0  0  0  0
 16 20  1  0  0  0  0
 17 18  2  0  0  0  0
 17 22  1  0  0  0  0
 18 19  1  0  0  0  0
 20 21  2  0  0  0  0
 21 22  1  0  0  0  0
 22 23  1  0  0  0  0
 24 25  1  0  0  0  0
 25 26  1  0  0  0  0
 25 27  1  0  0  0  0
  2 28  1  0  0  0  0
  3 29  1  0  0  0  0
  3 30  1  0  0  0  0
  4 31  1  0  0  0  0
 10 32  1  0  0  0  0
 15 33  1  0  0  0  0
 18 34  1  0  0  0  0
 19 35  1  0  0  0  0
 19 36  1  0  0  0  0
 20 37  1  0  0  0  0
 23 38  1  0  0  0  0
 23 39  1  0  0  0  0
 23 40  1  0  0  0  0
 24 41  1  0  0  0  0
 24 42  1  0  0  0  0
 25 43  1  0  0  0  0
 26 44  1  0  0  0  0
 26 45  1  0  0  0  0
 27 46  1  0  0  0  0
M  END
> <Name>
44

> <IC50[uM]>
0.004

$$$$
44
  -OEChem-05192314333D
 Structure written by MMmdl.
 46 50  0     1  0  0  0  0  0999 V2000
   -6.3932   12.3500  -12.0125 C   0  0  0  0  0  0  0  0  0  0  0  0
   -6.5644   11.7828  -10.7394 C   0  0  0  0  0  0  0  0  0  0  0  0
   -7.7358   10.5711  -13.0331 C   0  0  0  0  0  0  0  0  0  0  0  0
   -6.9954   11.7572  -13.1322 C   0  0  0  0  0  0  0  0  0  0  0  0
   -7.8242    9.9989  -11.7591 C   0  0  3  0  0  0  0  0  0  0  0  0
   -7.2585   10.6059  -10.6150 C   0  0  0  0  0  0  0  0  0  0  0  0
   -7.6168    9.7386   -9.5213 C   0  0  0  0  0  0  0  0  0  0  0  0
   -8.2709    8.7166   -9.9884 N   0  0  0  0  0  0  0  0  0  0  0  0
   -8.4108    8.8490  -11.3012 N   0  0  0  0  0  0  0  0  0  0  0  0
   -7.3306    9.8912   -8.0312 C   0  0  0  0  0  0  0  0  0  0  0  0
   -4.5413   13.8555  -11.3648 N   0  0  0  0  0  0  0  0  0  0  0  0
   -5.5934   13.6525  -12.1835 C   0  0  0  0  0  0  0  0  0  0  0  0
   -5.9232   14.4812  -13.0224 O   0  0  0  0  0  0  0  0  0  0  0  0
   -5.9508   10.4991   -7.7310 C   0  0  0  0  0  0  0  0  0  0  0  0
   -5.8673   11.7672   -7.1520 C   0  0  0  0  0  0  0  0  0  0  0  0
   -4.6035   12.3102   -6.9134 C   0  0  0  0  0  0  0  0  0  0  0  0
   -3.4392   11.5630   -7.2455 C   0  0  0  0  0  0  0  0  0  0  0  0
   -3.5146   10.2834   -7.8141 C   0  0  0  0  0  0  0  0  0  0  0  0
   -4.7998    9.7761   -8.0492 C   0  0  0  0  0  0  0  0  0  0  0  0
   -4.0885   13.5395   -6.3720 C   0  0  0  0  0  0  0  0  0  0  0  0
   -2.7847   13.5343   -6.3770 N   0  0  0  0  0  0  0  0  0  0  0  0
   -2.3791   12.3751   -6.8806 N   0  0  0  0  0  0  0  0  0  0  0  0
   -0.9494   12.1118   -6.9818 C   0  0  0  0  0  0  0  0  0  0  0  0
   -3.7091   15.0460  -11.2252 C   0  0  0  0  0  0  0  0  0  0  0  0
   -3.1570   14.3608   -9.9755 C   0  0  0  0  0  0  0  0  0  0  0  0
   -4.1684   13.2423  -10.1016 C   0  0  0  0  0  0  0  0  0  0  0  0
   -1.8246   13.9322  -10.0585 O   0  0  0  0  0  0  0  0  0  0  0  0
   -6.1536   12.2683   -9.8665 H   0  0  0  0  0  0  0  0  0  0  0  0
   -8.2120   10.1234  -13.8929 H   0  0  0  0  0  0  0  0  0  0  0  0
   -6.8855   12.2280  -14.0979 H   0  0  0  0  0  0  0  0  0  0  0  0
   -6.8859    9.4528  -11.9364 H   0  0  0  0  0  0  0  0  0  0  0  0
   -8.0297    9.6003   -7.2611 H   0  0  0  0  0  0  0  0  0  0  0  0
   -6.7611   12.3160   -6.8944 H   0  0  0  0  0  0  0  0  0  0  0  0
   -2.6276    9.7177   -8.0584 H   0  0  0  0  0  0  0  0  0  0  0  0
   -4.8650    8.8316   -7.4892 H   0  0  0  0  0  0  0  0  0  0  0  0
   -4.8558    9.5675   -9.1278 H   0  0  0  0  0  0  0  0  0  0  0  0
   -4.6981   14.3547   -6.0110 H   0  0  0  0  0  0  0  0  0  0  0  0
   -0.3887   12.9766   -6.5976 H   0  0  0  0  0  0  0  0  0  0  0  0
   -0.6982   11.2196   -6.3895 H   0  0  0  0  0  0  0  0  0  0  0  0
   -0.6820   11.9401   -8.0349 H   0  0  0  0  0  0  0  0  0  0  0  0
   -2.9790   15.2028  -12.0329 H   0  0  0  0  0  0  0  0  0  0  0  0
   -4.2586   15.9809  -11.0410 H   0  0  0  0  0  0  0  0  0  0  0  0
   -3.3524   14.9686   -9.0797 H   0  0  0  0  0  0  0  0  0  0  0  0
   -4.9575   13.2416   -9.3352 H   0  0  0  0  0  0  0  0  0  0  0  0
   -3.7371   12.2338  -10.1847 H   0  0  0  0  0  0  0  0  0  0  0  0
   -1.5721   13.5212   -9.2401 H   0  0  0  0  0  0  0  0  0  0  0  0
  1  2  2  0  0  0  0
  1  4  1  0  0  0  0
  1 12  1  0  0  0  0
  2  6  1  0  0  0  0
  3  4  2  0  0  0  0
  3  5  1  0  0  0  0
  5  6  1  0  0  0  0
  5  9  1  0  0  0  0
  6  7  2  0  0  0  0
  7  8  1  0  0  0  0
  7 10  1  0  0  0  0
  8  9  2  0  0  0  0
 10 14  2  3  0  0  0
 11 12  1  0  0  0  0
 11 24  1  0  0  0  0
 11 26  1  0  0  0  0
 12 13  2  0  0  0  0
 14 15  1  0  0  0  0
 14 19  1  0  0  0  0
 15 16  2  0  0  0  0
 16 17  1  0  0  0  0
 16 20  1  0  0  0  0
 17 18  2  0  0  0  0
 17 22  1  0  0  0  0
 18 19  1  0  0  0  0
 20 21  2  0  0  0  0
 21 22  1  0  0  0  0
 22 23  1  0  0  0  0
 24 25  1  0  0  0  0
 25 26  1  0  0  0  0
 25 27  1  0  0  0  0
  2 28  1  0  0  0  0
  3 29  1  0  0  0  0
  4 30  1  0  0  0  0
  5 31  1  0  0  0  0
 10 32  1  0  0  0  0
 15 33  1  0  0  0  0
 18 34  1  0  0  0  0
 19 35  1  0  0  0  0
 19 36  1  0  0  0  0
 20 37  1  0  0  0  0
 23 38  1  0  0  0  0
 23 39  1  0  0  0  0
 23 40  1  0  0  0  0
 24 41  1  0  0  0  0
 24 42  1  0  0  0  0
 25 43  1  0  0  0  0
 26 44  1  0  0  0  0
 26 45  1  0  0  0  0
 27 46  1  0  0  0  0
M  END
> <Name>
44

> <IC50[uM]>
0.004

$$$$
44
  -OEChem-05192314333D
 Structure written by MMmdl.
 46 50  0     0  0  0  0  0  0999 V2000
   -6.3932   12.3500  -12.0125 C   0  0  0  0  0  0  0  0  0  0  0  0
   -6.5644   11.7828  -10.7394 C   0  0  0  0  0  0  0  0  0  0  0  0
   -7.7358   10.5711  -13.0331 C   0  0  0  0  0  0  0  0  0  0  0  0
   -6.9954   11.7572  -13.1322 C   0  0  0  0  0  0  0  0  0  0  0  0
   -7.8242    9.9989  -11.7591 C   0  0  0  0  0  0  0  0  0  0  0  0
   -7.2585   10.6059  -10.6150 C   0  0  0  0  0  0  0  0  0  0  0  0
   -7.6168    9.7386   -9.5213 C   0  0  0  0  0  0  0  0  0  0  0  0
   -8.2709    8.7166   -9.9884 N   0  0  0  0  0  0  0  0  0  0  0  0
   -8.4108    8.8490  -11.3012 N   0  0  0  0  0  0  0  0  0  0  0  0
   -7.3306    9.8912   -8.0312 C   0  0  0  0  0  0  0  0  0  0  0  0
   -4.5413   13.8555  -11.3648 N   0  0  0  0  0  0  0  0  0  0  0  0
   -5.5934   13.6525  -12.1835 C   0  0  0  0  0  0  0  0  0  0  0  0
   -5.9232   14.4812  -13.0224 O   0  0  0  0  0  0  0  0  0  0  0  0
   -5.9508   10.4991   -7.7310 C   0  0  0  0  0  0  0  0  0  0  0  0
   -5.8673   11.7672   -7.1520 C   0  0  0  0  0  0  0  0  0  0  0  0
   -4.6035   12.3102   -6.9134 C   0  0  0  0  0  0  0  0  0  0  0  0
   -3.4392   11.5630   -7.2455 C   0  0  0  0  0  0  0  0  0  0  0  0
   -3.5146   10.2834   -7.8141 C   0  0  0  0  0  0  0  0  0  0  0  0
   -4.7998    9.7761   -8.0492 C   0  0  0  0  0  0  0  0  0  0  0  0
   -4.0885   13.5395   -6.3720 C   0  0  0  0  0  0  0  0  0  0  0  0
   -2.7847   13.5343   -6.3770 N   0  0  0  0  0  0  0  0  0  0  0  0
   -2.3791   12.3751   -6.8806 N   0  0  0  0  0  0  0  0  0  0  0  0
   -0.9494   12.1118   -6.9818 C   0  0  0  0  0  0  0  0  0  0  0  0
   -3.7091   15.0460  -11.2252 C   0  0  0  0  0  0  0  0  0  0  0  0
   -3.1570   14.3608   -9.9755 C   0  0  0  0  0  0  0  0  0  0  0  0
   -4.1684   13.2423  -10.1016 C   0  0  0  0  0  0  0  0  0  0  0  0
   -1.8246   13.9322  -10.0585 O   0  0  0  0  0  0  0  0  0  0  0  0
   -6.1536   12.2683   -9.8665 H   0  0  0  0  0  0  0  0  0  0  0  0
   -8.2120   10.1234  -13.8929 H   0  0  0  0  0  0  0  0  0  0  0  0
   -7.6766   12.5120  -13.5520 H   0  0  0  0  0  0  0  0  0  0  0  0
   -6.1849   11.5561  -13.8482 H   0  0  0  0  0  0  0  0  0  0  0  0
   -8.0297    9.6003   -7.2611 H   0  0  0  0  0  0  0  0  0  0  0  0
   -6.7611   12.3160   -6.8944 H   0  0  0  0  0  0  0  0  0  0  0  0
   -2.6276    9.7177   -8.0584 H   0  0  0  0  0  0  0  0  0  0  0  0
   -4.8650    8.8316   -7.4892 H   0  0  0  0  0  0  0  0  0  0  0  0
   -4.8558    9.5675   -9.1278 H   0  0  0  0  0  0  0  0  0  0  0  0
   -4.6981   14.3547   -6.0110 H   0  0  0  0  0  0  0  0  0  0  0  0
   -0.3887   12.9766   -6.5976 H   0  0  0  0  0  0  0  0  0  0  0  0
   -0.6982   11.2196   -6.3895 H   0  0  0  0  0  0  0  0  0  0  0  0
   -0.6820   11.9401   -8.0349 H   0  0  0  0  0  0  0  0  0  0  0  0
   -2.9790   15.2028  -12.0329 H   0  0  0  0  0  0  0  0  0  0  0  0
   -4.2586   15.9809  -11.0410 H   0  0  0  0  0  0  0  0  0  0  0  0
   -3.3524   14.9686   -9.0797 H   0  0  0  0  0  0  0  0  0  0  0  0
   -4.9575   13.2416   -9.3352 H   0  0  0  0  0  0  0  0  0  0  0  0
   -3.7371   12.2338  -10.1847 H   0  0  0  0  0  0  0  0  0  0  0  0
   -1.5721   13.5212   -9.2401 H   0  0  0  0  0  0  0  0  0  0  0  0
  1  2  2  0  0  0  0
  1  4  1  0  0  0  0
  1 12  1  0  0  0  0
  2  6  1  0  0  0  0
  3  4  1  0  0  0  0
  3  5  2  0  0  0  0
  5  6  1  0  0  0  0
  5  9  1  0  0  0  0
  6  7  2  0  0  0  0
  7  8  1  0  0  0  0
  7 10  1  0  0  0  0
  8  9  2  0  0  0  0
 10 14  2  3  0  0  0
 11 12  1  0  0  0  0
 11 24  1  0  0  0  0
 11 26  1  0  0  0  0
 12 13  2  0  0  0  0
 14 15  1  0  0  0  0
 14 19  1  0  0  0  0
 15 16  2  0  0  0  0
 16 17  1  0  0  0  0
 16 20  1  0  0  0  0
 17 18  2  0  0  0  0
 17 22  1  0  0  0  0
 18 19  1  0  0  0  0
 20 21  2  0  0  0  0
 21 22  1  0  0  0  0
 22 23  1  0  0  0  0
 24 25  1  0  0  0  0
 25 26  1  0  0  0  0
 25 27  1  0  0  0  0
  2 28  1  0  0  0  0
  3 29  1  0  0  0  0
  4 30  1  0  0  0  0
  4 31  1  0  0  0  0
 10 32  1  0  0  0  0
 15 33  1  0  0  0  0
 18 34  1  0  0  0  0
 19 35  1  0  0  0  0
 19 36  1  0  0  0  0
 20 37  1  0  0  0  0
 23 38  1  0  0  0  0
 23 39  1  0  0  0  0
 23 40  1  0  0  0  0
 24 41  1  0  0  0  0
 24 42  1  0  0  0  0
 25 43  1  0  0  0  0
 26 44  1  0  0  0  0
 26 45  1  0  0  0  0
 27 46  1  0  0  0  0
M  END
> <Name>
44

> <IC50[uM]>
0.004

$$$$
44
  -OEChem-05192314333D
 Structure written by MMmdl.
 46 50  0     0  0  0  0  0  0999 V2000
   -6.3932   12.3500  -12.0125 C   0  0  0  0  0  0  0  0  0  0  0  0
   -6.5644   11.7828  -10.7394 C   0  0  0  0  0  0  0  0  0  0  0  0
   -7.7358   10.5711  -13.0331 C   0  0  0  0  0  0  0  0  0  0  0  0
   -6.9954   11.7572  -13.1322 C   0  0  0  0  0  0  0  0  0  0  0  0
   -7.8242    9.9989  -11.7591 C   0  0  0  0  0  0  0  0  0  0  0  0
   -7.2585   10.6059  -10.6150 C   0  0  0  0  0  0  0  0  0  0  0  0
   -7.6168    9.7386   -9.5213 C   0  0  0  0  0  0  0  0  0  0  0  0
   -8.2709    8.7166   -9.9884 N   0  0  0  0  0  0  0  0  0  0  0  0
   -8.4108    8.8490  -11.3012 N   0  0  0  0  0  0  0  0  0  0  0  0
   -7.3306    9.8912   -8.0312 C   0  0  0  0  0  0  0  0  0  0  0  0
   -4.5413   13.8555  -11.3648 N   0  0  0  0  0  0  0  0  0  0  0  0
   -5.5934   13.6525  -12.1835 C   0  0  0  0  0  0  0  0  0  0  0  0
   -5.9232   14.4812  -13.0224 O   0  0  0  0  0  0  0  0  0  0  0  0
   -5.9508   10.4991   -7.7310 C   0  0  0  0  0  0  0  0  0  0  0  0
   -5.8673   11.7672   -7.1520 C   0  0  0  0  0  0  0  0  0  0  0  0
   -4.6035   12.3102   -6.9134 C   0  0  0  0  0  0  0  0  0  0  0  0
   -3.4392   11.5630   -7.2455 C   0  0  0  0  0  0  0  0  0  0  0  0
   -3.5146   10.2834   -7.8141 C   0  0  0  0  0  0  0  0  0  0  0  0
   -4.7998    9.7761   -8.0492 C   0  0  0  0  0  0  0  0  0  0  0  0
   -4.0885   13.5395   -6.3720 C   0  0  0  0  0  0  0  0  0  0  0  0
   -2.7847   13.5343   -6.3770 N   0  0  0  0  0  0  0  0  0  0  0  0
   -2.3791   12.3751   -6.8806 N   0  0  0  0  0  0  0  0  0  0  0  0
   -0.9494   12.1118   -6.9818 C   0  0  0  0  0  0  0  0  0  0  0  0
   -3.7091   15.0460  -11.2252 C   0  0  0  0  0  0  0  0  0  0  0  0
   -3.1570   14.3608   -9.9755 C   0  0  0  0  0  0  0  0  0  0  0  0
   -4.1684   13.2423  -10.1016 C   0  0  0  0  0  0  0  0  0  0  0  0
   -1.8246   13.9322  -10.0585 O   0  0  0  0  0  0  0  0  0  0  0  0
   -5.5591   11.6070  -10.3289 H   0  0  0  0  0  0  0  0  0  0  0  0
   -7.0866   12.5296  -10.1233 H   0  0  0  0  0  0  0  0  0  0  0  0
   -8.2120   10.1234  -13.8929 H   0  0  0  0  0  0  0  0  0  0  0  0
   -6.8855   12.2280  -14.0979 H   0  0  0  0  0  0  0  0  0  0  0  0
   -8.0297    9.6003   -7.2611 H   0  0  0  0  0  0  0  0  0  0  0  0
   -6.7611   12.3160   -6.8944 H   0  0  0  0  0  0  0  0  0  0  0  0
   -2.6276    9.7177   -8.0584 H   0  0  0  0  0  0  0  0  0  0  0  0
   -4.8650    8.8316   -7.4892 H   0  0  0  0  0  0  0  0  0  0  0  0
   -4.8558    9.5675   -9.1278 H   0  0  0  0  0  0  0  0  0  0  0  0
   -4.6981   14.3547   -6.0110 H   0  0  0  0  0  0  0  0  0  0  0  0
   -0.3887   12.9766   -6.5976 H   0  0  0  0  0  0  0  0  0  0  0  0
   -0.6982   11.2196   -6.3895 H   0  0  0  0  0  0  0  0  0  0  0  0
   -0.6820   11.9401   -8.0349 H   0  0  0  0  0  0  0  0  0  0  0  0
   -2.9790   15.2028  -12.0329 H   0  0  0  0  0  0  0  0  0  0  0  0
   -4.2586   15.9809  -11.0410 H   0  0  0  0  0  0  0  0  0  0  0  0
   -3.3524   14.9686   -9.0797 H   0  0  0  0  0  0  0  0  0  0  0  0
   -4.9575   13.2416   -9.3352 H   0  0  0  0  0  0  0  0  0  0  0  0
   -3.7371   12.2338  -10.1847 H   0  0  0  0  0  0  0  0  0  0  0  0
   -1.5721   13.5212   -9.2401 H   0  0  0  0  0  0  0  0  0  0  0  0
  1  2  1  0  0  0  0
  1  4  2  0  0  0  0
  1 12  1  0  0  0  0
  2  6  1  0  0  0  0
  3  4  1  0  0  0  0
  3  5  2  0  0  0  0
  5  6  1  0  0  0  0
  5  9  1  0  0  0  0
  6  7  2  0  0  0  0
  7  8  1  0  0  0  0
  7 10  1  0  0  0  0
  8  9  2  0  0  0  0
 10 14  2  3  0  0  0
 11 12  1  0  0  0  0
 11 24  1  0  0  0  0
 11 26  1  0  0  0  0
 12 13  2  0  0  0  0
 14 15  1  0  0  0  0
 14 19  1  0  0  0  0
 15 16  2  0  0  0  0
 16 17  1  0  0  0  0
 16 20  1  0  0  0  0
 17 18  2  0  0  0  0
 17 22  1  0  0  0  0
 18 19  1  0  0  0  0
 20 21  2  0  0  0  0
 21 22  1  0  0  0  0
 22 23  1  0  0  0  0
 24 25  1  0  0  0  0
 25 26  1  0  0  0  0
 25 27  1  0  0  0  0
  2 28  1  0  0  0  0
  2 29  1  0  0  0  0
  3 30  1  0  0  0  0
  4 31  1  0  0  0  0
 10 32  1  0  0  0  0
 15 33  1  0  0  0  0
 18 34  1  0  0  0  0
 19 35  1  0  0  0  0
 19 36  1  0  0  0  0
 20 37  1  0  0  0  0
 23 38  1  0  0  0  0
 23 39  1  0  0  0  0
 23 40  1  0  0  0  0
 24 41  1  0  0  0  0
 24 42  1  0  0  0  0
 25 43  1  0  0  0  0
 26 44  1  0  0  0  0
 26 45  1  0  0  0  0
 27 46  1  0  0  0  0
M  END
> <Name>
44

> <IC50[uM]>
0.004

$$$$
44
  -OEChem-05192314333D
 Structure written by MMmdl.
 46 50  0     1  0  0  0  0  0999 V2000
   -6.3932   12.3500  -12.0125 C   0  0  3  0  0  0  0  0  0  0  0  0
   -6.5644   11.7828  -10.7394 C   0  0  0  0  0  0  0  0  0  0  0  0
   -7.7358   10.5711  -13.0331 C   0  0  0  0  0  0  0  0  0  0  0  0
   -6.9954   11.7572  -13.1322 C   0  0  0  0  0  0  0  0  0  0  0  0
   -7.8242    9.9989  -11.7591 C   0  0  0  0  0  0  0  0  0  0  0  0
   -7.2585   10.6059  -10.6150 C   0  0  0  0  0  0  0  0  0  0  0  0
   -7.6168    9.7386   -9.5213 C   0  0  0  0  0  0  0  0  0  0  0  0
   -8.2709    8.7166   -9.9884 N   0  0  0  0  0  0  0  0  0  0  0  0
   -8.4108    8.8490  -11.3012 N   0  0  0  0  0  0  0  0  0  0  0  0
   -7.3306    9.8912   -8.0312 C   0  0  0  0  0  0  0  0  0  0  0  0
   -4.5413   13.8555  -11.3648 N   0  0  0  0  0  0  0  0  0  0  0  0
   -5.5934   13.6525  -12.1835 C   0  0  0  0  0  0  0  0  0  0  0  0
   -5.9232   14.4812  -13.0224 O   0  0  0  0  0  0  0  0  0  0  0  0
   -5.9508   10.4991   -7.7310 C   0  0  0  0  0  0  0  0  0  0  0  0
   -5.8673   11.7672   -7.1520 C   0  0  0  0  0  0  0  0  0  0  0  0
   -4.6035   12.3102   -6.9134 C   0  0  0  0  0  0  0  0  0  0  0  0
   -3.4392   11.5630   -7.2455 C   0  0  3  0  0  0  0  0  0  0  0  0
   -3.5146   10.2834   -7.8141 C   0  0  0  0  0  0  0  0  0  0  0  0
   -4.7998    9.7761   -8.0492 C   0  0  0  0  0  0  0  0  0  0  0  0
   -4.0885   13.5395   -6.3720 C   0  0  0  0  0  0  0  0  0  0  0  0
   -2.7847   13.5343   -6.3770 N   0  0  0  0  0  0  0  0  0  0  0  0
   -2.3791   12.3751   -6.8806 N   0  0  3  0  0  0  0  0  0  0  0  0
   -0.9494   12.1118   -6.9818 C   0  0  0  0  0  0  0  0  0  0  0  0
   -3.7091   15.0460  -11.2252 C   0  0  0  0  0  0  0  0  0  0  0  0
   -3.1570   14.3608   -9.9755 C   0  0  0  0  0  0  0  0  0  0  0  0
   -4.1684   13.2423  -10.1016 C   0  0  0  0  0  0  0  0  0  0  0  0
   -1.8246   13.9322  -10.0585 O   0  0  0  0  0  0  0  0  0  0  0  0
   -5.4817   11.7548  -12.1703 H   0  0  0  0  0  0  0  0  0  0  0  0
   -6.1536   12.2683   -9.8665 H   0  0  0  0  0  0  0  0  0  0  0  0
   -8.2120   10.1234  -13.8929 H   0  0  0  0  0  0  0  0  0  0  0  0
   -6.8855   12.2280  -14.0979 H   0  0  0  0  0  0  0  0  0  0  0  0
   -8.0297    9.6003   -7.2611 H   0  0  0  0  0  0  0  0  0  0  0  0
   -6.7611   12.3160   -6.8944 H   0  0  0  0  0  0  0  0  0  0  0  0
   -3.4374   12.0105   -8.2504 H   0  0  0  0  0  0  0  0  0  0  0  0
   -2.6276    9.7177   -8.0584 H   0  0  0  0  0  0  0  0  0  0  0  0
   -4.9028    8.7956   -8.4901 H   0  0  0  0  0  0  0  0  0  0  0  0
   -4.6981   14.3547   -6.0110 H   0  0  0  0  0  0  0  0  0  0  0  0
   -0.3887   12.9766   -6.5976 H   0  0  0  0  0  0  0  0  0  0  0  0
   -0.6982   11.2196   -6.3895 H   0  0  0  0  0  0  0  0  0  0  0  0
   -0.6820   11.9401   -8.0349 H   0  0  0  0  0  0  0  0  0  0  0  0
   -2.9790   15.2028  -12.0329 H   0  0  0  0  0  0  0  0  0  0  0  0
   -4.2586   15.9809  -11.0410 H   0  0  0  0  0  0  0  0  0  0  0  0
   -3.3524   14.9686   -9.0797 H   0  0  0  0  0  0  0  0  0  0  0  0
   -4.9575   13.2416   -9.3352 H   0  0  0  0  0  0  0  0  0  0  0  0
   -3.7371   12.2338  -10.1847 H   0  0  0  0  0  0  0  0  0  0  0  0
   -1.5721   13.5212   -9.2401 H   0  0  0  0  0  0  0  0  0  0  0  0
  1  2  1  0  0  0  0
  1  4  1  0  0  0  0
  1 12  1  0  0  0  0
  2  6  2  0  0  0  0
  3  4  2  0  0  0  0
  3  5  1  0  0  0  0
  5  6  1  0  0  0  0
  5  9  2  0  0  0  0
  6  7  1  0  0  0  0
  7  8  2  0  0  0  0
  7 10  1  0  0  0  0
  8  9  1  0  0  0  0
 10 14  2  3  0  0  0
 11 12  1  0  0  0  0
 11 24  1  0  0  0  0
 11 26  1  0  0  0  0
 12 13  2  0  0  0  0
 14 15  1  0  0  0  0
 14 19  1  0  0  0  0
 15 16  2  0  0  0  0
 16 17  1  0  0  0  0
 16 20  1  0  0  0  0
 17 18  1  0  0  0  0
 17 22  1  0  0  0  0
 18 19  2  0  0  0  0
 20 21  2  0  0  0  0
 21 22  1  0  0  0  0
 22 23  1  0  0  0  0
 24 25  1  0  0  0  0
 25 26  1  0  0  0  0
 25 27  1  0  0  0  0
  1 28  1  0  0  0  0
  2 29  1  0  0  0  0
  3 30  1  0  0  0  0
  4 31  1  0  0  0  0
 10 32  1  0  0  0  0
 15 33  1  0  0  0  0
 17 34  1  0  0  0  0
 18 35  1  0  0  0  0
 19 36  1  0  0  0  0
 20 37  1  0  0  0  0
 23 38  1  0  0  0  0
 23 39  1  0  0  0  0
 23 40  1  0  0  0  0
 24 41  1  0  0  0  0
 24 42  1  0  0  0  0
 25 43  1  0  0  0  0
 26 44  1  0  0  0  0
 26 45  1  0  0  0  0
 27 46  1  0  0  0  0
M  END
> <Name>
44

> <IC50[uM]>
0.004

$$$$
44
  -OEChem-05192314333D
 Structure written by MMmdl.
 46 50  0     1  0  0  0  0  0999 V2000
   -6.3932   12.3500  -12.0125 C   0  0  0  0  0  0  0  0  0  0  0  0
   -6.5644   11.7828  -10.7394 C   0  0  0  0  0  0  0  0  0  0  0  0
   -7.7358   10.5711  -13.0331 C   0  0  0  0  0  0  0  0  0  0  0  0
   -6.9954   11.7572  -13.1322 C   0  0  0  0  0  0  0  0  0  0  0  0
   -7.8242    9.9989  -11.7591 C   0  0  0  0  0  0  0  0  0  0  0  0
   -7.2585   10.6059  -10.6150 C   0  0  3  0  0  0  0  0  0  0  0  0
   -7.6168    9.7386   -9.5213 C   0  0  0  0  0  0  0  0  0  0  0  0
   -8.2709    8.7166   -9.9884 N   0  0  0  0  0  0  0  0  0  0  0  0
   -8.4108    8.8490  -11.3012 N   0  0  0  0  0  0  0  0  0  0  0  0
   -7.3306    9.8912   -8.0312 C   0  0  0  0  0  0  0  0  0  0  0  0
   -4.5413   13.8555  -11.3648 N   0  0  0  0  0  0  0  0  0  0  0  0
   -5.5934   13.6525  -12.1835 C   0  0  0  0  0  0  0  0  0  0  0  0
   -5.9232   14.4812  -13.0224 O   0  0  0  0  0  0  0  0  0  0  0  0
   -5.9508   10.4991   -7.7310 C   0  0  0  0  0  0  0  0  0  0  0  0
   -5.8673   11.7672   -7.1520 C   0  0  0  0  0  0  0  0  0  0  0  0
   -4.6035   12.3102   -6.9134 C   0  0  0  0  0  0  0  0  0  0  0  0
   -3.4392   11.5630   -7.2455 C   0  0  3  0  0  0  0  0  0  0  0  0
   -3.5146   10.2834   -7.8141 C   0  0  0  0  0  0  0  0  0  0  0  0
   -4.7998    9.7761   -8.0492 C   0  0  0  0  0  0  0  0  0  0  0  0
   -4.0885   13.5395   -6.3720 C   0  0  0  0  0  0  0  0  0  0  0  0
   -2.7847   13.5343   -6.3770 N   0  0  0  0  0  0  0  0  0  0  0  0
   -2.3791   12.3751   -6.8806 N   0  0  3  0  0  0  0  0  0  0  0  0
   -0.9494   12.1118   -6.9818 C   0  0  0  0  0  0  0  0  0  0  0  0
   -3.7091   15.0460  -11.2252 C   0  0  0  0  0  0  0  0  0  0  0  0
   -3.1570   14.3608   -9.9755 C   0  0  0  0  0  0  0  0  0  0  0  0
   -4.1684   13.2423  -10.1016 C   0  0  0  0  0  0  0  0  0  0  0  0
   -1.8246   13.9322  -10.0585 O   0  0  0  0  0  0  0  0  0  0  0  0
   -6.1536   12.2683   -9.8665 H   0  0  0  0  0  0  0  0  0  0  0  0
   -8.2120   10.1234  -13.8929 H   0  0  0  0  0  0  0  0  0  0  0  0
   -6.8855   12.2280  -14.0979 H   0  0  0  0  0  0  0  0  0  0  0  0
   -6.3295   10.0369  -10.7673 H   0  0  0  0  0  0  0  0  0  0  0  0
   -8.0297    9.6003   -7.2611 H   0  0  0  0  0  0  0  0  0  0  0  0
   -6.7611   12.3160   -6.8944 H   0  0  0  0  0  0  0  0  0  0  0  0
   -3.4374   12.0105   -8.2504 H   0  0  0  0  0  0  0  0  0  0  0  0
   -2.6276    9.7177   -8.0584 H   0  0  0  0  0  0  0  0  0  0  0  0
   -4.9028    8.7956   -8.4901 H   0  0  0  0  0  0  0  0  0  0  0  0
   -4.6981   14.3547   -6.0110 H   0  0  0  0  0  0  0  0  0  0  0  0
   -0.3887   12.9766   -6.5976 H   0  0  0  0  0  0  0  0  0  0  0  0
   -0.6982   11.2196   -6.3895 H   0  0  0  0  0  0  0  0  0  0  0  0
   -0.6820   11.9401   -8.0349 H   0  0  0  0  0  0  0  0  0  0  0  0
   -2.9790   15.2028  -12.0329 H   0  0  0  0  0  0  0  0  0  0  0  0
   -4.2586   15.9809  -11.0410 H   0  0  0  0  0  0  0  0  0  0  0  0
   -3.3524   14.9686   -9.0797 H   0  0  0  0  0  0  0  0  0  0  0  0
   -4.9575   13.2416   -9.3352 H   0  0  0  0  0  0  0  0  0  0  0  0
   -3.7371   12.2338  -10.1847 H   0  0  0  0  0  0  0  0  0  0  0  0
   -1.5721   13.5212   -9.2401 H   0  0  0  0  0  0  0  0  0  0  0  0
  1  2  2  0  0  0  0
  1  4  1  0  0  0  0
  1 12  1  0  0  0  0
  2  6  1  0  0  0  0
  3  4  2  0  0  0  0
  3  5  1  0  0  0  0
  5  6  1  0  0  0  0
  5  9  2  0  0  0  0
  6  7  1  0  0  0  0
  7  8  2  0  0  0  0
  7 10  1  0  0  0  0
  8  9  1  0  0  0  0
 10 14  2  3  0  0  0
 11 12  1  0  0  0  0
 11 24  1  0  0  0  0
 11 26  1  0  0  0  0
 12 13  2  0  0  0  0
 14 15  1  0  0  0  0
 14 19  1  0  0  0  0
 15 16  2  0  0  0  0
 16 17  1  0  0  0  0
 16 20  1  0  0  0  0
 17 18  1  0  0  0  0
 17 22  1  0  0  0  0
 18 19  2  0  0  0  0
 20 21  2  0  0  0  0
 21 22  1  0  0  0  0
 22 23  1  0  0  0  0
 24 25  1  0  0  0  0
 25 26  1  0  0  0  0
 25 27  1  0  0  0  0
  2 28  1  0  0  0  0
  3 29  1  0  0  0  0
  4 30  1  0  0  0  0
  6 31  1  0  0  0  0
 10 32  1  0  0  0  0
 15 33  1  0  0  0  0
 17 34  1  0  0  0  0
 18 35  1  0  0  0  0
 19 36  1  0  0  0  0
 20 37  1  0  0  0  0
 23 38  1  0  0  0  0
 23 39  1  0  0  0  0
 23 40  1  0  0  0  0
 24 41  1  0  0  0  0
 24 42  1  0  0  0  0
 25 43  1  0  0  0  0
 26 44  1  0  0  0  0
 26 45  1  0  0  0  0
 27 46  1  0  0  0  0
M  END
> <Name>
44

> <IC50[uM]>
0.004

$$$$
44
  -OEChem-05192314333D
 Structure written by MMmdl.
 46 50  0     1  0  0  0  0  0999 V2000
   -6.3932   12.3500  -12.0125 C   0  0  0  0  0  0  0  0  0  0  0  0
   -6.5644   11.7828  -10.7394 C   0  0  0  0  0  0  0  0  0  0  0  0
   -7.7358   10.5711  -13.0331 C   0  0  0  0  0  0  0  0  0  0  0  0
   -6.9954   11.7572  -13.1322 C   0  0  0  0  0  0  0  0  0  0  0  0
   -7.8242    9.9989  -11.7591 C   0  0  0  0  0  0  0  0  0  0  0  0
   -7.2585   10.6059  -10.6150 C   0  0  0  0  0  0  0  0  0  0  0  0
   -7.6168    9.7386   -9.5213 C   0  0  0  0  0  0  0  0  0  0  0  0
   -8.2709    8.7166   -9.9884 N   0  0  0  0  0  0  0  0  0  0  0  0
   -8.4108    8.8490  -11.3012 N   0  0  0  0  0  0  0  0  0  0  0  0
   -7.3306    9.8912   -8.0312 C   0  0  0  0  0  0  0  0  0  0  0  0
   -4.5413   13.8555  -11.3648 N   0  0  0  0  0  0  0  0  0  0  0  0
   -5.5934   13.6525  -12.1835 C   0  0  0  0  0  0  0  0  0  0  0  0
   -5.9232   14.4812  -13.0224 O   0  0  0  0  0  0  0  0  0  0  0  0
   -5.9508   10.4991   -7.7310 C   0  0  0  0  0  0  0  0  0  0  0  0
   -5.8673   11.7672   -7.1520 C   0  0  0  0  0  0  0  0  0  0  0  0
   -4.6035   12.3102   -6.9134 C   0  0  0  0  0  0  0  0  0  0  0  0
   -3.4392   11.5630   -7.2455 C   0  0  3  0  0  0  0  0  0  0  0  0
   -3.5146   10.2834   -7.8141 C   0  0  0  0  0  0  0  0  0  0  0  0
   -4.7998    9.7761   -8.0492 C   0  0  0  0  0  0  0  0  0  0  0  0
   -4.0885   13.5395   -6.3720 C   0  0  0  0  0  0  0  0  0  0  0  0
   -2.7847   13.5343   -6.3770 N   0  0  0  0  0  0  0  0  0  0  0  0
   -2.3791   12.3751   -6.8806 N   0  0  3  0  0  0  0  0  0  0  0  0
   -0.9494   12.1118   -6.9818 C   0  0  0  0  0  0  0  0  0  0  0  0
   -3.7091   15.0460  -11.2252 C   0  0  0  0  0  0  0  0  0  0  0  0
   -3.1570   14.3608   -9.9755 C   0  0  0  0  0  0  0  0  0  0  0  0
   -4.1684   13.2423  -10.1016 C   0  0  0  0  0  0  0  0  0  0  0  0
   -1.8246   13.9322  -10.0585 O   0  0  0  0  0  0  0  0  0  0  0  0
   -6.1536   12.2683   -9.8665 H   0  0  0  0  0  0  0  0  0  0  0  0
   -8.7589   10.7853  -13.3758 H   0  0  0  0  0  0  0  0  0  0  0  0
   -7.2727    9.8304  -13.7016 H   0  0  0  0  0  0  0  0  0  0  0  0
   -6.8855   12.2280  -14.0979 H   0  0  0  0  0  0  0  0  0  0  0  0
   -8.0297    9.6003   -7.2611 H   0  0  0  0  0  0  0  0  0  0  0  0
   -6.7611   12.3160   -6.8944 H   0  0  0  0  0  0  0  0  0  0  0  0
   -3.4374   12.0105   -8.2504 H   0  0  0  0  0  0  0  0  0  0  0  0
   -2.6276    9.7177   -8.0584 H   0  0  0  0  0  0  0  0  0  0  0  0
   -4.9028    8.7956   -8.4901 H   0  0  0  0  0  0  0  0  0  0  0  0
   -4.6981   14.3547   -6.0110 H   0  0  0  0  0  0  0  0  0  0  0  0
   -0.3887   12.9766   -6.5976 H   0  0  0  0  0  0  0  0  0  0  0  0
   -0.6982   11.2196   -6.3895 H   0  0  0  0  0  0  0  0  0  0  0  0
   -0.6820   11.9401   -8.0349 H   0  0  0  0  0  0  0  0  0  0  0  0
   -2.9790   15.2028  -12.0329 H   0  0  0  0  0  0  0  0  0  0  0  0
   -4.2586   15.9809  -11.0410 H   0  0  0  0  0  0  0  0  0  0  0  0
   -3.3524   14.9686   -9.0797 H   0  0  0  0  0  0  0  0  0  0  0  0
   -4.9575   13.2416   -9.3352 H   0  0  0  0  0  0  0  0  0  0  0  0
   -3.7371   12.2338  -10.1847 H   0  0  0  0  0  0  0  0  0  0  0  0
   -1.5721   13.5212   -9.2401 H   0  0  0  0  0  0  0  0  0  0  0  0
  1  2  1  0  0  0  0
  1  4  2  0  0  0  0
  1 12  1  0  0  0  0
  2  6  2  0  0  0  0
  3  4  1  0  0  0  0
  3  5  1  0  0  0  0
  5  6  1  0  0  0  0
  5  9  2  0  0  0  0
  6  7  1  0  0  0  0
  7  8  2  0  0  0  0
  7 10  1  0  0  0  0
  8  9  1  0  0  0  0
 10 14  2  3  0  0  0
 11 12  1  0  0  0  0
 11 24  1  0  0  0  0
 11 26  1  0  0  0  0
 12 13  2  0  0  0  0
 14 15  1  0  0  0  0
 14 19  1  0  0  0  0
 15 16  2  0  0  0  0
 16 17  1  0  0  0  0
 16 20  1  0  0  0  0
 17 18  1  0  0  0  0
 17 22  1  0  0  0  0
 18 19  2  0  0  0  0
 20 21  2  0  0  0  0
 21 22  1  0  0  0  0
 22 23  1  0  0  0  0
 24 25  1  0  0  0  0
 25 26  1  0  0  0  0
 25 27  1  0  0  0  0
  2 28  1  0  0  0  0
  3 29  1  0  0  0  0
  3 30  1  0  0  0  0
  4 31  1  0  0  0  0
 10 32  1  0  0  0  0
 15 33  1  0  0  0  0
 17 34  1  0  0  0  0
 18 35  1  0  0  0  0
 19 36  1  0  0  0  0
 20 37  1  0  0  0  0
 23 38  1  0  0  0  0
 23 39  1  0  0  0  0
 23 40  1  0  0  0  0
 24 41  1  0  0  0  0
 24 42  1  0  0  0  0
 25 43  1  0  0  0  0
 26 44  1  0  0  0  0
 26 45  1  0  0  0  0
 27 46  1  0  0  0  0
M  END
> <Name>
44

> <IC50[uM]>
0.004

$$$$
44
  -OEChem-05192314333D
 Structure written by MMmdl.
 46 50  0     1  0  0  0  0  0999 V2000
   -6.3932   12.3500  -12.0125 C   0  0  0  0  0  0  0  0  0  0  0  0
   -6.5644   11.7828  -10.7394 C   0  0  0  0  0  0  0  0  0  0  0  0
   -7.7358   10.5711  -13.0331 C   0  0  0  0  0  0  0  0  0  0  0  0
   -6.9954   11.7572  -13.1322 C   0  0  0  0  0  0  0  0  0  0  0  0
   -7.8242    9.9989  -11.7591 C   0  0  3  0  0  0  0  0  0  0  0  0
   -7.2585   10.6059  -10.6150 C   0  0  0  0  0  0  0  0  0  0  0  0
   -7.6168    9.7386   -9.5213 C   0  0  0  0  0  0  0  0  0  0  0  0
   -8.2709    8.7166   -9.9884 N   0  0  0  0  0  0  0  0  0  0  0  0
   -8.4108    8.8490  -11.3012 N   0  0  0  0  0  0  0  0  0  0  0  0
   -7.3306    9.8912   -8.0312 C   0  0  0  0  0  0  0  0  0  0  0  0
   -4.5413   13.8555  -11.3648 N   0  0  0  0  0  0  0  0  0  0  0  0
   -5.5934   13.6525  -12.1835 C   0  0  0  0  0  0  0  0  0  0  0  0
   -5.9232   14.4812  -13.0224 O   0  0  0  0  0  0  0  0  0  0  0  0
   -5.9508   10.4991   -7.7310 C   0  0  0  0  0  0  0  0  0  0  0  0
   -5.8673   11.7672   -7.1520 C   0  0  0  0  0  0  0  0  0  0  0  0
   -4.6035   12.3102   -6.9134 C   0  0  0  0  0  0  0  0  0  0  0  0
   -3.4392   11.5630   -7.2455 C   0  0  3  0  0  0  0  0  0  0  0  0
   -3.5146   10.2834   -7.8141 C   0  0  0  0  0  0  0  0  0  0  0  0
   -4.7998    9.7761   -8.0492 C   0  0  0  0  0  0  0  0  0  0  0  0
   -4.0885   13.5395   -6.3720 C   0  0  0  0  0  0  0  0  0  0  0  0
   -2.7847   13.5343   -6.3770 N   0  0  0  0  0  0  0  0  0  0  0  0
   -2.3791   12.3751   -6.8806 N   0  0  3  0  0  0  0  0  0  0  0  0
   -0.9494   12.1118   -6.9818 C   0  0  0  0  0  0  0  0  0  0  0  0
   -3.7091   15.0460  -11.2252 C   0  0  0  0  0  0  0  0  0  0  0  0
   -3.1570   14.3608   -9.9755 C   0  0  0  0  0  0  0  0  0  0  0  0
   -4.1684   13.2423  -10.1016 C   0  0  0  0  0  0  0  0  0  0  0  0
   -1.8246   13.9322  -10.0585 O   0  0  0  0  0  0  0  0  0  0  0  0
   -6.1536   12.2683   -9.8665 H   0  0  0  0  0  0  0  0  0  0  0  0
   -8.2120   10.1234  -13.8929 H   0  0  0  0  0  0  0  0  0  0  0  0
   -6.8855   12.2280  -14.0979 H   0  0  0  0  0  0  0  0  0  0  0  0
   -6.8859    9.4528  -11.9364 H   0  0  0  0  0  0  0  0  0  0  0  0
   -8.0297    9.6003   -7.2611 H   0  0  0  0  0  0  0  0  0  0  0  0
   -6.7611   12.3160   -6.8944 H   0  0  0  0  0  0  0  0  0  0  0  0
   -3.4374   12.0105   -8.2504 H   0  0  0  0  0  0  0  0  0  0  0  0
   -2.6276    9.7177   -8.0584 H   0  0  0  0  0  0  0  0  0  0  0  0
   -4.9028    8.7956   -8.4901 H   0  0  0  0  0  0  0  0  0  0  0  0
   -4.6981   14.3547   -6.0110 H   0  0  0  0  0  0  0  0  0  0  0  0
   -0.3887   12.9766   -6.5976 H   0  0  0  0  0  0  0  0  0  0  0  0
   -0.6982   11.2196   -6.3895 H   0  0  0  0  0  0  0  0  0  0  0  0
   -0.6820   11.9401   -8.0349 H   0  0  0  0  0  0  0  0  0  0  0  0
   -2.9790   15.2028  -12.0329 H   0  0  0  0  0  0  0  0  0  0  0  0
   -4.2586   15.9809  -11.0410 H   0  0  0  0  0  0  0  0  0  0  0  0
   -3.3524   14.9686   -9.0797 H   0  0  0  0  0  0  0  0  0  0  0  0
   -4.9575   13.2416   -9.3352 H   0  0  0  0  0  0  0  0  0  0  0  0
   -3.7371   12.2338  -10.1847 H   0  0  0  0  0  0  0  0  0  0  0  0
   -1.5721   13.5212   -9.2401 H   0  0  0  0  0  0  0  0  0  0  0  0
  1  2  2  0  0  0  0
  1  4  1  0  0  0  0
  1 12  1  0  0  0  0
  2  6  1  0  0  0  0
  3  4  2  0  0  0  0
  3  5  1  0  0  0  0
  5  6  1  0  0  0  0
  5  9  1  0  0  0  0
  6  7  2  0  0  0  0
  7  8  1  0  0  0  0
  7 10  1  0  0  0  0
  8  9  2  0  0  0  0
 10 14  2  3  0  0  0
 11 12  1  0  0  0  0
 11 24  1  0  0  0  0
 11 26  1  0  0  0  0
 12 13  2  0  0  0  0
 14 15  1  0  0  0  0
 14 19  1  0  0  0  0
 15 16  2  0  0  0  0
 16 17  1  0  0  0  0
 16 20  1  0  0  0  0
 17 18  1  0  0  0  0
 17 22  1  0  0  0  0
 18 19  2  0  0  0  0
 20 21  2  0  0  0  0
 21 22  1  0  0  0  0
 22 23  1  0  0  0  0
 24 25  1  0  0  0  0
 25 26  1  0  0  0  0
 25 27  1  0  0  0  0
  2 28  1  0  0  0  0
  3 29  1  0  0  0  0
  4 30  1  0  0  0  0
  5 31  1  0  0  0  0
 10 32  1  0  0  0  0
 15 33  1  0  0  0  0
 17 34  1  0  0  0  0
 18 35  1  0  0  0  0
 19 36  1  0  0  0  0
 20 37  1  0  0  0  0
 23 38  1  0  0  0  0
 23 39  1  0  0  0  0
 23 40  1  0  0  0  0
 24 41  1  0  0  0  0
 24 42  1  0  0  0  0
 25 43  1  0  0  0  0
 26 44  1  0  0  0  0
 26 45  1  0  0  0  0
 27 46  1  0  0  0  0
M  END
> <Name>
44

> <IC50[uM]>
0.004

$$$$
44
  -OEChem-05192314333D
 Structure written by MMmdl.
 46 50  0     1  0  0  0  0  0999 V2000
   -6.3932   12.3500  -12.0125 C   0  0  0  0  0  0  0  0  0  0  0  0
   -6.5644   11.7828  -10.7394 C   0  0  0  0  0  0  0  0  0  0  0  0
   -7.7358   10.5711  -13.0331 C   0  0  0  0  0  0  0  0  0  0  0  0
   -6.9954   11.7572  -13.1322 C   0  0  0  0  0  0  0  0  0  0  0  0
   -7.8242    9.9989  -11.7591 C   0  0  0  0  0  0  0  0  0  0  0  0
   -7.2585   10.6059  -10.6150 C   0  0  0  0  0  0  0  0  0  0  0  0
   -7.6168    9.7386   -9.5213 C   0  0  0  0  0  0  0  0  0  0  0  0
   -8.2709    8.7166   -9.9884 N   0  0  0  0  0  0  0  0  0  0  0  0
   -8.4108    8.8490  -11.3012 N   0  0  0  0  0  0  0  0  0  0  0  0
   -7.3306    9.8912   -8.0312 C   0  0  0  0  0  0  0  0  0  0  0  0
   -4.5413   13.8555  -11.3648 N   0  0  0  0  0  0  0  0  0  0  0  0
   -5.5934   13.6525  -12.1835 C   0  0  0  0  0  0  0  0  0  0  0  0
   -5.9232   14.4812  -13.0224 O   0  0  0  0  0  0  0  0  0  0  0  0
   -5.9508   10.4991   -7.7310 C   0  0  0  0  0  0  0  0  0  0  0  0
   -5.8673   11.7672   -7.1520 C   0  0  0  0  0  0  0  0  0  0  0  0
   -4.6035   12.3102   -6.9134 C   0  0  0  0  0  0  0  0  0  0  0  0
   -3.4392   11.5630   -7.2455 C   0  0  3  0  0  0  0  0  0  0  0  0
   -3.5146   10.2834   -7.8141 C   0  0  0  0  0  0  0  0  0  0  0  0
   -4.7998    9.7761   -8.0492 C   0  0  0  0  0  0  0  0  0  0  0  0
   -4.0885   13.5395   -6.3720 C   0  0  0  0  0  0  0  0  0  0  0  0
   -2.7847   13.5343   -6.3770 N   0  0  0  0  0  0  0  0  0  0  0  0
   -2.3791   12.3751   -6.8806 N   0  0  3  0  0  0  0  0  0  0  0  0
   -0.9494   12.1118   -6.9818 C   0  0  0  0  0  0  0  0  0  0  0  0
   -3.7091   15.0460  -11.2252 C   0  0  0  0  0  0  0  0  0  0  0  0
   -3.1570   14.3608   -9.9755 C   0  0  0  0  0  0  0  0  0  0  0  0
   -4.1684   13.2423  -10.1016 C   0  0  0  0  0  0  0  0  0  0  0  0
   -1.8246   13.9322  -10.0585 O   0  0  0  0  0  0  0  0  0  0  0  0
   -6.1536   12.2683   -9.8665 H   0  0  0  0  0  0  0  0  0  0  0  0
   -8.2120   10.1234  -13.8929 H   0  0  0  0  0  0  0  0  0  0  0  0
   -7.6766   12.5120  -13.5520 H   0  0  0  0  0  0  0  0  0  0  0  0
   -6.1849   11.5561  -13.8482 H   0  0  0  0  0  0  0  0  0  0  0  0
   -8.0297    9.6003   -7.2611 H   0  0  0  0  0  0  0  0  0  0  0  0
   -6.7611   12.3160   -6.8944 H   0  0  0  0  0  0  0  0  0  0  0  0
   -3.4374   12.0105   -8.2504 H   0  0  0  0  0  0  0  0  0  0  0  0
   -2.6276    9.7177   -8.0584 H   0  0  0  0  0  0  0  0  0  0  0  0
   -4.9028    8.7956   -8.4901 H   0  0  0  0  0  0  0  0  0  0  0  0
   -4.6981   14.3547   -6.0110 H   0  0  0  0  0  0  0  0  0  0  0  0
   -0.3887   12.9766   -6.5976 H   0  0  0  0  0  0  0  0  0  0  0  0
   -0.6982   11.2196   -6.3895 H   0  0  0  0  0  0  0  0  0  0  0  0
   -0.6820   11.9401   -8.0349 H   0  0  0  0  0  0  0  0  0  0  0  0
   -2.9790   15.2028  -12.0329 H   0  0  0  0  0  0  0  0  0  0  0  0
   -4.2586   15.9809  -11.0410 H   0  0  0  0  0  0  0  0  0  0  0  0
   -3.3524   14.9686   -9.0797 H   0  0  0  0  0  0  0  0  0  0  0  0
   -4.9575   13.2416   -9.3352 H   0  0  0  0  0  0  0  0  0  0  0  0
   -3.7371   12.2338  -10.1847 H   0  0  0  0  0  0  0  0  0  0  0  0
   -1.5721   13.5212   -9.2401 H   0  0  0  0  0  0  0  0  0  0  0  0
  1  2  2  0  0  0  0
  1  4  1  0  0  0  0
  1 12  1  0  0  0  0
  2  6  1  0  0  0  0
  3  4  1  0  0  0  0
  3  5  2  0  0  0  0
  5  6  1  0  0  0  0
  5  9  1  0  0  0  0
  6  7  2  0  0  0  0
  7  8  1  0  0  0  0
  7 10  1  0  0  0  0
  8  9  2  0  0  0  0
 10 14  2  3  0  0  0
 11 12  1  0  0  0  0
 11 24  1  0  0  0  0
 11 26  1  0  0  0  0
 12 13  2  0  0  0  0
 14 15  1  0  0  0  0
 14 19  1  0  0  0  0
 15 16  2  0  0  0  0
 16 17  1  0  0  0  0
 16 20  1  0  0  0  0
 17 18  1  0  0  0  0
 17 22  1  0  0  0  0
 18 19  2  0  0  0  0
 20 21  2  0  0  0  0
 21 22  1  0  0  0  0
 22 23  1  0  0  0  0
 24 25  1  0  0  0  0
 25 26  1  0  0  0  0
 25 27  1  0  0  0  0
  2 28  1  0  0  0  0
  3 29  1  0  0  0  0
  4 30  1  0  0  0  0
  4 31  1  0  0  0  0
 10 32  1  0  0  0  0
 15 33  1  0  0  0  0
 17 34  1  0  0  0  0
 18 35  1  0  0  0  0
 19 36  1  0  0  0  0
 20 37  1  0  0  0  0
 23 38  1  0  0  0  0
 23 39  1  0  0  0  0
 23 40  1  0  0  0  0
 24 41  1  0  0  0  0
 24 42  1  0  0  0  0
 25 43  1  0  0  0  0
 26 44  1  0  0  0  0
 26 45  1  0  0  0  0
 27 46  1  0  0  0  0
M  END
> <Name>
44

> <IC50[uM]>
0.004

$$$$
44
  -OEChem-05192314333D
 Structure written by MMmdl.
 46 50  0     1  0  0  0  0  0999 V2000
   -6.3932   12.3500  -12.0125 C   0  0  0  0  0  0  0  0  0  0  0  0
   -6.5644   11.7828  -10.7394 C   0  0  0  0  0  0  0  0  0  0  0  0
   -7.7358   10.5711  -13.0331 C   0  0  0  0  0  0  0  0  0  0  0  0
   -6.9954   11.7572  -13.1322 C   0  0  0  0  0  0  0  0  0  0  0  0
   -7.8242    9.9989  -11.7591 C   0  0  0  0  0  0  0  0  0  0  0  0
   -7.2585   10.6059  -10.6150 C   0  0  0  0  0  0  0  0  0  0  0  0
   -7.6168    9.7386   -9.5213 C   0  0  0  0  0  0  0  0  0  0  0  0
   -8.2709    8.7166   -9.9884 N   0  0  0  0  0  0  0  0  0  0  0  0
   -8.4108    8.8490  -11.3012 N   0  0  0  0  0  0  0  0  0  0  0  0
   -7.3306    9.8912   -8.0312 C   0  0  0  0  0  0  0  0  0  0  0  0
   -4.5413   13.8555  -11.3648 N   0  0  0  0  0  0  0  0  0  0  0  0
   -5.5934   13.6525  -12.1835 C   0  0  0  0  0  0  0  0  0  0  0  0
   -5.9232   14.4812  -13.0224 O   0  0  0  0  0  0  0  0  0  0  0  0
   -5.9508   10.4991   -7.7310 C   0  0  0  0  0  0  0  0  0  0  0  0
   -5.8673   11.7672   -7.1520 C   0  0  0  0  0  0  0  0  0  0  0  0
   -4.6035   12.3102   -6.9134 C   0  0  0  0  0  0  0  0  0  0  0  0
   -3.4392   11.5630   -7.2455 C   0  0  3  0  0  0  0  0  0  0  0  0
   -3.5146   10.2834   -7.8141 C   0  0  0  0  0  0  0  0  0  0  0  0
   -4.7998    9.7761   -8.0492 C   0  0  0  0  0  0  0  0  0  0  0  0
   -4.0885   13.5395   -6.3720 C   0  0  0  0  0  0  0  0  0  0  0  0
   -2.7847   13.5343   -6.3770 N   0  0  0  0  0  0  0  0  0  0  0  0
   -2.3791   12.3751   -6.8806 N   0  0  3  0  0  0  0  0  0  0  0  0
   -0.9494   12.1118   -6.9818 C   0  0  0  0  0  0  0  0  0  0  0  0
   -3.7091   15.0460  -11.2252 C   0  0  0  0  0  0  0  0  0  0  0  0
   -3.1570   14.3608   -9.9755 C   0  0  0  0  0  0  0  0  0  0  0  0
   -4.1684   13.2423  -10.1016 C   0  0  0  0  0  0  0  0  0  0  0  0
   -1.8246   13.9322  -10.0585 O   0  0  0  0  0  0  0  0  0  0  0  0
   -5.5591   11.6070  -10.3289 H   0  0  0  0  0  0  0  0  0  0  0  0
   -7.0866   12.5296  -10.1233 H   0  0  0  0  0  0  0  0  0  0  0  0
   -8.2120   10.1234  -13.8929 H   0  0  0  0  0  0  0  0  0  0  0  0
   -6.8855   12.2280  -14.0979 H   0  0  0  0  0  0  0  0  0  0  0  0
   -8.0297    9.6003   -7.2611 H   0  0  0  0  0  0  0  0  0  0  0  0
   -6.7611   12.3160   -6.8944 H   0  0  0  0  0  0  0  0  0  0  0  0
   -3.4374   12.0105   -8.2504 H   0  0  0  0  0  0  0  0  0  0  0  0
   -2.6276    9.7177   -8.0584 H   0  0  0  0  0  0  0  0  0  0  0  0
   -4.9028    8.7956   -8.4901 H   0  0  0  0  0  0  0  0  0  0  0  0
   -4.6981   14.3547   -6.0110 H   0  0  0  0  0  0  0  0  0  0  0  0
   -0.3887   12.9766   -6.5976 H   0  0  0  0  0  0  0  0  0  0  0  0
   -0.6982   11.2196   -6.3895 H   0  0  0  0  0  0  0  0  0  0  0  0
   -0.6820   11.9401   -8.0349 H   0  0  0  0  0  0  0  0  0  0  0  0
   -2.9790   15.2028  -12.0329 H   0  0  0  0  0  0  0  0  0  0  0  0
   -4.2586   15.9809  -11.0410 H   0  0  0  0  0  0  0  0  0  0  0  0
   -3.3524   14.9686   -9.0797 H   0  0  0  0  0  0  0  0  0  0  0  0
   -4.9575   13.2416   -9.3352 H   0  0  0  0  0  0  0  0  0  0  0  0
   -3.7371   12.2338  -10.1847 H   0  0  0  0  0  0  0  0  0  0  0  0
   -1.5721   13.5212   -9.2401 H   0  0  0  0  0  0  0  0  0  0  0  0
  1  2  1  0  0  0  0
  1  4  2  0  0  0  0
  1 12  1  0  0  0  0
  2  6  1  0  0  0  0
  3  4  1  0  0  0  0
  3  5  2  0  0  0  0
  5  6  1  0  0  0  0
  5  9  1  0  0  0  0
  6  7  2  0  0  0  0
  7  8  1  0  0  0  0
  7 10  1  0  0  0  0
  8  9  2  0  0  0  0
 10 14  2  3  0  0  0
 11 12  1  0  0  0  0
 11 24  1  0  0  0  0
 11 26  1  0  0  0  0
 12 13  2  0  0  0  0
 14 15  1  0  0  0  0
 14 19  1  0  0  0  0
 15 16  2  0  0  0  0
 16 17  1  0  0  0  0
 16 20  1  0  0  0  0
 17 18  1  0  0  0  0
 17 22  1  0  0  0  0
 18 19  2  0  0  0  0
 20 21  2  0  0  0  0
 21 22  1  0  0  0  0
 22 23  1  0  0  0  0
 24 25  1  0  0  0  0
 25 26  1  0  0  0  0
 25 27  1  0  0  0  0
  2 28  1  0  0  0  0
  2 29  1  0  0  0  0
  3 30  1  0  0  0  0
  4 31  1  0  0  0  0
 10 32  1  0  0  0  0
 15 33  1  0  0  0  0
 17 34  1  0  0  0  0
 18 35  1  0  0  0  0
 19 36  1  0  0  0  0
 20 37  1  0  0  0  0
 23 38  1  0  0  0  0
 23 39  1  0  0  0  0
 23 40  1  0  0  0  0
 24 41  1  0  0  0  0
 24 42  1  0  0  0  0
 25 43  1  0  0  0  0
 26 44  1  0  0  0  0
 26 45  1  0  0  0  0
 27 46  1  0  0  0  0
M  END
> <Name>
44

> <IC50[uM]>
0.004

$$$$
44
  -OEChem-05192314333D
 Structure written by MMmdl.
 46 50  0     0  0  0  0  0  0999 V2000
   -6.3932   12.3500  -12.0125 C   0  0  0  0  0  0  0  0  0  0  0  0
   -6.5644   11.7828  -10.7394 C   0  0  0  0  0  0  0  0  0  0  0  0
   -7.7358   10.5711  -13.0331 C   0  0  0  0  0  0  0  0  0  0  0  0
   -6.9954   11.7572  -13.1322 C   0  0  0  0  0  0  0  0  0  0  0  0
   -7.8242    9.9989  -11.7591 C   0  0  0  0  0  0  0  0  0  0  0  0
   -7.2585   10.6059  -10.6150 C   0  0  0  0  0  0  0  0  0  0  0  0
   -7.6168    9.7386   -9.5213 C   0  0  0  0  0  0  0  0  0  0  0  0
   -8.2709    8.7166   -9.9884 N   0  0  0  0  0  0  0  0  0  0  0  0
   -8.4108    8.8490  -11.3012 N   0  0  0  0  0  0  0  0  0  0  0  0
   -7.3306    9.8912   -8.0312 C   0  0  0  0  0  0  0  0  0  0  0  0
   -4.5413   13.8555  -11.3648 N   0  0  0  0  0  0  0  0  0  0  0  0
   -5.5934   13.6525  -12.1835 C   0  0  0  0  0  0  0  0  0  0  0  0
   -5.9232   14.4812  -13.0224 O   0  0  0  0  0  0  0  0  0  0  0  0
   -5.9508   10.4991   -7.7310 C   0  0  0  0  0  0  0  0  0  0  0  0
   -5.8673   11.7672   -7.1520 C   0  0  0  0  0  0  0  0  0  0  0  0
   -4.6035   12.3102   -6.9134 C   0  0  0  0  0  0  0  0  0  0  0  0
   -3.4392   11.5630   -7.2455 C   0  0  0  0  0  0  0  0  0  0  0  0
   -3.5146   10.2834   -7.8141 C   0  0  0  0  0  0  0  0  0  0  0  0
   -4.7998    9.7761   -8.0492 C   0  0  0  0  0  0  0  0  0  0  0  0
   -4.0885   13.5395   -6.3720 C   0  0  0  0  0  0  0  0  0  0  0  0
   -2.7847   13.5343   -6.3770 N   0  0  0  0  0  0  0  0  0  0  0  0
   -2.3791   12.3751   -6.8806 N   0  0  0  0  0  0  0  0  0  0  0  0
   -0.9494   12.1118   -6.9818 C   0  0  0  0  0  0  0  0  0  0  0  0
   -3.7091   15.0460  -11.2252 C   0  0  0  0  0  0  0  0  0  0  0  0
   -3.1570   14.3608   -9.9755 C   0  0  0  0  0  0  0  0  0  0  0  0
   -4.1684   13.2423  -10.1016 C   0  0  0  0  0  0  0  0  0  0  0  0
   -1.8246   13.9322  -10.0585 O   0  0  0  0  0  0  0  0  0  0  0  0
   -6.1536   12.2683   -9.8665 H   0  0  0  0  0  0  0  0  0  0  0  0
   -8.2120   10.1234  -13.8929 H   0  0  0  0  0  0  0  0  0  0  0  0
   -6.8855   12.2280  -14.0979 H   0  0  0  0  0  0  0  0  0  0  0  0
   -8.6144    7.9513   -9.4440 H   0  0  0  0  0  0  0  0  0  0  0  0
   -8.0297    9.6003   -7.2611 H   0  0  0  0  0  0  0  0  0  0  0  0
   -5.3248   15.2184  -12.9923 H   0  0  0  0  0  0  0  0  0  0  0  0
   -6.7611   12.3160   -6.8944 H   0  0  0  0  0  0  0  0  0  0  0  0
   -2.6276    9.7177   -8.0584 H   0  0  0  0  0  0  0  0  0  0  0  0
   -4.9028    8.7956   -8.4901 H   0  0  0  0  0  0  0  0  0  0  0  0
   -4.6981   14.3547   -6.0110 H   0  0  0  0  0  0  0  0  0  0  0  0
   -0.3887   12.9766   -6.5976 H   0  0  0  0  0  0  0  0  0  0  0  0
   -0.6982   11.2196   -6.3895 H   0  0  0  0  0  0  0  0  0  0  0  0
   -0.6820   11.9401   -8.0349 H   0  0  0  0  0  0  0  0  0  0  0  0
   -2.9790   15.2028  -12.0329 H   0  0  0  0  0  0  0  0  0  0  0  0
   -4.2586   15.9809  -11.0410 H   0  0  0  0  0  0  0  0  0  0  0  0
   -3.3524   14.9686   -9.0797 H   0  0  0  0  0  0  0  0  0  0  0  0
   -4.9575   13.2416   -9.3352 H   0  0  0  0  0  0  0  0  0  0  0  0
   -3.7371   12.2338  -10.1847 H   0  0  0  0  0  0  0  0  0  0  0  0
   -1.5721   13.5212   -9.2401 H   0  0  0  0  0  0  0  0  0  0  0  0
  1  2  1  0  0  0  0
  1  4  1  0  0  0  0
  1 12  2  3  0  0  0
  2  6  2  0  0  0  0
  3  4  2  0  0  0  0
  3  5  1  0  0  0  0
  5  6  1  0  0  0  0
  5  9  2  0  0  0  0
  6  7  1  0  0  0  0
  7  8  1  0  0  0  0
  7 10  2  3  0  0  0
  8  9  1  0  0  0  0
 10 14  1  0  0  0  0
 11 12  1  0  0  0  0
 11 24  1  0  0  0  0
 11 26  1  0  0  0  0
 12 13  1  0  0  0  0
 14 15  2  0  0  0  0
 14 19  1  0  0  0  0
 15 16  1  0  0  0  0
 16 17  2  0  0  0  0
 16 20  1  0  0  0  0
 17 18  1  0  0  0  0
 17 22  1  0  0  0  0
 18 19  2  0  0  0  0
 20 21  2  0  0  0  0
 21 22  1  0  0  0  0
 22 23  1  0  0  0  0
 24 25  1  0  0  0  0
 25 26  1  0  0  0  0
 25 27  1  0  0  0  0
  2 28  1  0  0  0  0
  3 29  1  0  0  0  0
  4 30  1  0  0  0  0
  8 31  1  0  0  0  0
 10 32  1  0  0  0  0
 13 33  1  0  0  0  0
 15 34  1  0  0  0  0
 18 35  1  0  0  0  0
 19 36  1  0  0  0  0
 20 37  1  0  0  0  0
 23 38  1  0  0  0  0
 23 39  1  0  0  0  0
 23 40  1  0  0  0  0
 24 41  1  0  0  0  0
 24 42  1  0  0  0  0
 25 43  1  0  0  0  0
 26 44  1  0  0  0  0
 26 45  1  0  0  0  0
 27 46  1  0  0  0  0
M  END
> <Name>
44

> <IC50[uM]>
0.004

$$$$
44
  -OEChem-05192314333D
 Structure written by MMmdl.
 46 50  0     1  0  0  0  0  0999 V2000
   -6.3932   12.3500  -12.0125 C   0  0  0  0  0  0  0  0  0  0  0  0
   -6.5644   11.7828  -10.7394 C   0  0  0  0  0  0  0  0  0  0  0  0
   -7.7358   10.5711  -13.0331 C   0  0  0  0  0  0  0  0  0  0  0  0
   -6.9954   11.7572  -13.1322 C   0  0  0  0  0  0  0  0  0  0  0  0
   -7.8242    9.9989  -11.7591 C   0  0  0  0  0  0  0  0  0  0  0  0
   -7.2585   10.6059  -10.6150 C   0  0  0  0  0  0  0  0  0  0  0  0
   -7.6168    9.7386   -9.5213 C   0  0  0  0  0  0  0  0  0  0  0  0
   -8.2709    8.7166   -9.9884 N   0  0  0  0  0  0  0  0  0  0  0  0
   -8.4108    8.8490  -11.3012 N   0  0  0  0  0  0  0  0  0  0  0  0
   -7.3306    9.8912   -8.0312 C   0  0  0  0  0  0  0  0  0  0  0  0
   -4.5413   13.8555  -11.3648 N   0  0  0  0  0  0  0  0  0  0  0  0
   -5.5934   13.6525  -12.1835 C   0  0  3  0  0  0  0  0  0  0  0  0
   -5.9232   14.4812  -13.0224 O   0  0  0  0  0  0  0  0  0  0  0  0
   -5.9508   10.4991   -7.7310 C   0  0  0  0  0  0  0  0  0  0  0  0
   -5.8673   11.7672   -7.1520 C   0  0  0  0  0  0  0  0  0  0  0  0
   -4.6035   12.3102   -6.9134 C   0  0  0  0  0  0  0  0  0  0  0  0
   -3.4392   11.5630   -7.2455 C   0  0  0  0  0  0  0  0  0  0  0  0
   -3.5146   10.2834   -7.8141 C   0  0  0  0  0  0  0  0  0  0  0  0
   -4.7998    9.7761   -8.0492 C   0  0  0  0  0  0  0  0  0  0  0  0
   -4.0885   13.5395   -6.3720 C   0  0  0  0  0  0  0  0  0  0  0  0
   -2.7847   13.5343   -6.3770 N   0  0  0  0  0  0  0  0  0  0  0  0
   -2.3791   12.3751   -6.8806 N   0  0  0  0  0  0  0  0  0  0  0  0
   -0.9494   12.1118   -6.9818 C   0  0  0  0  0  0  0  0  0  0  0  0
   -3.7091   15.0460  -11.2252 C   0  0  0  0  0  0  0  0  0  0  0  0
   -3.1570   14.3608   -9.9755 C   0  0  0  0  0  0  0  0  0  0  0  0
   -4.1684   13.2423  -10.1016 C   0  0  0  0  0  0  0  0  0  0  0  0
   -1.8246   13.9322  -10.0585 O   0  0  0  0  0  0  0  0  0  0  0  0
   -6.1536   12.2683   -9.8665 H   0  0  0  0  0  0  0  0  0  0  0  0
   -8.2120   10.1234  -13.8929 H   0  0  0  0  0  0  0  0  0  0  0  0
   -6.8855   12.2280  -14.0979 H   0  0  0  0  0  0  0  0  0  0  0  0
   -8.0297    9.6003   -7.2611 H   0  0  0  0  0  0  0  0  0  0  0  0
   -4.9371   13.1605  -12.9164 H   0  0  0  0  0  0  0  0  0  0  0  0
   -5.3248   15.2184  -12.9923 H   0  0  0  0  0  0  0  0  0  0  0  0
   -6.7611   12.3160   -6.8944 H   0  0  0  0  0  0  0  0  0  0  0  0
   -2.6276    9.7177   -8.0584 H   0  0  0  0  0  0  0  0  0  0  0  0
   -4.9028    8.7956   -8.4901 H   0  0  0  0  0  0  0  0  0  0  0  0
   -4.6981   14.3547   -6.0110 H   0  0  0  0  0  0  0  0  0  0  0  0
   -0.3887   12.9766   -6.5976 H   0  0  0  0  0  0  0  0  0  0  0  0
   -0.6982   11.2196   -6.3895 H   0  0  0  0  0  0  0  0  0  0  0  0
   -0.6820   11.9401   -8.0349 H   0  0  0  0  0  0  0  0  0  0  0  0
   -2.9790   15.2028  -12.0329 H   0  0  0  0  0  0  0  0  0  0  0  0
   -4.2586   15.9809  -11.0410 H   0  0  0  0  0  0  0  0  0  0  0  0
   -3.3524   14.9686   -9.0797 H   0  0  0  0  0  0  0  0  0  0  0  0
   -4.9575   13.2416   -9.3352 H   0  0  0  0  0  0  0  0  0  0  0  0
   -3.7371   12.2338  -10.1847 H   0  0  0  0  0  0  0  0  0  0  0  0
   -1.5721   13.5212   -9.2401 H   0  0  0  0  0  0  0  0  0  0  0  0
  1  2  2  0  0  0  0
  1  4  1  0  0  0  0
  1 12  1  0  0  0  0
  2  6  1  0  0  0  0
  3  4  2  0  0  0  0
  3  5  1  0  0  0  0
  5  6  2  0  0  0  0
  5  9  1  0  0  0  0
  6  7  1  0  0  0  0
  7  8  1  0  0  0  0
  7 10  2  3  0  0  0
  8  9  2  0  0  0  0
 10 14  1  0  0  0  0
 11 12  1  0  0  0  0
 11 24  1  0  0  0  0
 11 26  1  0  0  0  0
 12 13  1  0  0  0  0
 14 15  2  0  0  0  0
 14 19  1  0  0  0  0
 15 16  1  0  0  0  0
 16 17  2  0  0  0  0
 16 20  1  0  0  0  0
 17 18  1  0  0  0  0
 17 22  1  0  0  0  0
 18 19  2  0  0  0  0
 20 21  2  0  0  0  0
 21 22  1  0  0  0  0
 22 23  1  0  0  0  0
 24 25  1  0  0  0  0
 25 26  1  0  0  0  0
 25 27  1  0  0  0  0
  2 28  1  0  0  0  0
  3 29  1  0  0  0  0
  4 30  1  0  0  0  0
 10 31  1  0  0  0  0
 12 32  1  0  0  0  0
 13 33  1  0  0  0  0
 15 34  1  0  0  0  0
 18 35  1  0  0  0  0
 19 36  1  0  0  0  0
 20 37  1  0  0  0  0
 23 38  1  0  0  0  0
 23 39  1  0  0  0  0
 23 40  1  0  0  0  0
 24 41  1  0  0  0  0
 24 42  1  0  0  0  0
 25 43  1  0  0  0  0
 26 44  1  0  0  0  0
 26 45  1  0  0  0  0
 27 46  1  0  0  0  0
M  END
> <Name>
44

> <IC50[uM]>
0.004

$$$$
44
  -OEChem-05192314333D
 Structure written by MMmdl.
 46 50  0     0  0  0  0  0  0999 V2000
   -6.3932   12.3500  -12.0125 C   0  0  0  0  0  0  0  0  0  0  0  0
   -6.5644   11.7828  -10.7394 C   0  0  0  0  0  0  0  0  0  0  0  0
   -7.7358   10.5711  -13.0331 C   0  0  0  0  0  0  0  0  0  0  0  0
   -6.9954   11.7572  -13.1322 C   0  0  0  0  0  0  0  0  0  0  0  0
   -7.8242    9.9989  -11.7591 C   0  0  0  0  0  0  0  0  0  0  0  0
   -7.2585   10.6059  -10.6150 C   0  0  0  0  0  0  0  0  0  0  0  0
   -7.6168    9.7386   -9.5213 C   0  0  0  0  0  0  0  0  0  0  0  0
   -8.2709    8.7166   -9.9884 N   0  0  0  0  0  0  0  0  0  0  0  0
   -8.4108    8.8490  -11.3012 N   0  0  0  0  0  0  0  0  0  0  0  0
   -7.3306    9.8912   -8.0312 C   0  0  0  0  0  0  0  0  0  0  0  0
   -4.5413   13.8555  -11.3648 N   0  0  0  0  0  0  0  0  0  0  0  0
   -5.5934   13.6525  -12.1835 C   0  0  0  0  0  0  0  0  0  0  0  0
   -5.9232   14.4812  -13.0224 O   0  0  0  0  0  0  0  0  0  0  0  0
   -5.9508   10.4991   -7.7310 C   0  0  0  0  0  0  0  0  0  0  0  0
   -5.8673   11.7672   -7.1520 C   0  0  0  0  0  0  0  0  0  0  0  0
   -4.6035   12.3102   -6.9134 C   0  0  0  0  0  0  0  0  0  0  0  0
   -3.4392   11.5630   -7.2455 C   0  0  0  0  0  0  0  0  0  0  0  0
   -3.5146   10.2834   -7.8141 C   0  0  0  0  0  0  0  0  0  0  0  0
   -4.7998    9.7761   -8.0492 C   0  0  0  0  0  0  0  0  0  0  0  0
   -4.0885   13.5395   -6.3720 C   0  0  0  0  0  0  0  0  0  0  0  0
   -2.7847   13.5343   -6.3770 N   0  0  0  0  0  0  0  0  0  0  0  0
   -2.3791   12.3751   -6.8806 N   0  0  0  0  0  0  0  0  0  0  0  0
   -0.9494   12.1118   -6.9818 C   0  0  0  0  0  0  0  0  0  0  0  0
   -3.7091   15.0460  -11.2252 C   0  0  0  0  0  0  0  0  0  0  0  0
   -3.1570   14.3608   -9.9755 C   0  0  0  0  0  0  0  0  0  0  0  0
   -4.1684   13.2423  -10.1016 C   0  0  0  0  0  0  0  0  0  0  0  0
   -1.8246   13.9322  -10.0585 O   0  0  0  0  0  0  0  0  0  0  0  0
   -6.1536   12.2683   -9.8665 H   0  0  0  0  0  0  0  0  0  0  0  0
   -8.2120   10.1234  -13.8929 H   0  0  0  0  0  0  0  0  0  0  0  0
   -6.8855   12.2280  -14.0979 H   0  0  0  0  0  0  0  0  0  0  0  0
   -8.1010   10.5432   -7.5937 H   0  0  0  0  0  0  0  0  0  0  0  0
   -7.3824    8.8971   -7.5631 H   0  0  0  0  0  0  0  0  0  0  0  0
   -5.3248   15.2184  -12.9923 H   0  0  0  0  0  0  0  0  0  0  0  0
   -6.7611   12.3160   -6.8944 H   0  0  0  0  0  0  0  0  0  0  0  0
   -2.6276    9.7177   -8.0584 H   0  0  0  0  0  0  0  0  0  0  0  0
   -4.9028    8.7956   -8.4901 H   0  0  0  0  0  0  0  0  0  0  0  0
   -4.6981   14.3547   -6.0110 H   0  0  0  0  0  0  0  0  0  0  0  0
   -0.3887   12.9766   -6.5976 H   0  0  0  0  0  0  0  0  0  0  0  0
   -0.6982   11.2196   -6.3895 H   0  0  0  0  0  0  0  0  0  0  0  0
   -0.6820   11.9401   -8.0349 H   0  0  0  0  0  0  0  0  0  0  0  0
   -2.9790   15.2028  -12.0329 H   0  0  0  0  0  0  0  0  0  0  0  0
   -4.2586   15.9809  -11.0410 H   0  0  0  0  0  0  0  0  0  0  0  0
   -3.3524   14.9686   -9.0797 H   0  0  0  0  0  0  0  0  0  0  0  0
   -4.9575   13.2416   -9.3352 H   0  0  0  0  0  0  0  0  0  0  0  0
   -3.7371   12.2338  -10.1847 H   0  0  0  0  0  0  0  0  0  0  0  0
   -1.5721   13.5212   -9.2401 H   0  0  0  0  0  0  0  0  0  0  0  0
  1  2  1  0  0  0  0
  1  4  1  0  0  0  0
  1 12  2  3  0  0  0
  2  6  2  0  0  0  0
  3  4  2  0  0  0  0
  3  5  1  0  0  0  0
  5  6  1  0  0  0  0
  5  9  2  0  0  0  0
  6  7  1  0  0  0  0
  7  8  2  0  0  0  0
  7 10  1  0  0  0  0
  8  9  1  0  0  0  0
 10 14  1  0  0  0  0
 11 12  1  0  0  0  0
 11 24  1  0  0  0  0
 11 26  1  0  0  0  0
 12 13  1  0  0  0  0
 14 15  2  0  0  0  0
 14 19  1  0  0  0  0
 15 16  1  0  0  0  0
 16 17  2  0  0  0  0
 16 20  1  0  0  0  0
 17 18  1  0  0  0  0
 17 22  1  0  0  0  0
 18 19  2  0  0  0  0
 20 21  2  0  0  0  0
 21 22  1  0  0  0  0
 22 23  1  0  0  0  0
 24 25  1  0  0  0  0
 25 26  1  0  0  0  0
 25 27  1  0  0  0  0
  2 28  1  0  0  0  0
  3 29  1  0  0  0  0
  4 30  1  0  0  0  0
 10 31  1  0  0  0  0
 10 32  1  0  0  0  0
 13 33  1  0  0  0  0
 15 34  1  0  0  0  0
 18 35  1  0  0  0  0
 19 36  1  0  0  0  0
 20 37  1  0  0  0  0
 23 38  1  0  0  0  0
 23 39  1  0  0  0  0
 23 40  1  0  0  0  0
 24 41  1  0  0  0  0
 24 42  1  0  0  0  0
 25 43  1  0  0  0  0
 26 44  1  0  0  0  0
 26 45  1  0  0  0  0
 27 46  1  0  0  0  0
M  END
> <Name>
44

> <IC50[uM]>
0.004

$$$$
44
  -OEChem-05192314333D
 Structure written by MMmdl.
 46 50  0     0  0  0  0  0  0999 V2000
   -6.3932   12.3500  -12.0125 C   0  0  0  0  0  0  0  0  0  0  0  0
   -6.5644   11.7828  -10.7394 C   0  0  0  0  0  0  0  0  0  0  0  0
   -7.7358   10.5711  -13.0331 C   0  0  0  0  0  0  0  0  0  0  0  0
   -6.9954   11.7572  -13.1322 C   0  0  0  0  0  0  0  0  0  0  0  0
   -7.8242    9.9989  -11.7591 C   0  0  0  0  0  0  0  0  0  0  0  0
   -7.2585   10.6059  -10.6150 C   0  0  0  0  0  0  0  0  0  0  0  0
   -7.6168    9.7386   -9.5213 C   0  0  0  0  0  0  0  0  0  0  0  0
   -8.2709    8.7166   -9.9884 N   0  0  0  0  0  0  0  0  0  0  0  0
   -8.4108    8.8490  -11.3012 N   0  0  0  0  0  0  0  0  0  0  0  0
   -7.3306    9.8912   -8.0312 C   0  0  0  0  0  0  0  0  0  0  0  0
   -4.5413   13.8555  -11.3648 N   0  0  0  0  0  0  0  0  0  0  0  0
   -5.5934   13.6525  -12.1835 C   0  0  0  0  0  0  0  0  0  0  0  0
   -5.9232   14.4812  -13.0224 O   0  0  0  0  0  0  0  0  0  0  0  0
   -5.9508   10.4991   -7.7310 C   0  0  0  0  0  0  0  0  0  0  0  0
   -5.8673   11.7672   -7.1520 C   0  0  0  0  0  0  0  0  0  0  0  0
   -4.6035   12.3102   -6.9134 C   0  0  0  0  0  0  0  0  0  0  0  0
   -3.4392   11.5630   -7.2455 C   0  0  0  0  0  0  0  0  0  0  0  0
   -3.5146   10.2834   -7.8141 C   0  0  0  0  0  0  0  0  0  0  0  0
   -4.7998    9.7761   -8.0492 C   0  0  0  0  0  0  0  0  0  0  0  0
   -4.0885   13.5395   -6.3720 C   0  0  0  0  0  0  0  0  0  0  0  0
   -2.7847   13.5343   -6.3770 N   0  0  0  0  0  0  0  0  0  0  0  0
   -2.3791   12.3751   -6.8806 N   0  0  0  0  0  0  0  0  0  0  0  0
   -0.9494   12.1118   -6.9818 C   0  0  0  0  0  0  0  0  0  0  0  0
   -3.7091   15.0460  -11.2252 C   0  0  0  0  0  0  0  0  0  0  0  0
   -3.1570   14.3608   -9.9755 C   0  0  0  0  0  0  0  0  0  0  0  0
   -4.1684   13.2423  -10.1016 C   0  0  0  0  0  0  0  0  0  0  0  0
   -1.8246   13.9322  -10.0585 O   0  0  0  0  0  0  0  0  0  0  0  0
   -6.1536   12.2683   -9.8665 H   0  0  0  0  0  0  0  0  0  0  0  0
   -8.2120   10.1234  -13.8929 H   0  0  0  0  0  0  0  0  0  0  0  0
   -6.8855   12.2280  -14.0979 H   0  0  0  0  0  0  0  0  0  0  0  0
   -8.0297    9.6003   -7.2611 H   0  0  0  0  0  0  0  0  0  0  0  0
   -5.3248   15.2184  -12.9923 H   0  0  0  0  0  0  0  0  0  0  0  0
   -6.3991   12.4633   -7.8173 H   0  0  0  0  0  0  0  0  0  0  0  0
   -6.3867   11.7165   -6.1837 H   0  0  0  0  0  0  0  0  0  0  0  0
   -2.6276    9.7177   -8.0584 H   0  0  0  0  0  0  0  0  0  0  0  0
   -4.9028    8.7956   -8.4901 H   0  0  0  0  0  0  0  0  0  0  0  0
   -4.6981   14.3547   -6.0110 H   0  0  0  0  0  0  0  0  0  0  0  0
   -0.3887   12.9766   -6.5976 H   0  0  0  0  0  0  0  0  0  0  0  0
   -0.6982   11.2196   -6.3895 H   0  0  0  0  0  0  0  0  0  0  0  0
   -0.6820   11.9401   -8.0349 H   0  0  0  0  0  0  0  0  0  0  0  0
   -2.9790   15.2028  -12.0329 H   0  0  0  0  0  0  0  0  0  0  0  0
   -4.2586   15.9809  -11.0410 H   0  0  0  0  0  0  0  0  0  0  0  0
   -3.3524   14.9686   -9.0797 H   0  0  0  0  0  0  0  0  0  0  0  0
   -4.9575   13.2416   -9.3352 H   0  0  0  0  0  0  0  0  0  0  0  0
   -3.7371   12.2338  -10.1847 H   0  0  0  0  0  0  0  0  0  0  0  0
   -1.5721   13.5212   -9.2401 H   0  0  0  0  0  0  0  0  0  0  0  0
  1  2  1  0  0  0  0
  1  4  1  0  0  0  0
  1 12  2  3  0  0  0
  2  6  2  0  0  0  0
  3  4  2  0  0  0  0
  3  5  1  0  0  0  0
  5  6  1  0  0  0  0
  5  9  2  0  0  0  0
  6  7  1  0  0  0  0
  7  8  2  0  0  0  0
  7 10  1  0  0  0  0
  8  9  1  0  0  0  0
 10 14  2  3  0  0  0
 11 12  1  0  0  0  0
 11 24  1  0  0  0  0
 11 26  1  0  0  0  0
 12 13  1  0  0  0  0
 14 15  1  0  0  0  0
 14 19  1  0  0  0  0
 15 16  1  0  0  0  0
 16 17  2  0  0  0  0
 16 20  1  0  0  0  0
 17 18  1  0  0  0  0
 17 22  1  0  0  0  0
 18 19  2  0  0  0  0
 20 21  2  0  0  0  0
 21 22  1  0  0  0  0
 22 23  1  0  0  0  0
 24 25  1  0  0  0  0
 25 26  1  0  0  0  0
 25 27  1  0  0  0  0
  2 28  1  0  0  0  0
  3 29  1  0  0  0  0
  4 30  1  0  0  0  0
 10 31  1  0  0  0  0
 13 32  1  0  0  0  0
 15 33  1  0  0  0  0
 15 34  1  0  0  0  0
 18 35  1  0  0  0  0
 19 36  1  0  0  0  0
 20 37  1  0  0  0  0
 23 38  1  0  0  0  0
 23 39  1  0  0  0  0
 23 40  1  0  0  0  0
 24 41  1  0  0  0  0
 24 42  1  0  0  0  0
 25 43  1  0  0  0  0
 26 44  1  0  0  0  0
 26 45  1  0  0  0  0
 27 46  1  0  0  0  0
M  END
> <Name>
44

> <IC50[uM]>
0.004

$$$$
44
  -OEChem-05192314333D
 Structure written by MMmdl.
 46 50  0     0  0  0  0  0  0999 V2000
   -6.3932   12.3500  -12.0125 C   0  0  0  0  0  0  0  0  0  0  0  0
   -6.5644   11.7828  -10.7394 C   0  0  0  0  0  0  0  0  0  0  0  0
   -7.7358   10.5711  -13.0331 C   0  0  0  0  0  0  0  0  0  0  0  0
   -6.9954   11.7572  -13.1322 C   0  0  0  0  0  0  0  0  0  0  0  0
   -7.8242    9.9989  -11.7591 C   0  0  0  0  0  0  0  0  0  0  0  0
   -7.2585   10.6059  -10.6150 C   0  0  0  0  0  0  0  0  0  0  0  0
   -7.6168    9.7386   -9.5213 C   0  0  0  0  0  0  0  0  0  0  0  0
   -8.2709    8.7166   -9.9884 N   0  0  0  0  0  0  0  0  0  0  0  0
   -8.4108    8.8490  -11.3012 N   0  0  0  0  0  0  0  0  0  0  0  0
   -7.3306    9.8912   -8.0312 C   0  0  0  0  0  0  0  0  0  0  0  0
   -4.5413   13.8555  -11.3648 N   0  0  0  0  0  0  0  0  0  0  0  0
   -5.5934   13.6525  -12.1835 C   0  0  0  0  0  0  0  0  0  0  0  0
   -5.9232   14.4812  -13.0224 O   0  0  0  0  0  0  0  0  0  0  0  0
   -5.9508   10.4991   -7.7310 C   0  0  0  0  0  0  0  0  0  0  0  0
   -5.8673   11.7672   -7.1520 C   0  0  0  0  0  0  0  0  0  0  0  0
   -4.6035   12.3102   -6.9134 C   0  0  0  0  0  0  0  0  0  0  0  0
   -3.4392   11.5630   -7.2455 C   0  0  0  0  0  0  0  0  0  0  0  0
   -3.5146   10.2834   -7.8141 C   0  0  0  0  0  0  0  0  0  0  0  0
   -4.7998    9.7761   -8.0492 C   0  0  0  0  0  0  0  0  0  0  0  0
   -4.0885   13.5395   -6.3720 C   0  0  0  0  0  0  0  0  0  0  0  0
   -2.7847   13.5343   -6.3770 N   0  0  0  0  0  0  0  0  0  0  0  0
   -2.3791   12.3751   -6.8806 N   0  0  0  0  0  0  0  0  0  0  0  0
   -0.9494   12.1118   -6.9818 C   0  0  0  0  0  0  0  0  0  0  0  0
   -3.7091   15.0460  -11.2252 C   0  0  0  0  0  0  0  0  0  0  0  0
   -3.1570   14.3608   -9.9755 C   0  0  0  0  0  0  0  0  0  0  0  0
   -4.1684   13.2423  -10.1016 C   0  0  0  0  0  0  0  0  0  0  0  0
   -1.8246   13.9322  -10.0585 O   0  0  0  0  0  0  0  0  0  0  0  0
   -6.1536   12.2683   -9.8665 H   0  0  0  0  0  0  0  0  0  0  0  0
   -8.2120   10.1234  -13.8929 H   0  0  0  0  0  0  0  0  0  0  0  0
   -6.8855   12.2280  -14.0979 H   0  0  0  0  0  0  0  0  0  0  0  0
   -8.0297    9.6003   -7.2611 H   0  0  0  0  0  0  0  0  0  0  0  0
   -5.3248   15.2184  -12.9923 H   0  0  0  0  0  0  0  0  0  0  0  0
   -6.7611   12.3160   -6.8944 H   0  0  0  0  0  0  0  0  0  0  0  0
   -2.6276    9.7177   -8.0584 H   0  0  0  0  0  0  0  0  0  0  0  0
   -4.8650    8.8316   -7.4892 H   0  0  0  0  0  0  0  0  0  0  0  0
   -4.8558    9.5675   -9.1278 H   0  0  0  0  0  0  0  0  0  0  0  0
   -4.6981   14.3547   -6.0110 H   0  0  0  0  0  0  0  0  0  0  0  0
   -0.3887   12.9766   -6.5976 H   0  0  0  0  0  0  0  0  0  0  0  0
   -0.6982   11.2196   -6.3895 H   0  0  0  0  0  0  0  0  0  0  0  0
   -0.6820   11.9401   -8.0349 H   0  0  0  0  0  0  0  0  0  0  0  0
   -2.9790   15.2028  -12.0329 H   0  0  0  0  0  0  0  0  0  0  0  0
   -4.2586   15.9809  -11.0410 H   0  0  0  0  0  0  0  0  0  0  0  0
   -3.3524   14.9686   -9.0797 H   0  0  0  0  0  0  0  0  0  0  0  0
   -4.9575   13.2416   -9.3352 H   0  0  0  0  0  0  0  0  0  0  0  0
   -3.7371   12.2338  -10.1847 H   0  0  0  0  0  0  0  0  0  0  0  0
   -1.5721   13.5212   -9.2401 H   0  0  0  0  0  0  0  0  0  0  0  0
  1  2  1  0  0  0  0
  1  4  1  0  0  0  0
  1 12  2  3  0  0  0
  2  6  2  0  0  0  0
  3  4  2  0  0  0  0
  3  5  1  0  0  0  0
  5  6  1  0  0  0  0
  5  9  2  0  0  0  0
  6  7  1  0  0  0  0
  7  8  2  0  0  0  0
  7 10  1  0  0  0  0
  8  9  1  0  0  0  0
 10 14  2  3  0  0  0
 11 12  1  0  0  0  0
 11 24  1  0  0  0  0
 11 26  1  0  0  0  0
 12 13  1  0  0  0  0
 14 15  1  0  0  0  0
 14 19  1  0  0  0  0
 15 16  2  0  0  0  0
 16 17  1  0  0  0  0
 16 20  1  0  0  0  0
 17 18  2  0  0  0  0
 17 22  1  0  0  0  0
 18 19  1  0  0  0  0
 20 21  2  0  0  0  0
 21 22  1  0  0  0  0
 22 23  1  0  0  0  0
 24 25  1  0  0  0  0
 25 26  1  0  0  0  0
 25 27  1  0  0  0  0
  2 28  1  0  0  0  0
  3 29  1  0  0  0  0
  4 30  1  0  0  0  0
 10 31  1  0  0  0  0
 13 32  1  0  0  0  0
 15 33  1  0  0  0  0
 18 34  1  0  0  0  0
 19 35  1  0  0  0  0
 19 36  1  0  0  0  0
 20 37  1  0  0  0  0
 23 38  1  0  0  0  0
 23 39  1  0  0  0  0
 23 40  1  0  0  0  0
 24 41  1  0  0  0  0
 24 42  1  0  0  0  0
 25 43  1  0  0  0  0
 26 44  1  0  0  0  0
 26 45  1  0  0  0  0
 27 46  1  0  0  0  0
M  END
> <Name>
44

> <IC50[uM]>
0.004

$$$$
44
  -OEChem-05192314333D
 Structure written by MMmdl.
 46 50  0     1  0  0  0  0  0999 V2000
   -6.3932   12.3500  -12.0125 C   0  0  0  0  0  0  0  0  0  0  0  0
   -6.5644   11.7828  -10.7394 C   0  0  0  0  0  0  0  0  0  0  0  0
   -7.7358   10.5711  -13.0331 C   0  0  0  0  0  0  0  0  0  0  0  0
   -6.9954   11.7572  -13.1322 C   0  0  0  0  0  0  0  0  0  0  0  0
   -7.8242    9.9989  -11.7591 C   0  0  3  0  0  0  0  0  0  0  0  0
   -7.2585   10.6059  -10.6150 C   0  0  0  0  0  0  0  0  0  0  0  0
   -7.6168    9.7386   -9.5213 C   0  0  0  0  0  0  0  0  0  0  0  0
   -8.2709    8.7166   -9.9884 N   0  0  0  0  0  0  0  0  0  0  0  0
   -8.4108    8.8490  -11.3012 N   0  0  0  0  0  0  0  0  0  0  0  0
   -7.3306    9.8912   -8.0312 C   0  0  0  0  0  0  0  0  0  0  0  0
   -4.5413   13.8555  -11.3648 N   0  0  0  0  0  0  0  0  0  0  0  0
   -5.5934   13.6525  -12.1835 C   0  0  0  0  0  0  0  0  0  0  0  0
   -5.9232   14.4812  -13.0224 O   0  0  0  0  0  0  0  0  0  0  0  0
   -5.9508   10.4991   -7.7310 C   0  0  0  0  0  0  0  0  0  0  0  0
   -5.8673   11.7672   -7.1520 C   0  0  0  0  0  0  0  0  0  0  0  0
   -4.6035   12.3102   -6.9134 C   0  0  0  0  0  0  0  0  0  0  0  0
   -3.4392   11.5630   -7.2455 C   0  0  0  0  0  0  0  0  0  0  0  0
   -3.5146   10.2834   -7.8141 C   0  0  0  0  0  0  0  0  0  0  0  0
   -4.7998    9.7761   -8.0492 C   0  0  0  0  0  0  0  0  0  0  0  0
   -4.0885   13.5395   -6.3720 C   0  0  0  0  0  0  0  0  0  0  0  0
   -2.7847   13.5343   -6.3770 N   0  0  0  0  0  0  0  0  0  0  0  0
   -2.3791   12.3751   -6.8806 N   0  0  0  0  0  0  0  0  0  0  0  0
   -0.9494   12.1118   -6.9818 C   0  0  0  0  0  0  0  0  0  0  0  0
   -3.7091   15.0460  -11.2252 C   0  0  0  0  0  0  0  0  0  0  0  0
   -3.1570   14.3608   -9.9755 C   0  0  0  0  0  0  0  0  0  0  0  0
   -4.1684   13.2423  -10.1016 C   0  0  0  0  0  0  0  0  0  0  0  0
   -1.8246   13.9322  -10.0585 O   0  0  0  0  0  0  0  0  0  0  0  0
   -6.1536   12.2683   -9.8665 H   0  0  0  0  0  0  0  0  0  0  0  0
   -8.2120   10.1234  -13.8929 H   0  0  0  0  0  0  0  0  0  0  0  0
   -6.8855   12.2280  -14.0979 H   0  0  0  0  0  0  0  0  0  0  0  0
   -6.8859    9.4528  -11.9364 H   0  0  0  0  0  0  0  0  0  0  0  0
   -8.0297    9.6003   -7.2611 H   0  0  0  0  0  0  0  0  0  0  0  0
   -5.3248   15.2184  -12.9923 H   0  0  0  0  0  0  0  0  0  0  0  0
   -6.7611   12.3160   -6.8944 H   0  0  0  0  0  0  0  0  0  0  0  0
   -2.6276    9.7177   -8.0584 H   0  0  0  0  0  0  0  0  0  0  0  0
   -4.9028    8.7956   -8.4901 H   0  0  0  0  0  0  0  0  0  0  0  0
   -4.6981   14.3547   -6.0110 H   0  0  0  0  0  0  0  0  0  0  0  0
   -0.3887   12.9766   -6.5976 H   0  0  0  0  0  0  0  0  0  0  0  0
   -0.6982   11.2196   -6.3895 H   0  0  0  0  0  0  0  0  0  0  0  0
   -0.6820   11.9401   -8.0349 H   0  0  0  0  0  0  0  0  0  0  0  0
   -2.9790   15.2028  -12.0329 H   0  0  0  0  0  0  0  0  0  0  0  0
   -4.2586   15.9809  -11.0410 H   0  0  0  0  0  0  0  0  0  0  0  0
   -3.3524   14.9686   -9.0797 H   0  0  0  0  0  0  0  0  0  0  0  0
   -4.9575   13.2416   -9.3352 H   0  0  0  0  0  0  0  0  0  0  0  0
   -3.7371   12.2338  -10.1847 H   0  0  0  0  0  0  0  0  0  0  0  0
   -1.5721   13.5212   -9.2401 H   0  0  0  0  0  0  0  0  0  0  0  0
  1  2  1  0  0  0  0
  1  4  1  0  0  0  0
  1 12  2  3  0  0  0
  2  6  2  0  0  0  0
  3  4  2  0  0  0  0
  3  5  1  0  0  0  0
  5  6  1  0  0  0  0
  5  9  1  0  0  0  0
  6  7  1  0  0  0  0
  7  8  1  0  0  0  0
  7 10  2  3  0  0  0
  8  9  2  0  0  0  0
 10 14  1  0  0  0  0
 11 12  1  0  0  0  0
 11 24  1  0  0  0  0
 11 26  1  0  0  0  0
 12 13  1  0  0  0  0
 14 15  2  0  0  0  0
 14 19  1  0  0  0  0
 15 16  1  0  0  0  0
 16 17  2  0  0  0  0
 16 20  1  0  0  0  0
 17 18  1  0  0  0  0
 17 22  1  0  0  0  0
 18 19  2  0  0  0  0
 20 21  2  0  0  0  0
 21 22  1  0  0  0  0
 22 23  1  0  0  0  0
 24 25  1  0  0  0  0
 25 26  1  0  0  0  0
 25 27  1  0  0  0  0
  2 28  1  0  0  0  0
  3 29  1  0  0  0  0
  4 30  1  0  0  0  0
  5 31  1  0  0  0  0
 10 32  1  0  0  0  0
 13 33  1  0  0  0  0
 15 34  1  0  0  0  0
 18 35  1  0  0  0  0
 19 36  1  0  0  0  0
 20 37  1  0  0  0  0
 23 38  1  0  0  0  0
 23 39  1  0  0  0  0
 23 40  1  0  0  0  0
 24 41  1  0  0  0  0
 24 42  1  0  0  0  0
 25 43  1  0  0  0  0
 26 44  1  0  0  0  0
 26 45  1  0  0  0  0
 27 46  1  0  0  0  0
M  END
> <Name>
44

> <IC50[uM]>
0.004

$$$$
44
  -OEChem-05192314333D
 Structure written by MMmdl.
 46 50  0     0  0  0  0  0  0999 V2000
   -6.3932   12.3500  -12.0125 C   0  0  0  0  0  0  0  0  0  0  0  0
   -6.5644   11.7828  -10.7394 C   0  0  0  0  0  0  0  0  0  0  0  0
   -7.7358   10.5711  -13.0331 C   0  0  0  0  0  0  0  0  0  0  0  0
   -6.9954   11.7572  -13.1322 C   0  0  0  0  0  0  0  0  0  0  0  0
   -7.8242    9.9989  -11.7591 C   0  0  0  0  0  0  0  0  0  0  0  0
   -7.2585   10.6059  -10.6150 C   0  0  0  0  0  0  0  0  0  0  0  0
   -7.6168    9.7386   -9.5213 C   0  0  0  0  0  0  0  0  0  0  0  0
   -8.2709    8.7166   -9.9884 N   0  0  0  0  0  0  0  0  0  0  0  0
   -8.4108    8.8490  -11.3012 N   0  0  0  0  0  0  0  0  0  0  0  0
   -7.3306    9.8912   -8.0312 C   0  0  0  0  0  0  0  0  0  0  0  0
   -4.5413   13.8555  -11.3648 N   0  0  0  0  0  0  0  0  0  0  0  0
   -5.5934   13.6525  -12.1835 C   0  0  0  0  0  0  0  0  0  0  0  0
   -5.9232   14.4812  -13.0224 O   0  0  0  0  0  0  0  0  0  0  0  0
   -5.9508   10.4991   -7.7310 C   0  0  0  0  0  0  0  0  0  0  0  0
   -5.8673   11.7672   -7.1520 C   0  0  0  0  0  0  0  0  0  0  0  0
   -4.6035   12.3102   -6.9134 C   0  0  0  0  0  0  0  0  0  0  0  0
   -3.4392   11.5630   -7.2455 C   0  0  0  0  0  0  0  0  0  0  0  0
   -3.5146   10.2834   -7.8141 C   0  0  0  0  0  0  0  0  0  0  0  0
   -4.7998    9.7761   -8.0492 C   0  0  0  0  0  0  0  0  0  0  0  0
   -4.0885   13.5395   -6.3720 C   0  0  0  0  0  0  0  0  0  0  0  0
   -2.7847   13.5343   -6.3770 N   0  0  0  0  0  0  0  0  0  0  0  0
   -2.3791   12.3751   -6.8806 N   0  0  0  0  0  0  0  0  0  0  0  0
   -0.9494   12.1118   -6.9818 C   0  0  0  0  0  0  0  0  0  0  0  0
   -3.7091   15.0460  -11.2252 C   0  0  0  0  0  0  0  0  0  0  0  0
   -3.1570   14.3608   -9.9755 C   0  0  0  0  0  0  0  0  0  0  0  0
   -4.1684   13.2423  -10.1016 C   0  0  0  0  0  0  0  0  0  0  0  0
   -1.8246   13.9322  -10.0585 O   0  0  0  0  0  0  0  0  0  0  0  0
   -6.1536   12.2683   -9.8665 H   0  0  0  0  0  0  0  0  0  0  0  0
   -8.2120   10.1234  -13.8929 H   0  0  0  0  0  0  0  0  0  0  0  0
   -7.6766   12.5120  -13.5520 H   0  0  0  0  0  0  0  0  0  0  0  0
   -6.1849   11.5561  -13.8482 H   0  0  0  0  0  0  0  0  0  0  0  0
   -8.0297    9.6003   -7.2611 H   0  0  0  0  0  0  0  0  0  0  0  0
   -5.3248   15.2184  -12.9923 H   0  0  0  0  0  0  0  0  0  0  0  0
   -6.7611   12.3160   -6.8944 H   0  0  0  0  0  0  0  0  0  0  0  0
   -2.6276    9.7177   -8.0584 H   0  0  0  0  0  0  0  0  0  0  0  0
   -4.9028    8.7956   -8.4901 H   0  0  0  0  0  0  0  0  0  0  0  0
   -4.6981   14.3547   -6.0110 H   0  0  0  0  0  0  0  0  0  0  0  0
   -0.3887   12.9766   -6.5976 H   0  0  0  0  0  0  0  0  0  0  0  0
   -0.6982   11.2196   -6.3895 H   0  0  0  0  0  0  0  0  0  0  0  0
   -0.6820   11.9401   -8.0349 H   0  0  0  0  0  0  0  0  0  0  0  0
   -2.9790   15.2028  -12.0329 H   0  0  0  0  0  0  0  0  0  0  0  0
   -4.2586   15.9809  -11.0410 H   0  0  0  0  0  0  0  0  0  0  0  0
   -3.3524   14.9686   -9.0797 H   0  0  0  0  0  0  0  0  0  0  0  0
   -4.9575   13.2416   -9.3352 H   0  0  0  0  0  0  0  0  0  0  0  0
   -3.7371   12.2338  -10.1847 H   0  0  0  0  0  0  0  0  0  0  0  0
   -1.5721   13.5212   -9.2401 H   0  0  0  0  0  0  0  0  0  0  0  0
  1  2  1  0  0  0  0
  1  4  1  0  0  0  0
  1 12  2  3  0  0  0
  2  6  2  0  0  0  0
  3  4  1  0  0  0  0
  3  5  2  0  0  0  0
  5  6  1  0  0  0  0
  5  9  1  0  0  0  0
  6  7  1  0  0  0  0
  7  8  1  0  0  0  0
  7 10  2  3  0  0  0
  8  9  2  0  0  0  0
 10 14  1  0  0  0  0
 11 12  1  0  0  0  0
 11 24  1  0  0  0  0
 11 26  1  0  0  0  0
 12 13  1  0  0  0  0
 14 15  2  0  0  0  0
 14 19  1  0  0  0  0
 15 16  1  0  0  0  0
 16 17  2  0  0  0  0
 16 20  1  0  0  0  0
 17 18  1  0  0  0  0
 17 22  1  0  0  0  0
 18 19  2  0  0  0  0
 20 21  2  0  0  0  0
 21 22  1  0  0  0  0
 22 23  1  0  0  0  0
 24 25  1  0  0  0  0
 25 26  1  0  0  0  0
 25 27  1  0  0  0  0
  2 28  1  0  0  0  0
  3 29  1  0  0  0  0
  4 30  1  0  0  0  0
  4 31  1  0  0  0  0
 10 32  1  0  0  0  0
 13 33  1  0  0  0  0
 15 34  1  0  0  0  0
 18 35  1  0  0  0  0
 19 36  1  0  0  0  0
 20 37  1  0  0  0  0
 23 38  1  0  0  0  0
 23 39  1  0  0  0  0
 23 40  1  0  0  0  0
 24 41  1  0  0  0  0
 24 42  1  0  0  0  0
 25 43  1  0  0  0  0
 26 44  1  0  0  0  0
 26 45  1  0  0  0  0
 27 46  1  0  0  0  0
M  END
> <Name>
44

> <IC50[uM]>
0.004

$$$$
44
  -OEChem-05192314333D
 Structure written by MMmdl.
 46 50  0     0  0  0  0  0  0999 V2000
   -6.3932   12.3500  -12.0125 C   0  0  0  0  0  0  0  0  0  0  0  0
   -6.5644   11.7828  -10.7394 C   0  0  0  0  0  0  0  0  0  0  0  0
   -7.7358   10.5711  -13.0331 C   0  0  0  0  0  0  0  0  0  0  0  0
   -6.9954   11.7572  -13.1322 C   0  0  0  0  0  0  0  0  0  0  0  0
   -7.8242    9.9989  -11.7591 C   0  0  0  0  0  0  0  0  0  0  0  0
   -7.2585   10.6059  -10.6150 C   0  0  0  0  0  0  0  0  0  0  0  0
   -7.6168    9.7386   -9.5213 C   0  0  0  0  0  0  0  0  0  0  0  0
   -8.2709    8.7166   -9.9884 N   0  0  0  0  0  0  0  0  0  0  0  0
   -8.4108    8.8490  -11.3012 N   0  0  0  0  0  0  0  0  0  0  0  0
   -7.3306    9.8912   -8.0312 C   0  0  0  0  0  0  0  0  0  0  0  0
   -4.5413   13.8555  -11.3648 N   0  0  0  0  0  0  0  0  0  0  0  0
   -5.5934   13.6525  -12.1835 C   0  0  0  0  0  0  0  0  0  0  0  0
   -5.9232   14.4812  -13.0224 O   0  0  0  0  0  0  0  0  0  0  0  0
   -5.9508   10.4991   -7.7310 C   0  0  0  0  0  0  0  0  0  0  0  0
   -5.8673   11.7672   -7.1520 C   0  0  0  0  0  0  0  0  0  0  0  0
   -4.6035   12.3102   -6.9134 C   0  0  0  0  0  0  0  0  0  0  0  0
   -3.4392   11.5630   -7.2455 C   0  0  0  0  0  0  0  0  0  0  0  0
   -3.5146   10.2834   -7.8141 C   0  0  0  0  0  0  0  0  0  0  0  0
   -4.7998    9.7761   -8.0492 C   0  0  0  0  0  0  0  0  0  0  0  0
   -4.0885   13.5395   -6.3720 C   0  0  0  0  0  0  0  0  0  0  0  0
   -2.7847   13.5343   -6.3770 N   0  0  0  0  0  0  0  0  0  0  0  0
   -2.3791   12.3751   -6.8806 N   0  0  0  0  0  0  0  0  0  0  0  0
   -0.9494   12.1118   -6.9818 C   0  0  0  0  0  0  0  0  0  0  0  0
   -3.7091   15.0460  -11.2252 C   0  0  0  0  0  0  0  0  0  0  0  0
   -3.1570   14.3608   -9.9755 C   0  0  0  0  0  0  0  0  0  0  0  0
   -4.1684   13.2423  -10.1016 C   0  0  0  0  0  0  0  0  0  0  0  0
   -1.8246   13.9322  -10.0585 O   0  0  0  0  0  0  0  0  0  0  0  0
   -5.5591   11.6070  -10.3289 H   0  0  0  0  0  0  0  0  0  0  0  0
   -7.0866   12.5296  -10.1233 H   0  0  0  0  0  0  0  0  0  0  0  0
   -8.2120   10.1234  -13.8929 H   0  0  0  0  0  0  0  0  0  0  0  0
   -6.8855   12.2280  -14.0979 H   0  0  0  0  0  0  0  0  0  0  0  0
   -8.0297    9.6003   -7.2611 H   0  0  0  0  0  0  0  0  0  0  0  0
   -5.3248   15.2184  -12.9923 H   0  0  0  0  0  0  0  0  0  0  0  0
   -6.7611   12.3160   -6.8944 H   0  0  0  0  0  0  0  0  0  0  0  0
   -2.6276    9.7177   -8.0584 H   0  0  0  0  0  0  0  0  0  0  0  0
   -4.9028    8.7956   -8.4901 H   0  0  0  0  0  0  0  0  0  0  0  0
   -4.6981   14.3547   -6.0110 H   0  0  0  0  0  0  0  0  0  0  0  0
   -0.3887   12.9766   -6.5976 H   0  0  0  0  0  0  0  0  0  0  0  0
   -0.6982   11.2196   -6.3895 H   0  0  0  0  0  0  0  0  0  0  0  0
   -0.6820   11.9401   -8.0349 H   0  0  0  0  0  0  0  0  0  0  0  0
   -2.9790   15.2028  -12.0329 H   0  0  0  0  0  0  0  0  0  0  0  0
   -4.2586   15.9809  -11.0410 H   0  0  0  0  0  0  0  0  0  0  0  0
   -3.3524   14.9686   -9.0797 H   0  0  0  0  0  0  0  0  0  0  0  0
   -4.9575   13.2416   -9.3352 H   0  0  0  0  0  0  0  0  0  0  0  0
   -3.7371   12.2338  -10.1847 H   0  0  0  0  0  0  0  0  0  0  0  0
   -1.5721   13.5212   -9.2401 H   0  0  0  0  0  0  0  0  0  0  0  0
  1  2  1  0  0  0  0
  1  4  1  0  0  0  0
  1 12  2  3  0  0  0
  2  6  1  0  0  0  0
  3  4  2  0  0  0  0
  3  5  1  0  0  0  0
  5  6  2  0  0  0  0
  5  9  1  0  0  0  0
  6  7  1  0  0  0  0
  7  8  1  0  0  0  0
  7 10  2  3  0  0  0
  8  9  2  0  0  0  0
 10 14  1  0  0  0  0
 11 12  1  0  0  0  0
 11 24  1  0  0  0  0
 11 26  1  0  0  0  0
 12 13  1  0  0  0  0
 14 15  2  0  0  0  0
 14 19  1  0  0  0  0
 15 16  1  0  0  0  0
 16 17  2  0  0  0  0
 16 20  1  0  0  0  0
 17 18  1  0  0  0  0
 17 22  1  0  0  0  0
 18 19  2  0  0  0  0
 20 21  2  0  0  0  0
 21 22  1  0  0  0  0
 22 23  1  0  0  0  0
 24 25  1  0  0  0  0
 25 26  1  0  0  0  0
 25 27  1  0  0  0  0
  2 28  1  0  0  0  0
  2 29  1  0  0  0  0
  3 30  1  0  0  0  0
  4 31  1  0  0  0  0
 10 32  1  0  0  0  0
 13 33  1  0  0  0  0
 15 34  1  0  0  0  0
 18 35  1  0  0  0  0
 19 36  1  0  0  0  0
 20 37  1  0  0  0  0
 23 38  1  0  0  0  0
 23 39  1  0  0  0  0
 23 40  1  0  0  0  0
 24 41  1  0  0  0  0
 24 42  1  0  0  0  0
 25 43  1  0  0  0  0
 26 44  1  0  0  0  0
 26 45  1  0  0  0  0
 27 46  1  0  0  0  0
M  END
> <Name>
44

> <IC50[uM]>
0.004

$$$$
44
  -OEChem-05192314333D
 Structure written by MMmdl.
 46 50  0     1  0  0  0  0  0999 V2000
   -6.3932   12.3500  -12.0125 C   0  0  0  0  0  0  0  0  0  0  0  0
   -6.5644   11.7828  -10.7394 C   0  0  0  0  0  0  0  0  0  0  0  0
   -7.7358   10.5711  -13.0331 C   0  0  0  0  0  0  0  0  0  0  0  0
   -6.9954   11.7572  -13.1322 C   0  0  0  0  0  0  0  0  0  0  0  0
   -7.8242    9.9989  -11.7591 C   0  0  0  0  0  0  0  0  0  0  0  0
   -7.2585   10.6059  -10.6150 C   0  0  0  0  0  0  0  0  0  0  0  0
   -7.6168    9.7386   -9.5213 C   0  0  0  0  0  0  0  0  0  0  0  0
   -8.2709    8.7166   -9.9884 N   0  0  0  0  0  0  0  0  0  0  0  0
   -8.4108    8.8490  -11.3012 N   0  0  0  0  0  0  0  0  0  0  0  0
   -7.3306    9.8912   -8.0312 C   0  0  0  0  0  0  0  0  0  0  0  0
   -4.5413   13.8555  -11.3648 N   0  0  0  0  0  0  0  0  0  0  0  0
   -5.5934   13.6525  -12.1835 C   0  0  0  0  0  0  0  0  0  0  0  0
   -5.9232   14.4812  -13.0224 O   0  0  0  0  0  0  0  0  0  0  0  0
   -5.9508   10.4991   -7.7310 C   0  0  0  0  0  0  0  0  0  0  0  0
   -5.8673   11.7672   -7.1520 C   0  0  0  0  0  0  0  0  0  0  0  0
   -4.6035   12.3102   -6.9134 C   0  0  0  0  0  0  0  0  0  0  0  0
   -3.4392   11.5630   -7.2455 C   0  0  3  0  0  0  0  0  0  0  0  0
   -3.5146   10.2834   -7.8141 C   0  0  0  0  0  0  0  0  0  0  0  0
   -4.7998    9.7761   -8.0492 C   0  0  0  0  0  0  0  0  0  0  0  0
   -4.0885   13.5395   -6.3720 C   0  0  0  0  0  0  0  0  0  0  0  0
   -2.7847   13.5343   -6.3770 N   0  0  0  0  0  0  0  0  0  0  0  0
   -2.3791   12.3751   -6.8806 N   0  0  3  0  0  0  0  0  0  0  0  0
   -0.9494   12.1118   -6.9818 C   0  0  0  0  0  0  0  0  0  0  0  0
   -3.7091   15.0460  -11.2252 C   0  0  0  0  0  0  0  0  0  0  0  0
   -3.1570   14.3608   -9.9755 C   0  0  0  0  0  0  0  0  0  0  0  0
   -4.1684   13.2423  -10.1016 C   0  0  0  0  0  0  0  0  0  0  0  0
   -1.8246   13.9322  -10.0585 O   0  0  0  0  0  0  0  0  0  0  0  0
   -6.1536   12.2683   -9.8665 H   0  0  0  0  0  0  0  0  0  0  0  0
   -8.2120   10.1234  -13.8929 H   0  0  0  0  0  0  0  0  0  0  0  0
   -6.8855   12.2280  -14.0979 H   0  0  0  0  0  0  0  0  0  0  0  0
   -8.0297    9.6003   -7.2611 H   0  0  0  0  0  0  0  0  0  0  0  0
   -5.3248   15.2184  -12.9923 H   0  0  0  0  0  0  0  0  0  0  0  0
   -6.7611   12.3160   -6.8944 H   0  0  0  0  0  0  0  0  0  0  0  0
   -3.4374   12.0105   -8.2504 H   0  0  0  0  0  0  0  0  0  0  0  0
   -2.6276    9.7177   -8.0584 H   0  0  0  0  0  0  0  0  0  0  0  0
   -4.9028    8.7956   -8.4901 H   0  0  0  0  0  0  0  0  0  0  0  0
   -4.6981   14.3547   -6.0110 H   0  0  0  0  0  0  0  0  0  0  0  0
   -0.3887   12.9766   -6.5976 H   0  0  0  0  0  0  0  0  0  0  0  0
   -0.6982   11.2196   -6.3895 H   0  0  0  0  0  0  0  0  0  0  0  0
   -0.6820   11.9401   -8.0349 H   0  0  0  0  0  0  0  0  0  0  0  0
   -2.9790   15.2028  -12.0329 H   0  0  0  0  0  0  0  0  0  0  0  0
   -4.2586   15.9809  -11.0410 H   0  0  0  0  0  0  0  0  0  0  0  0
   -3.3524   14.9686   -9.0797 H   0  0  0  0  0  0  0  0  0  0  0  0
   -4.9575   13.2416   -9.3352 H   0  0  0  0  0  0  0  0  0  0  0  0
   -3.7371   12.2338  -10.1847 H   0  0  0  0  0  0  0  0  0  0  0  0
   -1.5721   13.5212   -9.2401 H   0  0  0  0  0  0  0  0  0  0  0  0
  1  2  1  0  0  0  0
  1  4  1  0  0  0  0
  1 12  2  3  0  0  0
  2  6  2  0  0  0  0
  3  4  2  0  0  0  0
  3  5  1  0  0  0  0
  5  6  1  0  0  0  0
  5  9  2  0  0  0  0
  6  7  1  0  0  0  0
  7  8  2  0  0  0  0
  7 10  1  0  0  0  0
  8  9  1  0  0  0  0
 10 14  2  3  0  0  0
 11 12  1  0  0  0  0
 11 24  1  0  0  0  0
 11 26  1  0  0  0  0
 12 13  1  0  0  0  0
 14 15  1  0  0  0  0
 14 19  1  0  0  0  0
 15 16  2  0  0  0  0
 16 17  1  0  0  0  0
 16 20  1  0  0  0  0
 17 18  1  0  0  0  0
 17 22  1  0  0  0  0
 18 19  2  0  0  0  0
 20 21  2  0  0  0  0
 21 22  1  0  0  0  0
 22 23  1  0  0  0  0
 24 25  1  0  0  0  0
 25 26  1  0  0  0  0
 25 27  1  0  0  0  0
  2 28  1  0  0  0  0
  3 29  1  0  0  0  0
  4 30  1  0  0  0  0
 10 31  1  0  0  0  0
 13 32  1  0  0  0  0
 15 33  1  0  0  0  0
 17 34  1  0  0  0  0
 18 35  1  0  0  0  0
 19 36  1  0  0  0  0
 20 37  1  0  0  0  0
 23 38  1  0  0  0  0
 23 39  1  0  0  0  0
 23 40  1  0  0  0  0
 24 41  1  0  0  0  0
 24 42  1  0  0  0  0
 25 43  1  0  0  0  0
 26 44  1  0  0  0  0
 26 45  1  0  0  0  0
 27 46  1  0  0  0  0
M  END
> <Name>
44

> <IC50[uM]>
0.004

$$$$
