23
  -OEChem-05192314333D
 Structure written by MMmdl.
 49 53  0     0  0  0  0  0  0999 V2000
   -6.3775   12.3296  -12.0018 C   0  0  0  0  0  0  0  0  0  0  0  0
   -6.5098   11.7629  -10.7403 C   0  0  0  0  0  0  0  0  0  0  0  0
   -7.7247   10.5660  -13.0266 C   0  0  0  0  0  0  0  0  0  0  0  0
   -6.9942   11.7487  -13.1193 C   0  0  0  0  0  0  0  0  0  0  0  0
   -7.8312   10.0057  -11.7538 C   0  0  0  0  0  0  0  0  0  0  0  0
   -7.2443   10.6021  -10.6070 C   0  0  0  0  0  0  0  0  0  0  0  0
   -7.6167    9.7449   -9.5151 C   0  0  0  0  0  0  0  0  0  0  0  0
   -8.2961    8.7374   -9.9786 N   0  0  0  0  0  0  0  0  0  0  0  0
   -8.4404    8.8724  -11.2937 N   0  0  0  0  0  0  0  0  0  0  0  0
   -7.3318    9.8946   -8.0252 C   0  0  0  0  0  0  0  0  0  0  0  0
   -5.5478   13.5112  -12.1572 C   0  0  0  0  0  0  0  0  0  0  0  0
   -5.9707   10.4870   -7.7351 C   0  0  0  0  0  0  0  0  0  0  0  0
   -5.8642   11.7588   -7.1694 C   0  0  0  0  0  0  0  0  0  0  0  0
   -4.6019   12.3141   -6.9186 C   0  0  0  0  0  0  0  0  0  0  0  0
   -3.4503   11.5963   -7.2357 C   0  0  0  0  0  0  0  0  0  0  0  0
   -3.5604   10.3220   -7.8000 C   0  0  0  0  0  0  0  0  0  0  0  0
   -4.8213    9.7719   -8.0443 C   0  0  0  0  0  0  0  0  0  0  0  0
   -2.0996   12.1710   -6.9757 C   0  0  0  0  0  0  0  0  0  0  0  0
   -1.7487   13.4240   -6.4767 C   0  0  0  0  0  0  0  0  0  0  0  0
   -0.4123   13.4674   -6.4260 N   0  0  0  0  0  0  0  0  0  0  0  0
    0.1713   12.3664   -6.8217 N   0  0  0  0  0  0  0  0  0  0  0  0
   -0.8093   11.5624   -7.1930 C   0  0  0  0  0  0  0  0  0  0  0  0
    0.4224   14.5657   -5.9816 C   0  0  0  0  0  0  0  0  0  0  0  0
   -5.6966   14.2423  -13.2612 N   0  0  0  0  0  0  0  0  0  0  0  0
   -4.9506   15.3153  -13.5405 C   0  0  0  0  0  0  0  0  0  0  0  0
   -3.9383   15.6899  -12.6782 C   0  0  0  0  0  0  0  0  0  0  0  0
   -3.7261   14.9536  -11.5366 C   0  0  0  0  0  0  0  0  0  0  0  0
   -4.5508   13.8769  -11.2437 C   0  0  0  0  0  0  0  0  0  0  0  0
   -2.6976   15.2614  -10.7139 N   0  0  0  0  0  0  0  0  0  0  0  0
   -6.0464   12.2223   -9.8797 H   0  0  0  0  0  0  0  0  0  0  0  0
   -8.1826   10.1089  -13.8914 H   0  0  0  0  0  0  0  0  0  0  0  0
   -6.9001   12.2325  -14.0803 H   0  0  0  0  0  0  0  0  0  0  0  0
   -8.6538    7.9802   -9.4320 H   0  0  0  0  0  0  0  0  0  0  0  0
   -8.0989   10.5499   -7.5868 H   0  0  0  0  0  0  0  0  0  0  0  0
   -7.3874    8.9007   -7.5571 H   0  0  0  0  0  0  0  0  0  0  0  0
   -6.7563   12.3160   -6.9245 H   0  0  0  0  0  0  0  0  0  0  0  0
   -4.5218   13.2977   -6.4798 H   0  0  0  0  0  0  0  0  0  0  0  0
   -2.6703    9.7625   -8.0472 H   0  0  0  0  0  0  0  0  0  0  0  0
   -4.9024    8.7852   -8.4759 H   0  0  0  0  0  0  0  0  0  0  0  0
   -2.4277   14.2118   -6.1857 H   0  0  0  0  0  0  0  0  0  0  0  0
   -0.6637   10.5754   -7.6065 H   0  0  0  0  0  0  0  0  0  0  0  0
    1.4809   14.2752   -6.0543 H   0  0  0  0  0  0  0  0  0  0  0  0
    0.2393   15.4453   -6.6162 H   0  0  0  0  0  0  0  0  0  0  0  0
    0.1804   14.8105   -4.9369 H   0  0  0  0  0  0  0  0  0  0  0  0
   -5.1384   15.8875  -14.4370 H   0  0  0  0  0  0  0  0  0  0  0  0
   -3.3221   16.5493  -12.8978 H   0  0  0  0  0  0  0  0  0  0  0  0
   -4.4255   13.3274  -10.3224 H   0  0  0  0  0  0  0  0  0  0  0  0
   -2.6901   14.6302   -9.9383 H   0  0  0  0  0  0  0  0  0  0  0  0
   -1.8356   15.1840  -11.2148 H   0  0  0  0  0  0  0  0  0  0  0  0
  1  2  2  0  0  0  0
  1  4  1  0  0  0  0
  1 11  1  0  0  0  0
  2  6  1  0  0  0  0
  3  4  2  0  0  0  0
  3  5  1  0  0  0  0
  5  6  1  0  0  0  0
  5  9  2  0  0  0  0
  6  7  2  0  0  0  0
  7  8  1  0  0  0  0
  7 10  1  0  0  0  0
  8  9  1  0  0  0  0
 10 12  1  0  0  0  0
 11 24  2  0  0  0  0
 11 28  1  0  0  0  0
 12 13  2  0  0  0  0
 12 17  1  0  0  0  0
 13 14  1  0  0  0  0
 14 15  2  0  0  0  0
 15 16  1  0  0  0  0
 15 18  1  0  0  0  0
 16 17  2  0  0  0  0
 18 19  2  0  0  0  0
 18 22  1  0  0  0  0
 19 20  1  0  0  0  0
 20 21  1  0  0  0  0
 20 23  1  0  0  0  0
 21 22  2  0  0  0  0
 24 25  1  0  0  0  0
 25 26  2  0  0  0  0
 26 27  1  0  0  0  0
 27 28  2  0  0  0  0
 27 29  1  0  0  0  0
  2 30  1  0  0  0  0
  3 31  1  0  0  0  0
  4 32  1  0  0  0  0
  8 33  1  0  0  0  0
 10 34  1  0  0  0  0
 10 35  1  0  0  0  0
 13 36  1  0  0  0  0
 14 37  1  0  0  0  0
 16 38  1  0  0  0  0
 17 39  1  0  0  0  0
 19 40  1  0  0  0  0
 22 41  1  0  0  0  0
 23 42  1  0  0  0  0
 23 43  1  0  0  0  0
 23 44  1  0  0  0  0
 25 45  1  0  0  0  0
 26 46  1  0  0  0  0
 28 47  1  0  0  0  0
 29 48  1  0  0  0  0
 29 49  1  0  0  0  0
M  END
> <Name>
23

> <IC50[uM]>
0.27

$$$$
23
  -OEChem-05192314333D
 Structure written by MMmdl.
 49 53  0     0  0  0  0  0  0999 V2000
   -6.3775   12.3296  -12.0018 C   0  0  0  0  0  0  0  0  0  0  0  0
   -6.5098   11.7629  -10.7403 C   0  0  0  0  0  0  0  0  0  0  0  0
   -7.7247   10.5660  -13.0266 C   0  0  0  0  0  0  0  0  0  0  0  0
   -6.9942   11.7487  -13.1193 C   0  0  0  0  0  0  0  0  0  0  0  0
   -7.8312   10.0057  -11.7538 C   0  0  0  0  0  0  0  0  0  0  0  0
   -7.2443   10.6021  -10.6070 C   0  0  0  0  0  0  0  0  0  0  0  0
   -7.6167    9.7449   -9.5151 C   0  0  0  0  0  0  0  0  0  0  0  0
   -8.2961    8.7374   -9.9786 N   0  0  0  0  0  0  0  0  0  0  0  0
   -8.4404    8.8724  -11.2937 N   0  0  0  0  0  0  0  0  0  0  0  0
   -7.3318    9.8946   -8.0252 C   0  0  0  0  0  0  0  0  0  0  0  0
   -5.5478   13.5112  -12.1572 C   0  0  0  0  0  0  0  0  0  0  0  0
   -5.9707   10.4870   -7.7351 C   0  0  0  0  0  0  0  0  0  0  0  0
   -5.8642   11.7588   -7.1694 C   0  0  0  0  0  0  0  0  0  0  0  0
   -4.6019   12.3141   -6.9186 C   0  0  0  0  0  0  0  0  0  0  0  0
   -3.4503   11.5963   -7.2357 C   0  0  0  0  0  0  0  0  0  0  0  0
   -3.5604   10.3220   -7.8000 C   0  0  0  0  0  0  0  0  0  0  0  0
   -4.8213    9.7719   -8.0443 C   0  0  0  0  0  0  0  0  0  0  0  0
   -2.0996   12.1710   -6.9757 C   0  0  0  0  0  0  0  0  0  0  0  0
   -1.7487   13.4240   -6.4767 C   0  0  0  0  0  0  0  0  0  0  0  0
   -0.4123   13.4674   -6.4260 N   0  0  0  0  0  0  0  0  0  0  0  0
    0.1713   12.3664   -6.8217 N   0  0  0  0  0  0  0  0  0  0  0  0
   -0.8093   11.5624   -7.1930 C   0  0  0  0  0  0  0  0  0  0  0  0
    0.4224   14.5657   -5.9816 C   0  0  0  0  0  0  0  0  0  0  0  0
   -5.6966   14.2423  -13.2612 N   0  0  0  0  0  0  0  0  0  0  0  0
   -4.9506   15.3153  -13.5405 C   0  0  0  0  0  0  0  0  0  0  0  0
   -3.9383   15.6899  -12.6782 C   0  0  0  0  0  0  0  0  0  0  0  0
   -3.7261   14.9536  -11.5366 C   0  0  0  0  0  0  0  0  0  0  0  0
   -4.5508   13.8769  -11.2437 C   0  0  0  0  0  0  0  0  0  0  0  0
   -2.6976   15.2614  -10.7139 N   0  0  0  0  0  0  0  0  0  0  0  0
   -6.0464   12.2223   -9.8797 H   0  0  0  0  0  0  0  0  0  0  0  0
   -8.1826   10.1089  -13.8914 H   0  0  0  0  0  0  0  0  0  0  0  0
   -6.9001   12.2325  -14.0803 H   0  0  0  0  0  0  0  0  0  0  0  0
   -8.9338    8.2246  -11.8742 H   0  0  0  0  0  0  0  0  0  0  0  0
   -8.0989   10.5499   -7.5868 H   0  0  0  0  0  0  0  0  0  0  0  0
   -7.3874    8.9007   -7.5571 H   0  0  0  0  0  0  0  0  0  0  0  0
   -6.7563   12.3160   -6.9245 H   0  0  0  0  0  0  0  0  0  0  0  0
   -4.5218   13.2977   -6.4798 H   0  0  0  0  0  0  0  0  0  0  0  0
   -2.6703    9.7625   -8.0472 H   0  0  0  0  0  0  0  0  0  0  0  0
   -4.9024    8.7852   -8.4759 H   0  0  0  0  0  0  0  0  0  0  0  0
   -2.4277   14.2118   -6.1857 H   0  0  0  0  0  0  0  0  0  0  0  0
   -0.6637   10.5754   -7.6065 H   0  0  0  0  0  0  0  0  0  0  0  0
    1.4809   14.2752   -6.0543 H   0  0  0  0  0  0  0  0  0  0  0  0
    0.2393   15.4453   -6.6162 H   0  0  0  0  0  0  0  0  0  0  0  0
    0.1804   14.8105   -4.9369 H   0  0  0  0  0  0  0  0  0  0  0  0
   -5.1384   15.8875  -14.4370 H   0  0  0  0  0  0  0  0  0  0  0  0
   -3.3221   16.5493  -12.8978 H   0  0  0  0  0  0  0  0  0  0  0  0
   -4.4255   13.3274  -10.3224 H   0  0  0  0  0  0  0  0  0  0  0  0
   -2.6901   14.6302   -9.9383 H   0  0  0  0  0  0  0  0  0  0  0  0
   -1.8356   15.1840  -11.2148 H   0  0  0  0  0  0  0  0  0  0  0  0
  1  2  2  0  0  0  0
  1  4  1  0  0  0  0
  1 11  1  0  0  0  0
  2  6  1  0  0  0  0
  3  4  2  0  0  0  0
  3  5  1  0  0  0  0
  5  6  2  0  0  0  0
  5  9  1  0  0  0  0
  6  7  1  0  0  0  0
  7  8  2  0  0  0  0
  7 10  1  0  0  0  0
  8  9  1  0  0  0  0
 10 12  1  0  0  0  0
 11 24  2  0  0  0  0
 11 28  1  0  0  0  0
 12 13  2  0  0  0  0
 12 17  1  0  0  0  0
 13 14  1  0  0  0  0
 14 15  2  0  0  0  0
 15 16  1  0  0  0  0
 15 18  1  0  0  0  0
 16 17  2  0  0  0  0
 18 19  2  0  0  0  0
 18 22  1  0  0  0  0
 19 20  1  0  0  0  0
 20 21  1  0  0  0  0
 20 23  1  0  0  0  0
 21 22  2  0  0  0  0
 24 25  1  0  0  0  0
 25 26  2  0  0  0  0
 26 27  1  0  0  0  0
 27 28  2  0  0  0  0
 27 29  1  0  0  0  0
  2 30  1  0  0  0  0
  3 31  1  0  0  0  0
  4 32  1  0  0  0  0
  9 33  1  0  0  0  0
 10 34  1  0  0  0  0
 10 35  1  0  0  0  0
 13 36  1  0  0  0  0
 14 37  1  0  0  0  0
 16 38  1  0  0  0  0
 17 39  1  0  0  0  0
 19 40  1  0  0  0  0
 22 41  1  0  0  0  0
 23 42  1  0  0  0  0
 23 43  1  0  0  0  0
 23 44  1  0  0  0  0
 25 45  1  0  0  0  0
 26 46  1  0  0  0  0
 28 47  1  0  0  0  0
 29 48  1  0  0  0  0
 29 49  1  0  0  0  0
M  END
> <Name>
23

> <IC50[uM]>
0.27

$$$$
23
  -OEChem-05192314333D
 Structure written by MMmdl.
 49 53  0     0  0  0  0  0  0999 V2000
   -6.3775   12.3296  -12.0018 C   0  0  0  0  0  0  0  0  0  0  0  0
   -6.5098   11.7629  -10.7403 C   0  0  0  0  0  0  0  0  0  0  0  0
   -7.7247   10.5660  -13.0266 C   0  0  0  0  0  0  0  0  0  0  0  0
   -6.9942   11.7487  -13.1193 C   0  0  0  0  0  0  0  0  0  0  0  0
   -7.8312   10.0057  -11.7538 C   0  0  0  0  0  0  0  0  0  0  0  0
   -7.2443   10.6021  -10.6070 C   0  0  0  0  0  0  0  0  0  0  0  0
   -7.6167    9.7449   -9.5151 C   0  0  0  0  0  0  0  0  0  0  0  0
   -8.2961    8.7374   -9.9786 N   0  0  0  0  0  0  0  0  0  0  0  0
   -8.4404    8.8724  -11.2937 N   0  0  0  0  0  0  0  0  0  0  0  0
   -7.3318    9.8946   -8.0252 C   0  0  0  0  0  0  0  0  0  0  0  0
   -5.5478   13.5112  -12.1572 C   0  0  0  0  0  0  0  0  0  0  0  0
   -5.9707   10.4870   -7.7351 C   0  0  0  0  0  0  0  0  0  0  0  0
   -5.8642   11.7588   -7.1694 C   0  0  0  0  0  0  0  0  0  0  0  0
   -4.6019   12.3141   -6.9186 C   0  0  0  0  0  0  0  0  0  0  0  0
   -3.4503   11.5963   -7.2357 C   0  0  0  0  0  0  0  0  0  0  0  0
   -3.5604   10.3220   -7.8000 C   0  0  0  0  0  0  0  0  0  0  0  0
   -4.8213    9.7719   -8.0443 C   0  0  0  0  0  0  0  0  0  0  0  0
   -2.0996   12.1710   -6.9757 C   0  0  0  0  0  0  0  0  0  0  0  0
   -1.7487   13.4240   -6.4767 C   0  0  0  0  0  0  0  0  0  0  0  0
   -0.4123   13.4674   -6.4260 N   0  0  0  0  0  0  0  0  0  0  0  0
    0.1713   12.3664   -6.8217 N   0  0  0  0  0  0  0  0  0  0  0  0
   -0.8093   11.5624   -7.1930 C   0  0  0  0  0  0  0  0  0  0  0  0
    0.4224   14.5657   -5.9816 C   0  0  0  0  0  0  0  0  0  0  0  0
   -5.6966   14.2423  -13.2612 N   0  0  0  0  0  0  0  0  0  0  0  0
   -4.9506   15.3153  -13.5405 C   0  0  0  0  0  0  0  0  0  0  0  0
   -3.9383   15.6899  -12.6782 C   0  0  0  0  0  0  0  0  0  0  0  0
   -3.7261   14.9536  -11.5366 C   0  0  0  0  0  0  0  0  0  0  0  0
   -4.5508   13.8769  -11.2437 C   0  0  0  0  0  0  0  0  0  0  0  0
   -2.6976   15.2614  -10.7139 N   0  0  0  0  0  0  0  0  0  0  0  0
   -6.0464   12.2223   -9.8797 H   0  0  0  0  0  0  0  0  0  0  0  0
   -8.1826   10.1089  -13.8914 H   0  0  0  0  0  0  0  0  0  0  0  0
   -6.9001   12.2325  -14.0803 H   0  0  0  0  0  0  0  0  0  0  0  0
   -8.6538    7.9802   -9.4320 H   0  0  0  0  0  0  0  0  0  0  0  0
   -8.0989   10.5499   -7.5868 H   0  0  0  0  0  0  0  0  0  0  0  0
   -7.3874    8.9007   -7.5571 H   0  0  0  0  0  0  0  0  0  0  0  0
   -6.7563   12.3160   -6.9245 H   0  0  0  0  0  0  0  0  0  0  0  0
   -4.5218   13.2977   -6.4798 H   0  0  0  0  0  0  0  0  0  0  0  0
   -2.6703    9.7625   -8.0472 H   0  0  0  0  0  0  0  0  0  0  0  0
   -4.9024    8.7852   -8.4759 H   0  0  0  0  0  0  0  0  0  0  0  0
   -2.4277   14.2118   -6.1857 H   0  0  0  0  0  0  0  0  0  0  0  0
   -0.6637   10.5754   -7.6065 H   0  0  0  0  0  0  0  0  0  0  0  0
    1.4809   14.2752   -6.0543 H   0  0  0  0  0  0  0  0  0  0  0  0
    0.2393   15.4453   -6.6162 H   0  0  0  0  0  0  0  0  0  0  0  0
    0.1804   14.8105   -4.9369 H   0  0  0  0  0  0  0  0  0  0  0  0
   -6.4038   13.9739  -13.9153 H   0  0  0  0  0  0  0  0  0  0  0  0
   -5.1384   15.8875  -14.4370 H   0  0  0  0  0  0  0  0  0  0  0  0
   -3.3221   16.5493  -12.8978 H   0  0  0  0  0  0  0  0  0  0  0  0
   -4.4255   13.3274  -10.3224 H   0  0  0  0  0  0  0  0  0  0  0  0
   -2.6419   14.6376   -9.9343 H   0  0  0  0  0  0  0  0  0  0  0  0
  1  2  2  0  0  0  0
  1  4  1  0  0  0  0
  1 11  1  0  0  0  0
  2  6  1  0  0  0  0
  3  4  2  0  0  0  0
  3  5  1  0  0  0  0
  5  6  1  0  0  0  0
  5  9  2  0  0  0  0
  6  7  2  0  0  0  0
  7  8  1  0  0  0  0
  7 10  1  0  0  0  0
  8  9  1  0  0  0  0
 10 12  1  0  0  0  0
 11 24  1  0  0  0  0
 11 28  2  0  0  0  0
 12 13  2  0  0  0  0
 12 17  1  0  0  0  0
 13 14  1  0  0  0  0
 14 15  2  0  0  0  0
 15 16  1  0  0  0  0
 15 18  1  0  0  0  0
 16 17  2  0  0  0  0
 18 19  2  0  0  0  0
 18 22  1  0  0  0  0
 19 20  1  0  0  0  0
 20 21  1  0  0  0  0
 20 23  1  0  0  0  0
 21 22  2  0  0  0  0
 24 25  1  0  0  0  0
 25 26  2  0  0  0  0
 26 27  1  0  0  0  0
 27 28  1  0  0  0  0
 27 29  2  0  0  0  0
  2 30  1  0  0  0  0
  3 31  1  0  0  0  0
  4 32  1  0  0  0  0
  8 33  1  0  0  0  0
 10 34  1  0  0  0  0
 10 35  1  0  0  0  0
 13 36  1  0  0  0  0
 14 37  1  0  0  0  0
 16 38  1  0  0  0  0
 17 39  1  0  0  0  0
 19 40  1  0  0  0  0
 22 41  1  0  0  0  0
 23 42  1  0  0  0  0
 23 43  1  0  0  0  0
 23 44  1  0  0  0  0
 24 45  1  0  0  0  0
 25 46  1  0  0  0  0
 26 47  1  0  0  0  0
 28 48  1  0  0  0  0
 29 49  1  0  0  0  0
M  END
> <Name>
23

> <IC50[uM]>
0.27

$$$$
23
  -OEChem-05192314333D
 Structure written by MMmdl.
 49 53  0     0  0  0  0  0  0999 V2000
   -6.3775   12.3296  -12.0018 C   0  0  0  0  0  0  0  0  0  0  0  0
   -6.5098   11.7629  -10.7403 C   0  0  0  0  0  0  0  0  0  0  0  0
   -7.7247   10.5660  -13.0266 C   0  0  0  0  0  0  0  0  0  0  0  0
   -6.9942   11.7487  -13.1193 C   0  0  0  0  0  0  0  0  0  0  0  0
   -7.8312   10.0057  -11.7538 C   0  0  0  0  0  0  0  0  0  0  0  0
   -7.2443   10.6021  -10.6070 C   0  0  0  0  0  0  0  0  0  0  0  0
   -7.6167    9.7449   -9.5151 C   0  0  0  0  0  0  0  0  0  0  0  0
   -8.2961    8.7374   -9.9786 N   0  0  0  0  0  0  0  0  0  0  0  0
   -8.4404    8.8724  -11.2937 N   0  0  0  0  0  0  0  0  0  0  0  0
   -7.3318    9.8946   -8.0252 C   0  0  0  0  0  0  0  0  0  0  0  0
   -5.5478   13.5112  -12.1572 C   0  0  0  0  0  0  0  0  0  0  0  0
   -5.9707   10.4870   -7.7351 C   0  0  0  0  0  0  0  0  0  0  0  0
   -5.8642   11.7588   -7.1694 C   0  0  0  0  0  0  0  0  0  0  0  0
   -4.6019   12.3141   -6.9186 C   0  0  0  0  0  0  0  0  0  0  0  0
   -3.4503   11.5963   -7.2357 C   0  0  0  0  0  0  0  0  0  0  0  0
   -3.5604   10.3220   -7.8000 C   0  0  0  0  0  0  0  0  0  0  0  0
   -4.8213    9.7719   -8.0443 C   0  0  0  0  0  0  0  0  0  0  0  0
   -2.0996   12.1710   -6.9757 C   0  0  0  0  0  0  0  0  0  0  0  0
   -1.7487   13.4240   -6.4767 C   0  0  0  0  0  0  0  0  0  0  0  0
   -0.4123   13.4674   -6.4260 N   0  0  0  0  0  0  0  0  0  0  0  0
    0.1713   12.3664   -6.8217 N   0  0  0  0  0  0  0  0  0  0  0  0
   -0.8093   11.5624   -7.1930 C   0  0  0  0  0  0  0  0  0  0  0  0
    0.4224   14.5657   -5.9816 C   0  0  0  0  0  0  0  0  0  0  0  0
   -5.6966   14.2423  -13.2612 N   0  0  0  0  0  0  0  0  0  0  0  0
   -4.9506   15.3153  -13.5405 C   0  0  0  0  0  0  0  0  0  0  0  0
   -3.9383   15.6899  -12.6782 C   0  0  0  0  0  0  0  0  0  0  0  0
   -3.7261   14.9536  -11.5366 C   0  0  0  0  0  0  0  0  0  0  0  0
   -4.5508   13.8769  -11.2437 C   0  0  0  0  0  0  0  0  0  0  0  0
   -2.6976   15.2614  -10.7139 N   0  0  0  0  0  0  0  0  0  0  0  0
   -6.0464   12.2223   -9.8797 H   0  0  0  0  0  0  0  0  0  0  0  0
   -8.1826   10.1089  -13.8914 H   0  0  0  0  0  0  0  0  0  0  0  0
   -6.9001   12.2325  -14.0803 H   0  0  0  0  0  0  0  0  0  0  0  0
   -8.9338    8.2246  -11.8742 H   0  0  0  0  0  0  0  0  0  0  0  0
   -8.0989   10.5499   -7.5868 H   0  0  0  0  0  0  0  0  0  0  0  0
   -7.3874    8.9007   -7.5571 H   0  0  0  0  0  0  0  0  0  0  0  0
   -6.7563   12.3160   -6.9245 H   0  0  0  0  0  0  0  0  0  0  0  0
   -4.5218   13.2977   -6.4798 H   0  0  0  0  0  0  0  0  0  0  0  0
   -2.6703    9.7625   -8.0472 H   0  0  0  0  0  0  0  0  0  0  0  0
   -4.9024    8.7852   -8.4759 H   0  0  0  0  0  0  0  0  0  0  0  0
   -2.4277   14.2118   -6.1857 H   0  0  0  0  0  0  0  0  0  0  0  0
   -0.6637   10.5754   -7.6065 H   0  0  0  0  0  0  0  0  0  0  0  0
    1.4809   14.2752   -6.0543 H   0  0  0  0  0  0  0  0  0  0  0  0
    0.2393   15.4453   -6.6162 H   0  0  0  0  0  0  0  0  0  0  0  0
    0.1804   14.8105   -4.9369 H   0  0  0  0  0  0  0  0  0  0  0  0
   -6.4038   13.9739  -13.9153 H   0  0  0  0  0  0  0  0  0  0  0  0
   -5.1384   15.8875  -14.4370 H   0  0  0  0  0  0  0  0  0  0  0  0
   -3.3221   16.5493  -12.8978 H   0  0  0  0  0  0  0  0  0  0  0  0
   -4.4255   13.3274  -10.3224 H   0  0  0  0  0  0  0  0  0  0  0  0
   -2.6419   14.6376   -9.9343 H   0  0  0  0  0  0  0  0  0  0  0  0
  1  2  2  0  0  0  0
  1  4  1  0  0  0  0
  1 11  1  0  0  0  0
  2  6  1  0  0  0  0
  3  4  2  0  0  0  0
  3  5  1  0  0  0  0
  5  6  2  0  0  0  0
  5  9  1  0  0  0  0
  6  7  1  0  0  0  0
  7  8  2  0  0  0  0
  7 10  1  0  0  0  0
  8  9  1  0  0  0  0
 10 12  1  0  0  0  0
 11 24  1  0  0  0  0
 11 28  2  0  0  0  0
 12 13  2  0  0  0  0
 12 17  1  0  0  0  0
 13 14  1  0  0  0  0
 14 15  2  0  0  0  0
 15 16  1  0  0  0  0
 15 18  1  0  0  0  0
 16 17  2  0  0  0  0
 18 19  2  0  0  0  0
 18 22  1  0  0  0  0
 19 20  1  0  0  0  0
 20 21  1  0  0  0  0
 20 23  1  0  0  0  0
 21 22  2  0  0  0  0
 24 25  1  0  0  0  0
 25 26  2  0  0  0  0
 26 27  1  0  0  0  0
 27 28  1  0  0  0  0
 27 29  2  0  0  0  0
  2 30  1  0  0  0  0
  3 31  1  0  0  0  0
  4 32  1  0  0  0  0
  9 33  1  0  0  0  0
 10 34  1  0  0  0  0
 10 35  1  0  0  0  0
 13 36  1  0  0  0  0
 14 37  1  0  0  0  0
 16 38  1  0  0  0  0
 17 39  1  0  0  0  0
 19 40  1  0  0  0  0
 22 41  1  0  0  0  0
 23 42  1  0  0  0  0
 23 43  1  0  0  0  0
 23 44  1  0  0  0  0
 24 45  1  0  0  0  0
 25 46  1  0  0  0  0
 26 47  1  0  0  0  0
 28 48  1  0  0  0  0
 29 49  1  0  0  0  0
M  END
> <Name>
23

> <IC50[uM]>
0.27

$$$$
23
  -OEChem-05192314333D
 Structure written by MMmdl.
 49 53  0     1  0  0  0  0  0999 V2000
   -6.3775   12.3296  -12.0018 C   0  0  0  0  0  0  0  0  0  0  0  0
   -6.5098   11.7629  -10.7403 C   0  0  0  0  0  0  0  0  0  0  0  0
   -7.7247   10.5660  -13.0266 C   0  0  0  0  0  0  0  0  0  0  0  0
   -6.9942   11.7487  -13.1193 C   0  0  0  0  0  0  0  0  0  0  0  0
   -7.8312   10.0057  -11.7538 C   0  0  0  0  0  0  0  0  0  0  0  0
   -7.2443   10.6021  -10.6070 C   0  0  0  0  0  0  0  0  0  0  0  0
   -7.6167    9.7449   -9.5151 C   0  0  3  0  0  0  0  0  0  0  0  0
   -8.2961    8.7374   -9.9786 N   0  0  0  0  0  0  0  0  0  0  0  0
   -8.4404    8.8724  -11.2937 N   0  0  0  0  0  0  0  0  0  0  0  0
   -7.3318    9.8946   -8.0252 C   0  0  0  0  0  0  0  0  0  0  0  0
   -5.5478   13.5112  -12.1572 C   0  0  0  0  0  0  0  0  0  0  0  0
   -5.9707   10.4870   -7.7351 C   0  0  0  0  0  0  0  0  0  0  0  0
   -5.8642   11.7588   -7.1694 C   0  0  0  0  0  0  0  0  0  0  0  0
   -4.6019   12.3141   -6.9186 C   0  0  0  0  0  0  0  0  0  0  0  0
   -3.4503   11.5963   -7.2357 C   0  0  0  0  0  0  0  0  0  0  0  0
   -3.5604   10.3220   -7.8000 C   0  0  0  0  0  0  0  0  0  0  0  0
   -4.8213    9.7719   -8.0443 C   0  0  0  0  0  0  0  0  0  0  0  0
   -2.0996   12.1710   -6.9757 C   0  0  0  0  0  0  0  0  0  0  0  0
   -1.7487   13.4240   -6.4767 C   0  0  0  0  0  0  0  0  0  0  0  0
   -0.4123   13.4674   -6.4260 N   0  0  0  0  0  0  0  0  0  0  0  0
    0.1713   12.3664   -6.8217 N   0  0  0  0  0  0  0  0  0  0  0  0
   -0.8093   11.5624   -7.1930 C   0  0  0  0  0  0  0  0  0  0  0  0
    0.4224   14.5657   -5.9816 C   0  0  0  0  0  0  0  0  0  0  0  0
   -5.6966   14.2423  -13.2612 N   0  0  0  0  0  0  0  0  0  0  0  0
   -4.9506   15.3153  -13.5405 C   0  0  0  0  0  0  0  0  0  0  0  0
   -3.9383   15.6899  -12.6782 C   0  0  0  0  0  0  0  0  0  0  0  0
   -3.7261   14.9536  -11.5366 C   0  0  0  0  0  0  0  0  0  0  0  0
   -4.5508   13.8769  -11.2437 C   0  0  0  0  0  0  0  0  0  0  0  0
   -2.6976   15.2614  -10.7139 N   0  0  0  0  0  0  0  0  0  0  0  0
   -6.0464   12.2223   -9.8797 H   0  0  0  0  0  0  0  0  0  0  0  0
   -8.1826   10.1089  -13.8914 H   0  0  0  0  0  0  0  0  0  0  0  0
   -6.9001   12.2325  -14.0803 H   0  0  0  0  0  0  0  0  0  0  0  0
   -6.6832    9.1765   -9.6392 H   0  0  0  0  0  0  0  0  0  0  0  0
   -8.0989   10.5499   -7.5868 H   0  0  0  0  0  0  0  0  0  0  0  0
   -7.3874    8.9007   -7.5571 H   0  0  0  0  0  0  0  0  0  0  0  0
   -6.7563   12.3160   -6.9245 H   0  0  0  0  0  0  0  0  0  0  0  0
   -4.5218   13.2977   -6.4798 H   0  0  0  0  0  0  0  0  0  0  0  0
   -2.6703    9.7625   -8.0472 H   0  0  0  0  0  0  0  0  0  0  0  0
   -4.9024    8.7852   -8.4759 H   0  0  0  0  0  0  0  0  0  0  0  0
   -2.4277   14.2118   -6.1857 H   0  0  0  0  0  0  0  0  0  0  0  0
   -0.6637   10.5754   -7.6065 H   0  0  0  0  0  0  0  0  0  0  0  0
    1.4809   14.2752   -6.0543 H   0  0  0  0  0  0  0  0  0  0  0  0
    0.2393   15.4453   -6.6162 H   0  0  0  0  0  0  0  0  0  0  0  0
    0.1804   14.8105   -4.9369 H   0  0  0  0  0  0  0  0  0  0  0  0
   -5.1384   15.8875  -14.4370 H   0  0  0  0  0  0  0  0  0  0  0  0
   -3.3221   16.5493  -12.8978 H   0  0  0  0  0  0  0  0  0  0  0  0
   -4.4255   13.3274  -10.3224 H   0  0  0  0  0  0  0  0  0  0  0  0
   -2.6901   14.6302   -9.9383 H   0  0  0  0  0  0  0  0  0  0  0  0
   -1.8356   15.1840  -11.2148 H   0  0  0  0  0  0  0  0  0  0  0  0
  1  2  2  0  0  0  0
  1  4  1  0  0  0  0
  1 11  1  0  0  0  0
  2  6  1  0  0  0  0
  3  4  2  0  0  0  0
  3  5  1  0  0  0  0
  5  6  2  0  0  0  0
  5  9  1  0  0  0  0
  6  7  1  0  0  0  0
  7  8  1  0  0  0  0
  7 10  1  0  0  0  0
  8  9  2  0  0  0  0
 10 12  1  0  0  0  0
 11 24  2  0  0  0  0
 11 28  1  0  0  0  0
 12 13  2  0  0  0  0
 12 17  1  0  0  0  0
 13 14  1  0  0  0  0
 14 15  2  0  0  0  0
 15 16  1  0  0  0  0
 15 18  1  0  0  0  0
 16 17  2  0  0  0  0
 18 19  2  0  0  0  0
 18 22  1  0  0  0  0
 19 20  1  0  0  0  0
 20 21  1  0  0  0  0
 20 23  1  0  0  0  0
 21 22  2  0  0  0  0
 24 25  1  0  0  0  0
 25 26  2  0  0  0  0
 26 27  1  0  0  0  0
 27 28  2  0  0  0  0
 27 29  1  0  0  0  0
  2 30  1  0  0  0  0
  3 31  1  0  0  0  0
  4 32  1  0  0  0  0
  7 33  1  0  0  0  0
 10 34  1  0  0  0  0
 10 35  1  0  0  0  0
 13 36  1  0  0  0  0
 14 37  1  0  0  0  0
 16 38  1  0  0  0  0
 17 39  1  0  0  0  0
 19 40  1  0  0  0  0
 22 41  1  0  0  0  0
 23 42  1  0  0  0  0
 23 43  1  0  0  0  0
 23 44  1  0  0  0  0
 25 45  1  0  0  0  0
 26 46  1  0  0  0  0
 28 47  1  0  0  0  0
 29 48  1  0  0  0  0
 29 49  1  0  0  0  0
M  END
> <Name>
23

> <IC50[uM]>
0.27

$$$$
23
  -OEChem-05192314333D
 Structure written by MMmdl.
 49 53  0     0  0  0  0  0  0999 V2000
   -6.3775   12.3296  -12.0018 C   0  0  0  0  0  0  0  0  0  0  0  0
   -6.5098   11.7629  -10.7403 C   0  0  0  0  0  0  0  0  0  0  0  0
   -7.7247   10.5660  -13.0266 C   0  0  0  0  0  0  0  0  0  0  0  0
   -6.9942   11.7487  -13.1193 C   0  0  0  0  0  0  0  0  0  0  0  0
   -7.8312   10.0057  -11.7538 C   0  0  0  0  0  0  0  0  0  0  0  0
   -7.2443   10.6021  -10.6070 C   0  0  0  0  0  0  0  0  0  0  0  0
   -7.6167    9.7449   -9.5151 C   0  0  0  0  0  0  0  0  0  0  0  0
   -8.2961    8.7374   -9.9786 N   0  0  0  0  0  0  0  0  0  0  0  0
   -8.4404    8.8724  -11.2937 N   0  0  0  0  0  0  0  0  0  0  0  0
   -7.3318    9.8946   -8.0252 C   0  0  0  0  0  0  0  0  0  0  0  0
   -5.5478   13.5112  -12.1572 C   0  0  0  0  0  0  0  0  0  0  0  0
   -5.9707   10.4870   -7.7351 C   0  0  0  0  0  0  0  0  0  0  0  0
   -5.8642   11.7588   -7.1694 C   0  0  0  0  0  0  0  0  0  0  0  0
   -4.6019   12.3141   -6.9186 C   0  0  0  0  0  0  0  0  0  0  0  0
   -3.4503   11.5963   -7.2357 C   0  0  0  0  0  0  0  0  0  0  0  0
   -3.5604   10.3220   -7.8000 C   0  0  0  0  0  0  0  0  0  0  0  0
   -4.8213    9.7719   -8.0443 C   0  0  0  0  0  0  0  0  0  0  0  0
   -2.0996   12.1710   -6.9757 C   0  0  0  0  0  0  0  0  0  0  0  0
   -1.7487   13.4240   -6.4767 C   0  0  0  0  0  0  0  0  0  0  0  0
   -0.4123   13.4674   -6.4260 N   0  0  0  0  0  0  0  0  0  0  0  0
    0.1713   12.3664   -6.8217 N   0  0  0  0  0  0  0  0  0  0  0  0
   -0.8093   11.5624   -7.1930 C   0  0  0  0  0  0  0  0  0  0  0  0
    0.4224   14.5657   -5.9816 C   0  0  0  0  0  0  0  0  0  0  0  0
   -5.6966   14.2423  -13.2612 N   0  0  0  0  0  0  0  0  0  0  0  0
   -4.9506   15.3153  -13.5405 C   0  0  0  0  0  0  0  0  0  0  0  0
   -3.9383   15.6899  -12.6782 C   0  0  0  0  0  0  0  0  0  0  0  0
   -3.7261   14.9536  -11.5366 C   0  0  0  0  0  0  0  0  0  0  0  0
   -4.5508   13.8769  -11.2437 C   0  0  0  0  0  0  0  0  0  0  0  0
   -2.6976   15.2614  -10.7139 N   0  0  0  0  0  0  0  0  0  0  0  0
   -6.0464   12.2223   -9.8797 H   0  0  0  0  0  0  0  0  0  0  0  0
   -8.1826   10.1089  -13.8914 H   0  0  0  0  0  0  0  0  0  0  0  0
   -6.9001   12.2325  -14.0803 H   0  0  0  0  0  0  0  0  0  0  0  0
   -7.8086    7.8868   -9.7816 H   0  0  0  0  0  0  0  0  0  0  0  0
   -9.4157    8.9178  -11.5100 H   0  0  0  0  0  0  0  0  0  0  0  0
   -8.0313    9.6067   -7.2544 H   0  0  0  0  0  0  0  0  0  0  0  0
   -6.7563   12.3160   -6.9245 H   0  0  0  0  0  0  0  0  0  0  0  0
   -4.5218   13.2977   -6.4798 H   0  0  0  0  0  0  0  0  0  0  0  0
   -2.6703    9.7625   -8.0472 H   0  0  0  0  0  0  0  0  0  0  0  0
   -4.9024    8.7852   -8.4759 H   0  0  0  0  0  0  0  0  0  0  0  0
   -2.4277   14.2118   -6.1857 H   0  0  0  0  0  0  0  0  0  0  0  0
   -0.6637   10.5754   -7.6065 H   0  0  0  0  0  0  0  0  0  0  0  0
    1.4809   14.2752   -6.0543 H   0  0  0  0  0  0  0  0  0  0  0  0
    0.2393   15.4453   -6.6162 H   0  0  0  0  0  0  0  0  0  0  0  0
    0.1804   14.8105   -4.9369 H   0  0  0  0  0  0  0  0  0  0  0  0
   -5.1384   15.8875  -14.4370 H   0  0  0  0  0  0  0  0  0  0  0  0
   -3.3221   16.5493  -12.8978 H   0  0  0  0  0  0  0  0  0  0  0  0
   -4.4255   13.3274  -10.3224 H   0  0  0  0  0  0  0  0  0  0  0  0
   -2.6901   14.6302   -9.9383 H   0  0  0  0  0  0  0  0  0  0  0  0
   -1.8356   15.1840  -11.2148 H   0  0  0  0  0  0  0  0  0  0  0  0
  1  2  2  0  0  0  0
  1  4  1  0  0  0  0
  1 11  1  0  0  0  0
  2  6  1  0  0  0  0
  3  4  2  0  0  0  0
  3  5  1  0  0  0  0
  5  6  2  0  0  0  0
  5  9  1  0  0  0  0
  6  7  1  0  0  0  0
  7  8  1  0  0  0  0
  7 10  2  3  0  0  0
  8  9  1  0  0  0  0
 10 12  1  0  0  0  0
 11 24  2  0  0  0  0
 11 28  1  0  0  0  0
 12 13  2  0  0  0  0
 12 17  1  0  0  0  0
 13 14  1  0  0  0  0
 14 15  2  0  0  0  0
 15 16  1  0  0  0  0
 15 18  1  0  0  0  0
 16 17  2  0  0  0  0
 18 19  2  0  0  0  0
 18 22  1  0  0  0  0
 19 20  1  0  0  0  0
 20 21  1  0  0  0  0
 20 23  1  0  0  0  0
 21 22  2  0  0  0  0
 24 25  1  0  0  0  0
 25 26  2  0  0  0  0
 26 27  1  0  0  0  0
 27 28  2  0  0  0  0
 27 29  1  0  0  0  0
  2 30  1  0  0  0  0
  3 31  1  0  0  0  0
  4 32  1  0  0  0  0
  8 33  1  0  0  0  0
  9 34  1  0  0  0  0
 10 35  1  0  0  0  0
 13 36  1  0  0  0  0
 14 37  1  0  0  0  0
 16 38  1  0  0  0  0
 17 39  1  0  0  0  0
 19 40  1  0  0  0  0
 22 41  1  0  0  0  0
 23 42  1  0  0  0  0
 23 43  1  0  0  0  0
 23 44  1  0  0  0  0
 25 45  1  0  0  0  0
 26 46  1  0  0  0  0
 28 47  1  0  0  0  0
 29 48  1  0  0  0  0
 29 49  1  0  0  0  0
M  END
> <Name>
23

> <IC50[uM]>
0.27

$$$$
23
  -OEChem-05192314333D
 Structure written by MMmdl.
 49 53  0     1  0  0  0  0  0999 V2000
   -6.3775   12.3296  -12.0018 C   0  0  0  0  0  0  0  0  0  0  0  0
   -6.5098   11.7629  -10.7403 C   0  0  0  0  0  0  0  0  0  0  0  0
   -7.7247   10.5660  -13.0266 C   0  0  0  0  0  0  0  0  0  0  0  0
   -6.9942   11.7487  -13.1193 C   0  0  0  0  0  0  0  0  0  0  0  0
   -7.8312   10.0057  -11.7538 C   0  0  0  0  0  0  0  0  0  0  0  0
   -7.2443   10.6021  -10.6070 C   0  0  0  0  0  0  0  0  0  0  0  0
   -7.6167    9.7449   -9.5151 C   0  0  3  0  0  0  0  0  0  0  0  0
   -8.2961    8.7374   -9.9786 N   0  0  0  0  0  0  0  0  0  0  0  0
   -8.4404    8.8724  -11.2937 N   0  0  0  0  0  0  0  0  0  0  0  0
   -7.3318    9.8946   -8.0252 C   0  0  0  0  0  0  0  0  0  0  0  0
   -5.5478   13.5112  -12.1572 C   0  0  0  0  0  0  0  0  0  0  0  0
   -5.9707   10.4870   -7.7351 C   0  0  0  0  0  0  0  0  0  0  0  0
   -5.8642   11.7588   -7.1694 C   0  0  0  0  0  0  0  0  0  0  0  0
   -4.6019   12.3141   -6.9186 C   0  0  0  0  0  0  0  0  0  0  0  0
   -3.4503   11.5963   -7.2357 C   0  0  0  0  0  0  0  0  0  0  0  0
   -3.5604   10.3220   -7.8000 C   0  0  0  0  0  0  0  0  0  0  0  0
   -4.8213    9.7719   -8.0443 C   0  0  0  0  0  0  0  0  0  0  0  0
   -2.0996   12.1710   -6.9757 C   0  0  0  0  0  0  0  0  0  0  0  0
   -1.7487   13.4240   -6.4767 C   0  0  0  0  0  0  0  0  0  0  0  0
   -0.4123   13.4674   -6.4260 N   0  0  0  0  0  0  0  0  0  0  0  0
    0.1713   12.3664   -6.8217 N   0  0  0  0  0  0  0  0  0  0  0  0
   -0.8093   11.5624   -7.1930 C   0  0  0  0  0  0  0  0  0  0  0  0
    0.4224   14.5657   -5.9816 C   0  0  0  0  0  0  0  0  0  0  0  0
   -5.6966   14.2423  -13.2612 N   0  0  0  0  0  0  0  0  0  0  0  0
   -4.9506   15.3153  -13.5405 C   0  0  0  0  0  0  0  0  0  0  0  0
   -3.9383   15.6899  -12.6782 C   0  0  0  0  0  0  0  0  0  0  0  0
   -3.7261   14.9536  -11.5366 C   0  0  0  0  0  0  0  0  0  0  0  0
   -4.5508   13.8769  -11.2437 C   0  0  0  0  0  0  0  0  0  0  0  0
   -2.6976   15.2614  -10.7139 N   0  0  0  0  0  0  0  0  0  0  0  0
   -6.0464   12.2223   -9.8797 H   0  0  0  0  0  0  0  0  0  0  0  0
   -8.1826   10.1089  -13.8914 H   0  0  0  0  0  0  0  0  0  0  0  0
   -6.9001   12.2325  -14.0803 H   0  0  0  0  0  0  0  0  0  0  0  0
   -6.6832    9.1765   -9.6392 H   0  0  0  0  0  0  0  0  0  0  0  0
   -8.0989   10.5499   -7.5868 H   0  0  0  0  0  0  0  0  0  0  0  0
   -7.3874    8.9007   -7.5571 H   0  0  0  0  0  0  0  0  0  0  0  0
   -6.7563   12.3160   -6.9245 H   0  0  0  0  0  0  0  0  0  0  0  0
   -4.5218   13.2977   -6.4798 H   0  0  0  0  0  0  0  0  0  0  0  0
   -2.6703    9.7625   -8.0472 H   0  0  0  0  0  0  0  0  0  0  0  0
   -4.9024    8.7852   -8.4759 H   0  0  0  0  0  0  0  0  0  0  0  0
   -2.4277   14.2118   -6.1857 H   0  0  0  0  0  0  0  0  0  0  0  0
   -0.6637   10.5754   -7.6065 H   0  0  0  0  0  0  0  0  0  0  0  0
    1.4809   14.2752   -6.0543 H   0  0  0  0  0  0  0  0  0  0  0  0
    0.2393   15.4453   -6.6162 H   0  0  0  0  0  0  0  0  0  0  0  0
    0.1804   14.8105   -4.9369 H   0  0  0  0  0  0  0  0  0  0  0  0
   -6.4038   13.9739  -13.9153 H   0  0  0  0  0  0  0  0  0  0  0  0
   -5.1384   15.8875  -14.4370 H   0  0  0  0  0  0  0  0  0  0  0  0
   -3.3221   16.5493  -12.8978 H   0  0  0  0  0  0  0  0  0  0  0  0
   -4.4255   13.3274  -10.3224 H   0  0  0  0  0  0  0  0  0  0  0  0
   -2.6419   14.6376   -9.9343 H   0  0  0  0  0  0  0  0  0  0  0  0
  1  2  2  0  0  0  0
  1  4  1  0  0  0  0
  1 11  1  0  0  0  0
  2  6  1  0  0  0  0
  3  4  2  0  0  0  0
  3  5  1  0  0  0  0
  5  6  2  0  0  0  0
  5  9  1  0  0  0  0
  6  7  1  0  0  0  0
  7  8  1  0  0  0  0
  7 10  1  0  0  0  0
  8  9  2  0  0  0  0
 10 12  1  0  0  0  0
 11 24  1  0  0  0  0
 11 28  2  0  0  0  0
 12 13  2  0  0  0  0
 12 17  1  0  0  0  0
 13 14  1  0  0  0  0
 14 15  2  0  0  0  0
 15 16  1  0  0  0  0
 15 18  1  0  0  0  0
 16 17  2  0  0  0  0
 18 19  2  0  0  0  0
 18 22  1  0  0  0  0
 19 20  1  0  0  0  0
 20 21  1  0  0  0  0
 20 23  1  0  0  0  0
 21 22  2  0  0  0  0
 24 25  1  0  0  0  0
 25 26  2  0  0  0  0
 26 27  1  0  0  0  0
 27 28  1  0  0  0  0
 27 29  2  0  0  0  0
  2 30  1  0  0  0  0
  3 31  1  0  0  0  0
  4 32  1  0  0  0  0
  7 33  1  0  0  0  0
 10 34  1  0  0  0  0
 10 35  1  0  0  0  0
 13 36  1  0  0  0  0
 14 37  1  0  0  0  0
 16 38  1  0  0  0  0
 17 39  1  0  0  0  0
 19 40  1  0  0  0  0
 22 41  1  0  0  0  0
 23 42  1  0  0  0  0
 23 43  1  0  0  0  0
 23 44  1  0  0  0  0
 24 45  1  0  0  0  0
 25 46  1  0  0  0  0
 26 47  1  0  0  0  0
 28 48  1  0  0  0  0
 29 49  1  0  0  0  0
M  END
> <Name>
23

> <IC50[uM]>
0.27

$$$$
23
  -OEChem-05192314333D
 Structure written by MMmdl.
 49 53  0     0  0  0  0  0  0999 V2000
   -6.3775   12.3296  -12.0018 C   0  0  0  0  0  0  0  0  0  0  0  0
   -6.5098   11.7629  -10.7403 C   0  0  0  0  0  0  0  0  0  0  0  0
   -7.7247   10.5660  -13.0266 C   0  0  0  0  0  0  0  0  0  0  0  0
   -6.9942   11.7487  -13.1193 C   0  0  0  0  0  0  0  0  0  0  0  0
   -7.8312   10.0057  -11.7538 C   0  0  0  0  0  0  0  0  0  0  0  0
   -7.2443   10.6021  -10.6070 C   0  0  0  0  0  0  0  0  0  0  0  0
   -7.6167    9.7449   -9.5151 C   0  0  0  0  0  0  0  0  0  0  0  0
   -8.2961    8.7374   -9.9786 N   0  0  0  0  0  0  0  0  0  0  0  0
   -8.4404    8.8724  -11.2937 N   0  0  0  0  0  0  0  0  0  0  0  0
   -7.3318    9.8946   -8.0252 C   0  0  0  0  0  0  0  0  0  0  0  0
   -5.5478   13.5112  -12.1572 C   0  0  0  0  0  0  0  0  0  0  0  0
   -5.9707   10.4870   -7.7351 C   0  0  0  0  0  0  0  0  0  0  0  0
   -5.8642   11.7588   -7.1694 C   0  0  0  0  0  0  0  0  0  0  0  0
   -4.6019   12.3141   -6.9186 C   0  0  0  0  0  0  0  0  0  0  0  0
   -3.4503   11.5963   -7.2357 C   0  0  0  0  0  0  0  0  0  0  0  0
   -3.5604   10.3220   -7.8000 C   0  0  0  0  0  0  0  0  0  0  0  0
   -4.8213    9.7719   -8.0443 C   0  0  0  0  0  0  0  0  0  0  0  0
   -2.0996   12.1710   -6.9757 C   0  0  0  0  0  0  0  0  0  0  0  0
   -1.7487   13.4240   -6.4767 C   0  0  0  0  0  0  0  0  0  0  0  0
   -0.4123   13.4674   -6.4260 N   0  0  0  0  0  0  0  0  0  0  0  0
    0.1713   12.3664   -6.8217 N   0  0  0  0  0  0  0  0  0  0  0  0
   -0.8093   11.5624   -7.1930 C   0  0  0  0  0  0  0  0  0  0  0  0
    0.4224   14.5657   -5.9816 C   0  0  0  0  0  0  0  0  0  0  0  0
   -5.6966   14.2423  -13.2612 N   0  0  0  0  0  0  0  0  0  0  0  0
   -4.9506   15.3153  -13.5405 C   0  0  0  0  0  0  0  0  0  0  0  0
   -3.9383   15.6899  -12.6782 C   0  0  0  0  0  0  0  0  0  0  0  0
   -3.7261   14.9536  -11.5366 C   0  0  0  0  0  0  0  0  0  0  0  0
   -4.5508   13.8769  -11.2437 C   0  0  0  0  0  0  0  0  0  0  0  0
   -2.6976   15.2614  -10.7139 N   0  0  0  0  0  0  0  0  0  0  0  0
   -6.0464   12.2223   -9.8797 H   0  0  0  0  0  0  0  0  0  0  0  0
   -8.1826   10.1089  -13.8914 H   0  0  0  0  0  0  0  0  0  0  0  0
   -6.9001   12.2325  -14.0803 H   0  0  0  0  0  0  0  0  0  0  0  0
   -7.8086    7.8868   -9.7816 H   0  0  0  0  0  0  0  0  0  0  0  0
   -9.4157    8.9178  -11.5100 H   0  0  0  0  0  0  0  0  0  0  0  0
   -8.0313    9.6067   -7.2544 H   0  0  0  0  0  0  0  0  0  0  0  0
   -6.7563   12.3160   -6.9245 H   0  0  0  0  0  0  0  0  0  0  0  0
   -4.5218   13.2977   -6.4798 H   0  0  0  0  0  0  0  0  0  0  0  0
   -2.6703    9.7625   -8.0472 H   0  0  0  0  0  0  0  0  0  0  0  0
   -4.9024    8.7852   -8.4759 H   0  0  0  0  0  0  0  0  0  0  0  0
   -2.4277   14.2118   -6.1857 H   0  0  0  0  0  0  0  0  0  0  0  0
   -0.6637   10.5754   -7.6065 H   0  0  0  0  0  0  0  0  0  0  0  0
    1.4809   14.2752   -6.0543 H   0  0  0  0  0  0  0  0  0  0  0  0
    0.2393   15.4453   -6.6162 H   0  0  0  0  0  0  0  0  0  0  0  0
    0.1804   14.8105   -4.9369 H   0  0  0  0  0  0  0  0  0  0  0  0
   -6.4038   13.9739  -13.9153 H   0  0  0  0  0  0  0  0  0  0  0  0
   -5.1384   15.8875  -14.4370 H   0  0  0  0  0  0  0  0  0  0  0  0
   -3.3221   16.5493  -12.8978 H   0  0  0  0  0  0  0  0  0  0  0  0
   -4.4255   13.3274  -10.3224 H   0  0  0  0  0  0  0  0  0  0  0  0
   -2.6419   14.6376   -9.9343 H   0  0  0  0  0  0  0  0  0  0  0  0
  1  2  2  0  0  0  0
  1  4  1  0  0  0  0
  1 11  1  0  0  0  0
  2  6  1  0  0  0  0
  3  4  2  0  0  0  0
  3  5  1  0  0  0  0
  5  6  2  0  0  0  0
  5  9  1  0  0  0  0
  6  7  1  0  0  0  0
  7  8  1  0  0  0  0
  7 10  2  3  0  0  0
  8  9  1  0  0  0  0
 10 12  1  0  0  0  0
 11 24  1  0  0  0  0
 11 28  2  0  0  0  0
 12 13  2  0  0  0  0
 12 17  1  0  0  0  0
 13 14  1  0  0  0  0
 14 15  2  0  0  0  0
 15 16  1  0  0  0  0
 15 18  1  0  0  0  0
 16 17  2  0  0  0  0
 18 19  2  0  0  0  0
 18 22  1  0  0  0  0
 19 20  1  0  0  0  0
 20 21  1  0  0  0  0
 20 23  1  0  0  0  0
 21 22  2  0  0  0  0
 24 25  1  0  0  0  0
 25 26  2  0  0  0  0
 26 27  1  0  0  0  0
 27 28  1  0  0  0  0
 27 29  2  0  0  0  0
  2 30  1  0  0  0  0
  3 31  1  0  0  0  0
  4 32  1  0  0  0  0
  8 33  1  0  0  0  0
  9 34  1  0  0  0  0
 10 35  1  0  0  0  0
 13 36  1  0  0  0  0
 14 37  1  0  0  0  0
 16 38  1  0  0  0  0
 17 39  1  0  0  0  0
 19 40  1  0  0  0  0
 22 41  1  0  0  0  0
 23 42  1  0  0  0  0
 23 43  1  0  0  0  0
 23 44  1  0  0  0  0
 24 45  1  0  0  0  0
 25 46  1  0  0  0  0
 26 47  1  0  0  0  0
 28 48  1  0  0  0  0
 29 49  1  0  0  0  0
M  END
> <Name>
23

> <IC50[uM]>
0.27

$$$$
23
  -OEChem-05192314333D
 Structure written by MMmdl.
 49 53  0     1  0  0  0  0  0999 V2000
   -6.3775   12.3296  -12.0018 C   0  0  3  0  0  0  0  0  0  0  0  0
   -6.5098   11.7629  -10.7403 C   0  0  0  0  0  0  0  0  0  0  0  0
   -7.7247   10.5660  -13.0266 C   0  0  0  0  0  0  0  0  0  0  0  0
   -6.9942   11.7487  -13.1193 C   0  0  0  0  0  0  0  0  0  0  0  0
   -7.8312   10.0057  -11.7538 C   0  0  0  0  0  0  0  0  0  0  0  0
   -7.2443   10.6021  -10.6070 C   0  0  0  0  0  0  0  0  0  0  0  0
   -7.6167    9.7449   -9.5151 C   0  0  0  0  0  0  0  0  0  0  0  0
   -8.2961    8.7374   -9.9786 N   0  0  0  0  0  0  0  0  0  0  0  0
   -8.4404    8.8724  -11.2937 N   0  0  0  0  0  0  0  0  0  0  0  0
   -7.3318    9.8946   -8.0252 C   0  0  0  0  0  0  0  0  0  0  0  0
   -5.5478   13.5112  -12.1572 C   0  0  0  0  0  0  0  0  0  0  0  0
   -5.9707   10.4870   -7.7351 C   0  0  0  0  0  0  0  0  0  0  0  0
   -5.8642   11.7588   -7.1694 C   0  0  0  0  0  0  0  0  0  0  0  0
   -4.6019   12.3141   -6.9186 C   0  0  0  0  0  0  0  0  0  0  0  0
   -3.4503   11.5963   -7.2357 C   0  0  0  0  0  0  0  0  0  0  0  0
   -3.5604   10.3220   -7.8000 C   0  0  0  0  0  0  0  0  0  0  0  0
   -4.8213    9.7719   -8.0443 C   0  0  0  0  0  0  0  0  0  0  0  0
   -2.0996   12.1710   -6.9757 C   0  0  0  0  0  0  0  0  0  0  0  0
   -1.7487   13.4240   -6.4767 C   0  0  0  0  0  0  0  0  0  0  0  0
   -0.4123   13.4674   -6.4260 N   0  0  0  0  0  0  0  0  0  0  0  0
    0.1713   12.3664   -6.8217 N   0  0  0  0  0  0  0  0  0  0  0  0
   -0.8093   11.5624   -7.1930 C   0  0  0  0  0  0  0  0  0  0  0  0
    0.4224   14.5657   -5.9816 C   0  0  0  0  0  0  0  0  0  0  0  0
   -5.6966   14.2423  -13.2612 N   0  0  0  0  0  0  0  0  0  0  0  0
   -4.9506   15.3153  -13.5405 C   0  0  0  0  0  0  0  0  0  0  0  0
   -3.9383   15.6899  -12.6782 C   0  0  0  0  0  0  0  0  0  0  0  0
   -3.7261   14.9536  -11.5366 C   0  0  0  0  0  0  0  0  0  0  0  0
   -4.5508   13.8769  -11.2437 C   0  0  0  0  0  0  0  0  0  0  0  0
   -2.6976   15.2614  -10.7139 N   0  0  0  0  0  0  0  0  0  0  0  0
   -7.2621   12.9592  -11.8254 H   0  0  0  0  0  0  0  0  0  0  0  0
   -6.0464   12.2223   -9.8797 H   0  0  0  0  0  0  0  0  0  0  0  0
   -8.1826   10.1089  -13.8914 H   0  0  0  0  0  0  0  0  0  0  0  0
   -6.9001   12.2325  -14.0803 H   0  0  0  0  0  0  0  0  0  0  0  0
   -8.6538    7.9802   -9.4320 H   0  0  0  0  0  0  0  0  0  0  0  0
   -8.0313    9.6067   -7.2544 H   0  0  0  0  0  0  0  0  0  0  0  0
   -6.7563   12.3160   -6.9245 H   0  0  0  0  0  0  0  0  0  0  0  0
   -4.5218   13.2977   -6.4798 H   0  0  0  0  0  0  0  0  0  0  0  0
   -2.6703    9.7625   -8.0472 H   0  0  0  0  0  0  0  0  0  0  0  0
   -4.9024    8.7852   -8.4759 H   0  0  0  0  0  0  0  0  0  0  0  0
   -2.4277   14.2118   -6.1857 H   0  0  0  0  0  0  0  0  0  0  0  0
   -0.6637   10.5754   -7.6065 H   0  0  0  0  0  0  0  0  0  0  0  0
    1.4809   14.2752   -6.0543 H   0  0  0  0  0  0  0  0  0  0  0  0
    0.2393   15.4453   -6.6162 H   0  0  0  0  0  0  0  0  0  0  0  0
    0.1804   14.8105   -4.9369 H   0  0  0  0  0  0  0  0  0  0  0  0
   -5.1384   15.8875  -14.4370 H   0  0  0  0  0  0  0  0  0  0  0  0
   -3.3221   16.5493  -12.8978 H   0  0  0  0  0  0  0  0  0  0  0  0
   -4.4255   13.3274  -10.3224 H   0  0  0  0  0  0  0  0  0  0  0  0
   -2.6901   14.6302   -9.9383 H   0  0  0  0  0  0  0  0  0  0  0  0
   -1.8356   15.1840  -11.2148 H   0  0  0  0  0  0  0  0  0  0  0  0
  1  2  1  0  0  0  0
  1  4  1  0  0  0  0
  1 11  1  0  0  0  0
  2  6  2  0  0  0  0
  3  4  2  0  0  0  0
  3  5  1  0  0  0  0
  5  6  1  0  0  0  0
  5  9  2  0  0  0  0
  6  7  1  0  0  0  0
  7  8  1  0  0  0  0
  7 10  2  3  0  0  0
  8  9  1  0  0  0  0
 10 12  1  0  0  0  0
 11 24  2  0  0  0  0
 11 28  1  0  0  0  0
 12 13  2  0  0  0  0
 12 17  1  0  0  0  0
 13 14  1  0  0  0  0
 14 15  2  0  0  0  0
 15 16  1  0  0  0  0
 15 18  1  0  0  0  0
 16 17  2  0  0  0  0
 18 19  2  0  0  0  0
 18 22  1  0  0  0  0
 19 20  1  0  0  0  0
 20 21  1  0  0  0  0
 20 23  1  0  0  0  0
 21 22  2  0  0  0  0
 24 25  1  0  0  0  0
 25 26  2  0  0  0  0
 26 27  1  0  0  0  0
 27 28  2  0  0  0  0
 27 29  1  0  0  0  0
  1 30  1  0  0  0  0
  2 31  1  0  0  0  0
  3 32  1  0  0  0  0
  4 33  1  0  0  0  0
  8 34  1  0  0  0  0
 10 35  1  0  0  0  0
 13 36  1  0  0  0  0
 14 37  1  0  0  0  0
 16 38  1  0  0  0  0
 17 39  1  0  0  0  0
 19 40  1  0  0  0  0
 22 41  1  0  0  0  0
 23 42  1  0  0  0  0
 23 43  1  0  0  0  0
 23 44  1  0  0  0  0
 25 45  1  0  0  0  0
 26 46  1  0  0  0  0
 28 47  1  0  0  0  0
 29 48  1  0  0  0  0
 29 49  1  0  0  0  0
M  END
> <Name>
23

> <IC50[uM]>
0.27

$$$$
23
  -OEChem-05192314333D
 Structure written by MMmdl.
 49 53  0     0  0  0  0  0  0999 V2000
   -6.3775   12.3296  -12.0018 C   0  0  0  0  0  0  0  0  0  0  0  0
   -6.5098   11.7629  -10.7403 C   0  0  0  0  0  0  0  0  0  0  0  0
   -7.7247   10.5660  -13.0266 C   0  0  0  0  0  0  0  0  0  0  0  0
   -6.9942   11.7487  -13.1193 C   0  0  0  0  0  0  0  0  0  0  0  0
   -7.8312   10.0057  -11.7538 C   0  0  0  0  0  0  0  0  0  0  0  0
   -7.2443   10.6021  -10.6070 C   0  0  0  0  0  0  0  0  0  0  0  0
   -7.6167    9.7449   -9.5151 C   0  0  0  0  0  0  0  0  0  0  0  0
   -8.2961    8.7374   -9.9786 N   0  0  0  0  0  0  0  0  0  0  0  0
   -8.4404    8.8724  -11.2937 N   0  0  0  0  0  0  0  0  0  0  0  0
   -7.3318    9.8946   -8.0252 C   0  0  0  0  0  0  0  0  0  0  0  0
   -5.5478   13.5112  -12.1572 C   0  0  0  0  0  0  0  0  0  0  0  0
   -5.9707   10.4870   -7.7351 C   0  0  0  0  0  0  0  0  0  0  0  0
   -5.8642   11.7588   -7.1694 C   0  0  0  0  0  0  0  0  0  0  0  0
   -4.6019   12.3141   -6.9186 C   0  0  0  0  0  0  0  0  0  0  0  0
   -3.4503   11.5963   -7.2357 C   0  0  0  0  0  0  0  0  0  0  0  0
   -3.5604   10.3220   -7.8000 C   0  0  0  0  0  0  0  0  0  0  0  0
   -4.8213    9.7719   -8.0443 C   0  0  0  0  0  0  0  0  0  0  0  0
   -2.0996   12.1710   -6.9757 C   0  0  0  0  0  0  0  0  0  0  0  0
   -1.7487   13.4240   -6.4767 C   0  0  0  0  0  0  0  0  0  0  0  0
   -0.4123   13.4674   -6.4260 N   0  0  0  0  0  0  0  0  0  0  0  0
    0.1713   12.3664   -6.8217 N   0  0  0  0  0  0  0  0  0  0  0  0
   -0.8093   11.5624   -7.1930 C   0  0  0  0  0  0  0  0  0  0  0  0
    0.4224   14.5657   -5.9816 C   0  0  0  0  0  0  0  0  0  0  0  0
   -5.6966   14.2423  -13.2612 N   0  0  0  0  0  0  0  0  0  0  0  0
   -4.9506   15.3153  -13.5405 C   0  0  0  0  0  0  0  0  0  0  0  0
   -3.9383   15.6899  -12.6782 C   0  0  0  0  0  0  0  0  0  0  0  0
   -3.7261   14.9536  -11.5366 C   0  0  0  0  0  0  0  0  0  0  0  0
   -4.5508   13.8769  -11.2437 C   0  0  0  0  0  0  0  0  0  0  0  0
   -2.6976   15.2614  -10.7139 N   0  0  0  0  0  0  0  0  0  0  0  0
   -6.0464   12.2223   -9.8797 H   0  0  0  0  0  0  0  0  0  0  0  0
   -8.7428   10.7712  -13.3891 H   0  0  0  0  0  0  0  0  0  0  0  0
   -7.2451    9.8233  -13.6811 H   0  0  0  0  0  0  0  0  0  0  0  0
   -6.9001   12.2325  -14.0803 H   0  0  0  0  0  0  0  0  0  0  0  0
   -8.6538    7.9802   -9.4320 H   0  0  0  0  0  0  0  0  0  0  0  0
   -8.0313    9.6067   -7.2544 H   0  0  0  0  0  0  0  0  0  0  0  0
   -6.7563   12.3160   -6.9245 H   0  0  0  0  0  0  0  0  0  0  0  0
   -4.5218   13.2977   -6.4798 H   0  0  0  0  0  0  0  0  0  0  0  0
   -2.6703    9.7625   -8.0472 H   0  0  0  0  0  0  0  0  0  0  0  0
   -4.9024    8.7852   -8.4759 H   0  0  0  0  0  0  0  0  0  0  0  0
   -2.4277   14.2118   -6.1857 H   0  0  0  0  0  0  0  0  0  0  0  0
   -0.6637   10.5754   -7.6065 H   0  0  0  0  0  0  0  0  0  0  0  0
    1.4809   14.2752   -6.0543 H   0  0  0  0  0  0  0  0  0  0  0  0
    0.2393   15.4453   -6.6162 H   0  0  0  0  0  0  0  0  0  0  0  0
    0.1804   14.8105   -4.9369 H   0  0  0  0  0  0  0  0  0  0  0  0
   -5.1384   15.8875  -14.4370 H   0  0  0  0  0  0  0  0  0  0  0  0
   -3.3221   16.5493  -12.8978 H   0  0  0  0  0  0  0  0  0  0  0  0
   -4.4255   13.3274  -10.3224 H   0  0  0  0  0  0  0  0  0  0  0  0
   -2.6901   14.6302   -9.9383 H   0  0  0  0  0  0  0  0  0  0  0  0
   -1.8356   15.1840  -11.2148 H   0  0  0  0  0  0  0  0  0  0  0  0
  1  2  1  0  0  0  0
  1  4  2  0  0  0  0
  1 11  1  0  0  0  0
  2  6  2  0  0  0  0
  3  4  1  0  0  0  0
  3  5  1  0  0  0  0
  5  6  1  0  0  0  0
  5  9  2  0  0  0  0
  6  7  1  0  0  0  0
  7  8  1  0  0  0  0
  7 10  2  3  0  0  0
  8  9  1  0  0  0  0
 10 12  1  0  0  0  0
 11 24  2  0  0  0  0
 11 28  1  0  0  0  0
 12 13  2  0  0  0  0
 12 17  1  0  0  0  0
 13 14  1  0  0  0  0
 14 15  2  0  0  0  0
 15 16  1  0  0  0  0
 15 18  1  0  0  0  0
 16 17  2  0  0  0  0
 18 19  2  0  0  0  0
 18 22  1  0  0  0  0
 19 20  1  0  0  0  0
 20 21  1  0  0  0  0
 20 23  1  0  0  0  0
 21 22  2  0  0  0  0
 24 25  1  0  0  0  0
 25 26  2  0  0  0  0
 26 27  1  0  0  0  0
 27 28  2  0  0  0  0
 27 29  1  0  0  0  0
  2 30  1  0  0  0  0
  3 31  1  0  0  0  0
  3 32  1  0  0  0  0
  4 33  1  0  0  0  0
  8 34  1  0  0  0  0
 10 35  1  0  0  0  0
 13 36  1  0  0  0  0
 14 37  1  0  0  0  0
 16 38  1  0  0  0  0
 17 39  1  0  0  0  0
 19 40  1  0  0  0  0
 22 41  1  0  0  0  0
 23 42  1  0  0  0  0
 23 43  1  0  0  0  0
 23 44  1  0  0  0  0
 25 45  1  0  0  0  0
 26 46  1  0  0  0  0
 28 47  1  0  0  0  0
 29 48  1  0  0  0  0
 29 49  1  0  0  0  0
M  END
> <Name>
23

> <IC50[uM]>
0.27

$$$$
23
  -OEChem-05192314333D
 Structure written by MMmdl.
 49 53  0     1  0  0  0  0  0999 V2000
   -6.3775   12.3296  -12.0018 C   0  0  3  0  0  0  0  0  0  0  0  0
   -6.5098   11.7629  -10.7403 C   0  0  0  0  0  0  0  0  0  0  0  0
   -7.7247   10.5660  -13.0266 C   0  0  0  0  0  0  0  0  0  0  0  0
   -6.9942   11.7487  -13.1193 C   0  0  0  0  0  0  0  0  0  0  0  0
   -7.8312   10.0057  -11.7538 C   0  0  0  0  0  0  0  0  0  0  0  0
   -7.2443   10.6021  -10.6070 C   0  0  0  0  0  0  0  0  0  0  0  0
   -7.6167    9.7449   -9.5151 C   0  0  0  0  0  0  0  0  0  0  0  0
   -8.2961    8.7374   -9.9786 N   0  0  0  0  0  0  0  0  0  0  0  0
   -8.4404    8.8724  -11.2937 N   0  0  0  0  0  0  0  0  0  0  0  0
   -7.3318    9.8946   -8.0252 C   0  0  0  0  0  0  0  0  0  0  0  0
   -5.5478   13.5112  -12.1572 C   0  0  0  0  0  0  0  0  0  0  0  0
   -5.9707   10.4870   -7.7351 C   0  0  0  0  0  0  0  0  0  0  0  0
   -5.8642   11.7588   -7.1694 C   0  0  0  0  0  0  0  0  0  0  0  0
   -4.6019   12.3141   -6.9186 C   0  0  0  0  0  0  0  0  0  0  0  0
   -3.4503   11.5963   -7.2357 C   0  0  0  0  0  0  0  0  0  0  0  0
   -3.5604   10.3220   -7.8000 C   0  0  0  0  0  0  0  0  0  0  0  0
   -4.8213    9.7719   -8.0443 C   0  0  0  0  0  0  0  0  0  0  0  0
   -2.0996   12.1710   -6.9757 C   0  0  0  0  0  0  0  0  0  0  0  0
   -1.7487   13.4240   -6.4767 C   0  0  0  0  0  0  0  0  0  0  0  0
   -0.4123   13.4674   -6.4260 N   0  0  0  0  0  0  0  0  0  0  0  0
    0.1713   12.3664   -6.8217 N   0  0  0  0  0  0  0  0  0  0  0  0
   -0.8093   11.5624   -7.1930 C   0  0  0  0  0  0  0  0  0  0  0  0
    0.4224   14.5657   -5.9816 C   0  0  0  0  0  0  0  0  0  0  0  0
   -5.6966   14.2423  -13.2612 N   0  0  0  0  0  0  0  0  0  0  0  0
   -4.9506   15.3153  -13.5405 C   0  0  0  0  0  0  0  0  0  0  0  0
   -3.9383   15.6899  -12.6782 C   0  0  0  0  0  0  0  0  0  0  0  0
   -3.7261   14.9536  -11.5366 C   0  0  0  0  0  0  0  0  0  0  0  0
   -4.5508   13.8769  -11.2437 C   0  0  0  0  0  0  0  0  0  0  0  0
   -2.6976   15.2614  -10.7139 N   0  0  0  0  0  0  0  0  0  0  0  0
   -7.2621   12.9592  -11.8254 H   0  0  0  0  0  0  0  0  0  0  0  0
   -6.0464   12.2223   -9.8797 H   0  0  0  0  0  0  0  0  0  0  0  0
   -8.1826   10.1089  -13.8914 H   0  0  0  0  0  0  0  0  0  0  0  0
   -6.9001   12.2325  -14.0803 H   0  0  0  0  0  0  0  0  0  0  0  0
   -8.6538    7.9802   -9.4320 H   0  0  0  0  0  0  0  0  0  0  0  0
   -8.0313    9.6067   -7.2544 H   0  0  0  0  0  0  0  0  0  0  0  0
   -6.7563   12.3160   -6.9245 H   0  0  0  0  0  0  0  0  0  0  0  0
   -4.5218   13.2977   -6.4798 H   0  0  0  0  0  0  0  0  0  0  0  0
   -2.6703    9.7625   -8.0472 H   0  0  0  0  0  0  0  0  0  0  0  0
   -4.9024    8.7852   -8.4759 H   0  0  0  0  0  0  0  0  0  0  0  0
   -2.4277   14.2118   -6.1857 H   0  0  0  0  0  0  0  0  0  0  0  0
   -0.6637   10.5754   -7.6065 H   0  0  0  0  0  0  0  0  0  0  0  0
    1.4809   14.2752   -6.0543 H   0  0  0  0  0  0  0  0  0  0  0  0
    0.2393   15.4453   -6.6162 H   0  0  0  0  0  0  0  0  0  0  0  0
    0.1804   14.8105   -4.9369 H   0  0  0  0  0  0  0  0  0  0  0  0
   -6.4038   13.9739  -13.9153 H   0  0  0  0  0  0  0  0  0  0  0  0
   -5.1384   15.8875  -14.4370 H   0  0  0  0  0  0  0  0  0  0  0  0
   -3.3221   16.5493  -12.8978 H   0  0  0  0  0  0  0  0  0  0  0  0
   -4.4255   13.3274  -10.3224 H   0  0  0  0  0  0  0  0  0  0  0  0
   -2.6419   14.6376   -9.9343 H   0  0  0  0  0  0  0  0  0  0  0  0
  1  2  1  0  0  0  0
  1  4  1  0  0  0  0
  1 11  1  0  0  0  0
  2  6  2  0  0  0  0
  3  4  2  0  0  0  0
  3  5  1  0  0  0  0
  5  6  1  0  0  0  0
  5  9  2  0  0  0  0
  6  7  1  0  0  0  0
  7  8  1  0  0  0  0
  7 10  2  3  0  0  0
  8  9  1  0  0  0  0
 10 12  1  0  0  0  0
 11 24  1  0  0  0  0
 11 28  2  0  0  0  0
 12 13  2  0  0  0  0
 12 17  1  0  0  0  0
 13 14  1  0  0  0  0
 14 15  2  0  0  0  0
 15 16  1  0  0  0  0
 15 18  1  0  0  0  0
 16 17  2  0  0  0  0
 18 19  2  0  0  0  0
 18 22  1  0  0  0  0
 19 20  1  0  0  0  0
 20 21  1  0  0  0  0
 20 23  1  0  0  0  0
 21 22  2  0  0  0  0
 24 25  1  0  0  0  0
 25 26  2  0  0  0  0
 26 27  1  0  0  0  0
 27 28  1  0  0  0  0
 27 29  2  0  0  0  0
  1 30  1  0  0  0  0
  2 31  1  0  0  0  0
  3 32  1  0  0  0  0
  4 33  1  0  0  0  0
  8 34  1  0  0  0  0
 10 35  1  0  0  0  0
 13 36  1  0  0  0  0
 14 37  1  0  0  0  0
 16 38  1  0  0  0  0
 17 39  1  0  0  0  0
 19 40  1  0  0  0  0
 22 41  1  0  0  0  0
 23 42  1  0  0  0  0
 23 43  1  0  0  0  0
 23 44  1  0  0  0  0
 24 45  1  0  0  0  0
 25 46  1  0  0  0  0
 26 47  1  0  0  0  0
 28 48  1  0  0  0  0
 29 49  1  0  0  0  0
M  END
> <Name>
23

> <IC50[uM]>
0.27

$$$$
23
  -OEChem-05192314333D
 Structure written by MMmdl.
 49 53  0     0  0  0  0  0  0999 V2000
   -6.3775   12.3296  -12.0018 C   0  0  0  0  0  0  0  0  0  0  0  0
   -6.5098   11.7629  -10.7403 C   0  0  0  0  0  0  0  0  0  0  0  0
   -7.7247   10.5660  -13.0266 C   0  0  0  0  0  0  0  0  0  0  0  0
   -6.9942   11.7487  -13.1193 C   0  0  0  0  0  0  0  0  0  0  0  0
   -7.8312   10.0057  -11.7538 C   0  0  0  0  0  0  0  0  0  0  0  0
   -7.2443   10.6021  -10.6070 C   0  0  0  0  0  0  0  0  0  0  0  0
   -7.6167    9.7449   -9.5151 C   0  0  0  0  0  0  0  0  0  0  0  0
   -8.2961    8.7374   -9.9786 N   0  0  0  0  0  0  0  0  0  0  0  0
   -8.4404    8.8724  -11.2937 N   0  0  0  0  0  0  0  0  0  0  0  0
   -7.3318    9.8946   -8.0252 C   0  0  0  0  0  0  0  0  0  0  0  0
   -5.5478   13.5112  -12.1572 C   0  0  0  0  0  0  0  0  0  0  0  0
   -5.9707   10.4870   -7.7351 C   0  0  0  0  0  0  0  0  0  0  0  0
   -5.8642   11.7588   -7.1694 C   0  0  0  0  0  0  0  0  0  0  0  0
   -4.6019   12.3141   -6.9186 C   0  0  0  0  0  0  0  0  0  0  0  0
   -3.4503   11.5963   -7.2357 C   0  0  0  0  0  0  0  0  0  0  0  0
   -3.5604   10.3220   -7.8000 C   0  0  0  0  0  0  0  0  0  0  0  0
   -4.8213    9.7719   -8.0443 C   0  0  0  0  0  0  0  0  0  0  0  0
   -2.0996   12.1710   -6.9757 C   0  0  0  0  0  0  0  0  0  0  0  0
   -1.7487   13.4240   -6.4767 C   0  0  0  0  0  0  0  0  0  0  0  0
   -0.4123   13.4674   -6.4260 N   0  0  0  0  0  0  0  0  0  0  0  0
    0.1713   12.3664   -6.8217 N   0  0  0  0  0  0  0  0  0  0  0  0
   -0.8093   11.5624   -7.1930 C   0  0  0  0  0  0  0  0  0  0  0  0
    0.4224   14.5657   -5.9816 C   0  0  0  0  0  0  0  0  0  0  0  0
   -5.6966   14.2423  -13.2612 N   0  0  0  0  0  0  0  0  0  0  0  0
   -4.9506   15.3153  -13.5405 C   0  0  0  0  0  0  0  0  0  0  0  0
   -3.9383   15.6899  -12.6782 C   0  0  0  0  0  0  0  0  0  0  0  0
   -3.7261   14.9536  -11.5366 C   0  0  0  0  0  0  0  0  0  0  0  0
   -4.5508   13.8769  -11.2437 C   0  0  0  0  0  0  0  0  0  0  0  0
   -2.6976   15.2614  -10.7139 N   0  0  0  0  0  0  0  0  0  0  0  0
   -6.0464   12.2223   -9.8797 H   0  0  0  0  0  0  0  0  0  0  0  0
   -8.7428   10.7712  -13.3891 H   0  0  0  0  0  0  0  0  0  0  0  0
   -7.2451    9.8233  -13.6811 H   0  0  0  0  0  0  0  0  0  0  0  0
   -6.9001   12.2325  -14.0803 H   0  0  0  0  0  0  0  0  0  0  0  0
   -8.6538    7.9802   -9.4320 H   0  0  0  0  0  0  0  0  0  0  0  0
   -8.0313    9.6067   -7.2544 H   0  0  0  0  0  0  0  0  0  0  0  0
   -6.7563   12.3160   -6.9245 H   0  0  0  0  0  0  0  0  0  0  0  0
   -4.5218   13.2977   -6.4798 H   0  0  0  0  0  0  0  0  0  0  0  0
   -2.6703    9.7625   -8.0472 H   0  0  0  0  0  0  0  0  0  0  0  0
   -4.9024    8.7852   -8.4759 H   0  0  0  0  0  0  0  0  0  0  0  0
   -2.4277   14.2118   -6.1857 H   0  0  0  0  0  0  0  0  0  0  0  0
   -0.6637   10.5754   -7.6065 H   0  0  0  0  0  0  0  0  0  0  0  0
    1.4809   14.2752   -6.0543 H   0  0  0  0  0  0  0  0  0  0  0  0
    0.2393   15.4453   -6.6162 H   0  0  0  0  0  0  0  0  0  0  0  0
    0.1804   14.8105   -4.9369 H   0  0  0  0  0  0  0  0  0  0  0  0
   -6.4038   13.9739  -13.9153 H   0  0  0  0  0  0  0  0  0  0  0  0
   -5.1384   15.8875  -14.4370 H   0  0  0  0  0  0  0  0  0  0  0  0
   -3.3221   16.5493  -12.8978 H   0  0  0  0  0  0  0  0  0  0  0  0
   -4.4255   13.3274  -10.3224 H   0  0  0  0  0  0  0  0  0  0  0  0
   -2.6419   14.6376   -9.9343 H   0  0  0  0  0  0  0  0  0  0  0  0
  1  2  1  0  0  0  0
  1  4  2  0  0  0  0
  1 11  1  0  0  0  0
  2  6  2  0  0  0  0
  3  4  1  0  0  0  0
  3  5  1  0  0  0  0
  5  6  1  0  0  0  0
  5  9  2  0  0  0  0
  6  7  1  0  0  0  0
  7  8  1  0  0  0  0
  7 10  2  3  0  0  0
  8  9  1  0  0  0  0
 10 12  1  0  0  0  0
 11 24  1  0  0  0  0
 11 28  2  0  0  0  0
 12 13  2  0  0  0  0
 12 17  1  0  0  0  0
 13 14  1  0  0  0  0
 14 15  2  0  0  0  0
 15 16  1  0  0  0  0
 15 18  1  0  0  0  0
 16 17  2  0  0  0  0
 18 19  2  0  0  0  0
 18 22  1  0  0  0  0
 19 20  1  0  0  0  0
 20 21  1  0  0  0  0
 20 23  1  0  0  0  0
 21 22  2  0  0  0  0
 24 25  1  0  0  0  0
 25 26  2  0  0  0  0
 26 27  1  0  0  0  0
 27 28  1  0  0  0  0
 27 29  2  0  0  0  0
  2 30  1  0  0  0  0
  3 31  1  0  0  0  0
  3 32  1  0  0  0  0
  4 33  1  0  0  0  0
  8 34  1  0  0  0  0
 10 35  1  0  0  0  0
 13 36  1  0  0  0  0
 14 37  1  0  0  0  0
 16 38  1  0  0  0  0
 17 39  1  0  0  0  0
 19 40  1  0  0  0  0
 22 41  1  0  0  0  0
 23 42  1  0  0  0  0
 23 43  1  0  0  0  0
 23 44  1  0  0  0  0
 24 45  1  0  0  0  0
 25 46  1  0  0  0  0
 26 47  1  0  0  0  0
 28 48  1  0  0  0  0
 29 49  1  0  0  0  0
M  END
> <Name>
23

> <IC50[uM]>
0.27

$$$$
23
  -OEChem-05192314333D
 Structure written by MMmdl.
 49 53  0     1  0  0  0  0  0999 V2000
   -6.3775   12.3296  -12.0018 C   0  0  0  0  0  0  0  0  0  0  0  0
   -6.5098   11.7629  -10.7403 C   0  0  0  0  0  0  0  0  0  0  0  0
   -7.7247   10.5660  -13.0266 C   0  0  0  0  0  0  0  0  0  0  0  0
   -6.9942   11.7487  -13.1193 C   0  0  0  0  0  0  0  0  0  0  0  0
   -7.8312   10.0057  -11.7538 C   0  0  0  0  0  0  0  0  0  0  0  0
   -7.2443   10.6021  -10.6070 C   0  0  0  0  0  0  0  0  0  0  0  0
   -7.6167    9.7449   -9.5151 C   0  0  0  0  0  0  0  0  0  0  0  0
   -8.2961    8.7374   -9.9786 N   0  0  0  0  0  0  0  0  0  0  0  0
   -8.4404    8.8724  -11.2937 N   0  0  0  0  0  0  0  0  0  0  0  0
   -7.3318    9.8946   -8.0252 C   0  0  0  0  0  0  0  0  0  0  0  0
   -5.5478   13.5112  -12.1572 C   0  0  0  0  0  0  0  0  0  0  0  0
   -5.9707   10.4870   -7.7351 C   0  0  0  0  0  0  0  0  0  0  0  0
   -5.8642   11.7588   -7.1694 C   0  0  0  0  0  0  0  0  0  0  0  0
   -4.6019   12.3141   -6.9186 C   0  0  0  0  0  0  0  0  0  0  0  0
   -3.4503   11.5963   -7.2357 C   0  0  0  0  0  0  0  0  0  0  0  0
   -3.5604   10.3220   -7.8000 C   0  0  0  0  0  0  0  0  0  0  0  0
   -4.8213    9.7719   -8.0443 C   0  0  0  0  0  0  0  0  0  0  0  0
   -2.0996   12.1710   -6.9757 C   0  0  0  0  0  0  0  0  0  0  0  0
   -1.7487   13.4240   -6.4767 C   0  0  0  0  0  0  0  0  0  0  0  0
   -0.4123   13.4674   -6.4260 N   0  0  3  0  0  0  0  0  0  0  0  0
    0.1713   12.3664   -6.8217 N   0  0  0  0  0  0  0  0  0  0  0  0
   -0.8093   11.5624   -7.1930 C   0  0  0  0  0  0  0  0  0  0  0  0
    0.4224   14.5657   -5.9816 C   0  0  0  0  0  0  0  0  0  0  0  0
   -5.6966   14.2423  -13.2612 N   0  0  0  0  0  0  0  0  0  0  0  0
   -4.9506   15.3153  -13.5405 C   0  0  0  0  0  0  0  0  0  0  0  0
   -3.9383   15.6899  -12.6782 C   0  0  0  0  0  0  0  0  0  0  0  0
   -3.7261   14.9536  -11.5366 C   0  0  0  0  0  0  0  0  0  0  0  0
   -4.5508   13.8769  -11.2437 C   0  0  0  0  0  0  0  0  0  0  0  0
   -2.6976   15.2614  -10.7139 N   0  0  0  0  0  0  0  0  0  0  0  0
   -6.0464   12.2223   -9.8797 H   0  0  0  0  0  0  0  0  0  0  0  0
   -8.1826   10.1089  -13.8914 H   0  0  0  0  0  0  0  0  0  0  0  0
   -6.9001   12.2325  -14.0803 H   0  0  0  0  0  0  0  0  0  0  0  0
   -8.6538    7.9802   -9.4320 H   0  0  0  0  0  0  0  0  0  0  0  0
   -8.0313    9.6067   -7.2544 H   0  0  0  0  0  0  0  0  0  0  0  0
   -6.7563   12.3160   -6.9245 H   0  0  0  0  0  0  0  0  0  0  0  0
   -4.5218   13.2977   -6.4798 H   0  0  0  0  0  0  0  0  0  0  0  0
   -2.6703    9.7625   -8.0472 H   0  0  0  0  0  0  0  0  0  0  0  0
   -4.9024    8.7852   -8.4759 H   0  0  0  0  0  0  0  0  0  0  0  0
   -2.1269   14.2144   -7.1418 H   0  0  0  0  0  0  0  0  0  0  0  0
   -2.1691   13.5602   -5.4694 H   0  0  0  0  0  0  0  0  0  0  0  0
   -0.6637   10.5754   -7.6065 H   0  0  0  0  0  0  0  0  0  0  0  0
    1.4809   14.2752   -6.0543 H   0  0  0  0  0  0  0  0  0  0  0  0
    0.2393   15.4453   -6.6162 H   0  0  0  0  0  0  0  0  0  0  0  0
    0.1804   14.8105   -4.9369 H   0  0  0  0  0  0  0  0  0  0  0  0
   -5.1384   15.8875  -14.4370 H   0  0  0  0  0  0  0  0  0  0  0  0
   -3.3221   16.5493  -12.8978 H   0  0  0  0  0  0  0  0  0  0  0  0
   -4.4255   13.3274  -10.3224 H   0  0  0  0  0  0  0  0  0  0  0  0
   -2.6901   14.6302   -9.9383 H   0  0  0  0  0  0  0  0  0  0  0  0
   -1.8356   15.1840  -11.2148 H   0  0  0  0  0  0  0  0  0  0  0  0
  1  2  2  0  0  0  0
  1  4  1  0  0  0  0
  1 11  1  0  0  0  0
  2  6  1  0  0  0  0
  3  4  2  0  0  0  0
  3  5  1  0  0  0  0
  5  6  1  0  0  0  0
  5  9  2  0  0  0  0
  6  7  2  0  0  0  0
  7  8  1  0  0  0  0
  7 10  1  0  0  0  0
  8  9  1  0  0  0  0
 10 12  2  0  0  0  0
 11 24  2  0  0  0  0
 11 28  1  0  0  0  0
 12 13  1  0  0  0  0
 12 17  1  0  0  0  0
 13 14  2  0  0  0  0
 14 15  1  0  0  0  0
 15 16  1  0  0  0  0
 15 18  2  0  0  0  0
 16 17  2  0  0  0  0
 18 19  1  0  0  0  0
 18 22  1  0  0  0  0
 19 20  1  0  0  0  0
 20 21  1  0  0  0  0
 20 23  1  0  0  0  0
 21 22  2  0  0  0  0
 24 25  1  0  0  0  0
 25 26  2  0  0  0  0
 26 27  1  0  0  0  0
 27 28  2  0  0  0  0
 27 29  1  0  0  0  0
  2 30  1  0  0  0  0
  3 31  1  0  0  0  0
  4 32  1  0  0  0  0
  8 33  1  0  0  0  0
 10 34  1  0  0  0  0
 13 35  1  0  0  0  0
 14 36  1  0  0  0  0
 16 37  1  0  0  0  0
 17 38  1  0  0  0  0
 19 39  1  0  0  0  0
 19 40  1  0  0  0  0
 22 41  1  0  0  0  0
 23 42  1  0  0  0  0
 23 43  1  0  0  0  0
 23 44  1  0  0  0  0
 25 45  1  0  0  0  0
 26 46  1  0  0  0  0
 28 47  1  0  0  0  0
 29 48  1  0  0  0  0
 29 49  1  0  0  0  0
M  END
> <Name>
23

> <IC50[uM]>
0.27

$$$$
23
  -OEChem-05192314333D
 Structure written by MMmdl.
 49 53  0     1  0  0  0  0  0999 V2000
   -6.3775   12.3296  -12.0018 C   0  0  0  0  0  0  0  0  0  0  0  0
   -6.5098   11.7629  -10.7403 C   0  0  0  0  0  0  0  0  0  0  0  0
   -7.7247   10.5660  -13.0266 C   0  0  0  0  0  0  0  0  0  0  0  0
   -6.9942   11.7487  -13.1193 C   0  0  0  0  0  0  0  0  0  0  0  0
   -7.8312   10.0057  -11.7538 C   0  0  0  0  0  0  0  0  0  0  0  0
   -7.2443   10.6021  -10.6070 C   0  0  0  0  0  0  0  0  0  0  0  0
   -7.6167    9.7449   -9.5151 C   0  0  0  0  0  0  0  0  0  0  0  0
   -8.2961    8.7374   -9.9786 N   0  0  0  0  0  0  0  0  0  0  0  0
   -8.4404    8.8724  -11.2937 N   0  0  0  0  0  0  0  0  0  0  0  0
   -7.3318    9.8946   -8.0252 C   0  0  0  0  0  0  0  0  0  0  0  0
   -5.5478   13.5112  -12.1572 C   0  0  0  0  0  0  0  0  0  0  0  0
   -5.9707   10.4870   -7.7351 C   0  0  0  0  0  0  0  0  0  0  0  0
   -5.8642   11.7588   -7.1694 C   0  0  0  0  0  0  0  0  0  0  0  0
   -4.6019   12.3141   -6.9186 C   0  0  0  0  0  0  0  0  0  0  0  0
   -3.4503   11.5963   -7.2357 C   0  0  0  0  0  0  0  0  0  0  0  0
   -3.5604   10.3220   -7.8000 C   0  0  0  0  0  0  0  0  0  0  0  0
   -4.8213    9.7719   -8.0443 C   0  0  0  0  0  0  0  0  0  0  0  0
   -2.0996   12.1710   -6.9757 C   0  0  0  0  0  0  0  0  0  0  0  0
   -1.7487   13.4240   -6.4767 C   0  0  0  0  0  0  0  0  0  0  0  0
   -0.4123   13.4674   -6.4260 N   0  0  3  0  0  0  0  0  0  0  0  0
    0.1713   12.3664   -6.8217 N   0  0  0  0  0  0  0  0  0  0  0  0
   -0.8093   11.5624   -7.1930 C   0  0  0  0  0  0  0  0  0  0  0  0
    0.4224   14.5657   -5.9816 C   0  0  0  0  0  0  0  0  0  0  0  0
   -5.6966   14.2423  -13.2612 N   0  0  0  0  0  0  0  0  0  0  0  0
   -4.9506   15.3153  -13.5405 C   0  0  0  0  0  0  0  0  0  0  0  0
   -3.9383   15.6899  -12.6782 C   0  0  0  0  0  0  0  0  0  0  0  0
   -3.7261   14.9536  -11.5366 C   0  0  0  0  0  0  0  0  0  0  0  0
   -4.5508   13.8769  -11.2437 C   0  0  0  0  0  0  0  0  0  0  0  0
   -2.6976   15.2614  -10.7139 N   0  0  0  0  0  0  0  0  0  0  0  0
   -6.0464   12.2223   -9.8797 H   0  0  0  0  0  0  0  0  0  0  0  0
   -8.1826   10.1089  -13.8914 H   0  0  0  0  0  0  0  0  0  0  0  0
   -6.9001   12.2325  -14.0803 H   0  0  0  0  0  0  0  0  0  0  0  0
   -8.9338    8.2246  -11.8742 H   0  0  0  0  0  0  0  0  0  0  0  0
   -8.0313    9.6067   -7.2544 H   0  0  0  0  0  0  0  0  0  0  0  0
   -6.7563   12.3160   -6.9245 H   0  0  0  0  0  0  0  0  0  0  0  0
   -4.5218   13.2977   -6.4798 H   0  0  0  0  0  0  0  0  0  0  0  0
   -2.6703    9.7625   -8.0472 H   0  0  0  0  0  0  0  0  0  0  0  0
   -4.9024    8.7852   -8.4759 H   0  0  0  0  0  0  0  0  0  0  0  0
   -2.1269   14.2144   -7.1418 H   0  0  0  0  0  0  0  0  0  0  0  0
   -2.1691   13.5602   -5.4694 H   0  0  0  0  0  0  0  0  0  0  0  0
   -0.6637   10.5754   -7.6065 H   0  0  0  0  0  0  0  0  0  0  0  0
    1.4809   14.2752   -6.0543 H   0  0  0  0  0  0  0  0  0  0  0  0
    0.2393   15.4453   -6.6162 H   0  0  0  0  0  0  0  0  0  0  0  0
    0.1804   14.8105   -4.9369 H   0  0  0  0  0  0  0  0  0  0  0  0
   -5.1384   15.8875  -14.4370 H   0  0  0  0  0  0  0  0  0  0  0  0
   -3.3221   16.5493  -12.8978 H   0  0  0  0  0  0  0  0  0  0  0  0
   -4.4255   13.3274  -10.3224 H   0  0  0  0  0  0  0  0  0  0  0  0
   -2.6901   14.6302   -9.9383 H   0  0  0  0  0  0  0  0  0  0  0  0
   -1.8356   15.1840  -11.2148 H   0  0  0  0  0  0  0  0  0  0  0  0
  1  2  2  0  0  0  0
  1  4  1  0  0  0  0
  1 11  1  0  0  0  0
  2  6  1  0  0  0  0
  3  4  2  0  0  0  0
  3  5  1  0  0  0  0
  5  6  2  0  0  0  0
  5  9  1  0  0  0  0
  6  7  1  0  0  0  0
  7  8  2  0  0  0  0
  7 10  1  0  0  0  0
  8  9  1  0  0  0  0
 10 12  2  0  0  0  0
 11 24  2  0  0  0  0
 11 28  1  0  0  0  0
 12 13  1  0  0  0  0
 12 17  1  0  0  0  0
 13 14  2  0  0  0  0
 14 15  1  0  0  0  0
 15 16  1  0  0  0  0
 15 18  2  0  0  0  0
 16 17  2  0  0  0  0
 18 19  1  0  0  0  0
 18 22  1  0  0  0  0
 19 20  1  0  0  0  0
 20 21  1  0  0  0  0
 20 23  1  0  0  0  0
 21 22  2  0  0  0  0
 24 25  1  0  0  0  0
 25 26  2  0  0  0  0
 26 27  1  0  0  0  0
 27 28  2  0  0  0  0
 27 29  1  0  0  0  0
  2 30  1  0  0  0  0
  3 31  1  0  0  0  0
  4 32  1  0  0  0  0
  9 33  1  0  0  0  0
 10 34  1  0  0  0  0
 13 35  1  0  0  0  0
 14 36  1  0  0  0  0
 16 37  1  0  0  0  0
 17 38  1  0  0  0  0
 19 39  1  0  0  0  0
 19 40  1  0  0  0  0
 22 41  1  0  0  0  0
 23 42  1  0  0  0  0
 23 43  1  0  0  0  0
 23 44  1  0  0  0  0
 25 45  1  0  0  0  0
 26 46  1  0  0  0  0
 28 47  1  0  0  0  0
 29 48  1  0  0  0  0
 29 49  1  0  0  0  0
M  END
> <Name>
23

> <IC50[uM]>
0.27

$$$$
23
  -OEChem-05192314333D
 Structure written by MMmdl.
 49 53  0     1  0  0  0  0  0999 V2000
   -6.3775   12.3296  -12.0018 C   0  0  0  0  0  0  0  0  0  0  0  0
   -6.5098   11.7629  -10.7403 C   0  0  0  0  0  0  0  0  0  0  0  0
   -7.7247   10.5660  -13.0266 C   0  0  0  0  0  0  0  0  0  0  0  0
   -6.9942   11.7487  -13.1193 C   0  0  0  0  0  0  0  0  0  0  0  0
   -7.8312   10.0057  -11.7538 C   0  0  0  0  0  0  0  0  0  0  0  0
   -7.2443   10.6021  -10.6070 C   0  0  0  0  0  0  0  0  0  0  0  0
   -7.6167    9.7449   -9.5151 C   0  0  0  0  0  0  0  0  0  0  0  0
   -8.2961    8.7374   -9.9786 N   0  0  0  0  0  0  0  0  0  0  0  0
   -8.4404    8.8724  -11.2937 N   0  0  0  0  0  0  0  0  0  0  0  0
   -7.3318    9.8946   -8.0252 C   0  0  0  0  0  0  0  0  0  0  0  0
   -5.5478   13.5112  -12.1572 C   0  0  0  0  0  0  0  0  0  0  0  0
   -5.9707   10.4870   -7.7351 C   0  0  0  0  0  0  0  0  0  0  0  0
   -5.8642   11.7588   -7.1694 C   0  0  0  0  0  0  0  0  0  0  0  0
   -4.6019   12.3141   -6.9186 C   0  0  0  0  0  0  0  0  0  0  0  0
   -3.4503   11.5963   -7.2357 C   0  0  0  0  0  0  0  0  0  0  0  0
   -3.5604   10.3220   -7.8000 C   0  0  0  0  0  0  0  0  0  0  0  0
   -4.8213    9.7719   -8.0443 C   0  0  0  0  0  0  0  0  0  0  0  0
   -2.0996   12.1710   -6.9757 C   0  0  0  0  0  0  0  0  0  0  0  0
   -1.7487   13.4240   -6.4767 C   0  0  0  0  0  0  0  0  0  0  0  0
   -0.4123   13.4674   -6.4260 N   0  0  3  0  0  0  0  0  0  0  0  0
    0.1713   12.3664   -6.8217 N   0  0  0  0  0  0  0  0  0  0  0  0
   -0.8093   11.5624   -7.1930 C   0  0  0  0  0  0  0  0  0  0  0  0
    0.4224   14.5657   -5.9816 C   0  0  0  0  0  0  0  0  0  0  0  0
   -5.6966   14.2423  -13.2612 N   0  0  0  0  0  0  0  0  0  0  0  0
   -4.9506   15.3153  -13.5405 C   0  0  0  0  0  0  0  0  0  0  0  0
   -3.9383   15.6899  -12.6782 C   0  0  0  0  0  0  0  0  0  0  0  0
   -3.7261   14.9536  -11.5366 C   0  0  0  0  0  0  0  0  0  0  0  0
   -4.5508   13.8769  -11.2437 C   0  0  0  0  0  0  0  0  0  0  0  0
   -2.6976   15.2614  -10.7139 N   0  0  0  0  0  0  0  0  0  0  0  0
   -6.0464   12.2223   -9.8797 H   0  0  0  0  0  0  0  0  0  0  0  0
   -8.1826   10.1089  -13.8914 H   0  0  0  0  0  0  0  0  0  0  0  0
   -6.9001   12.2325  -14.0803 H   0  0  0  0  0  0  0  0  0  0  0  0
   -8.6538    7.9802   -9.4320 H   0  0  0  0  0  0  0  0  0  0  0  0
   -8.0313    9.6067   -7.2544 H   0  0  0  0  0  0  0  0  0  0  0  0
   -6.7563   12.3160   -6.9245 H   0  0  0  0  0  0  0  0  0  0  0  0
   -4.5218   13.2977   -6.4798 H   0  0  0  0  0  0  0  0  0  0  0  0
   -2.6703    9.7625   -8.0472 H   0  0  0  0  0  0  0  0  0  0  0  0
   -4.9024    8.7852   -8.4759 H   0  0  0  0  0  0  0  0  0  0  0  0
   -2.1269   14.2144   -7.1418 H   0  0  0  0  0  0  0  0  0  0  0  0
   -2.1691   13.5602   -5.4694 H   0  0  0  0  0  0  0  0  0  0  0  0
   -0.6637   10.5754   -7.6065 H   0  0  0  0  0  0  0  0  0  0  0  0
    1.4809   14.2752   -6.0543 H   0  0  0  0  0  0  0  0  0  0  0  0
    0.2393   15.4453   -6.6162 H   0  0  0  0  0  0  0  0  0  0  0  0
    0.1804   14.8105   -4.9369 H   0  0  0  0  0  0  0  0  0  0  0  0
   -6.4038   13.9739  -13.9153 H   0  0  0  0  0  0  0  0  0  0  0  0
   -5.1384   15.8875  -14.4370 H   0  0  0  0  0  0  0  0  0  0  0  0
   -3.3221   16.5493  -12.8978 H   0  0  0  0  0  0  0  0  0  0  0  0
   -4.4255   13.3274  -10.3224 H   0  0  0  0  0  0  0  0  0  0  0  0
   -2.6419   14.6376   -9.9343 H   0  0  0  0  0  0  0  0  0  0  0  0
  1  2  2  0  0  0  0
  1  4  1  0  0  0  0
  1 11  1  0  0  0  0
  2  6  1  0  0  0  0
  3  4  2  0  0  0  0
  3  5  1  0  0  0  0
  5  6  1  0  0  0  0
  5  9  2  0  0  0  0
  6  7  2  0  0  0  0
  7  8  1  0  0  0  0
  7 10  1  0  0  0  0
  8  9  1  0  0  0  0
 10 12  2  0  0  0  0
 11 24  1  0  0  0  0
 11 28  2  0  0  0  0
 12 13  1  0  0  0  0
 12 17  1  0  0  0  0
 13 14  2  0  0  0  0
 14 15  1  0  0  0  0
 15 16  1  0  0  0  0
 15 18  2  0  0  0  0
 16 17  2  0  0  0  0
 18 19  1  0  0  0  0
 18 22  1  0  0  0  0
 19 20  1  0  0  0  0
 20 21  1  0  0  0  0
 20 23  1  0  0  0  0
 21 22  2  0  0  0  0
 24 25  1  0  0  0  0
 25 26  2  0  0  0  0
 26 27  1  0  0  0  0
 27 28  1  0  0  0  0
 27 29  2  0  0  0  0
  2 30  1  0  0  0  0
  3 31  1  0  0  0  0
  4 32  1  0  0  0  0
  8 33  1  0  0  0  0
 10 34  1  0  0  0  0
 13 35  1  0  0  0  0
 14 36  1  0  0  0  0
 16 37  1  0  0  0  0
 17 38  1  0  0  0  0
 19 39  1  0  0  0  0
 19 40  1  0  0  0  0
 22 41  1  0  0  0  0
 23 42  1  0  0  0  0
 23 43  1  0  0  0  0
 23 44  1  0  0  0  0
 24 45  1  0  0  0  0
 25 46  1  0  0  0  0
 26 47  1  0  0  0  0
 28 48  1  0  0  0  0
 29 49  1  0  0  0  0
M  END
> <Name>
23

> <IC50[uM]>
0.27

$$$$
23
  -OEChem-05192314333D
 Structure written by MMmdl.
 49 53  0     1  0  0  0  0  0999 V2000
   -6.3775   12.3296  -12.0018 C   0  0  0  0  0  0  0  0  0  0  0  0
   -6.5098   11.7629  -10.7403 C   0  0  0  0  0  0  0  0  0  0  0  0
   -7.7247   10.5660  -13.0266 C   0  0  0  0  0  0  0  0  0  0  0  0
   -6.9942   11.7487  -13.1193 C   0  0  0  0  0  0  0  0  0  0  0  0
   -7.8312   10.0057  -11.7538 C   0  0  0  0  0  0  0  0  0  0  0  0
   -7.2443   10.6021  -10.6070 C   0  0  0  0  0  0  0  0  0  0  0  0
   -7.6167    9.7449   -9.5151 C   0  0  0  0  0  0  0  0  0  0  0  0
   -8.2961    8.7374   -9.9786 N   0  0  0  0  0  0  0  0  0  0  0  0
   -8.4404    8.8724  -11.2937 N   0  0  0  0  0  0  0  0  0  0  0  0
   -7.3318    9.8946   -8.0252 C   0  0  0  0  0  0  0  0  0  0  0  0
   -5.5478   13.5112  -12.1572 C   0  0  0  0  0  0  0  0  0  0  0  0
   -5.9707   10.4870   -7.7351 C   0  0  0  0  0  0  0  0  0  0  0  0
   -5.8642   11.7588   -7.1694 C   0  0  0  0  0  0  0  0  0  0  0  0
   -4.6019   12.3141   -6.9186 C   0  0  0  0  0  0  0  0  0  0  0  0
   -3.4503   11.5963   -7.2357 C   0  0  0  0  0  0  0  0  0  0  0  0
   -3.5604   10.3220   -7.8000 C   0  0  0  0  0  0  0  0  0  0  0  0
   -4.8213    9.7719   -8.0443 C   0  0  0  0  0  0  0  0  0  0  0  0
   -2.0996   12.1710   -6.9757 C   0  0  0  0  0  0  0  0  0  0  0  0
   -1.7487   13.4240   -6.4767 C   0  0  0  0  0  0  0  0  0  0  0  0
   -0.4123   13.4674   -6.4260 N   0  0  3  0  0  0  0  0  0  0  0  0
    0.1713   12.3664   -6.8217 N   0  0  0  0  0  0  0  0  0  0  0  0
   -0.8093   11.5624   -7.1930 C   0  0  0  0  0  0  0  0  0  0  0  0
    0.4224   14.5657   -5.9816 C   0  0  0  0  0  0  0  0  0  0  0  0
   -5.6966   14.2423  -13.2612 N   0  0  0  0  0  0  0  0  0  0  0  0
   -4.9506   15.3153  -13.5405 C   0  0  0  0  0  0  0  0  0  0  0  0
   -3.9383   15.6899  -12.6782 C   0  0  0  0  0  0  0  0  0  0  0  0
   -3.7261   14.9536  -11.5366 C   0  0  0  0  0  0  0  0  0  0  0  0
   -4.5508   13.8769  -11.2437 C   0  0  0  0  0  0  0  0  0  0  0  0
   -2.6976   15.2614  -10.7139 N   0  0  0  0  0  0  0  0  0  0  0  0
   -6.0464   12.2223   -9.8797 H   0  0  0  0  0  0  0  0  0  0  0  0
   -8.1826   10.1089  -13.8914 H   0  0  0  0  0  0  0  0  0  0  0  0
   -6.9001   12.2325  -14.0803 H   0  0  0  0  0  0  0  0  0  0  0  0
   -8.9338    8.2246  -11.8742 H   0  0  0  0  0  0  0  0  0  0  0  0
   -8.0313    9.6067   -7.2544 H   0  0  0  0  0  0  0  0  0  0  0  0
   -6.7563   12.3160   -6.9245 H   0  0  0  0  0  0  0  0  0  0  0  0
   -4.5218   13.2977   -6.4798 H   0  0  0  0  0  0  0  0  0  0  0  0
   -2.6703    9.7625   -8.0472 H   0  0  0  0  0  0  0  0  0  0  0  0
   -4.9024    8.7852   -8.4759 H   0  0  0  0  0  0  0  0  0  0  0  0
   -2.1269   14.2144   -7.1418 H   0  0  0  0  0  0  0  0  0  0  0  0
   -2.1691   13.5602   -5.4694 H   0  0  0  0  0  0  0  0  0  0  0  0
   -0.6637   10.5754   -7.6065 H   0  0  0  0  0  0  0  0  0  0  0  0
    1.4809   14.2752   -6.0543 H   0  0  0  0  0  0  0  0  0  0  0  0
    0.2393   15.4453   -6.6162 H   0  0  0  0  0  0  0  0  0  0  0  0
    0.1804   14.8105   -4.9369 H   0  0  0  0  0  0  0  0  0  0  0  0
   -6.4038   13.9739  -13.9153 H   0  0  0  0  0  0  0  0  0  0  0  0
   -5.1384   15.8875  -14.4370 H   0  0  0  0  0  0  0  0  0  0  0  0
   -3.3221   16.5493  -12.8978 H   0  0  0  0  0  0  0  0  0  0  0  0
   -4.4255   13.3274  -10.3224 H   0  0  0  0  0  0  0  0  0  0  0  0
   -2.6419   14.6376   -9.9343 H   0  0  0  0  0  0  0  0  0  0  0  0
  1  2  2  0  0  0  0
  1  4  1  0  0  0  0
  1 11  1  0  0  0  0
  2  6  1  0  0  0  0
  3  4  2  0  0  0  0
  3  5  1  0  0  0  0
  5  6  2  0  0  0  0
  5  9  1  0  0  0  0
  6  7  1  0  0  0  0
  7  8  2  0  0  0  0
  7 10  1  0  0  0  0
  8  9  1  0  0  0  0
 10 12  2  0  0  0  0
 11 24  1  0  0  0  0
 11 28  2  0  0  0  0
 12 13  1  0  0  0  0
 12 17  1  0  0  0  0
 13 14  2  0  0  0  0
 14 15  1  0  0  0  0
 15 16  1  0  0  0  0
 15 18  2  0  0  0  0
 16 17  2  0  0  0  0
 18 19  1  0  0  0  0
 18 22  1  0  0  0  0
 19 20  1  0  0  0  0
 20 21  1  0  0  0  0
 20 23  1  0  0  0  0
 21 22  2  0  0  0  0
 24 25  1  0  0  0  0
 25 26  2  0  0  0  0
 26 27  1  0  0  0  0
 27 28  1  0  0  0  0
 27 29  2  0  0  0  0
  2 30  1  0  0  0  0
  3 31  1  0  0  0  0
  4 32  1  0  0  0  0
  9 33  1  0  0  0  0
 10 34  1  0  0  0  0
 13 35  1  0  0  0  0
 14 36  1  0  0  0  0
 16 37  1  0  0  0  0
 17 38  1  0  0  0  0
 19 39  1  0  0  0  0
 19 40  1  0  0  0  0
 22 41  1  0  0  0  0
 23 42  1  0  0  0  0
 23 43  1  0  0  0  0
 23 44  1  0  0  0  0
 24 45  1  0  0  0  0
 25 46  1  0  0  0  0
 26 47  1  0  0  0  0
 28 48  1  0  0  0  0
 29 49  1  0  0  0  0
M  END
> <Name>
23

> <IC50[uM]>
0.27

$$$$
23
  -OEChem-05192314333D
 Structure written by MMmdl.
 49 53  0     0  0  0  0  0  0999 V2000
   -6.3775   12.3296  -12.0018 C   0  0  0  0  0  0  0  0  0  0  0  0
   -6.5098   11.7629  -10.7403 C   0  0  0  0  0  0  0  0  0  0  0  0
   -7.7247   10.5660  -13.0266 C   0  0  0  0  0  0  0  0  0  0  0  0
   -6.9942   11.7487  -13.1193 C   0  0  0  0  0  0  0  0  0  0  0  0
   -7.8312   10.0057  -11.7538 C   0  0  0  0  0  0  0  0  0  0  0  0
   -7.2443   10.6021  -10.6070 C   0  0  0  0  0  0  0  0  0  0  0  0
   -7.6167    9.7449   -9.5151 C   0  0  0  0  0  0  0  0  0  0  0  0
   -8.2961    8.7374   -9.9786 N   0  0  0  0  0  0  0  0  0  0  0  0
   -8.4404    8.8724  -11.2937 N   0  0  0  0  0  0  0  0  0  0  0  0
   -7.3318    9.8946   -8.0252 C   0  0  0  0  0  0  0  0  0  0  0  0
   -5.5478   13.5112  -12.1572 C   0  0  0  0  0  0  0  0  0  0  0  0
   -5.9707   10.4870   -7.7351 C   0  0  0  0  0  0  0  0  0  0  0  0
   -5.8642   11.7588   -7.1694 C   0  0  0  0  0  0  0  0  0  0  0  0
   -4.6019   12.3141   -6.9186 C   0  0  0  0  0  0  0  0  0  0  0  0
   -3.4503   11.5963   -7.2357 C   0  0  0  0  0  0  0  0  0  0  0  0
   -3.5604   10.3220   -7.8000 C   0  0  0  0  0  0  0  0  0  0  0  0
   -4.8213    9.7719   -8.0443 C   0  0  0  0  0  0  0  0  0  0  0  0
   -2.0996   12.1710   -6.9757 C   0  0  0  0  0  0  0  0  0  0  0  0
   -1.7487   13.4240   -6.4767 C   0  0  0  0  0  0  0  0  0  0  0  0
   -0.4123   13.4674   -6.4260 N   0  0  0  0  0  0  0  0  0  0  0  0
    0.1713   12.3664   -6.8217 N   0  0  0  0  0  0  0  0  0  0  0  0
   -0.8093   11.5624   -7.1930 C   0  0  0  0  0  0  0  0  0  0  0  0
    0.4224   14.5657   -5.9816 C   0  0  0  0  0  0  0  0  0  0  0  0
   -5.6966   14.2423  -13.2612 N   0  0  0  0  0  0  0  0  0  0  0  0
   -4.9506   15.3153  -13.5405 C   0  0  0  0  0  0  0  0  0  0  0  0
   -3.9383   15.6899  -12.6782 C   0  0  0  0  0  0  0  0  0  0  0  0
   -3.7261   14.9536  -11.5366 C   0  0  0  0  0  0  0  0  0  0  0  0
   -4.5508   13.8769  -11.2437 C   0  0  0  0  0  0  0  0  0  0  0  0
   -2.6976   15.2614  -10.7139 N   0  0  0  0  0  0  0  0  0  0  0  0
   -6.0464   12.2223   -9.8797 H   0  0  0  0  0  0  0  0  0  0  0  0
   -8.1826   10.1089  -13.8914 H   0  0  0  0  0  0  0  0  0  0  0  0
   -6.9001   12.2325  -14.0803 H   0  0  0  0  0  0  0  0  0  0  0  0
   -8.6538    7.9802   -9.4320 H   0  0  0  0  0  0  0  0  0  0  0  0
   -8.0989   10.5499   -7.5868 H   0  0  0  0  0  0  0  0  0  0  0  0
   -7.3874    8.9007   -7.5571 H   0  0  0  0  0  0  0  0  0  0  0  0
   -6.7563   12.3160   -6.9245 H   0  0  0  0  0  0  0  0  0  0  0  0
   -4.5218   13.2977   -6.4798 H   0  0  0  0  0  0  0  0  0  0  0  0
   -2.6703    9.7625   -8.0472 H   0  0  0  0  0  0  0  0  0  0  0  0
   -4.9024    8.7852   -8.4759 H   0  0  0  0  0  0  0  0  0  0  0  0
   -2.4277   14.2118   -6.1857 H   0  0  0  0  0  0  0  0  0  0  0  0
   -0.6637   10.5754   -7.6065 H   0  0  0  0  0  0  0  0  0  0  0  0
    1.4809   14.2752   -6.0543 H   0  0  0  0  0  0  0  0  0  0  0  0
    0.2393   15.4453   -6.6162 H   0  0  0  0  0  0  0  0  0  0  0  0
    0.1804   14.8105   -4.9369 H   0  0  0  0  0  0  0  0  0  0  0  0
   -5.1384   15.8875  -14.4370 H   0  0  0  0  0  0  0  0  0  0  0  0
   -3.0010   15.6690  -13.2536 H   0  0  0  0  0  0  0  0  0  0  0  0
   -4.1509   16.7215  -12.3610 H   0  0  0  0  0  0  0  0  0  0  0  0
   -4.4255   13.3274  -10.3224 H   0  0  0  0  0  0  0  0  0  0  0  0
   -2.6419   14.6376   -9.9343 H   0  0  0  0  0  0  0  0  0  0  0  0
  1  2  2  0  0  0  0
  1  4  1  0  0  0  0
  1 11  1  0  0  0  0
  2  6  1  0  0  0  0
  3  4  2  0  0  0  0
  3  5  1  0  0  0  0
  5  6  1  0  0  0  0
  5  9  2  0  0  0  0
  6  7  2  0  0  0  0
  7  8  1  0  0  0  0
  7 10  1  0  0  0  0
  8  9  1  0  0  0  0
 10 12  1  0  0  0  0
 11 24  1  0  0  0  0
 11 28  2  0  0  0  0
 12 13  2  0  0  0  0
 12 17  1  0  0  0  0
 13 14  1  0  0  0  0
 14 15  2  0  0  0  0
 15 16  1  0  0  0  0
 15 18  1  0  0  0  0
 16 17  2  0  0  0  0
 18 19  2  0  0  0  0
 18 22  1  0  0  0  0
 19 20  1  0  0  0  0
 20 21  1  0  0  0  0
 20 23  1  0  0  0  0
 21 22  2  0  0  0  0
 24 25  2  0  0  0  0
 25 26  1  0  0  0  0
 26 27  1  0  0  0  0
 27 28  1  0  0  0  0
 27 29  2  0  0  0  0
  2 30  1  0  0  0  0
  3 31  1  0  0  0  0
  4 32  1  0  0  0  0
  8 33  1  0  0  0  0
 10 34  1  0  0  0  0
 10 35  1  0  0  0  0
 13 36  1  0  0  0  0
 14 37  1  0  0  0  0
 16 38  1  0  0  0  0
 17 39  1  0  0  0  0
 19 40  1  0  0  0  0
 22 41  1  0  0  0  0
 23 42  1  0  0  0  0
 23 43  1  0  0  0  0
 23 44  1  0  0  0  0
 25 45  1  0  0  0  0
 26 46  1  0  0  0  0
 26 47  1  0  0  0  0
 28 48  1  0  0  0  0
 29 49  1  0  0  0  0
M  END
> <Name>
23

> <IC50[uM]>
0.27

$$$$
23
  -OEChem-05192314333D
 Structure written by MMmdl.
 49 53  0     0  0  0  0  0  0999 V2000
   -6.3775   12.3296  -12.0018 C   0  0  0  0  0  0  0  0  0  0  0  0
   -6.5098   11.7629  -10.7403 C   0  0  0  0  0  0  0  0  0  0  0  0
   -7.7247   10.5660  -13.0266 C   0  0  0  0  0  0  0  0  0  0  0  0
   -6.9942   11.7487  -13.1193 C   0  0  0  0  0  0  0  0  0  0  0  0
   -7.8312   10.0057  -11.7538 C   0  0  0  0  0  0  0  0  0  0  0  0
   -7.2443   10.6021  -10.6070 C   0  0  0  0  0  0  0  0  0  0  0  0
   -7.6167    9.7449   -9.5151 C   0  0  0  0  0  0  0  0  0  0  0  0
   -8.2961    8.7374   -9.9786 N   0  0  0  0  0  0  0  0  0  0  0  0
   -8.4404    8.8724  -11.2937 N   0  0  0  0  0  0  0  0  0  0  0  0
   -7.3318    9.8946   -8.0252 C   0  0  0  0  0  0  0  0  0  0  0  0
   -5.5478   13.5112  -12.1572 C   0  0  0  0  0  0  0  0  0  0  0  0
   -5.9707   10.4870   -7.7351 C   0  0  0  0  0  0  0  0  0  0  0  0
   -5.8642   11.7588   -7.1694 C   0  0  0  0  0  0  0  0  0  0  0  0
   -4.6019   12.3141   -6.9186 C   0  0  0  0  0  0  0  0  0  0  0  0
   -3.4503   11.5963   -7.2357 C   0  0  0  0  0  0  0  0  0  0  0  0
   -3.5604   10.3220   -7.8000 C   0  0  0  0  0  0  0  0  0  0  0  0
   -4.8213    9.7719   -8.0443 C   0  0  0  0  0  0  0  0  0  0  0  0
   -2.0996   12.1710   -6.9757 C   0  0  0  0  0  0  0  0  0  0  0  0
   -1.7487   13.4240   -6.4767 C   0  0  0  0  0  0  0  0  0  0  0  0
   -0.4123   13.4674   -6.4260 N   0  0  0  0  0  0  0  0  0  0  0  0
    0.1713   12.3664   -6.8217 N   0  0  0  0  0  0  0  0  0  0  0  0
   -0.8093   11.5624   -7.1930 C   0  0  0  0  0  0  0  0  0  0  0  0
    0.4224   14.5657   -5.9816 C   0  0  0  0  0  0  0  0  0  0  0  0
   -5.6966   14.2423  -13.2612 N   0  0  0  0  0  0  0  0  0  0  0  0
   -4.9506   15.3153  -13.5405 C   0  0  0  0  0  0  0  0  0  0  0  0
   -3.9383   15.6899  -12.6782 C   0  0  0  0  0  0  0  0  0  0  0  0
   -3.7261   14.9536  -11.5366 C   0  0  0  0  0  0  0  0  0  0  0  0
   -4.5508   13.8769  -11.2437 C   0  0  0  0  0  0  0  0  0  0  0  0
   -2.6976   15.2614  -10.7139 N   0  0  0  0  0  0  0  0  0  0  0  0
   -6.0464   12.2223   -9.8797 H   0  0  0  0  0  0  0  0  0  0  0  0
   -8.1826   10.1089  -13.8914 H   0  0  0  0  0  0  0  0  0  0  0  0
   -6.9001   12.2325  -14.0803 H   0  0  0  0  0  0  0  0  0  0  0  0
   -8.9338    8.2246  -11.8742 H   0  0  0  0  0  0  0  0  0  0  0  0
   -8.0989   10.5499   -7.5868 H   0  0  0  0  0  0  0  0  0  0  0  0
   -7.3874    8.9007   -7.5571 H   0  0  0  0  0  0  0  0  0  0  0  0
   -6.7563   12.3160   -6.9245 H   0  0  0  0  0  0  0  0  0  0  0  0
   -4.5218   13.2977   -6.4798 H   0  0  0  0  0  0  0  0  0  0  0  0
   -2.6703    9.7625   -8.0472 H   0  0  0  0  0  0  0  0  0  0  0  0
   -4.9024    8.7852   -8.4759 H   0  0  0  0  0  0  0  0  0  0  0  0
   -2.4277   14.2118   -6.1857 H   0  0  0  0  0  0  0  0  0  0  0  0
   -0.6637   10.5754   -7.6065 H   0  0  0  0  0  0  0  0  0  0  0  0
    1.4809   14.2752   -6.0543 H   0  0  0  0  0  0  0  0  0  0  0  0
    0.2393   15.4453   -6.6162 H   0  0  0  0  0  0  0  0  0  0  0  0
    0.1804   14.8105   -4.9369 H   0  0  0  0  0  0  0  0  0  0  0  0
   -5.1384   15.8875  -14.4370 H   0  0  0  0  0  0  0  0  0  0  0  0
   -3.0010   15.6690  -13.2536 H   0  0  0  0  0  0  0  0  0  0  0  0
   -4.1509   16.7215  -12.3610 H   0  0  0  0  0  0  0  0  0  0  0  0
   -4.4255   13.3274  -10.3224 H   0  0  0  0  0  0  0  0  0  0  0  0
   -2.6419   14.6376   -9.9343 H   0  0  0  0  0  0  0  0  0  0  0  0
  1  2  2  0  0  0  0
  1  4  1  0  0  0  0
  1 11  1  0  0  0  0
  2  6  1  0  0  0  0
  3  4  2  0  0  0  0
  3  5  1  0  0  0  0
  5  6  2  0  0  0  0
  5  9  1  0  0  0  0
  6  7  1  0  0  0  0
  7  8  2  0  0  0  0
  7 10  1  0  0  0  0
  8  9  1  0  0  0  0
 10 12  1  0  0  0  0
 11 24  1  0  0  0  0
 11 28  2  0  0  0  0
 12 13  2  0  0  0  0
 12 17  1  0  0  0  0
 13 14  1  0  0  0  0
 14 15  2  0  0  0  0
 15 16  1  0  0  0  0
 15 18  1  0  0  0  0
 16 17  2  0  0  0  0
 18 19  2  0  0  0  0
 18 22  1  0  0  0  0
 19 20  1  0  0  0  0
 20 21  1  0  0  0  0
 20 23  1  0  0  0  0
 21 22  2  0  0  0  0
 24 25  2  0  0  0  0
 25 26  1  0  0  0  0
 26 27  1  0  0  0  0
 27 28  1  0  0  0  0
 27 29  2  0  0  0  0
  2 30  1  0  0  0  0
  3 31  1  0  0  0  0
  4 32  1  0  0  0  0
  9 33  1  0  0  0  0
 10 34  1  0  0  0  0
 10 35  1  0  0  0  0
 13 36  1  0  0  0  0
 14 37  1  0  0  0  0
 16 38  1  0  0  0  0
 17 39  1  0  0  0  0
 19 40  1  0  0  0  0
 22 41  1  0  0  0  0
 23 42  1  0  0  0  0
 23 43  1  0  0  0  0
 23 44  1  0  0  0  0
 25 45  1  0  0  0  0
 26 46  1  0  0  0  0
 26 47  1  0  0  0  0
 28 48  1  0  0  0  0
 29 49  1  0  0  0  0
M  END
> <Name>
23

> <IC50[uM]>
0.27

$$$$
23
  -OEChem-05192314333D
 Structure written by MMmdl.
 49 53  0     0  0  0  0  0  0999 V2000
   -6.3775   12.3296  -12.0018 C   0  0  0  0  0  0  0  0  0  0  0  0
   -6.5098   11.7629  -10.7403 C   0  0  0  0  0  0  0  0  0  0  0  0
   -7.7247   10.5660  -13.0266 C   0  0  0  0  0  0  0  0  0  0  0  0
   -6.9942   11.7487  -13.1193 C   0  0  0  0  0  0  0  0  0  0  0  0
   -7.8312   10.0057  -11.7538 C   0  0  0  0  0  0  0  0  0  0  0  0
   -7.2443   10.6021  -10.6070 C   0  0  0  0  0  0  0  0  0  0  0  0
   -7.6167    9.7449   -9.5151 C   0  0  0  0  0  0  0  0  0  0  0  0
   -8.2961    8.7374   -9.9786 N   0  0  0  0  0  0  0  0  0  0  0  0
   -8.4404    8.8724  -11.2937 N   0  0  0  0  0  0  0  0  0  0  0  0
   -7.3318    9.8946   -8.0252 C   0  0  0  0  0  0  0  0  0  0  0  0
   -5.5478   13.5112  -12.1572 C   0  0  0  0  0  0  0  0  0  0  0  0
   -5.9707   10.4870   -7.7351 C   0  0  0  0  0  0  0  0  0  0  0  0
   -5.8642   11.7588   -7.1694 C   0  0  0  0  0  0  0  0  0  0  0  0
   -4.6019   12.3141   -6.9186 C   0  0  0  0  0  0  0  0  0  0  0  0
   -3.4503   11.5963   -7.2357 C   0  0  0  0  0  0  0  0  0  0  0  0
   -3.5604   10.3220   -7.8000 C   0  0  0  0  0  0  0  0  0  0  0  0
   -4.8213    9.7719   -8.0443 C   0  0  0  0  0  0  0  0  0  0  0  0
   -2.0996   12.1710   -6.9757 C   0  0  0  0  0  0  0  0  0  0  0  0
   -1.7487   13.4240   -6.4767 C   0  0  0  0  0  0  0  0  0  0  0  0
   -0.4123   13.4674   -6.4260 N   0  0  0  0  0  0  0  0  0  0  0  0
    0.1713   12.3664   -6.8217 N   0  0  0  0  0  0  0  0  0  0  0  0
   -0.8093   11.5624   -7.1930 C   0  0  0  0  0  0  0  0  0  0  0  0
    0.4224   14.5657   -5.9816 C   0  0  0  0  0  0  0  0  0  0  0  0
   -5.6966   14.2423  -13.2612 N   0  0  0  0  0  0  0  0  0  0  0  0
   -4.9506   15.3153  -13.5405 C   0  0  0  0  0  0  0  0  0  0  0  0
   -3.9383   15.6899  -12.6782 C   0  0  0  0  0  0  0  0  0  0  0  0
   -3.7261   14.9536  -11.5366 C   0  0  0  0  0  0  0  0  0  0  0  0
   -4.5508   13.8769  -11.2437 C   0  0  0  0  0  0  0  0  0  0  0  0
   -2.6976   15.2614  -10.7139 N   0  0  0  0  0  0  0  0  0  0  0  0
   -6.0464   12.2223   -9.8797 H   0  0  0  0  0  0  0  0  0  0  0  0
   -8.1826   10.1089  -13.8914 H   0  0  0  0  0  0  0  0  0  0  0  0
   -6.9001   12.2325  -14.0803 H   0  0  0  0  0  0  0  0  0  0  0  0
   -8.6538    7.9802   -9.4320 H   0  0  0  0  0  0  0  0  0  0  0  0
   -8.0989   10.5499   -7.5868 H   0  0  0  0  0  0  0  0  0  0  0  0
   -7.3874    8.9007   -7.5571 H   0  0  0  0  0  0  0  0  0  0  0  0
   -6.7563   12.3160   -6.9245 H   0  0  0  0  0  0  0  0  0  0  0  0
   -4.5218   13.2977   -6.4798 H   0  0  0  0  0  0  0  0  0  0  0  0
   -2.6703    9.7625   -8.0472 H   0  0  0  0  0  0  0  0  0  0  0  0
   -4.9024    8.7852   -8.4759 H   0  0  0  0  0  0  0  0  0  0  0  0
   -2.4277   14.2118   -6.1857 H   0  0  0  0  0  0  0  0  0  0  0  0
   -0.6637   10.5754   -7.6065 H   0  0  0  0  0  0  0  0  0  0  0  0
    1.4809   14.2752   -6.0543 H   0  0  0  0  0  0  0  0  0  0  0  0
    0.2393   15.4453   -6.6162 H   0  0  0  0  0  0  0  0  0  0  0  0
    0.1804   14.8105   -4.9369 H   0  0  0  0  0  0  0  0  0  0  0  0
   -5.1384   15.8875  -14.4370 H   0  0  0  0  0  0  0  0  0  0  0  0
   -3.3221   16.5493  -12.8978 H   0  0  0  0  0  0  0  0  0  0  0  0
   -5.0546   14.1072  -10.2933 H   0  0  0  0  0  0  0  0  0  0  0  0
   -3.8997   13.0003  -11.1106 H   0  0  0  0  0  0  0  0  0  0  0  0
   -2.6419   14.6376   -9.9343 H   0  0  0  0  0  0  0  0  0  0  0  0
  1  2  2  0  0  0  0
  1  4  1  0  0  0  0
  1 11  1  0  0  0  0
  2  6  1  0  0  0  0
  3  4  2  0  0  0  0
  3  5  1  0  0  0  0
  5  6  1  0  0  0  0
  5  9  2  0  0  0  0
  6  7  2  0  0  0  0
  7  8  1  0  0  0  0
  7 10  1  0  0  0  0
  8  9  1  0  0  0  0
 10 12  1  0  0  0  0
 11 24  2  0  0  0  0
 11 28  1  0  0  0  0
 12 13  2  0  0  0  0
 12 17  1  0  0  0  0
 13 14  1  0  0  0  0
 14 15  2  0  0  0  0
 15 16  1  0  0  0  0
 15 18  1  0  0  0  0
 16 17  2  0  0  0  0
 18 19  2  0  0  0  0
 18 22  1  0  0  0  0
 19 20  1  0  0  0  0
 20 21  1  0  0  0  0
 20 23  1  0  0  0  0
 21 22  2  0  0  0  0
 24 25  1  0  0  0  0
 25 26  2  0  0  0  0
 26 27  1  0  0  0  0
 27 28  1  0  0  0  0
 27 29  2  0  0  0  0
  2 30  1  0  0  0  0
  3 31  1  0  0  0  0
  4 32  1  0  0  0  0
  8 33  1  0  0  0  0
 10 34  1  0  0  0  0
 10 35  1  0  0  0  0
 13 36  1  0  0  0  0
 14 37  1  0  0  0  0
 16 38  1  0  0  0  0
 17 39  1  0  0  0  0
 19 40  1  0  0  0  0
 22 41  1  0  0  0  0
 23 42  1  0  0  0  0
 23 43  1  0  0  0  0
 23 44  1  0  0  0  0
 25 45  1  0  0  0  0
 26 46  1  0  0  0  0
 28 47  1  0  0  0  0
 28 48  1  0  0  0  0
 29 49  1  0  0  0  0
M  END
> <Name>
23

> <IC50[uM]>
0.27

$$$$
23
  -OEChem-05192314333D
 Structure written by MMmdl.
 49 53  0     0  0  0  0  0  0999 V2000
   -6.3775   12.3296  -12.0018 C   0  0  0  0  0  0  0  0  0  0  0  0
   -6.5098   11.7629  -10.7403 C   0  0  0  0  0  0  0  0  0  0  0  0
   -7.7247   10.5660  -13.0266 C   0  0  0  0  0  0  0  0  0  0  0  0
   -6.9942   11.7487  -13.1193 C   0  0  0  0  0  0  0  0  0  0  0  0
   -7.8312   10.0057  -11.7538 C   0  0  0  0  0  0  0  0  0  0  0  0
   -7.2443   10.6021  -10.6070 C   0  0  0  0  0  0  0  0  0  0  0  0
   -7.6167    9.7449   -9.5151 C   0  0  0  0  0  0  0  0  0  0  0  0
   -8.2961    8.7374   -9.9786 N   0  0  0  0  0  0  0  0  0  0  0  0
   -8.4404    8.8724  -11.2937 N   0  0  0  0  0  0  0  0  0  0  0  0
   -7.3318    9.8946   -8.0252 C   0  0  0  0  0  0  0  0  0  0  0  0
   -5.5478   13.5112  -12.1572 C   0  0  0  0  0  0  0  0  0  0  0  0
   -5.9707   10.4870   -7.7351 C   0  0  0  0  0  0  0  0  0  0  0  0
   -5.8642   11.7588   -7.1694 C   0  0  0  0  0  0  0  0  0  0  0  0
   -4.6019   12.3141   -6.9186 C   0  0  0  0  0  0  0  0  0  0  0  0
   -3.4503   11.5963   -7.2357 C   0  0  0  0  0  0  0  0  0  0  0  0
   -3.5604   10.3220   -7.8000 C   0  0  0  0  0  0  0  0  0  0  0  0
   -4.8213    9.7719   -8.0443 C   0  0  0  0  0  0  0  0  0  0  0  0
   -2.0996   12.1710   -6.9757 C   0  0  0  0  0  0  0  0  0  0  0  0
   -1.7487   13.4240   -6.4767 C   0  0  0  0  0  0  0  0  0  0  0  0
   -0.4123   13.4674   -6.4260 N   0  0  0  0  0  0  0  0  0  0  0  0
    0.1713   12.3664   -6.8217 N   0  0  0  0  0  0  0  0  0  0  0  0
   -0.8093   11.5624   -7.1930 C   0  0  0  0  0  0  0  0  0  0  0  0
    0.4224   14.5657   -5.9816 C   0  0  0  0  0  0  0  0  0  0  0  0
   -5.6966   14.2423  -13.2612 N   0  0  0  0  0  0  0  0  0  0  0  0
   -4.9506   15.3153  -13.5405 C   0  0  0  0  0  0  0  0  0  0  0  0
   -3.9383   15.6899  -12.6782 C   0  0  0  0  0  0  0  0  0  0  0  0
   -3.7261   14.9536  -11.5366 C   0  0  0  0  0  0  0  0  0  0  0  0
   -4.5508   13.8769  -11.2437 C   0  0  0  0  0  0  0  0  0  0  0  0
   -2.6976   15.2614  -10.7139 N   0  0  0  0  0  0  0  0  0  0  0  0
   -6.0464   12.2223   -9.8797 H   0  0  0  0  0  0  0  0  0  0  0  0
   -8.1826   10.1089  -13.8914 H   0  0  0  0  0  0  0  0  0  0  0  0
   -6.9001   12.2325  -14.0803 H   0  0  0  0  0  0  0  0  0  0  0  0
   -8.9338    8.2246  -11.8742 H   0  0  0  0  0  0  0  0  0  0  0  0
   -8.0989   10.5499   -7.5868 H   0  0  0  0  0  0  0  0  0  0  0  0
   -7.3874    8.9007   -7.5571 H   0  0  0  0  0  0  0  0  0  0  0  0
   -6.7563   12.3160   -6.9245 H   0  0  0  0  0  0  0  0  0  0  0  0
   -4.5218   13.2977   -6.4798 H   0  0  0  0  0  0  0  0  0  0  0  0
   -2.6703    9.7625   -8.0472 H   0  0  0  0  0  0  0  0  0  0  0  0
   -4.9024    8.7852   -8.4759 H   0  0  0  0  0  0  0  0  0  0  0  0
   -2.4277   14.2118   -6.1857 H   0  0  0  0  0  0  0  0  0  0  0  0
   -0.6637   10.5754   -7.6065 H   0  0  0  0  0  0  0  0  0  0  0  0
    1.4809   14.2752   -6.0543 H   0  0  0  0  0  0  0  0  0  0  0  0
    0.2393   15.4453   -6.6162 H   0  0  0  0  0  0  0  0  0  0  0  0
    0.1804   14.8105   -4.9369 H   0  0  0  0  0  0  0  0  0  0  0  0
   -5.1384   15.8875  -14.4370 H   0  0  0  0  0  0  0  0  0  0  0  0
   -3.3221   16.5493  -12.8978 H   0  0  0  0  0  0  0  0  0  0  0  0
   -5.0546   14.1072  -10.2933 H   0  0  0  0  0  0  0  0  0  0  0  0
   -3.8997   13.0003  -11.1106 H   0  0  0  0  0  0  0  0  0  0  0  0
   -2.6419   14.6376   -9.9343 H   0  0  0  0  0  0  0  0  0  0  0  0
  1  2  2  0  0  0  0
  1  4  1  0  0  0  0
  1 11  1  0  0  0  0
  2  6  1  0  0  0  0
  3  4  2  0  0  0  0
  3  5  1  0  0  0  0
  5  6  2  0  0  0  0
  5  9  1  0  0  0  0
  6  7  1  0  0  0  0
  7  8  2  0  0  0  0
  7 10  1  0  0  0  0
  8  9  1  0  0  0  0
 10 12  1  0  0  0  0
 11 24  2  0  0  0  0
 11 28  1  0  0  0  0
 12 13  2  0  0  0  0
 12 17  1  0  0  0  0
 13 14  1  0  0  0  0
 14 15  2  0  0  0  0
 15 16  1  0  0  0  0
 15 18  1  0  0  0  0
 16 17  2  0  0  0  0
 18 19  2  0  0  0  0
 18 22  1  0  0  0  0
 19 20  1  0  0  0  0
 20 21  1  0  0  0  0
 20 23  1  0  0  0  0
 21 22  2  0  0  0  0
 24 25  1  0  0  0  0
 25 26  2  0  0  0  0
 26 27  1  0  0  0  0
 27 28  1  0  0  0  0
 27 29  2  0  0  0  0
  2 30  1  0  0  0  0
  3 31  1  0  0  0  0
  4 32  1  0  0  0  0
  9 33  1  0  0  0  0
 10 34  1  0  0  0  0
 10 35  1  0  0  0  0
 13 36  1  0  0  0  0
 14 37  1  0  0  0  0
 16 38  1  0  0  0  0
 17 39  1  0  0  0  0
 19 40  1  0  0  0  0
 22 41  1  0  0  0  0
 23 42  1  0  0  0  0
 23 43  1  0  0  0  0
 23 44  1  0  0  0  0
 25 45  1  0  0  0  0
 26 46  1  0  0  0  0
 28 47  1  0  0  0  0
 28 48  1  0  0  0  0
 29 49  1  0  0  0  0
M  END
> <Name>
23

> <IC50[uM]>
0.27

$$$$
23
  -OEChem-05192314333D
 Structure written by MMmdl.
 49 53  0     0  0  0  0  0  0999 V2000
   -6.3775   12.3296  -12.0018 C   0  0  0  0  0  0  0  0  0  0  0  0
   -6.5098   11.7629  -10.7403 C   0  0  0  0  0  0  0  0  0  0  0  0
   -7.7247   10.5660  -13.0266 C   0  0  0  0  0  0  0  0  0  0  0  0
   -6.9942   11.7487  -13.1193 C   0  0  0  0  0  0  0  0  0  0  0  0
   -7.8312   10.0057  -11.7538 C   0  0  0  0  0  0  0  0  0  0  0  0
   -7.2443   10.6021  -10.6070 C   0  0  0  0  0  0  0  0  0  0  0  0
   -7.6167    9.7449   -9.5151 C   0  0  0  0  0  0  0  0  0  0  0  0
   -8.2961    8.7374   -9.9786 N   0  0  0  0  0  0  0  0  0  0  0  0
   -8.4404    8.8724  -11.2937 N   0  0  0  0  0  0  0  0  0  0  0  0
   -7.3318    9.8946   -8.0252 C   0  0  0  0  0  0  0  0  0  0  0  0
   -5.5478   13.5112  -12.1572 C   0  0  0  0  0  0  0  0  0  0  0  0
   -5.9707   10.4870   -7.7351 C   0  0  0  0  0  0  0  0  0  0  0  0
   -5.8642   11.7588   -7.1694 C   0  0  0  0  0  0  0  0  0  0  0  0
   -4.6019   12.3141   -6.9186 C   0  0  0  0  0  0  0  0  0  0  0  0
   -3.4503   11.5963   -7.2357 C   0  0  0  0  0  0  0  0  0  0  0  0
   -3.5604   10.3220   -7.8000 C   0  0  0  0  0  0  0  0  0  0  0  0
   -4.8213    9.7719   -8.0443 C   0  0  0  0  0  0  0  0  0  0  0  0
   -2.0996   12.1710   -6.9757 C   0  0  0  0  0  0  0  0  0  0  0  0
   -1.7487   13.4240   -6.4767 C   0  0  0  0  0  0  0  0  0  0  0  0
   -0.4123   13.4674   -6.4260 N   0  0  0  0  0  0  0  0  0  0  0  0
    0.1713   12.3664   -6.8217 N   0  0  0  0  0  0  0  0  0  0  0  0
   -0.8093   11.5624   -7.1930 C   0  0  0  0  0  0  0  0  0  0  0  0
    0.4224   14.5657   -5.9816 C   0  0  0  0  0  0  0  0  0  0  0  0
   -5.6966   14.2423  -13.2612 N   0  0  0  0  0  0  0  0  0  0  0  0
   -4.9506   15.3153  -13.5405 C   0  0  0  0  0  0  0  0  0  0  0  0
   -3.9383   15.6899  -12.6782 C   0  0  0  0  0  0  0  0  0  0  0  0
   -3.7261   14.9536  -11.5366 C   0  0  0  0  0  0  0  0  0  0  0  0
   -4.5508   13.8769  -11.2437 C   0  0  0  0  0  0  0  0  0  0  0  0
   -2.6976   15.2614  -10.7139 N   0  0  0  0  0  0  0  0  0  0  0  0
   -6.0464   12.2223   -9.8797 H   0  0  0  0  0  0  0  0  0  0  0  0
   -8.1826   10.1089  -13.8914 H   0  0  0  0  0  0  0  0  0  0  0  0
   -6.9001   12.2325  -14.0803 H   0  0  0  0  0  0  0  0  0  0  0  0
   -8.6538    7.9802   -9.4320 H   0  0  0  0  0  0  0  0  0  0  0  0
   -8.0313    9.6067   -7.2544 H   0  0  0  0  0  0  0  0  0  0  0  0
   -6.7563   12.3160   -6.9245 H   0  0  0  0  0  0  0  0  0  0  0  0
   -4.5218   13.2977   -6.4798 H   0  0  0  0  0  0  0  0  0  0  0  0
   -2.6703    9.7625   -8.0472 H   0  0  0  0  0  0  0  0  0  0  0  0
   -4.9024    8.7852   -8.4759 H   0  0  0  0  0  0  0  0  0  0  0  0
   -2.4277   14.2118   -6.1857 H   0  0  0  0  0  0  0  0  0  0  0  0
   -0.6637   10.5754   -7.6065 H   0  0  0  0  0  0  0  0  0  0  0  0
    1.4809   14.2752   -6.0543 H   0  0  0  0  0  0  0  0  0  0  0  0
    0.2393   15.4453   -6.6162 H   0  0  0  0  0  0  0  0  0  0  0  0
    0.1804   14.8105   -4.9369 H   0  0  0  0  0  0  0  0  0  0  0  0
   -5.1384   15.8875  -14.4370 H   0  0  0  0  0  0  0  0  0  0  0  0
   -3.0010   15.6690  -13.2536 H   0  0  0  0  0  0  0  0  0  0  0  0
   -4.1509   16.7215  -12.3610 H   0  0  0  0  0  0  0  0  0  0  0  0
   -5.0546   14.1072  -10.2933 H   0  0  0  0  0  0  0  0  0  0  0  0
   -3.8997   13.0003  -11.1106 H   0  0  0  0  0  0  0  0  0  0  0  0
   -2.6419   14.6376   -9.9343 H   0  0  0  0  0  0  0  0  0  0  0  0
  1  2  1  0  0  0  0
  1  4  1  0  0  0  0
  1 11  2  0  0  0  0
  2  6  2  0  0  0  0
  3  4  2  0  0  0  0
  3  5  1  0  0  0  0
  5  6  1  0  0  0  0
  5  9  2  0  0  0  0
  6  7  1  0  0  0  0
  7  8  1  0  0  0  0
  7 10  2  3  0  0  0
  8  9  1  0  0  0  0
 10 12  1  0  0  0  0
 11 24  1  0  0  0  0
 11 28  1  0  0  0  0
 12 13  2  0  0  0  0
 12 17  1  0  0  0  0
 13 14  1  0  0  0  0
 14 15  2  0  0  0  0
 15 16  1  0  0  0  0
 15 18  1  0  0  0  0
 16 17  2  0  0  0  0
 18 19  2  0  0  0  0
 18 22  1  0  0  0  0
 19 20  1  0  0  0  0
 20 21  1  0  0  0  0
 20 23  1  0  0  0  0
 21 22  2  0  0  0  0
 24 25  2  0  0  0  0
 25 26  1  0  0  0  0
 26 27  1  0  0  0  0
 27 28  1  0  0  0  0
 27 29  2  0  0  0  0
  2 30  1  0  0  0  0
  3 31  1  0  0  0  0
  4 32  1  0  0  0  0
  8 33  1  0  0  0  0
 10 34  1  0  0  0  0
 13 35  1  0  0  0  0
 14 36  1  0  0  0  0
 16 37  1  0  0  0  0
 17 38  1  0  0  0  0
 19 39  1  0  0  0  0
 22 40  1  0  0  0  0
 23 41  1  0  0  0  0
 23 42  1  0  0  0  0
 23 43  1  0  0  0  0
 25 44  1  0  0  0  0
 26 45  1  0  0  0  0
 26 46  1  0  0  0  0
 28 47  1  0  0  0  0
 28 48  1  0  0  0  0
 29 49  1  0  0  0  0
M  END
> <Name>
23

> <IC50[uM]>
0.27

$$$$
23
  -OEChem-05192314333D
 Structure written by MMmdl.
 49 53  0     0  0  0  0  0  0999 V2000
   -6.3775   12.3296  -12.0018 C   0  0  0  0  0  0  0  0  0  0  0  0
   -6.5098   11.7629  -10.7403 C   0  0  0  0  0  0  0  0  0  0  0  0
   -7.7247   10.5660  -13.0266 C   0  0  0  0  0  0  0  0  0  0  0  0
   -6.9942   11.7487  -13.1193 C   0  0  0  0  0  0  0  0  0  0  0  0
   -7.8312   10.0057  -11.7538 C   0  0  0  0  0  0  0  0  0  0  0  0
   -7.2443   10.6021  -10.6070 C   0  0  0  0  0  0  0  0  0  0  0  0
   -7.6167    9.7449   -9.5151 C   0  0  0  0  0  0  0  0  0  0  0  0
   -8.2961    8.7374   -9.9786 N   0  0  0  0  0  0  0  0  0  0  0  0
   -8.4404    8.8724  -11.2937 N   0  0  0  0  0  0  0  0  0  0  0  0
   -7.3318    9.8946   -8.0252 C   0  0  0  0  0  0  0  0  0  0  0  0
   -5.5478   13.5112  -12.1572 C   0  0  0  0  0  0  0  0  0  0  0  0
   -5.9707   10.4870   -7.7351 C   0  0  0  0  0  0  0  0  0  0  0  0
   -5.8642   11.7588   -7.1694 C   0  0  0  0  0  0  0  0  0  0  0  0
   -4.6019   12.3141   -6.9186 C   0  0  0  0  0  0  0  0  0  0  0  0
   -3.4503   11.5963   -7.2357 C   0  0  0  0  0  0  0  0  0  0  0  0
   -3.5604   10.3220   -7.8000 C   0  0  0  0  0  0  0  0  0  0  0  0
   -4.8213    9.7719   -8.0443 C   0  0  0  0  0  0  0  0  0  0  0  0
   -2.0996   12.1710   -6.9757 C   0  0  0  0  0  0  0  0  0  0  0  0
   -1.7487   13.4240   -6.4767 C   0  0  0  0  0  0  0  0  0  0  0  0
   -0.4123   13.4674   -6.4260 N   0  0  0  0  0  0  0  0  0  0  0  0
    0.1713   12.3664   -6.8217 N   0  0  0  0  0  0  0  0  0  0  0  0
   -0.8093   11.5624   -7.1930 C   0  0  0  0  0  0  0  0  0  0  0  0
    0.4224   14.5657   -5.9816 C   0  0  0  0  0  0  0  0  0  0  0  0
   -5.6966   14.2423  -13.2612 N   0  0  0  0  0  0  0  0  0  0  0  0
   -4.9506   15.3153  -13.5405 C   0  0  0  0  0  0  0  0  0  0  0  0
   -3.9383   15.6899  -12.6782 C   0  0  0  0  0  0  0  0  0  0  0  0
   -3.7261   14.9536  -11.5366 C   0  0  0  0  0  0  0  0  0  0  0  0
   -4.5508   13.8769  -11.2437 C   0  0  0  0  0  0  0  0  0  0  0  0
   -2.6976   15.2614  -10.7139 N   0  0  0  0  0  0  0  0  0  0  0  0
   -6.0464   12.2223   -9.8797 H   0  0  0  0  0  0  0  0  0  0  0  0
   -8.1826   10.1089  -13.8914 H   0  0  0  0  0  0  0  0  0  0  0  0
   -6.9001   12.2325  -14.0803 H   0  0  0  0  0  0  0  0  0  0  0  0
   -8.6538    7.9802   -9.4320 H   0  0  0  0  0  0  0  0  0  0  0  0
   -8.0313    9.6067   -7.2544 H   0  0  0  0  0  0  0  0  0  0  0  0
   -6.7563   12.3160   -6.9245 H   0  0  0  0  0  0  0  0  0  0  0  0
   -4.5218   13.2977   -6.4798 H   0  0  0  0  0  0  0  0  0  0  0  0
   -2.6703    9.7625   -8.0472 H   0  0  0  0  0  0  0  0  0  0  0  0
   -4.9024    8.7852   -8.4759 H   0  0  0  0  0  0  0  0  0  0  0  0
   -2.4277   14.2118   -6.1857 H   0  0  0  0  0  0  0  0  0  0  0  0
   -0.6637   10.5754   -7.6065 H   0  0  0  0  0  0  0  0  0  0  0  0
    1.4809   14.2752   -6.0543 H   0  0  0  0  0  0  0  0  0  0  0  0
    0.2393   15.4453   -6.6162 H   0  0  0  0  0  0  0  0  0  0  0  0
    0.1804   14.8105   -4.9369 H   0  0  0  0  0  0  0  0  0  0  0  0
   -5.1384   15.8875  -14.4370 H   0  0  0  0  0  0  0  0  0  0  0  0
   -3.0010   15.6690  -13.2536 H   0  0  0  0  0  0  0  0  0  0  0  0
   -4.1509   16.7215  -12.3610 H   0  0  0  0  0  0  0  0  0  0  0  0
   -4.4255   13.3274  -10.3224 H   0  0  0  0  0  0  0  0  0  0  0  0
   -2.6901   14.6302   -9.9383 H   0  0  0  0  0  0  0  0  0  0  0  0
   -1.8356   15.1840  -11.2148 H   0  0  0  0  0  0  0  0  0  0  0  0
  1  2  1  0  0  0  0
  1  4  1  0  0  0  0
  1 11  2  0  0  0  0
  2  6  2  0  0  0  0
  3  4  2  0  0  0  0
  3  5  1  0  0  0  0
  5  6  1  0  0  0  0
  5  9  2  0  0  0  0
  6  7  1  0  0  0  0
  7  8  1  0  0  0  0
  7 10  2  3  0  0  0
  8  9  1  0  0  0  0
 10 12  1  0  0  0  0
 11 24  1  0  0  0  0
 11 28  1  0  0  0  0
 12 13  2  0  0  0  0
 12 17  1  0  0  0  0
 13 14  1  0  0  0  0
 14 15  2  0  0  0  0
 15 16  1  0  0  0  0
 15 18  1  0  0  0  0
 16 17  2  0  0  0  0
 18 19  2  0  0  0  0
 18 22  1  0  0  0  0
 19 20  1  0  0  0  0
 20 21  1  0  0  0  0
 20 23  1  0  0  0  0
 21 22  2  0  0  0  0
 24 25  2  0  0  0  0
 25 26  1  0  0  0  0
 26 27  1  0  0  0  0
 27 28  2  0  0  0  0
 27 29  1  0  0  0  0
  2 30  1  0  0  0  0
  3 31  1  0  0  0  0
  4 32  1  0  0  0  0
  8 33  1  0  0  0  0
 10 34  1  0  0  0  0
 13 35  1  0  0  0  0
 14 36  1  0  0  0  0
 16 37  1  0  0  0  0
 17 38  1  0  0  0  0
 19 39  1  0  0  0  0
 22 40  1  0  0  0  0
 23 41  1  0  0  0  0
 23 42  1  0  0  0  0
 23 43  1  0  0  0  0
 25 44  1  0  0  0  0
 26 45  1  0  0  0  0
 26 46  1  0  0  0  0
 28 47  1  0  0  0  0
 29 48  1  0  0  0  0
 29 49  1  0  0  0  0
M  END
> <Name>
23

> <IC50[uM]>
0.27

$$$$
23
  -OEChem-05192314333D
 Structure written by MMmdl.
 49 53  0     0  0  0  0  0  0999 V2000
   -6.3775   12.3296  -12.0018 C   0  0  0  0  0  0  0  0  0  0  0  0
   -6.5098   11.7629  -10.7403 C   0  0  0  0  0  0  0  0  0  0  0  0
   -7.7247   10.5660  -13.0266 C   0  0  0  0  0  0  0  0  0  0  0  0
   -6.9942   11.7487  -13.1193 C   0  0  0  0  0  0  0  0  0  0  0  0
   -7.8312   10.0057  -11.7538 C   0  0  0  0  0  0  0  0  0  0  0  0
   -7.2443   10.6021  -10.6070 C   0  0  0  0  0  0  0  0  0  0  0  0
   -7.6167    9.7449   -9.5151 C   0  0  0  0  0  0  0  0  0  0  0  0
   -8.2961    8.7374   -9.9786 N   0  0  0  0  0  0  0  0  0  0  0  0
   -8.4404    8.8724  -11.2937 N   0  0  0  0  0  0  0  0  0  0  0  0
   -7.3318    9.8946   -8.0252 C   0  0  0  0  0  0  0  0  0  0  0  0
   -5.5478   13.5112  -12.1572 C   0  0  0  0  0  0  0  0  0  0  0  0
   -5.9707   10.4870   -7.7351 C   0  0  0  0  0  0  0  0  0  0  0  0
   -5.8642   11.7588   -7.1694 C   0  0  0  0  0  0  0  0  0  0  0  0
   -4.6019   12.3141   -6.9186 C   0  0  0  0  0  0  0  0  0  0  0  0
   -3.4503   11.5963   -7.2357 C   0  0  0  0  0  0  0  0  0  0  0  0
   -3.5604   10.3220   -7.8000 C   0  0  0  0  0  0  0  0  0  0  0  0
   -4.8213    9.7719   -8.0443 C   0  0  0  0  0  0  0  0  0  0  0  0
   -2.0996   12.1710   -6.9757 C   0  0  0  0  0  0  0  0  0  0  0  0
   -1.7487   13.4240   -6.4767 C   0  0  0  0  0  0  0  0  0  0  0  0
   -0.4123   13.4674   -6.4260 N   0  0  0  0  0  0  0  0  0  0  0  0
    0.1713   12.3664   -6.8217 N   0  0  0  0  0  0  0  0  0  0  0  0
   -0.8093   11.5624   -7.1930 C   0  0  0  0  0  0  0  0  0  0  0  0
    0.4224   14.5657   -5.9816 C   0  0  0  0  0  0  0  0  0  0  0  0
   -5.6966   14.2423  -13.2612 N   0  0  0  0  0  0  0  0  0  0  0  0
   -4.9506   15.3153  -13.5405 C   0  0  0  0  0  0  0  0  0  0  0  0
   -3.9383   15.6899  -12.6782 C   0  0  0  0  0  0  0  0  0  0  0  0
   -3.7261   14.9536  -11.5366 C   0  0  0  0  0  0  0  0  0  0  0  0
   -4.5508   13.8769  -11.2437 C   0  0  0  0  0  0  0  0  0  0  0  0
   -2.6976   15.2614  -10.7139 N   0  0  0  0  0  0  0  0  0  0  0  0
   -6.0464   12.2223   -9.8797 H   0  0  0  0  0  0  0  0  0  0  0  0
   -8.1826   10.1089  -13.8914 H   0  0  0  0  0  0  0  0  0  0  0  0
   -6.9001   12.2325  -14.0803 H   0  0  0  0  0  0  0  0  0  0  0  0
   -8.6538    7.9802   -9.4320 H   0  0  0  0  0  0  0  0  0  0  0  0
   -8.0313    9.6067   -7.2544 H   0  0  0  0  0  0  0  0  0  0  0  0
   -6.7563   12.3160   -6.9245 H   0  0  0  0  0  0  0  0  0  0  0  0
   -4.5218   13.2977   -6.4798 H   0  0  0  0  0  0  0  0  0  0  0  0
   -2.6703    9.7625   -8.0472 H   0  0  0  0  0  0  0  0  0  0  0  0
   -4.9024    8.7852   -8.4759 H   0  0  0  0  0  0  0  0  0  0  0  0
   -2.4277   14.2118   -6.1857 H   0  0  0  0  0  0  0  0  0  0  0  0
   -0.6637   10.5754   -7.6065 H   0  0  0  0  0  0  0  0  0  0  0  0
    1.4809   14.2752   -6.0543 H   0  0  0  0  0  0  0  0  0  0  0  0
    0.2393   15.4453   -6.6162 H   0  0  0  0  0  0  0  0  0  0  0  0
    0.1804   14.8105   -4.9369 H   0  0  0  0  0  0  0  0  0  0  0  0
   -5.1384   15.8875  -14.4370 H   0  0  0  0  0  0  0  0  0  0  0  0
   -3.3221   16.5493  -12.8978 H   0  0  0  0  0  0  0  0  0  0  0  0
   -5.0546   14.1072  -10.2933 H   0  0  0  0  0  0  0  0  0  0  0  0
   -3.8997   13.0003  -11.1106 H   0  0  0  0  0  0  0  0  0  0  0  0
   -2.6901   14.6302   -9.9383 H   0  0  0  0  0  0  0  0  0  0  0  0
   -1.8356   15.1840  -11.2148 H   0  0  0  0  0  0  0  0  0  0  0  0
  1  2  1  0  0  0  0
  1  4  1  0  0  0  0
  1 11  2  0  0  0  0
  2  6  2  0  0  0  0
  3  4  2  0  0  0  0
  3  5  1  0  0  0  0
  5  6  1  0  0  0  0
  5  9  2  0  0  0  0
  6  7  1  0  0  0  0
  7  8  1  0  0  0  0
  7 10  2  3  0  0  0
  8  9  1  0  0  0  0
 10 12  1  0  0  0  0
 11 24  1  0  0  0  0
 11 28  1  0  0  0  0
 12 13  2  0  0  0  0
 12 17  1  0  0  0  0
 13 14  1  0  0  0  0
 14 15  2  0  0  0  0
 15 16  1  0  0  0  0
 15 18  1  0  0  0  0
 16 17  2  0  0  0  0
 18 19  2  0  0  0  0
 18 22  1  0  0  0  0
 19 20  1  0  0  0  0
 20 21  1  0  0  0  0
 20 23  1  0  0  0  0
 21 22  2  0  0  0  0
 24 25  2  0  0  0  0
 25 26  1  0  0  0  0
 26 27  2  0  0  0  0
 27 28  1  0  0  0  0
 27 29  1  0  0  0  0
  2 30  1  0  0  0  0
  3 31  1  0  0  0  0
  4 32  1  0  0  0  0
  8 33  1  0  0  0  0
 10 34  1  0  0  0  0
 13 35  1  0  0  0  0
 14 36  1  0  0  0  0
 16 37  1  0  0  0  0
 17 38  1  0  0  0  0
 19 39  1  0  0  0  0
 22 40  1  0  0  0  0
 23 41  1  0  0  0  0
 23 42  1  0  0  0  0
 23 43  1  0  0  0  0
 25 44  1  0  0  0  0
 26 45  1  0  0  0  0
 28 46  1  0  0  0  0
 28 47  1  0  0  0  0
 29 48  1  0  0  0  0
 29 49  1  0  0  0  0
M  END
> <Name>
23

> <IC50[uM]>
0.27

$$$$
23
  -OEChem-05192314333D
 Structure written by MMmdl.
 49 53  0     0  0  0  0  0  0999 V2000
   -6.3775   12.3296  -12.0018 C   0  0  0  0  0  0  0  0  0  0  0  0
   -6.5098   11.7629  -10.7403 C   0  0  0  0  0  0  0  0  0  0  0  0
   -7.7247   10.5660  -13.0266 C   0  0  0  0  0  0  0  0  0  0  0  0
   -6.9942   11.7487  -13.1193 C   0  0  0  0  0  0  0  0  0  0  0  0
   -7.8312   10.0057  -11.7538 C   0  0  0  0  0  0  0  0  0  0  0  0
   -7.2443   10.6021  -10.6070 C   0  0  0  0  0  0  0  0  0  0  0  0
   -7.6167    9.7449   -9.5151 C   0  0  0  0  0  0  0  0  0  0  0  0
   -8.2961    8.7374   -9.9786 N   0  0  0  0  0  0  0  0  0  0  0  0
   -8.4404    8.8724  -11.2937 N   0  0  0  0  0  0  0  0  0  0  0  0
   -7.3318    9.8946   -8.0252 C   0  0  0  0  0  0  0  0  0  0  0  0
   -5.5478   13.5112  -12.1572 C   0  0  0  0  0  0  0  0  0  0  0  0
   -5.9707   10.4870   -7.7351 C   0  0  0  0  0  0  0  0  0  0  0  0
   -5.8642   11.7588   -7.1694 C   0  0  0  0  0  0  0  0  0  0  0  0
   -4.6019   12.3141   -6.9186 C   0  0  0  0  0  0  0  0  0  0  0  0
   -3.4503   11.5963   -7.2357 C   0  0  0  0  0  0  0  0  0  0  0  0
   -3.5604   10.3220   -7.8000 C   0  0  0  0  0  0  0  0  0  0  0  0
   -4.8213    9.7719   -8.0443 C   0  0  0  0  0  0  0  0  0  0  0  0
   -2.0996   12.1710   -6.9757 C   0  0  0  0  0  0  0  0  0  0  0  0
   -1.7487   13.4240   -6.4767 C   0  0  0  0  0  0  0  0  0  0  0  0
   -0.4123   13.4674   -6.4260 N   0  0  0  0  0  0  0  0  0  0  0  0
    0.1713   12.3664   -6.8217 N   0  0  0  0  0  0  0  0  0  0  0  0
   -0.8093   11.5624   -7.1930 C   0  0  0  0  0  0  0  0  0  0  0  0
    0.4224   14.5657   -5.9816 C   0  0  0  0  0  0  0  0  0  0  0  0
   -5.6966   14.2423  -13.2612 N   0  0  0  0  0  0  0  0  0  0  0  0
   -4.9506   15.3153  -13.5405 C   0  0  0  0  0  0  0  0  0  0  0  0
   -3.9383   15.6899  -12.6782 C   0  0  0  0  0  0  0  0  0  0  0  0
   -3.7261   14.9536  -11.5366 C   0  0  0  0  0  0  0  0  0  0  0  0
   -4.5508   13.8769  -11.2437 C   0  0  0  0  0  0  0  0  0  0  0  0
   -2.6976   15.2614  -10.7139 N   0  0  0  0  0  0  0  0  0  0  0  0
   -6.0464   12.2223   -9.8797 H   0  0  0  0  0  0  0  0  0  0  0  0
   -8.1826   10.1089  -13.8914 H   0  0  0  0  0  0  0  0  0  0  0  0
   -6.9001   12.2325  -14.0803 H   0  0  0  0  0  0  0  0  0  0  0  0
   -8.6538    7.9802   -9.4320 H   0  0  0  0  0  0  0  0  0  0  0  0
   -8.0313    9.6067   -7.2544 H   0  0  0  0  0  0  0  0  0  0  0  0
   -6.7563   12.3160   -6.9245 H   0  0  0  0  0  0  0  0  0  0  0  0
   -4.5218   13.2977   -6.4798 H   0  0  0  0  0  0  0  0  0  0  0  0
   -2.6703    9.7625   -8.0472 H   0  0  0  0  0  0  0  0  0  0  0  0
   -4.9024    8.7852   -8.4759 H   0  0  0  0  0  0  0  0  0  0  0  0
   -2.4277   14.2118   -6.1857 H   0  0  0  0  0  0  0  0  0  0  0  0
   -0.6637   10.5754   -7.6065 H   0  0  0  0  0  0  0  0  0  0  0  0
    1.4809   14.2752   -6.0543 H   0  0  0  0  0  0  0  0  0  0  0  0
    0.2393   15.4453   -6.6162 H   0  0  0  0  0  0  0  0  0  0  0  0
    0.1804   14.8105   -4.9369 H   0  0  0  0  0  0  0  0  0  0  0  0
   -6.4038   13.9739  -13.9153 H   0  0  0  0  0  0  0  0  0  0  0  0
   -5.1384   15.8875  -14.4370 H   0  0  0  0  0  0  0  0  0  0  0  0
   -3.3221   16.5493  -12.8978 H   0  0  0  0  0  0  0  0  0  0  0  0
   -5.0546   14.1072  -10.2933 H   0  0  0  0  0  0  0  0  0  0  0  0
   -3.8997   13.0003  -11.1106 H   0  0  0  0  0  0  0  0  0  0  0  0
   -2.6419   14.6376   -9.9343 H   0  0  0  0  0  0  0  0  0  0  0  0
  1  2  1  0  0  0  0
  1  4  1  0  0  0  0
  1 11  2  0  0  0  0
  2  6  2  0  0  0  0
  3  4  2  0  0  0  0
  3  5  1  0  0  0  0
  5  6  1  0  0  0  0
  5  9  2  0  0  0  0
  6  7  1  0  0  0  0
  7  8  1  0  0  0  0
  7 10  2  3  0  0  0
  8  9  1  0  0  0  0
 10 12  1  0  0  0  0
 11 24  1  0  0  0  0
 11 28  1  0  0  0  0
 12 13  2  0  0  0  0
 12 17  1  0  0  0  0
 13 14  1  0  0  0  0
 14 15  2  0  0  0  0
 15 16  1  0  0  0  0
 15 18  1  0  0  0  0
 16 17  2  0  0  0  0
 18 19  2  0  0  0  0
 18 22  1  0  0  0  0
 19 20  1  0  0  0  0
 20 21  1  0  0  0  0
 20 23  1  0  0  0  0
 21 22  2  0  0  0  0
 24 25  1  0  0  0  0
 25 26  2  0  0  0  0
 26 27  1  0  0  0  0
 27 28  1  0  0  0  0
 27 29  2  0  0  0  0
  2 30  1  0  0  0  0
  3 31  1  0  0  0  0
  4 32  1  0  0  0  0
  8 33  1  0  0  0  0
 10 34  1  0  0  0  0
 13 35  1  0  0  0  0
 14 36  1  0  0  0  0
 16 37  1  0  0  0  0
 17 38  1  0  0  0  0
 19 39  1  0  0  0  0
 22 40  1  0  0  0  0
 23 41  1  0  0  0  0
 23 42  1  0  0  0  0
 23 43  1  0  0  0  0
 24 44  1  0  0  0  0
 25 45  1  0  0  0  0
 26 46  1  0  0  0  0
 28 47  1  0  0  0  0
 28 48  1  0  0  0  0
 29 49  1  0  0  0  0
M  END
> <Name>
23

> <IC50[uM]>
0.27

$$$$
23
  -OEChem-05192314333D
 Structure written by MMmdl.
 49 53  0     0  0  0  0  0  0999 V2000
   -6.3775   12.3296  -12.0018 C   0  0  0  0  0  0  0  0  0  0  0  0
   -6.5098   11.7629  -10.7403 C   0  0  0  0  0  0  0  0  0  0  0  0
   -7.7247   10.5660  -13.0266 C   0  0  0  0  0  0  0  0  0  0  0  0
   -6.9942   11.7487  -13.1193 C   0  0  0  0  0  0  0  0  0  0  0  0
   -7.8312   10.0057  -11.7538 C   0  0  0  0  0  0  0  0  0  0  0  0
   -7.2443   10.6021  -10.6070 C   0  0  0  0  0  0  0  0  0  0  0  0
   -7.6167    9.7449   -9.5151 C   0  0  0  0  0  0  0  0  0  0  0  0
   -8.2961    8.7374   -9.9786 N   0  0  0  0  0  0  0  0  0  0  0  0
   -8.4404    8.8724  -11.2937 N   0  0  0  0  0  0  0  0  0  0  0  0
   -7.3318    9.8946   -8.0252 C   0  0  0  0  0  0  0  0  0  0  0  0
   -5.5478   13.5112  -12.1572 C   0  0  0  0  0  0  0  0  0  0  0  0
   -5.9707   10.4870   -7.7351 C   0  0  0  0  0  0  0  0  0  0  0  0
   -5.8642   11.7588   -7.1694 C   0  0  0  0  0  0  0  0  0  0  0  0
   -4.6019   12.3141   -6.9186 C   0  0  0  0  0  0  0  0  0  0  0  0
   -3.4503   11.5963   -7.2357 C   0  0  0  0  0  0  0  0  0  0  0  0
   -3.5604   10.3220   -7.8000 C   0  0  0  0  0  0  0  0  0  0  0  0
   -4.8213    9.7719   -8.0443 C   0  0  0  0  0  0  0  0  0  0  0  0
   -2.0996   12.1710   -6.9757 C   0  0  0  0  0  0  0  0  0  0  0  0
   -1.7487   13.4240   -6.4767 C   0  0  0  0  0  0  0  0  0  0  0  0
   -0.4123   13.4674   -6.4260 N   0  0  0  0  0  0  0  0  0  0  0  0
    0.1713   12.3664   -6.8217 N   0  0  0  0  0  0  0  0  0  0  0  0
   -0.8093   11.5624   -7.1930 C   0  0  0  0  0  0  0  0  0  0  0  0
    0.4224   14.5657   -5.9816 C   0  0  0  0  0  0  0  0  0  0  0  0
   -5.6966   14.2423  -13.2612 N   0  0  0  0  0  0  0  0  0  0  0  0
   -4.9506   15.3153  -13.5405 C   0  0  0  0  0  0  0  0  0  0  0  0
   -3.9383   15.6899  -12.6782 C   0  0  0  0  0  0  0  0  0  0  0  0
   -3.7261   14.9536  -11.5366 C   0  0  0  0  0  0  0  0  0  0  0  0
   -4.5508   13.8769  -11.2437 C   0  0  0  0  0  0  0  0  0  0  0  0
   -2.6976   15.2614  -10.7139 N   0  0  0  0  0  0  0  0  0  0  0  0
   -6.0464   12.2223   -9.8797 H   0  0  0  0  0  0  0  0  0  0  0  0
   -8.1826   10.1089  -13.8914 H   0  0  0  0  0  0  0  0  0  0  0  0
   -6.9001   12.2325  -14.0803 H   0  0  0  0  0  0  0  0  0  0  0  0
   -8.6538    7.9802   -9.4320 H   0  0  0  0  0  0  0  0  0  0  0  0
   -8.0313    9.6067   -7.2544 H   0  0  0  0  0  0  0  0  0  0  0  0
   -6.7563   12.3160   -6.9245 H   0  0  0  0  0  0  0  0  0  0  0  0
   -4.5218   13.2977   -6.4798 H   0  0  0  0  0  0  0  0  0  0  0  0
   -2.6703    9.7625   -8.0472 H   0  0  0  0  0  0  0  0  0  0  0  0
   -4.9024    8.7852   -8.4759 H   0  0  0  0  0  0  0  0  0  0  0  0
   -2.4277   14.2118   -6.1857 H   0  0  0  0  0  0  0  0  0  0  0  0
   -0.6637   10.5754   -7.6065 H   0  0  0  0  0  0  0  0  0  0  0  0
    1.4809   14.2752   -6.0543 H   0  0  0  0  0  0  0  0  0  0  0  0
    0.2393   15.4453   -6.6162 H   0  0  0  0  0  0  0  0  0  0  0  0
    0.1804   14.8105   -4.9369 H   0  0  0  0  0  0  0  0  0  0  0  0
   -6.4038   13.9739  -13.9153 H   0  0  0  0  0  0  0  0  0  0  0  0
   -5.1384   15.8875  -14.4370 H   0  0  0  0  0  0  0  0  0  0  0  0
   -3.3221   16.5493  -12.8978 H   0  0  0  0  0  0  0  0  0  0  0  0
   -4.4255   13.3274  -10.3224 H   0  0  0  0  0  0  0  0  0  0  0  0
   -2.6901   14.6302   -9.9383 H   0  0  0  0  0  0  0  0  0  0  0  0
   -1.8356   15.1840  -11.2148 H   0  0  0  0  0  0  0  0  0  0  0  0
  1  2  1  0  0  0  0
  1  4  1  0  0  0  0
  1 11  2  0  0  0  0
  2  6  2  0  0  0  0
  3  4  2  0  0  0  0
  3  5  1  0  0  0  0
  5  6  1  0  0  0  0
  5  9  2  0  0  0  0
  6  7  1  0  0  0  0
  7  8  1  0  0  0  0
  7 10  2  3  0  0  0
  8  9  1  0  0  0  0
 10 12  1  0  0  0  0
 11 24  1  0  0  0  0
 11 28  1  0  0  0  0
 12 13  2  0  0  0  0
 12 17  1  0  0  0  0
 13 14  1  0  0  0  0
 14 15  2  0  0  0  0
 15 16  1  0  0  0  0
 15 18  1  0  0  0  0
 16 17  2  0  0  0  0
 18 19  2  0  0  0  0
 18 22  1  0  0  0  0
 19 20  1  0  0  0  0
 20 21  1  0  0  0  0
 20 23  1  0  0  0  0
 21 22  2  0  0  0  0
 24 25  1  0  0  0  0
 25 26  2  0  0  0  0
 26 27  1  0  0  0  0
 27 28  2  0  0  0  0
 27 29  1  0  0  0  0
  2 30  1  0  0  0  0
  3 31  1  0  0  0  0
  4 32  1  0  0  0  0
  8 33  1  0  0  0  0
 10 34  1  0  0  0  0
 13 35  1  0  0  0  0
 14 36  1  0  0  0  0
 16 37  1  0  0  0  0
 17 38  1  0  0  0  0
 19 39  1  0  0  0  0
 22 40  1  0  0  0  0
 23 41  1  0  0  0  0
 23 42  1  0  0  0  0
 23 43  1  0  0  0  0
 24 44  1  0  0  0  0
 25 45  1  0  0  0  0
 26 46  1  0  0  0  0
 28 47  1  0  0  0  0
 29 48  1  0  0  0  0
 29 49  1  0  0  0  0
M  END
> <Name>
23

> <IC50[uM]>
0.27

$$$$
23
  -OEChem-05192314333D
 Structure written by MMmdl.
 49 53  0     0  0  0  0  0  0999 V2000
   -6.3775   12.3296  -12.0018 C   0  0  0  0  0  0  0  0  0  0  0  0
   -6.5098   11.7629  -10.7403 C   0  0  0  0  0  0  0  0  0  0  0  0
   -7.7247   10.5660  -13.0266 C   0  0  0  0  0  0  0  0  0  0  0  0
   -6.9942   11.7487  -13.1193 C   0  0  0  0  0  0  0  0  0  0  0  0
   -7.8312   10.0057  -11.7538 C   0  0  0  0  0  0  0  0  0  0  0  0
   -7.2443   10.6021  -10.6070 C   0  0  0  0  0  0  0  0  0  0  0  0
   -7.6167    9.7449   -9.5151 C   0  0  0  0  0  0  0  0  0  0  0  0
   -8.2961    8.7374   -9.9786 N   0  0  0  0  0  0  0  0  0  0  0  0
   -8.4404    8.8724  -11.2937 N   0  0  0  0  0  0  0  0  0  0  0  0
   -7.3318    9.8946   -8.0252 C   0  0  0  0  0  0  0  0  0  0  0  0
   -5.5478   13.5112  -12.1572 C   0  0  0  0  0  0  0  0  0  0  0  0
   -5.9707   10.4870   -7.7351 C   0  0  0  0  0  0  0  0  0  0  0  0
   -5.8642   11.7588   -7.1694 C   0  0  0  0  0  0  0  0  0  0  0  0
   -4.6019   12.3141   -6.9186 C   0  0  0  0  0  0  0  0  0  0  0  0
   -3.4503   11.5963   -7.2357 C   0  0  0  0  0  0  0  0  0  0  0  0
   -3.5604   10.3220   -7.8000 C   0  0  0  0  0  0  0  0  0  0  0  0
   -4.8213    9.7719   -8.0443 C   0  0  0  0  0  0  0  0  0  0  0  0
   -2.0996   12.1710   -6.9757 C   0  0  0  0  0  0  0  0  0  0  0  0
   -1.7487   13.4240   -6.4767 C   0  0  0  0  0  0  0  0  0  0  0  0
   -0.4123   13.4674   -6.4260 N   0  0  0  0  0  0  0  0  0  0  0  0
    0.1713   12.3664   -6.8217 N   0  0  0  0  0  0  0  0  0  0  0  0
   -0.8093   11.5624   -7.1930 C   0  0  0  0  0  0  0  0  0  0  0  0
    0.4224   14.5657   -5.9816 C   0  0  0  0  0  0  0  0  0  0  0  0
   -5.6966   14.2423  -13.2612 N   0  0  0  0  0  0  0  0  0  0  0  0
   -4.9506   15.3153  -13.5405 C   0  0  0  0  0  0  0  0  0  0  0  0
   -3.9383   15.6899  -12.6782 C   0  0  0  0  0  0  0  0  0  0  0  0
   -3.7261   14.9536  -11.5366 C   0  0  0  0  0  0  0  0  0  0  0  0
   -4.5508   13.8769  -11.2437 C   0  0  0  0  0  0  0  0  0  0  0  0
   -2.6976   15.2614  -10.7139 N   0  0  0  0  0  0  0  0  0  0  0  0
   -6.0464   12.2223   -9.8797 H   0  0  0  0  0  0  0  0  0  0  0  0
   -8.1826   10.1089  -13.8914 H   0  0  0  0  0  0  0  0  0  0  0  0
   -6.9001   12.2325  -14.0803 H   0  0  0  0  0  0  0  0  0  0  0  0
   -8.6538    7.9802   -9.4320 H   0  0  0  0  0  0  0  0  0  0  0  0
   -8.0313    9.6067   -7.2544 H   0  0  0  0  0  0  0  0  0  0  0  0
   -6.7563   12.3160   -6.9245 H   0  0  0  0  0  0  0  0  0  0  0  0
   -4.5218   13.2977   -6.4798 H   0  0  0  0  0  0  0  0  0  0  0  0
   -3.4477   12.0425   -8.2411 H   0  0  0  0  0  0  0  0  0  0  0  0
   -2.6703    9.7625   -8.0472 H   0  0  0  0  0  0  0  0  0  0  0  0
   -4.9024    8.7852   -8.4759 H   0  0  0  0  0  0  0  0  0  0  0  0
   -2.4277   14.2118   -6.1857 H   0  0  0  0  0  0  0  0  0  0  0  0
   -0.6637   10.5754   -7.6065 H   0  0  0  0  0  0  0  0  0  0  0  0
    1.4809   14.2752   -6.0543 H   0  0  0  0  0  0  0  0  0  0  0  0
    0.2393   15.4453   -6.6162 H   0  0  0  0  0  0  0  0  0  0  0  0
    0.1804   14.8105   -4.9369 H   0  0  0  0  0  0  0  0  0  0  0  0
   -5.1384   15.8875  -14.4370 H   0  0  0  0  0  0  0  0  0  0  0  0
   -3.3221   16.5493  -12.8978 H   0  0  0  0  0  0  0  0  0  0  0  0
   -4.4255   13.3274  -10.3224 H   0  0  0  0  0  0  0  0  0  0  0  0
   -2.6901   14.6302   -9.9383 H   0  0  0  0  0  0  0  0  0  0  0  0
   -1.8356   15.1840  -11.2148 H   0  0  0  0  0  0  0  0  0  0  0  0
  1  2  2  0  0  0  0
  1  4  1  0  0  0  0
  1 11  1  0  0  0  0
  2  6  1  0  0  0  0
  3  4  2  0  0  0  0
  3  5  1  0  0  0  0
  5  6  1  0  0  0  0
  5  9  2  0  0  0  0
  6  7  2  0  0  0  0
  7  8  1  0  0  0  0
  7 10  1  0  0  0  0
  8  9  1  0  0  0  0
 10 12  2  0  0  0  0
 11 24  2  0  0  0  0
 11 28  1  0  0  0  0
 12 13  1  0  0  0  0
 12 17  1  0  0  0  0
 13 14  2  0  0  0  0
 14 15  1  0  0  0  0
 15 16  1  0  0  0  0
 15 18  1  0  0  0  0
 16 17  2  0  0  0  0
 18 19  2  0  0  0  0
 18 22  1  0  0  0  0
 19 20  1  0  0  0  0
 20 21  1  0  0  0  0
 20 23  1  0  0  0  0
 21 22  2  0  0  0  0
 24 25  1  0  0  0  0
 25 26  2  0  0  0  0
 26 27  1  0  0  0  0
 27 28  2  0  0  0  0
 27 29  1  0  0  0  0
  2 30  1  0  0  0  0
  3 31  1  0  0  0  0
  4 32  1  0  0  0  0
  8 33  1  0  0  0  0
 10 34  1  0  0  0  0
 13 35  1  0  0  0  0
 14 36  1  0  0  0  0
 15 37  1  0  0  0  0
 16 38  1  0  0  0  0
 17 39  1  0  0  0  0
 19 40  1  0  0  0  0
 22 41  1  0  0  0  0
 23 42  1  0  0  0  0
 23 43  1  0  0  0  0
 23 44  1  0  0  0  0
 25 45  1  0  0  0  0
 26 46  1  0  0  0  0
 28 47  1  0  0  0  0
 29 48  1  0  0  0  0
 29 49  1  0  0  0  0
M  END
> <Name>
23

> <IC50[uM]>
0.27

$$$$
23
  -OEChem-05192314333D
 Structure written by MMmdl.
 49 53  0     0  0  0  0  0  0999 V2000
   -6.3775   12.3296  -12.0018 C   0  0  0  0  0  0  0  0  0  0  0  0
   -6.5098   11.7629  -10.7403 C   0  0  0  0  0  0  0  0  0  0  0  0
   -7.7247   10.5660  -13.0266 C   0  0  0  0  0  0  0  0  0  0  0  0
   -6.9942   11.7487  -13.1193 C   0  0  0  0  0  0  0  0  0  0  0  0
   -7.8312   10.0057  -11.7538 C   0  0  0  0  0  0  0  0  0  0  0  0
   -7.2443   10.6021  -10.6070 C   0  0  0  0  0  0  0  0  0  0  0  0
   -7.6167    9.7449   -9.5151 C   0  0  0  0  0  0  0  0  0  0  0  0
   -8.2961    8.7374   -9.9786 N   0  0  0  0  0  0  0  0  0  0  0  0
   -8.4404    8.8724  -11.2937 N   0  0  0  0  0  0  0  0  0  0  0  0
   -7.3318    9.8946   -8.0252 C   0  0  0  0  0  0  0  0  0  0  0  0
   -5.5478   13.5112  -12.1572 C   0  0  0  0  0  0  0  0  0  0  0  0
   -5.9707   10.4870   -7.7351 C   0  0  0  0  0  0  0  0  0  0  0  0
   -5.8642   11.7588   -7.1694 C   0  0  0  0  0  0  0  0  0  0  0  0
   -4.6019   12.3141   -6.9186 C   0  0  0  0  0  0  0  0  0  0  0  0
   -3.4503   11.5963   -7.2357 C   0  0  0  0  0  0  0  0  0  0  0  0
   -3.5604   10.3220   -7.8000 C   0  0  0  0  0  0  0  0  0  0  0  0
   -4.8213    9.7719   -8.0443 C   0  0  0  0  0  0  0  0  0  0  0  0
   -2.0996   12.1710   -6.9757 C   0  0  0  0  0  0  0  0  0  0  0  0
   -1.7487   13.4240   -6.4767 C   0  0  0  0  0  0  0  0  0  0  0  0
   -0.4123   13.4674   -6.4260 N   0  0  0  0  0  0  0  0  0  0  0  0
    0.1713   12.3664   -6.8217 N   0  0  0  0  0  0  0  0  0  0  0  0
   -0.8093   11.5624   -7.1930 C   0  0  0  0  0  0  0  0  0  0  0  0
    0.4224   14.5657   -5.9816 C   0  0  0  0  0  0  0  0  0  0  0  0
   -5.6966   14.2423  -13.2612 N   0  0  0  0  0  0  0  0  0  0  0  0
   -4.9506   15.3153  -13.5405 C   0  0  0  0  0  0  0  0  0  0  0  0
   -3.9383   15.6899  -12.6782 C   0  0  0  0  0  0  0  0  0  0  0  0
   -3.7261   14.9536  -11.5366 C   0  0  0  0  0  0  0  0  0  0  0  0
   -4.5508   13.8769  -11.2437 C   0  0  0  0  0  0  0  0  0  0  0  0
   -2.6976   15.2614  -10.7139 N   0  0  0  0  0  0  0  0  0  0  0  0
   -6.0464   12.2223   -9.8797 H   0  0  0  0  0  0  0  0  0  0  0  0
   -8.1826   10.1089  -13.8914 H   0  0  0  0  0  0  0  0  0  0  0  0
   -6.9001   12.2325  -14.0803 H   0  0  0  0  0  0  0  0  0  0  0  0
   -8.9338    8.2246  -11.8742 H   0  0  0  0  0  0  0  0  0  0  0  0
   -8.0313    9.6067   -7.2544 H   0  0  0  0  0  0  0  0  0  0  0  0
   -6.7563   12.3160   -6.9245 H   0  0  0  0  0  0  0  0  0  0  0  0
   -4.5218   13.2977   -6.4798 H   0  0  0  0  0  0  0  0  0  0  0  0
   -3.4477   12.0425   -8.2411 H   0  0  0  0  0  0  0  0  0  0  0  0
   -2.6703    9.7625   -8.0472 H   0  0  0  0  0  0  0  0  0  0  0  0
   -4.9024    8.7852   -8.4759 H   0  0  0  0  0  0  0  0  0  0  0  0
   -2.4277   14.2118   -6.1857 H   0  0  0  0  0  0  0  0  0  0  0  0
   -0.6637   10.5754   -7.6065 H   0  0  0  0  0  0  0  0  0  0  0  0
    1.4809   14.2752   -6.0543 H   0  0  0  0  0  0  0  0  0  0  0  0
    0.2393   15.4453   -6.6162 H   0  0  0  0  0  0  0  0  0  0  0  0
    0.1804   14.8105   -4.9369 H   0  0  0  0  0  0  0  0  0  0  0  0
   -5.1384   15.8875  -14.4370 H   0  0  0  0  0  0  0  0  0  0  0  0
   -3.3221   16.5493  -12.8978 H   0  0  0  0  0  0  0  0  0  0  0  0
   -4.4255   13.3274  -10.3224 H   0  0  0  0  0  0  0  0  0  0  0  0
   -2.6901   14.6302   -9.9383 H   0  0  0  0  0  0  0  0  0  0  0  0
   -1.8356   15.1840  -11.2148 H   0  0  0  0  0  0  0  0  0  0  0  0
  1  2  2  0  0  0  0
  1  4  1  0  0  0  0
  1 11  1  0  0  0  0
  2  6  1  0  0  0  0
  3  4  2  0  0  0  0
  3  5  1  0  0  0  0
  5  6  2  0  0  0  0
  5  9  1  0  0  0  0
  6  7  1  0  0  0  0
  7  8  2  0  0  0  0
  7 10  1  0  0  0  0
  8  9  1  0  0  0  0
 10 12  2  0  0  0  0
 11 24  2  0  0  0  0
 11 28  1  0  0  0  0
 12 13  1  0  0  0  0
 12 17  1  0  0  0  0
 13 14  2  0  0  0  0
 14 15  1  0  0  0  0
 15 16  1  0  0  0  0
 15 18  1  0  0  0  0
 16 17  2  0  0  0  0
 18 19  2  0  0  0  0
 18 22  1  0  0  0  0
 19 20  1  0  0  0  0
 20 21  1  0  0  0  0
 20 23  1  0  0  0  0
 21 22  2  0  0  0  0
 24 25  1  0  0  0  0
 25 26  2  0  0  0  0
 26 27  1  0  0  0  0
 27 28  2  0  0  0  0
 27 29  1  0  0  0  0
  2 30  1  0  0  0  0
  3 31  1  0  0  0  0
  4 32  1  0  0  0  0
  9 33  1  0  0  0  0
 10 34  1  0  0  0  0
 13 35  1  0  0  0  0
 14 36  1  0  0  0  0
 15 37  1  0  0  0  0
 16 38  1  0  0  0  0
 17 39  1  0  0  0  0
 19 40  1  0  0  0  0
 22 41  1  0  0  0  0
 23 42  1  0  0  0  0
 23 43  1  0  0  0  0
 23 44  1  0  0  0  0
 25 45  1  0  0  0  0
 26 46  1  0  0  0  0
 28 47  1  0  0  0  0
 29 48  1  0  0  0  0
 29 49  1  0  0  0  0
M  END
> <Name>
23

> <IC50[uM]>
0.27

$$$$
23
  -OEChem-05192314333D
 Structure written by MMmdl.
 49 53  0     0  0  0  0  0  0999 V2000
   -6.3775   12.3296  -12.0018 C   0  0  0  0  0  0  0  0  0  0  0  0
   -6.5098   11.7629  -10.7403 C   0  0  0  0  0  0  0  0  0  0  0  0
   -7.7247   10.5660  -13.0266 C   0  0  0  0  0  0  0  0  0  0  0  0
   -6.9942   11.7487  -13.1193 C   0  0  0  0  0  0  0  0  0  0  0  0
   -7.8312   10.0057  -11.7538 C   0  0  0  0  0  0  0  0  0  0  0  0
   -7.2443   10.6021  -10.6070 C   0  0  0  0  0  0  0  0  0  0  0  0
   -7.6167    9.7449   -9.5151 C   0  0  0  0  0  0  0  0  0  0  0  0
   -8.2961    8.7374   -9.9786 N   0  0  0  0  0  0  0  0  0  0  0  0
   -8.4404    8.8724  -11.2937 N   0  0  0  0  0  0  0  0  0  0  0  0
   -7.3318    9.8946   -8.0252 C   0  0  0  0  0  0  0  0  0  0  0  0
   -5.5478   13.5112  -12.1572 C   0  0  0  0  0  0  0  0  0  0  0  0
   -5.9707   10.4870   -7.7351 C   0  0  0  0  0  0  0  0  0  0  0  0
   -5.8642   11.7588   -7.1694 C   0  0  0  0  0  0  0  0  0  0  0  0
   -4.6019   12.3141   -6.9186 C   0  0  0  0  0  0  0  0  0  0  0  0
   -3.4503   11.5963   -7.2357 C   0  0  0  0  0  0  0  0  0  0  0  0
   -3.5604   10.3220   -7.8000 C   0  0  0  0  0  0  0  0  0  0  0  0
   -4.8213    9.7719   -8.0443 C   0  0  0  0  0  0  0  0  0  0  0  0
   -2.0996   12.1710   -6.9757 C   0  0  0  0  0  0  0  0  0  0  0  0
   -1.7487   13.4240   -6.4767 C   0  0  0  0  0  0  0  0  0  0  0  0
   -0.4123   13.4674   -6.4260 N   0  0  0  0  0  0  0  0  0  0  0  0
    0.1713   12.3664   -6.8217 N   0  0  0  0  0  0  0  0  0  0  0  0
   -0.8093   11.5624   -7.1930 C   0  0  0  0  0  0  0  0  0  0  0  0
    0.4224   14.5657   -5.9816 C   0  0  0  0  0  0  0  0  0  0  0  0
   -5.6966   14.2423  -13.2612 N   0  0  0  0  0  0  0  0  0  0  0  0
   -4.9506   15.3153  -13.5405 C   0  0  0  0  0  0  0  0  0  0  0  0
   -3.9383   15.6899  -12.6782 C   0  0  0  0  0  0  0  0  0  0  0  0
   -3.7261   14.9536  -11.5366 C   0  0  0  0  0  0  0  0  0  0  0  0
   -4.5508   13.8769  -11.2437 C   0  0  0  0  0  0  0  0  0  0  0  0
   -2.6976   15.2614  -10.7139 N   0  0  0  0  0  0  0  0  0  0  0  0
   -6.0464   12.2223   -9.8797 H   0  0  0  0  0  0  0  0  0  0  0  0
   -8.1826   10.1089  -13.8914 H   0  0  0  0  0  0  0  0  0  0  0  0
   -6.9001   12.2325  -14.0803 H   0  0  0  0  0  0  0  0  0  0  0  0
   -8.6538    7.9802   -9.4320 H   0  0  0  0  0  0  0  0  0  0  0  0
   -8.0313    9.6067   -7.2544 H   0  0  0  0  0  0  0  0  0  0  0  0
   -6.7563   12.3160   -6.9245 H   0  0  0  0  0  0  0  0  0  0  0  0
   -4.5218   13.2977   -6.4798 H   0  0  0  0  0  0  0  0  0  0  0  0
   -2.6703    9.7625   -8.0472 H   0  0  0  0  0  0  0  0  0  0  0  0
   -4.8715    8.8319   -7.4752 H   0  0  0  0  0  0  0  0  0  0  0  0
   -4.8665    9.5515   -9.1210 H   0  0  0  0  0  0  0  0  0  0  0  0
   -2.4277   14.2118   -6.1857 H   0  0  0  0  0  0  0  0  0  0  0  0
   -0.6637   10.5754   -7.6065 H   0  0  0  0  0  0  0  0  0  0  0  0
    1.4809   14.2752   -6.0543 H   0  0  0  0  0  0  0  0  0  0  0  0
    0.2393   15.4453   -6.6162 H   0  0  0  0  0  0  0  0  0  0  0  0
    0.1804   14.8105   -4.9369 H   0  0  0  0  0  0  0  0  0  0  0  0
   -5.1384   15.8875  -14.4370 H   0  0  0  0  0  0  0  0  0  0  0  0
   -3.3221   16.5493  -12.8978 H   0  0  0  0  0  0  0  0  0  0  0  0
   -4.4255   13.3274  -10.3224 H   0  0  0  0  0  0  0  0  0  0  0  0
   -2.6901   14.6302   -9.9383 H   0  0  0  0  0  0  0  0  0  0  0  0
   -1.8356   15.1840  -11.2148 H   0  0  0  0  0  0  0  0  0  0  0  0
  1  2  2  0  0  0  0
  1  4  1  0  0  0  0
  1 11  1  0  0  0  0
  2  6  1  0  0  0  0
  3  4  2  0  0  0  0
  3  5  1  0  0  0  0
  5  6  1  0  0  0  0
  5  9  2  0  0  0  0
  6  7  2  0  0  0  0
  7  8  1  0  0  0  0
  7 10  1  0  0  0  0
  8  9  1  0  0  0  0
 10 12  2  3  0  0  0
 11 24  2  0  0  0  0
 11 28  1  0  0  0  0
 12 13  1  0  0  0  0
 12 17  1  0  0  0  0
 13 14  2  0  0  0  0
 14 15  1  0  0  0  0
 15 16  2  0  0  0  0
 15 18  1  0  0  0  0
 16 17  1  0  0  0  0
 18 19  2  0  0  0  0
 18 22  1  0  0  0  0
 19 20  1  0  0  0  0
 20 21  1  0  0  0  0
 20 23  1  0  0  0  0
 21 22  2  0  0  0  0
 24 25  1  0  0  0  0
 25 26  2  0  0  0  0
 26 27  1  0  0  0  0
 27 28  2  0  0  0  0
 27 29  1  0  0  0  0
  2 30  1  0  0  0  0
  3 31  1  0  0  0  0
  4 32  1  0  0  0  0
  8 33  1  0  0  0  0
 10 34  1  0  0  0  0
 13 35  1  0  0  0  0
 14 36  1  0  0  0  0
 16 37  1  0  0  0  0
 17 38  1  0  0  0  0
 17 39  1  0  0  0  0
 19 40  1  0  0  0  0
 22 41  1  0  0  0  0
 23 42  1  0  0  0  0
 23 43  1  0  0  0  0
 23 44  1  0  0  0  0
 25 45  1  0  0  0  0
 26 46  1  0  0  0  0
 28 47  1  0  0  0  0
 29 48  1  0  0  0  0
 29 49  1  0  0  0  0
M  END
> <Name>
23

> <IC50[uM]>
0.27

$$$$
23
  -OEChem-05192314333D
 Structure written by MMmdl.
 49 53  0     0  0  0  0  0  0999 V2000
   -6.3775   12.3296  -12.0018 C   0  0  0  0  0  0  0  0  0  0  0  0
   -6.5098   11.7629  -10.7403 C   0  0  0  0  0  0  0  0  0  0  0  0
   -7.7247   10.5660  -13.0266 C   0  0  0  0  0  0  0  0  0  0  0  0
   -6.9942   11.7487  -13.1193 C   0  0  0  0  0  0  0  0  0  0  0  0
   -7.8312   10.0057  -11.7538 C   0  0  0  0  0  0  0  0  0  0  0  0
   -7.2443   10.6021  -10.6070 C   0  0  0  0  0  0  0  0  0  0  0  0
   -7.6167    9.7449   -9.5151 C   0  0  0  0  0  0  0  0  0  0  0  0
   -8.2961    8.7374   -9.9786 N   0  0  0  0  0  0  0  0  0  0  0  0
   -8.4404    8.8724  -11.2937 N   0  0  0  0  0  0  0  0  0  0  0  0
   -7.3318    9.8946   -8.0252 C   0  0  0  0  0  0  0  0  0  0  0  0
   -5.5478   13.5112  -12.1572 C   0  0  0  0  0  0  0  0  0  0  0  0
   -5.9707   10.4870   -7.7351 C   0  0  0  0  0  0  0  0  0  0  0  0
   -5.8642   11.7588   -7.1694 C   0  0  0  0  0  0  0  0  0  0  0  0
   -4.6019   12.3141   -6.9186 C   0  0  0  0  0  0  0  0  0  0  0  0
   -3.4503   11.5963   -7.2357 C   0  0  0  0  0  0  0  0  0  0  0  0
   -3.5604   10.3220   -7.8000 C   0  0  0  0  0  0  0  0  0  0  0  0
   -4.8213    9.7719   -8.0443 C   0  0  0  0  0  0  0  0  0  0  0  0
   -2.0996   12.1710   -6.9757 C   0  0  0  0  0  0  0  0  0  0  0  0
   -1.7487   13.4240   -6.4767 C   0  0  0  0  0  0  0  0  0  0  0  0
   -0.4123   13.4674   -6.4260 N   0  0  0  0  0  0  0  0  0  0  0  0
    0.1713   12.3664   -6.8217 N   0  0  0  0  0  0  0  0  0  0  0  0
   -0.8093   11.5624   -7.1930 C   0  0  0  0  0  0  0  0  0  0  0  0
    0.4224   14.5657   -5.9816 C   0  0  0  0  0  0  0  0  0  0  0  0
   -5.6966   14.2423  -13.2612 N   0  0  0  0  0  0  0  0  0  0  0  0
   -4.9506   15.3153  -13.5405 C   0  0  0  0  0  0  0  0  0  0  0  0
   -3.9383   15.6899  -12.6782 C   0  0  0  0  0  0  0  0  0  0  0  0
   -3.7261   14.9536  -11.5366 C   0  0  0  0  0  0  0  0  0  0  0  0
   -4.5508   13.8769  -11.2437 C   0  0  0  0  0  0  0  0  0  0  0  0
   -2.6976   15.2614  -10.7139 N   0  0  0  0  0  0  0  0  0  0  0  0
   -6.0464   12.2223   -9.8797 H   0  0  0  0  0  0  0  0  0  0  0  0
   -8.1826   10.1089  -13.8914 H   0  0  0  0  0  0  0  0  0  0  0  0
   -6.9001   12.2325  -14.0803 H   0  0  0  0  0  0  0  0  0  0  0  0
   -8.9338    8.2246  -11.8742 H   0  0  0  0  0  0  0  0  0  0  0  0
   -8.0313    9.6067   -7.2544 H   0  0  0  0  0  0  0  0  0  0  0  0
   -6.7563   12.3160   -6.9245 H   0  0  0  0  0  0  0  0  0  0  0  0
   -4.5218   13.2977   -6.4798 H   0  0  0  0  0  0  0  0  0  0  0  0
   -2.6703    9.7625   -8.0472 H   0  0  0  0  0  0  0  0  0  0  0  0
   -4.8715    8.8319   -7.4752 H   0  0  0  0  0  0  0  0  0  0  0  0
   -4.8665    9.5515   -9.1210 H   0  0  0  0  0  0  0  0  0  0  0  0
   -2.4277   14.2118   -6.1857 H   0  0  0  0  0  0  0  0  0  0  0  0
   -0.6637   10.5754   -7.6065 H   0  0  0  0  0  0  0  0  0  0  0  0
    1.4809   14.2752   -6.0543 H   0  0  0  0  0  0  0  0  0  0  0  0
    0.2393   15.4453   -6.6162 H   0  0  0  0  0  0  0  0  0  0  0  0
    0.1804   14.8105   -4.9369 H   0  0  0  0  0  0  0  0  0  0  0  0
   -5.1384   15.8875  -14.4370 H   0  0  0  0  0  0  0  0  0  0  0  0
   -3.3221   16.5493  -12.8978 H   0  0  0  0  0  0  0  0  0  0  0  0
   -4.4255   13.3274  -10.3224 H   0  0  0  0  0  0  0  0  0  0  0  0
   -2.6901   14.6302   -9.9383 H   0  0  0  0  0  0  0  0  0  0  0  0
   -1.8356   15.1840  -11.2148 H   0  0  0  0  0  0  0  0  0  0  0  0
  1  2  2  0  0  0  0
  1  4  1  0  0  0  0
  1 11  1  0  0  0  0
  2  6  1  0  0  0  0
  3  4  2  0  0  0  0
  3  5  1  0  0  0  0
  5  6  2  0  0  0  0
  5  9  1  0  0  0  0
  6  7  1  0  0  0  0
  7  8  2  0  0  0  0
  7 10  1  0  0  0  0
  8  9  1  0  0  0  0
 10 12  2  3  0  0  0
 11 24  2  0  0  0  0
 11 28  1  0  0  0  0
 12 13  1  0  0  0  0
 12 17  1  0  0  0  0
 13 14  2  0  0  0  0
 14 15  1  0  0  0  0
 15 16  2  0  0  0  0
 15 18  1  0  0  0  0
 16 17  1  0  0  0  0
 18 19  2  0  0  0  0
 18 22  1  0  0  0  0
 19 20  1  0  0  0  0
 20 21  1  0  0  0  0
 20 23  1  0  0  0  0
 21 22  2  0  0  0  0
 24 25  1  0  0  0  0
 25 26  2  0  0  0  0
 26 27  1  0  0  0  0
 27 28  2  0  0  0  0
 27 29  1  0  0  0  0
  2 30  1  0  0  0  0
  3 31  1  0  0  0  0
  4 32  1  0  0  0  0
  9 33  1  0  0  0  0
 10 34  1  0  0  0  0
 13 35  1  0  0  0  0
 14 36  1  0  0  0  0
 16 37  1  0  0  0  0
 17 38  1  0  0  0  0
 17 39  1  0  0  0  0
 19 40  1  0  0  0  0
 22 41  1  0  0  0  0
 23 42  1  0  0  0  0
 23 43  1  0  0  0  0
 23 44  1  0  0  0  0
 25 45  1  0  0  0  0
 26 46  1  0  0  0  0
 28 47  1  0  0  0  0
 29 48  1  0  0  0  0
 29 49  1  0  0  0  0
M  END
> <Name>
23

> <IC50[uM]>
0.27

$$$$
23
  -OEChem-05192314333D
 Structure written by MMmdl.
 49 53  0     0  0  0  0  0  0999 V2000
   -6.3775   12.3296  -12.0018 C   0  0  0  0  0  0  0  0  0  0  0  0
   -6.5098   11.7629  -10.7403 C   0  0  0  0  0  0  0  0  0  0  0  0
   -7.7247   10.5660  -13.0266 C   0  0  0  0  0  0  0  0  0  0  0  0
   -6.9942   11.7487  -13.1193 C   0  0  0  0  0  0  0  0  0  0  0  0
   -7.8312   10.0057  -11.7538 C   0  0  0  0  0  0  0  0  0  0  0  0
   -7.2443   10.6021  -10.6070 C   0  0  0  0  0  0  0  0  0  0  0  0
   -7.6167    9.7449   -9.5151 C   0  0  0  0  0  0  0  0  0  0  0  0
   -8.2961    8.7374   -9.9786 N   0  0  0  0  0  0  0  0  0  0  0  0
   -8.4404    8.8724  -11.2937 N   0  0  0  0  0  0  0  0  0  0  0  0
   -7.3318    9.8946   -8.0252 C   0  0  0  0  0  0  0  0  0  0  0  0
   -5.5478   13.5112  -12.1572 C   0  0  0  0  0  0  0  0  0  0  0  0
   -5.9707   10.4870   -7.7351 C   0  0  0  0  0  0  0  0  0  0  0  0
   -5.8642   11.7588   -7.1694 C   0  0  0  0  0  0  0  0  0  0  0  0
   -4.6019   12.3141   -6.9186 C   0  0  0  0  0  0  0  0  0  0  0  0
   -3.4503   11.5963   -7.2357 C   0  0  0  0  0  0  0  0  0  0  0  0
   -3.5604   10.3220   -7.8000 C   0  0  0  0  0  0  0  0  0  0  0  0
   -4.8213    9.7719   -8.0443 C   0  0  0  0  0  0  0  0  0  0  0  0
   -2.0996   12.1710   -6.9757 C   0  0  0  0  0  0  0  0  0  0  0  0
   -1.7487   13.4240   -6.4767 C   0  0  0  0  0  0  0  0  0  0  0  0
   -0.4123   13.4674   -6.4260 N   0  0  0  0  0  0  0  0  0  0  0  0
    0.1713   12.3664   -6.8217 N   0  0  0  0  0  0  0  0  0  0  0  0
   -0.8093   11.5624   -7.1930 C   0  0  0  0  0  0  0  0  0  0  0  0
    0.4224   14.5657   -5.9816 C   0  0  0  0  0  0  0  0  0  0  0  0
   -5.6966   14.2423  -13.2612 N   0  0  0  0  0  0  0  0  0  0  0  0
   -4.9506   15.3153  -13.5405 C   0  0  0  0  0  0  0  0  0  0  0  0
   -3.9383   15.6899  -12.6782 C   0  0  0  0  0  0  0  0  0  0  0  0
   -3.7261   14.9536  -11.5366 C   0  0  0  0  0  0  0  0  0  0  0  0
   -4.5508   13.8769  -11.2437 C   0  0  0  0  0  0  0  0  0  0  0  0
   -2.6976   15.2614  -10.7139 N   0  0  0  0  0  0  0  0  0  0  0  0
   -6.0464   12.2223   -9.8797 H   0  0  0  0  0  0  0  0  0  0  0  0
   -8.1826   10.1089  -13.8914 H   0  0  0  0  0  0  0  0  0  0  0  0
   -6.9001   12.2325  -14.0803 H   0  0  0  0  0  0  0  0  0  0  0  0
   -8.6538    7.9802   -9.4320 H   0  0  0  0  0  0  0  0  0  0  0  0
   -8.0313    9.6067   -7.2544 H   0  0  0  0  0  0  0  0  0  0  0  0
   -6.7563   12.3160   -6.9245 H   0  0  0  0  0  0  0  0  0  0  0  0
   -4.5218   13.2977   -6.4798 H   0  0  0  0  0  0  0  0  0  0  0  0
   -3.4477   12.0425   -8.2411 H   0  0  0  0  0  0  0  0  0  0  0  0
   -2.6703    9.7625   -8.0472 H   0  0  0  0  0  0  0  0  0  0  0  0
   -4.9024    8.7852   -8.4759 H   0  0  0  0  0  0  0  0  0  0  0  0
   -2.4277   14.2118   -6.1857 H   0  0  0  0  0  0  0  0  0  0  0  0
   -0.6637   10.5754   -7.6065 H   0  0  0  0  0  0  0  0  0  0  0  0
    1.4809   14.2752   -6.0543 H   0  0  0  0  0  0  0  0  0  0  0  0
    0.2393   15.4453   -6.6162 H   0  0  0  0  0  0  0  0  0  0  0  0
    0.1804   14.8105   -4.9369 H   0  0  0  0  0  0  0  0  0  0  0  0
   -6.4038   13.9739  -13.9153 H   0  0  0  0  0  0  0  0  0  0  0  0
   -5.1384   15.8875  -14.4370 H   0  0  0  0  0  0  0  0  0  0  0  0
   -3.3221   16.5493  -12.8978 H   0  0  0  0  0  0  0  0  0  0  0  0
   -4.4255   13.3274  -10.3224 H   0  0  0  0  0  0  0  0  0  0  0  0
   -2.6419   14.6376   -9.9343 H   0  0  0  0  0  0  0  0  0  0  0  0
  1  2  2  0  0  0  0
  1  4  1  0  0  0  0
  1 11  1  0  0  0  0
  2  6  1  0  0  0  0
  3  4  2  0  0  0  0
  3  5  1  0  0  0  0
  5  6  1  0  0  0  0
  5  9  2  0  0  0  0
  6  7  2  0  0  0  0
  7  8  1  0  0  0  0
  7 10  1  0  0  0  0
  8  9  1  0  0  0  0
 10 12  2  0  0  0  0
 11 24  1  0  0  0  0
 11 28  2  0  0  0  0
 12 13  1  0  0  0  0
 12 17  1  0  0  0  0
 13 14  2  0  0  0  0
 14 15  1  0  0  0  0
 15 16  1  0  0  0  0
 15 18  1  0  0  0  0
 16 17  2  0  0  0  0
 18 19  2  0  0  0  0
 18 22  1  0  0  0  0
 19 20  1  0  0  0  0
 20 21  1  0  0  0  0
 20 23  1  0  0  0  0
 21 22  2  0  0  0  0
 24 25  1  0  0  0  0
 25 26  2  0  0  0  0
 26 27  1  0  0  0  0
 27 28  1  0  0  0  0
 27 29  2  0  0  0  0
  2 30  1  0  0  0  0
  3 31  1  0  0  0  0
  4 32  1  0  0  0  0
  8 33  1  0  0  0  0
 10 34  1  0  0  0  0
 13 35  1  0  0  0  0
 14 36  1  0  0  0  0
 15 37  1  0  0  0  0
 16 38  1  0  0  0  0
 17 39  1  0  0  0  0
 19 40  1  0  0  0  0
 22 41  1  0  0  0  0
 23 42  1  0  0  0  0
 23 43  1  0  0  0  0
 23 44  1  0  0  0  0
 24 45  1  0  0  0  0
 25 46  1  0  0  0  0
 26 47  1  0  0  0  0
 28 48  1  0  0  0  0
 29 49  1  0  0  0  0
M  END
> <Name>
23

> <IC50[uM]>
0.27

$$$$
23
  -OEChem-05192314333D
 Structure written by MMmdl.
 49 53  0     0  0  0  0  0  0999 V2000
   -6.3775   12.3296  -12.0018 C   0  0  0  0  0  0  0  0  0  0  0  0
   -6.5098   11.7629  -10.7403 C   0  0  0  0  0  0  0  0  0  0  0  0
   -7.7247   10.5660  -13.0266 C   0  0  0  0  0  0  0  0  0  0  0  0
   -6.9942   11.7487  -13.1193 C   0  0  0  0  0  0  0  0  0  0  0  0
   -7.8312   10.0057  -11.7538 C   0  0  0  0  0  0  0  0  0  0  0  0
   -7.2443   10.6021  -10.6070 C   0  0  0  0  0  0  0  0  0  0  0  0
   -7.6167    9.7449   -9.5151 C   0  0  0  0  0  0  0  0  0  0  0  0
   -8.2961    8.7374   -9.9786 N   0  0  0  0  0  0  0  0  0  0  0  0
   -8.4404    8.8724  -11.2937 N   0  0  0  0  0  0  0  0  0  0  0  0
   -7.3318    9.8946   -8.0252 C   0  0  0  0  0  0  0  0  0  0  0  0
   -5.5478   13.5112  -12.1572 C   0  0  0  0  0  0  0  0  0  0  0  0
   -5.9707   10.4870   -7.7351 C   0  0  0  0  0  0  0  0  0  0  0  0
   -5.8642   11.7588   -7.1694 C   0  0  0  0  0  0  0  0  0  0  0  0
   -4.6019   12.3141   -6.9186 C   0  0  0  0  0  0  0  0  0  0  0  0
   -3.4503   11.5963   -7.2357 C   0  0  0  0  0  0  0  0  0  0  0  0
   -3.5604   10.3220   -7.8000 C   0  0  0  0  0  0  0  0  0  0  0  0
   -4.8213    9.7719   -8.0443 C   0  0  0  0  0  0  0  0  0  0  0  0
   -2.0996   12.1710   -6.9757 C   0  0  0  0  0  0  0  0  0  0  0  0
   -1.7487   13.4240   -6.4767 C   0  0  0  0  0  0  0  0  0  0  0  0
   -0.4123   13.4674   -6.4260 N   0  0  0  0  0  0  0  0  0  0  0  0
    0.1713   12.3664   -6.8217 N   0  0  0  0  0  0  0  0  0  0  0  0
   -0.8093   11.5624   -7.1930 C   0  0  0  0  0  0  0  0  0  0  0  0
    0.4224   14.5657   -5.9816 C   0  0  0  0  0  0  0  0  0  0  0  0
   -5.6966   14.2423  -13.2612 N   0  0  0  0  0  0  0  0  0  0  0  0
   -4.9506   15.3153  -13.5405 C   0  0  0  0  0  0  0  0  0  0  0  0
   -3.9383   15.6899  -12.6782 C   0  0  0  0  0  0  0  0  0  0  0  0
   -3.7261   14.9536  -11.5366 C   0  0  0  0  0  0  0  0  0  0  0  0
   -4.5508   13.8769  -11.2437 C   0  0  0  0  0  0  0  0  0  0  0  0
   -2.6976   15.2614  -10.7139 N   0  0  0  0  0  0  0  0  0  0  0  0
   -6.0464   12.2223   -9.8797 H   0  0  0  0  0  0  0  0  0  0  0  0
   -8.1826   10.1089  -13.8914 H   0  0  0  0  0  0  0  0  0  0  0  0
   -6.9001   12.2325  -14.0803 H   0  0  0  0  0  0  0  0  0  0  0  0
   -8.9338    8.2246  -11.8742 H   0  0  0  0  0  0  0  0  0  0  0  0
   -8.0313    9.6067   -7.2544 H   0  0  0  0  0  0  0  0  0  0  0  0
   -6.7563   12.3160   -6.9245 H   0  0  0  0  0  0  0  0  0  0  0  0
   -4.5218   13.2977   -6.4798 H   0  0  0  0  0  0  0  0  0  0  0  0
   -3.4477   12.0425   -8.2411 H   0  0  0  0  0  0  0  0  0  0  0  0
   -2.6703    9.7625   -8.0472 H   0  0  0  0  0  0  0  0  0  0  0  0
   -4.9024    8.7852   -8.4759 H   0  0  0  0  0  0  0  0  0  0  0  0
   -2.4277   14.2118   -6.1857 H   0  0  0  0  0  0  0  0  0  0  0  0
   -0.6637   10.5754   -7.6065 H   0  0  0  0  0  0  0  0  0  0  0  0
    1.4809   14.2752   -6.0543 H   0  0  0  0  0  0  0  0  0  0  0  0
    0.2393   15.4453   -6.6162 H   0  0  0  0  0  0  0  0  0  0  0  0
    0.1804   14.8105   -4.9369 H   0  0  0  0  0  0  0  0  0  0  0  0
   -6.4038   13.9739  -13.9153 H   0  0  0  0  0  0  0  0  0  0  0  0
   -5.1384   15.8875  -14.4370 H   0  0  0  0  0  0  0  0  0  0  0  0
   -3.3221   16.5493  -12.8978 H   0  0  0  0  0  0  0  0  0  0  0  0
   -4.4255   13.3274  -10.3224 H   0  0  0  0  0  0  0  0  0  0  0  0
   -2.6419   14.6376   -9.9343 H   0  0  0  0  0  0  0  0  0  0  0  0
  1  2  2  0  0  0  0
  1  4  1  0  0  0  0
  1 11  1  0  0  0  0
  2  6  1  0  0  0  0
  3  4  2  0  0  0  0
  3  5  1  0  0  0  0
  5  6  2  0  0  0  0
  5  9  1  0  0  0  0
  6  7  1  0  0  0  0
  7  8  2  0  0  0  0
  7 10  1  0  0  0  0
  8  9  1  0  0  0  0
 10 12  2  0  0  0  0
 11 24  1  0  0  0  0
 11 28  2  0  0  0  0
 12 13  1  0  0  0  0
 12 17  1  0  0  0  0
 13 14  2  0  0  0  0
 14 15  1  0  0  0  0
 15 16  1  0  0  0  0
 15 18  1  0  0  0  0
 16 17  2  0  0  0  0
 18 19  2  0  0  0  0
 18 22  1  0  0  0  0
 19 20  1  0  0  0  0
 20 21  1  0  0  0  0
 20 23  1  0  0  0  0
 21 22  2  0  0  0  0
 24 25  1  0  0  0  0
 25 26  2  0  0  0  0
 26 27  1  0  0  0  0
 27 28  1  0  0  0  0
 27 29  2  0  0  0  0
  2 30  1  0  0  0  0
  3 31  1  0  0  0  0
  4 32  1  0  0  0  0
  9 33  1  0  0  0  0
 10 34  1  0  0  0  0
 13 35  1  0  0  0  0
 14 36  1  0  0  0  0
 15 37  1  0  0  0  0
 16 38  1  0  0  0  0
 17 39  1  0  0  0  0
 19 40  1  0  0  0  0
 22 41  1  0  0  0  0
 23 42  1  0  0  0  0
 23 43  1  0  0  0  0
 23 44  1  0  0  0  0
 24 45  1  0  0  0  0
 25 46  1  0  0  0  0
 26 47  1  0  0  0  0
 28 48  1  0  0  0  0
 29 49  1  0  0  0  0
M  END
> <Name>
23

> <IC50[uM]>
0.27

$$$$
23
  -OEChem-05192314333D
 Structure written by MMmdl.
 49 53  0     0  0  0  0  0  0999 V2000
   -6.3775   12.3296  -12.0018 C   0  0  0  0  0  0  0  0  0  0  0  0
   -6.5098   11.7629  -10.7403 C   0  0  0  0  0  0  0  0  0  0  0  0
   -7.7247   10.5660  -13.0266 C   0  0  0  0  0  0  0  0  0  0  0  0
   -6.9942   11.7487  -13.1193 C   0  0  0  0  0  0  0  0  0  0  0  0
   -7.8312   10.0057  -11.7538 C   0  0  0  0  0  0  0  0  0  0  0  0
   -7.2443   10.6021  -10.6070 C   0  0  0  0  0  0  0  0  0  0  0  0
   -7.6167    9.7449   -9.5151 C   0  0  0  0  0  0  0  0  0  0  0  0
   -8.2961    8.7374   -9.9786 N   0  0  0  0  0  0  0  0  0  0  0  0
   -8.4404    8.8724  -11.2937 N   0  0  0  0  0  0  0  0  0  0  0  0
   -7.3318    9.8946   -8.0252 C   0  0  0  0  0  0  0  0  0  0  0  0
   -5.5478   13.5112  -12.1572 C   0  0  0  0  0  0  0  0  0  0  0  0
   -5.9707   10.4870   -7.7351 C   0  0  0  0  0  0  0  0  0  0  0  0
   -5.8642   11.7588   -7.1694 C   0  0  0  0  0  0  0  0  0  0  0  0
   -4.6019   12.3141   -6.9186 C   0  0  0  0  0  0  0  0  0  0  0  0
   -3.4503   11.5963   -7.2357 C   0  0  0  0  0  0  0  0  0  0  0  0
   -3.5604   10.3220   -7.8000 C   0  0  0  0  0  0  0  0  0  0  0  0
   -4.8213    9.7719   -8.0443 C   0  0  0  0  0  0  0  0  0  0  0  0
   -2.0996   12.1710   -6.9757 C   0  0  0  0  0  0  0  0  0  0  0  0
   -1.7487   13.4240   -6.4767 C   0  0  0  0  0  0  0  0  0  0  0  0
   -0.4123   13.4674   -6.4260 N   0  0  0  0  0  0  0  0  0  0  0  0
    0.1713   12.3664   -6.8217 N   0  0  0  0  0  0  0  0  0  0  0  0
   -0.8093   11.5624   -7.1930 C   0  0  0  0  0  0  0  0  0  0  0  0
    0.4224   14.5657   -5.9816 C   0  0  0  0  0  0  0  0  0  0  0  0
   -5.6966   14.2423  -13.2612 N   0  0  0  0  0  0  0  0  0  0  0  0
   -4.9506   15.3153  -13.5405 C   0  0  0  0  0  0  0  0  0  0  0  0
   -3.9383   15.6899  -12.6782 C   0  0  0  0  0  0  0  0  0  0  0  0
   -3.7261   14.9536  -11.5366 C   0  0  0  0  0  0  0  0  0  0  0  0
   -4.5508   13.8769  -11.2437 C   0  0  0  0  0  0  0  0  0  0  0  0
   -2.6976   15.2614  -10.7139 N   0  0  0  0  0  0  0  0  0  0  0  0
   -6.0464   12.2223   -9.8797 H   0  0  0  0  0  0  0  0  0  0  0  0
   -8.1826   10.1089  -13.8914 H   0  0  0  0  0  0  0  0  0  0  0  0
   -6.9001   12.2325  -14.0803 H   0  0  0  0  0  0  0  0  0  0  0  0
   -8.6538    7.9802   -9.4320 H   0  0  0  0  0  0  0  0  0  0  0  0
   -8.0313    9.6067   -7.2544 H   0  0  0  0  0  0  0  0  0  0  0  0
   -6.7563   12.3160   -6.9245 H   0  0  0  0  0  0  0  0  0  0  0  0
   -4.5218   13.2977   -6.4798 H   0  0  0  0  0  0  0  0  0  0  0  0
   -2.6703    9.7625   -8.0472 H   0  0  0  0  0  0  0  0  0  0  0  0
   -4.8715    8.8319   -7.4752 H   0  0  0  0  0  0  0  0  0  0  0  0
   -4.8665    9.5515   -9.1210 H   0  0  0  0  0  0  0  0  0  0  0  0
   -2.4277   14.2118   -6.1857 H   0  0  0  0  0  0  0  0  0  0  0  0
   -0.6637   10.5754   -7.6065 H   0  0  0  0  0  0  0  0  0  0  0  0
    1.4809   14.2752   -6.0543 H   0  0  0  0  0  0  0  0  0  0  0  0
    0.2393   15.4453   -6.6162 H   0  0  0  0  0  0  0  0  0  0  0  0
    0.1804   14.8105   -4.9369 H   0  0  0  0  0  0  0  0  0  0  0  0
   -6.4038   13.9739  -13.9153 H   0  0  0  0  0  0  0  0  0  0  0  0
   -5.1384   15.8875  -14.4370 H   0  0  0  0  0  0  0  0  0  0  0  0
   -3.3221   16.5493  -12.8978 H   0  0  0  0  0  0  0  0  0  0  0  0
   -4.4255   13.3274  -10.3224 H   0  0  0  0  0  0  0  0  0  0  0  0
   -2.6419   14.6376   -9.9343 H   0  0  0  0  0  0  0  0  0  0  0  0
  1  2  2  0  0  0  0
  1  4  1  0  0  0  0
  1 11  1  0  0  0  0
  2  6  1  0  0  0  0
  3  4  2  0  0  0  0
  3  5  1  0  0  0  0
  5  6  1  0  0  0  0
  5  9  2  0  0  0  0
  6  7  2  0  0  0  0
  7  8  1  0  0  0  0
  7 10  1  0  0  0  0
  8  9  1  0  0  0  0
 10 12  2  3  0  0  0
 11 24  1  0  0  0  0
 11 28  2  0  0  0  0
 12 13  1  0  0  0  0
 12 17  1  0  0  0  0
 13 14  2  0  0  0  0
 14 15  1  0  0  0  0
 15 16  2  0  0  0  0
 15 18  1  0  0  0  0
 16 17  1  0  0  0  0
 18 19  2  0  0  0  0
 18 22  1  0  0  0  0
 19 20  1  0  0  0  0
 20 21  1  0  0  0  0
 20 23  1  0  0  0  0
 21 22  2  0  0  0  0
 24 25  1  0  0  0  0
 25 26  2  0  0  0  0
 26 27  1  0  0  0  0
 27 28  1  0  0  0  0
 27 29  2  0  0  0  0
  2 30  1  0  0  0  0
  3 31  1  0  0  0  0
  4 32  1  0  0  0  0
  8 33  1  0  0  0  0
 10 34  1  0  0  0  0
 13 35  1  0  0  0  0
 14 36  1  0  0  0  0
 16 37  1  0  0  0  0
 17 38  1  0  0  0  0
 17 39  1  0  0  0  0
 19 40  1  0  0  0  0
 22 41  1  0  0  0  0
 23 42  1  0  0  0  0
 23 43  1  0  0  0  0
 23 44  1  0  0  0  0
 24 45  1  0  0  0  0
 25 46  1  0  0  0  0
 26 47  1  0  0  0  0
 28 48  1  0  0  0  0
 29 49  1  0  0  0  0
M  END
> <Name>
23

> <IC50[uM]>
0.27

$$$$
23
  -OEChem-05192314333D
 Structure written by MMmdl.
 49 53  0     0  0  0  0  0  0999 V2000
   -6.3775   12.3296  -12.0018 C   0  0  0  0  0  0  0  0  0  0  0  0
   -6.5098   11.7629  -10.7403 C   0  0  0  0  0  0  0  0  0  0  0  0
   -7.7247   10.5660  -13.0266 C   0  0  0  0  0  0  0  0  0  0  0  0
   -6.9942   11.7487  -13.1193 C   0  0  0  0  0  0  0  0  0  0  0  0
   -7.8312   10.0057  -11.7538 C   0  0  0  0  0  0  0  0  0  0  0  0
   -7.2443   10.6021  -10.6070 C   0  0  0  0  0  0  0  0  0  0  0  0
   -7.6167    9.7449   -9.5151 C   0  0  0  0  0  0  0  0  0  0  0  0
   -8.2961    8.7374   -9.9786 N   0  0  0  0  0  0  0  0  0  0  0  0
   -8.4404    8.8724  -11.2937 N   0  0  0  0  0  0  0  0  0  0  0  0
   -7.3318    9.8946   -8.0252 C   0  0  0  0  0  0  0  0  0  0  0  0
   -5.5478   13.5112  -12.1572 C   0  0  0  0  0  0  0  0  0  0  0  0
   -5.9707   10.4870   -7.7351 C   0  0  0  0  0  0  0  0  0  0  0  0
   -5.8642   11.7588   -7.1694 C   0  0  0  0  0  0  0  0  0  0  0  0
   -4.6019   12.3141   -6.9186 C   0  0  0  0  0  0  0  0  0  0  0  0
   -3.4503   11.5963   -7.2357 C   0  0  0  0  0  0  0  0  0  0  0  0
   -3.5604   10.3220   -7.8000 C   0  0  0  0  0  0  0  0  0  0  0  0
   -4.8213    9.7719   -8.0443 C   0  0  0  0  0  0  0  0  0  0  0  0
   -2.0996   12.1710   -6.9757 C   0  0  0  0  0  0  0  0  0  0  0  0
   -1.7487   13.4240   -6.4767 C   0  0  0  0  0  0  0  0  0  0  0  0
   -0.4123   13.4674   -6.4260 N   0  0  0  0  0  0  0  0  0  0  0  0
    0.1713   12.3664   -6.8217 N   0  0  0  0  0  0  0  0  0  0  0  0
   -0.8093   11.5624   -7.1930 C   0  0  0  0  0  0  0  0  0  0  0  0
    0.4224   14.5657   -5.9816 C   0  0  0  0  0  0  0  0  0  0  0  0
   -5.6966   14.2423  -13.2612 N   0  0  0  0  0  0  0  0  0  0  0  0
   -4.9506   15.3153  -13.5405 C   0  0  0  0  0  0  0  0  0  0  0  0
   -3.9383   15.6899  -12.6782 C   0  0  0  0  0  0  0  0  0  0  0  0
   -3.7261   14.9536  -11.5366 C   0  0  0  0  0  0  0  0  0  0  0  0
   -4.5508   13.8769  -11.2437 C   0  0  0  0  0  0  0  0  0  0  0  0
   -2.6976   15.2614  -10.7139 N   0  0  0  0  0  0  0  0  0  0  0  0
   -6.0464   12.2223   -9.8797 H   0  0  0  0  0  0  0  0  0  0  0  0
   -8.1826   10.1089  -13.8914 H   0  0  0  0  0  0  0  0  0  0  0  0
   -6.9001   12.2325  -14.0803 H   0  0  0  0  0  0  0  0  0  0  0  0
   -8.9338    8.2246  -11.8742 H   0  0  0  0  0  0  0  0  0  0  0  0
   -8.0313    9.6067   -7.2544 H   0  0  0  0  0  0  0  0  0  0  0  0
   -6.7563   12.3160   -6.9245 H   0  0  0  0  0  0  0  0  0  0  0  0
   -4.5218   13.2977   -6.4798 H   0  0  0  0  0  0  0  0  0  0  0  0
   -2.6703    9.7625   -8.0472 H   0  0  0  0  0  0  0  0  0  0  0  0
   -4.8715    8.8319   -7.4752 H   0  0  0  0  0  0  0  0  0  0  0  0
   -4.8665    9.5515   -9.1210 H   0  0  0  0  0  0  0  0  0  0  0  0
   -2.4277   14.2118   -6.1857 H   0  0  0  0  0  0  0  0  0  0  0  0
   -0.6637   10.5754   -7.6065 H   0  0  0  0  0  0  0  0  0  0  0  0
    1.4809   14.2752   -6.0543 H   0  0  0  0  0  0  0  0  0  0  0  0
    0.2393   15.4453   -6.6162 H   0  0  0  0  0  0  0  0  0  0  0  0
    0.1804   14.8105   -4.9369 H   0  0  0  0  0  0  0  0  0  0  0  0
   -6.4038   13.9739  -13.9153 H   0  0  0  0  0  0  0  0  0  0  0  0
   -5.1384   15.8875  -14.4370 H   0  0  0  0  0  0  0  0  0  0  0  0
   -3.3221   16.5493  -12.8978 H   0  0  0  0  0  0  0  0  0  0  0  0
   -4.4255   13.3274  -10.3224 H   0  0  0  0  0  0  0  0  0  0  0  0
   -2.6419   14.6376   -9.9343 H   0  0  0  0  0  0  0  0  0  0  0  0
  1  2  2  0  0  0  0
  1  4  1  0  0  0  0
  1 11  1  0  0  0  0
  2  6  1  0  0  0  0
  3  4  2  0  0  0  0
  3  5  1  0  0  0  0
  5  6  2  0  0  0  0
  5  9  1  0  0  0  0
  6  7  1  0  0  0  0
  7  8  2  0  0  0  0
  7 10  1  0  0  0  0
  8  9  1  0  0  0  0
 10 12  2  3  0  0  0
 11 24  1  0  0  0  0
 11 28  2  0  0  0  0
 12 13  1  0  0  0  0
 12 17  1  0  0  0  0
 13 14  2  0  0  0  0
 14 15  1  0  0  0  0
 15 16  2  0  0  0  0
 15 18  1  0  0  0  0
 16 17  1  0  0  0  0
 18 19  2  0  0  0  0
 18 22  1  0  0  0  0
 19 20  1  0  0  0  0
 20 21  1  0  0  0  0
 20 23  1  0  0  0  0
 21 22  2  0  0  0  0
 24 25  1  0  0  0  0
 25 26  2  0  0  0  0
 26 27  1  0  0  0  0
 27 28  1  0  0  0  0
 27 29  2  0  0  0  0
  2 30  1  0  0  0  0
  3 31  1  0  0  0  0
  4 32  1  0  0  0  0
  9 33  1  0  0  0  0
 10 34  1  0  0  0  0
 13 35  1  0  0  0  0
 14 36  1  0  0  0  0
 16 37  1  0  0  0  0
 17 38  1  0  0  0  0
 17 39  1  0  0  0  0
 19 40  1  0  0  0  0
 22 41  1  0  0  0  0
 23 42  1  0  0  0  0
 23 43  1  0  0  0  0
 23 44  1  0  0  0  0
 24 45  1  0  0  0  0
 25 46  1  0  0  0  0
 26 47  1  0  0  0  0
 28 48  1  0  0  0  0
 29 49  1  0  0  0  0
M  END
> <Name>
23

> <IC50[uM]>
0.27

$$$$
23
  -OEChem-05192314333D
 Structure written by MMmdl.
 49 53  0     1  0  0  0  0  0999 V2000
   -6.3775   12.3296  -12.0018 C   0  0  0  0  0  0  0  0  0  0  0  0
   -6.5098   11.7629  -10.7403 C   0  0  0  0  0  0  0  0  0  0  0  0
   -7.7247   10.5660  -13.0266 C   0  0  0  0  0  0  0  0  0  0  0  0
   -6.9942   11.7487  -13.1193 C   0  0  0  0  0  0  0  0  0  0  0  0
   -7.8312   10.0057  -11.7538 C   0  0  0  0  0  0  0  0  0  0  0  0
   -7.2443   10.6021  -10.6070 C   0  0  0  0  0  0  0  0  0  0  0  0
   -7.6167    9.7449   -9.5151 C   0  0  0  0  0  0  0  0  0  0  0  0
   -8.2961    8.7374   -9.9786 N   0  0  0  0  0  0  0  0  0  0  0  0
   -8.4404    8.8724  -11.2937 N   0  0  0  0  0  0  0  0  0  0  0  0
   -7.3318    9.8946   -8.0252 C   0  0  0  0  0  0  0  0  0  0  0  0
   -5.5478   13.5112  -12.1572 C   0  0  0  0  0  0  0  0  0  0  0  0
   -5.9707   10.4870   -7.7351 C   0  0  0  0  0  0  0  0  0  0  0  0
   -5.8642   11.7588   -7.1694 C   0  0  0  0  0  0  0  0  0  0  0  0
   -4.6019   12.3141   -6.9186 C   0  0  0  0  0  0  0  0  0  0  0  0
   -3.4503   11.5963   -7.2357 C   0  0  0  0  0  0  0  0  0  0  0  0
   -3.5604   10.3220   -7.8000 C   0  0  0  0  0  0  0  0  0  0  0  0
   -4.8213    9.7719   -8.0443 C   0  0  0  0  0  0  0  0  0  0  0  0
   -2.0996   12.1710   -6.9757 C   0  0  3  0  0  0  0  0  0  0  0  0
   -1.7487   13.4240   -6.4767 C   0  0  0  0  0  0  0  0  0  0  0  0
   -0.4123   13.4674   -6.4260 N   0  0  3  0  0  0  0  0  0  0  0  0
    0.1713   12.3664   -6.8217 N   0  0  0  0  0  0  0  0  0  0  0  0
   -0.8093   11.5624   -7.1930 C   0  0  0  0  0  0  0  0  0  0  0  0
    0.4224   14.5657   -5.9816 C   0  0  0  0  0  0  0  0  0  0  0  0
   -5.6966   14.2423  -13.2612 N   0  0  0  0  0  0  0  0  0  0  0  0
   -4.9506   15.3153  -13.5405 C   0  0  0  0  0  0  0  0  0  0  0  0
   -3.9383   15.6899  -12.6782 C   0  0  0  0  0  0  0  0  0  0  0  0
   -3.7261   14.9536  -11.5366 C   0  0  0  0  0  0  0  0  0  0  0  0
   -4.5508   13.8769  -11.2437 C   0  0  0  0  0  0  0  0  0  0  0  0
   -2.6976   15.2614  -10.7139 N   0  0  0  0  0  0  0  0  0  0  0  0
   -6.0464   12.2223   -9.8797 H   0  0  0  0  0  0  0  0  0  0  0  0
   -8.1826   10.1089  -13.8914 H   0  0  0  0  0  0  0  0  0  0  0  0
   -6.9001   12.2325  -14.0803 H   0  0  0  0  0  0  0  0  0  0  0  0
   -8.0313    9.6067   -7.2544 H   0  0  0  0  0  0  0  0  0  0  0  0
   -6.7563   12.3160   -6.9245 H   0  0  0  0  0  0  0  0  0  0  0  0
   -4.5218   13.2977   -6.4798 H   0  0  0  0  0  0  0  0  0  0  0  0
   -2.6703    9.7625   -8.0472 H   0  0  0  0  0  0  0  0  0  0  0  0
   -4.9024    8.7852   -8.4759 H   0  0  0  0  0  0  0  0  0  0  0  0
   -2.1213   11.7665   -5.9530 H   0  0  0  0  0  0  0  0  0  0  0  0
   -2.1269   14.2144   -7.1418 H   0  0  0  0  0  0  0  0  0  0  0  0
   -2.1691   13.5602   -5.4694 H   0  0  0  0  0  0  0  0  0  0  0  0
   -0.6637   10.5754   -7.6065 H   0  0  0  0  0  0  0  0  0  0  0  0
    1.4809   14.2752   -6.0543 H   0  0  0  0  0  0  0  0  0  0  0  0
    0.2393   15.4453   -6.6162 H   0  0  0  0  0  0  0  0  0  0  0  0
    0.1804   14.8105   -4.9369 H   0  0  0  0  0  0  0  0  0  0  0  0
   -5.1384   15.8875  -14.4370 H   0  0  0  0  0  0  0  0  0  0  0  0
   -3.3221   16.5493  -12.8978 H   0  0  0  0  0  0  0  0  0  0  0  0
   -4.4255   13.3274  -10.3224 H   0  0  0  0  0  0  0  0  0  0  0  0
   -2.6901   14.6302   -9.9383 H   0  0  0  0  0  0  0  0  0  0  0  0
   -1.8356   15.1840  -11.2148 H   0  0  0  0  0  0  0  0  0  0  0  0
  1  2  2  0  0  0  0
  1  4  1  0  0  0  0
  1 11  1  0  0  0  0
  2  6  1  0  0  0  0
  3  4  2  0  0  0  0
  3  5  1  0  0  0  0
  5  6  2  0  0  0  0
  5  9  1  0  0  0  0
  6  7  1  0  0  0  0
  7  8  1  0  0  0  0
  7 10  2  3  0  0  0
  8  9  2  0  0  0  0
 10 12  1  0  0  0  0
 11 24  2  0  0  0  0
 11 28  1  0  0  0  0
 12 13  2  0  0  0  0
 12 17  1  0  0  0  0
 13 14  1  0  0  0  0
 14 15  2  0  0  0  0
 15 16  1  0  0  0  0
 15 18  1  0  0  0  0
 16 17  2  0  0  0  0
 18 19  1  0  0  0  0
 18 22  1  0  0  0  0
 19 20  1  0  0  0  0
 20 21  1  0  0  0  0
 20 23  1  0  0  0  0
 21 22  2  0  0  0  0
 24 25  1  0  0  0  0
 25 26  2  0  0  0  0
 26 27  1  0  0  0  0
 27 28  2  0  0  0  0
 27 29  1  0  0  0  0
  2 30  1  0  0  0  0
  3 31  1  0  0  0  0
  4 32  1  0  0  0  0
 10 33  1  0  0  0  0
 13 34  1  0  0  0  0
 14 35  1  0  0  0  0
 16 36  1  0  0  0  0
 17 37  1  0  0  0  0
 18 38  1  0  0  0  0
 19 39  1  0  0  0  0
 19 40  1  0  0  0  0
 22 41  1  0  0  0  0
 23 42  1  0  0  0  0
 23 43  1  0  0  0  0
 23 44  1  0  0  0  0
 25 45  1  0  0  0  0
 26 46  1  0  0  0  0
 28 47  1  0  0  0  0
 29 48  1  0  0  0  0
 29 49  1  0  0  0  0
M  END
> <Name>
23

> <IC50[uM]>
0.27

$$$$
23
  -OEChem-05192314333D
 Structure written by MMmdl.
 49 53  0     1  0  0  0  0  0999 V2000
   -6.3775   12.3296  -12.0018 C   0  0  0  0  0  0  0  0  0  0  0  0
   -6.5098   11.7629  -10.7403 C   0  0  0  0  0  0  0  0  0  0  0  0
   -7.7247   10.5660  -13.0266 C   0  0  0  0  0  0  0  0  0  0  0  0
   -6.9942   11.7487  -13.1193 C   0  0  0  0  0  0  0  0  0  0  0  0
   -7.8312   10.0057  -11.7538 C   0  0  0  0  0  0  0  0  0  0  0  0
   -7.2443   10.6021  -10.6070 C   0  0  0  0  0  0  0  0  0  0  0  0
   -7.6167    9.7449   -9.5151 C   0  0  0  0  0  0  0  0  0  0  0  0
   -8.2961    8.7374   -9.9786 N   0  0  0  0  0  0  0  0  0  0  0  0
   -8.4404    8.8724  -11.2937 N   0  0  0  0  0  0  0  0  0  0  0  0
   -7.3318    9.8946   -8.0252 C   0  0  0  0  0  0  0  0  0  0  0  0
   -5.5478   13.5112  -12.1572 C   0  0  0  0  0  0  0  0  0  0  0  0
   -5.9707   10.4870   -7.7351 C   0  0  0  0  0  0  0  0  0  0  0  0
   -5.8642   11.7588   -7.1694 C   0  0  0  0  0  0  0  0  0  0  0  0
   -4.6019   12.3141   -6.9186 C   0  0  0  0  0  0  0  0  0  0  0  0
   -3.4503   11.5963   -7.2357 C   0  0  0  0  0  0  0  0  0  0  0  0
   -3.5604   10.3220   -7.8000 C   0  0  0  0  0  0  0  0  0  0  0  0
   -4.8213    9.7719   -8.0443 C   0  0  0  0  0  0  0  0  0  0  0  0
   -2.0996   12.1710   -6.9757 C   0  0  0  0  0  0  0  0  0  0  0  0
   -1.7487   13.4240   -6.4767 C   0  0  0  0  0  0  0  0  0  0  0  0
   -0.4123   13.4674   -6.4260 N   0  0  3  0  0  0  0  0  0  0  0  0
    0.1713   12.3664   -6.8217 N   0  0  0  0  0  0  0  0  0  0  0  0
   -0.8093   11.5624   -7.1930 C   0  0  0  0  0  0  0  0  0  0  0  0
    0.4224   14.5657   -5.9816 C   0  0  0  0  0  0  0  0  0  0  0  0
   -5.6966   14.2423  -13.2612 N   0  0  0  0  0  0  0  0  0  0  0  0
   -4.9506   15.3153  -13.5405 C   0  0  0  0  0  0  0  0  0  0  0  0
   -3.9383   15.6899  -12.6782 C   0  0  0  0  0  0  0  0  0  0  0  0
   -3.7261   14.9536  -11.5366 C   0  0  0  0  0  0  0  0  0  0  0  0
   -4.5508   13.8769  -11.2437 C   0  0  0  0  0  0  0  0  0  0  0  0
   -2.6976   15.2614  -10.7139 N   0  0  0  0  0  0  0  0  0  0  0  0
   -6.0464   12.2223   -9.8797 H   0  0  0  0  0  0  0  0  0  0  0  0
   -8.1826   10.1089  -13.8914 H   0  0  0  0  0  0  0  0  0  0  0  0
   -6.9001   12.2325  -14.0803 H   0  0  0  0  0  0  0  0  0  0  0  0
   -8.0313    9.6067   -7.2544 H   0  0  0  0  0  0  0  0  0  0  0  0
   -6.7563   12.3160   -6.9245 H   0  0  0  0  0  0  0  0  0  0  0  0
   -4.5218   13.2977   -6.4798 H   0  0  0  0  0  0  0  0  0  0  0  0
   -2.6703    9.7625   -8.0472 H   0  0  0  0  0  0  0  0  0  0  0  0
   -4.9024    8.7852   -8.4759 H   0  0  0  0  0  0  0  0  0  0  0  0
   -2.4277   14.2118   -6.1857 H   0  0  0  0  0  0  0  0  0  0  0  0
    0.7822   12.5516   -7.5915 H   0  0  0  0  0  0  0  0  0  0  0  0
   -0.7496   10.6318   -6.6095 H   0  0  0  0  0  0  0  0  0  0  0  0
   -0.6977   11.3321   -8.2628 H   0  0  0  0  0  0  0  0  0  0  0  0
    1.4812   14.2793   -6.0650 H   0  0  0  0  0  0  0  0  0  0  0  0
    0.2310   15.4487   -6.6090 H   0  0  0  0  0  0  0  0  0  0  0  0
    0.1884   14.8031   -4.9333 H   0  0  0  0  0  0  0  0  0  0  0  0
   -5.1384   15.8875  -14.4370 H   0  0  0  0  0  0  0  0  0  0  0  0
   -3.3221   16.5493  -12.8978 H   0  0  0  0  0  0  0  0  0  0  0  0
   -4.4255   13.3274  -10.3224 H   0  0  0  0  0  0  0  0  0  0  0  0
   -2.6901   14.6302   -9.9383 H   0  0  0  0  0  0  0  0  0  0  0  0
   -1.8356   15.1840  -11.2148 H   0  0  0  0  0  0  0  0  0  0  0  0
  1  2  2  0  0  0  0
  1  4  1  0  0  0  0
  1 11  1  0  0  0  0
  2  6  1  0  0  0  0
  3  4  2  0  0  0  0
  3  5  1  0  0  0  0
  5  6  2  0  0  0  0
  5  9  1  0  0  0  0
  6  7  1  0  0  0  0
  7  8  1  0  0  0  0
  7 10  2  3  0  0  0
  8  9  2  0  0  0  0
 10 12  1  0  0  0  0
 11 24  2  0  0  0  0
 11 28  1  0  0  0  0
 12 13  2  0  0  0  0
 12 17  1  0  0  0  0
 13 14  1  0  0  0  0
 14 15  2  0  0  0  0
 15 16  1  0  0  0  0
 15 18  1  0  0  0  0
 16 17  2  0  0  0  0
 18 19  2  0  0  0  0
 18 22  1  0  0  0  0
 19 20  1  0  0  0  0
 20 21  1  0  0  0  0
 20 23  1  0  0  0  0
 21 22  1  0  0  0  0
 24 25  1  0  0  0  0
 25 26  2  0  0  0  0
 26 27  1  0  0  0  0
 27 28  2  0  0  0  0
 27 29  1  0  0  0  0
  2 30  1  0  0  0  0
  3 31  1  0  0  0  0
  4 32  1  0  0  0  0
 10 33  1  0  0  0  0
 13 34  1  0  0  0  0
 14 35  1  0  0  0  0
 16 36  1  0  0  0  0
 17 37  1  0  0  0  0
 19 38  1  0  0  0  0
 21 39  1  0  0  0  0
 22 40  1  0  0  0  0
 22 41  1  0  0  0  0
 23 42  1  0  0  0  0
 23 43  1  0  0  0  0
 23 44  1  0  0  0  0
 25 45  1  0  0  0  0
 26 46  1  0  0  0  0
 28 47  1  0  0  0  0
 29 48  1  0  0  0  0
 29 49  1  0  0  0  0
M  END
> <Name>
23

> <IC50[uM]>
0.27

$$$$
23
  -OEChem-05192314333D
 Structure written by MMmdl.
 49 53  0     1  0  0  0  0  0999 V2000
   -6.3775   12.3296  -12.0018 C   0  0  0  0  0  0  0  0  0  0  0  0
   -6.5098   11.7629  -10.7403 C   0  0  0  0  0  0  0  0  0  0  0  0
   -7.7247   10.5660  -13.0266 C   0  0  0  0  0  0  0  0  0  0  0  0
   -6.9942   11.7487  -13.1193 C   0  0  0  0  0  0  0  0  0  0  0  0
   -7.8312   10.0057  -11.7538 C   0  0  0  0  0  0  0  0  0  0  0  0
   -7.2443   10.6021  -10.6070 C   0  0  0  0  0  0  0  0  0  0  0  0
   -7.6167    9.7449   -9.5151 C   0  0  0  0  0  0  0  0  0  0  0  0
   -8.2961    8.7374   -9.9786 N   0  0  0  0  0  0  0  0  0  0  0  0
   -8.4404    8.8724  -11.2937 N   0  0  0  0  0  0  0  0  0  0  0  0
   -7.3318    9.8946   -8.0252 C   0  0  0  0  0  0  0  0  0  0  0  0
   -5.5478   13.5112  -12.1572 C   0  0  0  0  0  0  0  0  0  0  0  0
   -5.9707   10.4870   -7.7351 C   0  0  0  0  0  0  0  0  0  0  0  0
   -5.8642   11.7588   -7.1694 C   0  0  0  0  0  0  0  0  0  0  0  0
   -4.6019   12.3141   -6.9186 C   0  0  0  0  0  0  0  0  0  0  0  0
   -3.4503   11.5963   -7.2357 C   0  0  0  0  0  0  0  0  0  0  0  0
   -3.5604   10.3220   -7.8000 C   0  0  0  0  0  0  0  0  0  0  0  0
   -4.8213    9.7719   -8.0443 C   0  0  0  0  0  0  0  0  0  0  0  0
   -2.0996   12.1710   -6.9757 C   0  0  0  0  0  0  0  0  0  0  0  0
   -1.7487   13.4240   -6.4767 C   0  0  0  0  0  0  0  0  0  0  0  0
   -0.4123   13.4674   -6.4260 N   0  0  3  0  0  0  0  0  0  0  0  0
    0.1713   12.3664   -6.8217 N   0  0  0  0  0  0  0  0  0  0  0  0
   -0.8093   11.5624   -7.1930 C   0  0  0  0  0  0  0  0  0  0  0  0
    0.4224   14.5657   -5.9816 C   0  0  0  0  0  0  0  0  0  0  0  0
   -5.6966   14.2423  -13.2612 N   0  0  0  0  0  0  0  0  0  0  0  0
   -4.9506   15.3153  -13.5405 C   0  0  0  0  0  0  0  0  0  0  0  0
   -3.9383   15.6899  -12.6782 C   0  0  0  0  0  0  0  0  0  0  0  0
   -3.7261   14.9536  -11.5366 C   0  0  0  0  0  0  0  0  0  0  0  0
   -4.5508   13.8769  -11.2437 C   0  0  0  0  0  0  0  0  0  0  0  0
   -2.6976   15.2614  -10.7139 N   0  0  0  0  0  0  0  0  0  0  0  0
   -6.0464   12.2223   -9.8797 H   0  0  0  0  0  0  0  0  0  0  0  0
   -8.1826   10.1089  -13.8914 H   0  0  0  0  0  0  0  0  0  0  0  0
   -6.9001   12.2325  -14.0803 H   0  0  0  0  0  0  0  0  0  0  0  0
   -8.0313    9.6067   -7.2544 H   0  0  0  0  0  0  0  0  0  0  0  0
   -6.7563   12.3160   -6.9245 H   0  0  0  0  0  0  0  0  0  0  0  0
   -4.5218   13.2977   -6.4798 H   0  0  0  0  0  0  0  0  0  0  0  0
   -2.6703    9.7625   -8.0472 H   0  0  0  0  0  0  0  0  0  0  0  0
   -4.9024    8.7852   -8.4759 H   0  0  0  0  0  0  0  0  0  0  0  0
   -2.1269   14.2144   -7.1418 H   0  0  0  0  0  0  0  0  0  0  0  0
   -2.1691   13.5602   -5.4694 H   0  0  0  0  0  0  0  0  0  0  0  0
    0.7822   12.5516   -7.5915 H   0  0  0  0  0  0  0  0  0  0  0  0
   -0.6637   10.5754   -7.6065 H   0  0  0  0  0  0  0  0  0  0  0  0
    1.4812   14.2793   -6.0650 H   0  0  0  0  0  0  0  0  0  0  0  0
    0.2310   15.4487   -6.6090 H   0  0  0  0  0  0  0  0  0  0  0  0
    0.1884   14.8031   -4.9333 H   0  0  0  0  0  0  0  0  0  0  0  0
   -5.1384   15.8875  -14.4370 H   0  0  0  0  0  0  0  0  0  0  0  0
   -3.3221   16.5493  -12.8978 H   0  0  0  0  0  0  0  0  0  0  0  0
   -4.4255   13.3274  -10.3224 H   0  0  0  0  0  0  0  0  0  0  0  0
   -2.6901   14.6302   -9.9383 H   0  0  0  0  0  0  0  0  0  0  0  0
   -1.8356   15.1840  -11.2148 H   0  0  0  0  0  0  0  0  0  0  0  0
  1  2  2  0  0  0  0
  1  4  1  0  0  0  0
  1 11  1  0  0  0  0
  2  6  1  0  0  0  0
  3  4  2  0  0  0  0
  3  5  1  0  0  0  0
  5  6  2  0  0  0  0
  5  9  1  0  0  0  0
  6  7  1  0  0  0  0
  7  8  1  0  0  0  0
  7 10  2  3  0  0  0
  8  9  2  0  0  0  0
 10 12  1  0  0  0  0
 11 24  2  0  0  0  0
 11 28  1  0  0  0  0
 12 13  2  0  0  0  0
 12 17  1  0  0  0  0
 13 14  1  0  0  0  0
 14 15  2  0  0  0  0
 15 16  1  0  0  0  0
 15 18  1  0  0  0  0
 16 17  2  0  0  0  0
 18 19  1  0  0  0  0
 18 22  2  0  0  0  0
 19 20  1  0  0  0  0
 20 21  1  0  0  0  0
 20 23  1  0  0  0  0
 21 22  1  0  0  0  0
 24 25  1  0  0  0  0
 25 26  2  0  0  0  0
 26 27  1  0  0  0  0
 27 28  2  0  0  0  0
 27 29  1  0  0  0  0
  2 30  1  0  0  0  0
  3 31  1  0  0  0  0
  4 32  1  0  0  0  0
 10 33  1  0  0  0  0
 13 34  1  0  0  0  0
 14 35  1  0  0  0  0
 16 36  1  0  0  0  0
 17 37  1  0  0  0  0
 19 38  1  0  0  0  0
 19 39  1  0  0  0  0
 21 40  1  0  0  0  0
 22 41  1  0  0  0  0
 23 42  1  0  0  0  0
 23 43  1  0  0  0  0
 23 44  1  0  0  0  0
 25 45  1  0  0  0  0
 26 46  1  0  0  0  0
 28 47  1  0  0  0  0
 29 48  1  0  0  0  0
 29 49  1  0  0  0  0
M  END
> <Name>
23

> <IC50[uM]>
0.27

$$$$
23
  -OEChem-05192314333D
 Structure written by MMmdl.
 49 53  0     1  0  0  0  0  0999 V2000
   -6.3775   12.3296  -12.0018 C   0  0  0  0  0  0  0  0  0  0  0  0
   -6.5098   11.7629  -10.7403 C   0  0  0  0  0  0  0  0  0  0  0  0
   -7.7247   10.5660  -13.0266 C   0  0  0  0  0  0  0  0  0  0  0  0
   -6.9942   11.7487  -13.1193 C   0  0  0  0  0  0  0  0  0  0  0  0
   -7.8312   10.0057  -11.7538 C   0  0  0  0  0  0  0  0  0  0  0  0
   -7.2443   10.6021  -10.6070 C   0  0  0  0  0  0  0  0  0  0  0  0
   -7.6167    9.7449   -9.5151 C   0  0  0  0  0  0  0  0  0  0  0  0
   -8.2961    8.7374   -9.9786 N   0  0  0  0  0  0  0  0  0  0  0  0
   -8.4404    8.8724  -11.2937 N   0  0  0  0  0  0  0  0  0  0  0  0
   -7.3318    9.8946   -8.0252 C   0  0  0  0  0  0  0  0  0  0  0  0
   -5.5478   13.5112  -12.1572 C   0  0  0  0  0  0  0  0  0  0  0  0
   -5.9707   10.4870   -7.7351 C   0  0  0  0  0  0  0  0  0  0  0  0
   -5.8642   11.7588   -7.1694 C   0  0  0  0  0  0  0  0  0  0  0  0
   -4.6019   12.3141   -6.9186 C   0  0  0  0  0  0  0  0  0  0  0  0
   -3.4503   11.5963   -7.2357 C   0  0  0  0  0  0  0  0  0  0  0  0
   -3.5604   10.3220   -7.8000 C   0  0  0  0  0  0  0  0  0  0  0  0
   -4.8213    9.7719   -8.0443 C   0  0  0  0  0  0  0  0  0  0  0  0
   -2.0996   12.1710   -6.9757 C   0  0  3  0  0  0  0  0  0  0  0  0
   -1.7487   13.4240   -6.4767 C   0  0  0  0  0  0  0  0  0  0  0  0
   -0.4123   13.4674   -6.4260 N   0  0  3  0  0  0  0  0  0  0  0  0
    0.1713   12.3664   -6.8217 N   0  0  0  0  0  0  0  0  0  0  0  0
   -0.8093   11.5624   -7.1930 C   0  0  0  0  0  0  0  0  0  0  0  0
    0.4224   14.5657   -5.9816 C   0  0  0  0  0  0  0  0  0  0  0  0
   -5.6966   14.2423  -13.2612 N   0  0  0  0  0  0  0  0  0  0  0  0
   -4.9506   15.3153  -13.5405 C   0  0  0  0  0  0  0  0  0  0  0  0
   -3.9383   15.6899  -12.6782 C   0  0  0  0  0  0  0  0  0  0  0  0
   -3.7261   14.9536  -11.5366 C   0  0  0  0  0  0  0  0  0  0  0  0
   -4.5508   13.8769  -11.2437 C   0  0  0  0  0  0  0  0  0  0  0  0
   -2.6976   15.2614  -10.7139 N   0  0  0  0  0  0  0  0  0  0  0  0
   -6.0464   12.2223   -9.8797 H   0  0  0  0  0  0  0  0  0  0  0  0
   -8.1826   10.1089  -13.8914 H   0  0  0  0  0  0  0  0  0  0  0  0
   -6.9001   12.2325  -14.0803 H   0  0  0  0  0  0  0  0  0  0  0  0
   -8.0313    9.6067   -7.2544 H   0  0  0  0  0  0  0  0  0  0  0  0
   -6.7563   12.3160   -6.9245 H   0  0  0  0  0  0  0  0  0  0  0  0
   -4.5218   13.2977   -6.4798 H   0  0  0  0  0  0  0  0  0  0  0  0
   -2.6703    9.7625   -8.0472 H   0  0  0  0  0  0  0  0  0  0  0  0
   -4.9024    8.7852   -8.4759 H   0  0  0  0  0  0  0  0  0  0  0  0
   -2.1213   11.7665   -5.9530 H   0  0  0  0  0  0  0  0  0  0  0  0
   -2.1269   14.2144   -7.1418 H   0  0  0  0  0  0  0  0  0  0  0  0
   -2.1691   13.5602   -5.4694 H   0  0  0  0  0  0  0  0  0  0  0  0
   -0.6637   10.5754   -7.6065 H   0  0  0  0  0  0  0  0  0  0  0  0
    1.4809   14.2752   -6.0543 H   0  0  0  0  0  0  0  0  0  0  0  0
    0.2393   15.4453   -6.6162 H   0  0  0  0  0  0  0  0  0  0  0  0
    0.1804   14.8105   -4.9369 H   0  0  0  0  0  0  0  0  0  0  0  0
   -6.4038   13.9739  -13.9153 H   0  0  0  0  0  0  0  0  0  0  0  0
   -5.1384   15.8875  -14.4370 H   0  0  0  0  0  0  0  0  0  0  0  0
   -3.3221   16.5493  -12.8978 H   0  0  0  0  0  0  0  0  0  0  0  0
   -4.4255   13.3274  -10.3224 H   0  0  0  0  0  0  0  0  0  0  0  0
   -2.6419   14.6376   -9.9343 H   0  0  0  0  0  0  0  0  0  0  0  0
  1  2  2  0  0  0  0
  1  4  1  0  0  0  0
  1 11  1  0  0  0  0
  2  6  1  0  0  0  0
  3  4  2  0  0  0  0
  3  5  1  0  0  0  0
  5  6  2  0  0  0  0
  5  9  1  0  0  0  0
  6  7  1  0  0  0  0
  7  8  1  0  0  0  0
  7 10  2  3  0  0  0
  8  9  2  0  0  0  0
 10 12  1  0  0  0  0
 11 24  1  0  0  0  0
 11 28  2  0  0  0  0
 12 13  2  0  0  0  0
 12 17  1  0  0  0  0
 13 14  1  0  0  0  0
 14 15  2  0  0  0  0
 15 16  1  0  0  0  0
 15 18  1  0  0  0  0
 16 17  2  0  0  0  0
 18 19  1  0  0  0  0
 18 22  1  0  0  0  0
 19 20  1  0  0  0  0
 20 21  1  0  0  0  0
 20 23  1  0  0  0  0
 21 22  2  0  0  0  0
 24 25  1  0  0  0  0
 25 26  2  0  0  0  0
 26 27  1  0  0  0  0
 27 28  1  0  0  0  0
 27 29  2  0  0  0  0
  2 30  1  0  0  0  0
  3 31  1  0  0  0  0
  4 32  1  0  0  0  0
 10 33  1  0  0  0  0
 13 34  1  0  0  0  0
 14 35  1  0  0  0  0
 16 36  1  0  0  0  0
 17 37  1  0  0  0  0
 18 38  1  0  0  0  0
 19 39  1  0  0  0  0
 19 40  1  0  0  0  0
 22 41  1  0  0  0  0
 23 42  1  0  0  0  0
 23 43  1  0  0  0  0
 23 44  1  0  0  0  0
 24 45  1  0  0  0  0
 25 46  1  0  0  0  0
 26 47  1  0  0  0  0
 28 48  1  0  0  0  0
 29 49  1  0  0  0  0
M  END
> <Name>
23

> <IC50[uM]>
0.27

$$$$
23
  -OEChem-05192314333D
 Structure written by MMmdl.
 49 53  0     1  0  0  0  0  0999 V2000
   -6.3775   12.3296  -12.0018 C   0  0  0  0  0  0  0  0  0  0  0  0
   -6.5098   11.7629  -10.7403 C   0  0  0  0  0  0  0  0  0  0  0  0
   -7.7247   10.5660  -13.0266 C   0  0  0  0  0  0  0  0  0  0  0  0
   -6.9942   11.7487  -13.1193 C   0  0  0  0  0  0  0  0  0  0  0  0
   -7.8312   10.0057  -11.7538 C   0  0  0  0  0  0  0  0  0  0  0  0
   -7.2443   10.6021  -10.6070 C   0  0  0  0  0  0  0  0  0  0  0  0
   -7.6167    9.7449   -9.5151 C   0  0  3  0  0  0  0  0  0  0  0  0
   -8.2961    8.7374   -9.9786 N   0  0  0  0  0  0  0  0  0  0  0  0
   -8.4404    8.8724  -11.2937 N   0  0  0  0  0  0  0  0  0  0  0  0
   -7.3318    9.8946   -8.0252 C   0  0  0  0  0  0  0  0  0  0  0  0
   -5.5478   13.5112  -12.1572 C   0  0  0  0  0  0  0  0  0  0  0  0
   -5.9707   10.4870   -7.7351 C   0  0  0  0  0  0  0  0  0  0  0  0
   -5.8642   11.7588   -7.1694 C   0  0  0  0  0  0  0  0  0  0  0  0
   -4.6019   12.3141   -6.9186 C   0  0  0  0  0  0  0  0  0  0  0  0
   -3.4503   11.5963   -7.2357 C   0  0  0  0  0  0  0  0  0  0  0  0
   -3.5604   10.3220   -7.8000 C   0  0  0  0  0  0  0  0  0  0  0  0
   -4.8213    9.7719   -8.0443 C   0  0  0  0  0  0  0  0  0  0  0  0
   -2.0996   12.1710   -6.9757 C   0  0  0  0  0  0  0  0  0  0  0  0
   -1.7487   13.4240   -6.4767 C   0  0  0  0  0  0  0  0  0  0  0  0
   -0.4123   13.4674   -6.4260 N   0  0  3  0  0  0  0  0  0  0  0  0
    0.1713   12.3664   -6.8217 N   0  0  0  0  0  0  0  0  0  0  0  0
   -0.8093   11.5624   -7.1930 C   0  0  0  0  0  0  0  0  0  0  0  0
    0.4224   14.5657   -5.9816 C   0  0  0  0  0  0  0  0  0  0  0  0
   -5.6966   14.2423  -13.2612 N   0  0  0  0  0  0  0  0  0  0  0  0
   -4.9506   15.3153  -13.5405 C   0  0  0  0  0  0  0  0  0  0  0  0
   -3.9383   15.6899  -12.6782 C   0  0  0  0  0  0  0  0  0  0  0  0
   -3.7261   14.9536  -11.5366 C   0  0  0  0  0  0  0  0  0  0  0  0
   -4.5508   13.8769  -11.2437 C   0  0  0  0  0  0  0  0  0  0  0  0
   -2.6976   15.2614  -10.7139 N   0  0  0  0  0  0  0  0  0  0  0  0
   -6.0464   12.2223   -9.8797 H   0  0  0  0  0  0  0  0  0  0  0  0
   -8.1826   10.1089  -13.8914 H   0  0  0  0  0  0  0  0  0  0  0  0
   -6.9001   12.2325  -14.0803 H   0  0  0  0  0  0  0  0  0  0  0  0
   -6.6832    9.1765   -9.6392 H   0  0  0  0  0  0  0  0  0  0  0  0
   -8.0313    9.6067   -7.2544 H   0  0  0  0  0  0  0  0  0  0  0  0
   -6.7563   12.3160   -6.9245 H   0  0  0  0  0  0  0  0  0  0  0  0
   -4.5218   13.2977   -6.4798 H   0  0  0  0  0  0  0  0  0  0  0  0
   -2.6703    9.7625   -8.0472 H   0  0  0  0  0  0  0  0  0  0  0  0
   -4.9024    8.7852   -8.4759 H   0  0  0  0  0  0  0  0  0  0  0  0
   -2.1269   14.2144   -7.1418 H   0  0  0  0  0  0  0  0  0  0  0  0
   -2.1691   13.5602   -5.4694 H   0  0  0  0  0  0  0  0  0  0  0  0
   -0.6637   10.5754   -7.6065 H   0  0  0  0  0  0  0  0  0  0  0  0
    1.4809   14.2752   -6.0543 H   0  0  0  0  0  0  0  0  0  0  0  0
    0.2393   15.4453   -6.6162 H   0  0  0  0  0  0  0  0  0  0  0  0
    0.1804   14.8105   -4.9369 H   0  0  0  0  0  0  0  0  0  0  0  0
   -5.1384   15.8875  -14.4370 H   0  0  0  0  0  0  0  0  0  0  0  0
   -3.3221   16.5493  -12.8978 H   0  0  0  0  0  0  0  0  0  0  0  0
   -4.4255   13.3274  -10.3224 H   0  0  0  0  0  0  0  0  0  0  0  0
   -2.6901   14.6302   -9.9383 H   0  0  0  0  0  0  0  0  0  0  0  0
   -1.8356   15.1840  -11.2148 H   0  0  0  0  0  0  0  0  0  0  0  0
  1  2  2  0  0  0  0
  1  4  1  0  0  0  0
  1 11  1  0  0  0  0
  2  6  1  0  0  0  0
  3  4  2  0  0  0  0
  3  5  1  0  0  0  0
  5  6  2  0  0  0  0
  5  9  1  0  0  0  0
  6  7  1  0  0  0  0
  7  8  1  0  0  0  0
  7 10  1  0  0  0  0
  8  9  2  0  0  0  0
 10 12  2  0  0  0  0
 11 24  2  0  0  0  0
 11 28  1  0  0  0  0
 12 13  1  0  0  0  0
 12 17  1  0  0  0  0
 13 14  2  0  0  0  0
 14 15  1  0  0  0  0
 15 16  1  0  0  0  0
 15 18  2  0  0  0  0
 16 17  2  0  0  0  0
 18 19  1  0  0  0  0
 18 22  1  0  0  0  0
 19 20  1  0  0  0  0
 20 21  1  0  0  0  0
 20 23  1  0  0  0  0
 21 22  2  0  0  0  0
 24 25  1  0  0  0  0
 25 26  2  0  0  0  0
 26 27  1  0  0  0  0
 27 28  2  0  0  0  0
 27 29  1  0  0  0  0
  2 30  1  0  0  0  0
  3 31  1  0  0  0  0
  4 32  1  0  0  0  0
  7 33  1  0  0  0  0
 10 34  1  0  0  0  0
 13 35  1  0  0  0  0
 14 36  1  0  0  0  0
 16 37  1  0  0  0  0
 17 38  1  0  0  0  0
 19 39  1  0  0  0  0
 19 40  1  0  0  0  0
 22 41  1  0  0  0  0
 23 42  1  0  0  0  0
 23 43  1  0  0  0  0
 23 44  1  0  0  0  0
 25 45  1  0  0  0  0
 26 46  1  0  0  0  0
 28 47  1  0  0  0  0
 29 48  1  0  0  0  0
 29 49  1  0  0  0  0
M  END
> <Name>
23

> <IC50[uM]>
0.27

$$$$
23
  -OEChem-05192314333D
 Structure written by MMmdl.
 49 53  0     1  0  0  0  0  0999 V2000
   -6.3775   12.3296  -12.0018 C   0  0  0  0  0  0  0  0  0  0  0  0
   -6.5098   11.7629  -10.7403 C   0  0  0  0  0  0  0  0  0  0  0  0
   -7.7247   10.5660  -13.0266 C   0  0  0  0  0  0  0  0  0  0  0  0
   -6.9942   11.7487  -13.1193 C   0  0  0  0  0  0  0  0  0  0  0  0
   -7.8312   10.0057  -11.7538 C   0  0  0  0  0  0  0  0  0  0  0  0
   -7.2443   10.6021  -10.6070 C   0  0  0  0  0  0  0  0  0  0  0  0
   -7.6167    9.7449   -9.5151 C   0  0  0  0  0  0  0  0  0  0  0  0
   -8.2961    8.7374   -9.9786 N   0  0  0  0  0  0  0  0  0  0  0  0
   -8.4404    8.8724  -11.2937 N   0  0  0  0  0  0  0  0  0  0  0  0
   -7.3318    9.8946   -8.0252 C   0  0  0  0  0  0  0  0  0  0  0  0
   -5.5478   13.5112  -12.1572 C   0  0  0  0  0  0  0  0  0  0  0  0
   -5.9707   10.4870   -7.7351 C   0  0  0  0  0  0  0  0  0  0  0  0
   -5.8642   11.7588   -7.1694 C   0  0  0  0  0  0  0  0  0  0  0  0
   -4.6019   12.3141   -6.9186 C   0  0  0  0  0  0  0  0  0  0  0  0
   -3.4503   11.5963   -7.2357 C   0  0  0  0  0  0  0  0  0  0  0  0
   -3.5604   10.3220   -7.8000 C   0  0  0  0  0  0  0  0  0  0  0  0
   -4.8213    9.7719   -8.0443 C   0  0  0  0  0  0  0  0  0  0  0  0
   -2.0996   12.1710   -6.9757 C   0  0  0  0  0  0  0  0  0  0  0  0
   -1.7487   13.4240   -6.4767 C   0  0  0  0  0  0  0  0  0  0  0  0
   -0.4123   13.4674   -6.4260 N   0  0  3  0  0  0  0  0  0  0  0  0
    0.1713   12.3664   -6.8217 N   0  0  0  0  0  0  0  0  0  0  0  0
   -0.8093   11.5624   -7.1930 C   0  0  0  0  0  0  0  0  0  0  0  0
    0.4224   14.5657   -5.9816 C   0  0  0  0  0  0  0  0  0  0  0  0
   -5.6966   14.2423  -13.2612 N   0  0  0  0  0  0  0  0  0  0  0  0
   -4.9506   15.3153  -13.5405 C   0  0  0  0  0  0  0  0  0  0  0  0
   -3.9383   15.6899  -12.6782 C   0  0  0  0  0  0  0  0  0  0  0  0
   -3.7261   14.9536  -11.5366 C   0  0  0  0  0  0  0  0  0  0  0  0
   -4.5508   13.8769  -11.2437 C   0  0  0  0  0  0  0  0  0  0  0  0
   -2.6976   15.2614  -10.7139 N   0  0  0  0  0  0  0  0  0  0  0  0
   -6.0464   12.2223   -9.8797 H   0  0  0  0  0  0  0  0  0  0  0  0
   -8.1826   10.1089  -13.8914 H   0  0  0  0  0  0  0  0  0  0  0  0
   -6.9001   12.2325  -14.0803 H   0  0  0  0  0  0  0  0  0  0  0  0
   -8.0313    9.6067   -7.2544 H   0  0  0  0  0  0  0  0  0  0  0  0
   -6.7563   12.3160   -6.9245 H   0  0  0  0  0  0  0  0  0  0  0  0
   -4.5218   13.2977   -6.4798 H   0  0  0  0  0  0  0  0  0  0  0  0
   -2.6703    9.7625   -8.0472 H   0  0  0  0  0  0  0  0  0  0  0  0
   -4.9024    8.7852   -8.4759 H   0  0  0  0  0  0  0  0  0  0  0  0
   -2.4277   14.2118   -6.1857 H   0  0  0  0  0  0  0  0  0  0  0  0
    0.7822   12.5516   -7.5915 H   0  0  0  0  0  0  0  0  0  0  0  0
   -0.7496   10.6318   -6.6095 H   0  0  0  0  0  0  0  0  0  0  0  0
   -0.6977   11.3321   -8.2628 H   0  0  0  0  0  0  0  0  0  0  0  0
    1.4812   14.2793   -6.0650 H   0  0  0  0  0  0  0  0  0  0  0  0
    0.2310   15.4487   -6.6090 H   0  0  0  0  0  0  0  0  0  0  0  0
    0.1884   14.8031   -4.9333 H   0  0  0  0  0  0  0  0  0  0  0  0
   -6.4038   13.9739  -13.9153 H   0  0  0  0  0  0  0  0  0  0  0  0
   -5.1384   15.8875  -14.4370 H   0  0  0  0  0  0  0  0  0  0  0  0
   -3.3221   16.5493  -12.8978 H   0  0  0  0  0  0  0  0  0  0  0  0
   -4.4255   13.3274  -10.3224 H   0  0  0  0  0  0  0  0  0  0  0  0
   -2.6419   14.6376   -9.9343 H   0  0  0  0  0  0  0  0  0  0  0  0
  1  2  2  0  0  0  0
  1  4  1  0  0  0  0
  1 11  1  0  0  0  0
  2  6  1  0  0  0  0
  3  4  2  0  0  0  0
  3  5  1  0  0  0  0
  5  6  2  0  0  0  0
  5  9  1  0  0  0  0
  6  7  1  0  0  0  0
  7  8  1  0  0  0  0
  7 10  2  3  0  0  0
  8  9  2  0  0  0  0
 10 12  1  0  0  0  0
 11 24  1  0  0  0  0
 11 28  2  0  0  0  0
 12 13  2  0  0  0  0
 12 17  1  0  0  0  0
 13 14  1  0  0  0  0
 14 15  2  0  0  0  0
 15 16  1  0  0  0  0
 15 18  1  0  0  0  0
 16 17  2  0  0  0  0
 18 19  2  0  0  0  0
 18 22  1  0  0  0  0
 19 20  1  0  0  0  0
 20 21  1  0  0  0  0
 20 23  1  0  0  0  0
 21 22  1  0  0  0  0
 24 25  1  0  0  0  0
 25 26  2  0  0  0  0
 26 27  1  0  0  0  0
 27 28  1  0  0  0  0
 27 29  2  0  0  0  0
  2 30  1  0  0  0  0
  3 31  1  0  0  0  0
  4 32  1  0  0  0  0
 10 33  1  0  0  0  0
 13 34  1  0  0  0  0
 14 35  1  0  0  0  0
 16 36  1  0  0  0  0
 17 37  1  0  0  0  0
 19 38  1  0  0  0  0
 21 39  1  0  0  0  0
 22 40  1  0  0  0  0
 22 41  1  0  0  0  0
 23 42  1  0  0  0  0
 23 43  1  0  0  0  0
 23 44  1  0  0  0  0
 24 45  1  0  0  0  0
 25 46  1  0  0  0  0
 26 47  1  0  0  0  0
 28 48  1  0  0  0  0
 29 49  1  0  0  0  0
M  END
> <Name>
23

> <IC50[uM]>
0.27

$$$$
23
  -OEChem-05192314333D
 Structure written by MMmdl.
 49 53  0     1  0  0  0  0  0999 V2000
   -6.3775   12.3296  -12.0018 C   0  0  0  0  0  0  0  0  0  0  0  0
   -6.5098   11.7629  -10.7403 C   0  0  0  0  0  0  0  0  0  0  0  0
   -7.7247   10.5660  -13.0266 C   0  0  0  0  0  0  0  0  0  0  0  0
   -6.9942   11.7487  -13.1193 C   0  0  0  0  0  0  0  0  0  0  0  0
   -7.8312   10.0057  -11.7538 C   0  0  0  0  0  0  0  0  0  0  0  0
   -7.2443   10.6021  -10.6070 C   0  0  0  0  0  0  0  0  0  0  0  0
   -7.6167    9.7449   -9.5151 C   0  0  0  0  0  0  0  0  0  0  0  0
   -8.2961    8.7374   -9.9786 N   0  0  0  0  0  0  0  0  0  0  0  0
   -8.4404    8.8724  -11.2937 N   0  0  0  0  0  0  0  0  0  0  0  0
   -7.3318    9.8946   -8.0252 C   0  0  0  0  0  0  0  0  0  0  0  0
   -5.5478   13.5112  -12.1572 C   0  0  0  0  0  0  0  0  0  0  0  0
   -5.9707   10.4870   -7.7351 C   0  0  0  0  0  0  0  0  0  0  0  0
   -5.8642   11.7588   -7.1694 C   0  0  0  0  0  0  0  0  0  0  0  0
   -4.6019   12.3141   -6.9186 C   0  0  0  0  0  0  0  0  0  0  0  0
   -3.4503   11.5963   -7.2357 C   0  0  0  0  0  0  0  0  0  0  0  0
   -3.5604   10.3220   -7.8000 C   0  0  0  0  0  0  0  0  0  0  0  0
   -4.8213    9.7719   -8.0443 C   0  0  0  0  0  0  0  0  0  0  0  0
   -2.0996   12.1710   -6.9757 C   0  0  0  0  0  0  0  0  0  0  0  0
   -1.7487   13.4240   -6.4767 C   0  0  0  0  0  0  0  0  0  0  0  0
   -0.4123   13.4674   -6.4260 N   0  0  3  0  0  0  0  0  0  0  0  0
    0.1713   12.3664   -6.8217 N   0  0  0  0  0  0  0  0  0  0  0  0
   -0.8093   11.5624   -7.1930 C   0  0  0  0  0  0  0  0  0  0  0  0
    0.4224   14.5657   -5.9816 C   0  0  0  0  0  0  0  0  0  0  0  0
   -5.6966   14.2423  -13.2612 N   0  0  0  0  0  0  0  0  0  0  0  0
   -4.9506   15.3153  -13.5405 C   0  0  0  0  0  0  0  0  0  0  0  0
   -3.9383   15.6899  -12.6782 C   0  0  0  0  0  0  0  0  0  0  0  0
   -3.7261   14.9536  -11.5366 C   0  0  0  0  0  0  0  0  0  0  0  0
   -4.5508   13.8769  -11.2437 C   0  0  0  0  0  0  0  0  0  0  0  0
   -2.6976   15.2614  -10.7139 N   0  0  0  0  0  0  0  0  0  0  0  0
   -6.0464   12.2223   -9.8797 H   0  0  0  0  0  0  0  0  0  0  0  0
   -8.1826   10.1089  -13.8914 H   0  0  0  0  0  0  0  0  0  0  0  0
   -6.9001   12.2325  -14.0803 H   0  0  0  0  0  0  0  0  0  0  0  0
   -8.0313    9.6067   -7.2544 H   0  0  0  0  0  0  0  0  0  0  0  0
   -6.7563   12.3160   -6.9245 H   0  0  0  0  0  0  0  0  0  0  0  0
   -4.5218   13.2977   -6.4798 H   0  0  0  0  0  0  0  0  0  0  0  0
   -2.6703    9.7625   -8.0472 H   0  0  0  0  0  0  0  0  0  0  0  0
   -4.9024    8.7852   -8.4759 H   0  0  0  0  0  0  0  0  0  0  0  0
   -2.1269   14.2144   -7.1418 H   0  0  0  0  0  0  0  0  0  0  0  0
   -2.1691   13.5602   -5.4694 H   0  0  0  0  0  0  0  0  0  0  0  0
    0.7822   12.5516   -7.5915 H   0  0  0  0  0  0  0  0  0  0  0  0
   -0.6637   10.5754   -7.6065 H   0  0  0  0  0  0  0  0  0  0  0  0
    1.4812   14.2793   -6.0650 H   0  0  0  0  0  0  0  0  0  0  0  0
    0.2310   15.4487   -6.6090 H   0  0  0  0  0  0  0  0  0  0  0  0
    0.1884   14.8031   -4.9333 H   0  0  0  0  0  0  0  0  0  0  0  0
   -6.4038   13.9739  -13.9153 H   0  0  0  0  0  0  0  0  0  0  0  0
   -5.1384   15.8875  -14.4370 H   0  0  0  0  0  0  0  0  0  0  0  0
   -3.3221   16.5493  -12.8978 H   0  0  0  0  0  0  0  0  0  0  0  0
   -4.4255   13.3274  -10.3224 H   0  0  0  0  0  0  0  0  0  0  0  0
   -2.6419   14.6376   -9.9343 H   0  0  0  0  0  0  0  0  0  0  0  0
  1  2  2  0  0  0  0
  1  4  1  0  0  0  0
  1 11  1  0  0  0  0
  2  6  1  0  0  0  0
  3  4  2  0  0  0  0
  3  5  1  0  0  0  0
  5  6  2  0  0  0  0
  5  9  1  0  0  0  0
  6  7  1  0  0  0  0
  7  8  1  0  0  0  0
  7 10  2  3  0  0  0
  8  9  2  0  0  0  0
 10 12  1  0  0  0  0
 11 24  1  0  0  0  0
 11 28  2  0  0  0  0
 12 13  2  0  0  0  0
 12 17  1  0  0  0  0
 13 14  1  0  0  0  0
 14 15  2  0  0  0  0
 15 16  1  0  0  0  0
 15 18  1  0  0  0  0
 16 17  2  0  0  0  0
 18 19  1  0  0  0  0
 18 22  2  0  0  0  0
 19 20  1  0  0  0  0
 20 21  1  0  0  0  0
 20 23  1  0  0  0  0
 21 22  1  0  0  0  0
 24 25  1  0  0  0  0
 25 26  2  0  0  0  0
 26 27  1  0  0  0  0
 27 28  1  0  0  0  0
 27 29  2  0  0  0  0
  2 30  1  0  0  0  0
  3 31  1  0  0  0  0
  4 32  1  0  0  0  0
 10 33  1  0  0  0  0
 13 34  1  0  0  0  0
 14 35  1  0  0  0  0
 16 36  1  0  0  0  0
 17 37  1  0  0  0  0
 19 38  1  0  0  0  0
 19 39  1  0  0  0  0
 21 40  1  0  0  0  0
 22 41  1  0  0  0  0
 23 42  1  0  0  0  0
 23 43  1  0  0  0  0
 23 44  1  0  0  0  0
 24 45  1  0  0  0  0
 25 46  1  0  0  0  0
 26 47  1  0  0  0  0
 28 48  1  0  0  0  0
 29 49  1  0  0  0  0
M  END
> <Name>
23

> <IC50[uM]>
0.27

$$$$
23
  -OEChem-05192314333D
 Structure written by MMmdl.
 49 53  0     1  0  0  0  0  0999 V2000
   -6.3775   12.3296  -12.0018 C   0  0  0  0  0  0  0  0  0  0  0  0
   -6.5098   11.7629  -10.7403 C   0  0  0  0  0  0  0  0  0  0  0  0
   -7.7247   10.5660  -13.0266 C   0  0  0  0  0  0  0  0  0  0  0  0
   -6.9942   11.7487  -13.1193 C   0  0  0  0  0  0  0  0  0  0  0  0
   -7.8312   10.0057  -11.7538 C   0  0  0  0  0  0  0  0  0  0  0  0
   -7.2443   10.6021  -10.6070 C   0  0  0  0  0  0  0  0  0  0  0  0
   -7.6167    9.7449   -9.5151 C   0  0  3  0  0  0  0  0  0  0  0  0
   -8.2961    8.7374   -9.9786 N   0  0  0  0  0  0  0  0  0  0  0  0
   -8.4404    8.8724  -11.2937 N   0  0  0  0  0  0  0  0  0  0  0  0
   -7.3318    9.8946   -8.0252 C   0  0  0  0  0  0  0  0  0  0  0  0
   -5.5478   13.5112  -12.1572 C   0  0  0  0  0  0  0  0  0  0  0  0
   -5.9707   10.4870   -7.7351 C   0  0  0  0  0  0  0  0  0  0  0  0
   -5.8642   11.7588   -7.1694 C   0  0  0  0  0  0  0  0  0  0  0  0
   -4.6019   12.3141   -6.9186 C   0  0  0  0  0  0  0  0  0  0  0  0
   -3.4503   11.5963   -7.2357 C   0  0  0  0  0  0  0  0  0  0  0  0
   -3.5604   10.3220   -7.8000 C   0  0  0  0  0  0  0  0  0  0  0  0
   -4.8213    9.7719   -8.0443 C   0  0  0  0  0  0  0  0  0  0  0  0
   -2.0996   12.1710   -6.9757 C   0  0  0  0  0  0  0  0  0  0  0  0
   -1.7487   13.4240   -6.4767 C   0  0  0  0  0  0  0  0  0  0  0  0
   -0.4123   13.4674   -6.4260 N   0  0  3  0  0  0  0  0  0  0  0  0
    0.1713   12.3664   -6.8217 N   0  0  0  0  0  0  0  0  0  0  0  0
   -0.8093   11.5624   -7.1930 C   0  0  0  0  0  0  0  0  0  0  0  0
    0.4224   14.5657   -5.9816 C   0  0  0  0  0  0  0  0  0  0  0  0
   -5.6966   14.2423  -13.2612 N   0  0  0  0  0  0  0  0  0  0  0  0
   -4.9506   15.3153  -13.5405 C   0  0  0  0  0  0  0  0  0  0  0  0
   -3.9383   15.6899  -12.6782 C   0  0  0  0  0  0  0  0  0  0  0  0
   -3.7261   14.9536  -11.5366 C   0  0  0  0  0  0  0  0  0  0  0  0
   -4.5508   13.8769  -11.2437 C   0  0  0  0  0  0  0  0  0  0  0  0
   -2.6976   15.2614  -10.7139 N   0  0  0  0  0  0  0  0  0  0  0  0
   -6.0464   12.2223   -9.8797 H   0  0  0  0  0  0  0  0  0  0  0  0
   -8.1826   10.1089  -13.8914 H   0  0  0  0  0  0  0  0  0  0  0  0
   -6.9001   12.2325  -14.0803 H   0  0  0  0  0  0  0  0  0  0  0  0
   -6.6832    9.1765   -9.6392 H   0  0  0  0  0  0  0  0  0  0  0  0
   -8.0313    9.6067   -7.2544 H   0  0  0  0  0  0  0  0  0  0  0  0
   -6.7563   12.3160   -6.9245 H   0  0  0  0  0  0  0  0  0  0  0  0
   -4.5218   13.2977   -6.4798 H   0  0  0  0  0  0  0  0  0  0  0  0
   -2.6703    9.7625   -8.0472 H   0  0  0  0  0  0  0  0  0  0  0  0
   -4.9024    8.7852   -8.4759 H   0  0  0  0  0  0  0  0  0  0  0  0
   -2.1269   14.2144   -7.1418 H   0  0  0  0  0  0  0  0  0  0  0  0
   -2.1691   13.5602   -5.4694 H   0  0  0  0  0  0  0  0  0  0  0  0
   -0.6637   10.5754   -7.6065 H   0  0  0  0  0  0  0  0  0  0  0  0
    1.4809   14.2752   -6.0543 H   0  0  0  0  0  0  0  0  0  0  0  0
    0.2393   15.4453   -6.6162 H   0  0  0  0  0  0  0  0  0  0  0  0
    0.1804   14.8105   -4.9369 H   0  0  0  0  0  0  0  0  0  0  0  0
   -6.4038   13.9739  -13.9153 H   0  0  0  0  0  0  0  0  0  0  0  0
   -5.1384   15.8875  -14.4370 H   0  0  0  0  0  0  0  0  0  0  0  0
   -3.3221   16.5493  -12.8978 H   0  0  0  0  0  0  0  0  0  0  0  0
   -4.4255   13.3274  -10.3224 H   0  0  0  0  0  0  0  0  0  0  0  0
   -2.6419   14.6376   -9.9343 H   0  0  0  0  0  0  0  0  0  0  0  0
  1  2  2  0  0  0  0
  1  4  1  0  0  0  0
  1 11  1  0  0  0  0
  2  6  1  0  0  0  0
  3  4  2  0  0  0  0
  3  5  1  0  0  0  0
  5  6  2  0  0  0  0
  5  9  1  0  0  0  0
  6  7  1  0  0  0  0
  7  8  1  0  0  0  0
  7 10  1  0  0  0  0
  8  9  2  0  0  0  0
 10 12  2  0  0  0  0
 11 24  1  0  0  0  0
 11 28  2  0  0  0  0
 12 13  1  0  0  0  0
 12 17  1  0  0  0  0
 13 14  2  0  0  0  0
 14 15  1  0  0  0  0
 15 16  1  0  0  0  0
 15 18  2  0  0  0  0
 16 17  2  0  0  0  0
 18 19  1  0  0  0  0
 18 22  1  0  0  0  0
 19 20  1  0  0  0  0
 20 21  1  0  0  0  0
 20 23  1  0  0  0  0
 21 22  2  0  0  0  0
 24 25  1  0  0  0  0
 25 26  2  0  0  0  0
 26 27  1  0  0  0  0
 27 28  1  0  0  0  0
 27 29  2  0  0  0  0
  2 30  1  0  0  0  0
  3 31  1  0  0  0  0
  4 32  1  0  0  0  0
  7 33  1  0  0  0  0
 10 34  1  0  0  0  0
 13 35  1  0  0  0  0
 14 36  1  0  0  0  0
 16 37  1  0  0  0  0
 17 38  1  0  0  0  0
 19 39  1  0  0  0  0
 19 40  1  0  0  0  0
 22 41  1  0  0  0  0
 23 42  1  0  0  0  0
 23 43  1  0  0  0  0
 23 44  1  0  0  0  0
 24 45  1  0  0  0  0
 25 46  1  0  0  0  0
 26 47  1  0  0  0  0
 28 48  1  0  0  0  0
 29 49  1  0  0  0  0
M  END
> <Name>
23

> <IC50[uM]>
0.27

$$$$
23
  -OEChem-05192314333D
 Structure written by MMmdl.
 49 53  0     1  0  0  0  0  0999 V2000
   -6.3775   12.3296  -12.0018 C   0  0  0  0  0  0  0  0  0  0  0  0
   -6.5098   11.7629  -10.7403 C   0  0  0  0  0  0  0  0  0  0  0  0
   -7.7247   10.5660  -13.0266 C   0  0  0  0  0  0  0  0  0  0  0  0
   -6.9942   11.7487  -13.1193 C   0  0  0  0  0  0  0  0  0  0  0  0
   -7.8312   10.0057  -11.7538 C   0  0  0  0  0  0  0  0  0  0  0  0
   -7.2443   10.6021  -10.6070 C   0  0  0  0  0  0  0  0  0  0  0  0
   -7.6167    9.7449   -9.5151 C   0  0  0  0  0  0  0  0  0  0  0  0
   -8.2961    8.7374   -9.9786 N   0  0  0  0  0  0  0  0  0  0  0  0
   -8.4404    8.8724  -11.2937 N   0  0  0  0  0  0  0  0  0  0  0  0
   -7.3318    9.8946   -8.0252 C   0  0  0  0  0  0  0  0  0  0  0  0
   -5.5478   13.5112  -12.1572 C   0  0  3  0  0  0  0  0  0  0  0  0
   -5.9707   10.4870   -7.7351 C   0  0  0  0  0  0  0  0  0  0  0  0
   -5.8642   11.7588   -7.1694 C   0  0  0  0  0  0  0  0  0  0  0  0
   -4.6019   12.3141   -6.9186 C   0  0  0  0  0  0  0  0  0  0  0  0
   -3.4503   11.5963   -7.2357 C   0  0  0  0  0  0  0  0  0  0  0  0
   -3.5604   10.3220   -7.8000 C   0  0  0  0  0  0  0  0  0  0  0  0
   -4.8213    9.7719   -8.0443 C   0  0  0  0  0  0  0  0  0  0  0  0
   -2.0996   12.1710   -6.9757 C   0  0  0  0  0  0  0  0  0  0  0  0
   -1.7487   13.4240   -6.4767 C   0  0  0  0  0  0  0  0  0  0  0  0
   -0.4123   13.4674   -6.4260 N   0  0  0  0  0  0  0  0  0  0  0  0
    0.1713   12.3664   -6.8217 N   0  0  0  0  0  0  0  0  0  0  0  0
   -0.8093   11.5624   -7.1930 C   0  0  0  0  0  0  0  0  0  0  0  0
    0.4224   14.5657   -5.9816 C   0  0  0  0  0  0  0  0  0  0  0  0
   -5.6966   14.2423  -13.2612 N   0  0  0  0  0  0  0  0  0  0  0  0
   -4.9506   15.3153  -13.5405 C   0  0  0  0  0  0  0  0  0  0  0  0
   -3.9383   15.6899  -12.6782 C   0  0  0  0  0  0  0  0  0  0  0  0
   -3.7261   14.9536  -11.5366 C   0  0  0  0  0  0  0  0  0  0  0  0
   -4.5508   13.8769  -11.2437 C   0  0  0  0  0  0  0  0  0  0  0  0
   -2.6976   15.2614  -10.7139 N   0  0  0  0  0  0  0  0  0  0  0  0
   -6.0464   12.2223   -9.8797 H   0  0  0  0  0  0  0  0  0  0  0  0
   -8.1826   10.1089  -13.8914 H   0  0  0  0  0  0  0  0  0  0  0  0
   -6.9001   12.2325  -14.0803 H   0  0  0  0  0  0  0  0  0  0  0  0
   -8.0313    9.6067   -7.2544 H   0  0  0  0  0  0  0  0  0  0  0  0
   -6.2890   14.1255  -11.6250 H   0  0  0  0  0  0  0  0  0  0  0  0
   -6.7563   12.3160   -6.9245 H   0  0  0  0  0  0  0  0  0  0  0  0
   -4.5218   13.2977   -6.4798 H   0  0  0  0  0  0  0  0  0  0  0  0
   -2.6703    9.7625   -8.0472 H   0  0  0  0  0  0  0  0  0  0  0  0
   -4.9024    8.7852   -8.4759 H   0  0  0  0  0  0  0  0  0  0  0  0
   -2.4277   14.2118   -6.1857 H   0  0  0  0  0  0  0  0  0  0  0  0
   -0.6637   10.5754   -7.6065 H   0  0  0  0  0  0  0  0  0  0  0  0
    1.4809   14.2752   -6.0543 H   0  0  0  0  0  0  0  0  0  0  0  0
    0.2393   15.4453   -6.6162 H   0  0  0  0  0  0  0  0  0  0  0  0
    0.1804   14.8105   -4.9369 H   0  0  0  0  0  0  0  0  0  0  0  0
   -5.1384   15.8875  -14.4370 H   0  0  0  0  0  0  0  0  0  0  0  0
   -3.0010   15.6690  -13.2536 H   0  0  0  0  0  0  0  0  0  0  0  0
   -4.1509   16.7215  -12.3610 H   0  0  0  0  0  0  0  0  0  0  0  0
   -5.0546   14.1072  -10.2933 H   0  0  0  0  0  0  0  0  0  0  0  0
   -3.8997   13.0003  -11.1106 H   0  0  0  0  0  0  0  0  0  0  0  0
   -2.6419   14.6376   -9.9343 H   0  0  0  0  0  0  0  0  0  0  0  0
  1  2  2  0  0  0  0
  1  4  1  0  0  0  0
  1 11  1  0  0  0  0
  2  6  1  0  0  0  0
  3  4  2  0  0  0  0
  3  5  1  0  0  0  0
  5  6  2  0  0  0  0
  5  9  1  0  0  0  0
  6  7  1  0  0  0  0
  7  8  1  0  0  0  0
  7 10  2  3  0  0  0
  8  9  2  0  0  0  0
 10 12  1  0  0  0  0
 11 24  1  0  0  0  0
 11 28  1  0  0  0  0
 12 13  2  0  0  0  0
 12 17  1  0  0  0  0
 13 14  1  0  0  0  0
 14 15  2  0  0  0  0
 15 16  1  0  0  0  0
 15 18  1  0  0  0  0
 16 17  2  0  0  0  0
 18 19  2  0  0  0  0
 18 22  1  0  0  0  0
 19 20  1  0  0  0  0
 20 21  1  0  0  0  0
 20 23  1  0  0  0  0
 21 22  2  0  0  0  0
 24 25  2  0  0  0  0
 25 26  1  0  0  0  0
 26 27  1  0  0  0  0
 27 28  1  0  0  0  0
 27 29  2  0  0  0  0
  2 30  1  0  0  0  0
  3 31  1  0  0  0  0
  4 32  1  0  0  0  0
 10 33  1  0  0  0  0
 11 34  1  0  0  0  0
 13 35  1  0  0  0  0
 14 36  1  0  0  0  0
 16 37  1  0  0  0  0
 17 38  1  0  0  0  0
 19 39  1  0  0  0  0
 22 40  1  0  0  0  0
 23 41  1  0  0  0  0
 23 42  1  0  0  0  0
 23 43  1  0  0  0  0
 25 44  1  0  0  0  0
 26 45  1  0  0  0  0
 26 46  1  0  0  0  0
 28 47  1  0  0  0  0
 28 48  1  0  0  0  0
 29 49  1  0  0  0  0
M  END
> <Name>
23

> <IC50[uM]>
0.27

$$$$
23
  -OEChem-05192314333D
 Structure written by MMmdl.
 49 53  0     1  0  0  0  0  0999 V2000
   -6.3775   12.3296  -12.0018 C   0  0  0  0  0  0  0  0  0  0  0  0
   -6.5098   11.7629  -10.7403 C   0  0  0  0  0  0  0  0  0  0  0  0
   -7.7247   10.5660  -13.0266 C   0  0  0  0  0  0  0  0  0  0  0  0
   -6.9942   11.7487  -13.1193 C   0  0  0  0  0  0  0  0  0  0  0  0
   -7.8312   10.0057  -11.7538 C   0  0  0  0  0  0  0  0  0  0  0  0
   -7.2443   10.6021  -10.6070 C   0  0  0  0  0  0  0  0  0  0  0  0
   -7.6167    9.7449   -9.5151 C   0  0  3  0  0  0  0  0  0  0  0  0
   -8.2961    8.7374   -9.9786 N   0  0  0  0  0  0  0  0  0  0  0  0
   -8.4404    8.8724  -11.2937 N   0  0  0  0  0  0  0  0  0  0  0  0
   -7.3318    9.8946   -8.0252 C   0  0  0  0  0  0  0  0  0  0  0  0
   -5.5478   13.5112  -12.1572 C   0  0  0  0  0  0  0  0  0  0  0  0
   -5.9707   10.4870   -7.7351 C   0  0  0  0  0  0  0  0  0  0  0  0
   -5.8642   11.7588   -7.1694 C   0  0  0  0  0  0  0  0  0  0  0  0
   -4.6019   12.3141   -6.9186 C   0  0  0  0  0  0  0  0  0  0  0  0
   -3.4503   11.5963   -7.2357 C   0  0  0  0  0  0  0  0  0  0  0  0
   -3.5604   10.3220   -7.8000 C   0  0  0  0  0  0  0  0  0  0  0  0
   -4.8213    9.7719   -8.0443 C   0  0  0  0  0  0  0  0  0  0  0  0
   -2.0996   12.1710   -6.9757 C   0  0  0  0  0  0  0  0  0  0  0  0
   -1.7487   13.4240   -6.4767 C   0  0  0  0  0  0  0  0  0  0  0  0
   -0.4123   13.4674   -6.4260 N   0  0  0  0  0  0  0  0  0  0  0  0
    0.1713   12.3664   -6.8217 N   0  0  0  0  0  0  0  0  0  0  0  0
   -0.8093   11.5624   -7.1930 C   0  0  0  0  0  0  0  0  0  0  0  0
    0.4224   14.5657   -5.9816 C   0  0  0  0  0  0  0  0  0  0  0  0
   -5.6966   14.2423  -13.2612 N   0  0  0  0  0  0  0  0  0  0  0  0
   -4.9506   15.3153  -13.5405 C   0  0  0  0  0  0  0  0  0  0  0  0
   -3.9383   15.6899  -12.6782 C   0  0  0  0  0  0  0  0  0  0  0  0
   -3.7261   14.9536  -11.5366 C   0  0  0  0  0  0  0  0  0  0  0  0
   -4.5508   13.8769  -11.2437 C   0  0  0  0  0  0  0  0  0  0  0  0
   -2.6976   15.2614  -10.7139 N   0  0  0  0  0  0  0  0  0  0  0  0
   -6.0464   12.2223   -9.8797 H   0  0  0  0  0  0  0  0  0  0  0  0
   -8.1826   10.1089  -13.8914 H   0  0  0  0  0  0  0  0  0  0  0  0
   -6.9001   12.2325  -14.0803 H   0  0  0  0  0  0  0  0  0  0  0  0
   -6.6832    9.1765   -9.6392 H   0  0  0  0  0  0  0  0  0  0  0  0
   -8.0989   10.5499   -7.5868 H   0  0  0  0  0  0  0  0  0  0  0  0
   -7.3874    8.9007   -7.5571 H   0  0  0  0  0  0  0  0  0  0  0  0
   -6.7563   12.3160   -6.9245 H   0  0  0  0  0  0  0  0  0  0  0  0
   -4.5218   13.2977   -6.4798 H   0  0  0  0  0  0  0  0  0  0  0  0
   -2.6703    9.7625   -8.0472 H   0  0  0  0  0  0  0  0  0  0  0  0
   -4.9024    8.7852   -8.4759 H   0  0  0  0  0  0  0  0  0  0  0  0
   -2.4277   14.2118   -6.1857 H   0  0  0  0  0  0  0  0  0  0  0  0
   -0.6637   10.5754   -7.6065 H   0  0  0  0  0  0  0  0  0  0  0  0
    1.4809   14.2752   -6.0543 H   0  0  0  0  0  0  0  0  0  0  0  0
    0.2393   15.4453   -6.6162 H   0  0  0  0  0  0  0  0  0  0  0  0
    0.1804   14.8105   -4.9369 H   0  0  0  0  0  0  0  0  0  0  0  0
   -5.1384   15.8875  -14.4370 H   0  0  0  0  0  0  0  0  0  0  0  0
   -3.0010   15.6690  -13.2536 H   0  0  0  0  0  0  0  0  0  0  0  0
   -4.1509   16.7215  -12.3610 H   0  0  0  0  0  0  0  0  0  0  0  0
   -4.4255   13.3274  -10.3224 H   0  0  0  0  0  0  0  0  0  0  0  0
   -2.6419   14.6376   -9.9343 H   0  0  0  0  0  0  0  0  0  0  0  0
  1  2  2  0  0  0  0
  1  4  1  0  0  0  0
  1 11  1  0  0  0  0
  2  6  1  0  0  0  0
  3  4  2  0  0  0  0
  3  5  1  0  0  0  0
  5  6  2  0  0  0  0
  5  9  1  0  0  0  0
  6  7  1  0  0  0  0
  7  8  1  0  0  0  0
  7 10  1  0  0  0  0
  8  9  2  0  0  0  0
 10 12  1  0  0  0  0
 11 24  1  0  0  0  0
 11 28  2  0  0  0  0
 12 13  2  0  0  0  0
 12 17  1  0  0  0  0
 13 14  1  0  0  0  0
 14 15  2  0  0  0  0
 15 16  1  0  0  0  0
 15 18  1  0  0  0  0
 16 17  2  0  0  0  0
 18 19  2  0  0  0  0
 18 22  1  0  0  0  0
 19 20  1  0  0  0  0
 20 21  1  0  0  0  0
 20 23  1  0  0  0  0
 21 22  2  0  0  0  0
 24 25  2  0  0  0  0
 25 26  1  0  0  0  0
 26 27  1  0  0  0  0
 27 28  1  0  0  0  0
 27 29  2  0  0  0  0
  2 30  1  0  0  0  0
  3 31  1  0  0  0  0
  4 32  1  0  0  0  0
  7 33  1  0  0  0  0
 10 34  1  0  0  0  0
 10 35  1  0  0  0  0
 13 36  1  0  0  0  0
 14 37  1  0  0  0  0
 16 38  1  0  0  0  0
 17 39  1  0  0  0  0
 19 40  1  0  0  0  0
 22 41  1  0  0  0  0
 23 42  1  0  0  0  0
 23 43  1  0  0  0  0
 23 44  1  0  0  0  0
 25 45  1  0  0  0  0
 26 46  1  0  0  0  0
 26 47  1  0  0  0  0
 28 48  1  0  0  0  0
 29 49  1  0  0  0  0
M  END
> <Name>
23

> <IC50[uM]>
0.27

$$$$
23
  -OEChem-05192314333D
 Structure written by MMmdl.
 49 53  0     1  0  0  0  0  0999 V2000
   -6.3775   12.3296  -12.0018 C   0  0  0  0  0  0  0  0  0  0  0  0
   -6.5098   11.7629  -10.7403 C   0  0  0  0  0  0  0  0  0  0  0  0
   -7.7247   10.5660  -13.0266 C   0  0  0  0  0  0  0  0  0  0  0  0
   -6.9942   11.7487  -13.1193 C   0  0  0  0  0  0  0  0  0  0  0  0
   -7.8312   10.0057  -11.7538 C   0  0  0  0  0  0  0  0  0  0  0  0
   -7.2443   10.6021  -10.6070 C   0  0  0  0  0  0  0  0  0  0  0  0
   -7.6167    9.7449   -9.5151 C   0  0  3  0  0  0  0  0  0  0  0  0
   -8.2961    8.7374   -9.9786 N   0  0  0  0  0  0  0  0  0  0  0  0
   -8.4404    8.8724  -11.2937 N   0  0  0  0  0  0  0  0  0  0  0  0
   -7.3318    9.8946   -8.0252 C   0  0  0  0  0  0  0  0  0  0  0  0
   -5.5478   13.5112  -12.1572 C   0  0  0  0  0  0  0  0  0  0  0  0
   -5.9707   10.4870   -7.7351 C   0  0  0  0  0  0  0  0  0  0  0  0
   -5.8642   11.7588   -7.1694 C   0  0  0  0  0  0  0  0  0  0  0  0
   -4.6019   12.3141   -6.9186 C   0  0  0  0  0  0  0  0  0  0  0  0
   -3.4503   11.5963   -7.2357 C   0  0  0  0  0  0  0  0  0  0  0  0
   -3.5604   10.3220   -7.8000 C   0  0  0  0  0  0  0  0  0  0  0  0
   -4.8213    9.7719   -8.0443 C   0  0  0  0  0  0  0  0  0  0  0  0
   -2.0996   12.1710   -6.9757 C   0  0  0  0  0  0  0  0  0  0  0  0
   -1.7487   13.4240   -6.4767 C   0  0  0  0  0  0  0  0  0  0  0  0
   -0.4123   13.4674   -6.4260 N   0  0  0  0  0  0  0  0  0  0  0  0
    0.1713   12.3664   -6.8217 N   0  0  0  0  0  0  0  0  0  0  0  0
   -0.8093   11.5624   -7.1930 C   0  0  0  0  0  0  0  0  0  0  0  0
    0.4224   14.5657   -5.9816 C   0  0  0  0  0  0  0  0  0  0  0  0
   -5.6966   14.2423  -13.2612 N   0  0  0  0  0  0  0  0  0  0  0  0
   -4.9506   15.3153  -13.5405 C   0  0  0  0  0  0  0  0  0  0  0  0
   -3.9383   15.6899  -12.6782 C   0  0  0  0  0  0  0  0  0  0  0  0
   -3.7261   14.9536  -11.5366 C   0  0  0  0  0  0  0  0  0  0  0  0
   -4.5508   13.8769  -11.2437 C   0  0  0  0  0  0  0  0  0  0  0  0
   -2.6976   15.2614  -10.7139 N   0  0  0  0  0  0  0  0  0  0  0  0
   -6.0464   12.2223   -9.8797 H   0  0  0  0  0  0  0  0  0  0  0  0
   -8.1826   10.1089  -13.8914 H   0  0  0  0  0  0  0  0  0  0  0  0
   -6.9001   12.2325  -14.0803 H   0  0  0  0  0  0  0  0  0  0  0  0
   -6.6832    9.1765   -9.6392 H   0  0  0  0  0  0  0  0  0  0  0  0
   -8.0989   10.5499   -7.5868 H   0  0  0  0  0  0  0  0  0  0  0  0
   -7.3874    8.9007   -7.5571 H   0  0  0  0  0  0  0  0  0  0  0  0
   -6.7563   12.3160   -6.9245 H   0  0  0  0  0  0  0  0  0  0  0  0
   -4.5218   13.2977   -6.4798 H   0  0  0  0  0  0  0  0  0  0  0  0
   -2.6703    9.7625   -8.0472 H   0  0  0  0  0  0  0  0  0  0  0  0
   -4.9024    8.7852   -8.4759 H   0  0  0  0  0  0  0  0  0  0  0  0
   -2.4277   14.2118   -6.1857 H   0  0  0  0  0  0  0  0  0  0  0  0
   -0.6637   10.5754   -7.6065 H   0  0  0  0  0  0  0  0  0  0  0  0
    1.4809   14.2752   -6.0543 H   0  0  0  0  0  0  0  0  0  0  0  0
    0.2393   15.4453   -6.6162 H   0  0  0  0  0  0  0  0  0  0  0  0
    0.1804   14.8105   -4.9369 H   0  0  0  0  0  0  0  0  0  0  0  0
   -5.1384   15.8875  -14.4370 H   0  0  0  0  0  0  0  0  0  0  0  0
   -3.3221   16.5493  -12.8978 H   0  0  0  0  0  0  0  0  0  0  0  0
   -5.0546   14.1072  -10.2933 H   0  0  0  0  0  0  0  0  0  0  0  0
   -3.8997   13.0003  -11.1106 H   0  0  0  0  0  0  0  0  0  0  0  0
   -2.6419   14.6376   -9.9343 H   0  0  0  0  0  0  0  0  0  0  0  0
  1  2  2  0  0  0  0
  1  4  1  0  0  0  0
  1 11  1  0  0  0  0
  2  6  1  0  0  0  0
  3  4  2  0  0  0  0
  3  5  1  0  0  0  0
  5  6  2  0  0  0  0
  5  9  1  0  0  0  0
  6  7  1  0  0  0  0
  7  8  1  0  0  0  0
  7 10  1  0  0  0  0
  8  9  2  0  0  0  0
 10 12  1  0  0  0  0
 11 24  2  0  0  0  0
 11 28  1  0  0  0  0
 12 13  2  0  0  0  0
 12 17  1  0  0  0  0
 13 14  1  0  0  0  0
 14 15  2  0  0  0  0
 15 16  1  0  0  0  0
 15 18  1  0  0  0  0
 16 17  2  0  0  0  0
 18 19  2  0  0  0  0
 18 22  1  0  0  0  0
 19 20  1  0  0  0  0
 20 21  1  0  0  0  0
 20 23  1  0  0  0  0
 21 22  2  0  0  0  0
 24 25  1  0  0  0  0
 25 26  2  0  0  0  0
 26 27  1  0  0  0  0
 27 28  1  0  0  0  0
 27 29  2  0  0  0  0
  2 30  1  0  0  0  0
  3 31  1  0  0  0  0
  4 32  1  0  0  0  0
  7 33  1  0  0  0  0
 10 34  1  0  0  0  0
 10 35  1  0  0  0  0
 13 36  1  0  0  0  0
 14 37  1  0  0  0  0
 16 38  1  0  0  0  0
 17 39  1  0  0  0  0
 19 40  1  0  0  0  0
 22 41  1  0  0  0  0
 23 42  1  0  0  0  0
 23 43  1  0  0  0  0
 23 44  1  0  0  0  0
 25 45  1  0  0  0  0
 26 46  1  0  0  0  0
 28 47  1  0  0  0  0
 28 48  1  0  0  0  0
 29 49  1  0  0  0  0
M  END
> <Name>
23

> <IC50[uM]>
0.27

$$$$
23
  -OEChem-05192314333D
 Structure written by MMmdl.
 49 53  0     0  0  0  0  0  0999 V2000
   -6.3775   12.3296  -12.0018 C   0  0  0  0  0  0  0  0  0  0  0  0
   -6.5098   11.7629  -10.7403 C   0  0  0  0  0  0  0  0  0  0  0  0
   -7.7247   10.5660  -13.0266 C   0  0  0  0  0  0  0  0  0  0  0  0
   -6.9942   11.7487  -13.1193 C   0  0  0  0  0  0  0  0  0  0  0  0
   -7.8312   10.0057  -11.7538 C   0  0  0  0  0  0  0  0  0  0  0  0
   -7.2443   10.6021  -10.6070 C   0  0  0  0  0  0  0  0  0  0  0  0
   -7.6167    9.7449   -9.5151 C   0  0  0  0  0  0  0  0  0  0  0  0
   -8.2961    8.7374   -9.9786 N   0  0  0  0  0  0  0  0  0  0  0  0
   -8.4404    8.8724  -11.2937 N   0  0  0  0  0  0  0  0  0  0  0  0
   -7.3318    9.8946   -8.0252 C   0  0  0  0  0  0  0  0  0  0  0  0
   -5.5478   13.5112  -12.1572 C   0  0  0  0  0  0  0  0  0  0  0  0
   -5.9707   10.4870   -7.7351 C   0  0  0  0  0  0  0  0  0  0  0  0
   -5.8642   11.7588   -7.1694 C   0  0  0  0  0  0  0  0  0  0  0  0
   -4.6019   12.3141   -6.9186 C   0  0  0  0  0  0  0  0  0  0  0  0
   -3.4503   11.5963   -7.2357 C   0  0  0  0  0  0  0  0  0  0  0  0
   -3.5604   10.3220   -7.8000 C   0  0  0  0  0  0  0  0  0  0  0  0
   -4.8213    9.7719   -8.0443 C   0  0  0  0  0  0  0  0  0  0  0  0
   -2.0996   12.1710   -6.9757 C   0  0  0  0  0  0  0  0  0  0  0  0
   -1.7487   13.4240   -6.4767 C   0  0  0  0  0  0  0  0  0  0  0  0
   -0.4123   13.4674   -6.4260 N   0  0  0  0  0  0  0  0  0  0  0  0
    0.1713   12.3664   -6.8217 N   0  0  0  0  0  0  0  0  0  0  0  0
   -0.8093   11.5624   -7.1930 C   0  0  0  0  0  0  0  0  0  0  0  0
    0.4224   14.5657   -5.9816 C   0  0  0  0  0  0  0  0  0  0  0  0
   -5.6966   14.2423  -13.2612 N   0  0  0  0  0  0  0  0  0  0  0  0
   -4.9506   15.3153  -13.5405 C   0  0  0  0  0  0  0  0  0  0  0  0
   -3.9383   15.6899  -12.6782 C   0  0  0  0  0  0  0  0  0  0  0  0
   -3.7261   14.9536  -11.5366 C   0  0  0  0  0  0  0  0  0  0  0  0
   -4.5508   13.8769  -11.2437 C   0  0  0  0  0  0  0  0  0  0  0  0
   -2.6976   15.2614  -10.7139 N   0  0  0  0  0  0  0  0  0  0  0  0
   -6.0464   12.2223   -9.8797 H   0  0  0  0  0  0  0  0  0  0  0  0
   -8.1826   10.1089  -13.8914 H   0  0  0  0  0  0  0  0  0  0  0  0
   -6.9001   12.2325  -14.0803 H   0  0  0  0  0  0  0  0  0  0  0  0
   -8.0313    9.6067   -7.2544 H   0  0  0  0  0  0  0  0  0  0  0  0
   -6.7563   12.3160   -6.9245 H   0  0  0  0  0  0  0  0  0  0  0  0
   -4.5218   13.2977   -6.4798 H   0  0  0  0  0  0  0  0  0  0  0  0
   -2.6703    9.7625   -8.0472 H   0  0  0  0  0  0  0  0  0  0  0  0
   -4.9024    8.7852   -8.4759 H   0  0  0  0  0  0  0  0  0  0  0  0
   -2.4277   14.2118   -6.1857 H   0  0  0  0  0  0  0  0  0  0  0  0
   -0.6637   10.5754   -7.6065 H   0  0  0  0  0  0  0  0  0  0  0  0
    1.4809   14.2752   -6.0543 H   0  0  0  0  0  0  0  0  0  0  0  0
    0.2393   15.4453   -6.6162 H   0  0  0  0  0  0  0  0  0  0  0  0
    0.1804   14.8105   -4.9369 H   0  0  0  0  0  0  0  0  0  0  0  0
   -4.4839   15.1329  -14.5197 H   0  0  0  0  0  0  0  0  0  0  0  0
   -5.6381   16.1707  -13.6156 H   0  0  0  0  0  0  0  0  0  0  0  0
   -3.0010   15.6690  -13.2536 H   0  0  0  0  0  0  0  0  0  0  0  0
   -4.1509   16.7215  -12.3610 H   0  0  0  0  0  0  0  0  0  0  0  0
   -5.0546   14.1072  -10.2933 H   0  0  0  0  0  0  0  0  0  0  0  0
   -3.8997   13.0003  -11.1106 H   0  0  0  0  0  0  0  0  0  0  0  0
   -2.6419   14.6376   -9.9343 H   0  0  0  0  0  0  0  0  0  0  0  0
  1  2  2  0  0  0  0
  1  4  1  0  0  0  0
  1 11  1  0  0  0  0
  2  6  1  0  0  0  0
  3  4  2  0  0  0  0
  3  5  1  0  0  0  0
  5  6  2  0  0  0  0
  5  9  1  0  0  0  0
  6  7  1  0  0  0  0
  7  8  1  0  0  0  0
  7 10  2  3  0  0  0
  8  9  2  0  0  0  0
 10 12  1  0  0  0  0
 11 24  2  0  0  0  0
 11 28  1  0  0  0  0
 12 13  2  0  0  0  0
 12 17  1  0  0  0  0
 13 14  1  0  0  0  0
 14 15  2  0  0  0  0
 15 16  1  0  0  0  0
 15 18  1  0  0  0  0
 16 17  2  0  0  0  0
 18 19  2  0  0  0  0
 18 22  1  0  0  0  0
 19 20  1  0  0  0  0
 20 21  1  0  0  0  0
 20 23  1  0  0  0  0
 21 22  2  0  0  0  0
 24 25  1  0  0  0  0
 25 26  1  0  0  0  0
 26 27  1  0  0  0  0
 27 28  1  0  0  0  0
 27 29  2  0  0  0  0
  2 30  1  0  0  0  0
  3 31  1  0  0  0  0
  4 32  1  0  0  0  0
 10 33  1  0  0  0  0
 13 34  1  0  0  0  0
 14 35  1  0  0  0  0
 16 36  1  0  0  0  0
 17 37  1  0  0  0  0
 19 38  1  0  0  0  0
 22 39  1  0  0  0  0
 23 40  1  0  0  0  0
 23 41  1  0  0  0  0
 23 42  1  0  0  0  0
 25 43  1  0  0  0  0
 25 44  1  0  0  0  0
 26 45  1  0  0  0  0
 26 46  1  0  0  0  0
 28 47  1  0  0  0  0
 28 48  1  0  0  0  0
 29 49  1  0  0  0  0
M  END
> <Name>
23

> <IC50[uM]>
0.27

$$$$
23
  -OEChem-05192314333D
 Structure written by MMmdl.
 49 53  0     1  0  0  0  0  0999 V2000
   -6.3775   12.3296  -12.0018 C   0  0  0  0  0  0  0  0  0  0  0  0
   -6.5098   11.7629  -10.7403 C   0  0  0  0  0  0  0  0  0  0  0  0
   -7.7247   10.5660  -13.0266 C   0  0  0  0  0  0  0  0  0  0  0  0
   -6.9942   11.7487  -13.1193 C   0  0  0  0  0  0  0  0  0  0  0  0
   -7.8312   10.0057  -11.7538 C   0  0  0  0  0  0  0  0  0  0  0  0
   -7.2443   10.6021  -10.6070 C   0  0  0  0  0  0  0  0  0  0  0  0
   -7.6167    9.7449   -9.5151 C   0  0  0  0  0  0  0  0  0  0  0  0
   -8.2961    8.7374   -9.9786 N   0  0  0  0  0  0  0  0  0  0  0  0
   -8.4404    8.8724  -11.2937 N   0  0  0  0  0  0  0  0  0  0  0  0
   -7.3318    9.8946   -8.0252 C   0  0  0  0  0  0  0  0  0  0  0  0
   -5.5478   13.5112  -12.1572 C   0  0  0  0  0  0  0  0  0  0  0  0
   -5.9707   10.4870   -7.7351 C   0  0  0  0  0  0  0  0  0  0  0  0
   -5.8642   11.7588   -7.1694 C   0  0  0  0  0  0  0  0  0  0  0  0
   -4.6019   12.3141   -6.9186 C   0  0  0  0  0  0  0  0  0  0  0  0
   -3.4503   11.5963   -7.2357 C   0  0  0  0  0  0  0  0  0  0  0  0
   -3.5604   10.3220   -7.8000 C   0  0  0  0  0  0  0  0  0  0  0  0
   -4.8213    9.7719   -8.0443 C   0  0  0  0  0  0  0  0  0  0  0  0
   -2.0996   12.1710   -6.9757 C   0  0  0  0  0  0  0  0  0  0  0  0
   -1.7487   13.4240   -6.4767 C   0  0  0  0  0  0  0  0  0  0  0  0
   -0.4123   13.4674   -6.4260 N   0  0  0  0  0  0  0  0  0  0  0  0
    0.1713   12.3664   -6.8217 N   0  0  0  0  0  0  0  0  0  0  0  0
   -0.8093   11.5624   -7.1930 C   0  0  0  0  0  0  0  0  0  0  0  0
    0.4224   14.5657   -5.9816 C   0  0  0  0  0  0  0  0  0  0  0  0
   -5.6966   14.2423  -13.2612 N   0  0  0  0  0  0  0  0  0  0  0  0
   -4.9506   15.3153  -13.5405 C   0  0  0  0  0  0  0  0  0  0  0  0
   -3.9383   15.6899  -12.6782 C   0  0  0  0  0  0  0  0  0  0  0  0
   -3.7261   14.9536  -11.5366 C   0  0  3  0  0  0  0  0  0  0  0  0
   -4.5508   13.8769  -11.2437 C   0  0  0  0  0  0  0  0  0  0  0  0
   -2.6976   15.2614  -10.7139 N   0  0  0  0  0  0  0  0  0  0  0  0
   -6.0464   12.2223   -9.8797 H   0  0  0  0  0  0  0  0  0  0  0  0
   -8.1826   10.1089  -13.8914 H   0  0  0  0  0  0  0  0  0  0  0  0
   -6.9001   12.2325  -14.0803 H   0  0  0  0  0  0  0  0  0  0  0  0
   -8.0313    9.6067   -7.2544 H   0  0  0  0  0  0  0  0  0  0  0  0
   -6.7563   12.3160   -6.9245 H   0  0  0  0  0  0  0  0  0  0  0  0
   -4.5218   13.2977   -6.4798 H   0  0  0  0  0  0  0  0  0  0  0  0
   -2.6703    9.7625   -8.0472 H   0  0  0  0  0  0  0  0  0  0  0  0
   -4.9024    8.7852   -8.4759 H   0  0  0  0  0  0  0  0  0  0  0  0
   -2.4277   14.2118   -6.1857 H   0  0  0  0  0  0  0  0  0  0  0  0
   -0.6637   10.5754   -7.6065 H   0  0  0  0  0  0  0  0  0  0  0  0
    1.4809   14.2752   -6.0543 H   0  0  0  0  0  0  0  0  0  0  0  0
    0.2393   15.4453   -6.6162 H   0  0  0  0  0  0  0  0  0  0  0  0
    0.1804   14.8105   -4.9369 H   0  0  0  0  0  0  0  0  0  0  0  0
   -5.1384   15.8875  -14.4370 H   0  0  0  0  0  0  0  0  0  0  0  0
   -3.0010   15.6690  -13.2536 H   0  0  0  0  0  0  0  0  0  0  0  0
   -4.1509   16.7215  -12.3610 H   0  0  0  0  0  0  0  0  0  0  0  0
   -4.3892   15.6249  -10.9713 H   0  0  0  0  0  0  0  0  0  0  0  0
   -4.4255   13.3274  -10.3224 H   0  0  0  0  0  0  0  0  0  0  0  0
   -2.6901   14.6302   -9.9383 H   0  0  0  0  0  0  0  0  0  0  0  0
   -1.8356   15.1840  -11.2148 H   0  0  0  0  0  0  0  0  0  0  0  0
  1  2  2  0  0  0  0
  1  4  1  0  0  0  0
  1 11  1  0  0  0  0
  2  6  1  0  0  0  0
  3  4  2  0  0  0  0
  3  5  1  0  0  0  0
  5  6  2  0  0  0  0
  5  9  1  0  0  0  0
  6  7  1  0  0  0  0
  7  8  1  0  0  0  0
  7 10  2  3  0  0  0
  8  9  2  0  0  0  0
 10 12  1  0  0  0  0
 11 24  1  0  0  0  0
 11 28  2  0  0  0  0
 12 13  2  0  0  0  0
 12 17  1  0  0  0  0
 13 14  1  0  0  0  0
 14 15  2  0  0  0  0
 15 16  1  0  0  0  0
 15 18  1  0  0  0  0
 16 17  2  0  0  0  0
 18 19  2  0  0  0  0
 18 22  1  0  0  0  0
 19 20  1  0  0  0  0
 20 21  1  0  0  0  0
 20 23  1  0  0  0  0
 21 22  2  0  0  0  0
 24 25  2  0  0  0  0
 25 26  1  0  0  0  0
 26 27  1  0  0  0  0
 27 28  1  0  0  0  0
 27 29  1  0  0  0  0
  2 30  1  0  0  0  0
  3 31  1  0  0  0  0
  4 32  1  0  0  0  0
 10 33  1  0  0  0  0
 13 34  1  0  0  0  0
 14 35  1  0  0  0  0
 16 36  1  0  0  0  0
 17 37  1  0  0  0  0
 19 38  1  0  0  0  0
 22 39  1  0  0  0  0
 23 40  1  0  0  0  0
 23 41  1  0  0  0  0
 23 42  1  0  0  0  0
 25 43  1  0  0  0  0
 26 44  1  0  0  0  0
 26 45  1  0  0  0  0
 27 46  1  0  0  0  0
 28 47  1  0  0  0  0
 29 48  1  0  0  0  0
 29 49  1  0  0  0  0
M  END
> <Name>
23

> <IC50[uM]>
0.27

$$$$
23
  -OEChem-05192314333D
 Structure written by MMmdl.
 49 53  0     1  0  0  0  0  0999 V2000
   -6.3775   12.3296  -12.0018 C   0  0  0  0  0  0  0  0  0  0  0  0
   -6.5098   11.7629  -10.7403 C   0  0  0  0  0  0  0  0  0  0  0  0
   -7.7247   10.5660  -13.0266 C   0  0  0  0  0  0  0  0  0  0  0  0
   -6.9942   11.7487  -13.1193 C   0  0  0  0  0  0  0  0  0  0  0  0
   -7.8312   10.0057  -11.7538 C   0  0  0  0  0  0  0  0  0  0  0  0
   -7.2443   10.6021  -10.6070 C   0  0  0  0  0  0  0  0  0  0  0  0
   -7.6167    9.7449   -9.5151 C   0  0  0  0  0  0  0  0  0  0  0  0
   -8.2961    8.7374   -9.9786 N   0  0  0  0  0  0  0  0  0  0  0  0
   -8.4404    8.8724  -11.2937 N   0  0  0  0  0  0  0  0  0  0  0  0
   -7.3318    9.8946   -8.0252 C   0  0  0  0  0  0  0  0  0  0  0  0
   -5.5478   13.5112  -12.1572 C   0  0  3  0  0  0  0  0  0  0  0  0
   -5.9707   10.4870   -7.7351 C   0  0  0  0  0  0  0  0  0  0  0  0
   -5.8642   11.7588   -7.1694 C   0  0  0  0  0  0  0  0  0  0  0  0
   -4.6019   12.3141   -6.9186 C   0  0  0  0  0  0  0  0  0  0  0  0
   -3.4503   11.5963   -7.2357 C   0  0  0  0  0  0  0  0  0  0  0  0
   -3.5604   10.3220   -7.8000 C   0  0  0  0  0  0  0  0  0  0  0  0
   -4.8213    9.7719   -8.0443 C   0  0  0  0  0  0  0  0  0  0  0  0
   -2.0996   12.1710   -6.9757 C   0  0  0  0  0  0  0  0  0  0  0  0
   -1.7487   13.4240   -6.4767 C   0  0  0  0  0  0  0  0  0  0  0  0
   -0.4123   13.4674   -6.4260 N   0  0  0  0  0  0  0  0  0  0  0  0
    0.1713   12.3664   -6.8217 N   0  0  0  0  0  0  0  0  0  0  0  0
   -0.8093   11.5624   -7.1930 C   0  0  0  0  0  0  0  0  0  0  0  0
    0.4224   14.5657   -5.9816 C   0  0  0  0  0  0  0  0  0  0  0  0
   -5.6966   14.2423  -13.2612 N   0  0  0  0  0  0  0  0  0  0  0  0
   -4.9506   15.3153  -13.5405 C   0  0  0  0  0  0  0  0  0  0  0  0
   -3.9383   15.6899  -12.6782 C   0  0  0  0  0  0  0  0  0  0  0  0
   -3.7261   14.9536  -11.5366 C   0  0  0  0  0  0  0  0  0  0  0  0
   -4.5508   13.8769  -11.2437 C   0  0  0  0  0  0  0  0  0  0  0  0
   -2.6976   15.2614  -10.7139 N   0  0  0  0  0  0  0  0  0  0  0  0
   -6.0464   12.2223   -9.8797 H   0  0  0  0  0  0  0  0  0  0  0  0
   -8.1826   10.1089  -13.8914 H   0  0  0  0  0  0  0  0  0  0  0  0
   -6.9001   12.2325  -14.0803 H   0  0  0  0  0  0  0  0  0  0  0  0
   -8.0313    9.6067   -7.2544 H   0  0  0  0  0  0  0  0  0  0  0  0
   -6.2890   14.1255  -11.6250 H   0  0  0  0  0  0  0  0  0  0  0  0
   -6.7563   12.3160   -6.9245 H   0  0  0  0  0  0  0  0  0  0  0  0
   -4.5218   13.2977   -6.4798 H   0  0  0  0  0  0  0  0  0  0  0  0
   -2.6703    9.7625   -8.0472 H   0  0  0  0  0  0  0  0  0  0  0  0
   -4.9024    8.7852   -8.4759 H   0  0  0  0  0  0  0  0  0  0  0  0
   -2.4277   14.2118   -6.1857 H   0  0  0  0  0  0  0  0  0  0  0  0
   -0.6637   10.5754   -7.6065 H   0  0  0  0  0  0  0  0  0  0  0  0
    1.4809   14.2752   -6.0543 H   0  0  0  0  0  0  0  0  0  0  0  0
    0.2393   15.4453   -6.6162 H   0  0  0  0  0  0  0  0  0  0  0  0
    0.1804   14.8105   -4.9369 H   0  0  0  0  0  0  0  0  0  0  0  0
   -5.1384   15.8875  -14.4370 H   0  0  0  0  0  0  0  0  0  0  0  0
   -3.0010   15.6690  -13.2536 H   0  0  0  0  0  0  0  0  0  0  0  0
   -4.1509   16.7215  -12.3610 H   0  0  0  0  0  0  0  0  0  0  0  0
   -4.4255   13.3274  -10.3224 H   0  0  0  0  0  0  0  0  0  0  0  0
   -2.6901   14.6302   -9.9383 H   0  0  0  0  0  0  0  0  0  0  0  0
   -1.8356   15.1840  -11.2148 H   0  0  0  0  0  0  0  0  0  0  0  0
  1  2  2  0  0  0  0
  1  4  1  0  0  0  0
  1 11  1  0  0  0  0
  2  6  1  0  0  0  0
  3  4  2  0  0  0  0
  3  5  1  0  0  0  0
  5  6  2  0  0  0  0
  5  9  1  0  0  0  0
  6  7  1  0  0  0  0
  7  8  1  0  0  0  0
  7 10  2  3  0  0  0
  8  9  2  0  0  0  0
 10 12  1  0  0  0  0
 11 24  1  0  0  0  0
 11 28  1  0  0  0  0
 12 13  2  0  0  0  0
 12 17  1  0  0  0  0
 13 14  1  0  0  0  0
 14 15  2  0  0  0  0
 15 16  1  0  0  0  0
 15 18  1  0  0  0  0
 16 17  2  0  0  0  0
 18 19  2  0  0  0  0
 18 22  1  0  0  0  0
 19 20  1  0  0  0  0
 20 21  1  0  0  0  0
 20 23  1  0  0  0  0
 21 22  2  0  0  0  0
 24 25  2  0  0  0  0
 25 26  1  0  0  0  0
 26 27  1  0  0  0  0
 27 28  2  0  0  0  0
 27 29  1  0  0  0  0
  2 30  1  0  0  0  0
  3 31  1  0  0  0  0
  4 32  1  0  0  0  0
 10 33  1  0  0  0  0
 11 34  1  0  0  0  0
 13 35  1  0  0  0  0
 14 36  1  0  0  0  0
 16 37  1  0  0  0  0
 17 38  1  0  0  0  0
 19 39  1  0  0  0  0
 22 40  1  0  0  0  0
 23 41  1  0  0  0  0
 23 42  1  0  0  0  0
 23 43  1  0  0  0  0
 25 44  1  0  0  0  0
 26 45  1  0  0  0  0
 26 46  1  0  0  0  0
 28 47  1  0  0  0  0
 29 48  1  0  0  0  0
 29 49  1  0  0  0  0
M  END
> <Name>
23

> <IC50[uM]>
0.27

$$$$
23
  -OEChem-05192314333D
 Structure written by MMmdl.
 49 53  0     1  0  0  0  0  0999 V2000
   -6.3775   12.3296  -12.0018 C   0  0  0  0  0  0  0  0  0  0  0  0
   -6.5098   11.7629  -10.7403 C   0  0  0  0  0  0  0  0  0  0  0  0
   -7.7247   10.5660  -13.0266 C   0  0  0  0  0  0  0  0  0  0  0  0
   -6.9942   11.7487  -13.1193 C   0  0  0  0  0  0  0  0  0  0  0  0
   -7.8312   10.0057  -11.7538 C   0  0  0  0  0  0  0  0  0  0  0  0
   -7.2443   10.6021  -10.6070 C   0  0  0  0  0  0  0  0  0  0  0  0
   -7.6167    9.7449   -9.5151 C   0  0  0  0  0  0  0  0  0  0  0  0
   -8.2961    8.7374   -9.9786 N   0  0  0  0  0  0  0  0  0  0  0  0
   -8.4404    8.8724  -11.2937 N   0  0  0  0  0  0  0  0  0  0  0  0
   -7.3318    9.8946   -8.0252 C   0  0  0  0  0  0  0  0  0  0  0  0
   -5.5478   13.5112  -12.1572 C   0  0  0  0  0  0  0  0  0  0  0  0
   -5.9707   10.4870   -7.7351 C   0  0  0  0  0  0  0  0  0  0  0  0
   -5.8642   11.7588   -7.1694 C   0  0  0  0  0  0  0  0  0  0  0  0
   -4.6019   12.3141   -6.9186 C   0  0  0  0  0  0  0  0  0  0  0  0
   -3.4503   11.5963   -7.2357 C   0  0  0  0  0  0  0  0  0  0  0  0
   -3.5604   10.3220   -7.8000 C   0  0  0  0  0  0  0  0  0  0  0  0
   -4.8213    9.7719   -8.0443 C   0  0  0  0  0  0  0  0  0  0  0  0
   -2.0996   12.1710   -6.9757 C   0  0  0  0  0  0  0  0  0  0  0  0
   -1.7487   13.4240   -6.4767 C   0  0  0  0  0  0  0  0  0  0  0  0
   -0.4123   13.4674   -6.4260 N   0  0  0  0  0  0  0  0  0  0  0  0
    0.1713   12.3664   -6.8217 N   0  0  0  0  0  0  0  0  0  0  0  0
   -0.8093   11.5624   -7.1930 C   0  0  0  0  0  0  0  0  0  0  0  0
    0.4224   14.5657   -5.9816 C   0  0  0  0  0  0  0  0  0  0  0  0
   -5.6966   14.2423  -13.2612 N   0  0  0  0  0  0  0  0  0  0  0  0
   -4.9506   15.3153  -13.5405 C   0  0  0  0  0  0  0  0  0  0  0  0
   -3.9383   15.6899  -12.6782 C   0  0  0  0  0  0  0  0  0  0  0  0
   -3.7261   14.9536  -11.5366 C   0  0  3  0  0  0  0  0  0  0  0  0
   -4.5508   13.8769  -11.2437 C   0  0  0  0  0  0  0  0  0  0  0  0
   -2.6976   15.2614  -10.7139 N   0  0  0  0  0  0  0  0  0  0  0  0
   -6.0464   12.2223   -9.8797 H   0  0  0  0  0  0  0  0  0  0  0  0
   -8.1826   10.1089  -13.8914 H   0  0  0  0  0  0  0  0  0  0  0  0
   -6.9001   12.2325  -14.0803 H   0  0  0  0  0  0  0  0  0  0  0  0
   -8.0313    9.6067   -7.2544 H   0  0  0  0  0  0  0  0  0  0  0  0
   -6.7563   12.3160   -6.9245 H   0  0  0  0  0  0  0  0  0  0  0  0
   -4.5218   13.2977   -6.4798 H   0  0  0  0  0  0  0  0  0  0  0  0
   -2.6703    9.7625   -8.0472 H   0  0  0  0  0  0  0  0  0  0  0  0
   -4.9024    8.7852   -8.4759 H   0  0  0  0  0  0  0  0  0  0  0  0
   -2.4277   14.2118   -6.1857 H   0  0  0  0  0  0  0  0  0  0  0  0
   -0.6637   10.5754   -7.6065 H   0  0  0  0  0  0  0  0  0  0  0  0
    1.4809   14.2752   -6.0543 H   0  0  0  0  0  0  0  0  0  0  0  0
    0.2393   15.4453   -6.6162 H   0  0  0  0  0  0  0  0  0  0  0  0
    0.1804   14.8105   -4.9369 H   0  0  0  0  0  0  0  0  0  0  0  0
   -5.1384   15.8875  -14.4370 H   0  0  0  0  0  0  0  0  0  0  0  0
   -3.3221   16.5493  -12.8978 H   0  0  0  0  0  0  0  0  0  0  0  0
   -4.3892   15.6249  -10.9713 H   0  0  0  0  0  0  0  0  0  0  0  0
   -5.0546   14.1072  -10.2933 H   0  0  0  0  0  0  0  0  0  0  0  0
   -3.8997   13.0003  -11.1106 H   0  0  0  0  0  0  0  0  0  0  0  0
   -2.6901   14.6302   -9.9383 H   0  0  0  0  0  0  0  0  0  0  0  0
   -1.8356   15.1840  -11.2148 H   0  0  0  0  0  0  0  0  0  0  0  0
  1  2  2  0  0  0  0
  1  4  1  0  0  0  0
  1 11  1  0  0  0  0
  2  6  1  0  0  0  0
  3  4  2  0  0  0  0
  3  5  1  0  0  0  0
  5  6  2  0  0  0  0
  5  9  1  0  0  0  0
  6  7  1  0  0  0  0
  7  8  1  0  0  0  0
  7 10  2  3  0  0  0
  8  9  2  0  0  0  0
 10 12  1  0  0  0  0
 11 24  2  0  0  0  0
 11 28  1  0  0  0  0
 12 13  2  0  0  0  0
 12 17  1  0  0  0  0
 13 14  1  0  0  0  0
 14 15  2  0  0  0  0
 15 16  1  0  0  0  0
 15 18  1  0  0  0  0
 16 17  2  0  0  0  0
 18 19  2  0  0  0  0
 18 22  1  0  0  0  0
 19 20  1  0  0  0  0
 20 21  1  0  0  0  0
 20 23  1  0  0  0  0
 21 22  2  0  0  0  0
 24 25  1  0  0  0  0
 25 26  2  0  0  0  0
 26 27  1  0  0  0  0
 27 28  1  0  0  0  0
 27 29  1  0  0  0  0
  2 30  1  0  0  0  0
  3 31  1  0  0  0  0
  4 32  1  0  0  0  0
 10 33  1  0  0  0  0
 13 34  1  0  0  0  0
 14 35  1  0  0  0  0
 16 36  1  0  0  0  0
 17 37  1  0  0  0  0
 19 38  1  0  0  0  0
 22 39  1  0  0  0  0
 23 40  1  0  0  0  0
 23 41  1  0  0  0  0
 23 42  1  0  0  0  0
 25 43  1  0  0  0  0
 26 44  1  0  0  0  0
 27 45  1  0  0  0  0
 28 46  1  0  0  0  0
 28 47  1  0  0  0  0
 29 48  1  0  0  0  0
 29 49  1  0  0  0  0
M  END
> <Name>
23

> <IC50[uM]>
0.27

$$$$
23
  -OEChem-05192314333D
 Structure written by MMmdl.
 49 53  0     1  0  0  0  0  0999 V2000
   -6.3775   12.3296  -12.0018 C   0  0  0  0  0  0  0  0  0  0  0  0
   -6.5098   11.7629  -10.7403 C   0  0  0  0  0  0  0  0  0  0  0  0
   -7.7247   10.5660  -13.0266 C   0  0  0  0  0  0  0  0  0  0  0  0
   -6.9942   11.7487  -13.1193 C   0  0  0  0  0  0  0  0  0  0  0  0
   -7.8312   10.0057  -11.7538 C   0  0  0  0  0  0  0  0  0  0  0  0
   -7.2443   10.6021  -10.6070 C   0  0  0  0  0  0  0  0  0  0  0  0
   -7.6167    9.7449   -9.5151 C   0  0  0  0  0  0  0  0  0  0  0  0
   -8.2961    8.7374   -9.9786 N   0  0  0  0  0  0  0  0  0  0  0  0
   -8.4404    8.8724  -11.2937 N   0  0  0  0  0  0  0  0  0  0  0  0
   -7.3318    9.8946   -8.0252 C   0  0  0  0  0  0  0  0  0  0  0  0
   -5.5478   13.5112  -12.1572 C   0  0  3  0  0  0  0  0  0  0  0  0
   -5.9707   10.4870   -7.7351 C   0  0  0  0  0  0  0  0  0  0  0  0
   -5.8642   11.7588   -7.1694 C   0  0  0  0  0  0  0  0  0  0  0  0
   -4.6019   12.3141   -6.9186 C   0  0  0  0  0  0  0  0  0  0  0  0
   -3.4503   11.5963   -7.2357 C   0  0  0  0  0  0  0  0  0  0  0  0
   -3.5604   10.3220   -7.8000 C   0  0  0  0  0  0  0  0  0  0  0  0
   -4.8213    9.7719   -8.0443 C   0  0  0  0  0  0  0  0  0  0  0  0
   -2.0996   12.1710   -6.9757 C   0  0  0  0  0  0  0  0  0  0  0  0
   -1.7487   13.4240   -6.4767 C   0  0  0  0  0  0  0  0  0  0  0  0
   -0.4123   13.4674   -6.4260 N   0  0  0  0  0  0  0  0  0  0  0  0
    0.1713   12.3664   -6.8217 N   0  0  0  0  0  0  0  0  0  0  0  0
   -0.8093   11.5624   -7.1930 C   0  0  0  0  0  0  0  0  0  0  0  0
    0.4224   14.5657   -5.9816 C   0  0  0  0  0  0  0  0  0  0  0  0
   -5.6966   14.2423  -13.2612 N   0  0  0  0  0  0  0  0  0  0  0  0
   -4.9506   15.3153  -13.5405 C   0  0  0  0  0  0  0  0  0  0  0  0
   -3.9383   15.6899  -12.6782 C   0  0  0  0  0  0  0  0  0  0  0  0
   -3.7261   14.9536  -11.5366 C   0  0  0  0  0  0  0  0  0  0  0  0
   -4.5508   13.8769  -11.2437 C   0  0  0  0  0  0  0  0  0  0  0  0
   -2.6976   15.2614  -10.7139 N   0  0  0  0  0  0  0  0  0  0  0  0
   -6.0464   12.2223   -9.8797 H   0  0  0  0  0  0  0  0  0  0  0  0
   -8.1826   10.1089  -13.8914 H   0  0  0  0  0  0  0  0  0  0  0  0
   -6.9001   12.2325  -14.0803 H   0  0  0  0  0  0  0  0  0  0  0  0
   -8.0313    9.6067   -7.2544 H   0  0  0  0  0  0  0  0  0  0  0  0
   -6.2890   14.1255  -11.6250 H   0  0  0  0  0  0  0  0  0  0  0  0
   -6.7563   12.3160   -6.9245 H   0  0  0  0  0  0  0  0  0  0  0  0
   -4.5218   13.2977   -6.4798 H   0  0  0  0  0  0  0  0  0  0  0  0
   -2.6703    9.7625   -8.0472 H   0  0  0  0  0  0  0  0  0  0  0  0
   -4.9024    8.7852   -8.4759 H   0  0  0  0  0  0  0  0  0  0  0  0
   -2.4277   14.2118   -6.1857 H   0  0  0  0  0  0  0  0  0  0  0  0
   -0.6637   10.5754   -7.6065 H   0  0  0  0  0  0  0  0  0  0  0  0
    1.4809   14.2752   -6.0543 H   0  0  0  0  0  0  0  0  0  0  0  0
    0.2393   15.4453   -6.6162 H   0  0  0  0  0  0  0  0  0  0  0  0
    0.1804   14.8105   -4.9369 H   0  0  0  0  0  0  0  0  0  0  0  0
   -5.1384   15.8875  -14.4370 H   0  0  0  0  0  0  0  0  0  0  0  0
   -3.3221   16.5493  -12.8978 H   0  0  0  0  0  0  0  0  0  0  0  0
   -5.0546   14.1072  -10.2933 H   0  0  0  0  0  0  0  0  0  0  0  0
   -3.8997   13.0003  -11.1106 H   0  0  0  0  0  0  0  0  0  0  0  0
   -2.6901   14.6302   -9.9383 H   0  0  0  0  0  0  0  0  0  0  0  0
   -1.8356   15.1840  -11.2148 H   0  0  0  0  0  0  0  0  0  0  0  0
  1  2  2  0  0  0  0
  1  4  1  0  0  0  0
  1 11  1  0  0  0  0
  2  6  1  0  0  0  0
  3  4  2  0  0  0  0
  3  5  1  0  0  0  0
  5  6  2  0  0  0  0
  5  9  1  0  0  0  0
  6  7  1  0  0  0  0
  7  8  1  0  0  0  0
  7 10  2  3  0  0  0
  8  9  2  0  0  0  0
 10 12  1  0  0  0  0
 11 24  1  0  0  0  0
 11 28  1  0  0  0  0
 12 13  2  0  0  0  0
 12 17  1  0  0  0  0
 13 14  1  0  0  0  0
 14 15  2  0  0  0  0
 15 16  1  0  0  0  0
 15 18  1  0  0  0  0
 16 17  2  0  0  0  0
 18 19  2  0  0  0  0
 18 22  1  0  0  0  0
 19 20  1  0  0  0  0
 20 21  1  0  0  0  0
 20 23  1  0  0  0  0
 21 22  2  0  0  0  0
 24 25  2  0  0  0  0
 25 26  1  0  0  0  0
 26 27  2  0  0  0  0
 27 28  1  0  0  0  0
 27 29  1  0  0  0  0
  2 30  1  0  0  0  0
  3 31  1  0  0  0  0
  4 32  1  0  0  0  0
 10 33  1  0  0  0  0
 11 34  1  0  0  0  0
 13 35  1  0  0  0  0
 14 36  1  0  0  0  0
 16 37  1  0  0  0  0
 17 38  1  0  0  0  0
 19 39  1  0  0  0  0
 22 40  1  0  0  0  0
 23 41  1  0  0  0  0
 23 42  1  0  0  0  0
 23 43  1  0  0  0  0
 25 44  1  0  0  0  0
 26 45  1  0  0  0  0
 28 46  1  0  0  0  0
 28 47  1  0  0  0  0
 29 48  1  0  0  0  0
 29 49  1  0  0  0  0
M  END
> <Name>
23

> <IC50[uM]>
0.27

$$$$
23
  -OEChem-05192314333D
 Structure written by MMmdl.
 49 53  0     1  0  0  0  0  0999 V2000
   -6.3775   12.3296  -12.0018 C   0  0  0  0  0  0  0  0  0  0  0  0
   -6.5098   11.7629  -10.7403 C   0  0  0  0  0  0  0  0  0  0  0  0
   -7.7247   10.5660  -13.0266 C   0  0  0  0  0  0  0  0  0  0  0  0
   -6.9942   11.7487  -13.1193 C   0  0  0  0  0  0  0  0  0  0  0  0
   -7.8312   10.0057  -11.7538 C   0  0  0  0  0  0  0  0  0  0  0  0
   -7.2443   10.6021  -10.6070 C   0  0  0  0  0  0  0  0  0  0  0  0
   -7.6167    9.7449   -9.5151 C   0  0  0  0  0  0  0  0  0  0  0  0
   -8.2961    8.7374   -9.9786 N   0  0  0  0  0  0  0  0  0  0  0  0
   -8.4404    8.8724  -11.2937 N   0  0  0  0  0  0  0  0  0  0  0  0
   -7.3318    9.8946   -8.0252 C   0  0  0  0  0  0  0  0  0  0  0  0
   -5.5478   13.5112  -12.1572 C   0  0  3  0  0  0  0  0  0  0  0  0
   -5.9707   10.4870   -7.7351 C   0  0  0  0  0  0  0  0  0  0  0  0
   -5.8642   11.7588   -7.1694 C   0  0  0  0  0  0  0  0  0  0  0  0
   -4.6019   12.3141   -6.9186 C   0  0  0  0  0  0  0  0  0  0  0  0
   -3.4503   11.5963   -7.2357 C   0  0  0  0  0  0  0  0  0  0  0  0
   -3.5604   10.3220   -7.8000 C   0  0  0  0  0  0  0  0  0  0  0  0
   -4.8213    9.7719   -8.0443 C   0  0  0  0  0  0  0  0  0  0  0  0
   -2.0996   12.1710   -6.9757 C   0  0  0  0  0  0  0  0  0  0  0  0
   -1.7487   13.4240   -6.4767 C   0  0  0  0  0  0  0  0  0  0  0  0
   -0.4123   13.4674   -6.4260 N   0  0  0  0  0  0  0  0  0  0  0  0
    0.1713   12.3664   -6.8217 N   0  0  0  0  0  0  0  0  0  0  0  0
   -0.8093   11.5624   -7.1930 C   0  0  0  0  0  0  0  0  0  0  0  0
    0.4224   14.5657   -5.9816 C   0  0  0  0  0  0  0  0  0  0  0  0
   -5.6966   14.2423  -13.2612 N   0  0  0  0  0  0  0  0  0  0  0  0
   -4.9506   15.3153  -13.5405 C   0  0  0  0  0  0  0  0  0  0  0  0
   -3.9383   15.6899  -12.6782 C   0  0  0  0  0  0  0  0  0  0  0  0
   -3.7261   14.9536  -11.5366 C   0  0  0  0  0  0  0  0  0  0  0  0
   -4.5508   13.8769  -11.2437 C   0  0  0  0  0  0  0  0  0  0  0  0
   -2.6976   15.2614  -10.7139 N   0  0  0  0  0  0  0  0  0  0  0  0
   -6.0464   12.2223   -9.8797 H   0  0  0  0  0  0  0  0  0  0  0  0
   -8.1826   10.1089  -13.8914 H   0  0  0  0  0  0  0  0  0  0  0  0
   -6.9001   12.2325  -14.0803 H   0  0  0  0  0  0  0  0  0  0  0  0
   -8.0313    9.6067   -7.2544 H   0  0  0  0  0  0  0  0  0  0  0  0
   -6.2890   14.1255  -11.6250 H   0  0  0  0  0  0  0  0  0  0  0  0
   -6.7563   12.3160   -6.9245 H   0  0  0  0  0  0  0  0  0  0  0  0
   -4.5218   13.2977   -6.4798 H   0  0  0  0  0  0  0  0  0  0  0  0
   -2.6703    9.7625   -8.0472 H   0  0  0  0  0  0  0  0  0  0  0  0
   -4.9024    8.7852   -8.4759 H   0  0  0  0  0  0  0  0  0  0  0  0
   -2.4277   14.2118   -6.1857 H   0  0  0  0  0  0  0  0  0  0  0  0
   -0.6637   10.5754   -7.6065 H   0  0  0  0  0  0  0  0  0  0  0  0
    1.4809   14.2752   -6.0543 H   0  0  0  0  0  0  0  0  0  0  0  0
    0.2393   15.4453   -6.6162 H   0  0  0  0  0  0  0  0  0  0  0  0
    0.1804   14.8105   -4.9369 H   0  0  0  0  0  0  0  0  0  0  0  0
   -5.5661   13.6118  -14.0263 H   0  0  0  0  0  0  0  0  0  0  0  0
   -5.1384   15.8875  -14.4370 H   0  0  0  0  0  0  0  0  0  0  0  0
   -3.3221   16.5493  -12.8978 H   0  0  0  0  0  0  0  0  0  0  0  0
   -5.0546   14.1072  -10.2933 H   0  0  0  0  0  0  0  0  0  0  0  0
   -3.8997   13.0003  -11.1106 H   0  0  0  0  0  0  0  0  0  0  0  0
   -2.6419   14.6376   -9.9343 H   0  0  0  0  0  0  0  0  0  0  0  0
  1  2  2  0  0  0  0
  1  4  1  0  0  0  0
  1 11  1  0  0  0  0
  2  6  1  0  0  0  0
  3  4  2  0  0  0  0
  3  5  1  0  0  0  0
  5  6  2  0  0  0  0
  5  9  1  0  0  0  0
  6  7  1  0  0  0  0
  7  8  1  0  0  0  0
  7 10  2  3  0  0  0
  8  9  2  0  0  0  0
 10 12  1  0  0  0  0
 11 24  1  0  0  0  0
 11 28  1  0  0  0  0
 12 13  2  0  0  0  0
 12 17  1  0  0  0  0
 13 14  1  0  0  0  0
 14 15  2  0  0  0  0
 15 16  1  0  0  0  0
 15 18  1  0  0  0  0
 16 17  2  0  0  0  0
 18 19  2  0  0  0  0
 18 22  1  0  0  0  0
 19 20  1  0  0  0  0
 20 21  1  0  0  0  0
 20 23  1  0  0  0  0
 21 22  2  0  0  0  0
 24 25  1  0  0  0  0
 25 26  2  0  0  0  0
 26 27  1  0  0  0  0
 27 28  1  0  0  0  0
 27 29  2  0  0  0  0
  2 30  1  0  0  0  0
  3 31  1  0  0  0  0
  4 32  1  0  0  0  0
 10 33  1  0  0  0  0
 11 34  1  0  0  0  0
 13 35  1  0  0  0  0
 14 36  1  0  0  0  0
 16 37  1  0  0  0  0
 17 38  1  0  0  0  0
 19 39  1  0  0  0  0
 22 40  1  0  0  0  0
 23 41  1  0  0  0  0
 23 42  1  0  0  0  0
 23 43  1  0  0  0  0
 24 44  1  0  0  0  0
 25 45  1  0  0  0  0
 26 46  1  0  0  0  0
 28 47  1  0  0  0  0
 28 48  1  0  0  0  0
 29 49  1  0  0  0  0
M  END
> <Name>
23

> <IC50[uM]>
0.27

$$$$
23
  -OEChem-05192314333D
 Structure written by MMmdl.
 49 53  0     0  0  0  0  0  0999 V2000
   -6.3775   12.3296  -12.0018 C   0  0  0  0  0  0  0  0  0  0  0  0
   -6.5098   11.7629  -10.7403 C   0  0  0  0  0  0  0  0  0  0  0  0
   -7.7247   10.5660  -13.0266 C   0  0  0  0  0  0  0  0  0  0  0  0
   -6.9942   11.7487  -13.1193 C   0  0  0  0  0  0  0  0  0  0  0  0
   -7.8312   10.0057  -11.7538 C   0  0  0  0  0  0  0  0  0  0  0  0
   -7.2443   10.6021  -10.6070 C   0  0  0  0  0  0  0  0  0  0  0  0
   -7.6167    9.7449   -9.5151 C   0  0  0  0  0  0  0  0  0  0  0  0
   -8.2961    8.7374   -9.9786 N   0  0  0  0  0  0  0  0  0  0  0  0
   -8.4404    8.8724  -11.2937 N   0  0  0  0  0  0  0  0  0  0  0  0
   -7.3318    9.8946   -8.0252 C   0  0  0  0  0  0  0  0  0  0  0  0
   -5.5478   13.5112  -12.1572 C   0  0  0  0  0  0  0  0  0  0  0  0
   -5.9707   10.4870   -7.7351 C   0  0  0  0  0  0  0  0  0  0  0  0
   -5.8642   11.7588   -7.1694 C   0  0  0  0  0  0  0  0  0  0  0  0
   -4.6019   12.3141   -6.9186 C   0  0  0  0  0  0  0  0  0  0  0  0
   -3.4503   11.5963   -7.2357 C   0  0  0  0  0  0  0  0  0  0  0  0
   -3.5604   10.3220   -7.8000 C   0  0  0  0  0  0  0  0  0  0  0  0
   -4.8213    9.7719   -8.0443 C   0  0  0  0  0  0  0  0  0  0  0  0
   -2.0996   12.1710   -6.9757 C   0  0  0  0  0  0  0  0  0  0  0  0
   -1.7487   13.4240   -6.4767 C   0  0  0  0  0  0  0  0  0  0  0  0
   -0.4123   13.4674   -6.4260 N   0  0  0  0  0  0  0  0  0  0  0  0
    0.1713   12.3664   -6.8217 N   0  0  0  0  0  0  0  0  0  0  0  0
   -0.8093   11.5624   -7.1930 C   0  0  0  0  0  0  0  0  0  0  0  0
    0.4224   14.5657   -5.9816 C   0  0  0  0  0  0  0  0  0  0  0  0
   -5.6966   14.2423  -13.2612 N   0  0  0  0  0  0  0  0  0  0  0  0
   -4.9506   15.3153  -13.5405 C   0  0  0  0  0  0  0  0  0  0  0  0
   -3.9383   15.6899  -12.6782 C   0  0  0  0  0  0  0  0  0  0  0  0
   -3.7261   14.9536  -11.5366 C   0  0  0  0  0  0  0  0  0  0  0  0
   -4.5508   13.8769  -11.2437 C   0  0  0  0  0  0  0  0  0  0  0  0
   -2.6976   15.2614  -10.7139 N   0  0  0  0  0  0  0  0  0  0  0  0
   -6.0464   12.2223   -9.8797 H   0  0  0  0  0  0  0  0  0  0  0  0
   -8.1826   10.1089  -13.8914 H   0  0  0  0  0  0  0  0  0  0  0  0
   -6.9001   12.2325  -14.0803 H   0  0  0  0  0  0  0  0  0  0  0  0
   -8.0313    9.6067   -7.2544 H   0  0  0  0  0  0  0  0  0  0  0  0
   -6.7563   12.3160   -6.9245 H   0  0  0  0  0  0  0  0  0  0  0  0
   -4.5218   13.2977   -6.4798 H   0  0  0  0  0  0  0  0  0  0  0  0
   -2.6703    9.7625   -8.0472 H   0  0  0  0  0  0  0  0  0  0  0  0
   -4.9024    8.7852   -8.4759 H   0  0  0  0  0  0  0  0  0  0  0  0
   -2.4277   14.2118   -6.1857 H   0  0  0  0  0  0  0  0  0  0  0  0
   -0.6637   10.5754   -7.6065 H   0  0  0  0  0  0  0  0  0  0  0  0
    1.4809   14.2752   -6.0543 H   0  0  0  0  0  0  0  0  0  0  0  0
    0.2393   15.4453   -6.6162 H   0  0  0  0  0  0  0  0  0  0  0  0
    0.1804   14.8105   -4.9369 H   0  0  0  0  0  0  0  0  0  0  0  0
   -4.4839   15.1329  -14.5197 H   0  0  0  0  0  0  0  0  0  0  0  0
   -5.6381   16.1707  -13.6156 H   0  0  0  0  0  0  0  0  0  0  0  0
   -3.0010   15.6690  -13.2536 H   0  0  0  0  0  0  0  0  0  0  0  0
   -4.1509   16.7215  -12.3610 H   0  0  0  0  0  0  0  0  0  0  0  0
   -4.4255   13.3274  -10.3224 H   0  0  0  0  0  0  0  0  0  0  0  0
   -2.6901   14.6302   -9.9383 H   0  0  0  0  0  0  0  0  0  0  0  0
   -1.8356   15.1840  -11.2148 H   0  0  0  0  0  0  0  0  0  0  0  0
  1  2  2  0  0  0  0
  1  4  1  0  0  0  0
  1 11  1  0  0  0  0
  2  6  1  0  0  0  0
  3  4  2  0  0  0  0
  3  5  1  0  0  0  0
  5  6  2  0  0  0  0
  5  9  1  0  0  0  0
  6  7  1  0  0  0  0
  7  8  1  0  0  0  0
  7 10  2  3  0  0  0
  8  9  2  0  0  0  0
 10 12  1  0  0  0  0
 11 24  2  0  0  0  0
 11 28  1  0  0  0  0
 12 13  2  0  0  0  0
 12 17  1  0  0  0  0
 13 14  1  0  0  0  0
 14 15  2  0  0  0  0
 15 16  1  0  0  0  0
 15 18  1  0  0  0  0
 16 17  2  0  0  0  0
 18 19  2  0  0  0  0
 18 22  1  0  0  0  0
 19 20  1  0  0  0  0
 20 21  1  0  0  0  0
 20 23  1  0  0  0  0
 21 22  2  0  0  0  0
 24 25  1  0  0  0  0
 25 26  1  0  0  0  0
 26 27  1  0  0  0  0
 27 28  2  0  0  0  0
 27 29  1  0  0  0  0
  2 30  1  0  0  0  0
  3 31  1  0  0  0  0
  4 32  1  0  0  0  0
 10 33  1  0  0  0  0
 13 34  1  0  0  0  0
 14 35  1  0  0  0  0
 16 36  1  0  0  0  0
 17 37  1  0  0  0  0
 19 38  1  0  0  0  0
 22 39  1  0  0  0  0
 23 40  1  0  0  0  0
 23 41  1  0  0  0  0
 23 42  1  0  0  0  0
 25 43  1  0  0  0  0
 25 44  1  0  0  0  0
 26 45  1  0  0  0  0
 26 46  1  0  0  0  0
 28 47  1  0  0  0  0
 29 48  1  0  0  0  0
 29 49  1  0  0  0  0
M  END
> <Name>
23

> <IC50[uM]>
0.27

$$$$
23
  -OEChem-05192314333D
 Structure written by MMmdl.
 49 53  0     0  0  0  0  0  0999 V2000
   -6.3775   12.3296  -12.0018 C   0  0  0  0  0  0  0  0  0  0  0  0
   -6.5098   11.7629  -10.7403 C   0  0  0  0  0  0  0  0  0  0  0  0
   -7.7247   10.5660  -13.0266 C   0  0  0  0  0  0  0  0  0  0  0  0
   -6.9942   11.7487  -13.1193 C   0  0  0  0  0  0  0  0  0  0  0  0
   -7.8312   10.0057  -11.7538 C   0  0  0  0  0  0  0  0  0  0  0  0
   -7.2443   10.6021  -10.6070 C   0  0  0  0  0  0  0  0  0  0  0  0
   -7.6167    9.7449   -9.5151 C   0  0  0  0  0  0  0  0  0  0  0  0
   -8.2961    8.7374   -9.9786 N   0  0  0  0  0  0  0  0  0  0  0  0
   -8.4404    8.8724  -11.2937 N   0  0  0  0  0  0  0  0  0  0  0  0
   -7.3318    9.8946   -8.0252 C   0  0  0  0  0  0  0  0  0  0  0  0
   -5.5478   13.5112  -12.1572 C   0  0  0  0  0  0  0  0  0  0  0  0
   -5.9707   10.4870   -7.7351 C   0  0  0  0  0  0  0  0  0  0  0  0
   -5.8642   11.7588   -7.1694 C   0  0  0  0  0  0  0  0  0  0  0  0
   -4.6019   12.3141   -6.9186 C   0  0  0  0  0  0  0  0  0  0  0  0
   -3.4503   11.5963   -7.2357 C   0  0  0  0  0  0  0  0  0  0  0  0
   -3.5604   10.3220   -7.8000 C   0  0  0  0  0  0  0  0  0  0  0  0
   -4.8213    9.7719   -8.0443 C   0  0  0  0  0  0  0  0  0  0  0  0
   -2.0996   12.1710   -6.9757 C   0  0  0  0  0  0  0  0  0  0  0  0
   -1.7487   13.4240   -6.4767 C   0  0  0  0  0  0  0  0  0  0  0  0
   -0.4123   13.4674   -6.4260 N   0  0  0  0  0  0  0  0  0  0  0  0
    0.1713   12.3664   -6.8217 N   0  0  0  0  0  0  0  0  0  0  0  0
   -0.8093   11.5624   -7.1930 C   0  0  0  0  0  0  0  0  0  0  0  0
    0.4224   14.5657   -5.9816 C   0  0  0  0  0  0  0  0  0  0  0  0
   -5.6966   14.2423  -13.2612 N   0  0  0  0  0  0  0  0  0  0  0  0
   -4.9506   15.3153  -13.5405 C   0  0  0  0  0  0  0  0  0  0  0  0
   -3.9383   15.6899  -12.6782 C   0  0  0  0  0  0  0  0  0  0  0  0
   -3.7261   14.9536  -11.5366 C   0  0  0  0  0  0  0  0  0  0  0  0
   -4.5508   13.8769  -11.2437 C   0  0  0  0  0  0  0  0  0  0  0  0
   -2.6976   15.2614  -10.7139 N   0  0  0  0  0  0  0  0  0  0  0  0
   -6.0464   12.2223   -9.8797 H   0  0  0  0  0  0  0  0  0  0  0  0
   -8.1826   10.1089  -13.8914 H   0  0  0  0  0  0  0  0  0  0  0  0
   -6.9001   12.2325  -14.0803 H   0  0  0  0  0  0  0  0  0  0  0  0
   -8.0313    9.6067   -7.2544 H   0  0  0  0  0  0  0  0  0  0  0  0
   -6.7563   12.3160   -6.9245 H   0  0  0  0  0  0  0  0  0  0  0  0
   -4.5218   13.2977   -6.4798 H   0  0  0  0  0  0  0  0  0  0  0  0
   -2.6703    9.7625   -8.0472 H   0  0  0  0  0  0  0  0  0  0  0  0
   -4.9024    8.7852   -8.4759 H   0  0  0  0  0  0  0  0  0  0  0  0
   -2.4277   14.2118   -6.1857 H   0  0  0  0  0  0  0  0  0  0  0  0
   -0.6637   10.5754   -7.6065 H   0  0  0  0  0  0  0  0  0  0  0  0
    1.4809   14.2752   -6.0543 H   0  0  0  0  0  0  0  0  0  0  0  0
    0.2393   15.4453   -6.6162 H   0  0  0  0  0  0  0  0  0  0  0  0
    0.1804   14.8105   -4.9369 H   0  0  0  0  0  0  0  0  0  0  0  0
   -5.5661   13.6118  -14.0263 H   0  0  0  0  0  0  0  0  0  0  0  0
   -4.4839   15.1329  -14.5197 H   0  0  0  0  0  0  0  0  0  0  0  0
   -5.6381   16.1707  -13.6156 H   0  0  0  0  0  0  0  0  0  0  0  0
   -3.0010   15.6690  -13.2536 H   0  0  0  0  0  0  0  0  0  0  0  0
   -4.1509   16.7215  -12.3610 H   0  0  0  0  0  0  0  0  0  0  0  0
   -4.4255   13.3274  -10.3224 H   0  0  0  0  0  0  0  0  0  0  0  0
   -2.6419   14.6376   -9.9343 H   0  0  0  0  0  0  0  0  0  0  0  0
  1  2  2  0  0  0  0
  1  4  1  0  0  0  0
  1 11  1  0  0  0  0
  2  6  1  0  0  0  0
  3  4  2  0  0  0  0
  3  5  1  0  0  0  0
  5  6  2  0  0  0  0
  5  9  1  0  0  0  0
  6  7  1  0  0  0  0
  7  8  1  0  0  0  0
  7 10  2  3  0  0  0
  8  9  2  0  0  0  0
 10 12  1  0  0  0  0
 11 24  1  0  0  0  0
 11 28  2  0  0  0  0
 12 13  2  0  0  0  0
 12 17  1  0  0  0  0
 13 14  1  0  0  0  0
 14 15  2  0  0  0  0
 15 16  1  0  0  0  0
 15 18  1  0  0  0  0
 16 17  2  0  0  0  0
 18 19  2  0  0  0  0
 18 22  1  0  0  0  0
 19 20  1  0  0  0  0
 20 21  1  0  0  0  0
 20 23  1  0  0  0  0
 21 22  2  0  0  0  0
 24 25  1  0  0  0  0
 25 26  1  0  0  0  0
 26 27  1  0  0  0  0
 27 28  1  0  0  0  0
 27 29  2  0  0  0  0
  2 30  1  0  0  0  0
  3 31  1  0  0  0  0
  4 32  1  0  0  0  0
 10 33  1  0  0  0  0
 13 34  1  0  0  0  0
 14 35  1  0  0  0  0
 16 36  1  0  0  0  0
 17 37  1  0  0  0  0
 19 38  1  0  0  0  0
 22 39  1  0  0  0  0
 23 40  1  0  0  0  0
 23 41  1  0  0  0  0
 23 42  1  0  0  0  0
 24 43  1  0  0  0  0
 25 44  1  0  0  0  0
 25 45  1  0  0  0  0
 26 46  1  0  0  0  0
 26 47  1  0  0  0  0
 28 48  1  0  0  0  0
 29 49  1  0  0  0  0
M  END
> <Name>
23

> <IC50[uM]>
0.27

$$$$
23
  -OEChem-05192314333D
 Structure written by MMmdl.
 49 53  0     0  0  0  0  0  0999 V2000
   -6.3775   12.3296  -12.0018 C   0  0  0  0  0  0  0  0  0  0  0  0
   -6.5098   11.7629  -10.7403 C   0  0  0  0  0  0  0  0  0  0  0  0
   -7.7247   10.5660  -13.0266 C   0  0  0  0  0  0  0  0  0  0  0  0
   -6.9942   11.7487  -13.1193 C   0  0  0  0  0  0  0  0  0  0  0  0
   -7.8312   10.0057  -11.7538 C   0  0  0  0  0  0  0  0  0  0  0  0
   -7.2443   10.6021  -10.6070 C   0  0  0  0  0  0  0  0  0  0  0  0
   -7.6167    9.7449   -9.5151 C   0  0  0  0  0  0  0  0  0  0  0  0
   -8.2961    8.7374   -9.9786 N   0  0  0  0  0  0  0  0  0  0  0  0
   -8.4404    8.8724  -11.2937 N   0  0  0  0  0  0  0  0  0  0  0  0
   -7.3318    9.8946   -8.0252 C   0  0  0  0  0  0  0  0  0  0  0  0
   -5.5478   13.5112  -12.1572 C   0  0  0  0  0  0  0  0  0  0  0  0
   -5.9707   10.4870   -7.7351 C   0  0  0  0  0  0  0  0  0  0  0  0
   -5.8642   11.7588   -7.1694 C   0  0  0  0  0  0  0  0  0  0  0  0
   -4.6019   12.3141   -6.9186 C   0  0  0  0  0  0  0  0  0  0  0  0
   -3.4503   11.5963   -7.2357 C   0  0  0  0  0  0  0  0  0  0  0  0
   -3.5604   10.3220   -7.8000 C   0  0  0  0  0  0  0  0  0  0  0  0
   -4.8213    9.7719   -8.0443 C   0  0  0  0  0  0  0  0  0  0  0  0
   -2.0996   12.1710   -6.9757 C   0  0  0  0  0  0  0  0  0  0  0  0
   -1.7487   13.4240   -6.4767 C   0  0  0  0  0  0  0  0  0  0  0  0
   -0.4123   13.4674   -6.4260 N   0  0  0  0  0  0  0  0  0  0  0  0
    0.1713   12.3664   -6.8217 N   0  0  0  0  0  0  0  0  0  0  0  0
   -0.8093   11.5624   -7.1930 C   0  0  0  0  0  0  0  0  0  0  0  0
    0.4224   14.5657   -5.9816 C   0  0  0  0  0  0  0  0  0  0  0  0
   -5.6966   14.2423  -13.2612 N   0  0  0  0  0  0  0  0  0  0  0  0
   -4.9506   15.3153  -13.5405 C   0  0  0  0  0  0  0  0  0  0  0  0
   -3.9383   15.6899  -12.6782 C   0  0  0  0  0  0  0  0  0  0  0  0
   -3.7261   14.9536  -11.5366 C   0  0  0  0  0  0  0  0  0  0  0  0
   -4.5508   13.8769  -11.2437 C   0  0  0  0  0  0  0  0  0  0  0  0
   -2.6976   15.2614  -10.7139 N   0  0  0  0  0  0  0  0  0  0  0  0
   -6.0464   12.2223   -9.8797 H   0  0  0  0  0  0  0  0  0  0  0  0
   -8.1826   10.1089  -13.8914 H   0  0  0  0  0  0  0  0  0  0  0  0
   -6.9001   12.2325  -14.0803 H   0  0  0  0  0  0  0  0  0  0  0  0
   -8.0313    9.6067   -7.2544 H   0  0  0  0  0  0  0  0  0  0  0  0
   -6.7563   12.3160   -6.9245 H   0  0  0  0  0  0  0  0  0  0  0  0
   -4.5218   13.2977   -6.4798 H   0  0  0  0  0  0  0  0  0  0  0  0
   -2.6703    9.7625   -8.0472 H   0  0  0  0  0  0  0  0  0  0  0  0
   -4.9024    8.7852   -8.4759 H   0  0  0  0  0  0  0  0  0  0  0  0
   -2.4277   14.2118   -6.1857 H   0  0  0  0  0  0  0  0  0  0  0  0
   -0.6637   10.5754   -7.6065 H   0  0  0  0  0  0  0  0  0  0  0  0
    1.4809   14.2752   -6.0543 H   0  0  0  0  0  0  0  0  0  0  0  0
    0.2393   15.4453   -6.6162 H   0  0  0  0  0  0  0  0  0  0  0  0
    0.1804   14.8105   -4.9369 H   0  0  0  0  0  0  0  0  0  0  0  0
   -4.4839   15.1329  -14.5197 H   0  0  0  0  0  0  0  0  0  0  0  0
   -5.6381   16.1707  -13.6156 H   0  0  0  0  0  0  0  0  0  0  0  0
   -3.3221   16.5493  -12.8978 H   0  0  0  0  0  0  0  0  0  0  0  0
   -5.0546   14.1072  -10.2933 H   0  0  0  0  0  0  0  0  0  0  0  0
   -3.8997   13.0003  -11.1106 H   0  0  0  0  0  0  0  0  0  0  0  0
   -2.6901   14.6302   -9.9383 H   0  0  0  0  0  0  0  0  0  0  0  0
   -1.8356   15.1840  -11.2148 H   0  0  0  0  0  0  0  0  0  0  0  0
  1  2  2  0  0  0  0
  1  4  1  0  0  0  0
  1 11  1  0  0  0  0
  2  6  1  0  0  0  0
  3  4  2  0  0  0  0
  3  5  1  0  0  0  0
  5  6  2  0  0  0  0
  5  9  1  0  0  0  0
  6  7  1  0  0  0  0
  7  8  1  0  0  0  0
  7 10  2  3  0  0  0
  8  9  2  0  0  0  0
 10 12  1  0  0  0  0
 11 24  2  0  0  0  0
 11 28  1  0  0  0  0
 12 13  2  0  0  0  0
 12 17  1  0  0  0  0
 13 14  1  0  0  0  0
 14 15  2  0  0  0  0
 15 16  1  0  0  0  0
 15 18  1  0  0  0  0
 16 17  2  0  0  0  0
 18 19  2  0  0  0  0
 18 22  1  0  0  0  0
 19 20  1  0  0  0  0
 20 21  1  0  0  0  0
 20 23  1  0  0  0  0
 21 22  2  0  0  0  0
 24 25  1  0  0  0  0
 25 26  1  0  0  0  0
 26 27  2  0  0  0  0
 27 28  1  0  0  0  0
 27 29  1  0  0  0  0
  2 30  1  0  0  0  0
  3 31  1  0  0  0  0
  4 32  1  0  0  0  0
 10 33  1  0  0  0  0
 13 34  1  0  0  0  0
 14 35  1  0  0  0  0
 16 36  1  0  0  0  0
 17 37  1  0  0  0  0
 19 38  1  0  0  0  0
 22 39  1  0  0  0  0
 23 40  1  0  0  0  0
 23 41  1  0  0  0  0
 23 42  1  0  0  0  0
 25 43  1  0  0  0  0
 25 44  1  0  0  0  0
 26 45  1  0  0  0  0
 28 46  1  0  0  0  0
 28 47  1  0  0  0  0
 29 48  1  0  0  0  0
 29 49  1  0  0  0  0
M  END
> <Name>
23

> <IC50[uM]>
0.27

$$$$
23
  -OEChem-05192314333D
 Structure written by MMmdl.
 49 53  0     0  0  0  0  0  0999 V2000
   -6.3775   12.3296  -12.0018 C   0  0  0  0  0  0  0  0  0  0  0  0
   -6.5098   11.7629  -10.7403 C   0  0  0  0  0  0  0  0  0  0  0  0
   -7.7247   10.5660  -13.0266 C   0  0  0  0  0  0  0  0  0  0  0  0
   -6.9942   11.7487  -13.1193 C   0  0  0  0  0  0  0  0  0  0  0  0
   -7.8312   10.0057  -11.7538 C   0  0  0  0  0  0  0  0  0  0  0  0
   -7.2443   10.6021  -10.6070 C   0  0  0  0  0  0  0  0  0  0  0  0
   -7.6167    9.7449   -9.5151 C   0  0  0  0  0  0  0  0  0  0  0  0
   -8.2961    8.7374   -9.9786 N   0  0  0  0  0  0  0  0  0  0  0  0
   -8.4404    8.8724  -11.2937 N   0  0  0  0  0  0  0  0  0  0  0  0
   -7.3318    9.8946   -8.0252 C   0  0  0  0  0  0  0  0  0  0  0  0
   -5.5478   13.5112  -12.1572 C   0  0  0  0  0  0  0  0  0  0  0  0
   -5.9707   10.4870   -7.7351 C   0  0  0  0  0  0  0  0  0  0  0  0
   -5.8642   11.7588   -7.1694 C   0  0  0  0  0  0  0  0  0  0  0  0
   -4.6019   12.3141   -6.9186 C   0  0  0  0  0  0  0  0  0  0  0  0
   -3.4503   11.5963   -7.2357 C   0  0  0  0  0  0  0  0  0  0  0  0
   -3.5604   10.3220   -7.8000 C   0  0  0  0  0  0  0  0  0  0  0  0
   -4.8213    9.7719   -8.0443 C   0  0  0  0  0  0  0  0  0  0  0  0
   -2.0996   12.1710   -6.9757 C   0  0  0  0  0  0  0  0  0  0  0  0
   -1.7487   13.4240   -6.4767 C   0  0  0  0  0  0  0  0  0  0  0  0
   -0.4123   13.4674   -6.4260 N   0  0  0  0  0  0  0  0  0  0  0  0
    0.1713   12.3664   -6.8217 N   0  0  0  0  0  0  0  0  0  0  0  0
   -0.8093   11.5624   -7.1930 C   0  0  0  0  0  0  0  0  0  0  0  0
    0.4224   14.5657   -5.9816 C   0  0  0  0  0  0  0  0  0  0  0  0
   -5.6966   14.2423  -13.2612 N   0  0  0  0  0  0  0  0  0  0  0  0
   -4.9506   15.3153  -13.5405 C   0  0  0  0  0  0  0  0  0  0  0  0
   -3.9383   15.6899  -12.6782 C   0  0  0  0  0  0  0  0  0  0  0  0
   -3.7261   14.9536  -11.5366 C   0  0  0  0  0  0  0  0  0  0  0  0
   -4.5508   13.8769  -11.2437 C   0  0  0  0  0  0  0  0  0  0  0  0
   -2.6976   15.2614  -10.7139 N   0  0  0  0  0  0  0  0  0  0  0  0
   -6.0464   12.2223   -9.8797 H   0  0  0  0  0  0  0  0  0  0  0  0
   -8.1826   10.1089  -13.8914 H   0  0  0  0  0  0  0  0  0  0  0  0
   -6.9001   12.2325  -14.0803 H   0  0  0  0  0  0  0  0  0  0  0  0
   -7.8086    7.8868   -9.7816 H   0  0  0  0  0  0  0  0  0  0  0  0
   -9.4157    8.9178  -11.5100 H   0  0  0  0  0  0  0  0  0  0  0  0
   -8.0313    9.6067   -7.2544 H   0  0  0  0  0  0  0  0  0  0  0  0
   -6.7563   12.3160   -6.9245 H   0  0  0  0  0  0  0  0  0  0  0  0
   -4.5218   13.2977   -6.4798 H   0  0  0  0  0  0  0  0  0  0  0  0
   -2.6703    9.7625   -8.0472 H   0  0  0  0  0  0  0  0  0  0  0  0
   -4.9024    8.7852   -8.4759 H   0  0  0  0  0  0  0  0  0  0  0  0
   -2.4277   14.2118   -6.1857 H   0  0  0  0  0  0  0  0  0  0  0  0
   -0.6637   10.5754   -7.6065 H   0  0  0  0  0  0  0  0  0  0  0  0
    1.4809   14.2752   -6.0543 H   0  0  0  0  0  0  0  0  0  0  0  0
    0.2393   15.4453   -6.6162 H   0  0  0  0  0  0  0  0  0  0  0  0
    0.1804   14.8105   -4.9369 H   0  0  0  0  0  0  0  0  0  0  0  0
   -5.1384   15.8875  -14.4370 H   0  0  0  0  0  0  0  0  0  0  0  0
   -3.0010   15.6690  -13.2536 H   0  0  0  0  0  0  0  0  0  0  0  0
   -4.1509   16.7215  -12.3610 H   0  0  0  0  0  0  0  0  0  0  0  0
   -4.4255   13.3274  -10.3224 H   0  0  0  0  0  0  0  0  0  0  0  0
   -2.6419   14.6376   -9.9343 H   0  0  0  0  0  0  0  0  0  0  0  0
  1  2  2  0  0  0  0
  1  4  1  0  0  0  0
  1 11  1  0  0  0  0
  2  6  1  0  0  0  0
  3  4  2  0  0  0  0
  3  5  1  0  0  0  0
  5  6  2  0  0  0  0
  5  9  1  0  0  0  0
  6  7  1  0  0  0  0
  7  8  1  0  0  0  0
  7 10  2  3  0  0  0
  8  9  1  0  0  0  0
 10 12  1  0  0  0  0
 11 24  1  0  0  0  0
 11 28  2  0  0  0  0
 12 13  2  0  0  0  0
 12 17  1  0  0  0  0
 13 14  1  0  0  0  0
 14 15  2  0  0  0  0
 15 16  1  0  0  0  0
 15 18  1  0  0  0  0
 16 17  2  0  0  0  0
 18 19  2  0  0  0  0
 18 22  1  0  0  0  0
 19 20  1  0  0  0  0
 20 21  1  0  0  0  0
 20 23  1  0  0  0  0
 21 22  2  0  0  0  0
 24 25  2  0  0  0  0
 25 26  1  0  0  0  0
 26 27  1  0  0  0  0
 27 28  1  0  0  0  0
 27 29  2  0  0  0  0
  2 30  1  0  0  0  0
  3 31  1  0  0  0  0
  4 32  1  0  0  0  0
  8 33  1  0  0  0  0
  9 34  1  0  0  0  0
 10 35  1  0  0  0  0
 13 36  1  0  0  0  0
 14 37  1  0  0  0  0
 16 38  1  0  0  0  0
 17 39  1  0  0  0  0
 19 40  1  0  0  0  0
 22 41  1  0  0  0  0
 23 42  1  0  0  0  0
 23 43  1  0  0  0  0
 23 44  1  0  0  0  0
 25 45  1  0  0  0  0
 26 46  1  0  0  0  0
 26 47  1  0  0  0  0
 28 48  1  0  0  0  0
 29 49  1  0  0  0  0
M  END
> <Name>
23

> <IC50[uM]>
0.27

$$$$
23
  -OEChem-05192314333D
 Structure written by MMmdl.
 49 53  0     0  0  0  0  0  0999 V2000
   -6.3775   12.3296  -12.0018 C   0  0  0  0  0  0  0  0  0  0  0  0
   -6.5098   11.7629  -10.7403 C   0  0  0  0  0  0  0  0  0  0  0  0
   -7.7247   10.5660  -13.0266 C   0  0  0  0  0  0  0  0  0  0  0  0
   -6.9942   11.7487  -13.1193 C   0  0  0  0  0  0  0  0  0  0  0  0
   -7.8312   10.0057  -11.7538 C   0  0  0  0  0  0  0  0  0  0  0  0
   -7.2443   10.6021  -10.6070 C   0  0  0  0  0  0  0  0  0  0  0  0
   -7.6167    9.7449   -9.5151 C   0  0  0  0  0  0  0  0  0  0  0  0
   -8.2961    8.7374   -9.9786 N   0  0  0  0  0  0  0  0  0  0  0  0
   -8.4404    8.8724  -11.2937 N   0  0  0  0  0  0  0  0  0  0  0  0
   -7.3318    9.8946   -8.0252 C   0  0  0  0  0  0  0  0  0  0  0  0
   -5.5478   13.5112  -12.1572 C   0  0  0  0  0  0  0  0  0  0  0  0
   -5.9707   10.4870   -7.7351 C   0  0  0  0  0  0  0  0  0  0  0  0
   -5.8642   11.7588   -7.1694 C   0  0  0  0  0  0  0  0  0  0  0  0
   -4.6019   12.3141   -6.9186 C   0  0  0  0  0  0  0  0  0  0  0  0
   -3.4503   11.5963   -7.2357 C   0  0  0  0  0  0  0  0  0  0  0  0
   -3.5604   10.3220   -7.8000 C   0  0  0  0  0  0  0  0  0  0  0  0
   -4.8213    9.7719   -8.0443 C   0  0  0  0  0  0  0  0  0  0  0  0
   -2.0996   12.1710   -6.9757 C   0  0  0  0  0  0  0  0  0  0  0  0
   -1.7487   13.4240   -6.4767 C   0  0  0  0  0  0  0  0  0  0  0  0
   -0.4123   13.4674   -6.4260 N   0  0  0  0  0  0  0  0  0  0  0  0
    0.1713   12.3664   -6.8217 N   0  0  0  0  0  0  0  0  0  0  0  0
   -0.8093   11.5624   -7.1930 C   0  0  0  0  0  0  0  0  0  0  0  0
    0.4224   14.5657   -5.9816 C   0  0  0  0  0  0  0  0  0  0  0  0
   -5.6966   14.2423  -13.2612 N   0  0  0  0  0  0  0  0  0  0  0  0
   -4.9506   15.3153  -13.5405 C   0  0  0  0  0  0  0  0  0  0  0  0
   -3.9383   15.6899  -12.6782 C   0  0  0  0  0  0  0  0  0  0  0  0
   -3.7261   14.9536  -11.5366 C   0  0  0  0  0  0  0  0  0  0  0  0
   -4.5508   13.8769  -11.2437 C   0  0  0  0  0  0  0  0  0  0  0  0
   -2.6976   15.2614  -10.7139 N   0  0  0  0  0  0  0  0  0  0  0  0
   -6.0464   12.2223   -9.8797 H   0  0  0  0  0  0  0  0  0  0  0  0
   -8.1826   10.1089  -13.8914 H   0  0  0  0  0  0  0  0  0  0  0  0
   -6.9001   12.2325  -14.0803 H   0  0  0  0  0  0  0  0  0  0  0  0
   -7.8086    7.8868   -9.7816 H   0  0  0  0  0  0  0  0  0  0  0  0
   -9.4157    8.9178  -11.5100 H   0  0  0  0  0  0  0  0  0  0  0  0
   -8.0313    9.6067   -7.2544 H   0  0  0  0  0  0  0  0  0  0  0  0
   -6.7563   12.3160   -6.9245 H   0  0  0  0  0  0  0  0  0  0  0  0
   -4.5218   13.2977   -6.4798 H   0  0  0  0  0  0  0  0  0  0  0  0
   -2.6703    9.7625   -8.0472 H   0  0  0  0  0  0  0  0  0  0  0  0
   -4.9024    8.7852   -8.4759 H   0  0  0  0  0  0  0  0  0  0  0  0
   -2.4277   14.2118   -6.1857 H   0  0  0  0  0  0  0  0  0  0  0  0
   -0.6637   10.5754   -7.6065 H   0  0  0  0  0  0  0  0  0  0  0  0
    1.4809   14.2752   -6.0543 H   0  0  0  0  0  0  0  0  0  0  0  0
    0.2393   15.4453   -6.6162 H   0  0  0  0  0  0  0  0  0  0  0  0
    0.1804   14.8105   -4.9369 H   0  0  0  0  0  0  0  0  0  0  0  0
   -5.1384   15.8875  -14.4370 H   0  0  0  0  0  0  0  0  0  0  0  0
   -3.3221   16.5493  -12.8978 H   0  0  0  0  0  0  0  0  0  0  0  0
   -5.0546   14.1072  -10.2933 H   0  0  0  0  0  0  0  0  0  0  0  0
   -3.8997   13.0003  -11.1106 H   0  0  0  0  0  0  0  0  0  0  0  0
   -2.6419   14.6376   -9.9343 H   0  0  0  0  0  0  0  0  0  0  0  0
  1  2  2  0  0  0  0
  1  4  1  0  0  0  0
  1 11  1  0  0  0  0
  2  6  1  0  0  0  0
  3  4  2  0  0  0  0
  3  5  1  0  0  0  0
  5  6  2  0  0  0  0
  5  9  1  0  0  0  0
  6  7  1  0  0  0  0
  7  8  1  0  0  0  0
  7 10  2  3  0  0  0
  8  9  1  0  0  0  0
 10 12  1  0  0  0  0
 11 24  2  0  0  0  0
 11 28  1  0  0  0  0
 12 13  2  0  0  0  0
 12 17  1  0  0  0  0
 13 14  1  0  0  0  0
 14 15  2  0  0  0  0
 15 16  1  0  0  0  0
 15 18  1  0  0  0  0
 16 17  2  0  0  0  0
 18 19  2  0  0  0  0
 18 22  1  0  0  0  0
 19 20  1  0  0  0  0
 20 21  1  0  0  0  0
 20 23  1  0  0  0  0
 21 22  2  0  0  0  0
 24 25  1  0  0  0  0
 25 26  2  0  0  0  0
 26 27  1  0  0  0  0
 27 28  1  0  0  0  0
 27 29  2  0  0  0  0
  2 30  1  0  0  0  0
  3 31  1  0  0  0  0
  4 32  1  0  0  0  0
  8 33  1  0  0  0  0
  9 34  1  0  0  0  0
 10 35  1  0  0  0  0
 13 36  1  0  0  0  0
 14 37  1  0  0  0  0
 16 38  1  0  0  0  0
 17 39  1  0  0  0  0
 19 40  1  0  0  0  0
 22 41  1  0  0  0  0
 23 42  1  0  0  0  0
 23 43  1  0  0  0  0
 23 44  1  0  0  0  0
 25 45  1  0  0  0  0
 26 46  1  0  0  0  0
 28 47  1  0  0  0  0
 28 48  1  0  0  0  0
 29 49  1  0  0  0  0
M  END
> <Name>
23

> <IC50[uM]>
0.27

$$$$
23
  -OEChem-05192314333D
 Structure written by MMmdl.
 49 53  0     1  0  0  0  0  0999 V2000
   -6.3775   12.3296  -12.0018 C   0  0  0  0  0  0  0  0  0  0  0  0
   -6.5098   11.7629  -10.7403 C   0  0  0  0  0  0  0  0  0  0  0  0
   -7.7247   10.5660  -13.0266 C   0  0  0  0  0  0  0  0  0  0  0  0
   -6.9942   11.7487  -13.1193 C   0  0  0  0  0  0  0  0  0  0  0  0
   -7.8312   10.0057  -11.7538 C   0  0  0  0  0  0  0  0  0  0  0  0
   -7.2443   10.6021  -10.6070 C   0  0  0  0  0  0  0  0  0  0  0  0
   -7.6167    9.7449   -9.5151 C   0  0  0  0  0  0  0  0  0  0  0  0
   -8.2961    8.7374   -9.9786 N   0  0  0  0  0  0  0  0  0  0  0  0
   -8.4404    8.8724  -11.2937 N   0  0  0  0  0  0  0  0  0  0  0  0
   -7.3318    9.8946   -8.0252 C   0  0  0  0  0  0  0  0  0  0  0  0
   -5.5478   13.5112  -12.1572 C   0  0  0  0  0  0  0  0  0  0  0  0
   -5.9707   10.4870   -7.7351 C   0  0  0  0  0  0  0  0  0  0  0  0
   -5.8642   11.7588   -7.1694 C   0  0  0  0  0  0  0  0  0  0  0  0
   -4.6019   12.3141   -6.9186 C   0  0  0  0  0  0  0  0  0  0  0  0
   -3.4503   11.5963   -7.2357 C   0  0  0  0  0  0  0  0  0  0  0  0
   -3.5604   10.3220   -7.8000 C   0  0  0  0  0  0  0  0  0  0  0  0
   -4.8213    9.7719   -8.0443 C   0  0  0  0  0  0  0  0  0  0  0  0
   -2.0996   12.1710   -6.9757 C   0  0  0  0  0  0  0  0  0  0  0  0
   -1.7487   13.4240   -6.4767 C   0  0  0  0  0  0  0  0  0  0  0  0
   -0.4123   13.4674   -6.4260 N   0  0  0  0  0  0  0  0  0  0  0  0
    0.1713   12.3664   -6.8217 N   0  0  0  0  0  0  0  0  0  0  0  0
   -0.8093   11.5624   -7.1930 C   0  0  0  0  0  0  0  0  0  0  0  0
    0.4224   14.5657   -5.9816 C   0  0  0  0  0  0  0  0  0  0  0  0
   -5.6966   14.2423  -13.2612 N   0  0  0  0  0  0  0  0  0  0  0  0
   -4.9506   15.3153  -13.5405 C   0  0  0  0  0  0  0  0  0  0  0  0
   -3.9383   15.6899  -12.6782 C   0  0  0  0  0  0  0  0  0  0  0  0
   -3.7261   14.9536  -11.5366 C   0  0  3  0  0  0  0  0  0  0  0  0
   -4.5508   13.8769  -11.2437 C   0  0  0  0  0  0  0  0  0  0  0  0
   -2.6976   15.2614  -10.7139 N   0  0  0  0  0  0  0  0  0  0  0  0
   -6.0464   12.2223   -9.8797 H   0  0  0  0  0  0  0  0  0  0  0  0
   -8.1826   10.1089  -13.8914 H   0  0  0  0  0  0  0  0  0  0  0  0
   -6.9001   12.2325  -14.0803 H   0  0  0  0  0  0  0  0  0  0  0  0
   -8.0313    9.6067   -7.2544 H   0  0  0  0  0  0  0  0  0  0  0  0
   -6.7563   12.3160   -6.9245 H   0  0  0  0  0  0  0  0  0  0  0  0
   -4.5218   13.2977   -6.4798 H   0  0  0  0  0  0  0  0  0  0  0  0
   -2.6703    9.7625   -8.0472 H   0  0  0  0  0  0  0  0  0  0  0  0
   -4.9024    8.7852   -8.4759 H   0  0  0  0  0  0  0  0  0  0  0  0
   -2.4277   14.2118   -6.1857 H   0  0  0  0  0  0  0  0  0  0  0  0
   -0.6637   10.5754   -7.6065 H   0  0  0  0  0  0  0  0  0  0  0  0
    1.4809   14.2752   -6.0543 H   0  0  0  0  0  0  0  0  0  0  0  0
    0.2393   15.4453   -6.6162 H   0  0  0  0  0  0  0  0  0  0  0  0
    0.1804   14.8105   -4.9369 H   0  0  0  0  0  0  0  0  0  0  0  0
   -6.4038   13.9739  -13.9153 H   0  0  0  0  0  0  0  0  0  0  0  0
   -5.1384   15.8875  -14.4370 H   0  0  0  0  0  0  0  0  0  0  0  0
   -3.3221   16.5493  -12.8978 H   0  0  0  0  0  0  0  0  0  0  0  0
   -4.3892   15.6249  -10.9713 H   0  0  0  0  0  0  0  0  0  0  0  0
   -4.4255   13.3274  -10.3224 H   0  0  0  0  0  0  0  0  0  0  0  0
   -2.6901   14.6302   -9.9383 H   0  0  0  0  0  0  0  0  0  0  0  0
   -1.8356   15.1840  -11.2148 H   0  0  0  0  0  0  0  0  0  0  0  0
  1  2  2  0  0  0  0
  1  4  1  0  0  0  0
  1 11  1  0  0  0  0
  2  6  1  0  0  0  0
  3  4  2  0  0  0  0
  3  5  1  0  0  0  0
  5  6  2  0  0  0  0
  5  9  1  0  0  0  0
  6  7  1  0  0  0  0
  7  8  1  0  0  0  0
  7 10  2  3  0  0  0
  8  9  2  0  0  0  0
 10 12  1  0  0  0  0
 11 24  1  0  0  0  0
 11 28  2  0  0  0  0
 12 13  2  0  0  0  0
 12 17  1  0  0  0  0
 13 14  1  0  0  0  0
 14 15  2  0  0  0  0
 15 16  1  0  0  0  0
 15 18  1  0  0  0  0
 16 17  2  0  0  0  0
 18 19  2  0  0  0  0
 18 22  1  0  0  0  0
 19 20  1  0  0  0  0
 20 21  1  0  0  0  0
 20 23  1  0  0  0  0
 21 22  2  0  0  0  0
 24 25  1  0  0  0  0
 25 26  2  0  0  0  0
 26 27  1  0  0  0  0
 27 28  1  0  0  0  0
 27 29  1  0  0  0  0
  2 30  1  0  0  0  0
  3 31  1  0  0  0  0
  4 32  1  0  0  0  0
 10 33  1  0  0  0  0
 13 34  1  0  0  0  0
 14 35  1  0  0  0  0
 16 36  1  0  0  0  0
 17 37  1  0  0  0  0
 19 38  1  0  0  0  0
 22 39  1  0  0  0  0
 23 40  1  0  0  0  0
 23 41  1  0  0  0  0
 23 42  1  0  0  0  0
 24 43  1  0  0  0  0
 25 44  1  0  0  0  0
 26 45  1  0  0  0  0
 27 46  1  0  0  0  0
 28 47  1  0  0  0  0
 29 48  1  0  0  0  0
 29 49  1  0  0  0  0
M  END
> <Name>
23

> <IC50[uM]>
0.27

$$$$
23
  -OEChem-05192314333D
 Structure written by MMmdl.
 49 53  0     1  0  0  0  0  0999 V2000
   -6.3775   12.3296  -12.0018 C   0  0  0  0  0  0  0  0  0  0  0  0
   -6.5098   11.7629  -10.7403 C   0  0  0  0  0  0  0  0  0  0  0  0
   -7.7247   10.5660  -13.0266 C   0  0  0  0  0  0  0  0  0  0  0  0
   -6.9942   11.7487  -13.1193 C   0  0  0  0  0  0  0  0  0  0  0  0
   -7.8312   10.0057  -11.7538 C   0  0  0  0  0  0  0  0  0  0  0  0
   -7.2443   10.6021  -10.6070 C   0  0  0  0  0  0  0  0  0  0  0  0
   -7.6167    9.7449   -9.5151 C   0  0  0  0  0  0  0  0  0  0  0  0
   -8.2961    8.7374   -9.9786 N   0  0  0  0  0  0  0  0  0  0  0  0
   -8.4404    8.8724  -11.2937 N   0  0  0  0  0  0  0  0  0  0  0  0
   -7.3318    9.8946   -8.0252 C   0  0  0  0  0  0  0  0  0  0  0  0
   -5.5478   13.5112  -12.1572 C   0  0  3  0  0  0  0  0  0  0  0  0
   -5.9707   10.4870   -7.7351 C   0  0  0  0  0  0  0  0  0  0  0  0
   -5.8642   11.7588   -7.1694 C   0  0  0  0  0  0  0  0  0  0  0  0
   -4.6019   12.3141   -6.9186 C   0  0  0  0  0  0  0  0  0  0  0  0
   -3.4503   11.5963   -7.2357 C   0  0  0  0  0  0  0  0  0  0  0  0
   -3.5604   10.3220   -7.8000 C   0  0  0  0  0  0  0  0  0  0  0  0
   -4.8213    9.7719   -8.0443 C   0  0  0  0  0  0  0  0  0  0  0  0
   -2.0996   12.1710   -6.9757 C   0  0  0  0  0  0  0  0  0  0  0  0
   -1.7487   13.4240   -6.4767 C   0  0  0  0  0  0  0  0  0  0  0  0
   -0.4123   13.4674   -6.4260 N   0  0  0  0  0  0  0  0  0  0  0  0
    0.1713   12.3664   -6.8217 N   0  0  0  0  0  0  0  0  0  0  0  0
   -0.8093   11.5624   -7.1930 C   0  0  0  0  0  0  0  0  0  0  0  0
    0.4224   14.5657   -5.9816 C   0  0  0  0  0  0  0  0  0  0  0  0
   -5.6966   14.2423  -13.2612 N   0  0  0  0  0  0  0  0  0  0  0  0
   -4.9506   15.3153  -13.5405 C   0  0  0  0  0  0  0  0  0  0  0  0
   -3.9383   15.6899  -12.6782 C   0  0  0  0  0  0  0  0  0  0  0  0
   -3.7261   14.9536  -11.5366 C   0  0  0  0  0  0  0  0  0  0  0  0
   -4.5508   13.8769  -11.2437 C   0  0  0  0  0  0  0  0  0  0  0  0
   -2.6976   15.2614  -10.7139 N   0  0  0  0  0  0  0  0  0  0  0  0
   -6.0464   12.2223   -9.8797 H   0  0  0  0  0  0  0  0  0  0  0  0
   -8.1826   10.1089  -13.8914 H   0  0  0  0  0  0  0  0  0  0  0  0
   -6.9001   12.2325  -14.0803 H   0  0  0  0  0  0  0  0  0  0  0  0
   -8.0313    9.6067   -7.2544 H   0  0  0  0  0  0  0  0  0  0  0  0
   -6.2890   14.1255  -11.6250 H   0  0  0  0  0  0  0  0  0  0  0  0
   -6.7563   12.3160   -6.9245 H   0  0  0  0  0  0  0  0  0  0  0  0
   -4.5218   13.2977   -6.4798 H   0  0  0  0  0  0  0  0  0  0  0  0
   -2.6703    9.7625   -8.0472 H   0  0  0  0  0  0  0  0  0  0  0  0
   -4.9024    8.7852   -8.4759 H   0  0  0  0  0  0  0  0  0  0  0  0
   -2.4277   14.2118   -6.1857 H   0  0  0  0  0  0  0  0  0  0  0  0
   -0.6637   10.5754   -7.6065 H   0  0  0  0  0  0  0  0  0  0  0  0
    1.4809   14.2752   -6.0543 H   0  0  0  0  0  0  0  0  0  0  0  0
    0.2393   15.4453   -6.6162 H   0  0  0  0  0  0  0  0  0  0  0  0
    0.1804   14.8105   -4.9369 H   0  0  0  0  0  0  0  0  0  0  0  0
   -5.5661   13.6118  -14.0263 H   0  0  0  0  0  0  0  0  0  0  0  0
   -5.1384   15.8875  -14.4370 H   0  0  0  0  0  0  0  0  0  0  0  0
   -3.3221   16.5493  -12.8978 H   0  0  0  0  0  0  0  0  0  0  0  0
   -4.4255   13.3274  -10.3224 H   0  0  0  0  0  0  0  0  0  0  0  0
   -2.6901   14.6302   -9.9383 H   0  0  0  0  0  0  0  0  0  0  0  0
   -1.8356   15.1840  -11.2148 H   0  0  0  0  0  0  0  0  0  0  0  0
  1  2  2  0  0  0  0
  1  4  1  0  0  0  0
  1 11  1  0  0  0  0
  2  6  1  0  0  0  0
  3  4  2  0  0  0  0
  3  5  1  0  0  0  0
  5  6  2  0  0  0  0
  5  9  1  0  0  0  0
  6  7  1  0  0  0  0
  7  8  1  0  0  0  0
  7 10  2  3  0  0  0
  8  9  2  0  0  0  0
 10 12  1  0  0  0  0
 11 24  1  0  0  0  0
 11 28  1  0  0  0  0
 12 13  2  0  0  0  0
 12 17  1  0  0  0  0
 13 14  1  0  0  0  0
 14 15  2  0  0  0  0
 15 16  1  0  0  0  0
 15 18  1  0  0  0  0
 16 17  2  0  0  0  0
 18 19  2  0  0  0  0
 18 22  1  0  0  0  0
 19 20  1  0  0  0  0
 20 21  1  0  0  0  0
 20 23  1  0  0  0  0
 21 22  2  0  0  0  0
 24 25  1  0  0  0  0
 25 26  2  0  0  0  0
 26 27  1  0  0  0  0
 27 28  2  0  0  0  0
 27 29  1  0  0  0  0
  2 30  1  0  0  0  0
  3 31  1  0  0  0  0
  4 32  1  0  0  0  0
 10 33  1  0  0  0  0
 11 34  1  0  0  0  0
 13 35  1  0  0  0  0
 14 36  1  0  0  0  0
 16 37  1  0  0  0  0
 17 38  1  0  0  0  0
 19 39  1  0  0  0  0
 22 40  1  0  0  0  0
 23 41  1  0  0  0  0
 23 42  1  0  0  0  0
 23 43  1  0  0  0  0
 24 44  1  0  0  0  0
 25 45  1  0  0  0  0
 26 46  1  0  0  0  0
 28 47  1  0  0  0  0
 29 48  1  0  0  0  0
 29 49  1  0  0  0  0
M  END
> <Name>
23

> <IC50[uM]>
0.27

$$$$
23
  -OEChem-05192314333D
 Structure written by MMmdl.
 49 53  0     0  0  0  0  0  0999 V2000
   -6.3775   12.3296  -12.0018 C   0  0  0  0  0  0  0  0  0  0  0  0
   -6.5098   11.7629  -10.7403 C   0  0  0  0  0  0  0  0  0  0  0  0
   -7.7247   10.5660  -13.0266 C   0  0  0  0  0  0  0  0  0  0  0  0
   -6.9942   11.7487  -13.1193 C   0  0  0  0  0  0  0  0  0  0  0  0
   -7.8312   10.0057  -11.7538 C   0  0  0  0  0  0  0  0  0  0  0  0
   -7.2443   10.6021  -10.6070 C   0  0  0  0  0  0  0  0  0  0  0  0
   -7.6167    9.7449   -9.5151 C   0  0  0  0  0  0  0  0  0  0  0  0
   -8.2961    8.7374   -9.9786 N   0  0  0  0  0  0  0  0  0  0  0  0
   -8.4404    8.8724  -11.2937 N   0  0  0  0  0  0  0  0  0  0  0  0
   -7.3318    9.8946   -8.0252 C   0  0  0  0  0  0  0  0  0  0  0  0
   -5.5478   13.5112  -12.1572 C   0  0  0  0  0  0  0  0  0  0  0  0
   -5.9707   10.4870   -7.7351 C   0  0  0  0  0  0  0  0  0  0  0  0
   -5.8642   11.7588   -7.1694 C   0  0  0  0  0  0  0  0  0  0  0  0
   -4.6019   12.3141   -6.9186 C   0  0  0  0  0  0  0  0  0  0  0  0
   -3.4503   11.5963   -7.2357 C   0  0  0  0  0  0  0  0  0  0  0  0
   -3.5604   10.3220   -7.8000 C   0  0  0  0  0  0  0  0  0  0  0  0
   -4.8213    9.7719   -8.0443 C   0  0  0  0  0  0  0  0  0  0  0  0
   -2.0996   12.1710   -6.9757 C   0  0  0  0  0  0  0  0  0  0  0  0
   -1.7487   13.4240   -6.4767 C   0  0  0  0  0  0  0  0  0  0  0  0
   -0.4123   13.4674   -6.4260 N   0  0  0  0  0  0  0  0  0  0  0  0
    0.1713   12.3664   -6.8217 N   0  0  0  0  0  0  0  0  0  0  0  0
   -0.8093   11.5624   -7.1930 C   0  0  0  0  0  0  0  0  0  0  0  0
    0.4224   14.5657   -5.9816 C   0  0  0  0  0  0  0  0  0  0  0  0
   -5.6966   14.2423  -13.2612 N   0  0  0  0  0  0  0  0  0  0  0  0
   -4.9506   15.3153  -13.5405 C   0  0  0  0  0  0  0  0  0  0  0  0
   -3.9383   15.6899  -12.6782 C   0  0  0  0  0  0  0  0  0  0  0  0
   -3.7261   14.9536  -11.5366 C   0  0  0  0  0  0  0  0  0  0  0  0
   -4.5508   13.8769  -11.2437 C   0  0  0  0  0  0  0  0  0  0  0  0
   -2.6976   15.2614  -10.7139 N   0  0  0  0  0  0  0  0  0  0  0  0
   -6.0464   12.2223   -9.8797 H   0  0  0  0  0  0  0  0  0  0  0  0
   -8.1826   10.1089  -13.8914 H   0  0  0  0  0  0  0  0  0  0  0  0
   -6.9001   12.2325  -14.0803 H   0  0  0  0  0  0  0  0  0  0  0  0
   -8.0313    9.6067   -7.2544 H   0  0  0  0  0  0  0  0  0  0  0  0
   -6.7563   12.3160   -6.9245 H   0  0  0  0  0  0  0  0  0  0  0  0
   -4.5218   13.2977   -6.4798 H   0  0  0  0  0  0  0  0  0  0  0  0
   -2.6703    9.7625   -8.0472 H   0  0  0  0  0  0  0  0  0  0  0  0
   -4.9024    8.7852   -8.4759 H   0  0  0  0  0  0  0  0  0  0  0  0
   -2.4277   14.2118   -6.1857 H   0  0  0  0  0  0  0  0  0  0  0  0
   -0.6637   10.5754   -7.6065 H   0  0  0  0  0  0  0  0  0  0  0  0
    1.4809   14.2752   -6.0543 H   0  0  0  0  0  0  0  0  0  0  0  0
    0.2393   15.4453   -6.6162 H   0  0  0  0  0  0  0  0  0  0  0  0
    0.1804   14.8105   -4.9369 H   0  0  0  0  0  0  0  0  0  0  0  0
   -5.5661   13.6118  -14.0263 H   0  0  0  0  0  0  0  0  0  0  0  0
   -4.4839   15.1329  -14.5197 H   0  0  0  0  0  0  0  0  0  0  0  0
   -5.6381   16.1707  -13.6156 H   0  0  0  0  0  0  0  0  0  0  0  0
   -3.3221   16.5493  -12.8978 H   0  0  0  0  0  0  0  0  0  0  0  0
   -4.4255   13.3274  -10.3224 H   0  0  0  0  0  0  0  0  0  0  0  0
   -2.6901   14.6302   -9.9383 H   0  0  0  0  0  0  0  0  0  0  0  0
   -1.8356   15.1840  -11.2148 H   0  0  0  0  0  0  0  0  0  0  0  0
  1  2  2  0  0  0  0
  1  4  1  0  0  0  0
  1 11  1  0  0  0  0
  2  6  1  0  0  0  0
  3  4  2  0  0  0  0
  3  5  1  0  0  0  0
  5  6  2  0  0  0  0
  5  9  1  0  0  0  0
  6  7  1  0  0  0  0
  7  8  1  0  0  0  0
  7 10  2  3  0  0  0
  8  9  2  0  0  0  0
 10 12  1  0  0  0  0
 11 24  1  0  0  0  0
 11 28  2  0  0  0  0
 12 13  2  0  0  0  0
 12 17  1  0  0  0  0
 13 14  1  0  0  0  0
 14 15  2  0  0  0  0
 15 16  1  0  0  0  0
 15 18  1  0  0  0  0
 16 17  2  0  0  0  0
 18 19  2  0  0  0  0
 18 22  1  0  0  0  0
 19 20  1  0  0  0  0
 20 21  1  0  0  0  0
 20 23  1  0  0  0  0
 21 22  2  0  0  0  0
 24 25  1  0  0  0  0
 25 26  1  0  0  0  0
 26 27  2  0  0  0  0
 27 28  1  0  0  0  0
 27 29  1  0  0  0  0
  2 30  1  0  0  0  0
  3 31  1  0  0  0  0
  4 32  1  0  0  0  0
 10 33  1  0  0  0  0
 13 34  1  0  0  0  0
 14 35  1  0  0  0  0
 16 36  1  0  0  0  0
 17 37  1  0  0  0  0
 19 38  1  0  0  0  0
 22 39  1  0  0  0  0
 23 40  1  0  0  0  0
 23 41  1  0  0  0  0
 23 42  1  0  0  0  0
 24 43  1  0  0  0  0
 25 44  1  0  0  0  0
 25 45  1  0  0  0  0
 26 46  1  0  0  0  0
 28 47  1  0  0  0  0
 29 48  1  0  0  0  0
 29 49  1  0  0  0  0
M  END
> <Name>
23

> <IC50[uM]>
0.27

$$$$
23
  -OEChem-05192314333D
 Structure written by MMmdl.
 49 53  0     0  0  0  0  0  0999 V2000
   -6.3775   12.3296  -12.0018 C   0  0  0  0  0  0  0  0  0  0  0  0
   -6.5098   11.7629  -10.7403 C   0  0  0  0  0  0  0  0  0  0  0  0
   -7.7247   10.5660  -13.0266 C   0  0  0  0  0  0  0  0  0  0  0  0
   -6.9942   11.7487  -13.1193 C   0  0  0  0  0  0  0  0  0  0  0  0
   -7.8312   10.0057  -11.7538 C   0  0  0  0  0  0  0  0  0  0  0  0
   -7.2443   10.6021  -10.6070 C   0  0  0  0  0  0  0  0  0  0  0  0
   -7.6167    9.7449   -9.5151 C   0  0  0  0  0  0  0  0  0  0  0  0
   -8.2961    8.7374   -9.9786 N   0  0  0  0  0  0  0  0  0  0  0  0
   -8.4404    8.8724  -11.2937 N   0  0  0  0  0  0  0  0  0  0  0  0
   -7.3318    9.8946   -8.0252 C   0  0  0  0  0  0  0  0  0  0  0  0
   -5.5478   13.5112  -12.1572 C   0  0  0  0  0  0  0  0  0  0  0  0
   -5.9707   10.4870   -7.7351 C   0  0  0  0  0  0  0  0  0  0  0  0
   -5.8642   11.7588   -7.1694 C   0  0  0  0  0  0  0  0  0  0  0  0
   -4.6019   12.3141   -6.9186 C   0  0  0  0  0  0  0  0  0  0  0  0
   -3.4503   11.5963   -7.2357 C   0  0  0  0  0  0  0  0  0  0  0  0
   -3.5604   10.3220   -7.8000 C   0  0  0  0  0  0  0  0  0  0  0  0
   -4.8213    9.7719   -8.0443 C   0  0  0  0  0  0  0  0  0  0  0  0
   -2.0996   12.1710   -6.9757 C   0  0  0  0  0  0  0  0  0  0  0  0
   -1.7487   13.4240   -6.4767 C   0  0  0  0  0  0  0  0  0  0  0  0
   -0.4123   13.4674   -6.4260 N   0  0  0  0  0  0  0  0  0  0  0  0
    0.1713   12.3664   -6.8217 N   0  0  0  0  0  0  0  0  0  0  0  0
   -0.8093   11.5624   -7.1930 C   0  0  0  0  0  0  0  0  0  0  0  0
    0.4224   14.5657   -5.9816 C   0  0  0  0  0  0  0  0  0  0  0  0
   -5.6966   14.2423  -13.2612 N   0  0  0  0  0  0  0  0  0  0  0  0
   -4.9506   15.3153  -13.5405 C   0  0  0  0  0  0  0  0  0  0  0  0
   -3.9383   15.6899  -12.6782 C   0  0  0  0  0  0  0  0  0  0  0  0
   -3.7261   14.9536  -11.5366 C   0  0  0  0  0  0  0  0  0  0  0  0
   -4.5508   13.8769  -11.2437 C   0  0  0  0  0  0  0  0  0  0  0  0
   -2.6976   15.2614  -10.7139 N   0  0  0  0  0  0  0  0  0  0  0  0
   -6.0464   12.2223   -9.8797 H   0  0  0  0  0  0  0  0  0  0  0  0
   -8.1826   10.1089  -13.8914 H   0  0  0  0  0  0  0  0  0  0  0  0
   -6.9001   12.2325  -14.0803 H   0  0  0  0  0  0  0  0  0  0  0  0
   -8.0989   10.5499   -7.5868 H   0  0  0  0  0  0  0  0  0  0  0  0
   -7.3874    8.9007   -7.5571 H   0  0  0  0  0  0  0  0  0  0  0  0
   -6.7563   12.3160   -6.9245 H   0  0  0  0  0  0  0  0  0  0  0  0
   -4.5218   13.2977   -6.4798 H   0  0  0  0  0  0  0  0  0  0  0  0
   -2.6703    9.7625   -8.0472 H   0  0  0  0  0  0  0  0  0  0  0  0
   -4.9024    8.7852   -8.4759 H   0  0  0  0  0  0  0  0  0  0  0  0
   -2.4277   14.2118   -6.1857 H   0  0  0  0  0  0  0  0  0  0  0  0
   -0.6637   10.5754   -7.6065 H   0  0  0  0  0  0  0  0  0  0  0  0
    1.4809   14.2752   -6.0543 H   0  0  0  0  0  0  0  0  0  0  0  0
    0.2393   15.4453   -6.6162 H   0  0  0  0  0  0  0  0  0  0  0  0
    0.1804   14.8105   -4.9369 H   0  0  0  0  0  0  0  0  0  0  0  0
   -5.1384   15.8875  -14.4370 H   0  0  0  0  0  0  0  0  0  0  0  0
   -3.0010   15.6690  -13.2536 H   0  0  0  0  0  0  0  0  0  0  0  0
   -4.1509   16.7215  -12.3610 H   0  0  0  0  0  0  0  0  0  0  0  0
   -5.0546   14.1072  -10.2933 H   0  0  0  0  0  0  0  0  0  0  0  0
   -3.8997   13.0003  -11.1106 H   0  0  0  0  0  0  0  0  0  0  0  0
   -2.6419   14.6376   -9.9343 H   0  0  0  0  0  0  0  0  0  0  0  0
  1  2  1  0  0  0  0
  1  4  1  0  0  0  0
  1 11  2  0  0  0  0
  2  6  2  0  0  0  0
  3  4  2  0  0  0  0
  3  5  1  0  0  0  0
  5  6  1  0  0  0  0
  5  9  2  0  0  0  0
  6  7  1  0  0  0  0
  7  8  2  0  0  0  0
  7 10  1  0  0  0  0
  8  9  1  0  0  0  0
 10 12  1  0  0  0  0
 11 24  1  0  0  0  0
 11 28  1  0  0  0  0
 12 13  2  0  0  0  0
 12 17  1  0  0  0  0
 13 14  1  0  0  0  0
 14 15  2  0  0  0  0
 15 16  1  0  0  0  0
 15 18  1  0  0  0  0
 16 17  2  0  0  0  0
 18 19  2  0  0  0  0
 18 22  1  0  0  0  0
 19 20  1  0  0  0  0
 20 21  1  0  0  0  0
 20 23  1  0  0  0  0
 21 22  2  0  0  0  0
 24 25  2  0  0  0  0
 25 26  1  0  0  0  0
 26 27  1  0  0  0  0
 27 28  1  0  0  0  0
 27 29  2  0  0  0  0
  2 30  1  0  0  0  0
  3 31  1  0  0  0  0
  4 32  1  0  0  0  0
 10 33  1  0  0  0  0
 10 34  1  0  0  0  0
 13 35  1  0  0  0  0
 14 36  1  0  0  0  0
 16 37  1  0  0  0  0
 17 38  1  0  0  0  0
 19 39  1  0  0  0  0
 22 40  1  0  0  0  0
 23 41  1  0  0  0  0
 23 42  1  0  0  0  0
 23 43  1  0  0  0  0
 25 44  1  0  0  0  0
 26 45  1  0  0  0  0
 26 46  1  0  0  0  0
 28 47  1  0  0  0  0
 28 48  1  0  0  0  0
 29 49  1  0  0  0  0
M  END
> <Name>
23

> <IC50[uM]>
0.27

$$$$
23
  -OEChem-05192314333D
 Structure written by MMmdl.
 49 53  0     0  0  0  0  0  0999 V2000
   -6.3775   12.3296  -12.0018 C   0  0  0  0  0  0  0  0  0  0  0  0
   -6.5098   11.7629  -10.7403 C   0  0  0  0  0  0  0  0  0  0  0  0
   -7.7247   10.5660  -13.0266 C   0  0  0  0  0  0  0  0  0  0  0  0
   -6.9942   11.7487  -13.1193 C   0  0  0  0  0  0  0  0  0  0  0  0
   -7.8312   10.0057  -11.7538 C   0  0  0  0  0  0  0  0  0  0  0  0
   -7.2443   10.6021  -10.6070 C   0  0  0  0  0  0  0  0  0  0  0  0
   -7.6167    9.7449   -9.5151 C   0  0  0  0  0  0  0  0  0  0  0  0
   -8.2961    8.7374   -9.9786 N   0  0  0  0  0  0  0  0  0  0  0  0
   -8.4404    8.8724  -11.2937 N   0  0  0  0  0  0  0  0  0  0  0  0
   -7.3318    9.8946   -8.0252 C   0  0  0  0  0  0  0  0  0  0  0  0
   -5.5478   13.5112  -12.1572 C   0  0  0  0  0  0  0  0  0  0  0  0
   -5.9707   10.4870   -7.7351 C   0  0  0  0  0  0  0  0  0  0  0  0
   -5.8642   11.7588   -7.1694 C   0  0  0  0  0  0  0  0  0  0  0  0
   -4.6019   12.3141   -6.9186 C   0  0  0  0  0  0  0  0  0  0  0  0
   -3.4503   11.5963   -7.2357 C   0  0  0  0  0  0  0  0  0  0  0  0
   -3.5604   10.3220   -7.8000 C   0  0  0  0  0  0  0  0  0  0  0  0
   -4.8213    9.7719   -8.0443 C   0  0  0  0  0  0  0  0  0  0  0  0
   -2.0996   12.1710   -6.9757 C   0  0  0  0  0  0  0  0  0  0  0  0
   -1.7487   13.4240   -6.4767 C   0  0  0  0  0  0  0  0  0  0  0  0
   -0.4123   13.4674   -6.4260 N   0  0  0  0  0  0  0  0  0  0  0  0
    0.1713   12.3664   -6.8217 N   0  0  0  0  0  0  0  0  0  0  0  0
   -0.8093   11.5624   -7.1930 C   0  0  0  0  0  0  0  0  0  0  0  0
    0.4224   14.5657   -5.9816 C   0  0  0  0  0  0  0  0  0  0  0  0
   -5.6966   14.2423  -13.2612 N   0  0  0  0  0  0  0  0  0  0  0  0
   -4.9506   15.3153  -13.5405 C   0  0  0  0  0  0  0  0  0  0  0  0
   -3.9383   15.6899  -12.6782 C   0  0  0  0  0  0  0  0  0  0  0  0
   -3.7261   14.9536  -11.5366 C   0  0  0  0  0  0  0  0  0  0  0  0
   -4.5508   13.8769  -11.2437 C   0  0  0  0  0  0  0  0  0  0  0  0
   -2.6976   15.2614  -10.7139 N   0  0  0  0  0  0  0  0  0  0  0  0
   -6.0464   12.2223   -9.8797 H   0  0  0  0  0  0  0  0  0  0  0  0
   -8.1826   10.1089  -13.8914 H   0  0  0  0  0  0  0  0  0  0  0  0
   -6.9001   12.2325  -14.0803 H   0  0  0  0  0  0  0  0  0  0  0  0
   -8.0989   10.5499   -7.5868 H   0  0  0  0  0  0  0  0  0  0  0  0
   -7.3874    8.9007   -7.5571 H   0  0  0  0  0  0  0  0  0  0  0  0
   -6.7563   12.3160   -6.9245 H   0  0  0  0  0  0  0  0  0  0  0  0
   -4.5218   13.2977   -6.4798 H   0  0  0  0  0  0  0  0  0  0  0  0
   -2.6703    9.7625   -8.0472 H   0  0  0  0  0  0  0  0  0  0  0  0
   -4.9024    8.7852   -8.4759 H   0  0  0  0  0  0  0  0  0  0  0  0
   -2.4277   14.2118   -6.1857 H   0  0  0  0  0  0  0  0  0  0  0  0
   -0.6637   10.5754   -7.6065 H   0  0  0  0  0  0  0  0  0  0  0  0
    1.4809   14.2752   -6.0543 H   0  0  0  0  0  0  0  0  0  0  0  0
    0.2393   15.4453   -6.6162 H   0  0  0  0  0  0  0  0  0  0  0  0
    0.1804   14.8105   -4.9369 H   0  0  0  0  0  0  0  0  0  0  0  0
   -5.1384   15.8875  -14.4370 H   0  0  0  0  0  0  0  0  0  0  0  0
   -3.0010   15.6690  -13.2536 H   0  0  0  0  0  0  0  0  0  0  0  0
   -4.1509   16.7215  -12.3610 H   0  0  0  0  0  0  0  0  0  0  0  0
   -4.4255   13.3274  -10.3224 H   0  0  0  0  0  0  0  0  0  0  0  0
   -2.6901   14.6302   -9.9383 H   0  0  0  0  0  0  0  0  0  0  0  0
   -1.8356   15.1840  -11.2148 H   0  0  0  0  0  0  0  0  0  0  0  0
  1  2  1  0  0  0  0
  1  4  1  0  0  0  0
  1 11  2  0  0  0  0
  2  6  2  0  0  0  0
  3  4  2  0  0  0  0
  3  5  1  0  0  0  0
  5  6  1  0  0  0  0
  5  9  2  0  0  0  0
  6  7  1  0  0  0  0
  7  8  2  0  0  0  0
  7 10  1  0  0  0  0
  8  9  1  0  0  0  0
 10 12  1  0  0  0  0
 11 24  1  0  0  0  0
 11 28  1  0  0  0  0
 12 13  2  0  0  0  0
 12 17  1  0  0  0  0
 13 14  1  0  0  0  0
 14 15  2  0  0  0  0
 15 16  1  0  0  0  0
 15 18  1  0  0  0  0
 16 17  2  0  0  0  0
 18 19  2  0  0  0  0
 18 22  1  0  0  0  0
 19 20  1  0  0  0  0
 20 21  1  0  0  0  0
 20 23  1  0  0  0  0
 21 22  2  0  0  0  0
 24 25  2  0  0  0  0
 25 26  1  0  0  0  0
 26 27  1  0  0  0  0
 27 28  2  0  0  0  0
 27 29  1  0  0  0  0
  2 30  1  0  0  0  0
  3 31  1  0  0  0  0
  4 32  1  0  0  0  0
 10 33  1  0  0  0  0
 10 34  1  0  0  0  0
 13 35  1  0  0  0  0
 14 36  1  0  0  0  0
 16 37  1  0  0  0  0
 17 38  1  0  0  0  0
 19 39  1  0  0  0  0
 22 40  1  0  0  0  0
 23 41  1  0  0  0  0
 23 42  1  0  0  0  0
 23 43  1  0  0  0  0
 25 44  1  0  0  0  0
 26 45  1  0  0  0  0
 26 46  1  0  0  0  0
 28 47  1  0  0  0  0
 29 48  1  0  0  0  0
 29 49  1  0  0  0  0
M  END
> <Name>
23

> <IC50[uM]>
0.27

$$$$
23
  -OEChem-05192314333D
 Structure written by MMmdl.
 49 53  0     0  0  0  0  0  0999 V2000
   -6.3775   12.3296  -12.0018 C   0  0  0  0  0  0  0  0  0  0  0  0
   -6.5098   11.7629  -10.7403 C   0  0  0  0  0  0  0  0  0  0  0  0
   -7.7247   10.5660  -13.0266 C   0  0  0  0  0  0  0  0  0  0  0  0
   -6.9942   11.7487  -13.1193 C   0  0  0  0  0  0  0  0  0  0  0  0
   -7.8312   10.0057  -11.7538 C   0  0  0  0  0  0  0  0  0  0  0  0
   -7.2443   10.6021  -10.6070 C   0  0  0  0  0  0  0  0  0  0  0  0
   -7.6167    9.7449   -9.5151 C   0  0  0  0  0  0  0  0  0  0  0  0
   -8.2961    8.7374   -9.9786 N   0  0  0  0  0  0  0  0  0  0  0  0
   -8.4404    8.8724  -11.2937 N   0  0  0  0  0  0  0  0  0  0  0  0
   -7.3318    9.8946   -8.0252 C   0  0  0  0  0  0  0  0  0  0  0  0
   -5.5478   13.5112  -12.1572 C   0  0  0  0  0  0  0  0  0  0  0  0
   -5.9707   10.4870   -7.7351 C   0  0  0  0  0  0  0  0  0  0  0  0
   -5.8642   11.7588   -7.1694 C   0  0  0  0  0  0  0  0  0  0  0  0
   -4.6019   12.3141   -6.9186 C   0  0  0  0  0  0  0  0  0  0  0  0
   -3.4503   11.5963   -7.2357 C   0  0  0  0  0  0  0  0  0  0  0  0
   -3.5604   10.3220   -7.8000 C   0  0  0  0  0  0  0  0  0  0  0  0
   -4.8213    9.7719   -8.0443 C   0  0  0  0  0  0  0  0  0  0  0  0
   -2.0996   12.1710   -6.9757 C   0  0  0  0  0  0  0  0  0  0  0  0
   -1.7487   13.4240   -6.4767 C   0  0  0  0  0  0  0  0  0  0  0  0
   -0.4123   13.4674   -6.4260 N   0  0  0  0  0  0  0  0  0  0  0  0
    0.1713   12.3664   -6.8217 N   0  0  0  0  0  0  0  0  0  0  0  0
   -0.8093   11.5624   -7.1930 C   0  0  0  0  0  0  0  0  0  0  0  0
    0.4224   14.5657   -5.9816 C   0  0  0  0  0  0  0  0  0  0  0  0
   -5.6966   14.2423  -13.2612 N   0  0  0  0  0  0  0  0  0  0  0  0
   -4.9506   15.3153  -13.5405 C   0  0  0  0  0  0  0  0  0  0  0  0
   -3.9383   15.6899  -12.6782 C   0  0  0  0  0  0  0  0  0  0  0  0
   -3.7261   14.9536  -11.5366 C   0  0  0  0  0  0  0  0  0  0  0  0
   -4.5508   13.8769  -11.2437 C   0  0  0  0  0  0  0  0  0  0  0  0
   -2.6976   15.2614  -10.7139 N   0  0  0  0  0  0  0  0  0  0  0  0
   -6.0464   12.2223   -9.8797 H   0  0  0  0  0  0  0  0  0  0  0  0
   -8.1826   10.1089  -13.8914 H   0  0  0  0  0  0  0  0  0  0  0  0
   -6.9001   12.2325  -14.0803 H   0  0  0  0  0  0  0  0  0  0  0  0
   -8.0989   10.5499   -7.5868 H   0  0  0  0  0  0  0  0  0  0  0  0
   -7.3874    8.9007   -7.5571 H   0  0  0  0  0  0  0  0  0  0  0  0
   -6.7563   12.3160   -6.9245 H   0  0  0  0  0  0  0  0  0  0  0  0
   -4.5218   13.2977   -6.4798 H   0  0  0  0  0  0  0  0  0  0  0  0
   -2.6703    9.7625   -8.0472 H   0  0  0  0  0  0  0  0  0  0  0  0
   -4.9024    8.7852   -8.4759 H   0  0  0  0  0  0  0  0  0  0  0  0
   -2.4277   14.2118   -6.1857 H   0  0  0  0  0  0  0  0  0  0  0  0
   -0.6637   10.5754   -7.6065 H   0  0  0  0  0  0  0  0  0  0  0  0
    1.4809   14.2752   -6.0543 H   0  0  0  0  0  0  0  0  0  0  0  0
    0.2393   15.4453   -6.6162 H   0  0  0  0  0  0  0  0  0  0  0  0
    0.1804   14.8105   -4.9369 H   0  0  0  0  0  0  0  0  0  0  0  0
   -5.1384   15.8875  -14.4370 H   0  0  0  0  0  0  0  0  0  0  0  0
   -3.3221   16.5493  -12.8978 H   0  0  0  0  0  0  0  0  0  0  0  0
   -5.0546   14.1072  -10.2933 H   0  0  0  0  0  0  0  0  0  0  0  0
   -3.8997   13.0003  -11.1106 H   0  0  0  0  0  0  0  0  0  0  0  0
   -2.6901   14.6302   -9.9383 H   0  0  0  0  0  0  0  0  0  0  0  0
   -1.8356   15.1840  -11.2148 H   0  0  0  0  0  0  0  0  0  0  0  0
  1  2  1  0  0  0  0
  1  4  1  0  0  0  0
  1 11  2  0  0  0  0
  2  6  2  0  0  0  0
  3  4  2  0  0  0  0
  3  5  1  0  0  0  0
  5  6  1  0  0  0  0
  5  9  2  0  0  0  0
  6  7  1  0  0  0  0
  7  8  2  0  0  0  0
  7 10  1  0  0  0  0
  8  9  1  0  0  0  0
 10 12  1  0  0  0  0
 11 24  1  0  0  0  0
 11 28  1  0  0  0  0
 12 13  2  0  0  0  0
 12 17  1  0  0  0  0
 13 14  1  0  0  0  0
 14 15  2  0  0  0  0
 15 16  1  0  0  0  0
 15 18  1  0  0  0  0
 16 17  2  0  0  0  0
 18 19  2  0  0  0  0
 18 22  1  0  0  0  0
 19 20  1  0  0  0  0
 20 21  1  0  0  0  0
 20 23  1  0  0  0  0
 21 22  2  0  0  0  0
 24 25  2  0  0  0  0
 25 26  1  0  0  0  0
 26 27  2  0  0  0  0
 27 28  1  0  0  0  0
 27 29  1  0  0  0  0
  2 30  1  0  0  0  0
  3 31  1  0  0  0  0
  4 32  1  0  0  0  0
 10 33  1  0  0  0  0
 10 34  1  0  0  0  0
 13 35  1  0  0  0  0
 14 36  1  0  0  0  0
 16 37  1  0  0  0  0
 17 38  1  0  0  0  0
 19 39  1  0  0  0  0
 22 40  1  0  0  0  0
 23 41  1  0  0  0  0
 23 42  1  0  0  0  0
 23 43  1  0  0  0  0
 25 44  1  0  0  0  0
 26 45  1  0  0  0  0
 28 46  1  0  0  0  0
 28 47  1  0  0  0  0
 29 48  1  0  0  0  0
 29 49  1  0  0  0  0
M  END
> <Name>
23

> <IC50[uM]>
0.27

$$$$
23
  -OEChem-05192314333D
 Structure written by MMmdl.
 49 53  0     0  0  0  0  0  0999 V2000
   -6.3775   12.3296  -12.0018 C   0  0  0  0  0  0  0  0  0  0  0  0
   -6.5098   11.7629  -10.7403 C   0  0  0  0  0  0  0  0  0  0  0  0
   -7.7247   10.5660  -13.0266 C   0  0  0  0  0  0  0  0  0  0  0  0
   -6.9942   11.7487  -13.1193 C   0  0  0  0  0  0  0  0  0  0  0  0
   -7.8312   10.0057  -11.7538 C   0  0  0  0  0  0  0  0  0  0  0  0
   -7.2443   10.6021  -10.6070 C   0  0  0  0  0  0  0  0  0  0  0  0
   -7.6167    9.7449   -9.5151 C   0  0  0  0  0  0  0  0  0  0  0  0
   -8.2961    8.7374   -9.9786 N   0  0  0  0  0  0  0  0  0  0  0  0
   -8.4404    8.8724  -11.2937 N   0  0  0  0  0  0  0  0  0  0  0  0
   -7.3318    9.8946   -8.0252 C   0  0  0  0  0  0  0  0  0  0  0  0
   -5.5478   13.5112  -12.1572 C   0  0  0  0  0  0  0  0  0  0  0  0
   -5.9707   10.4870   -7.7351 C   0  0  0  0  0  0  0  0  0  0  0  0
   -5.8642   11.7588   -7.1694 C   0  0  0  0  0  0  0  0  0  0  0  0
   -4.6019   12.3141   -6.9186 C   0  0  0  0  0  0  0  0  0  0  0  0
   -3.4503   11.5963   -7.2357 C   0  0  0  0  0  0  0  0  0  0  0  0
   -3.5604   10.3220   -7.8000 C   0  0  0  0  0  0  0  0  0  0  0  0
   -4.8213    9.7719   -8.0443 C   0  0  0  0  0  0  0  0  0  0  0  0
   -2.0996   12.1710   -6.9757 C   0  0  0  0  0  0  0  0  0  0  0  0
   -1.7487   13.4240   -6.4767 C   0  0  0  0  0  0  0  0  0  0  0  0
   -0.4123   13.4674   -6.4260 N   0  0  0  0  0  0  0  0  0  0  0  0
    0.1713   12.3664   -6.8217 N   0  0  0  0  0  0  0  0  0  0  0  0
   -0.8093   11.5624   -7.1930 C   0  0  0  0  0  0  0  0  0  0  0  0
    0.4224   14.5657   -5.9816 C   0  0  0  0  0  0  0  0  0  0  0  0
   -5.6966   14.2423  -13.2612 N   0  0  0  0  0  0  0  0  0  0  0  0
   -4.9506   15.3153  -13.5405 C   0  0  0  0  0  0  0  0  0  0  0  0
   -3.9383   15.6899  -12.6782 C   0  0  0  0  0  0  0  0  0  0  0  0
   -3.7261   14.9536  -11.5366 C   0  0  0  0  0  0  0  0  0  0  0  0
   -4.5508   13.8769  -11.2437 C   0  0  0  0  0  0  0  0  0  0  0  0
   -2.6976   15.2614  -10.7139 N   0  0  0  0  0  0  0  0  0  0  0  0
   -6.0464   12.2223   -9.8797 H   0  0  0  0  0  0  0  0  0  0  0  0
   -8.1826   10.1089  -13.8914 H   0  0  0  0  0  0  0  0  0  0  0  0
   -6.9001   12.2325  -14.0803 H   0  0  0  0  0  0  0  0  0  0  0  0
   -8.0989   10.5499   -7.5868 H   0  0  0  0  0  0  0  0  0  0  0  0
   -7.3874    8.9007   -7.5571 H   0  0  0  0  0  0  0  0  0  0  0  0
   -6.7563   12.3160   -6.9245 H   0  0  0  0  0  0  0  0  0  0  0  0
   -4.5218   13.2977   -6.4798 H   0  0  0  0  0  0  0  0  0  0  0  0
   -2.6703    9.7625   -8.0472 H   0  0  0  0  0  0  0  0  0  0  0  0
   -4.9024    8.7852   -8.4759 H   0  0  0  0  0  0  0  0  0  0  0  0
   -2.4277   14.2118   -6.1857 H   0  0  0  0  0  0  0  0  0  0  0  0
   -0.6637   10.5754   -7.6065 H   0  0  0  0  0  0  0  0  0  0  0  0
    1.4809   14.2752   -6.0543 H   0  0  0  0  0  0  0  0  0  0  0  0
    0.2393   15.4453   -6.6162 H   0  0  0  0  0  0  0  0  0  0  0  0
    0.1804   14.8105   -4.9369 H   0  0  0  0  0  0  0  0  0  0  0  0
   -6.4038   13.9739  -13.9153 H   0  0  0  0  0  0  0  0  0  0  0  0
   -5.1384   15.8875  -14.4370 H   0  0  0  0  0  0  0  0  0  0  0  0
   -3.3221   16.5493  -12.8978 H   0  0  0  0  0  0  0  0  0  0  0  0
   -5.0546   14.1072  -10.2933 H   0  0  0  0  0  0  0  0  0  0  0  0
   -3.8997   13.0003  -11.1106 H   0  0  0  0  0  0  0  0  0  0  0  0
   -2.6419   14.6376   -9.9343 H   0  0  0  0  0  0  0  0  0  0  0  0
  1  2  1  0  0  0  0
  1  4  1  0  0  0  0
  1 11  2  0  0  0  0
  2  6  2  0  0  0  0
  3  4  2  0  0  0  0
  3  5  1  0  0  0  0
  5  6  1  0  0  0  0
  5  9  2  0  0  0  0
  6  7  1  0  0  0  0
  7  8  2  0  0  0  0
  7 10  1  0  0  0  0
  8  9  1  0  0  0  0
 10 12  1  0  0  0  0
 11 24  1  0  0  0  0
 11 28  1  0  0  0  0
 12 13  2  0  0  0  0
 12 17  1  0  0  0  0
 13 14  1  0  0  0  0
 14 15  2  0  0  0  0
 15 16  1  0  0  0  0
 15 18  1  0  0  0  0
 16 17  2  0  0  0  0
 18 19  2  0  0  0  0
 18 22  1  0  0  0  0
 19 20  1  0  0  0  0
 20 21  1  0  0  0  0
 20 23  1  0  0  0  0
 21 22  2  0  0  0  0
 24 25  1  0  0  0  0
 25 26  2  0  0  0  0
 26 27  1  0  0  0  0
 27 28  1  0  0  0  0
 27 29  2  0  0  0  0
  2 30  1  0  0  0  0
  3 31  1  0  0  0  0
  4 32  1  0  0  0  0
 10 33  1  0  0  0  0
 10 34  1  0  0  0  0
 13 35  1  0  0  0  0
 14 36  1  0  0  0  0
 16 37  1  0  0  0  0
 17 38  1  0  0  0  0
 19 39  1  0  0  0  0
 22 40  1  0  0  0  0
 23 41  1  0  0  0  0
 23 42  1  0  0  0  0
 23 43  1  0  0  0  0
 24 44  1  0  0  0  0
 25 45  1  0  0  0  0
 26 46  1  0  0  0  0
 28 47  1  0  0  0  0
 28 48  1  0  0  0  0
 29 49  1  0  0  0  0
M  END
> <Name>
23

> <IC50[uM]>
0.27

$$$$
23
  -OEChem-05192314333D
 Structure written by MMmdl.
 49 53  0     0  0  0  0  0  0999 V2000
   -6.3775   12.3296  -12.0018 C   0  0  0  0  0  0  0  0  0  0  0  0
   -6.5098   11.7629  -10.7403 C   0  0  0  0  0  0  0  0  0  0  0  0
   -7.7247   10.5660  -13.0266 C   0  0  0  0  0  0  0  0  0  0  0  0
   -6.9942   11.7487  -13.1193 C   0  0  0  0  0  0  0  0  0  0  0  0
   -7.8312   10.0057  -11.7538 C   0  0  0  0  0  0  0  0  0  0  0  0
   -7.2443   10.6021  -10.6070 C   0  0  0  0  0  0  0  0  0  0  0  0
   -7.6167    9.7449   -9.5151 C   0  0  0  0  0  0  0  0  0  0  0  0
   -8.2961    8.7374   -9.9786 N   0  0  0  0  0  0  0  0  0  0  0  0
   -8.4404    8.8724  -11.2937 N   0  0  0  0  0  0  0  0  0  0  0  0
   -7.3318    9.8946   -8.0252 C   0  0  0  0  0  0  0  0  0  0  0  0
   -5.5478   13.5112  -12.1572 C   0  0  0  0  0  0  0  0  0  0  0  0
   -5.9707   10.4870   -7.7351 C   0  0  0  0  0  0  0  0  0  0  0  0
   -5.8642   11.7588   -7.1694 C   0  0  0  0  0  0  0  0  0  0  0  0
   -4.6019   12.3141   -6.9186 C   0  0  0  0  0  0  0  0  0  0  0  0
   -3.4503   11.5963   -7.2357 C   0  0  0  0  0  0  0  0  0  0  0  0
   -3.5604   10.3220   -7.8000 C   0  0  0  0  0  0  0  0  0  0  0  0
   -4.8213    9.7719   -8.0443 C   0  0  0  0  0  0  0  0  0  0  0  0
   -2.0996   12.1710   -6.9757 C   0  0  0  0  0  0  0  0  0  0  0  0
   -1.7487   13.4240   -6.4767 C   0  0  0  0  0  0  0  0  0  0  0  0
   -0.4123   13.4674   -6.4260 N   0  0  0  0  0  0  0  0  0  0  0  0
    0.1713   12.3664   -6.8217 N   0  0  0  0  0  0  0  0  0  0  0  0
   -0.8093   11.5624   -7.1930 C   0  0  0  0  0  0  0  0  0  0  0  0
    0.4224   14.5657   -5.9816 C   0  0  0  0  0  0  0  0  0  0  0  0
   -5.6966   14.2423  -13.2612 N   0  0  0  0  0  0  0  0  0  0  0  0
   -4.9506   15.3153  -13.5405 C   0  0  0  0  0  0  0  0  0  0  0  0
   -3.9383   15.6899  -12.6782 C   0  0  0  0  0  0  0  0  0  0  0  0
   -3.7261   14.9536  -11.5366 C   0  0  0  0  0  0  0  0  0  0  0  0
   -4.5508   13.8769  -11.2437 C   0  0  0  0  0  0  0  0  0  0  0  0
   -2.6976   15.2614  -10.7139 N   0  0  0  0  0  0  0  0  0  0  0  0
   -6.0464   12.2223   -9.8797 H   0  0  0  0  0  0  0  0  0  0  0  0
   -8.1826   10.1089  -13.8914 H   0  0  0  0  0  0  0  0  0  0  0  0
   -6.9001   12.2325  -14.0803 H   0  0  0  0  0  0  0  0  0  0  0  0
   -8.0989   10.5499   -7.5868 H   0  0  0  0  0  0  0  0  0  0  0  0
   -7.3874    8.9007   -7.5571 H   0  0  0  0  0  0  0  0  0  0  0  0
   -6.7563   12.3160   -6.9245 H   0  0  0  0  0  0  0  0  0  0  0  0
   -4.5218   13.2977   -6.4798 H   0  0  0  0  0  0  0  0  0  0  0  0
   -2.6703    9.7625   -8.0472 H   0  0  0  0  0  0  0  0  0  0  0  0
   -4.9024    8.7852   -8.4759 H   0  0  0  0  0  0  0  0  0  0  0  0
   -2.4277   14.2118   -6.1857 H   0  0  0  0  0  0  0  0  0  0  0  0
   -0.6637   10.5754   -7.6065 H   0  0  0  0  0  0  0  0  0  0  0  0
    1.4809   14.2752   -6.0543 H   0  0  0  0  0  0  0  0  0  0  0  0
    0.2393   15.4453   -6.6162 H   0  0  0  0  0  0  0  0  0  0  0  0
    0.1804   14.8105   -4.9369 H   0  0  0  0  0  0  0  0  0  0  0  0
   -6.4038   13.9739  -13.9153 H   0  0  0  0  0  0  0  0  0  0  0  0
   -5.1384   15.8875  -14.4370 H   0  0  0  0  0  0  0  0  0  0  0  0
   -3.3221   16.5493  -12.8978 H   0  0  0  0  0  0  0  0  0  0  0  0
   -4.4255   13.3274  -10.3224 H   0  0  0  0  0  0  0  0  0  0  0  0
   -2.6901   14.6302   -9.9383 H   0  0  0  0  0  0  0  0  0  0  0  0
   -1.8356   15.1840  -11.2148 H   0  0  0  0  0  0  0  0  0  0  0  0
  1  2  1  0  0  0  0
  1  4  1  0  0  0  0
  1 11  2  0  0  0  0
  2  6  2  0  0  0  0
  3  4  2  0  0  0  0
  3  5  1  0  0  0  0
  5  6  1  0  0  0  0
  5  9  2  0  0  0  0
  6  7  1  0  0  0  0
  7  8  2  0  0  0  0
  7 10  1  0  0  0  0
  8  9  1  0  0  0  0
 10 12  1  0  0  0  0
 11 24  1  0  0  0  0
 11 28  1  0  0  0  0
 12 13  2  0  0  0  0
 12 17  1  0  0  0  0
 13 14  1  0  0  0  0
 14 15  2  0  0  0  0
 15 16  1  0  0  0  0
 15 18  1  0  0  0  0
 16 17  2  0  0  0  0
 18 19  2  0  0  0  0
 18 22  1  0  0  0  0
 19 20  1  0  0  0  0
 20 21  1  0  0  0  0
 20 23  1  0  0  0  0
 21 22  2  0  0  0  0
 24 25  1  0  0  0  0
 25 26  2  0  0  0  0
 26 27  1  0  0  0  0
 27 28  2  0  0  0  0
 27 29  1  0  0  0  0
  2 30  1  0  0  0  0
  3 31  1  0  0  0  0
  4 32  1  0  0  0  0
 10 33  1  0  0  0  0
 10 34  1  0  0  0  0
 13 35  1  0  0  0  0
 14 36  1  0  0  0  0
 16 37  1  0  0  0  0
 17 38  1  0  0  0  0
 19 39  1  0  0  0  0
 22 40  1  0  0  0  0
 23 41  1  0  0  0  0
 23 42  1  0  0  0  0
 23 43  1  0  0  0  0
 24 44  1  0  0  0  0
 25 45  1  0  0  0  0
 26 46  1  0  0  0  0
 28 47  1  0  0  0  0
 29 48  1  0  0  0  0
 29 49  1  0  0  0  0
M  END
> <Name>
23

> <IC50[uM]>
0.27

$$$$
23
  -OEChem-05192314333D
 Structure written by MMmdl.
 49 53  0     1  0  0  0  0  0999 V2000
   -6.3775   12.3296  -12.0018 C   0  0  3  0  0  0  0  0  0  0  0  0
   -6.5098   11.7629  -10.7403 C   0  0  0  0  0  0  0  0  0  0  0  0
   -7.7247   10.5660  -13.0266 C   0  0  0  0  0  0  0  0  0  0  0  0
   -6.9942   11.7487  -13.1193 C   0  0  0  0  0  0  0  0  0  0  0  0
   -7.8312   10.0057  -11.7538 C   0  0  0  0  0  0  0  0  0  0  0  0
   -7.2443   10.6021  -10.6070 C   0  0  0  0  0  0  0  0  0  0  0  0
   -7.6167    9.7449   -9.5151 C   0  0  0  0  0  0  0  0  0  0  0  0
   -8.2961    8.7374   -9.9786 N   0  0  0  0  0  0  0  0  0  0  0  0
   -8.4404    8.8724  -11.2937 N   0  0  0  0  0  0  0  0  0  0  0  0
   -7.3318    9.8946   -8.0252 C   0  0  0  0  0  0  0  0  0  0  0  0
   -5.5478   13.5112  -12.1572 C   0  0  0  0  0  0  0  0  0  0  0  0
   -5.9707   10.4870   -7.7351 C   0  0  0  0  0  0  0  0  0  0  0  0
   -5.8642   11.7588   -7.1694 C   0  0  0  0  0  0  0  0  0  0  0  0
   -4.6019   12.3141   -6.9186 C   0  0  0  0  0  0  0  0  0  0  0  0
   -3.4503   11.5963   -7.2357 C   0  0  0  0  0  0  0  0  0  0  0  0
   -3.5604   10.3220   -7.8000 C   0  0  0  0  0  0  0  0  0  0  0  0
   -4.8213    9.7719   -8.0443 C   0  0  0  0  0  0  0  0  0  0  0  0
   -2.0996   12.1710   -6.9757 C   0  0  0  0  0  0  0  0  0  0  0  0
   -1.7487   13.4240   -6.4767 C   0  0  0  0  0  0  0  0  0  0  0  0
   -0.4123   13.4674   -6.4260 N   0  0  0  0  0  0  0  0  0  0  0  0
    0.1713   12.3664   -6.8217 N   0  0  0  0  0  0  0  0  0  0  0  0
   -0.8093   11.5624   -7.1930 C   0  0  0  0  0  0  0  0  0  0  0  0
    0.4224   14.5657   -5.9816 C   0  0  0  0  0  0  0  0  0  0  0  0
   -5.6966   14.2423  -13.2612 N   0  0  0  0  0  0  0  0  0  0  0  0
   -4.9506   15.3153  -13.5405 C   0  0  0  0  0  0  0  0  0  0  0  0
   -3.9383   15.6899  -12.6782 C   0  0  0  0  0  0  0  0  0  0  0  0
   -3.7261   14.9536  -11.5366 C   0  0  0  0  0  0  0  0  0  0  0  0
   -4.5508   13.8769  -11.2437 C   0  0  0  0  0  0  0  0  0  0  0  0
   -2.6976   15.2614  -10.7139 N   0  0  0  0  0  0  0  0  0  0  0  0
   -7.2621   12.9592  -11.8254 H   0  0  0  0  0  0  0  0  0  0  0  0
   -6.0464   12.2223   -9.8797 H   0  0  0  0  0  0  0  0  0  0  0  0
   -8.1826   10.1089  -13.8914 H   0  0  0  0  0  0  0  0  0  0  0  0
   -6.9001   12.2325  -14.0803 H   0  0  0  0  0  0  0  0  0  0  0  0
   -8.0989   10.5499   -7.5868 H   0  0  0  0  0  0  0  0  0  0  0  0
   -7.3874    8.9007   -7.5571 H   0  0  0  0  0  0  0  0  0  0  0  0
   -6.7563   12.3160   -6.9245 H   0  0  0  0  0  0  0  0  0  0  0  0
   -4.5218   13.2977   -6.4798 H   0  0  0  0  0  0  0  0  0  0  0  0
   -2.6703    9.7625   -8.0472 H   0  0  0  0  0  0  0  0  0  0  0  0
   -4.9024    8.7852   -8.4759 H   0  0  0  0  0  0  0  0  0  0  0  0
   -2.4277   14.2118   -6.1857 H   0  0  0  0  0  0  0  0  0  0  0  0
   -0.6637   10.5754   -7.6065 H   0  0  0  0  0  0  0  0  0  0  0  0
    1.4809   14.2752   -6.0543 H   0  0  0  0  0  0  0  0  0  0  0  0
    0.2393   15.4453   -6.6162 H   0  0  0  0  0  0  0  0  0  0  0  0
    0.1804   14.8105   -4.9369 H   0  0  0  0  0  0  0  0  0  0  0  0
   -5.1384   15.8875  -14.4370 H   0  0  0  0  0  0  0  0  0  0  0  0
   -3.3221   16.5493  -12.8978 H   0  0  0  0  0  0  0  0  0  0  0  0
   -4.4255   13.3274  -10.3224 H   0  0  0  0  0  0  0  0  0  0  0  0
   -2.6901   14.6302   -9.9383 H   0  0  0  0  0  0  0  0  0  0  0  0
   -1.8356   15.1840  -11.2148 H   0  0  0  0  0  0  0  0  0  0  0  0
  1  2  1  0  0  0  0
  1  4  1  0  0  0  0
  1 11  1  0  0  0  0
  2  6  2  0  0  0  0
  3  4  2  0  0  0  0
  3  5  1  0  0  0  0
  5  6  1  0  0  0  0
  5  9  2  0  0  0  0
  6  7  1  0  0  0  0
  7  8  2  0  0  0  0
  7 10  1  0  0  0  0
  8  9  1  0  0  0  0
 10 12  1  0  0  0  0
 11 24  2  0  0  0  0
 11 28  1  0  0  0  0
 12 13  2  0  0  0  0
 12 17  1  0  0  0  0
 13 14  1  0  0  0  0
 14 15  2  0  0  0  0
 15 16  1  0  0  0  0
 15 18  1  0  0  0  0
 16 17  2  0  0  0  0
 18 19  2  0  0  0  0
 18 22  1  0  0  0  0
 19 20  1  0  0  0  0
 20 21  1  0  0  0  0
 20 23  1  0  0  0  0
 21 22  2  0  0  0  0
 24 25  1  0  0  0  0
 25 26  2  0  0  0  0
 26 27  1  0  0  0  0
 27 28  2  0  0  0  0
 27 29  1  0  0  0  0
  1 30  1  0  0  0  0
  2 31  1  0  0  0  0
  3 32  1  0  0  0  0
  4 33  1  0  0  0  0
 10 34  1  0  0  0  0
 10 35  1  0  0  0  0
 13 36  1  0  0  0  0
 14 37  1  0  0  0  0
 16 38  1  0  0  0  0
 17 39  1  0  0  0  0
 19 40  1  0  0  0  0
 22 41  1  0  0  0  0
 23 42  1  0  0  0  0
 23 43  1  0  0  0  0
 23 44  1  0  0  0  0
 25 45  1  0  0  0  0
 26 46  1  0  0  0  0
 28 47  1  0  0  0  0
 29 48  1  0  0  0  0
 29 49  1  0  0  0  0
M  END
> <Name>
23

> <IC50[uM]>
0.27

$$$$
23
  -OEChem-05192314333D
 Structure written by MMmdl.
 49 53  0     1  0  0  0  0  0999 V2000
   -6.3775   12.3296  -12.0018 C   0  0  0  0  0  0  0  0  0  0  0  0
   -6.5098   11.7629  -10.7403 C   0  0  0  0  0  0  0  0  0  0  0  0
   -7.7247   10.5660  -13.0266 C   0  0  0  0  0  0  0  0  0  0  0  0
   -6.9942   11.7487  -13.1193 C   0  0  0  0  0  0  0  0  0  0  0  0
   -7.8312   10.0057  -11.7538 C   0  0  0  0  0  0  0  0  0  0  0  0
   -7.2443   10.6021  -10.6070 C   0  0  3  0  0  0  0  0  0  0  0  0
   -7.6167    9.7449   -9.5151 C   0  0  0  0  0  0  0  0  0  0  0  0
   -8.2961    8.7374   -9.9786 N   0  0  0  0  0  0  0  0  0  0  0  0
   -8.4404    8.8724  -11.2937 N   0  0  0  0  0  0  0  0  0  0  0  0
   -7.3318    9.8946   -8.0252 C   0  0  0  0  0  0  0  0  0  0  0  0
   -5.5478   13.5112  -12.1572 C   0  0  0  0  0  0  0  0  0  0  0  0
   -5.9707   10.4870   -7.7351 C   0  0  0  0  0  0  0  0  0  0  0  0
   -5.8642   11.7588   -7.1694 C   0  0  0  0  0  0  0  0  0  0  0  0
   -4.6019   12.3141   -6.9186 C   0  0  0  0  0  0  0  0  0  0  0  0
   -3.4503   11.5963   -7.2357 C   0  0  0  0  0  0  0  0  0  0  0  0
   -3.5604   10.3220   -7.8000 C   0  0  0  0  0  0  0  0  0  0  0  0
   -4.8213    9.7719   -8.0443 C   0  0  0  0  0  0  0  0  0  0  0  0
   -2.0996   12.1710   -6.9757 C   0  0  0  0  0  0  0  0  0  0  0  0
   -1.7487   13.4240   -6.4767 C   0  0  0  0  0  0  0  0  0  0  0  0
   -0.4123   13.4674   -6.4260 N   0  0  0  0  0  0  0  0  0  0  0  0
    0.1713   12.3664   -6.8217 N   0  0  0  0  0  0  0  0  0  0  0  0
   -0.8093   11.5624   -7.1930 C   0  0  0  0  0  0  0  0  0  0  0  0
    0.4224   14.5657   -5.9816 C   0  0  0  0  0  0  0  0  0  0  0  0
   -5.6966   14.2423  -13.2612 N   0  0  0  0  0  0  0  0  0  0  0  0
   -4.9506   15.3153  -13.5405 C   0  0  0  0  0  0  0  0  0  0  0  0
   -3.9383   15.6899  -12.6782 C   0  0  0  0  0  0  0  0  0  0  0  0
   -3.7261   14.9536  -11.5366 C   0  0  0  0  0  0  0  0  0  0  0  0
   -4.5508   13.8769  -11.2437 C   0  0  0  0  0  0  0  0  0  0  0  0
   -2.6976   15.2614  -10.7139 N   0  0  0  0  0  0  0  0  0  0  0  0
   -6.0464   12.2223   -9.8797 H   0  0  0  0  0  0  0  0  0  0  0  0
   -8.1826   10.1089  -13.8914 H   0  0  0  0  0  0  0  0  0  0  0  0
   -6.9001   12.2325  -14.0803 H   0  0  0  0  0  0  0  0  0  0  0  0
   -6.3326   10.0069  -10.7637 H   0  0  0  0  0  0  0  0  0  0  0  0
   -8.0989   10.5499   -7.5868 H   0  0  0  0  0  0  0  0  0  0  0  0
   -7.3874    8.9007   -7.5571 H   0  0  0  0  0  0  0  0  0  0  0  0
   -6.7563   12.3160   -6.9245 H   0  0  0  0  0  0  0  0  0  0  0  0
   -4.5218   13.2977   -6.4798 H   0  0  0  0  0  0  0  0  0  0  0  0
   -2.6703    9.7625   -8.0472 H   0  0  0  0  0  0  0  0  0  0  0  0
   -4.9024    8.7852   -8.4759 H   0  0  0  0  0  0  0  0  0  0  0  0
   -2.4277   14.2118   -6.1857 H   0  0  0  0  0  0  0  0  0  0  0  0
   -0.6637   10.5754   -7.6065 H   0  0  0  0  0  0  0  0  0  0  0  0
    1.4809   14.2752   -6.0543 H   0  0  0  0  0  0  0  0  0  0  0  0
    0.2393   15.4453   -6.6162 H   0  0  0  0  0  0  0  0  0  0  0  0
    0.1804   14.8105   -4.9369 H   0  0  0  0  0  0  0  0  0  0  0  0
   -5.1384   15.8875  -14.4370 H   0  0  0  0  0  0  0  0  0  0  0  0
   -3.3221   16.5493  -12.8978 H   0  0  0  0  0  0  0  0  0  0  0  0
   -4.4255   13.3274  -10.3224 H   0  0  0  0  0  0  0  0  0  0  0  0
   -2.6901   14.6302   -9.9383 H   0  0  0  0  0  0  0  0  0  0  0  0
   -1.8356   15.1840  -11.2148 H   0  0  0  0  0  0  0  0  0  0  0  0
  1  2  2  0  0  0  0
  1  4  1  0  0  0  0
  1 11  1  0  0  0  0
  2  6  1  0  0  0  0
  3  4  2  0  0  0  0
  3  5  1  0  0  0  0
  5  6  1  0  0  0  0
  5  9  2  0  0  0  0
  6  7  1  0  0  0  0
  7  8  2  0  0  0  0
  7 10  1  0  0  0  0
  8  9  1  0  0  0  0
 10 12  1  0  0  0  0
 11 24  2  0  0  0  0
 11 28  1  0  0  0  0
 12 13  2  0  0  0  0
 12 17  1  0  0  0  0
 13 14  1  0  0  0  0
 14 15  2  0  0  0  0
 15 16  1  0  0  0  0
 15 18  1  0  0  0  0
 16 17  2  0  0  0  0
 18 19  2  0  0  0  0
 18 22  1  0  0  0  0
 19 20  1  0  0  0  0
 20 21  1  0  0  0  0
 20 23  1  0  0  0  0
 21 22  2  0  0  0  0
 24 25  1  0  0  0  0
 25 26  2  0  0  0  0
 26 27  1  0  0  0  0
 27 28  2  0  0  0  0
 27 29  1  0  0  0  0
  2 30  1  0  0  0  0
  3 31  1  0  0  0  0
  4 32  1  0  0  0  0
  6 33  1  0  0  0  0
 10 34  1  0  0  0  0
 10 35  1  0  0  0  0
 13 36  1  0  0  0  0
 14 37  1  0  0  0  0
 16 38  1  0  0  0  0
 17 39  1  0  0  0  0
 19 40  1  0  0  0  0
 22 41  1  0  0  0  0
 23 42  1  0  0  0  0
 23 43  1  0  0  0  0
 23 44  1  0  0  0  0
 25 45  1  0  0  0  0
 26 46  1  0  0  0  0
 28 47  1  0  0  0  0
 29 48  1  0  0  0  0
 29 49  1  0  0  0  0
M  END
> <Name>
23

> <IC50[uM]>
0.27

$$$$
23
  -OEChem-05192314333D
 Structure written by MMmdl.
 49 53  0     0  0  0  0  0  0999 V2000
   -6.3775   12.3296  -12.0018 C   0  0  0  0  0  0  0  0  0  0  0  0
   -6.5098   11.7629  -10.7403 C   0  0  0  0  0  0  0  0  0  0  0  0
   -7.7247   10.5660  -13.0266 C   0  0  0  0  0  0  0  0  0  0  0  0
   -6.9942   11.7487  -13.1193 C   0  0  0  0  0  0  0  0  0  0  0  0
   -7.8312   10.0057  -11.7538 C   0  0  0  0  0  0  0  0  0  0  0  0
   -7.2443   10.6021  -10.6070 C   0  0  0  0  0  0  0  0  0  0  0  0
   -7.6167    9.7449   -9.5151 C   0  0  0  0  0  0  0  0  0  0  0  0
   -8.2961    8.7374   -9.9786 N   0  0  0  0  0  0  0  0  0  0  0  0
   -8.4404    8.8724  -11.2937 N   0  0  0  0  0  0  0  0  0  0  0  0
   -7.3318    9.8946   -8.0252 C   0  0  0  0  0  0  0  0  0  0  0  0
   -5.5478   13.5112  -12.1572 C   0  0  0  0  0  0  0  0  0  0  0  0
   -5.9707   10.4870   -7.7351 C   0  0  0  0  0  0  0  0  0  0  0  0
   -5.8642   11.7588   -7.1694 C   0  0  0  0  0  0  0  0  0  0  0  0
   -4.6019   12.3141   -6.9186 C   0  0  0  0  0  0  0  0  0  0  0  0
   -3.4503   11.5963   -7.2357 C   0  0  0  0  0  0  0  0  0  0  0  0
   -3.5604   10.3220   -7.8000 C   0  0  0  0  0  0  0  0  0  0  0  0
   -4.8213    9.7719   -8.0443 C   0  0  0  0  0  0  0  0  0  0  0  0
   -2.0996   12.1710   -6.9757 C   0  0  0  0  0  0  0  0  0  0  0  0
   -1.7487   13.4240   -6.4767 C   0  0  0  0  0  0  0  0  0  0  0  0
   -0.4123   13.4674   -6.4260 N   0  0  0  0  0  0  0  0  0  0  0  0
    0.1713   12.3664   -6.8217 N   0  0  0  0  0  0  0  0  0  0  0  0
   -0.8093   11.5624   -7.1930 C   0  0  0  0  0  0  0  0  0  0  0  0
    0.4224   14.5657   -5.9816 C   0  0  0  0  0  0  0  0  0  0  0  0
   -5.6966   14.2423  -13.2612 N   0  0  0  0  0  0  0  0  0  0  0  0
   -4.9506   15.3153  -13.5405 C   0  0  0  0  0  0  0  0  0  0  0  0
   -3.9383   15.6899  -12.6782 C   0  0  0  0  0  0  0  0  0  0  0  0
   -3.7261   14.9536  -11.5366 C   0  0  0  0  0  0  0  0  0  0  0  0
   -4.5508   13.8769  -11.2437 C   0  0  0  0  0  0  0  0  0  0  0  0
   -2.6976   15.2614  -10.7139 N   0  0  0  0  0  0  0  0  0  0  0  0
   -6.0464   12.2223   -9.8797 H   0  0  0  0  0  0  0  0  0  0  0  0
   -8.7428   10.7712  -13.3891 H   0  0  0  0  0  0  0  0  0  0  0  0
   -7.2451    9.8233  -13.6811 H   0  0  0  0  0  0  0  0  0  0  0  0
   -6.9001   12.2325  -14.0803 H   0  0  0  0  0  0  0  0  0  0  0  0
   -8.0989   10.5499   -7.5868 H   0  0  0  0  0  0  0  0  0  0  0  0
   -7.3874    8.9007   -7.5571 H   0  0  0  0  0  0  0  0  0  0  0  0
   -6.7563   12.3160   -6.9245 H   0  0  0  0  0  0  0  0  0  0  0  0
   -4.5218   13.2977   -6.4798 H   0  0  0  0  0  0  0  0  0  0  0  0
   -2.6703    9.7625   -8.0472 H   0  0  0  0  0  0  0  0  0  0  0  0
   -4.9024    8.7852   -8.4759 H   0  0  0  0  0  0  0  0  0  0  0  0
   -2.4277   14.2118   -6.1857 H   0  0  0  0  0  0  0  0  0  0  0  0
   -0.6637   10.5754   -7.6065 H   0  0  0  0  0  0  0  0  0  0  0  0
    1.4809   14.2752   -6.0543 H   0  0  0  0  0  0  0  0  0  0  0  0
    0.2393   15.4453   -6.6162 H   0  0  0  0  0  0  0  0  0  0  0  0
    0.1804   14.8105   -4.9369 H   0  0  0  0  0  0  0  0  0  0  0  0
   -5.1384   15.8875  -14.4370 H   0  0  0  0  0  0  0  0  0  0  0  0
   -3.3221   16.5493  -12.8978 H   0  0  0  0  0  0  0  0  0  0  0  0
   -4.4255   13.3274  -10.3224 H   0  0  0  0  0  0  0  0  0  0  0  0
   -2.6901   14.6302   -9.9383 H   0  0  0  0  0  0  0  0  0  0  0  0
   -1.8356   15.1840  -11.2148 H   0  0  0  0  0  0  0  0  0  0  0  0
  1  2  1  0  0  0  0
  1  4  2  0  0  0  0
  1 11  1  0  0  0  0
  2  6  2  0  0  0  0
  3  4  1  0  0  0  0
  3  5  1  0  0  0  0
  5  6  1  0  0  0  0
  5  9  2  0  0  0  0
  6  7  1  0  0  0  0
  7  8  2  0  0  0  0
  7 10  1  0  0  0  0
  8  9  1  0  0  0  0
 10 12  1  0  0  0  0
 11 24  2  0  0  0  0
 11 28  1  0  0  0  0
 12 13  2  0  0  0  0
 12 17  1  0  0  0  0
 13 14  1  0  0  0  0
 14 15  2  0  0  0  0
 15 16  1  0  0  0  0
 15 18  1  0  0  0  0
 16 17  2  0  0  0  0
 18 19  2  0  0  0  0
 18 22  1  0  0  0  0
 19 20  1  0  0  0  0
 20 21  1  0  0  0  0
 20 23  1  0  0  0  0
 21 22  2  0  0  0  0
 24 25  1  0  0  0  0
 25 26  2  0  0  0  0
 26 27  1  0  0  0  0
 27 28  2  0  0  0  0
 27 29  1  0  0  0  0
  2 30  1  0  0  0  0
  3 31  1  0  0  0  0
  3 32  1  0  0  0  0
  4 33  1  0  0  0  0
 10 34  1  0  0  0  0
 10 35  1  0  0  0  0
 13 36  1  0  0  0  0
 14 37  1  0  0  0  0
 16 38  1  0  0  0  0
 17 39  1  0  0  0  0
 19 40  1  0  0  0  0
 22 41  1  0  0  0  0
 23 42  1  0  0  0  0
 23 43  1  0  0  0  0
 23 44  1  0  0  0  0
 25 45  1  0  0  0  0
 26 46  1  0  0  0  0
 28 47  1  0  0  0  0
 29 48  1  0  0  0  0
 29 49  1  0  0  0  0
M  END
> <Name>
23

> <IC50[uM]>
0.27

$$$$
23
  -OEChem-05192314333D
 Structure written by MMmdl.
 49 53  0     0  0  0  0  0  0999 V2000
   -6.3775   12.3296  -12.0018 C   0  0  0  0  0  0  0  0  0  0  0  0
   -6.5098   11.7629  -10.7403 C   0  0  0  0  0  0  0  0  0  0  0  0
   -7.7247   10.5660  -13.0266 C   0  0  0  0  0  0  0  0  0  0  0  0
   -6.9942   11.7487  -13.1193 C   0  0  0  0  0  0  0  0  0  0  0  0
   -7.8312   10.0057  -11.7538 C   0  0  0  0  0  0  0  0  0  0  0  0
   -7.2443   10.6021  -10.6070 C   0  0  0  0  0  0  0  0  0  0  0  0
   -7.6167    9.7449   -9.5151 C   0  0  0  0  0  0  0  0  0  0  0  0
   -8.2961    8.7374   -9.9786 N   0  0  0  0  0  0  0  0  0  0  0  0
   -8.4404    8.8724  -11.2937 N   0  0  0  0  0  0  0  0  0  0  0  0
   -7.3318    9.8946   -8.0252 C   0  0  0  0  0  0  0  0  0  0  0  0
   -5.5478   13.5112  -12.1572 C   0  0  0  0  0  0  0  0  0  0  0  0
   -5.9707   10.4870   -7.7351 C   0  0  0  0  0  0  0  0  0  0  0  0
   -5.8642   11.7588   -7.1694 C   0  0  0  0  0  0  0  0  0  0  0  0
   -4.6019   12.3141   -6.9186 C   0  0  0  0  0  0  0  0  0  0  0  0
   -3.4503   11.5963   -7.2357 C   0  0  0  0  0  0  0  0  0  0  0  0
   -3.5604   10.3220   -7.8000 C   0  0  0  0  0  0  0  0  0  0  0  0
   -4.8213    9.7719   -8.0443 C   0  0  0  0  0  0  0  0  0  0  0  0
   -2.0996   12.1710   -6.9757 C   0  0  0  0  0  0  0  0  0  0  0  0
   -1.7487   13.4240   -6.4767 C   0  0  0  0  0  0  0  0  0  0  0  0
   -0.4123   13.4674   -6.4260 N   0  0  0  0  0  0  0  0  0  0  0  0
    0.1713   12.3664   -6.8217 N   0  0  0  0  0  0  0  0  0  0  0  0
   -0.8093   11.5624   -7.1930 C   0  0  0  0  0  0  0  0  0  0  0  0
    0.4224   14.5657   -5.9816 C   0  0  0  0  0  0  0  0  0  0  0  0
   -5.6966   14.2423  -13.2612 N   0  0  0  0  0  0  0  0  0  0  0  0
   -4.9506   15.3153  -13.5405 C   0  0  0  0  0  0  0  0  0  0  0  0
   -3.9383   15.6899  -12.6782 C   0  0  0  0  0  0  0  0  0  0  0  0
   -3.7261   14.9536  -11.5366 C   0  0  0  0  0  0  0  0  0  0  0  0
   -4.5508   13.8769  -11.2437 C   0  0  0  0  0  0  0  0  0  0  0  0
   -2.6976   15.2614  -10.7139 N   0  0  0  0  0  0  0  0  0  0  0  0
   -6.0464   12.2223   -9.8797 H   0  0  0  0  0  0  0  0  0  0  0  0
   -8.1826   10.1089  -13.8914 H   0  0  0  0  0  0  0  0  0  0  0  0
   -6.9001   12.2325  -14.0803 H   0  0  0  0  0  0  0  0  0  0  0  0
   -8.0313    9.6067   -7.2544 H   0  0  0  0  0  0  0  0  0  0  0  0
   -5.9850   10.0375   -6.7313 H   0  0  0  0  0  0  0  0  0  0  0  0
   -6.7563   12.3160   -6.9245 H   0  0  0  0  0  0  0  0  0  0  0  0
   -4.5218   13.2977   -6.4798 H   0  0  0  0  0  0  0  0  0  0  0  0
   -3.4477   12.0425   -8.2411 H   0  0  0  0  0  0  0  0  0  0  0  0
   -2.6703    9.7625   -8.0472 H   0  0  0  0  0  0  0  0  0  0  0  0
   -4.9024    8.7852   -8.4759 H   0  0  0  0  0  0  0  0  0  0  0  0
   -2.4277   14.2118   -6.1857 H   0  0  0  0  0  0  0  0  0  0  0  0
   -0.6637   10.5754   -7.6065 H   0  0  0  0  0  0  0  0  0  0  0  0
    1.4809   14.2752   -6.0543 H   0  0  0  0  0  0  0  0  0  0  0  0
    0.2393   15.4453   -6.6162 H   0  0  0  0  0  0  0  0  0  0  0  0
    0.1804   14.8105   -4.9369 H   0  0  0  0  0  0  0  0  0  0  0  0
   -5.1384   15.8875  -14.4370 H   0  0  0  0  0  0  0  0  0  0  0  0
   -3.3221   16.5493  -12.8978 H   0  0  0  0  0  0  0  0  0  0  0  0
   -4.4255   13.3274  -10.3224 H   0  0  0  0  0  0  0  0  0  0  0  0
   -2.6901   14.6302   -9.9383 H   0  0  0  0  0  0  0  0  0  0  0  0
   -1.8356   15.1840  -11.2148 H   0  0  0  0  0  0  0  0  0  0  0  0
  1  2  2  0  0  0  0
  1  4  1  0  0  0  0
  1 11  1  0  0  0  0
  2  6  1  0  0  0  0
  3  4  2  0  0  0  0
  3  5  1  0  0  0  0
  5  6  2  0  0  0  0
  5  9  1  0  0  0  0
  6  7  1  0  0  0  0
  7  8  1  0  0  0  0
  7 10  2  3  0  0  0
  8  9  2  0  0  0  0
 10 12  1  0  0  0  0
 11 24  2  0  0  0  0
 11 28  1  0  0  0  0
 12 13  1  0  0  0  0
 12 17  1  0  0  0  0
 13 14  2  0  0  0  0
 14 15  1  0  0  0  0
 15 16  1  0  0  0  0
 15 18  1  0  0  0  0
 16 17  2  0  0  0  0
 18 19  2  0  0  0  0
 18 22  1  0  0  0  0
 19 20  1  0  0  0  0
 20 21  1  0  0  0  0
 20 23  1  0  0  0  0
 21 22  2  0  0  0  0
 24 25  1  0  0  0  0
 25 26  2  0  0  0  0
 26 27  1  0  0  0  0
 27 28  2  0  0  0  0
 27 29  1  0  0  0  0
  2 30  1  0  0  0  0
  3 31  1  0  0  0  0
  4 32  1  0  0  0  0
 10 33  1  0  0  0  0
 12 34  1  0  0  0  0
 13 35  1  0  0  0  0
 14 36  1  0  0  0  0
 15 37  1  0  0  0  0
 16 38  1  0  0  0  0
 17 39  1  0  0  0  0
 19 40  1  0  0  0  0
 22 41  1  0  0  0  0
 23 42  1  0  0  0  0
 23 43  1  0  0  0  0
 23 44  1  0  0  0  0
 25 45  1  0  0  0  0
 26 46  1  0  0  0  0
 28 47  1  0  0  0  0
 29 48  1  0  0  0  0
 29 49  1  0  0  0  0
M  END
> <Name>
23

> <IC50[uM]>
0.27

$$$$
23
  -OEChem-05192314333D
 Structure written by MMmdl.
 49 53  0     1  0  0  0  0  0999 V2000
   -6.3775   12.3296  -12.0018 C   0  0  0  0  0  0  0  0  0  0  0  0
   -6.5098   11.7629  -10.7403 C   0  0  0  0  0  0  0  0  0  0  0  0
   -7.7247   10.5660  -13.0266 C   0  0  0  0  0  0  0  0  0  0  0  0
   -6.9942   11.7487  -13.1193 C   0  0  0  0  0  0  0  0  0  0  0  0
   -7.8312   10.0057  -11.7538 C   0  0  0  0  0  0  0  0  0  0  0  0
   -7.2443   10.6021  -10.6070 C   0  0  0  0  0  0  0  0  0  0  0  0
   -7.6167    9.7449   -9.5151 C   0  0  3  0  0  0  0  0  0  0  0  0
   -8.2961    8.7374   -9.9786 N   0  0  0  0  0  0  0  0  0  0  0  0
   -8.4404    8.8724  -11.2937 N   0  0  0  0  0  0  0  0  0  0  0  0
   -7.3318    9.8946   -8.0252 C   0  0  0  0  0  0  0  0  0  0  0  0
   -5.5478   13.5112  -12.1572 C   0  0  0  0  0  0  0  0  0  0  0  0
   -5.9707   10.4870   -7.7351 C   0  0  0  0  0  0  0  0  0  0  0  0
   -5.8642   11.7588   -7.1694 C   0  0  0  0  0  0  0  0  0  0  0  0
   -4.6019   12.3141   -6.9186 C   0  0  0  0  0  0  0  0  0  0  0  0
   -3.4503   11.5963   -7.2357 C   0  0  0  0  0  0  0  0  0  0  0  0
   -3.5604   10.3220   -7.8000 C   0  0  0  0  0  0  0  0  0  0  0  0
   -4.8213    9.7719   -8.0443 C   0  0  0  0  0  0  0  0  0  0  0  0
   -2.0996   12.1710   -6.9757 C   0  0  0  0  0  0  0  0  0  0  0  0
   -1.7487   13.4240   -6.4767 C   0  0  0  0  0  0  0  0  0  0  0  0
   -0.4123   13.4674   -6.4260 N   0  0  0  0  0  0  0  0  0  0  0  0
    0.1713   12.3664   -6.8217 N   0  0  0  0  0  0  0  0  0  0  0  0
   -0.8093   11.5624   -7.1930 C   0  0  0  0  0  0  0  0  0  0  0  0
    0.4224   14.5657   -5.9816 C   0  0  0  0  0  0  0  0  0  0  0  0
   -5.6966   14.2423  -13.2612 N   0  0  0  0  0  0  0  0  0  0  0  0
   -4.9506   15.3153  -13.5405 C   0  0  0  0  0  0  0  0  0  0  0  0
   -3.9383   15.6899  -12.6782 C   0  0  0  0  0  0  0  0  0  0  0  0
   -3.7261   14.9536  -11.5366 C   0  0  0  0  0  0  0  0  0  0  0  0
   -4.5508   13.8769  -11.2437 C   0  0  0  0  0  0  0  0  0  0  0  0
   -2.6976   15.2614  -10.7139 N   0  0  0  0  0  0  0  0  0  0  0  0
   -6.0464   12.2223   -9.8797 H   0  0  0  0  0  0  0  0  0  0  0  0
   -8.1826   10.1089  -13.8914 H   0  0  0  0  0  0  0  0  0  0  0  0
   -6.9001   12.2325  -14.0803 H   0  0  0  0  0  0  0  0  0  0  0  0
   -6.6832    9.1765   -9.6392 H   0  0  0  0  0  0  0  0  0  0  0  0
   -8.0313    9.6067   -7.2544 H   0  0  0  0  0  0  0  0  0  0  0  0
   -6.7563   12.3160   -6.9245 H   0  0  0  0  0  0  0  0  0  0  0  0
   -4.5218   13.2977   -6.4798 H   0  0  0  0  0  0  0  0  0  0  0  0
   -3.4477   12.0425   -8.2411 H   0  0  0  0  0  0  0  0  0  0  0  0
   -2.6703    9.7625   -8.0472 H   0  0  0  0  0  0  0  0  0  0  0  0
   -4.9024    8.7852   -8.4759 H   0  0  0  0  0  0  0  0  0  0  0  0
   -2.4277   14.2118   -6.1857 H   0  0  0  0  0  0  0  0  0  0  0  0
   -0.6637   10.5754   -7.6065 H   0  0  0  0  0  0  0  0  0  0  0  0
    1.4809   14.2752   -6.0543 H   0  0  0  0  0  0  0  0  0  0  0  0
    0.2393   15.4453   -6.6162 H   0  0  0  0  0  0  0  0  0  0  0  0
    0.1804   14.8105   -4.9369 H   0  0  0  0  0  0  0  0  0  0  0  0
   -5.1384   15.8875  -14.4370 H   0  0  0  0  0  0  0  0  0  0  0  0
   -3.3221   16.5493  -12.8978 H   0  0  0  0  0  0  0  0  0  0  0  0
   -4.4255   13.3274  -10.3224 H   0  0  0  0  0  0  0  0  0  0  0  0
   -2.6901   14.6302   -9.9383 H   0  0  0  0  0  0  0  0  0  0  0  0
   -1.8356   15.1840  -11.2148 H   0  0  0  0  0  0  0  0  0  0  0  0
  1  2  2  0  0  0  0
  1  4  1  0  0  0  0
  1 11  1  0  0  0  0
  2  6  1  0  0  0  0
  3  4  2  0  0  0  0
  3  5  1  0  0  0  0
  5  6  2  0  0  0  0
  5  9  1  0  0  0  0
  6  7  1  0  0  0  0
  7  8  1  0  0  0  0
  7 10  1  0  0  0  0
  8  9  2  0  0  0  0
 10 12  2  0  0  0  0
 11 24  2  0  0  0  0
 11 28  1  0  0  0  0
 12 13  1  0  0  0  0
 12 17  1  0  0  0  0
 13 14  2  0  0  0  0
 14 15  1  0  0  0  0
 15 16  1  0  0  0  0
 15 18  1  0  0  0  0
 16 17  2  0  0  0  0
 18 19  2  0  0  0  0
 18 22  1  0  0  0  0
 19 20  1  0  0  0  0
 20 21  1  0  0  0  0
 20 23  1  0  0  0  0
 21 22  2  0  0  0  0
 24 25  1  0  0  0  0
 25 26  2  0  0  0  0
 26 27  1  0  0  0  0
 27 28  2  0  0  0  0
 27 29  1  0  0  0  0
  2 30  1  0  0  0  0
  3 31  1  0  0  0  0
  4 32  1  0  0  0  0
  7 33  1  0  0  0  0
 10 34  1  0  0  0  0
 13 35  1  0  0  0  0
 14 36  1  0  0  0  0
 15 37  1  0  0  0  0
 16 38  1  0  0  0  0
 17 39  1  0  0  0  0
 19 40  1  0  0  0  0
 22 41  1  0  0  0  0
 23 42  1  0  0  0  0
 23 43  1  0  0  0  0
 23 44  1  0  0  0  0
 25 45  1  0  0  0  0
 26 46  1  0  0  0  0
 28 47  1  0  0  0  0
 29 48  1  0  0  0  0
 29 49  1  0  0  0  0
M  END
> <Name>
23

> <IC50[uM]>
0.27

$$$$
23
  -OEChem-05192314333D
 Structure written by MMmdl.
 49 53  0     1  0  0  0  0  0999 V2000
   -6.3775   12.3296  -12.0018 C   0  0  3  0  0  0  0  0  0  0  0  0
   -6.5098   11.7629  -10.7403 C   0  0  0  0  0  0  0  0  0  0  0  0
   -7.7247   10.5660  -13.0266 C   0  0  0  0  0  0  0  0  0  0  0  0
   -6.9942   11.7487  -13.1193 C   0  0  0  0  0  0  0  0  0  0  0  0
   -7.8312   10.0057  -11.7538 C   0  0  3  0  0  0  0  0  0  0  0  0
   -7.2443   10.6021  -10.6070 C   0  0  0  0  0  0  0  0  0  0  0  0
   -7.6167    9.7449   -9.5151 C   0  0  0  0  0  0  0  0  0  0  0  0
   -8.2961    8.7374   -9.9786 N   0  0  0  0  0  0  0  0  0  0  0  0
   -8.4404    8.8724  -11.2937 N   0  0  0  0  0  0  0  0  0  0  0  0
   -7.3318    9.8946   -8.0252 C   0  0  0  0  0  0  0  0  0  0  0  0
   -5.5478   13.5112  -12.1572 C   0  0  0  0  0  0  0  0  0  0  0  0
   -5.9707   10.4870   -7.7351 C   0  0  0  0  0  0  0  0  0  0  0  0
   -5.8642   11.7588   -7.1694 C   0  0  0  0  0  0  0  0  0  0  0  0
   -4.6019   12.3141   -6.9186 C   0  0  0  0  0  0  0  0  0  0  0  0
   -3.4503   11.5963   -7.2357 C   0  0  0  0  0  0  0  0  0  0  0  0
   -3.5604   10.3220   -7.8000 C   0  0  0  0  0  0  0  0  0  0  0  0
   -4.8213    9.7719   -8.0443 C   0  0  0  0  0  0  0  0  0  0  0  0
   -2.0996   12.1710   -6.9757 C   0  0  0  0  0  0  0  0  0  0  0  0
   -1.7487   13.4240   -6.4767 C   0  0  0  0  0  0  0  0  0  0  0  0
   -0.4123   13.4674   -6.4260 N   0  0  0  0  0  0  0  0  0  0  0  0
    0.1713   12.3664   -6.8217 N   0  0  0  0  0  0  0  0  0  0  0  0
   -0.8093   11.5624   -7.1930 C   0  0  0  0  0  0  0  0  0  0  0  0
    0.4224   14.5657   -5.9816 C   0  0  0  0  0  0  0  0  0  0  0  0
   -5.6966   14.2423  -13.2612 N   0  0  0  0  0  0  0  0  0  0  0  0
   -4.9506   15.3153  -13.5405 C   0  0  0  0  0  0  0  0  0  0  0  0
   -3.9383   15.6899  -12.6782 C   0  0  0  0  0  0  0  0  0  0  0  0
   -3.7261   14.9536  -11.5366 C   0  0  0  0  0  0  0  0  0  0  0  0
   -4.5508   13.8769  -11.2437 C   0  0  0  0  0  0  0  0  0  0  0  0
   -2.6976   15.2614  -10.7139 N   0  0  0  0  0  0  0  0  0  0  0  0
   -7.2621   12.9592  -11.8254 H   0  0  0  0  0  0  0  0  0  0  0  0
   -6.0464   12.2223   -9.8797 H   0  0  0  0  0  0  0  0  0  0  0  0
   -8.1826   10.1089  -13.8914 H   0  0  0  0  0  0  0  0  0  0  0  0
   -6.9001   12.2325  -14.0803 H   0  0  0  0  0  0  0  0  0  0  0  0
   -8.7557   10.5755  -11.5787 H   0  0  0  0  0  0  0  0  0  0  0  0
   -8.0313    9.6067   -7.2544 H   0  0  0  0  0  0  0  0  0  0  0  0
   -6.7563   12.3160   -6.9245 H   0  0  0  0  0  0  0  0  0  0  0  0
   -4.5218   13.2977   -6.4798 H   0  0  0  0  0  0  0  0  0  0  0  0
   -2.6703    9.7625   -8.0472 H   0  0  0  0  0  0  0  0  0  0  0  0
   -4.9024    8.7852   -8.4759 H   0  0  0  0  0  0  0  0  0  0  0  0
   -2.4277   14.2118   -6.1857 H   0  0  0  0  0  0  0  0  0  0  0  0
   -0.6637   10.5754   -7.6065 H   0  0  0  0  0  0  0  0  0  0  0  0
    1.4809   14.2752   -6.0543 H   0  0  0  0  0  0  0  0  0  0  0  0
    0.2393   15.4453   -6.6162 H   0  0  0  0  0  0  0  0  0  0  0  0
    0.1804   14.8105   -4.9369 H   0  0  0  0  0  0  0  0  0  0  0  0
   -5.1384   15.8875  -14.4370 H   0  0  0  0  0  0  0  0  0  0  0  0
   -3.3221   16.5493  -12.8978 H   0  0  0  0  0  0  0  0  0  0  0  0
   -4.4255   13.3274  -10.3224 H   0  0  0  0  0  0  0  0  0  0  0  0
   -2.6901   14.6302   -9.9383 H   0  0  0  0  0  0  0  0  0  0  0  0
   -1.8356   15.1840  -11.2148 H   0  0  0  0  0  0  0  0  0  0  0  0
  1  2  1  0  0  0  0
  1  4  1  0  0  0  0
  1 11  1  0  0  0  0
  2  6  2  0  0  0  0
  3  4  2  0  0  0  0
  3  5  1  0  0  0  0
  5  6  1  0  0  0  0
  5  9  1  0  0  0  0
  6  7  1  0  0  0  0
  7  8  1  0  0  0  0
  7 10  2  3  0  0  0
  8  9  2  0  0  0  0
 10 12  1  0  0  0  0
 11 24  2  0  0  0  0
 11 28  1  0  0  0  0
 12 13  2  0  0  0  0
 12 17  1  0  0  0  0
 13 14  1  0  0  0  0
 14 15  2  0  0  0  0
 15 16  1  0  0  0  0
 15 18  1  0  0  0  0
 16 17  2  0  0  0  0
 18 19  2  0  0  0  0
 18 22  1  0  0  0  0
 19 20  1  0  0  0  0
 20 21  1  0  0  0  0
 20 23  1  0  0  0  0
 21 22  2  0  0  0  0
 24 25  1  0  0  0  0
 25 26  2  0  0  0  0
 26 27  1  0  0  0  0
 27 28  2  0  0  0  0
 27 29  1  0  0  0  0
  1 30  1  0  0  0  0
  2 31  1  0  0  0  0
  3 32  1  0  0  0  0
  4 33  1  0  0  0  0
  5 34  1  0  0  0  0
 10 35  1  0  0  0  0
 13 36  1  0  0  0  0
 14 37  1  0  0  0  0
 16 38  1  0  0  0  0
 17 39  1  0  0  0  0
 19 40  1  0  0  0  0
 22 41  1  0  0  0  0
 23 42  1  0  0  0  0
 23 43  1  0  0  0  0
 23 44  1  0  0  0  0
 25 45  1  0  0  0  0
 26 46  1  0  0  0  0
 28 47  1  0  0  0  0
 29 48  1  0  0  0  0
 29 49  1  0  0  0  0
M  END
> <Name>
23

> <IC50[uM]>
0.27

$$$$
23
  -OEChem-05192314333D
 Structure written by MMmdl.
 49 53  0     1  0  0  0  0  0999 V2000
   -6.3775   12.3296  -12.0018 C   0  0  0  0  0  0  0  0  0  0  0  0
   -6.5098   11.7629  -10.7403 C   0  0  0  0  0  0  0  0  0  0  0  0
   -7.7247   10.5660  -13.0266 C   0  0  0  0  0  0  0  0  0  0  0  0
   -6.9942   11.7487  -13.1193 C   0  0  0  0  0  0  0  0  0  0  0  0
   -7.8312   10.0057  -11.7538 C   0  0  3  0  0  0  0  0  0  0  0  0
   -7.2443   10.6021  -10.6070 C   0  0  3  0  0  0  0  0  0  0  0  0
   -7.6167    9.7449   -9.5151 C   0  0  0  0  0  0  0  0  0  0  0  0
   -8.2961    8.7374   -9.9786 N   0  0  0  0  0  0  0  0  0  0  0  0
   -8.4404    8.8724  -11.2937 N   0  0  0  0  0  0  0  0  0  0  0  0
   -7.3318    9.8946   -8.0252 C   0  0  0  0  0  0  0  0  0  0  0  0
   -5.5478   13.5112  -12.1572 C   0  0  0  0  0  0  0  0  0  0  0  0
   -5.9707   10.4870   -7.7351 C   0  0  0  0  0  0  0  0  0  0  0  0
   -5.8642   11.7588   -7.1694 C   0  0  0  0  0  0  0  0  0  0  0  0
   -4.6019   12.3141   -6.9186 C   0  0  0  0  0  0  0  0  0  0  0  0
   -3.4503   11.5963   -7.2357 C   0  0  0  0  0  0  0  0  0  0  0  0
   -3.5604   10.3220   -7.8000 C   0  0  0  0  0  0  0  0  0  0  0  0
   -4.8213    9.7719   -8.0443 C   0  0  0  0  0  0  0  0  0  0  0  0
   -2.0996   12.1710   -6.9757 C   0  0  0  0  0  0  0  0  0  0  0  0
   -1.7487   13.4240   -6.4767 C   0  0  0  0  0  0  0  0  0  0  0  0
   -0.4123   13.4674   -6.4260 N   0  0  0  0  0  0  0  0  0  0  0  0
    0.1713   12.3664   -6.8217 N   0  0  0  0  0  0  0  0  0  0  0  0
   -0.8093   11.5624   -7.1930 C   0  0  0  0  0  0  0  0  0  0  0  0
    0.4224   14.5657   -5.9816 C   0  0  0  0  0  0  0  0  0  0  0  0
   -5.6966   14.2423  -13.2612 N   0  0  0  0  0  0  0  0  0  0  0  0
   -4.9506   15.3153  -13.5405 C   0  0  0  0  0  0  0  0  0  0  0  0
   -3.9383   15.6899  -12.6782 C   0  0  0  0  0  0  0  0  0  0  0  0
   -3.7261   14.9536  -11.5366 C   0  0  0  0  0  0  0  0  0  0  0  0
   -4.5508   13.8769  -11.2437 C   0  0  0  0  0  0  0  0  0  0  0  0
   -2.6976   15.2614  -10.7139 N   0  0  0  0  0  0  0  0  0  0  0  0
   -6.0464   12.2223   -9.8797 H   0  0  0  0  0  0  0  0  0  0  0  0
   -8.1826   10.1089  -13.8914 H   0  0  0  0  0  0  0  0  0  0  0  0
   -6.9001   12.2325  -14.0803 H   0  0  0  0  0  0  0  0  0  0  0  0
   -8.7557   10.5755  -11.5787 H   0  0  0  0  0  0  0  0  0  0  0  0
   -6.3326   10.0069  -10.7637 H   0  0  0  0  0  0  0  0  0  0  0  0
   -8.0313    9.6067   -7.2544 H   0  0  0  0  0  0  0  0  0  0  0  0
   -6.7563   12.3160   -6.9245 H   0  0  0  0  0  0  0  0  0  0  0  0
   -4.5218   13.2977   -6.4798 H   0  0  0  0  0  0  0  0  0  0  0  0
   -2.6703    9.7625   -8.0472 H   0  0  0  0  0  0  0  0  0  0  0  0
   -4.9024    8.7852   -8.4759 H   0  0  0  0  0  0  0  0  0  0  0  0
   -2.4277   14.2118   -6.1857 H   0  0  0  0  0  0  0  0  0  0  0  0
   -0.6637   10.5754   -7.6065 H   0  0  0  0  0  0  0  0  0  0  0  0
    1.4809   14.2752   -6.0543 H   0  0  0  0  0  0  0  0  0  0  0  0
    0.2393   15.4453   -6.6162 H   0  0  0  0  0  0  0  0  0  0  0  0
    0.1804   14.8105   -4.9369 H   0  0  0  0  0  0  0  0  0  0  0  0
   -5.1384   15.8875  -14.4370 H   0  0  0  0  0  0  0  0  0  0  0  0
   -3.3221   16.5493  -12.8978 H   0  0  0  0  0  0  0  0  0  0  0  0
   -4.4255   13.3274  -10.3224 H   0  0  0  0  0  0  0  0  0  0  0  0
   -2.6901   14.6302   -9.9383 H   0  0  0  0  0  0  0  0  0  0  0  0
   -1.8356   15.1840  -11.2148 H   0  0  0  0  0  0  0  0  0  0  0  0
  1  2  2  0  0  0  0
  1  4  1  0  0  0  0
  1 11  1  0  0  0  0
  2  6  1  0  0  0  0
  3  4  2  0  0  0  0
  3  5  1  0  0  0  0
  5  6  1  0  0  0  0
  5  9  1  0  0  0  0
  6  7  1  0  0  0  0
  7  8  1  0  0  0  0
  7 10  2  3  0  0  0
  8  9  2  0  0  0  0
 10 12  1  0  0  0  0
 11 24  2  0  0  0  0
 11 28  1  0  0  0  0
 12 13  2  0  0  0  0
 12 17  1  0  0  0  0
 13 14  1  0  0  0  0
 14 15  2  0  0  0  0
 15 16  1  0  0  0  0
 15 18  1  0  0  0  0
 16 17  2  0  0  0  0
 18 19  2  0  0  0  0
 18 22  1  0  0  0  0
 19 20  1  0  0  0  0
 20 21  1  0  0  0  0
 20 23  1  0  0  0  0
 21 22  2  0  0  0  0
 24 25  1  0  0  0  0
 25 26  2  0  0  0  0
 26 27  1  0  0  0  0
 27 28  2  0  0  0  0
 27 29  1  0  0  0  0
  2 30  1  0  0  0  0
  3 31  1  0  0  0  0
  4 32  1  0  0  0  0
  5 33  1  0  0  0  0
  6 34  1  0  0  0  0
 10 35  1  0  0  0  0
 13 36  1  0  0  0  0
 14 37  1  0  0  0  0
 16 38  1  0  0  0  0
 17 39  1  0  0  0  0
 19 40  1  0  0  0  0
 22 41  1  0  0  0  0
 23 42  1  0  0  0  0
 23 43  1  0  0  0  0
 23 44  1  0  0  0  0
 25 45  1  0  0  0  0
 26 46  1  0  0  0  0
 28 47  1  0  0  0  0
 29 48  1  0  0  0  0
 29 49  1  0  0  0  0
M  END
> <Name>
23

> <IC50[uM]>
0.27

$$$$
23
  -OEChem-05192314333D
 Structure written by MMmdl.
 49 53  0     1  0  0  0  0  0999 V2000
   -6.3775   12.3296  -12.0018 C   0  0  0  0  0  0  0  0  0  0  0  0
   -6.5098   11.7629  -10.7403 C   0  0  0  0  0  0  0  0  0  0  0  0
   -7.7247   10.5660  -13.0266 C   0  0  0  0  0  0  0  0  0  0  0  0
   -6.9942   11.7487  -13.1193 C   0  0  0  0  0  0  0  0  0  0  0  0
   -7.8312   10.0057  -11.7538 C   0  0  3  0  0  0  0  0  0  0  0  0
   -7.2443   10.6021  -10.6070 C   0  0  0  0  0  0  0  0  0  0  0  0
   -7.6167    9.7449   -9.5151 C   0  0  0  0  0  0  0  0  0  0  0  0
   -8.2961    8.7374   -9.9786 N   0  0  0  0  0  0  0  0  0  0  0  0
   -8.4404    8.8724  -11.2937 N   0  0  0  0  0  0  0  0  0  0  0  0
   -7.3318    9.8946   -8.0252 C   0  0  0  0  0  0  0  0  0  0  0  0
   -5.5478   13.5112  -12.1572 C   0  0  0  0  0  0  0  0  0  0  0  0
   -5.9707   10.4870   -7.7351 C   0  0  0  0  0  0  0  0  0  0  0  0
   -5.8642   11.7588   -7.1694 C   0  0  0  0  0  0  0  0  0  0  0  0
   -4.6019   12.3141   -6.9186 C   0  0  0  0  0  0  0  0  0  0  0  0
   -3.4503   11.5963   -7.2357 C   0  0  0  0  0  0  0  0  0  0  0  0
   -3.5604   10.3220   -7.8000 C   0  0  0  0  0  0  0  0  0  0  0  0
   -4.8213    9.7719   -8.0443 C   0  0  0  0  0  0  0  0  0  0  0  0
   -2.0996   12.1710   -6.9757 C   0  0  0  0  0  0  0  0  0  0  0  0
   -1.7487   13.4240   -6.4767 C   0  0  0  0  0  0  0  0  0  0  0  0
   -0.4123   13.4674   -6.4260 N   0  0  0  0  0  0  0  0  0  0  0  0
    0.1713   12.3664   -6.8217 N   0  0  0  0  0  0  0  0  0  0  0  0
   -0.8093   11.5624   -7.1930 C   0  0  0  0  0  0  0  0  0  0  0  0
    0.4224   14.5657   -5.9816 C   0  0  0  0  0  0  0  0  0  0  0  0
   -5.6966   14.2423  -13.2612 N   0  0  0  0  0  0  0  0  0  0  0  0
   -4.9506   15.3153  -13.5405 C   0  0  0  0  0  0  0  0  0  0  0  0
   -3.9383   15.6899  -12.6782 C   0  0  0  0  0  0  0  0  0  0  0  0
   -3.7261   14.9536  -11.5366 C   0  0  0  0  0  0  0  0  0  0  0  0
   -4.5508   13.8769  -11.2437 C   0  0  0  0  0  0  0  0  0  0  0  0
   -2.6976   15.2614  -10.7139 N   0  0  0  0  0  0  0  0  0  0  0  0
   -6.0464   12.2223   -9.8797 H   0  0  0  0  0  0  0  0  0  0  0  0
   -8.7428   10.7712  -13.3891 H   0  0  0  0  0  0  0  0  0  0  0  0
   -7.2451    9.8233  -13.6811 H   0  0  0  0  0  0  0  0  0  0  0  0
   -6.9001   12.2325  -14.0803 H   0  0  0  0  0  0  0  0  0  0  0  0
   -8.7557   10.5755  -11.5787 H   0  0  0  0  0  0  0  0  0  0  0  0
   -8.0313    9.6067   -7.2544 H   0  0  0  0  0  0  0  0  0  0  0  0
   -6.7563   12.3160   -6.9245 H   0  0  0  0  0  0  0  0  0  0  0  0
   -4.5218   13.2977   -6.4798 H   0  0  0  0  0  0  0  0  0  0  0  0
   -2.6703    9.7625   -8.0472 H   0  0  0  0  0  0  0  0  0  0  0  0
   -4.9024    8.7852   -8.4759 H   0  0  0  0  0  0  0  0  0  0  0  0
   -2.4277   14.2118   -6.1857 H   0  0  0  0  0  0  0  0  0  0  0  0
   -0.6637   10.5754   -7.6065 H   0  0  0  0  0  0  0  0  0  0  0  0
    1.4809   14.2752   -6.0543 H   0  0  0  0  0  0  0  0  0  0  0  0
    0.2393   15.4453   -6.6162 H   0  0  0  0  0  0  0  0  0  0  0  0
    0.1804   14.8105   -4.9369 H   0  0  0  0  0  0  0  0  0  0  0  0
   -5.1384   15.8875  -14.4370 H   0  0  0  0  0  0  0  0  0  0  0  0
   -3.3221   16.5493  -12.8978 H   0  0  0  0  0  0  0  0  0  0  0  0
   -4.4255   13.3274  -10.3224 H   0  0  0  0  0  0  0  0  0  0  0  0
   -2.6901   14.6302   -9.9383 H   0  0  0  0  0  0  0  0  0  0  0  0
   -1.8356   15.1840  -11.2148 H   0  0  0  0  0  0  0  0  0  0  0  0
  1  2  1  0  0  0  0
  1  4  2  0  0  0  0
  1 11  1  0  0  0  0
  2  6  2  0  0  0  0
  3  4  1  0  0  0  0
  3  5  1  0  0  0  0
  5  6  1  0  0  0  0
  5  9  1  0  0  0  0
  6  7  1  0  0  0  0
  7  8  1  0  0  0  0
  7 10  2  3  0  0  0
  8  9  2  0  0  0  0
 10 12  1  0  0  0  0
 11 24  2  0  0  0  0
 11 28  1  0  0  0  0
 12 13  2  0  0  0  0
 12 17  1  0  0  0  0
 13 14  1  0  0  0  0
 14 15  2  0  0  0  0
 15 16  1  0  0  0  0
 15 18  1  0  0  0  0
 16 17  2  0  0  0  0
 18 19  2  0  0  0  0
 18 22  1  0  0  0  0
 19 20  1  0  0  0  0
 20 21  1  0  0  0  0
 20 23  1  0  0  0  0
 21 22  2  0  0  0  0
 24 25  1  0  0  0  0
 25 26  2  0  0  0  0
 26 27  1  0  0  0  0
 27 28  2  0  0  0  0
 27 29  1  0  0  0  0
  2 30  1  0  0  0  0
  3 31  1  0  0  0  0
  3 32  1  0  0  0  0
  4 33  1  0  0  0  0
  5 34  1  0  0  0  0
 10 35  1  0  0  0  0
 13 36  1  0  0  0  0
 14 37  1  0  0  0  0
 16 38  1  0  0  0  0
 17 39  1  0  0  0  0
 19 40  1  0  0  0  0
 22 41  1  0  0  0  0
 23 42  1  0  0  0  0
 23 43  1  0  0  0  0
 23 44  1  0  0  0  0
 25 45  1  0  0  0  0
 26 46  1  0  0  0  0
 28 47  1  0  0  0  0
 29 48  1  0  0  0  0
 29 49  1  0  0  0  0
M  END
> <Name>
23

> <IC50[uM]>
0.27

$$$$
23
  -OEChem-05192314333D
 Structure written by MMmdl.
 49 53  0     1  0  0  0  0  0999 V2000
   -6.3775   12.3296  -12.0018 C   0  0  0  0  0  0  0  0  0  0  0  0
   -6.5098   11.7629  -10.7403 C   0  0  0  0  0  0  0  0  0  0  0  0
   -7.7247   10.5660  -13.0266 C   0  0  0  0  0  0  0  0  0  0  0  0
   -6.9942   11.7487  -13.1193 C   0  0  0  0  0  0  0  0  0  0  0  0
   -7.8312   10.0057  -11.7538 C   0  0  0  0  0  0  0  0  0  0  0  0
   -7.2443   10.6021  -10.6070 C   0  0  0  0  0  0  0  0  0  0  0  0
   -7.6167    9.7449   -9.5151 C   0  0  0  0  0  0  0  0  0  0  0  0
   -8.2961    8.7374   -9.9786 N   0  0  0  0  0  0  0  0  0  0  0  0
   -8.4404    8.8724  -11.2937 N   0  0  0  0  0  0  0  0  0  0  0  0
   -7.3318    9.8946   -8.0252 C   0  0  0  0  0  0  0  0  0  0  0  0
   -5.5478   13.5112  -12.1572 C   0  0  0  0  0  0  0  0  0  0  0  0
   -5.9707   10.4870   -7.7351 C   0  0  0  0  0  0  0  0  0  0  0  0
   -5.8642   11.7588   -7.1694 C   0  0  0  0  0  0  0  0  0  0  0  0
   -4.6019   12.3141   -6.9186 C   0  0  0  0  0  0  0  0  0  0  0  0
   -3.4503   11.5963   -7.2357 C   0  0  3  0  0  0  0  0  0  0  0  0
   -3.5604   10.3220   -7.8000 C   0  0  0  0  0  0  0  0  0  0  0  0
   -4.8213    9.7719   -8.0443 C   0  0  0  0  0  0  0  0  0  0  0  0
   -2.0996   12.1710   -6.9757 C   0  0  0  0  0  0  0  0  0  0  0  0
   -1.7487   13.4240   -6.4767 C   0  0  0  0  0  0  0  0  0  0  0  0
   -0.4123   13.4674   -6.4260 N   0  0  0  0  0  0  0  0  0  0  0  0
    0.1713   12.3664   -6.8217 N   0  0  0  0  0  0  0  0  0  0  0  0
   -0.8093   11.5624   -7.1930 C   0  0  0  0  0  0  0  0  0  0  0  0
    0.4224   14.5657   -5.9816 C   0  0  0  0  0  0  0  0  0  0  0  0
   -5.6966   14.2423  -13.2612 N   0  0  0  0  0  0  0  0  0  0  0  0
   -4.9506   15.3153  -13.5405 C   0  0  0  0  0  0  0  0  0  0  0  0
   -3.9383   15.6899  -12.6782 C   0  0  0  0  0  0  0  0  0  0  0  0
   -3.7261   14.9536  -11.5366 C   0  0  0  0  0  0  0  0  0  0  0  0
   -4.5508   13.8769  -11.2437 C   0  0  0  0  0  0  0  0  0  0  0  0
   -2.6976   15.2614  -10.7139 N   0  0  0  0  0  0  0  0  0  0  0  0
   -6.0464   12.2223   -9.8797 H   0  0  0  0  0  0  0  0  0  0  0  0
   -8.1826   10.1089  -13.8914 H   0  0  0  0  0  0  0  0  0  0  0  0
   -6.9001   12.2325  -14.0803 H   0  0  0  0  0  0  0  0  0  0  0  0
   -8.0313    9.6067   -7.2544 H   0  0  0  0  0  0  0  0  0  0  0  0
   -6.7563   12.3160   -6.9245 H   0  0  0  0  0  0  0  0  0  0  0  0
   -4.5527   13.2582   -7.4809 H   0  0  0  0  0  0  0  0  0  0  0  0
   -4.5569   12.5268   -5.8403 H   0  0  0  0  0  0  0  0  0  0  0  0
   -3.4477   12.0425   -8.2411 H   0  0  0  0  0  0  0  0  0  0  0  0
   -2.6703    9.7625   -8.0472 H   0  0  0  0  0  0  0  0  0  0  0  0
   -4.9024    8.7852   -8.4759 H   0  0  0  0  0  0  0  0  0  0  0  0
   -2.4277   14.2118   -6.1857 H   0  0  0  0  0  0  0  0  0  0  0  0
   -0.6637   10.5754   -7.6065 H   0  0  0  0  0  0  0  0  0  0  0  0
    1.4809   14.2752   -6.0543 H   0  0  0  0  0  0  0  0  0  0  0  0
    0.2393   15.4453   -6.6162 H   0  0  0  0  0  0  0  0  0  0  0  0
    0.1804   14.8105   -4.9369 H   0  0  0  0  0  0  0  0  0  0  0  0
   -5.1384   15.8875  -14.4370 H   0  0  0  0  0  0  0  0  0  0  0  0
   -3.3221   16.5493  -12.8978 H   0  0  0  0  0  0  0  0  0  0  0  0
   -4.4255   13.3274  -10.3224 H   0  0  0  0  0  0  0  0  0  0  0  0
   -2.6901   14.6302   -9.9383 H   0  0  0  0  0  0  0  0  0  0  0  0
   -1.8356   15.1840  -11.2148 H   0  0  0  0  0  0  0  0  0  0  0  0
  1  2  2  0  0  0  0
  1  4  1  0  0  0  0
  1 11  1  0  0  0  0
  2  6  1  0  0  0  0
  3  4  2  0  0  0  0
  3  5  1  0  0  0  0
  5  6  2  0  0  0  0
  5  9  1  0  0  0  0
  6  7  1  0  0  0  0
  7  8  1  0  0  0  0
  7 10  2  3  0  0  0
  8  9  2  0  0  0  0
 10 12  1  0  0  0  0
 11 24  2  0  0  0  0
 11 28  1  0  0  0  0
 12 13  2  0  0  0  0
 12 17  1  0  0  0  0
 13 14  1  0  0  0  0
 14 15  1  0  0  0  0
 15 16  1  0  0  0  0
 15 18  1  0  0  0  0
 16 17  2  0  0  0  0
 18 19  2  0  0  0  0
 18 22  1  0  0  0  0
 19 20  1  0  0  0  0
 20 21  1  0  0  0  0
 20 23  1  0  0  0  0
 21 22  2  0  0  0  0
 24 25  1  0  0  0  0
 25 26  2  0  0  0  0
 26 27  1  0  0  0  0
 27 28  2  0  0  0  0
 27 29  1  0  0  0  0
  2 30  1  0  0  0  0
  3 31  1  0  0  0  0
  4 32  1  0  0  0  0
 10 33  1  0  0  0  0
 13 34  1  0  0  0  0
 14 35  1  0  0  0  0
 14 36  1  0  0  0  0
 15 37  1  0  0  0  0
 16 38  1  0  0  0  0
 17 39  1  0  0  0  0
 19 40  1  0  0  0  0
 22 41  1  0  0  0  0
 23 42  1  0  0  0  0
 23 43  1  0  0  0  0
 23 44  1  0  0  0  0
 25 45  1  0  0  0  0
 26 46  1  0  0  0  0
 28 47  1  0  0  0  0
 29 48  1  0  0  0  0
 29 49  1  0  0  0  0
M  END
> <Name>
23

> <IC50[uM]>
0.27

$$$$
23
  -OEChem-05192314333D
 Structure written by MMmdl.
 49 53  0     1  0  0  0  0  0999 V2000
   -6.3775   12.3296  -12.0018 C   0  0  3  0  0  0  0  0  0  0  0  0
   -6.5098   11.7629  -10.7403 C   0  0  0  0  0  0  0  0  0  0  0  0
   -7.7247   10.5660  -13.0266 C   0  0  0  0  0  0  0  0  0  0  0  0
   -6.9942   11.7487  -13.1193 C   0  0  0  0  0  0  0  0  0  0  0  0
   -7.8312   10.0057  -11.7538 C   0  0  0  0  0  0  0  0  0  0  0  0
   -7.2443   10.6021  -10.6070 C   0  0  0  0  0  0  0  0  0  0  0  0
   -7.6167    9.7449   -9.5151 C   0  0  0  0  0  0  0  0  0  0  0  0
   -8.2961    8.7374   -9.9786 N   0  0  0  0  0  0  0  0  0  0  0  0
   -8.4404    8.8724  -11.2937 N   0  0  0  0  0  0  0  0  0  0  0  0
   -7.3318    9.8946   -8.0252 C   0  0  0  0  0  0  0  0  0  0  0  0
   -5.5478   13.5112  -12.1572 C   0  0  0  0  0  0  0  0  0  0  0  0
   -5.9707   10.4870   -7.7351 C   0  0  0  0  0  0  0  0  0  0  0  0
   -5.8642   11.7588   -7.1694 C   0  0  0  0  0  0  0  0  0  0  0  0
   -4.6019   12.3141   -6.9186 C   0  0  0  0  0  0  0  0  0  0  0  0
   -3.4503   11.5963   -7.2357 C   0  0  0  0  0  0  0  0  0  0  0  0
   -3.5604   10.3220   -7.8000 C   0  0  0  0  0  0  0  0  0  0  0  0
   -4.8213    9.7719   -8.0443 C   0  0  0  0  0  0  0  0  0  0  0  0
   -2.0996   12.1710   -6.9757 C   0  0  0  0  0  0  0  0  0  0  0  0
   -1.7487   13.4240   -6.4767 C   0  0  0  0  0  0  0  0  0  0  0  0
   -0.4123   13.4674   -6.4260 N   0  0  0  0  0  0  0  0  0  0  0  0
    0.1713   12.3664   -6.8217 N   0  0  0  0  0  0  0  0  0  0  0  0
   -0.8093   11.5624   -7.1930 C   0  0  0  0  0  0  0  0  0  0  0  0
    0.4224   14.5657   -5.9816 C   0  0  0  0  0  0  0  0  0  0  0  0
   -5.6966   14.2423  -13.2612 N   0  0  0  0  0  0  0  0  0  0  0  0
   -4.9506   15.3153  -13.5405 C   0  0  0  0  0  0  0  0  0  0  0  0
   -3.9383   15.6899  -12.6782 C   0  0  0  0  0  0  0  0  0  0  0  0
   -3.7261   14.9536  -11.5366 C   0  0  0  0  0  0  0  0  0  0  0  0
   -4.5508   13.8769  -11.2437 C   0  0  0  0  0  0  0  0  0  0  0  0
   -2.6976   15.2614  -10.7139 N   0  0  0  0  0  0  0  0  0  0  0  0
   -7.2621   12.9592  -11.8254 H   0  0  0  0  0  0  0  0  0  0  0  0
   -6.0464   12.2223   -9.8797 H   0  0  0  0  0  0  0  0  0  0  0  0
   -8.1826   10.1089  -13.8914 H   0  0  0  0  0  0  0  0  0  0  0  0
   -7.6841   12.5064  -13.5191 H   0  0  0  0  0  0  0  0  0  0  0  0
   -6.1936   11.5599  -13.8497 H   0  0  0  0  0  0  0  0  0  0  0  0
   -8.0313    9.6067   -7.2544 H   0  0  0  0  0  0  0  0  0  0  0  0
   -6.7563   12.3160   -6.9245 H   0  0  0  0  0  0  0  0  0  0  0  0
   -4.5218   13.2977   -6.4798 H   0  0  0  0  0  0  0  0  0  0  0  0
   -2.6703    9.7625   -8.0472 H   0  0  0  0  0  0  0  0  0  0  0  0
   -4.9024    8.7852   -8.4759 H   0  0  0  0  0  0  0  0  0  0  0  0
   -2.4277   14.2118   -6.1857 H   0  0  0  0  0  0  0  0  0  0  0  0
   -0.6637   10.5754   -7.6065 H   0  0  0  0  0  0  0  0  0  0  0  0
    1.4809   14.2752   -6.0543 H   0  0  0  0  0  0  0  0  0  0  0  0
    0.2393   15.4453   -6.6162 H   0  0  0  0  0  0  0  0  0  0  0  0
    0.1804   14.8105   -4.9369 H   0  0  0  0  0  0  0  0  0  0  0  0
   -5.1384   15.8875  -14.4370 H   0  0  0  0  0  0  0  0  0  0  0  0
   -3.3221   16.5493  -12.8978 H   0  0  0  0  0  0  0  0  0  0  0  0
   -4.4255   13.3274  -10.3224 H   0  0  0  0  0  0  0  0  0  0  0  0
   -2.6901   14.6302   -9.9383 H   0  0  0  0  0  0  0  0  0  0  0  0
   -1.8356   15.1840  -11.2148 H   0  0  0  0  0  0  0  0  0  0  0  0
  1  2  1  0  0  0  0
  1  4  1  0  0  0  0
  1 11  1  0  0  0  0
  2  6  2  0  0  0  0
  3  4  1  0  0  0  0
  3  5  2  0  0  0  0
  5  6  1  0  0  0  0
  5  9  1  0  0  0  0
  6  7  1  0  0  0  0
  7  8  1  0  0  0  0
  7 10  2  3  0  0  0
  8  9  2  0  0  0  0
 10 12  1  0  0  0  0
 11 24  2  0  0  0  0
 11 28  1  0  0  0  0
 12 13  2  0  0  0  0
 12 17  1  0  0  0  0
 13 14  1  0  0  0  0
 14 15  2  0  0  0  0
 15 16  1  0  0  0  0
 15 18  1  0  0  0  0
 16 17  2  0  0  0  0
 18 19  2  0  0  0  0
 18 22  1  0  0  0  0
 19 20  1  0  0  0  0
 20 21  1  0  0  0  0
 20 23  1  0  0  0  0
 21 22  2  0  0  0  0
 24 25  1  0  0  0  0
 25 26  2  0  0  0  0
 26 27  1  0  0  0  0
 27 28  2  0  0  0  0
 27 29  1  0  0  0  0
  1 30  1  0  0  0  0
  2 31  1  0  0  0  0
  3 32  1  0  0  0  0
  4 33  1  0  0  0  0
  4 34  1  0  0  0  0
 10 35  1  0  0  0  0
 13 36  1  0  0  0  0
 14 37  1  0  0  0  0
 16 38  1  0  0  0  0
 17 39  1  0  0  0  0
 19 40  1  0  0  0  0
 22 41  1  0  0  0  0
 23 42  1  0  0  0  0
 23 43  1  0  0  0  0
 23 44  1  0  0  0  0
 25 45  1  0  0  0  0
 26 46  1  0  0  0  0
 28 47  1  0  0  0  0
 29 48  1  0  0  0  0
 29 49  1  0  0  0  0
M  END
> <Name>
23

> <IC50[uM]>
0.27

$$$$
23
  -OEChem-05192314333D
 Structure written by MMmdl.
 49 53  0     1  0  0  0  0  0999 V2000
   -6.3775   12.3296  -12.0018 C   0  0  0  0  0  0  0  0  0  0  0  0
   -6.5098   11.7629  -10.7403 C   0  0  0  0  0  0  0  0  0  0  0  0
   -7.7247   10.5660  -13.0266 C   0  0  0  0  0  0  0  0  0  0  0  0
   -6.9942   11.7487  -13.1193 C   0  0  0  0  0  0  0  0  0  0  0  0
   -7.8312   10.0057  -11.7538 C   0  0  0  0  0  0  0  0  0  0  0  0
   -7.2443   10.6021  -10.6070 C   0  0  3  0  0  0  0  0  0  0  0  0
   -7.6167    9.7449   -9.5151 C   0  0  0  0  0  0  0  0  0  0  0  0
   -8.2961    8.7374   -9.9786 N   0  0  0  0  0  0  0  0  0  0  0  0
   -8.4404    8.8724  -11.2937 N   0  0  0  0  0  0  0  0  0  0  0  0
   -7.3318    9.8946   -8.0252 C   0  0  0  0  0  0  0  0  0  0  0  0
   -5.5478   13.5112  -12.1572 C   0  0  0  0  0  0  0  0  0  0  0  0
   -5.9707   10.4870   -7.7351 C   0  0  0  0  0  0  0  0  0  0  0  0
   -5.8642   11.7588   -7.1694 C   0  0  0  0  0  0  0  0  0  0  0  0
   -4.6019   12.3141   -6.9186 C   0  0  0  0  0  0  0  0  0  0  0  0
   -3.4503   11.5963   -7.2357 C   0  0  0  0  0  0  0  0  0  0  0  0
   -3.5604   10.3220   -7.8000 C   0  0  0  0  0  0  0  0  0  0  0  0
   -4.8213    9.7719   -8.0443 C   0  0  0  0  0  0  0  0  0  0  0  0
   -2.0996   12.1710   -6.9757 C   0  0  0  0  0  0  0  0  0  0  0  0
   -1.7487   13.4240   -6.4767 C   0  0  0  0  0  0  0  0  0  0  0  0
   -0.4123   13.4674   -6.4260 N   0  0  0  0  0  0  0  0  0  0  0  0
    0.1713   12.3664   -6.8217 N   0  0  0  0  0  0  0  0  0  0  0  0
   -0.8093   11.5624   -7.1930 C   0  0  0  0  0  0  0  0  0  0  0  0
    0.4224   14.5657   -5.9816 C   0  0  0  0  0  0  0  0  0  0  0  0
   -5.6966   14.2423  -13.2612 N   0  0  0  0  0  0  0  0  0  0  0  0
   -4.9506   15.3153  -13.5405 C   0  0  0  0  0  0  0  0  0  0  0  0
   -3.9383   15.6899  -12.6782 C   0  0  0  0  0  0  0  0  0  0  0  0
   -3.7261   14.9536  -11.5366 C   0  0  0  0  0  0  0  0  0  0  0  0
   -4.5508   13.8769  -11.2437 C   0  0  0  0  0  0  0  0  0  0  0  0
   -2.6976   15.2614  -10.7139 N   0  0  0  0  0  0  0  0  0  0  0  0
   -6.0464   12.2223   -9.8797 H   0  0  0  0  0  0  0  0  0  0  0  0
   -8.1826   10.1089  -13.8914 H   0  0  0  0  0  0  0  0  0  0  0  0
   -7.6841   12.5064  -13.5191 H   0  0  0  0  0  0  0  0  0  0  0  0
   -6.1936   11.5599  -13.8497 H   0  0  0  0  0  0  0  0  0  0  0  0
   -6.3326   10.0069  -10.7637 H   0  0  0  0  0  0  0  0  0  0  0  0
   -8.0313    9.6067   -7.2544 H   0  0  0  0  0  0  0  0  0  0  0  0
   -6.7563   12.3160   -6.9245 H   0  0  0  0  0  0  0  0  0  0  0  0
   -4.5218   13.2977   -6.4798 H   0  0  0  0  0  0  0  0  0  0  0  0
   -2.6703    9.7625   -8.0472 H   0  0  0  0  0  0  0  0  0  0  0  0
   -4.9024    8.7852   -8.4759 H   0  0  0  0  0  0  0  0  0  0  0  0
   -2.4277   14.2118   -6.1857 H   0  0  0  0  0  0  0  0  0  0  0  0
   -0.6637   10.5754   -7.6065 H   0  0  0  0  0  0  0  0  0  0  0  0
    1.4809   14.2752   -6.0543 H   0  0  0  0  0  0  0  0  0  0  0  0
    0.2393   15.4453   -6.6162 H   0  0  0  0  0  0  0  0  0  0  0  0
    0.1804   14.8105   -4.9369 H   0  0  0  0  0  0  0  0  0  0  0  0
   -5.1384   15.8875  -14.4370 H   0  0  0  0  0  0  0  0  0  0  0  0
   -3.3221   16.5493  -12.8978 H   0  0  0  0  0  0  0  0  0  0  0  0
   -4.4255   13.3274  -10.3224 H   0  0  0  0  0  0  0  0  0  0  0  0
   -2.6901   14.6302   -9.9383 H   0  0  0  0  0  0  0  0  0  0  0  0
   -1.8356   15.1840  -11.2148 H   0  0  0  0  0  0  0  0  0  0  0  0
  1  2  2  0  0  0  0
  1  4  1  0  0  0  0
  1 11  1  0  0  0  0
  2  6  1  0  0  0  0
  3  4  1  0  0  0  0
  3  5  2  0  0  0  0
  5  6  1  0  0  0  0
  5  9  1  0  0  0  0
  6  7  1  0  0  0  0
  7  8  1  0  0  0  0
  7 10  2  3  0  0  0
  8  9  2  0  0  0  0
 10 12  1  0  0  0  0
 11 24  2  0  0  0  0
 11 28  1  0  0  0  0
 12 13  2  0  0  0  0
 12 17  1  0  0  0  0
 13 14  1  0  0  0  0
 14 15  2  0  0  0  0
 15 16  1  0  0  0  0
 15 18  1  0  0  0  0
 16 17  2  0  0  0  0
 18 19  2  0  0  0  0
 18 22  1  0  0  0  0
 19 20  1  0  0  0  0
 20 21  1  0  0  0  0
 20 23  1  0  0  0  0
 21 22  2  0  0  0  0
 24 25  1  0  0  0  0
 25 26  2  0  0  0  0
 26 27  1  0  0  0  0
 27 28  2  0  0  0  0
 27 29  1  0  0  0  0
  2 30  1  0  0  0  0
  3 31  1  0  0  0  0
  4 32  1  0  0  0  0
  4 33  1  0  0  0  0
  6 34  1  0  0  0  0
 10 35  1  0  0  0  0
 13 36  1  0  0  0  0
 14 37  1  0  0  0  0
 16 38  1  0  0  0  0
 17 39  1  0  0  0  0
 19 40  1  0  0  0  0
 22 41  1  0  0  0  0
 23 42  1  0  0  0  0
 23 43  1  0  0  0  0
 23 44  1  0  0  0  0
 25 45  1  0  0  0  0
 26 46  1  0  0  0  0
 28 47  1  0  0  0  0
 29 48  1  0  0  0  0
 29 49  1  0  0  0  0
M  END
> <Name>
23

> <IC50[uM]>
0.27

$$$$
23
  -OEChem-05192314333D
 Structure written by MMmdl.
 49 53  0     0  0  0  0  0  0999 V2000
   -6.3775   12.3296  -12.0018 C   0  0  0  0  0  0  0  0  0  0  0  0
   -6.5098   11.7629  -10.7403 C   0  0  0  0  0  0  0  0  0  0  0  0
   -7.7247   10.5660  -13.0266 C   0  0  0  0  0  0  0  0  0  0  0  0
   -6.9942   11.7487  -13.1193 C   0  0  0  0  0  0  0  0  0  0  0  0
   -7.8312   10.0057  -11.7538 C   0  0  0  0  0  0  0  0  0  0  0  0
   -7.2443   10.6021  -10.6070 C   0  0  0  0  0  0  0  0  0  0  0  0
   -7.6167    9.7449   -9.5151 C   0  0  0  0  0  0  0  0  0  0  0  0
   -8.2961    8.7374   -9.9786 N   0  0  0  0  0  0  0  0  0  0  0  0
   -8.4404    8.8724  -11.2937 N   0  0  0  0  0  0  0  0  0  0  0  0
   -7.3318    9.8946   -8.0252 C   0  0  0  0  0  0  0  0  0  0  0  0
   -5.5478   13.5112  -12.1572 C   0  0  0  0  0  0  0  0  0  0  0  0
   -5.9707   10.4870   -7.7351 C   0  0  0  0  0  0  0  0  0  0  0  0
   -5.8642   11.7588   -7.1694 C   0  0  0  0  0  0  0  0  0  0  0  0
   -4.6019   12.3141   -6.9186 C   0  0  0  0  0  0  0  0  0  0  0  0
   -3.4503   11.5963   -7.2357 C   0  0  0  0  0  0  0  0  0  0  0  0
   -3.5604   10.3220   -7.8000 C   0  0  0  0  0  0  0  0  0  0  0  0
   -4.8213    9.7719   -8.0443 C   0  0  0  0  0  0  0  0  0  0  0  0
   -2.0996   12.1710   -6.9757 C   0  0  0  0  0  0  0  0  0  0  0  0
   -1.7487   13.4240   -6.4767 C   0  0  0  0  0  0  0  0  0  0  0  0
   -0.4123   13.4674   -6.4260 N   0  0  0  0  0  0  0  0  0  0  0  0
    0.1713   12.3664   -6.8217 N   0  0  0  0  0  0  0  0  0  0  0  0
   -0.8093   11.5624   -7.1930 C   0  0  0  0  0  0  0  0  0  0  0  0
    0.4224   14.5657   -5.9816 C   0  0  0  0  0  0  0  0  0  0  0  0
   -5.6966   14.2423  -13.2612 N   0  0  0  0  0  0  0  0  0  0  0  0
   -4.9506   15.3153  -13.5405 C   0  0  0  0  0  0  0  0  0  0  0  0
   -3.9383   15.6899  -12.6782 C   0  0  0  0  0  0  0  0  0  0  0  0
   -3.7261   14.9536  -11.5366 C   0  0  0  0  0  0  0  0  0  0  0  0
   -4.5508   13.8769  -11.2437 C   0  0  0  0  0  0  0  0  0  0  0  0
   -2.6976   15.2614  -10.7139 N   0  0  0  0  0  0  0  0  0  0  0  0
   -6.0464   12.2223   -9.8797 H   0  0  0  0  0  0  0  0  0  0  0  0
   -8.7428   10.7712  -13.3891 H   0  0  0  0  0  0  0  0  0  0  0  0
   -7.2451    9.8233  -13.6811 H   0  0  0  0  0  0  0  0  0  0  0  0
   -7.6841   12.5064  -13.5191 H   0  0  0  0  0  0  0  0  0  0  0  0
   -6.1936   11.5599  -13.8497 H   0  0  0  0  0  0  0  0  0  0  0  0
   -8.0313    9.6067   -7.2544 H   0  0  0  0  0  0  0  0  0  0  0  0
   -6.7563   12.3160   -6.9245 H   0  0  0  0  0  0  0  0  0  0  0  0
   -4.5218   13.2977   -6.4798 H   0  0  0  0  0  0  0  0  0  0  0  0
   -2.6703    9.7625   -8.0472 H   0  0  0  0  0  0  0  0  0  0  0  0
   -4.9024    8.7852   -8.4759 H   0  0  0  0  0  0  0  0  0  0  0  0
   -2.4277   14.2118   -6.1857 H   0  0  0  0  0  0  0  0  0  0  0  0
   -0.6637   10.5754   -7.6065 H   0  0  0  0  0  0  0  0  0  0  0  0
    1.4809   14.2752   -6.0543 H   0  0  0  0  0  0  0  0  0  0  0  0
    0.2393   15.4453   -6.6162 H   0  0  0  0  0  0  0  0  0  0  0  0
    0.1804   14.8105   -4.9369 H   0  0  0  0  0  0  0  0  0  0  0  0
   -5.1384   15.8875  -14.4370 H   0  0  0  0  0  0  0  0  0  0  0  0
   -3.3221   16.5493  -12.8978 H   0  0  0  0  0  0  0  0  0  0  0  0
   -4.4255   13.3274  -10.3224 H   0  0  0  0  0  0  0  0  0  0  0  0
   -2.6901   14.6302   -9.9383 H   0  0  0  0  0  0  0  0  0  0  0  0
   -1.8356   15.1840  -11.2148 H   0  0  0  0  0  0  0  0  0  0  0  0
  1  2  2  0  0  0  0
  1  4  1  0  0  0  0
  1 11  1  0  0  0  0
  2  6  1  0  0  0  0
  3  4  1  0  0  0  0
  3  5  1  0  0  0  0
  5  6  2  0  0  0  0
  5  9  1  0  0  0  0
  6  7  1  0  0  0  0
  7  8  1  0  0  0  0
  7 10  2  3  0  0  0
  8  9  2  0  0  0  0
 10 12  1  0  0  0  0
 11 24  2  0  0  0  0
 11 28  1  0  0  0  0
 12 13  2  0  0  0  0
 12 17  1  0  0  0  0
 13 14  1  0  0  0  0
 14 15  2  0  0  0  0
 15 16  1  0  0  0  0
 15 18  1  0  0  0  0
 16 17  2  0  0  0  0
 18 19  2  0  0  0  0
 18 22  1  0  0  0  0
 19 20  1  0  0  0  0
 20 21  1  0  0  0  0
 20 23  1  0  0  0  0
 21 22  2  0  0  0  0
 24 25  1  0  0  0  0
 25 26  2  0  0  0  0
 26 27  1  0  0  0  0
 27 28  2  0  0  0  0
 27 29  1  0  0  0  0
  2 30  1  0  0  0  0
  3 31  1  0  0  0  0
  3 32  1  0  0  0  0
  4 33  1  0  0  0  0
  4 34  1  0  0  0  0
 10 35  1  0  0  0  0
 13 36  1  0  0  0  0
 14 37  1  0  0  0  0
 16 38  1  0  0  0  0
 17 39  1  0  0  0  0
 19 40  1  0  0  0  0
 22 41  1  0  0  0  0
 23 42  1  0  0  0  0
 23 43  1  0  0  0  0
 23 44  1  0  0  0  0
 25 45  1  0  0  0  0
 26 46  1  0  0  0  0
 28 47  1  0  0  0  0
 29 48  1  0  0  0  0
 29 49  1  0  0  0  0
M  END
> <Name>
23

> <IC50[uM]>
0.27

$$$$
23
  -OEChem-05192314333D
 Structure written by MMmdl.
 49 53  0     1  0  0  0  0  0999 V2000
   -6.3775   12.3296  -12.0018 C   0  0  0  0  0  0  0  0  0  0  0  0
   -6.5098   11.7629  -10.7403 C   0  0  0  0  0  0  0  0  0  0  0  0
   -7.7247   10.5660  -13.0266 C   0  0  0  0  0  0  0  0  0  0  0  0
   -6.9942   11.7487  -13.1193 C   0  0  0  0  0  0  0  0  0  0  0  0
   -7.8312   10.0057  -11.7538 C   0  0  0  0  0  0  0  0  0  0  0  0
   -7.2443   10.6021  -10.6070 C   0  0  0  0  0  0  0  0  0  0  0  0
   -7.6167    9.7449   -9.5151 C   0  0  0  0  0  0  0  0  0  0  0  0
   -8.2961    8.7374   -9.9786 N   0  0  0  0  0  0  0  0  0  0  0  0
   -8.4404    8.8724  -11.2937 N   0  0  0  0  0  0  0  0  0  0  0  0
   -7.3318    9.8946   -8.0252 C   0  0  0  0  0  0  0  0  0  0  0  0
   -5.5478   13.5112  -12.1572 C   0  0  0  0  0  0  0  0  0  0  0  0
   -5.9707   10.4870   -7.7351 C   0  0  3  0  0  0  0  0  0  0  0  0
   -5.8642   11.7588   -7.1694 C   0  0  0  0  0  0  0  0  0  0  0  0
   -4.6019   12.3141   -6.9186 C   0  0  0  0  0  0  0  0  0  0  0  0
   -3.4503   11.5963   -7.2357 C   0  0  0  0  0  0  0  0  0  0  0  0
   -3.5604   10.3220   -7.8000 C   0  0  0  0  0  0  0  0  0  0  0  0
   -4.8213    9.7719   -8.0443 C   0  0  0  0  0  0  0  0  0  0  0  0
   -2.0996   12.1710   -6.9757 C   0  0  0  0  0  0  0  0  0  0  0  0
   -1.7487   13.4240   -6.4767 C   0  0  0  0  0  0  0  0  0  0  0  0
   -0.4123   13.4674   -6.4260 N   0  0  0  0  0  0  0  0  0  0  0  0
    0.1713   12.3664   -6.8217 N   0  0  0  0  0  0  0  0  0  0  0  0
   -0.8093   11.5624   -7.1930 C   0  0  0  0  0  0  0  0  0  0  0  0
    0.4224   14.5657   -5.9816 C   0  0  0  0  0  0  0  0  0  0  0  0
   -5.6966   14.2423  -13.2612 N   0  0  0  0  0  0  0  0  0  0  0  0
   -4.9506   15.3153  -13.5405 C   0  0  0  0  0  0  0  0  0  0  0  0
   -3.9383   15.6899  -12.6782 C   0  0  0  0  0  0  0  0  0  0  0  0
   -3.7261   14.9536  -11.5366 C   0  0  0  0  0  0  0  0  0  0  0  0
   -4.5508   13.8769  -11.2437 C   0  0  0  0  0  0  0  0  0  0  0  0
   -2.6976   15.2614  -10.7139 N   0  0  0  0  0  0  0  0  0  0  0  0
   -6.0464   12.2223   -9.8797 H   0  0  0  0  0  0  0  0  0  0  0  0
   -8.1826   10.1089  -13.8914 H   0  0  0  0  0  0  0  0  0  0  0  0
   -6.9001   12.2325  -14.0803 H   0  0  0  0  0  0  0  0  0  0  0  0
   -8.0313    9.6067   -7.2544 H   0  0  0  0  0  0  0  0  0  0  0  0
   -5.9850   10.0375   -6.7313 H   0  0  0  0  0  0  0  0  0  0  0  0
   -6.7563   12.3160   -6.9245 H   0  0  0  0  0  0  0  0  0  0  0  0
   -4.5218   13.2977   -6.4798 H   0  0  0  0  0  0  0  0  0  0  0  0
   -2.6703    9.7625   -8.0472 H   0  0  0  0  0  0  0  0  0  0  0  0
   -4.8715    8.8319   -7.4752 H   0  0  0  0  0  0  0  0  0  0  0  0
   -4.8665    9.5515   -9.1210 H   0  0  0  0  0  0  0  0  0  0  0  0
   -2.4277   14.2118   -6.1857 H   0  0  0  0  0  0  0  0  0  0  0  0
   -0.6637   10.5754   -7.6065 H   0  0  0  0  0  0  0  0  0  0  0  0
    1.4809   14.2752   -6.0543 H   0  0  0  0  0  0  0  0  0  0  0  0
    0.2393   15.4453   -6.6162 H   0  0  0  0  0  0  0  0  0  0  0  0
    0.1804   14.8105   -4.9369 H   0  0  0  0  0  0  0  0  0  0  0  0
   -5.1384   15.8875  -14.4370 H   0  0  0  0  0  0  0  0  0  0  0  0
   -3.3221   16.5493  -12.8978 H   0  0  0  0  0  0  0  0  0  0  0  0
   -4.4255   13.3274  -10.3224 H   0  0  0  0  0  0  0  0  0  0  0  0
   -2.6901   14.6302   -9.9383 H   0  0  0  0  0  0  0  0  0  0  0  0
   -1.8356   15.1840  -11.2148 H   0  0  0  0  0  0  0  0  0  0  0  0
  1  2  2  0  0  0  0
  1  4  1  0  0  0  0
  1 11  1  0  0  0  0
  2  6  1  0  0  0  0
  3  4  2  0  0  0  0
  3  5  1  0  0  0  0
  5  6  2  0  0  0  0
  5  9  1  0  0  0  0
  6  7  1  0  0  0  0
  7  8  1  0  0  0  0
  7 10  2  3  0  0  0
  8  9  2  0  0  0  0
 10 12  1  0  0  0  0
 11 24  2  0  0  0  0
 11 28  1  0  0  0  0
 12 13  1  0  0  0  0
 12 17  1  0  0  0  0
 13 14  2  0  0  0  0
 14 15  1  0  0  0  0
 15 16  2  0  0  0  0
 15 18  1  0  0  0  0
 16 17  1  0  0  0  0
 18 19  2  0  0  0  0
 18 22  1  0  0  0  0
 19 20  1  0  0  0  0
 20 21  1  0  0  0  0
 20 23  1  0  0  0  0
 21 22  2  0  0  0  0
 24 25  1  0  0  0  0
 25 26  2  0  0  0  0
 26 27  1  0  0  0  0
 27 28  2  0  0  0  0
 27 29  1  0  0  0  0
  2 30  1  0  0  0  0
  3 31  1  0  0  0  0
  4 32  1  0  0  0  0
 10 33  1  0  0  0  0
 12 34  1  0  0  0  0
 13 35  1  0  0  0  0
 14 36  1  0  0  0  0
 16 37  1  0  0  0  0
 17 38  1  0  0  0  0
 17 39  1  0  0  0  0
 19 40  1  0  0  0  0
 22 41  1  0  0  0  0
 23 42  1  0  0  0  0
 23 43  1  0  0  0  0
 23 44  1  0  0  0  0
 25 45  1  0  0  0  0
 26 46  1  0  0  0  0
 28 47  1  0  0  0  0
 29 48  1  0  0  0  0
 29 49  1  0  0  0  0
M  END
> <Name>
23

> <IC50[uM]>
0.27

$$$$
23
  -OEChem-05192314333D
 Structure written by MMmdl.
 49 53  0     1  0  0  0  0  0999 V2000
   -6.3775   12.3296  -12.0018 C   0  0  0  0  0  0  0  0  0  0  0  0
   -6.5098   11.7629  -10.7403 C   0  0  0  0  0  0  0  0  0  0  0  0
   -7.7247   10.5660  -13.0266 C   0  0  0  0  0  0  0  0  0  0  0  0
   -6.9942   11.7487  -13.1193 C   0  0  0  0  0  0  0  0  0  0  0  0
   -7.8312   10.0057  -11.7538 C   0  0  0  0  0  0  0  0  0  0  0  0
   -7.2443   10.6021  -10.6070 C   0  0  0  0  0  0  0  0  0  0  0  0
   -7.6167    9.7449   -9.5151 C   0  0  3  0  0  0  0  0  0  0  0  0
   -8.2961    8.7374   -9.9786 N   0  0  0  0  0  0  0  0  0  0  0  0
   -8.4404    8.8724  -11.2937 N   0  0  0  0  0  0  0  0  0  0  0  0
   -7.3318    9.8946   -8.0252 C   0  0  0  0  0  0  0  0  0  0  0  0
   -5.5478   13.5112  -12.1572 C   0  0  0  0  0  0  0  0  0  0  0  0
   -5.9707   10.4870   -7.7351 C   0  0  0  0  0  0  0  0  0  0  0  0
   -5.8642   11.7588   -7.1694 C   0  0  0  0  0  0  0  0  0  0  0  0
   -4.6019   12.3141   -6.9186 C   0  0  0  0  0  0  0  0  0  0  0  0
   -3.4503   11.5963   -7.2357 C   0  0  0  0  0  0  0  0  0  0  0  0
   -3.5604   10.3220   -7.8000 C   0  0  0  0  0  0  0  0  0  0  0  0
   -4.8213    9.7719   -8.0443 C   0  0  0  0  0  0  0  0  0  0  0  0
   -2.0996   12.1710   -6.9757 C   0  0  0  0  0  0  0  0  0  0  0  0
   -1.7487   13.4240   -6.4767 C   0  0  0  0  0  0  0  0  0  0  0  0
   -0.4123   13.4674   -6.4260 N   0  0  0  0  0  0  0  0  0  0  0  0
    0.1713   12.3664   -6.8217 N   0  0  0  0  0  0  0  0  0  0  0  0
   -0.8093   11.5624   -7.1930 C   0  0  0  0  0  0  0  0  0  0  0  0
    0.4224   14.5657   -5.9816 C   0  0  0  0  0  0  0  0  0  0  0  0
   -5.6966   14.2423  -13.2612 N   0  0  0  0  0  0  0  0  0  0  0  0
   -4.9506   15.3153  -13.5405 C   0  0  0  0  0  0  0  0  0  0  0  0
   -3.9383   15.6899  -12.6782 C   0  0  0  0  0  0  0  0  0  0  0  0
   -3.7261   14.9536  -11.5366 C   0  0  0  0  0  0  0  0  0  0  0  0
   -4.5508   13.8769  -11.2437 C   0  0  0  0  0  0  0  0  0  0  0  0
   -2.6976   15.2614  -10.7139 N   0  0  0  0  0  0  0  0  0  0  0  0
   -6.0464   12.2223   -9.8797 H   0  0  0  0  0  0  0  0  0  0  0  0
   -8.1826   10.1089  -13.8914 H   0  0  0  0  0  0  0  0  0  0  0  0
   -6.9001   12.2325  -14.0803 H   0  0  0  0  0  0  0  0  0  0  0  0
   -6.6832    9.1765   -9.6392 H   0  0  0  0  0  0  0  0  0  0  0  0
   -8.0313    9.6067   -7.2544 H   0  0  0  0  0  0  0  0  0  0  0  0
   -6.7563   12.3160   -6.9245 H   0  0  0  0  0  0  0  0  0  0  0  0
   -4.5218   13.2977   -6.4798 H   0  0  0  0  0  0  0  0  0  0  0  0
   -2.6703    9.7625   -8.0472 H   0  0  0  0  0  0  0  0  0  0  0  0
   -4.8715    8.8319   -7.4752 H   0  0  0  0  0  0  0  0  0  0  0  0
   -4.8665    9.5515   -9.1210 H   0  0  0  0  0  0  0  0  0  0  0  0
   -2.4277   14.2118   -6.1857 H   0  0  0  0  0  0  0  0  0  0  0  0
   -0.6637   10.5754   -7.6065 H   0  0  0  0  0  0  0  0  0  0  0  0
    1.4809   14.2752   -6.0543 H   0  0  0  0  0  0  0  0  0  0  0  0
    0.2393   15.4453   -6.6162 H   0  0  0  0  0  0  0  0  0  0  0  0
    0.1804   14.8105   -4.9369 H   0  0  0  0  0  0  0  0  0  0  0  0
   -5.1384   15.8875  -14.4370 H   0  0  0  0  0  0  0  0  0  0  0  0
   -3.3221   16.5493  -12.8978 H   0  0  0  0  0  0  0  0  0  0  0  0
   -4.4255   13.3274  -10.3224 H   0  0  0  0  0  0  0  0  0  0  0  0
   -2.6901   14.6302   -9.9383 H   0  0  0  0  0  0  0  0  0  0  0  0
   -1.8356   15.1840  -11.2148 H   0  0  0  0  0  0  0  0  0  0  0  0
  1  2  2  0  0  0  0
  1  4  1  0  0  0  0
  1 11  1  0  0  0  0
  2  6  1  0  0  0  0
  3  4  2  0  0  0  0
  3  5  1  0  0  0  0
  5  6  2  0  0  0  0
  5  9  1  0  0  0  0
  6  7  1  0  0  0  0
  7  8  1  0  0  0  0
  7 10  1  0  0  0  0
  8  9  2  0  0  0  0
 10 12  2  3  0  0  0
 11 24  2  0  0  0  0
 11 28  1  0  0  0  0
 12 13  1  0  0  0  0
 12 17  1  0  0  0  0
 13 14  2  0  0  0  0
 14 15  1  0  0  0  0
 15 16  2  0  0  0  0
 15 18  1  0  0  0  0
 16 17  1  0  0  0  0
 18 19  2  0  0  0  0
 18 22  1  0  0  0  0
 19 20  1  0  0  0  0
 20 21  1  0  0  0  0
 20 23  1  0  0  0  0
 21 22  2  0  0  0  0
 24 25  1  0  0  0  0
 25 26  2  0  0  0  0
 26 27  1  0  0  0  0
 27 28  2  0  0  0  0
 27 29  1  0  0  0  0
  2 30  1  0  0  0  0
  3 31  1  0  0  0  0
  4 32  1  0  0  0  0
  7 33  1  0  0  0  0
 10 34  1  0  0  0  0
 13 35  1  0  0  0  0
 14 36  1  0  0  0  0
 16 37  1  0  0  0  0
 17 38  1  0  0  0  0
 17 39  1  0  0  0  0
 19 40  1  0  0  0  0
 22 41  1  0  0  0  0
 23 42  1  0  0  0  0
 23 43  1  0  0  0  0
 23 44  1  0  0  0  0
 25 45  1  0  0  0  0
 26 46  1  0  0  0  0
 28 47  1  0  0  0  0
 29 48  1  0  0  0  0
 29 49  1  0  0  0  0
M  END
> <Name>
23

> <IC50[uM]>
0.27

$$$$
23
  -OEChem-05192314333D
 Structure written by MMmdl.
 49 53  0     0  0  0  0  0  0999 V2000
   -6.3775   12.3296  -12.0018 C   0  0  0  0  0  0  0  0  0  0  0  0
   -6.5098   11.7629  -10.7403 C   0  0  0  0  0  0  0  0  0  0  0  0
   -7.7247   10.5660  -13.0266 C   0  0  0  0  0  0  0  0  0  0  0  0
   -6.9942   11.7487  -13.1193 C   0  0  0  0  0  0  0  0  0  0  0  0
   -7.8312   10.0057  -11.7538 C   0  0  0  0  0  0  0  0  0  0  0  0
   -7.2443   10.6021  -10.6070 C   0  0  0  0  0  0  0  0  0  0  0  0
   -7.6167    9.7449   -9.5151 C   0  0  0  0  0  0  0  0  0  0  0  0
   -8.2961    8.7374   -9.9786 N   0  0  0  0  0  0  0  0  0  0  0  0
   -8.4404    8.8724  -11.2937 N   0  0  0  0  0  0  0  0  0  0  0  0
   -7.3318    9.8946   -8.0252 C   0  0  0  0  0  0  0  0  0  0  0  0
   -5.5478   13.5112  -12.1572 C   0  0  0  0  0  0  0  0  0  0  0  0
   -5.9707   10.4870   -7.7351 C   0  0  0  0  0  0  0  0  0  0  0  0
   -5.8642   11.7588   -7.1694 C   0  0  0  0  0  0  0  0  0  0  0  0
   -4.6019   12.3141   -6.9186 C   0  0  0  0  0  0  0  0  0  0  0  0
   -3.4503   11.5963   -7.2357 C   0  0  0  0  0  0  0  0  0  0  0  0
   -3.5604   10.3220   -7.8000 C   0  0  0  0  0  0  0  0  0  0  0  0
   -4.8213    9.7719   -8.0443 C   0  0  0  0  0  0  0  0  0  0  0  0
   -2.0996   12.1710   -6.9757 C   0  0  0  0  0  0  0  0  0  0  0  0
   -1.7487   13.4240   -6.4767 C   0  0  0  0  0  0  0  0  0  0  0  0
   -0.4123   13.4674   -6.4260 N   0  0  0  0  0  0  0  0  0  0  0  0
    0.1713   12.3664   -6.8217 N   0  0  0  0  0  0  0  0  0  0  0  0
   -0.8093   11.5624   -7.1930 C   0  0  0  0  0  0  0  0  0  0  0  0
    0.4224   14.5657   -5.9816 C   0  0  0  0  0  0  0  0  0  0  0  0
   -5.6966   14.2423  -13.2612 N   0  0  0  0  0  0  0  0  0  0  0  0
   -4.9506   15.3153  -13.5405 C   0  0  0  0  0  0  0  0  0  0  0  0
   -3.9383   15.6899  -12.6782 C   0  0  0  0  0  0  0  0  0  0  0  0
   -3.7261   14.9536  -11.5366 C   0  0  0  0  0  0  0  0  0  0  0  0
   -4.5508   13.8769  -11.2437 C   0  0  0  0  0  0  0  0  0  0  0  0
   -2.6976   15.2614  -10.7139 N   0  0  0  0  0  0  0  0  0  0  0  0
   -6.0464   12.2223   -9.8797 H   0  0  0  0  0  0  0  0  0  0  0  0
   -8.1826   10.1089  -13.8914 H   0  0  0  0  0  0  0  0  0  0  0  0
   -6.9001   12.2325  -14.0803 H   0  0  0  0  0  0  0  0  0  0  0  0
   -8.0313    9.6067   -7.2544 H   0  0  0  0  0  0  0  0  0  0  0  0
   -6.7563   12.3160   -6.9245 H   0  0  0  0  0  0  0  0  0  0  0  0
   -4.5527   13.2582   -7.4809 H   0  0  0  0  0  0  0  0  0  0  0  0
   -4.5569   12.5268   -5.8403 H   0  0  0  0  0  0  0  0  0  0  0  0
   -2.6703    9.7625   -8.0472 H   0  0  0  0  0  0  0  0  0  0  0  0
   -4.8715    8.8319   -7.4752 H   0  0  0  0  0  0  0  0  0  0  0  0
   -4.8665    9.5515   -9.1210 H   0  0  0  0  0  0  0  0  0  0  0  0
   -2.4277   14.2118   -6.1857 H   0  0  0  0  0  0  0  0  0  0  0  0
   -0.6637   10.5754   -7.6065 H   0  0  0  0  0  0  0  0  0  0  0  0
    1.4809   14.2752   -6.0543 H   0  0  0  0  0  0  0  0  0  0  0  0
    0.2393   15.4453   -6.6162 H   0  0  0  0  0  0  0  0  0  0  0  0
    0.1804   14.8105   -4.9369 H   0  0  0  0  0  0  0  0  0  0  0  0
   -5.1384   15.8875  -14.4370 H   0  0  0  0  0  0  0  0  0  0  0  0
   -3.3221   16.5493  -12.8978 H   0  0  0  0  0  0  0  0  0  0  0  0
   -4.4255   13.3274  -10.3224 H   0  0  0  0  0  0  0  0  0  0  0  0
   -2.6901   14.6302   -9.9383 H   0  0  0  0  0  0  0  0  0  0  0  0
   -1.8356   15.1840  -11.2148 H   0  0  0  0  0  0  0  0  0  0  0  0
  1  2  2  0  0  0  0
  1  4  1  0  0  0  0
  1 11  1  0  0  0  0
  2  6  1  0  0  0  0
  3  4  2  0  0  0  0
  3  5  1  0  0  0  0
  5  6  2  0  0  0  0
  5  9  1  0  0  0  0
  6  7  1  0  0  0  0
  7  8  1  0  0  0  0
  7 10  2  3  0  0  0
  8  9  2  0  0  0  0
 10 12  1  0  0  0  0
 11 24  2  0  0  0  0
 11 28  1  0  0  0  0
 12 13  2  0  0  0  0
 12 17  1  0  0  0  0
 13 14  1  0  0  0  0
 14 15  1  0  0  0  0
 15 16  2  0  0  0  0
 15 18  1  0  0  0  0
 16 17  1  0  0  0  0
 18 19  2  0  0  0  0
 18 22  1  0  0  0  0
 19 20  1  0  0  0  0
 20 21  1  0  0  0  0
 20 23  1  0  0  0  0
 21 22  2  0  0  0  0
 24 25  1  0  0  0  0
 25 26  2  0  0  0  0
 26 27  1  0  0  0  0
 27 28  2  0  0  0  0
 27 29  1  0  0  0  0
  2 30  1  0  0  0  0
  3 31  1  0  0  0  0
  4 32  1  0  0  0  0
 10 33  1  0  0  0  0
 13 34  1  0  0  0  0
 14 35  1  0  0  0  0
 14 36  1  0  0  0  0
 16 37  1  0  0  0  0
 17 38  1  0  0  0  0
 17 39  1  0  0  0  0
 19 40  1  0  0  0  0
 22 41  1  0  0  0  0
 23 42  1  0  0  0  0
 23 43  1  0  0  0  0
 23 44  1  0  0  0  0
 25 45  1  0  0  0  0
 26 46  1  0  0  0  0
 28 47  1  0  0  0  0
 29 48  1  0  0  0  0
 29 49  1  0  0  0  0
M  END
> <Name>
23

> <IC50[uM]>
0.27

$$$$
23
  -OEChem-05192314333D
 Structure written by MMmdl.
 49 53  0     0  0  0  0  0  0999 V2000
   -6.3775   12.3296  -12.0018 C   0  0  0  0  0  0  0  0  0  0  0  0
   -6.5098   11.7629  -10.7403 C   0  0  0  0  0  0  0  0  0  0  0  0
   -7.7247   10.5660  -13.0266 C   0  0  0  0  0  0  0  0  0  0  0  0
   -6.9942   11.7487  -13.1193 C   0  0  0  0  0  0  0  0  0  0  0  0
   -7.8312   10.0057  -11.7538 C   0  0  0  0  0  0  0  0  0  0  0  0
   -7.2443   10.6021  -10.6070 C   0  0  0  0  0  0  0  0  0  0  0  0
   -7.6167    9.7449   -9.5151 C   0  0  0  0  0  0  0  0  0  0  0  0
   -8.2961    8.7374   -9.9786 N   0  0  0  0  0  0  0  0  0  0  0  0
   -8.4404    8.8724  -11.2937 N   0  0  0  0  0  0  0  0  0  0  0  0
   -7.3318    9.8946   -8.0252 C   0  0  0  0  0  0  0  0  0  0  0  0
   -5.5478   13.5112  -12.1572 C   0  0  0  0  0  0  0  0  0  0  0  0
   -5.9707   10.4870   -7.7351 C   0  0  0  0  0  0  0  0  0  0  0  0
   -5.8642   11.7588   -7.1694 C   0  0  0  0  0  0  0  0  0  0  0  0
   -4.6019   12.3141   -6.9186 C   0  0  0  0  0  0  0  0  0  0  0  0
   -3.4503   11.5963   -7.2357 C   0  0  0  0  0  0  0  0  0  0  0  0
   -3.5604   10.3220   -7.8000 C   0  0  0  0  0  0  0  0  0  0  0  0
   -4.8213    9.7719   -8.0443 C   0  0  0  0  0  0  0  0  0  0  0  0
   -2.0996   12.1710   -6.9757 C   0  0  0  0  0  0  0  0  0  0  0  0
   -1.7487   13.4240   -6.4767 C   0  0  0  0  0  0  0  0  0  0  0  0
   -0.4123   13.4674   -6.4260 N   0  0  0  0  0  0  0  0  0  0  0  0
    0.1713   12.3664   -6.8217 N   0  0  0  0  0  0  0  0  0  0  0  0
   -0.8093   11.5624   -7.1930 C   0  0  0  0  0  0  0  0  0  0  0  0
    0.4224   14.5657   -5.9816 C   0  0  0  0  0  0  0  0  0  0  0  0
   -5.6966   14.2423  -13.2612 N   0  0  0  0  0  0  0  0  0  0  0  0
   -4.9506   15.3153  -13.5405 C   0  0  0  0  0  0  0  0  0  0  0  0
   -3.9383   15.6899  -12.6782 C   0  0  0  0  0  0  0  0  0  0  0  0
   -3.7261   14.9536  -11.5366 C   0  0  0  0  0  0  0  0  0  0  0  0
   -4.5508   13.8769  -11.2437 C   0  0  0  0  0  0  0  0  0  0  0  0
   -2.6976   15.2614  -10.7139 N   0  0  0  0  0  0  0  0  0  0  0  0
   -6.0464   12.2223   -9.8797 H   0  0  0  0  0  0  0  0  0  0  0  0
   -8.1826   10.1089  -13.8914 H   0  0  0  0  0  0  0  0  0  0  0  0
   -6.9001   12.2325  -14.0803 H   0  0  0  0  0  0  0  0  0  0  0  0
   -8.0313    9.6067   -7.2544 H   0  0  0  0  0  0  0  0  0  0  0  0
   -6.7563   12.3160   -6.9245 H   0  0  0  0  0  0  0  0  0  0  0  0
   -4.5218   13.2977   -6.4798 H   0  0  0  0  0  0  0  0  0  0  0  0
   -3.0365   10.3566   -8.7666 H   0  0  0  0  0  0  0  0  0  0  0  0
   -3.0375    9.6293   -7.1241 H   0  0  0  0  0  0  0  0  0  0  0  0
   -4.8715    8.8319   -7.4752 H   0  0  0  0  0  0  0  0  0  0  0  0
   -4.8665    9.5515   -9.1210 H   0  0  0  0  0  0  0  0  0  0  0  0
   -2.4277   14.2118   -6.1857 H   0  0  0  0  0  0  0  0  0  0  0  0
   -0.6637   10.5754   -7.6065 H   0  0  0  0  0  0  0  0  0  0  0  0
    1.4809   14.2752   -6.0543 H   0  0  0  0  0  0  0  0  0  0  0  0
    0.2393   15.4453   -6.6162 H   0  0  0  0  0  0  0  0  0  0  0  0
    0.1804   14.8105   -4.9369 H   0  0  0  0  0  0  0  0  0  0  0  0
   -5.1384   15.8875  -14.4370 H   0  0  0  0  0  0  0  0  0  0  0  0
   -3.3221   16.5493  -12.8978 H   0  0  0  0  0  0  0  0  0  0  0  0
   -4.4255   13.3274  -10.3224 H   0  0  0  0  0  0  0  0  0  0  0  0
   -2.6901   14.6302   -9.9383 H   0  0  0  0  0  0  0  0  0  0  0  0
   -1.8356   15.1840  -11.2148 H   0  0  0  0  0  0  0  0  0  0  0  0
  1  2  2  0  0  0  0
  1  4  1  0  0  0  0
  1 11  1  0  0  0  0
  2  6  1  0  0  0  0
  3  4  2  0  0  0  0
  3  5  1  0  0  0  0
  5  6  2  0  0  0  0
  5  9  1  0  0  0  0
  6  7  1  0  0  0  0
  7  8  1  0  0  0  0
  7 10  2  3  0  0  0
  8  9  2  0  0  0  0
 10 12  1  0  0  0  0
 11 24  2  0  0  0  0
 11 28  1  0  0  0  0
 12 13  2  0  0  0  0
 12 17  1  0  0  0  0
 13 14  1  0  0  0  0
 14 15  2  0  0  0  0
 15 16  1  0  0  0  0
 15 18  1  0  0  0  0
 16 17  1  0  0  0  0
 18 19  2  0  0  0  0
 18 22  1  0  0  0  0
 19 20  1  0  0  0  0
 20 21  1  0  0  0  0
 20 23  1  0  0  0  0
 21 22  2  0  0  0  0
 24 25  1  0  0  0  0
 25 26  2  0  0  0  0
 26 27  1  0  0  0  0
 27 28  2  0  0  0  0
 27 29  1  0  0  0  0
  2 30  1  0  0  0  0
  3 31  1  0  0  0  0
  4 32  1  0  0  0  0
 10 33  1  0  0  0  0
 13 34  1  0  0  0  0
 14 35  1  0  0  0  0
 16 36  1  0  0  0  0
 16 37  1  0  0  0  0
 17 38  1  0  0  0  0
 17 39  1  0  0  0  0
 19 40  1  0  0  0  0
 22 41  1  0  0  0  0
 23 42  1  0  0  0  0
 23 43  1  0  0  0  0
 23 44  1  0  0  0  0
 25 45  1  0  0  0  0
 26 46  1  0  0  0  0
 28 47  1  0  0  0  0
 29 48  1  0  0  0  0
 29 49  1  0  0  0  0
M  END
> <Name>
23

> <IC50[uM]>
0.27

$$$$
23
  -OEChem-05192314333D
 Structure written by MMmdl.
 49 53  0     1  0  0  0  0  0999 V2000
   -6.3775   12.3296  -12.0018 C   0  0  3  0  0  0  0  0  0  0  0  0
   -6.5098   11.7629  -10.7403 C   0  0  0  0  0  0  0  0  0  0  0  0
   -7.7247   10.5660  -13.0266 C   0  0  0  0  0  0  0  0  0  0  0  0
   -6.9942   11.7487  -13.1193 C   0  0  0  0  0  0  0  0  0  0  0  0
   -7.8312   10.0057  -11.7538 C   0  0  0  0  0  0  0  0  0  0  0  0
   -7.2443   10.6021  -10.6070 C   0  0  0  0  0  0  0  0  0  0  0  0
   -7.6167    9.7449   -9.5151 C   0  0  0  0  0  0  0  0  0  0  0  0
   -8.2961    8.7374   -9.9786 N   0  0  0  0  0  0  0  0  0  0  0  0
   -8.4404    8.8724  -11.2937 N   0  0  0  0  0  0  0  0  0  0  0  0
   -7.3318    9.8946   -8.0252 C   0  0  0  0  0  0  0  0  0  0  0  0
   -5.5478   13.5112  -12.1572 C   0  0  0  0  0  0  0  0  0  0  0  0
   -5.9707   10.4870   -7.7351 C   0  0  0  0  0  0  0  0  0  0  0  0
   -5.8642   11.7588   -7.1694 C   0  0  0  0  0  0  0  0  0  0  0  0
   -4.6019   12.3141   -6.9186 C   0  0  0  0  0  0  0  0  0  0  0  0
   -3.4503   11.5963   -7.2357 C   0  0  0  0  0  0  0  0  0  0  0  0
   -3.5604   10.3220   -7.8000 C   0  0  0  0  0  0  0  0  0  0  0  0
   -4.8213    9.7719   -8.0443 C   0  0  0  0  0  0  0  0  0  0  0  0
   -2.0996   12.1710   -6.9757 C   0  0  0  0  0  0  0  0  0  0  0  0
   -1.7487   13.4240   -6.4767 C   0  0  0  0  0  0  0  0  0  0  0  0
   -0.4123   13.4674   -6.4260 N   0  0  0  0  0  0  0  0  0  0  0  0
    0.1713   12.3664   -6.8217 N   0  0  0  0  0  0  0  0  0  0  0  0
   -0.8093   11.5624   -7.1930 C   0  0  0  0  0  0  0  0  0  0  0  0
    0.4224   14.5657   -5.9816 C   0  0  0  0  0  0  0  0  0  0  0  0
   -5.6966   14.2423  -13.2612 N   0  0  0  0  0  0  0  0  0  0  0  0
   -4.9506   15.3153  -13.5405 C   0  0  0  0  0  0  0  0  0  0  0  0
   -3.9383   15.6899  -12.6782 C   0  0  0  0  0  0  0  0  0  0  0  0
   -3.7261   14.9536  -11.5366 C   0  0  0  0  0  0  0  0  0  0  0  0
   -4.5508   13.8769  -11.2437 C   0  0  0  0  0  0  0  0  0  0  0  0
   -2.6976   15.2614  -10.7139 N   0  0  0  0  0  0  0  0  0  0  0  0
   -7.2621   12.9592  -11.8254 H   0  0  0  0  0  0  0  0  0  0  0  0
   -5.4950   11.5473  -10.3746 H   0  0  0  0  0  0  0  0  0  0  0  0
   -6.9796   12.5188  -10.0939 H   0  0  0  0  0  0  0  0  0  0  0  0
   -8.1826   10.1089  -13.8914 H   0  0  0  0  0  0  0  0  0  0  0  0
   -6.9001   12.2325  -14.0803 H   0  0  0  0  0  0  0  0  0  0  0  0
   -8.0313    9.6067   -7.2544 H   0  0  0  0  0  0  0  0  0  0  0  0
   -6.7563   12.3160   -6.9245 H   0  0  0  0  0  0  0  0  0  0  0  0
   -4.5218   13.2977   -6.4798 H   0  0  0  0  0  0  0  0  0  0  0  0
   -2.6703    9.7625   -8.0472 H   0  0  0  0  0  0  0  0  0  0  0  0
   -4.9024    8.7852   -8.4759 H   0  0  0  0  0  0  0  0  0  0  0  0
   -2.4277   14.2118   -6.1857 H   0  0  0  0  0  0  0  0  0  0  0  0
   -0.6637   10.5754   -7.6065 H   0  0  0  0  0  0  0  0  0  0  0  0
    1.4809   14.2752   -6.0543 H   0  0  0  0  0  0  0  0  0  0  0  0
    0.2393   15.4453   -6.6162 H   0  0  0  0  0  0  0  0  0  0  0  0
    0.1804   14.8105   -4.9369 H   0  0  0  0  0  0  0  0  0  0  0  0
   -5.1384   15.8875  -14.4370 H   0  0  0  0  0  0  0  0  0  0  0  0
   -3.3221   16.5493  -12.8978 H   0  0  0  0  0  0  0  0  0  0  0  0
   -4.4255   13.3274  -10.3224 H   0  0  0  0  0  0  0  0  0  0  0  0
   -2.6901   14.6302   -9.9383 H   0  0  0  0  0  0  0  0  0  0  0  0
   -1.8356   15.1840  -11.2148 H   0  0  0  0  0  0  0  0  0  0  0  0
  1  2  1  0  0  0  0
  1  4  1  0  0  0  0
  1 11  1  0  0  0  0
  2  6  1  0  0  0  0
  3  4  2  0  0  0  0
  3  5  1  0  0  0  0
  5  6  2  0  0  0  0
  5  9  1  0  0  0  0
  6  7  1  0  0  0  0
  7  8  1  0  0  0  0
  7 10  2  3  0  0  0
  8  9  2  0  0  0  0
 10 12  1  0  0  0  0
 11 24  2  0  0  0  0
 11 28  1  0  0  0  0
 12 13  2  0  0  0  0
 12 17  1  0  0  0  0
 13 14  1  0  0  0  0
 14 15  2  0  0  0  0
 15 16  1  0  0  0  0
 15 18  1  0  0  0  0
 16 17  2  0  0  0  0
 18 19  2  0  0  0  0
 18 22  1  0  0  0  0
 19 20  1  0  0  0  0
 20 21  1  0  0  0  0
 20 23  1  0  0  0  0
 21 22  2  0  0  0  0
 24 25  1  0  0  0  0
 25 26  2  0  0  0  0
 26 27  1  0  0  0  0
 27 28  2  0  0  0  0
 27 29  1  0  0  0  0
  1 30  1  0  0  0  0
  2 31  1  0  0  0  0
  2 32  1  0  0  0  0
  3 33  1  0  0  0  0
  4 34  1  0  0  0  0
 10 35  1  0  0  0  0
 13 36  1  0  0  0  0
 14 37  1  0  0  0  0
 16 38  1  0  0  0  0
 17 39  1  0  0  0  0
 19 40  1  0  0  0  0
 22 41  1  0  0  0  0
 23 42  1  0  0  0  0
 23 43  1  0  0  0  0
 23 44  1  0  0  0  0
 25 45  1  0  0  0  0
 26 46  1  0  0  0  0
 28 47  1  0  0  0  0
 29 48  1  0  0  0  0
 29 49  1  0  0  0  0
M  END
> <Name>
23

> <IC50[uM]>
0.27

$$$$
23
  -OEChem-05192314333D
 Structure written by MMmdl.
 49 53  0     1  0  0  0  0  0999 V2000
   -6.3775   12.3296  -12.0018 C   0  0  0  0  0  0  0  0  0  0  0  0
   -6.5098   11.7629  -10.7403 C   0  0  0  0  0  0  0  0  0  0  0  0
   -7.7247   10.5660  -13.0266 C   0  0  0  0  0  0  0  0  0  0  0  0
   -6.9942   11.7487  -13.1193 C   0  0  0  0  0  0  0  0  0  0  0  0
   -7.8312   10.0057  -11.7538 C   0  0  0  0  0  0  0  0  0  0  0  0
   -7.2443   10.6021  -10.6070 C   0  0  3  0  0  0  0  0  0  0  0  0
   -7.6167    9.7449   -9.5151 C   0  0  0  0  0  0  0  0  0  0  0  0
   -8.2961    8.7374   -9.9786 N   0  0  0  0  0  0  0  0  0  0  0  0
   -8.4404    8.8724  -11.2937 N   0  0  0  0  0  0  0  0  0  0  0  0
   -7.3318    9.8946   -8.0252 C   0  0  0  0  0  0  0  0  0  0  0  0
   -5.5478   13.5112  -12.1572 C   0  0  0  0  0  0  0  0  0  0  0  0
   -5.9707   10.4870   -7.7351 C   0  0  0  0  0  0  0  0  0  0  0  0
   -5.8642   11.7588   -7.1694 C   0  0  0  0  0  0  0  0  0  0  0  0
   -4.6019   12.3141   -6.9186 C   0  0  0  0  0  0  0  0  0  0  0  0
   -3.4503   11.5963   -7.2357 C   0  0  0  0  0  0  0  0  0  0  0  0
   -3.5604   10.3220   -7.8000 C   0  0  0  0  0  0  0  0  0  0  0  0
   -4.8213    9.7719   -8.0443 C   0  0  0  0  0  0  0  0  0  0  0  0
   -2.0996   12.1710   -6.9757 C   0  0  0  0  0  0  0  0  0  0  0  0
   -1.7487   13.4240   -6.4767 C   0  0  0  0  0  0  0  0  0  0  0  0
   -0.4123   13.4674   -6.4260 N   0  0  0  0  0  0  0  0  0  0  0  0
    0.1713   12.3664   -6.8217 N   0  0  0  0  0  0  0  0  0  0  0  0
   -0.8093   11.5624   -7.1930 C   0  0  0  0  0  0  0  0  0  0  0  0
    0.4224   14.5657   -5.9816 C   0  0  0  0  0  0  0  0  0  0  0  0
   -5.6966   14.2423  -13.2612 N   0  0  0  0  0  0  0  0  0  0  0  0
   -4.9506   15.3153  -13.5405 C   0  0  0  0  0  0  0  0  0  0  0  0
   -3.9383   15.6899  -12.6782 C   0  0  0  0  0  0  0  0  0  0  0  0
   -3.7261   14.9536  -11.5366 C   0  0  0  0  0  0  0  0  0  0  0  0
   -4.5508   13.8769  -11.2437 C   0  0  0  0  0  0  0  0  0  0  0  0
   -2.6976   15.2614  -10.7139 N   0  0  0  0  0  0  0  0  0  0  0  0
   -5.4950   11.5473  -10.3746 H   0  0  0  0  0  0  0  0  0  0  0  0
   -6.9796   12.5188  -10.0939 H   0  0  0  0  0  0  0  0  0  0  0  0
   -8.1826   10.1089  -13.8914 H   0  0  0  0  0  0  0  0  0  0  0  0
   -6.9001   12.2325  -14.0803 H   0  0  0  0  0  0  0  0  0  0  0  0
   -6.3326   10.0069  -10.7637 H   0  0  0  0  0  0  0  0  0  0  0  0
   -8.0313    9.6067   -7.2544 H   0  0  0  0  0  0  0  0  0  0  0  0
   -6.7563   12.3160   -6.9245 H   0  0  0  0  0  0  0  0  0  0  0  0
   -4.5218   13.2977   -6.4798 H   0  0  0  0  0  0  0  0  0  0  0  0
   -2.6703    9.7625   -8.0472 H   0  0  0  0  0  0  0  0  0  0  0  0
   -4.9024    8.7852   -8.4759 H   0  0  0  0  0  0  0  0  0  0  0  0
   -2.4277   14.2118   -6.1857 H   0  0  0  0  0  0  0  0  0  0  0  0
   -0.6637   10.5754   -7.6065 H   0  0  0  0  0  0  0  0  0  0  0  0
    1.4809   14.2752   -6.0543 H   0  0  0  0  0  0  0  0  0  0  0  0
    0.2393   15.4453   -6.6162 H   0  0  0  0  0  0  0  0  0  0  0  0
    0.1804   14.8105   -4.9369 H   0  0  0  0  0  0  0  0  0  0  0  0
   -5.1384   15.8875  -14.4370 H   0  0  0  0  0  0  0  0  0  0  0  0
   -3.3221   16.5493  -12.8978 H   0  0  0  0  0  0  0  0  0  0  0  0
   -4.4255   13.3274  -10.3224 H   0  0  0  0  0  0  0  0  0  0  0  0
   -2.6901   14.6302   -9.9383 H   0  0  0  0  0  0  0  0  0  0  0  0
   -1.8356   15.1840  -11.2148 H   0  0  0  0  0  0  0  0  0  0  0  0
  1  2  1  0  0  0  0
  1  4  2  0  0  0  0
  1 11  1  0  0  0  0
  2  6  1  0  0  0  0
  3  4  1  0  0  0  0
  3  5  2  0  0  0  0
  5  6  1  0  0  0  0
  5  9  1  0  0  0  0
  6  7  1  0  0  0  0
  7  8  1  0  0  0  0
  7 10  2  3  0  0  0
  8  9  2  0  0  0  0
 10 12  1  0  0  0  0
 11 24  2  0  0  0  0
 11 28  1  0  0  0  0
 12 13  2  0  0  0  0
 12 17  1  0  0  0  0
 13 14  1  0  0  0  0
 14 15  2  0  0  0  0
 15 16  1  0  0  0  0
 15 18  1  0  0  0  0
 16 17  2  0  0  0  0
 18 19  2  0  0  0  0
 18 22  1  0  0  0  0
 19 20  1  0  0  0  0
 20 21  1  0  0  0  0
 20 23  1  0  0  0  0
 21 22  2  0  0  0  0
 24 25  1  0  0  0  0
 25 26  2  0  0  0  0
 26 27  1  0  0  0  0
 27 28  2  0  0  0  0
 27 29  1  0  0  0  0
  2 30  1  0  0  0  0
  2 31  1  0  0  0  0
  3 32  1  0  0  0  0
  4 33  1  0  0  0  0
  6 34  1  0  0  0  0
 10 35  1  0  0  0  0
 13 36  1  0  0  0  0
 14 37  1  0  0  0  0
 16 38  1  0  0  0  0
 17 39  1  0  0  0  0
 19 40  1  0  0  0  0
 22 41  1  0  0  0  0
 23 42  1  0  0  0  0
 23 43  1  0  0  0  0
 23 44  1  0  0  0  0
 25 45  1  0  0  0  0
 26 46  1  0  0  0  0
 28 47  1  0  0  0  0
 29 48  1  0  0  0  0
 29 49  1  0  0  0  0
M  END
> <Name>
23

> <IC50[uM]>
0.27

$$$$
23
  -OEChem-05192314333D
 Structure written by MMmdl.
 49 53  0     0  0  0  0  0  0999 V2000
   -6.3775   12.3296  -12.0018 C   0  0  0  0  0  0  0  0  0  0  0  0
   -6.5098   11.7629  -10.7403 C   0  0  0  0  0  0  0  0  0  0  0  0
   -7.7247   10.5660  -13.0266 C   0  0  0  0  0  0  0  0  0  0  0  0
   -6.9942   11.7487  -13.1193 C   0  0  0  0  0  0  0  0  0  0  0  0
   -7.8312   10.0057  -11.7538 C   0  0  0  0  0  0  0  0  0  0  0  0
   -7.2443   10.6021  -10.6070 C   0  0  0  0  0  0  0  0  0  0  0  0
   -7.6167    9.7449   -9.5151 C   0  0  0  0  0  0  0  0  0  0  0  0
   -8.2961    8.7374   -9.9786 N   0  0  0  0  0  0  0  0  0  0  0  0
   -8.4404    8.8724  -11.2937 N   0  0  0  0  0  0  0  0  0  0  0  0
   -7.3318    9.8946   -8.0252 C   0  0  0  0  0  0  0  0  0  0  0  0
   -5.5478   13.5112  -12.1572 C   0  0  0  0  0  0  0  0  0  0  0  0
   -5.9707   10.4870   -7.7351 C   0  0  0  0  0  0  0  0  0  0  0  0
   -5.8642   11.7588   -7.1694 C   0  0  0  0  0  0  0  0  0  0  0  0
   -4.6019   12.3141   -6.9186 C   0  0  0  0  0  0  0  0  0  0  0  0
   -3.4503   11.5963   -7.2357 C   0  0  0  0  0  0  0  0  0  0  0  0
   -3.5604   10.3220   -7.8000 C   0  0  0  0  0  0  0  0  0  0  0  0
   -4.8213    9.7719   -8.0443 C   0  0  0  0  0  0  0  0  0  0  0  0
   -2.0996   12.1710   -6.9757 C   0  0  0  0  0  0  0  0  0  0  0  0
   -1.7487   13.4240   -6.4767 C   0  0  0  0  0  0  0  0  0  0  0  0
   -0.4123   13.4674   -6.4260 N   0  0  0  0  0  0  0  0  0  0  0  0
    0.1713   12.3664   -6.8217 N   0  0  0  0  0  0  0  0  0  0  0  0
   -0.8093   11.5624   -7.1930 C   0  0  0  0  0  0  0  0  0  0  0  0
    0.4224   14.5657   -5.9816 C   0  0  0  0  0  0  0  0  0  0  0  0
   -5.6966   14.2423  -13.2612 N   0  0  0  0  0  0  0  0  0  0  0  0
   -4.9506   15.3153  -13.5405 C   0  0  0  0  0  0  0  0  0  0  0  0
   -3.9383   15.6899  -12.6782 C   0  0  0  0  0  0  0  0  0  0  0  0
   -3.7261   14.9536  -11.5366 C   0  0  0  0  0  0  0  0  0  0  0  0
   -4.5508   13.8769  -11.2437 C   0  0  0  0  0  0  0  0  0  0  0  0
   -2.6976   15.2614  -10.7139 N   0  0  0  0  0  0  0  0  0  0  0  0
   -5.4950   11.5473  -10.3746 H   0  0  0  0  0  0  0  0  0  0  0  0
   -6.9796   12.5188  -10.0939 H   0  0  0  0  0  0  0  0  0  0  0  0
   -8.7428   10.7712  -13.3891 H   0  0  0  0  0  0  0  0  0  0  0  0
   -7.2451    9.8233  -13.6811 H   0  0  0  0  0  0  0  0  0  0  0  0
   -6.9001   12.2325  -14.0803 H   0  0  0  0  0  0  0  0  0  0  0  0
   -8.0313    9.6067   -7.2544 H   0  0  0  0  0  0  0  0  0  0  0  0
   -6.7563   12.3160   -6.9245 H   0  0  0  0  0  0  0  0  0  0  0  0
   -4.5218   13.2977   -6.4798 H   0  0  0  0  0  0  0  0  0  0  0  0
   -2.6703    9.7625   -8.0472 H   0  0  0  0  0  0  0  0  0  0  0  0
   -4.9024    8.7852   -8.4759 H   0  0  0  0  0  0  0  0  0  0  0  0
   -2.4277   14.2118   -6.1857 H   0  0  0  0  0  0  0  0  0  0  0  0
   -0.6637   10.5754   -7.6065 H   0  0  0  0  0  0  0  0  0  0  0  0
    1.4809   14.2752   -6.0543 H   0  0  0  0  0  0  0  0  0  0  0  0
    0.2393   15.4453   -6.6162 H   0  0  0  0  0  0  0  0  0  0  0  0
    0.1804   14.8105   -4.9369 H   0  0  0  0  0  0  0  0  0  0  0  0
   -5.1384   15.8875  -14.4370 H   0  0  0  0  0  0  0  0  0  0  0  0
   -3.3221   16.5493  -12.8978 H   0  0  0  0  0  0  0  0  0  0  0  0
   -4.4255   13.3274  -10.3224 H   0  0  0  0  0  0  0  0  0  0  0  0
   -2.6901   14.6302   -9.9383 H   0  0  0  0  0  0  0  0  0  0  0  0
   -1.8356   15.1840  -11.2148 H   0  0  0  0  0  0  0  0  0  0  0  0
  1  2  1  0  0  0  0
  1  4  2  0  0  0  0
  1 11  1  0  0  0  0
  2  6  1  0  0  0  0
  3  4  1  0  0  0  0
  3  5  1  0  0  0  0
  5  6  2  0  0  0  0
  5  9  1  0  0  0  0
  6  7  1  0  0  0  0
  7  8  1  0  0  0  0
  7 10  2  3  0  0  0
  8  9  2  0  0  0  0
 10 12  1  0  0  0  0
 11 24  2  0  0  0  0
 11 28  1  0  0  0  0
 12 13  2  0  0  0  0
 12 17  1  0  0  0  0
 13 14  1  0  0  0  0
 14 15  2  0  0  0  0
 15 16  1  0  0  0  0
 15 18  1  0  0  0  0
 16 17  2  0  0  0  0
 18 19  2  0  0  0  0
 18 22  1  0  0  0  0
 19 20  1  0  0  0  0
 20 21  1  0  0  0  0
 20 23  1  0  0  0  0
 21 22  2  0  0  0  0
 24 25  1  0  0  0  0
 25 26  2  0  0  0  0
 26 27  1  0  0  0  0
 27 28  2  0  0  0  0
 27 29  1  0  0  0  0
  2 30  1  0  0  0  0
  2 31  1  0  0  0  0
  3 32  1  0  0  0  0
  3 33  1  0  0  0  0
  4 34  1  0  0  0  0
 10 35  1  0  0  0  0
 13 36  1  0  0  0  0
 14 37  1  0  0  0  0
 16 38  1  0  0  0  0
 17 39  1  0  0  0  0
 19 40  1  0  0  0  0
 22 41  1  0  0  0  0
 23 42  1  0  0  0  0
 23 43  1  0  0  0  0
 23 44  1  0  0  0  0
 25 45  1  0  0  0  0
 26 46  1  0  0  0  0
 28 47  1  0  0  0  0
 29 48  1  0  0  0  0
 29 49  1  0  0  0  0
M  END
> <Name>
23

> <IC50[uM]>
0.27

$$$$
23
  -OEChem-05192314333D
 Structure written by MMmdl.
 49 53  0     1  0  0  0  0  0999 V2000
   -6.3775   12.3296  -12.0018 C   0  0  0  0  0  0  0  0  0  0  0  0
   -6.5098   11.7629  -10.7403 C   0  0  0  0  0  0  0  0  0  0  0  0
   -7.7247   10.5660  -13.0266 C   0  0  0  0  0  0  0  0  0  0  0  0
   -6.9942   11.7487  -13.1193 C   0  0  0  0  0  0  0  0  0  0  0  0
   -7.8312   10.0057  -11.7538 C   0  0  3  0  0  0  0  0  0  0  0  0
   -7.2443   10.6021  -10.6070 C   0  0  0  0  0  0  0  0  0  0  0  0
   -7.6167    9.7449   -9.5151 C   0  0  0  0  0  0  0  0  0  0  0  0
   -8.2961    8.7374   -9.9786 N   0  0  0  0  0  0  0  0  0  0  0  0
   -8.4404    8.8724  -11.2937 N   0  0  0  0  0  0  0  0  0  0  0  0
   -7.3318    9.8946   -8.0252 C   0  0  0  0  0  0  0  0  0  0  0  0
   -5.5478   13.5112  -12.1572 C   0  0  0  0  0  0  0  0  0  0  0  0
   -5.9707   10.4870   -7.7351 C   0  0  0  0  0  0  0  0  0  0  0  0
   -5.8642   11.7588   -7.1694 C   0  0  0  0  0  0  0  0  0  0  0  0
   -4.6019   12.3141   -6.9186 C   0  0  0  0  0  0  0  0  0  0  0  0
   -3.4503   11.5963   -7.2357 C   0  0  0  0  0  0  0  0  0  0  0  0
   -3.5604   10.3220   -7.8000 C   0  0  0  0  0  0  0  0  0  0  0  0
   -4.8213    9.7719   -8.0443 C   0  0  0  0  0  0  0  0  0  0  0  0
   -2.0996   12.1710   -6.9757 C   0  0  0  0  0  0  0  0  0  0  0  0
   -1.7487   13.4240   -6.4767 C   0  0  0  0  0  0  0  0  0  0  0  0
   -0.4123   13.4674   -6.4260 N   0  0  0  0  0  0  0  0  0  0  0  0
    0.1713   12.3664   -6.8217 N   0  0  0  0  0  0  0  0  0  0  0  0
   -0.8093   11.5624   -7.1930 C   0  0  0  0  0  0  0  0  0  0  0  0
    0.4224   14.5657   -5.9816 C   0  0  0  0  0  0  0  0  0  0  0  0
   -5.6966   14.2423  -13.2612 N   0  0  0  0  0  0  0  0  0  0  0  0
   -4.9506   15.3153  -13.5405 C   0  0  0  0  0  0  0  0  0  0  0  0
   -3.9383   15.6899  -12.6782 C   0  0  0  0  0  0  0  0  0  0  0  0
   -3.7261   14.9536  -11.5366 C   0  0  0  0  0  0  0  0  0  0  0  0
   -4.5508   13.8769  -11.2437 C   0  0  0  0  0  0  0  0  0  0  0  0
   -2.6976   15.2614  -10.7139 N   0  0  0  0  0  0  0  0  0  0  0  0
   -6.0464   12.2223   -9.8797 H   0  0  0  0  0  0  0  0  0  0  0  0
   -8.1826   10.1089  -13.8914 H   0  0  0  0  0  0  0  0  0  0  0  0
   -6.9001   12.2325  -14.0803 H   0  0  0  0  0  0  0  0  0  0  0  0
   -8.7557   10.5755  -11.5787 H   0  0  0  0  0  0  0  0  0  0  0  0
   -8.0989   10.5499   -7.5868 H   0  0  0  0  0  0  0  0  0  0  0  0
   -7.3874    8.9007   -7.5571 H   0  0  0  0  0  0  0  0  0  0  0  0
   -6.7563   12.3160   -6.9245 H   0  0  0  0  0  0  0  0  0  0  0  0
   -4.5218   13.2977   -6.4798 H   0  0  0  0  0  0  0  0  0  0  0  0
   -2.6703    9.7625   -8.0472 H   0  0  0  0  0  0  0  0  0  0  0  0
   -4.9024    8.7852   -8.4759 H   0  0  0  0  0  0  0  0  0  0  0  0
   -2.4277   14.2118   -6.1857 H   0  0  0  0  0  0  0  0  0  0  0  0
   -0.6637   10.5754   -7.6065 H   0  0  0  0  0  0  0  0  0  0  0  0
    1.4809   14.2752   -6.0543 H   0  0  0  0  0  0  0  0  0  0  0  0
    0.2393   15.4453   -6.6162 H   0  0  0  0  0  0  0  0  0  0  0  0
    0.1804   14.8105   -4.9369 H   0  0  0  0  0  0  0  0  0  0  0  0
   -5.1384   15.8875  -14.4370 H   0  0  0  0  0  0  0  0  0  0  0  0
   -3.3221   16.5493  -12.8978 H   0  0  0  0  0  0  0  0  0  0  0  0
   -4.4255   13.3274  -10.3224 H   0  0  0  0  0  0  0  0  0  0  0  0
   -2.6901   14.6302   -9.9383 H   0  0  0  0  0  0  0  0  0  0  0  0
   -1.8356   15.1840  -11.2148 H   0  0  0  0  0  0  0  0  0  0  0  0
  1  2  2  0  0  0  0
  1  4  1  0  0  0  0
  1 11  1  0  0  0  0
  2  6  1  0  0  0  0
  3  4  2  0  0  0  0
  3  5  1  0  0  0  0
  5  6  1  0  0  0  0
  5  9  1  0  0  0  0
  6  7  2  0  0  0  0
  7  8  1  0  0  0  0
  7 10  1  0  0  0  0
  8  9  2  0  0  0  0
 10 12  1  0  0  0  0
 11 24  2  0  0  0  0
 11 28  1  0  0  0  0
 12 13  2  0  0  0  0
 12 17  1  0  0  0  0
 13 14  1  0  0  0  0
 14 15  2  0  0  0  0
 15 16  1  0  0  0  0
 15 18  1  0  0  0  0
 16 17  2  0  0  0  0
 18 19  2  0  0  0  0
 18 22  1  0  0  0  0
 19 20  1  0  0  0  0
 20 21  1  0  0  0  0
 20 23  1  0  0  0  0
 21 22  2  0  0  0  0
 24 25  1  0  0  0  0
 25 26  2  0  0  0  0
 26 27  1  0  0  0  0
 27 28  2  0  0  0  0
 27 29  1  0  0  0  0
  2 30  1  0  0  0  0
  3 31  1  0  0  0  0
  4 32  1  0  0  0  0
  5 33  1  0  0  0  0
 10 34  1  0  0  0  0
 10 35  1  0  0  0  0
 13 36  1  0  0  0  0
 14 37  1  0  0  0  0
 16 38  1  0  0  0  0
 17 39  1  0  0  0  0
 19 40  1  0  0  0  0
 22 41  1  0  0  0  0
 23 42  1  0  0  0  0
 23 43  1  0  0  0  0
 23 44  1  0  0  0  0
 25 45  1  0  0  0  0
 26 46  1  0  0  0  0
 28 47  1  0  0  0  0
 29 48  1  0  0  0  0
 29 49  1  0  0  0  0
M  END
> <Name>
23

> <IC50[uM]>
0.27

$$$$
23
  -OEChem-05192314333D
 Structure written by MMmdl.
 49 53  0     0  0  0  0  0  0999 V2000
   -6.3775   12.3296  -12.0018 C   0  0  0  0  0  0  0  0  0  0  0  0
   -6.5098   11.7629  -10.7403 C   0  0  0  0  0  0  0  0  0  0  0  0
   -7.7247   10.5660  -13.0266 C   0  0  0  0  0  0  0  0  0  0  0  0
   -6.9942   11.7487  -13.1193 C   0  0  0  0  0  0  0  0  0  0  0  0
   -7.8312   10.0057  -11.7538 C   0  0  0  0  0  0  0  0  0  0  0  0
   -7.2443   10.6021  -10.6070 C   0  0  0  0  0  0  0  0  0  0  0  0
   -7.6167    9.7449   -9.5151 C   0  0  0  0  0  0  0  0  0  0  0  0
   -8.2961    8.7374   -9.9786 N   0  0  0  0  0  0  0  0  0  0  0  0
   -8.4404    8.8724  -11.2937 N   0  0  0  0  0  0  0  0  0  0  0  0
   -7.3318    9.8946   -8.0252 C   0  0  0  0  0  0  0  0  0  0  0  0
   -5.5478   13.5112  -12.1572 C   0  0  0  0  0  0  0  0  0  0  0  0
   -5.9707   10.4870   -7.7351 C   0  0  0  0  0  0  0  0  0  0  0  0
   -5.8642   11.7588   -7.1694 C   0  0  0  0  0  0  0  0  0  0  0  0
   -4.6019   12.3141   -6.9186 C   0  0  0  0  0  0  0  0  0  0  0  0
   -3.4503   11.5963   -7.2357 C   0  0  0  0  0  0  0  0  0  0  0  0
   -3.5604   10.3220   -7.8000 C   0  0  0  0  0  0  0  0  0  0  0  0
   -4.8213    9.7719   -8.0443 C   0  0  0  0  0  0  0  0  0  0  0  0
   -2.0996   12.1710   -6.9757 C   0  0  0  0  0  0  0  0  0  0  0  0
   -1.7487   13.4240   -6.4767 C   0  0  0  0  0  0  0  0  0  0  0  0
   -0.4123   13.4674   -6.4260 N   0  0  0  0  0  0  0  0  0  0  0  0
    0.1713   12.3664   -6.8217 N   0  0  0  0  0  0  0  0  0  0  0  0
   -0.8093   11.5624   -7.1930 C   0  0  0  0  0  0  0  0  0  0  0  0
    0.4224   14.5657   -5.9816 C   0  0  0  0  0  0  0  0  0  0  0  0
   -5.6966   14.2423  -13.2612 N   0  0  0  0  0  0  0  0  0  0  0  0
   -4.9506   15.3153  -13.5405 C   0  0  0  0  0  0  0  0  0  0  0  0
   -3.9383   15.6899  -12.6782 C   0  0  0  0  0  0  0  0  0  0  0  0
   -3.7261   14.9536  -11.5366 C   0  0  0  0  0  0  0  0  0  0  0  0
   -4.5508   13.8769  -11.2437 C   0  0  0  0  0  0  0  0  0  0  0  0
   -2.6976   15.2614  -10.7139 N   0  0  0  0  0  0  0  0  0  0  0  0
   -6.0464   12.2223   -9.8797 H   0  0  0  0  0  0  0  0  0  0  0  0
   -8.1826   10.1089  -13.8914 H   0  0  0  0  0  0  0  0  0  0  0  0
   -7.6841   12.5064  -13.5191 H   0  0  0  0  0  0  0  0  0  0  0  0
   -6.1936   11.5599  -13.8497 H   0  0  0  0  0  0  0  0  0  0  0  0
   -8.0989   10.5499   -7.5868 H   0  0  0  0  0  0  0  0  0  0  0  0
   -7.3874    8.9007   -7.5571 H   0  0  0  0  0  0  0  0  0  0  0  0
   -6.7563   12.3160   -6.9245 H   0  0  0  0  0  0  0  0  0  0  0  0
   -4.5218   13.2977   -6.4798 H   0  0  0  0  0  0  0  0  0  0  0  0
   -2.6703    9.7625   -8.0472 H   0  0  0  0  0  0  0  0  0  0  0  0
   -4.9024    8.7852   -8.4759 H   0  0  0  0  0  0  0  0  0  0  0  0
   -2.4277   14.2118   -6.1857 H   0  0  0  0  0  0  0  0  0  0  0  0
   -0.6637   10.5754   -7.6065 H   0  0  0  0  0  0  0  0  0  0  0  0
    1.4809   14.2752   -6.0543 H   0  0  0  0  0  0  0  0  0  0  0  0
    0.2393   15.4453   -6.6162 H   0  0  0  0  0  0  0  0  0  0  0  0
    0.1804   14.8105   -4.9369 H   0  0  0  0  0  0  0  0  0  0  0  0
   -5.1384   15.8875  -14.4370 H   0  0  0  0  0  0  0  0  0  0  0  0
   -3.3221   16.5493  -12.8978 H   0  0  0  0  0  0  0  0  0  0  0  0
   -4.4255   13.3274  -10.3224 H   0  0  0  0  0  0  0  0  0  0  0  0
   -2.6901   14.6302   -9.9383 H   0  0  0  0  0  0  0  0  0  0  0  0
   -1.8356   15.1840  -11.2148 H   0  0  0  0  0  0  0  0  0  0  0  0
  1  2  2  0  0  0  0
  1  4  1  0  0  0  0
  1 11  1  0  0  0  0
  2  6  1  0  0  0  0
  3  4  1  0  0  0  0
  3  5  2  0  0  0  0
  5  6  1  0  0  0  0
  5  9  1  0  0  0  0
  6  7  2  0  0  0  0
  7  8  1  0  0  0  0
  7 10  1  0  0  0  0
  8  9  2  0  0  0  0
 10 12  1  0  0  0  0
 11 24  2  0  0  0  0
 11 28  1  0  0  0  0
 12 13  2  0  0  0  0
 12 17  1  0  0  0  0
 13 14  1  0  0  0  0
 14 15  2  0  0  0  0
 15 16  1  0  0  0  0
 15 18  1  0  0  0  0
 16 17  2  0  0  0  0
 18 19  2  0  0  0  0
 18 22  1  0  0  0  0
 19 20  1  0  0  0  0
 20 21  1  0  0  0  0
 20 23  1  0  0  0  0
 21 22  2  0  0  0  0
 24 25  1  0  0  0  0
 25 26  2  0  0  0  0
 26 27  1  0  0  0  0
 27 28  2  0  0  0  0
 27 29  1  0  0  0  0
  2 30  1  0  0  0  0
  3 31  1  0  0  0  0
  4 32  1  0  0  0  0
  4 33  1  0  0  0  0
 10 34  1  0  0  0  0
 10 35  1  0  0  0  0
 13 36  1  0  0  0  0
 14 37  1  0  0  0  0
 16 38  1  0  0  0  0
 17 39  1  0  0  0  0
 19 40  1  0  0  0  0
 22 41  1  0  0  0  0
 23 42  1  0  0  0  0
 23 43  1  0  0  0  0
 23 44  1  0  0  0  0
 25 45  1  0  0  0  0
 26 46  1  0  0  0  0
 28 47  1  0  0  0  0
 29 48  1  0  0  0  0
 29 49  1  0  0  0  0
M  END
> <Name>
23

> <IC50[uM]>
0.27

$$$$
23
  -OEChem-05192314333D
 Structure written by MMmdl.
 49 53  0     0  0  0  0  0  0999 V2000
   -6.3775   12.3296  -12.0018 C   0  0  0  0  0  0  0  0  0  0  0  0
   -6.5098   11.7629  -10.7403 C   0  0  0  0  0  0  0  0  0  0  0  0
   -7.7247   10.5660  -13.0266 C   0  0  0  0  0  0  0  0  0  0  0  0
   -6.9942   11.7487  -13.1193 C   0  0  0  0  0  0  0  0  0  0  0  0
   -7.8312   10.0057  -11.7538 C   0  0  0  0  0  0  0  0  0  0  0  0
   -7.2443   10.6021  -10.6070 C   0  0  0  0  0  0  0  0  0  0  0  0
   -7.6167    9.7449   -9.5151 C   0  0  0  0  0  0  0  0  0  0  0  0
   -8.2961    8.7374   -9.9786 N   0  0  0  0  0  0  0  0  0  0  0  0
   -8.4404    8.8724  -11.2937 N   0  0  0  0  0  0  0  0  0  0  0  0
   -7.3318    9.8946   -8.0252 C   0  0  0  0  0  0  0  0  0  0  0  0
   -5.5478   13.5112  -12.1572 C   0  0  0  0  0  0  0  0  0  0  0  0
   -5.9707   10.4870   -7.7351 C   0  0  0  0  0  0  0  0  0  0  0  0
   -5.8642   11.7588   -7.1694 C   0  0  0  0  0  0  0  0  0  0  0  0
   -4.6019   12.3141   -6.9186 C   0  0  0  0  0  0  0  0  0  0  0  0
   -3.4503   11.5963   -7.2357 C   0  0  0  0  0  0  0  0  0  0  0  0
   -3.5604   10.3220   -7.8000 C   0  0  0  0  0  0  0  0  0  0  0  0
   -4.8213    9.7719   -8.0443 C   0  0  0  0  0  0  0  0  0  0  0  0
   -2.0996   12.1710   -6.9757 C   0  0  0  0  0  0  0  0  0  0  0  0
   -1.7487   13.4240   -6.4767 C   0  0  0  0  0  0  0  0  0  0  0  0
   -0.4123   13.4674   -6.4260 N   0  0  0  0  0  0  0  0  0  0  0  0
    0.1713   12.3664   -6.8217 N   0  0  0  0  0  0  0  0  0  0  0  0
   -0.8093   11.5624   -7.1930 C   0  0  0  0  0  0  0  0  0  0  0  0
    0.4224   14.5657   -5.9816 C   0  0  0  0  0  0  0  0  0  0  0  0
   -5.6966   14.2423  -13.2612 N   0  0  0  0  0  0  0  0  0  0  0  0
   -4.9506   15.3153  -13.5405 C   0  0  0  0  0  0  0  0  0  0  0  0
   -3.9383   15.6899  -12.6782 C   0  0  0  0  0  0  0  0  0  0  0  0
   -3.7261   14.9536  -11.5366 C   0  0  0  0  0  0  0  0  0  0  0  0
   -4.5508   13.8769  -11.2437 C   0  0  0  0  0  0  0  0  0  0  0  0
   -2.6976   15.2614  -10.7139 N   0  0  0  0  0  0  0  0  0  0  0  0
   -5.4950   11.5473  -10.3746 H   0  0  0  0  0  0  0  0  0  0  0  0
   -6.9796   12.5188  -10.0939 H   0  0  0  0  0  0  0  0  0  0  0  0
   -8.1826   10.1089  -13.8914 H   0  0  0  0  0  0  0  0  0  0  0  0
   -6.9001   12.2325  -14.0803 H   0  0  0  0  0  0  0  0  0  0  0  0
   -8.0989   10.5499   -7.5868 H   0  0  0  0  0  0  0  0  0  0  0  0
   -7.3874    8.9007   -7.5571 H   0  0  0  0  0  0  0  0  0  0  0  0
   -6.7563   12.3160   -6.9245 H   0  0  0  0  0  0  0  0  0  0  0  0
   -4.5218   13.2977   -6.4798 H   0  0  0  0  0  0  0  0  0  0  0  0
   -2.6703    9.7625   -8.0472 H   0  0  0  0  0  0  0  0  0  0  0  0
   -4.9024    8.7852   -8.4759 H   0  0  0  0  0  0  0  0  0  0  0  0
   -2.4277   14.2118   -6.1857 H   0  0  0  0  0  0  0  0  0  0  0  0
   -0.6637   10.5754   -7.6065 H   0  0  0  0  0  0  0  0  0  0  0  0
    1.4809   14.2752   -6.0543 H   0  0  0  0  0  0  0  0  0  0  0  0
    0.2393   15.4453   -6.6162 H   0  0  0  0  0  0  0  0  0  0  0  0
    0.1804   14.8105   -4.9369 H   0  0  0  0  0  0  0  0  0  0  0  0
   -5.1384   15.8875  -14.4370 H   0  0  0  0  0  0  0  0  0  0  0  0
   -3.3221   16.5493  -12.8978 H   0  0  0  0  0  0  0  0  0  0  0  0
   -4.4255   13.3274  -10.3224 H   0  0  0  0  0  0  0  0  0  0  0  0
   -2.6901   14.6302   -9.9383 H   0  0  0  0  0  0  0  0  0  0  0  0
   -1.8356   15.1840  -11.2148 H   0  0  0  0  0  0  0  0  0  0  0  0
  1  2  1  0  0  0  0
  1  4  2  0  0  0  0
  1 11  1  0  0  0  0
  2  6  1  0  0  0  0
  3  4  1  0  0  0  0
  3  5  2  0  0  0  0
  5  6  1  0  0  0  0
  5  9  1  0  0  0  0
  6  7  2  0  0  0  0
  7  8  1  0  0  0  0
  7 10  1  0  0  0  0
  8  9  2  0  0  0  0
 10 12  1  0  0  0  0
 11 24  2  0  0  0  0
 11 28  1  0  0  0  0
 12 13  2  0  0  0  0
 12 17  1  0  0  0  0
 13 14  1  0  0  0  0
 14 15  2  0  0  0  0
 15 16  1  0  0  0  0
 15 18  1  0  0  0  0
 16 17  2  0  0  0  0
 18 19  2  0  0  0  0
 18 22  1  0  0  0  0
 19 20  1  0  0  0  0
 20 21  1  0  0  0  0
 20 23  1  0  0  0  0
 21 22  2  0  0  0  0
 24 25  1  0  0  0  0
 25 26  2  0  0  0  0
 26 27  1  0  0  0  0
 27 28  2  0  0  0  0
 27 29  1  0  0  0  0
  2 30  1  0  0  0  0
  2 31  1  0  0  0  0
  3 32  1  0  0  0  0
  4 33  1  0  0  0  0
 10 34  1  0  0  0  0
 10 35  1  0  0  0  0
 13 36  1  0  0  0  0
 14 37  1  0  0  0  0
 16 38  1  0  0  0  0
 17 39  1  0  0  0  0
 19 40  1  0  0  0  0
 22 41  1  0  0  0  0
 23 42  1  0  0  0  0
 23 43  1  0  0  0  0
 23 44  1  0  0  0  0
 25 45  1  0  0  0  0
 26 46  1  0  0  0  0
 28 47  1  0  0  0  0
 29 48  1  0  0  0  0
 29 49  1  0  0  0  0
M  END
> <Name>
23

> <IC50[uM]>
0.27

$$$$
23
  -OEChem-05192314333D
 Structure written by MMmdl.
 49 53  0     1  0  0  0  0  0999 V2000
   -6.3775   12.3296  -12.0018 C   0  0  0  0  0  0  0  0  0  0  0  0
   -6.5098   11.7629  -10.7403 C   0  0  0  0  0  0  0  0  0  0  0  0
   -7.7247   10.5660  -13.0266 C   0  0  0  0  0  0  0  0  0  0  0  0
   -6.9942   11.7487  -13.1193 C   0  0  0  0  0  0  0  0  0  0  0  0
   -7.8312   10.0057  -11.7538 C   0  0  0  0  0  0  0  0  0  0  0  0
   -7.2443   10.6021  -10.6070 C   0  0  3  0  0  0  0  0  0  0  0  0
   -7.6167    9.7449   -9.5151 C   0  0  0  0  0  0  0  0  0  0  0  0
   -8.2961    8.7374   -9.9786 N   0  0  0  0  0  0  0  0  0  0  0  0
   -8.4404    8.8724  -11.2937 N   0  0  0  0  0  0  0  0  0  0  0  0
   -7.3318    9.8946   -8.0252 C   0  0  0  0  0  0  0  0  0  0  0  0
   -5.5478   13.5112  -12.1572 C   0  0  0  0  0  0  0  0  0  0  0  0
   -5.9707   10.4870   -7.7351 C   0  0  0  0  0  0  0  0  0  0  0  0
   -5.8642   11.7588   -7.1694 C   0  0  0  0  0  0  0  0  0  0  0  0
   -4.6019   12.3141   -6.9186 C   0  0  0  0  0  0  0  0  0  0  0  0
   -3.4503   11.5963   -7.2357 C   0  0  0  0  0  0  0  0  0  0  0  0
   -3.5604   10.3220   -7.8000 C   0  0  0  0  0  0  0  0  0  0  0  0
   -4.8213    9.7719   -8.0443 C   0  0  0  0  0  0  0  0  0  0  0  0
   -2.0996   12.1710   -6.9757 C   0  0  0  0  0  0  0  0  0  0  0  0
   -1.7487   13.4240   -6.4767 C   0  0  0  0  0  0  0  0  0  0  0  0
   -0.4123   13.4674   -6.4260 N   0  0  0  0  0  0  0  0  0  0  0  0
    0.1713   12.3664   -6.8217 N   0  0  0  0  0  0  0  0  0  0  0  0
   -0.8093   11.5624   -7.1930 C   0  0  0  0  0  0  0  0  0  0  0  0
    0.4224   14.5657   -5.9816 C   0  0  0  0  0  0  0  0  0  0  0  0
   -5.6966   14.2423  -13.2612 N   0  0  0  0  0  0  0  0  0  0  0  0
   -4.9506   15.3153  -13.5405 C   0  0  0  0  0  0  0  0  0  0  0  0
   -3.9383   15.6899  -12.6782 C   0  0  0  0  0  0  0  0  0  0  0  0
   -3.7261   14.9536  -11.5366 C   0  0  0  0  0  0  0  0  0  0  0  0
   -4.5508   13.8769  -11.2437 C   0  0  0  0  0  0  0  0  0  0  0  0
   -2.6976   15.2614  -10.7139 N   0  0  0  0  0  0  0  0  0  0  0  0
   -6.0464   12.2223   -9.8797 H   0  0  0  0  0  0  0  0  0  0  0  0
   -8.1826   10.1089  -13.8914 H   0  0  0  0  0  0  0  0  0  0  0  0
   -6.9001   12.2325  -14.0803 H   0  0  0  0  0  0  0  0  0  0  0  0
   -6.3326   10.0069  -10.7637 H   0  0  0  0  0  0  0  0  0  0  0  0
   -8.6538    7.9802   -9.4320 H   0  0  0  0  0  0  0  0  0  0  0  0
   -8.0313    9.6067   -7.2544 H   0  0  0  0  0  0  0  0  0  0  0  0
   -6.7563   12.3160   -6.9245 H   0  0  0  0  0  0  0  0  0  0  0  0
   -4.5218   13.2977   -6.4798 H   0  0  0  0  0  0  0  0  0  0  0  0
   -2.6703    9.7625   -8.0472 H   0  0  0  0  0  0  0  0  0  0  0  0
   -4.9024    8.7852   -8.4759 H   0  0  0  0  0  0  0  0  0  0  0  0
   -2.4277   14.2118   -6.1857 H   0  0  0  0  0  0  0  0  0  0  0  0
   -0.6637   10.5754   -7.6065 H   0  0  0  0  0  0  0  0  0  0  0  0
    1.4809   14.2752   -6.0543 H   0  0  0  0  0  0  0  0  0  0  0  0
    0.2393   15.4453   -6.6162 H   0  0  0  0  0  0  0  0  0  0  0  0
    0.1804   14.8105   -4.9369 H   0  0  0  0  0  0  0  0  0  0  0  0
   -5.1384   15.8875  -14.4370 H   0  0  0  0  0  0  0  0  0  0  0  0
   -3.3221   16.5493  -12.8978 H   0  0  0  0  0  0  0  0  0  0  0  0
   -4.4255   13.3274  -10.3224 H   0  0  0  0  0  0  0  0  0  0  0  0
   -2.6901   14.6302   -9.9383 H   0  0  0  0  0  0  0  0  0  0  0  0
   -1.8356   15.1840  -11.2148 H   0  0  0  0  0  0  0  0  0  0  0  0
  1  2  2  0  0  0  0
  1  4  1  0  0  0  0
  1 11  1  0  0  0  0
  2  6  1  0  0  0  0
  3  4  2  0  0  0  0
  3  5  1  0  0  0  0
  5  6  1  0  0  0  0
  5  9  2  0  0  0  0
  6  7  1  0  0  0  0
  7  8  1  0  0  0  0
  7 10  2  3  0  0  0
  8  9  1  0  0  0  0
 10 12  1  0  0  0  0
 11 24  2  0  0  0  0
 11 28  1  0  0  0  0
 12 13  2  0  0  0  0
 12 17  1  0  0  0  0
 13 14  1  0  0  0  0
 14 15  2  0  0  0  0
 15 16  1  0  0  0  0
 15 18  1  0  0  0  0
 16 17  2  0  0  0  0
 18 19  2  0  0  0  0
 18 22  1  0  0  0  0
 19 20  1  0  0  0  0
 20 21  1  0  0  0  0
 20 23  1  0  0  0  0
 21 22  2  0  0  0  0
 24 25  1  0  0  0  0
 25 26  2  0  0  0  0
 26 27  1  0  0  0  0
 27 28  2  0  0  0  0
 27 29  1  0  0  0  0
  2 30  1  0  0  0  0
  3 31  1  0  0  0  0
  4 32  1  0  0  0  0
  6 33  1  0  0  0  0
  8 34  1  0  0  0  0
 10 35  1  0  0  0  0
 13 36  1  0  0  0  0
 14 37  1  0  0  0  0
 16 38  1  0  0  0  0
 17 39  1  0  0  0  0
 19 40  1  0  0  0  0
 22 41  1  0  0  0  0
 23 42  1  0  0  0  0
 23 43  1  0  0  0  0
 23 44  1  0  0  0  0
 25 45  1  0  0  0  0
 26 46  1  0  0  0  0
 28 47  1  0  0  0  0
 29 48  1  0  0  0  0
 29 49  1  0  0  0  0
M  END
> <Name>
23

> <IC50[uM]>
0.27

$$$$
23
  -OEChem-05192314333D
 Structure written by MMmdl.
 49 53  0     1  0  0  0  0  0999 V2000
   -6.3775   12.3296  -12.0018 C   0  0  3  0  0  0  0  0  0  0  0  0
   -6.5098   11.7629  -10.7403 C   0  0  0  0  0  0  0  0  0  0  0  0
   -7.7247   10.5660  -13.0266 C   0  0  0  0  0  0  0  0  0  0  0  0
   -6.9942   11.7487  -13.1193 C   0  0  0  0  0  0  0  0  0  0  0  0
   -7.8312   10.0057  -11.7538 C   0  0  0  0  0  0  0  0  0  0  0  0
   -7.2443   10.6021  -10.6070 C   0  0  0  0  0  0  0  0  0  0  0  0
   -7.6167    9.7449   -9.5151 C   0  0  0  0  0  0  0  0  0  0  0  0
   -8.2961    8.7374   -9.9786 N   0  0  0  0  0  0  0  0  0  0  0  0
   -8.4404    8.8724  -11.2937 N   0  0  0  0  0  0  0  0  0  0  0  0
   -7.3318    9.8946   -8.0252 C   0  0  0  0  0  0  0  0  0  0  0  0
   -5.5478   13.5112  -12.1572 C   0  0  0  0  0  0  0  0  0  0  0  0
   -5.9707   10.4870   -7.7351 C   0  0  0  0  0  0  0  0  0  0  0  0
   -5.8642   11.7588   -7.1694 C   0  0  0  0  0  0  0  0  0  0  0  0
   -4.6019   12.3141   -6.9186 C   0  0  0  0  0  0  0  0  0  0  0  0
   -3.4503   11.5963   -7.2357 C   0  0  0  0  0  0  0  0  0  0  0  0
   -3.5604   10.3220   -7.8000 C   0  0  0  0  0  0  0  0  0  0  0  0
   -4.8213    9.7719   -8.0443 C   0  0  0  0  0  0  0  0  0  0  0  0
   -2.0996   12.1710   -6.9757 C   0  0  0  0  0  0  0  0  0  0  0  0
   -1.7487   13.4240   -6.4767 C   0  0  0  0  0  0  0  0  0  0  0  0
   -0.4123   13.4674   -6.4260 N   0  0  0  0  0  0  0  0  0  0  0  0
    0.1713   12.3664   -6.8217 N   0  0  0  0  0  0  0  0  0  0  0  0
   -0.8093   11.5624   -7.1930 C   0  0  0  0  0  0  0  0  0  0  0  0
    0.4224   14.5657   -5.9816 C   0  0  0  0  0  0  0  0  0  0  0  0
   -5.6966   14.2423  -13.2612 N   0  0  0  0  0  0  0  0  0  0  0  0
   -4.9506   15.3153  -13.5405 C   0  0  0  0  0  0  0  0  0  0  0  0
   -3.9383   15.6899  -12.6782 C   0  0  0  0  0  0  0  0  0  0  0  0
   -3.7261   14.9536  -11.5366 C   0  0  0  0  0  0  0  0  0  0  0  0
   -4.5508   13.8769  -11.2437 C   0  0  0  0  0  0  0  0  0  0  0  0
   -2.6976   15.2614  -10.7139 N   0  0  0  0  0  0  0  0  0  0  0  0
   -7.2621   12.9592  -11.8254 H   0  0  0  0  0  0  0  0  0  0  0  0
   -6.0464   12.2223   -9.8797 H   0  0  0  0  0  0  0  0  0  0  0  0
   -8.1826   10.1089  -13.8914 H   0  0  0  0  0  0  0  0  0  0  0  0
   -6.9001   12.2325  -14.0803 H   0  0  0  0  0  0  0  0  0  0  0  0
   -8.0989   10.5499   -7.5868 H   0  0  0  0  0  0  0  0  0  0  0  0
   -7.3874    8.9007   -7.5571 H   0  0  0  0  0  0  0  0  0  0  0  0
   -6.7563   12.3160   -6.9245 H   0  0  0  0  0  0  0  0  0  0  0  0
   -4.5218   13.2977   -6.4798 H   0  0  0  0  0  0  0  0  0  0  0  0
   -2.6703    9.7625   -8.0472 H   0  0  0  0  0  0  0  0  0  0  0  0
   -4.9024    8.7852   -8.4759 H   0  0  0  0  0  0  0  0  0  0  0  0
   -2.4277   14.2118   -6.1857 H   0  0  0  0  0  0  0  0  0  0  0  0
   -0.6637   10.5754   -7.6065 H   0  0  0  0  0  0  0  0  0  0  0  0
    1.4809   14.2752   -6.0543 H   0  0  0  0  0  0  0  0  0  0  0  0
    0.2393   15.4453   -6.6162 H   0  0  0  0  0  0  0  0  0  0  0  0
    0.1804   14.8105   -4.9369 H   0  0  0  0  0  0  0  0  0  0  0  0
   -6.4038   13.9739  -13.9153 H   0  0  0  0  0  0  0  0  0  0  0  0
   -5.1384   15.8875  -14.4370 H   0  0  0  0  0  0  0  0  0  0  0  0
   -3.3221   16.5493  -12.8978 H   0  0  0  0  0  0  0  0  0  0  0  0
   -4.4255   13.3274  -10.3224 H   0  0  0  0  0  0  0  0  0  0  0  0
   -2.6419   14.6376   -9.9343 H   0  0  0  0  0  0  0  0  0  0  0  0
  1  2  1  0  0  0  0
  1  4  1  0  0  0  0
  1 11  1  0  0  0  0
  2  6  2  0  0  0  0
  3  4  2  0  0  0  0
  3  5  1  0  0  0  0
  5  6  1  0  0  0  0
  5  9  2  0  0  0  0
  6  7  1  0  0  0  0
  7  8  2  0  0  0  0
  7 10  1  0  0  0  0
  8  9  1  0  0  0  0
 10 12  1  0  0  0  0
 11 24  1  0  0  0  0
 11 28  2  0  0  0  0
 12 13  2  0  0  0  0
 12 17  1  0  0  0  0
 13 14  1  0  0  0  0
 14 15  2  0  0  0  0
 15 16  1  0  0  0  0
 15 18  1  0  0  0  0
 16 17  2  0  0  0  0
 18 19  2  0  0  0  0
 18 22  1  0  0  0  0
 19 20  1  0  0  0  0
 20 21  1  0  0  0  0
 20 23  1  0  0  0  0
 21 22  2  0  0  0  0
 24 25  1  0  0  0  0
 25 26  2  0  0  0  0
 26 27  1  0  0  0  0
 27 28  1  0  0  0  0
 27 29  2  0  0  0  0
  1 30  1  0  0  0  0
  2 31  1  0  0  0  0
  3 32  1  0  0  0  0
  4 33  1  0  0  0  0
 10 34  1  0  0  0  0
 10 35  1  0  0  0  0
 13 36  1  0  0  0  0
 14 37  1  0  0  0  0
 16 38  1  0  0  0  0
 17 39  1  0  0  0  0
 19 40  1  0  0  0  0
 22 41  1  0  0  0  0
 23 42  1  0  0  0  0
 23 43  1  0  0  0  0
 23 44  1  0  0  0  0
 24 45  1  0  0  0  0
 25 46  1  0  0  0  0
 26 47  1  0  0  0  0
 28 48  1  0  0  0  0
 29 49  1  0  0  0  0
M  END
> <Name>
23

> <IC50[uM]>
0.27

$$$$
23
  -OEChem-05192314333D
 Structure written by MMmdl.
 49 53  0     1  0  0  0  0  0999 V2000
   -6.3775   12.3296  -12.0018 C   0  0  0  0  0  0  0  0  0  0  0  0
   -6.5098   11.7629  -10.7403 C   0  0  0  0  0  0  0  0  0  0  0  0
   -7.7247   10.5660  -13.0266 C   0  0  0  0  0  0  0  0  0  0  0  0
   -6.9942   11.7487  -13.1193 C   0  0  0  0  0  0  0  0  0  0  0  0
   -7.8312   10.0057  -11.7538 C   0  0  0  0  0  0  0  0  0  0  0  0
   -7.2443   10.6021  -10.6070 C   0  0  3  0  0  0  0  0  0  0  0  0
   -7.6167    9.7449   -9.5151 C   0  0  0  0  0  0  0  0  0  0  0  0
   -8.2961    8.7374   -9.9786 N   0  0  0  0  0  0  0  0  0  0  0  0
   -8.4404    8.8724  -11.2937 N   0  0  0  0  0  0  0  0  0  0  0  0
   -7.3318    9.8946   -8.0252 C   0  0  0  0  0  0  0  0  0  0  0  0
   -5.5478   13.5112  -12.1572 C   0  0  0  0  0  0  0  0  0  0  0  0
   -5.9707   10.4870   -7.7351 C   0  0  0  0  0  0  0  0  0  0  0  0
   -5.8642   11.7588   -7.1694 C   0  0  0  0  0  0  0  0  0  0  0  0
   -4.6019   12.3141   -6.9186 C   0  0  0  0  0  0  0  0  0  0  0  0
   -3.4503   11.5963   -7.2357 C   0  0  0  0  0  0  0  0  0  0  0  0
   -3.5604   10.3220   -7.8000 C   0  0  0  0  0  0  0  0  0  0  0  0
   -4.8213    9.7719   -8.0443 C   0  0  0  0  0  0  0  0  0  0  0  0
   -2.0996   12.1710   -6.9757 C   0  0  0  0  0  0  0  0  0  0  0  0
   -1.7487   13.4240   -6.4767 C   0  0  0  0  0  0  0  0  0  0  0  0
   -0.4123   13.4674   -6.4260 N   0  0  0  0  0  0  0  0  0  0  0  0
    0.1713   12.3664   -6.8217 N   0  0  0  0  0  0  0  0  0  0  0  0
   -0.8093   11.5624   -7.1930 C   0  0  0  0  0  0  0  0  0  0  0  0
    0.4224   14.5657   -5.9816 C   0  0  0  0  0  0  0  0  0  0  0  0
   -5.6966   14.2423  -13.2612 N   0  0  0  0  0  0  0  0  0  0  0  0
   -4.9506   15.3153  -13.5405 C   0  0  0  0  0  0  0  0  0  0  0  0
   -3.9383   15.6899  -12.6782 C   0  0  0  0  0  0  0  0  0  0  0  0
   -3.7261   14.9536  -11.5366 C   0  0  0  0  0  0  0  0  0  0  0  0
   -4.5508   13.8769  -11.2437 C   0  0  0  0  0  0  0  0  0  0  0  0
   -2.6976   15.2614  -10.7139 N   0  0  0  0  0  0  0  0  0  0  0  0
   -6.0464   12.2223   -9.8797 H   0  0  0  0  0  0  0  0  0  0  0  0
   -8.1826   10.1089  -13.8914 H   0  0  0  0  0  0  0  0  0  0  0  0
   -6.9001   12.2325  -14.0803 H   0  0  0  0  0  0  0  0  0  0  0  0
   -6.3326   10.0069  -10.7637 H   0  0  0  0  0  0  0  0  0  0  0  0
   -8.0989   10.5499   -7.5868 H   0  0  0  0  0  0  0  0  0  0  0  0
   -7.3874    8.9007   -7.5571 H   0  0  0  0  0  0  0  0  0  0  0  0
   -6.7563   12.3160   -6.9245 H   0  0  0  0  0  0  0  0  0  0  0  0
   -4.5218   13.2977   -6.4798 H   0  0  0  0  0  0  0  0  0  0  0  0
   -2.6703    9.7625   -8.0472 H   0  0  0  0  0  0  0  0  0  0  0  0
   -4.9024    8.7852   -8.4759 H   0  0  0  0  0  0  0  0  0  0  0  0
   -2.4277   14.2118   -6.1857 H   0  0  0  0  0  0  0  0  0  0  0  0
   -0.6637   10.5754   -7.6065 H   0  0  0  0  0  0  0  0  0  0  0  0
    1.4809   14.2752   -6.0543 H   0  0  0  0  0  0  0  0  0  0  0  0
    0.2393   15.4453   -6.6162 H   0  0  0  0  0  0  0  0  0  0  0  0
    0.1804   14.8105   -4.9369 H   0  0  0  0  0  0  0  0  0  0  0  0
   -6.4038   13.9739  -13.9153 H   0  0  0  0  0  0  0  0  0  0  0  0
   -5.1384   15.8875  -14.4370 H   0  0  0  0  0  0  0  0  0  0  0  0
   -3.3221   16.5493  -12.8978 H   0  0  0  0  0  0  0  0  0  0  0  0
   -4.4255   13.3274  -10.3224 H   0  0  0  0  0  0  0  0  0  0  0  0
   -2.6419   14.6376   -9.9343 H   0  0  0  0  0  0  0  0  0  0  0  0
  1  2  2  0  0  0  0
  1  4  1  0  0  0  0
  1 11  1  0  0  0  0
  2  6  1  0  0  0  0
  3  4  2  0  0  0  0
  3  5  1  0  0  0  0
  5  6  1  0  0  0  0
  5  9  2  0  0  0  0
  6  7  1  0  0  0  0
  7  8  2  0  0  0  0
  7 10  1  0  0  0  0
  8  9  1  0  0  0  0
 10 12  1  0  0  0  0
 11 24  1  0  0  0  0
 11 28  2  0  0  0  0
 12 13  2  0  0  0  0
 12 17  1  0  0  0  0
 13 14  1  0  0  0  0
 14 15  2  0  0  0  0
 15 16  1  0  0  0  0
 15 18  1  0  0  0  0
 16 17  2  0  0  0  0
 18 19  2  0  0  0  0
 18 22  1  0  0  0  0
 19 20  1  0  0  0  0
 20 21  1  0  0  0  0
 20 23  1  0  0  0  0
 21 22  2  0  0  0  0
 24 25  1  0  0  0  0
 25 26  2  0  0  0  0
 26 27  1  0  0  0  0
 27 28  1  0  0  0  0
 27 29  2  0  0  0  0
  2 30  1  0  0  0  0
  3 31  1  0  0  0  0
  4 32  1  0  0  0  0
  6 33  1  0  0  0  0
 10 34  1  0  0  0  0
 10 35  1  0  0  0  0
 13 36  1  0  0  0  0
 14 37  1  0  0  0  0
 16 38  1  0  0  0  0
 17 39  1  0  0  0  0
 19 40  1  0  0  0  0
 22 41  1  0  0  0  0
 23 42  1  0  0  0  0
 23 43  1  0  0  0  0
 23 44  1  0  0  0  0
 24 45  1  0  0  0  0
 25 46  1  0  0  0  0
 26 47  1  0  0  0  0
 28 48  1  0  0  0  0
 29 49  1  0  0  0  0
M  END
> <Name>
23

> <IC50[uM]>
0.27

$$$$
23
  -OEChem-05192314333D
 Structure written by MMmdl.
 49 53  0     0  0  0  0  0  0999 V2000
   -6.3775   12.3296  -12.0018 C   0  0  0  0  0  0  0  0  0  0  0  0
   -6.5098   11.7629  -10.7403 C   0  0  0  0  0  0  0  0  0  0  0  0
   -7.7247   10.5660  -13.0266 C   0  0  0  0  0  0  0  0  0  0  0  0
   -6.9942   11.7487  -13.1193 C   0  0  0  0  0  0  0  0  0  0  0  0
   -7.8312   10.0057  -11.7538 C   0  0  0  0  0  0  0  0  0  0  0  0
   -7.2443   10.6021  -10.6070 C   0  0  0  0  0  0  0  0  0  0  0  0
   -7.6167    9.7449   -9.5151 C   0  0  0  0  0  0  0  0  0  0  0  0
   -8.2961    8.7374   -9.9786 N   0  0  0  0  0  0  0  0  0  0  0  0
   -8.4404    8.8724  -11.2937 N   0  0  0  0  0  0  0  0  0  0  0  0
   -7.3318    9.8946   -8.0252 C   0  0  0  0  0  0  0  0  0  0  0  0
   -5.5478   13.5112  -12.1572 C   0  0  0  0  0  0  0  0  0  0  0  0
   -5.9707   10.4870   -7.7351 C   0  0  0  0  0  0  0  0  0  0  0  0
   -5.8642   11.7588   -7.1694 C   0  0  0  0  0  0  0  0  0  0  0  0
   -4.6019   12.3141   -6.9186 C   0  0  0  0  0  0  0  0  0  0  0  0
   -3.4503   11.5963   -7.2357 C   0  0  0  0  0  0  0  0  0  0  0  0
   -3.5604   10.3220   -7.8000 C   0  0  0  0  0  0  0  0  0  0  0  0
   -4.8213    9.7719   -8.0443 C   0  0  0  0  0  0  0  0  0  0  0  0
   -2.0996   12.1710   -6.9757 C   0  0  0  0  0  0  0  0  0  0  0  0
   -1.7487   13.4240   -6.4767 C   0  0  0  0  0  0  0  0  0  0  0  0
   -0.4123   13.4674   -6.4260 N   0  0  0  0  0  0  0  0  0  0  0  0
    0.1713   12.3664   -6.8217 N   0  0  0  0  0  0  0  0  0  0  0  0
   -0.8093   11.5624   -7.1930 C   0  0  0  0  0  0  0  0  0  0  0  0
    0.4224   14.5657   -5.9816 C   0  0  0  0  0  0  0  0  0  0  0  0
   -5.6966   14.2423  -13.2612 N   0  0  0  0  0  0  0  0  0  0  0  0
   -4.9506   15.3153  -13.5405 C   0  0  0  0  0  0  0  0  0  0  0  0
   -3.9383   15.6899  -12.6782 C   0  0  0  0  0  0  0  0  0  0  0  0
   -3.7261   14.9536  -11.5366 C   0  0  0  0  0  0  0  0  0  0  0  0
   -4.5508   13.8769  -11.2437 C   0  0  0  0  0  0  0  0  0  0  0  0
   -2.6976   15.2614  -10.7139 N   0  0  0  0  0  0  0  0  0  0  0  0
   -6.0464   12.2223   -9.8797 H   0  0  0  0  0  0  0  0  0  0  0  0
   -8.7428   10.7712  -13.3891 H   0  0  0  0  0  0  0  0  0  0  0  0
   -7.2451    9.8233  -13.6811 H   0  0  0  0  0  0  0  0  0  0  0  0
   -6.9001   12.2325  -14.0803 H   0  0  0  0  0  0  0  0  0  0  0  0
   -8.0989   10.5499   -7.5868 H   0  0  0  0  0  0  0  0  0  0  0  0
   -7.3874    8.9007   -7.5571 H   0  0  0  0  0  0  0  0  0  0  0  0
   -6.7563   12.3160   -6.9245 H   0  0  0  0  0  0  0  0  0  0  0  0
   -4.5218   13.2977   -6.4798 H   0  0  0  0  0  0  0  0  0  0  0  0
   -2.6703    9.7625   -8.0472 H   0  0  0  0  0  0  0  0  0  0  0  0
   -4.9024    8.7852   -8.4759 H   0  0  0  0  0  0  0  0  0  0  0  0
   -2.4277   14.2118   -6.1857 H   0  0  0  0  0  0  0  0  0  0  0  0
   -0.6637   10.5754   -7.6065 H   0  0  0  0  0  0  0  0  0  0  0  0
    1.4809   14.2752   -6.0543 H   0  0  0  0  0  0  0  0  0  0  0  0
    0.2393   15.4453   -6.6162 H   0  0  0  0  0  0  0  0  0  0  0  0
    0.1804   14.8105   -4.9369 H   0  0  0  0  0  0  0  0  0  0  0  0
   -6.4038   13.9739  -13.9153 H   0  0  0  0  0  0  0  0  0  0  0  0
   -5.1384   15.8875  -14.4370 H   0  0  0  0  0  0  0  0  0  0  0  0
   -3.3221   16.5493  -12.8978 H   0  0  0  0  0  0  0  0  0  0  0  0
   -4.4255   13.3274  -10.3224 H   0  0  0  0  0  0  0  0  0  0  0  0
   -2.6419   14.6376   -9.9343 H   0  0  0  0  0  0  0  0  0  0  0  0
  1  2  1  0  0  0  0
  1  4  2  0  0  0  0
  1 11  1  0  0  0  0
  2  6  2  0  0  0  0
  3  4  1  0  0  0  0
  3  5  1  0  0  0  0
  5  6  1  0  0  0  0
  5  9  2  0  0  0  0
  6  7  1  0  0  0  0
  7  8  2  0  0  0  0
  7 10  1  0  0  0  0
  8  9  1  0  0  0  0
 10 12  1  0  0  0  0
 11 24  1  0  0  0  0
 11 28  2  0  0  0  0
 12 13  2  0  0  0  0
 12 17  1  0  0  0  0
 13 14  1  0  0  0  0
 14 15  2  0  0  0  0
 15 16  1  0  0  0  0
 15 18  1  0  0  0  0
 16 17  2  0  0  0  0
 18 19  2  0  0  0  0
 18 22  1  0  0  0  0
 19 20  1  0  0  0  0
 20 21  1  0  0  0  0
 20 23  1  0  0  0  0
 21 22  2  0  0  0  0
 24 25  1  0  0  0  0
 25 26  2  0  0  0  0
 26 27  1  0  0  0  0
 27 28  1  0  0  0  0
 27 29  2  0  0  0  0
  2 30  1  0  0  0  0
  3 31  1  0  0  0  0
  3 32  1  0  0  0  0
  4 33  1  0  0  0  0
 10 34  1  0  0  0  0
 10 35  1  0  0  0  0
 13 36  1  0  0  0  0
 14 37  1  0  0  0  0
 16 38  1  0  0  0  0
 17 39  1  0  0  0  0
 19 40  1  0  0  0  0
 22 41  1  0  0  0  0
 23 42  1  0  0  0  0
 23 43  1  0  0  0  0
 23 44  1  0  0  0  0
 24 45  1  0  0  0  0
 25 46  1  0  0  0  0
 26 47  1  0  0  0  0
 28 48  1  0  0  0  0
 29 49  1  0  0  0  0
M  END
> <Name>
23

> <IC50[uM]>
0.27

$$$$
23
  -OEChem-05192314333D
 Structure written by MMmdl.
 49 53  0     0  0  0  0  0  0999 V2000
   -6.3775   12.3296  -12.0018 C   0  0  0  0  0  0  0  0  0  0  0  0
   -6.5098   11.7629  -10.7403 C   0  0  0  0  0  0  0  0  0  0  0  0
   -7.7247   10.5660  -13.0266 C   0  0  0  0  0  0  0  0  0  0  0  0
   -6.9942   11.7487  -13.1193 C   0  0  0  0  0  0  0  0  0  0  0  0
   -7.8312   10.0057  -11.7538 C   0  0  0  0  0  0  0  0  0  0  0  0
   -7.2443   10.6021  -10.6070 C   0  0  0  0  0  0  0  0  0  0  0  0
   -7.6167    9.7449   -9.5151 C   0  0  0  0  0  0  0  0  0  0  0  0
   -8.2961    8.7374   -9.9786 N   0  0  0  0  0  0  0  0  0  0  0  0
   -8.4404    8.8724  -11.2937 N   0  0  0  0  0  0  0  0  0  0  0  0
   -7.3318    9.8946   -8.0252 C   0  0  0  0  0  0  0  0  0  0  0  0
   -5.5478   13.5112  -12.1572 C   0  0  0  0  0  0  0  0  0  0  0  0
   -5.9707   10.4870   -7.7351 C   0  0  0  0  0  0  0  0  0  0  0  0
   -5.8642   11.7588   -7.1694 C   0  0  0  0  0  0  0  0  0  0  0  0
   -4.6019   12.3141   -6.9186 C   0  0  0  0  0  0  0  0  0  0  0  0
   -3.4503   11.5963   -7.2357 C   0  0  0  0  0  0  0  0  0  0  0  0
   -3.5604   10.3220   -7.8000 C   0  0  0  0  0  0  0  0  0  0  0  0
   -4.8213    9.7719   -8.0443 C   0  0  0  0  0  0  0  0  0  0  0  0
   -2.0996   12.1710   -6.9757 C   0  0  0  0  0  0  0  0  0  0  0  0
   -1.7487   13.4240   -6.4767 C   0  0  0  0  0  0  0  0  0  0  0  0
   -0.4123   13.4674   -6.4260 N   0  0  0  0  0  0  0  0  0  0  0  0
    0.1713   12.3664   -6.8217 N   0  0  0  0  0  0  0  0  0  0  0  0
   -0.8093   11.5624   -7.1930 C   0  0  0  0  0  0  0  0  0  0  0  0
    0.4224   14.5657   -5.9816 C   0  0  0  0  0  0  0  0  0  0  0  0
   -5.6966   14.2423  -13.2612 N   0  0  0  0  0  0  0  0  0  0  0  0
   -4.9506   15.3153  -13.5405 C   0  0  0  0  0  0  0  0  0  0  0  0
   -3.9383   15.6899  -12.6782 C   0  0  0  0  0  0  0  0  0  0  0  0
   -3.7261   14.9536  -11.5366 C   0  0  0  0  0  0  0  0  0  0  0  0
   -4.5508   13.8769  -11.2437 C   0  0  0  0  0  0  0  0  0  0  0  0
   -2.6976   15.2614  -10.7139 N   0  0  0  0  0  0  0  0  0  0  0  0
   -6.0464   12.2223   -9.8797 H   0  0  0  0  0  0  0  0  0  0  0  0
   -8.1826   10.1089  -13.8914 H   0  0  0  0  0  0  0  0  0  0  0  0
   -6.9001   12.2325  -14.0803 H   0  0  0  0  0  0  0  0  0  0  0  0
   -8.0313    9.6067   -7.2544 H   0  0  0  0  0  0  0  0  0  0  0  0
   -5.9850   10.0375   -6.7313 H   0  0  0  0  0  0  0  0  0  0  0  0
   -6.7563   12.3160   -6.9245 H   0  0  0  0  0  0  0  0  0  0  0  0
   -4.5218   13.2977   -6.4798 H   0  0  0  0  0  0  0  0  0  0  0  0
   -3.4477   12.0425   -8.2411 H   0  0  0  0  0  0  0  0  0  0  0  0
   -2.6703    9.7625   -8.0472 H   0  0  0  0  0  0  0  0  0  0  0  0
   -4.9024    8.7852   -8.4759 H   0  0  0  0  0  0  0  0  0  0  0  0
   -2.4277   14.2118   -6.1857 H   0  0  0  0  0  0  0  0  0  0  0  0
   -0.6637   10.5754   -7.6065 H   0  0  0  0  0  0  0  0  0  0  0  0
    1.4809   14.2752   -6.0543 H   0  0  0  0  0  0  0  0  0  0  0  0
    0.2393   15.4453   -6.6162 H   0  0  0  0  0  0  0  0  0  0  0  0
    0.1804   14.8105   -4.9369 H   0  0  0  0  0  0  0  0  0  0  0  0
   -6.4038   13.9739  -13.9153 H   0  0  0  0  0  0  0  0  0  0  0  0
   -5.1384   15.8875  -14.4370 H   0  0  0  0  0  0  0  0  0  0  0  0
   -3.3221   16.5493  -12.8978 H   0  0  0  0  0  0  0  0  0  0  0  0
   -4.4255   13.3274  -10.3224 H   0  0  0  0  0  0  0  0  0  0  0  0
   -2.6419   14.6376   -9.9343 H   0  0  0  0  0  0  0  0  0  0  0  0
  1  2  2  0  0  0  0
  1  4  1  0  0  0  0
  1 11  1  0  0  0  0
  2  6  1  0  0  0  0
  3  4  2  0  0  0  0
  3  5  1  0  0  0  0
  5  6  2  0  0  0  0
  5  9  1  0  0  0  0
  6  7  1  0  0  0  0
  7  8  1  0  0  0  0
  7 10  2  3  0  0  0
  8  9  2  0  0  0  0
 10 12  1  0  0  0  0
 11 24  1  0  0  0  0
 11 28  2  0  0  0  0
 12 13  1  0  0  0  0
 12 17  1  0  0  0  0
 13 14  2  0  0  0  0
 14 15  1  0  0  0  0
 15 16  1  0  0  0  0
 15 18  1  0  0  0  0
 16 17  2  0  0  0  0
 18 19  2  0  0  0  0
 18 22  1  0  0  0  0
 19 20  1  0  0  0  0
 20 21  1  0  0  0  0
 20 23  1  0  0  0  0
 21 22  2  0  0  0  0
 24 25  1  0  0  0  0
 25 26  2  0  0  0  0
 26 27  1  0  0  0  0
 27 28  1  0  0  0  0
 27 29  2  0  0  0  0
  2 30  1  0  0  0  0
  3 31  1  0  0  0  0
  4 32  1  0  0  0  0
 10 33  1  0  0  0  0
 12 34  1  0  0  0  0
 13 35  1  0  0  0  0
 14 36  1  0  0  0  0
 15 37  1  0  0  0  0
 16 38  1  0  0  0  0
 17 39  1  0  0  0  0
 19 40  1  0  0  0  0
 22 41  1  0  0  0  0
 23 42  1  0  0  0  0
 23 43  1  0  0  0  0
 23 44  1  0  0  0  0
 24 45  1  0  0  0  0
 25 46  1  0  0  0  0
 26 47  1  0  0  0  0
 28 48  1  0  0  0  0
 29 49  1  0  0  0  0
M  END
> <Name>
23

> <IC50[uM]>
0.27

$$$$
23
  -OEChem-05192314333D
 Structure written by MMmdl.
 49 53  0     1  0  0  0  0  0999 V2000
   -6.3775   12.3296  -12.0018 C   0  0  0  0  0  0  0  0  0  0  0  0
   -6.5098   11.7629  -10.7403 C   0  0  0  0  0  0  0  0  0  0  0  0
   -7.7247   10.5660  -13.0266 C   0  0  0  0  0  0  0  0  0  0  0  0
   -6.9942   11.7487  -13.1193 C   0  0  0  0  0  0  0  0  0  0  0  0
   -7.8312   10.0057  -11.7538 C   0  0  0  0  0  0  0  0  0  0  0  0
   -7.2443   10.6021  -10.6070 C   0  0  0  0  0  0  0  0  0  0  0  0
   -7.6167    9.7449   -9.5151 C   0  0  3  0  0  0  0  0  0  0  0  0
   -8.2961    8.7374   -9.9786 N   0  0  0  0  0  0  0  0  0  0  0  0
   -8.4404    8.8724  -11.2937 N   0  0  0  0  0  0  0  0  0  0  0  0
   -7.3318    9.8946   -8.0252 C   0  0  0  0  0  0  0  0  0  0  0  0
   -5.5478   13.5112  -12.1572 C   0  0  0  0  0  0  0  0  0  0  0  0
   -5.9707   10.4870   -7.7351 C   0  0  0  0  0  0  0  0  0  0  0  0
   -5.8642   11.7588   -7.1694 C   0  0  0  0  0  0  0  0  0  0  0  0
   -4.6019   12.3141   -6.9186 C   0  0  0  0  0  0  0  0  0  0  0  0
   -3.4503   11.5963   -7.2357 C   0  0  0  0  0  0  0  0  0  0  0  0
   -3.5604   10.3220   -7.8000 C   0  0  0  0  0  0  0  0  0  0  0  0
   -4.8213    9.7719   -8.0443 C   0  0  0  0  0  0  0  0  0  0  0  0
   -2.0996   12.1710   -6.9757 C   0  0  0  0  0  0  0  0  0  0  0  0
   -1.7487   13.4240   -6.4767 C   0  0  0  0  0  0  0  0  0  0  0  0
   -0.4123   13.4674   -6.4260 N   0  0  0  0  0  0  0  0  0  0  0  0
    0.1713   12.3664   -6.8217 N   0  0  0  0  0  0  0  0  0  0  0  0
   -0.8093   11.5624   -7.1930 C   0  0  0  0  0  0  0  0  0  0  0  0
    0.4224   14.5657   -5.9816 C   0  0  0  0  0  0  0  0  0  0  0  0
   -5.6966   14.2423  -13.2612 N   0  0  0  0  0  0  0  0  0  0  0  0
   -4.9506   15.3153  -13.5405 C   0  0  0  0  0  0  0  0  0  0  0  0
   -3.9383   15.6899  -12.6782 C   0  0  0  0  0  0  0  0  0  0  0  0
   -3.7261   14.9536  -11.5366 C   0  0  0  0  0  0  0  0  0  0  0  0
   -4.5508   13.8769  -11.2437 C   0  0  0  0  0  0  0  0  0  0  0  0
   -2.6976   15.2614  -10.7139 N   0  0  0  0  0  0  0  0  0  0  0  0
   -6.0464   12.2223   -9.8797 H   0  0  0  0  0  0  0  0  0  0  0  0
   -8.1826   10.1089  -13.8914 H   0  0  0  0  0  0  0  0  0  0  0  0
   -6.9001   12.2325  -14.0803 H   0  0  0  0  0  0  0  0  0  0  0  0
   -6.6832    9.1765   -9.6392 H   0  0  0  0  0  0  0  0  0  0  0  0
   -8.0313    9.6067   -7.2544 H   0  0  0  0  0  0  0  0  0  0  0  0
   -6.7563   12.3160   -6.9245 H   0  0  0  0  0  0  0  0  0  0  0  0
   -4.5218   13.2977   -6.4798 H   0  0  0  0  0  0  0  0  0  0  0  0
   -3.4477   12.0425   -8.2411 H   0  0  0  0  0  0  0  0  0  0  0  0
   -2.6703    9.7625   -8.0472 H   0  0  0  0  0  0  0  0  0  0  0  0
   -4.9024    8.7852   -8.4759 H   0  0  0  0  0  0  0  0  0  0  0  0
   -2.4277   14.2118   -6.1857 H   0  0  0  0  0  0  0  0  0  0  0  0
   -0.6637   10.5754   -7.6065 H   0  0  0  0  0  0  0  0  0  0  0  0
    1.4809   14.2752   -6.0543 H   0  0  0  0  0  0  0  0  0  0  0  0
    0.2393   15.4453   -6.6162 H   0  0  0  0  0  0  0  0  0  0  0  0
    0.1804   14.8105   -4.9369 H   0  0  0  0  0  0  0  0  0  0  0  0
   -6.4038   13.9739  -13.9153 H   0  0  0  0  0  0  0  0  0  0  0  0
   -5.1384   15.8875  -14.4370 H   0  0  0  0  0  0  0  0  0  0  0  0
   -3.3221   16.5493  -12.8978 H   0  0  0  0  0  0  0  0  0  0  0  0
   -4.4255   13.3274  -10.3224 H   0  0  0  0  0  0  0  0  0  0  0  0
   -2.6419   14.6376   -9.9343 H   0  0  0  0  0  0  0  0  0  0  0  0
  1  2  2  0  0  0  0
  1  4  1  0  0  0  0
  1 11  1  0  0  0  0
  2  6  1  0  0  0  0
  3  4  2  0  0  0  0
  3  5  1  0  0  0  0
  5  6  2  0  0  0  0
  5  9  1  0  0  0  0
  6  7  1  0  0  0  0
  7  8  1  0  0  0  0
  7 10  1  0  0  0  0
  8  9  2  0  0  0  0
 10 12  2  0  0  0  0
 11 24  1  0  0  0  0
 11 28  2  0  0  0  0
 12 13  1  0  0  0  0
 12 17  1  0  0  0  0
 13 14  2  0  0  0  0
 14 15  1  0  0  0  0
 15 16  1  0  0  0  0
 15 18  1  0  0  0  0
 16 17  2  0  0  0  0
 18 19  2  0  0  0  0
 18 22  1  0  0  0  0
 19 20  1  0  0  0  0
 20 21  1  0  0  0  0
 20 23  1  0  0  0  0
 21 22  2  0  0  0  0
 24 25  1  0  0  0  0
 25 26  2  0  0  0  0
 26 27  1  0  0  0  0
 27 28  1  0  0  0  0
 27 29  2  0  0  0  0
  2 30  1  0  0  0  0
  3 31  1  0  0  0  0
  4 32  1  0  0  0  0
  7 33  1  0  0  0  0
 10 34  1  0  0  0  0
 13 35  1  0  0  0  0
 14 36  1  0  0  0  0
 15 37  1  0  0  0  0
 16 38  1  0  0  0  0
 17 39  1  0  0  0  0
 19 40  1  0  0  0  0
 22 41  1  0  0  0  0
 23 42  1  0  0  0  0
 23 43  1  0  0  0  0
 23 44  1  0  0  0  0
 24 45  1  0  0  0  0
 25 46  1  0  0  0  0
 26 47  1  0  0  0  0
 28 48  1  0  0  0  0
 29 49  1  0  0  0  0
M  END
> <Name>
23

> <IC50[uM]>
0.27

$$$$
23
  -OEChem-05192314333D
 Structure written by MMmdl.
 49 53  0     1  0  0  0  0  0999 V2000
   -6.3775   12.3296  -12.0018 C   0  0  3  0  0  0  0  0  0  0  0  0
   -6.5098   11.7629  -10.7403 C   0  0  0  0  0  0  0  0  0  0  0  0
   -7.7247   10.5660  -13.0266 C   0  0  0  0  0  0  0  0  0  0  0  0
   -6.9942   11.7487  -13.1193 C   0  0  0  0  0  0  0  0  0  0  0  0
   -7.8312   10.0057  -11.7538 C   0  0  3  0  0  0  0  0  0  0  0  0
   -7.2443   10.6021  -10.6070 C   0  0  0  0  0  0  0  0  0  0  0  0
   -7.6167    9.7449   -9.5151 C   0  0  0  0  0  0  0  0  0  0  0  0
   -8.2961    8.7374   -9.9786 N   0  0  0  0  0  0  0  0  0  0  0  0
   -8.4404    8.8724  -11.2937 N   0  0  0  0  0  0  0  0  0  0  0  0
   -7.3318    9.8946   -8.0252 C   0  0  0  0  0  0  0  0  0  0  0  0
   -5.5478   13.5112  -12.1572 C   0  0  0  0  0  0  0  0  0  0  0  0
   -5.9707   10.4870   -7.7351 C   0  0  0  0  0  0  0  0  0  0  0  0
   -5.8642   11.7588   -7.1694 C   0  0  0  0  0  0  0  0  0  0  0  0
   -4.6019   12.3141   -6.9186 C   0  0  0  0  0  0  0  0  0  0  0  0
   -3.4503   11.5963   -7.2357 C   0  0  0  0  0  0  0  0  0  0  0  0
   -3.5604   10.3220   -7.8000 C   0  0  0  0  0  0  0  0  0  0  0  0
   -4.8213    9.7719   -8.0443 C   0  0  0  0  0  0  0  0  0  0  0  0
   -2.0996   12.1710   -6.9757 C   0  0  0  0  0  0  0  0  0  0  0  0
   -1.7487   13.4240   -6.4767 C   0  0  0  0  0  0  0  0  0  0  0  0
   -0.4123   13.4674   -6.4260 N   0  0  0  0  0  0  0  0  0  0  0  0
    0.1713   12.3664   -6.8217 N   0  0  0  0  0  0  0  0  0  0  0  0
   -0.8093   11.5624   -7.1930 C   0  0  0  0  0  0  0  0  0  0  0  0
    0.4224   14.5657   -5.9816 C   0  0  0  0  0  0  0  0  0  0  0  0
   -5.6966   14.2423  -13.2612 N   0  0  0  0  0  0  0  0  0  0  0  0
   -4.9506   15.3153  -13.5405 C   0  0  0  0  0  0  0  0  0  0  0  0
   -3.9383   15.6899  -12.6782 C   0  0  0  0  0  0  0  0  0  0  0  0
   -3.7261   14.9536  -11.5366 C   0  0  0  0  0  0  0  0  0  0  0  0
   -4.5508   13.8769  -11.2437 C   0  0  0  0  0  0  0  0  0  0  0  0
   -2.6976   15.2614  -10.7139 N   0  0  0  0  0  0  0  0  0  0  0  0
   -7.2621   12.9592  -11.8254 H   0  0  0  0  0  0  0  0  0  0  0  0
   -6.0464   12.2223   -9.8797 H   0  0  0  0  0  0  0  0  0  0  0  0
   -8.1826   10.1089  -13.8914 H   0  0  0  0  0  0  0  0  0  0  0  0
   -6.9001   12.2325  -14.0803 H   0  0  0  0  0  0  0  0  0  0  0  0
   -8.7557   10.5755  -11.5787 H   0  0  0  0  0  0  0  0  0  0  0  0
   -8.0313    9.6067   -7.2544 H   0  0  0  0  0  0  0  0  0  0  0  0
   -6.7563   12.3160   -6.9245 H   0  0  0  0  0  0  0  0  0  0  0  0
   -4.5218   13.2977   -6.4798 H   0  0  0  0  0  0  0  0  0  0  0  0
   -2.6703    9.7625   -8.0472 H   0  0  0  0  0  0  0  0  0  0  0  0
   -4.9024    8.7852   -8.4759 H   0  0  0  0  0  0  0  0  0  0  0  0
   -2.4277   14.2118   -6.1857 H   0  0  0  0  0  0  0  0  0  0  0  0
   -0.6637   10.5754   -7.6065 H   0  0  0  0  0  0  0  0  0  0  0  0
    1.4809   14.2752   -6.0543 H   0  0  0  0  0  0  0  0  0  0  0  0
    0.2393   15.4453   -6.6162 H   0  0  0  0  0  0  0  0  0  0  0  0
    0.1804   14.8105   -4.9369 H   0  0  0  0  0  0  0  0  0  0  0  0
   -6.4038   13.9739  -13.9153 H   0  0  0  0  0  0  0  0  0  0  0  0
   -5.1384   15.8875  -14.4370 H   0  0  0  0  0  0  0  0  0  0  0  0
   -3.3221   16.5493  -12.8978 H   0  0  0  0  0  0  0  0  0  0  0  0
   -4.4255   13.3274  -10.3224 H   0  0  0  0  0  0  0  0  0  0  0  0
   -2.6419   14.6376   -9.9343 H   0  0  0  0  0  0  0  0  0  0  0  0
  1  2  1  0  0  0  0
  1  4  1  0  0  0  0
  1 11  1  0  0  0  0
  2  6  2  0  0  0  0
  3  4  2  0  0  0  0
  3  5  1  0  0  0  0
  5  6  1  0  0  0  0
  5  9  1  0  0  0  0
  6  7  1  0  0  0  0
  7  8  1  0  0  0  0
  7 10  2  3  0  0  0
  8  9  2  0  0  0  0
 10 12  1  0  0  0  0
 11 24  1  0  0  0  0
 11 28  2  0  0  0  0
 12 13  2  0  0  0  0
 12 17  1  0  0  0  0
 13 14  1  0  0  0  0
 14 15  2  0  0  0  0
 15 16  1  0  0  0  0
 15 18  1  0  0  0  0
 16 17  2  0  0  0  0
 18 19  2  0  0  0  0
 18 22  1  0  0  0  0
 19 20  1  0  0  0  0
 20 21  1  0  0  0  0
 20 23  1  0  0  0  0
 21 22  2  0  0  0  0
 24 25  1  0  0  0  0
 25 26  2  0  0  0  0
 26 27  1  0  0  0  0
 27 28  1  0  0  0  0
 27 29  2  0  0  0  0
  1 30  1  0  0  0  0
  2 31  1  0  0  0  0
  3 32  1  0  0  0  0
  4 33  1  0  0  0  0
  5 34  1  0  0  0  0
 10 35  1  0  0  0  0
 13 36  1  0  0  0  0
 14 37  1  0  0  0  0
 16 38  1  0  0  0  0
 17 39  1  0  0  0  0
 19 40  1  0  0  0  0
 22 41  1  0  0  0  0
 23 42  1  0  0  0  0
 23 43  1  0  0  0  0
 23 44  1  0  0  0  0
 24 45  1  0  0  0  0
 25 46  1  0  0  0  0
 26 47  1  0  0  0  0
 28 48  1  0  0  0  0
 29 49  1  0  0  0  0
M  END
> <Name>
23

> <IC50[uM]>
0.27

$$$$
23
  -OEChem-05192314333D
 Structure written by MMmdl.
 49 53  0     1  0  0  0  0  0999 V2000
   -6.3775   12.3296  -12.0018 C   0  0  0  0  0  0  0  0  0  0  0  0
   -6.5098   11.7629  -10.7403 C   0  0  0  0  0  0  0  0  0  0  0  0
   -7.7247   10.5660  -13.0266 C   0  0  0  0  0  0  0  0  0  0  0  0
   -6.9942   11.7487  -13.1193 C   0  0  0  0  0  0  0  0  0  0  0  0
   -7.8312   10.0057  -11.7538 C   0  0  3  0  0  0  0  0  0  0  0  0
   -7.2443   10.6021  -10.6070 C   0  0  3  0  0  0  0  0  0  0  0  0
   -7.6167    9.7449   -9.5151 C   0  0  0  0  0  0  0  0  0  0  0  0
   -8.2961    8.7374   -9.9786 N   0  0  0  0  0  0  0  0  0  0  0  0
   -8.4404    8.8724  -11.2937 N   0  0  0  0  0  0  0  0  0  0  0  0
   -7.3318    9.8946   -8.0252 C   0  0  0  0  0  0  0  0  0  0  0  0
   -5.5478   13.5112  -12.1572 C   0  0  0  0  0  0  0  0  0  0  0  0
   -5.9707   10.4870   -7.7351 C   0  0  0  0  0  0  0  0  0  0  0  0
   -5.8642   11.7588   -7.1694 C   0  0  0  0  0  0  0  0  0  0  0  0
   -4.6019   12.3141   -6.9186 C   0  0  0  0  0  0  0  0  0  0  0  0
   -3.4503   11.5963   -7.2357 C   0  0  0  0  0  0  0  0  0  0  0  0
   -3.5604   10.3220   -7.8000 C   0  0  0  0  0  0  0  0  0  0  0  0
   -4.8213    9.7719   -8.0443 C   0  0  0  0  0  0  0  0  0  0  0  0
   -2.0996   12.1710   -6.9757 C   0  0  0  0  0  0  0  0  0  0  0  0
   -1.7487   13.4240   -6.4767 C   0  0  0  0  0  0  0  0  0  0  0  0
   -0.4123   13.4674   -6.4260 N   0  0  0  0  0  0  0  0  0  0  0  0
    0.1713   12.3664   -6.8217 N   0  0  0  0  0  0  0  0  0  0  0  0
   -0.8093   11.5624   -7.1930 C   0  0  0  0  0  0  0  0  0  0  0  0
    0.4224   14.5657   -5.9816 C   0  0  0  0  0  0  0  0  0  0  0  0
   -5.6966   14.2423  -13.2612 N   0  0  0  0  0  0  0  0  0  0  0  0
   -4.9506   15.3153  -13.5405 C   0  0  0  0  0  0  0  0  0  0  0  0
   -3.9383   15.6899  -12.6782 C   0  0  0  0  0  0  0  0  0  0  0  0
   -3.7261   14.9536  -11.5366 C   0  0  0  0  0  0  0  0  0  0  0  0
   -4.5508   13.8769  -11.2437 C   0  0  0  0  0  0  0  0  0  0  0  0
   -2.6976   15.2614  -10.7139 N   0  0  0  0  0  0  0  0  0  0  0  0
   -6.0464   12.2223   -9.8797 H   0  0  0  0  0  0  0  0  0  0  0  0
   -8.1826   10.1089  -13.8914 H   0  0  0  0  0  0  0  0  0  0  0  0
   -6.9001   12.2325  -14.0803 H   0  0  0  0  0  0  0  0  0  0  0  0
   -8.7557   10.5755  -11.5787 H   0  0  0  0  0  0  0  0  0  0  0  0
   -6.3326   10.0069  -10.7637 H   0  0  0  0  0  0  0  0  0  0  0  0
   -8.0313    9.6067   -7.2544 H   0  0  0  0  0  0  0  0  0  0  0  0
   -6.7563   12.3160   -6.9245 H   0  0  0  0  0  0  0  0  0  0  0  0
   -4.5218   13.2977   -6.4798 H   0  0  0  0  0  0  0  0  0  0  0  0
   -2.6703    9.7625   -8.0472 H   0  0  0  0  0  0  0  0  0  0  0  0
   -4.9024    8.7852   -8.4759 H   0  0  0  0  0  0  0  0  0  0  0  0
   -2.4277   14.2118   -6.1857 H   0  0  0  0  0  0  0  0  0  0  0  0
   -0.6637   10.5754   -7.6065 H   0  0  0  0  0  0  0  0  0  0  0  0
    1.4809   14.2752   -6.0543 H   0  0  0  0  0  0  0  0  0  0  0  0
    0.2393   15.4453   -6.6162 H   0  0  0  0  0  0  0  0  0  0  0  0
    0.1804   14.8105   -4.9369 H   0  0  0  0  0  0  0  0  0  0  0  0
   -6.4038   13.9739  -13.9153 H   0  0  0  0  0  0  0  0  0  0  0  0
   -5.1384   15.8875  -14.4370 H   0  0  0  0  0  0  0  0  0  0  0  0
   -3.3221   16.5493  -12.8978 H   0  0  0  0  0  0  0  0  0  0  0  0
   -4.4255   13.3274  -10.3224 H   0  0  0  0  0  0  0  0  0  0  0  0
   -2.6419   14.6376   -9.9343 H   0  0  0  0  0  0  0  0  0  0  0  0
  1  2  2  0  0  0  0
  1  4  1  0  0  0  0
  1 11  1  0  0  0  0
  2  6  1  0  0  0  0
  3  4  2  0  0  0  0
  3  5  1  0  0  0  0
  5  6  1  0  0  0  0
  5  9  1  0  0  0  0
  6  7  1  0  0  0  0
  7  8  1  0  0  0  0
  7 10  2  3  0  0  0
  8  9  2  0  0  0  0
 10 12  1  0  0  0  0
 11 24  1  0  0  0  0
 11 28  2  0  0  0  0
 12 13  2  0  0  0  0
 12 17  1  0  0  0  0
 13 14  1  0  0  0  0
 14 15  2  0  0  0  0
 15 16  1  0  0  0  0
 15 18  1  0  0  0  0
 16 17  2  0  0  0  0
 18 19  2  0  0  0  0
 18 22  1  0  0  0  0
 19 20  1  0  0  0  0
 20 21  1  0  0  0  0
 20 23  1  0  0  0  0
 21 22  2  0  0  0  0
 24 25  1  0  0  0  0
 25 26  2  0  0  0  0
 26 27  1  0  0  0  0
 27 28  1  0  0  0  0
 27 29  2  0  0  0  0
  2 30  1  0  0  0  0
  3 31  1  0  0  0  0
  4 32  1  0  0  0  0
  5 33  1  0  0  0  0
  6 34  1  0  0  0  0
 10 35  1  0  0  0  0
 13 36  1  0  0  0  0
 14 37  1  0  0  0  0
 16 38  1  0  0  0  0
 17 39  1  0  0  0  0
 19 40  1  0  0  0  0
 22 41  1  0  0  0  0
 23 42  1  0  0  0  0
 23 43  1  0  0  0  0
 23 44  1  0  0  0  0
 24 45  1  0  0  0  0
 25 46  1  0  0  0  0
 26 47  1  0  0  0  0
 28 48  1  0  0  0  0
 29 49  1  0  0  0  0
M  END
> <Name>
23

> <IC50[uM]>
0.27

$$$$
23
  -OEChem-05192314333D
 Structure written by MMmdl.
 49 53  0     1  0  0  0  0  0999 V2000
   -6.3775   12.3296  -12.0018 C   0  0  0  0  0  0  0  0  0  0  0  0
   -6.5098   11.7629  -10.7403 C   0  0  0  0  0  0  0  0  0  0  0  0
   -7.7247   10.5660  -13.0266 C   0  0  0  0  0  0  0  0  0  0  0  0
   -6.9942   11.7487  -13.1193 C   0  0  0  0  0  0  0  0  0  0  0  0
   -7.8312   10.0057  -11.7538 C   0  0  3  0  0  0  0  0  0  0  0  0
   -7.2443   10.6021  -10.6070 C   0  0  0  0  0  0  0  0  0  0  0  0
   -7.6167    9.7449   -9.5151 C   0  0  0  0  0  0  0  0  0  0  0  0
   -8.2961    8.7374   -9.9786 N   0  0  0  0  0  0  0  0  0  0  0  0
   -8.4404    8.8724  -11.2937 N   0  0  0  0  0  0  0  0  0  0  0  0
   -7.3318    9.8946   -8.0252 C   0  0  0  0  0  0  0  0  0  0  0  0
   -5.5478   13.5112  -12.1572 C   0  0  0  0  0  0  0  0  0  0  0  0
   -5.9707   10.4870   -7.7351 C   0  0  0  0  0  0  0  0  0  0  0  0
   -5.8642   11.7588   -7.1694 C   0  0  0  0  0  0  0  0  0  0  0  0
   -4.6019   12.3141   -6.9186 C   0  0  0  0  0  0  0  0  0  0  0  0
   -3.4503   11.5963   -7.2357 C   0  0  0  0  0  0  0  0  0  0  0  0
   -3.5604   10.3220   -7.8000 C   0  0  0  0  0  0  0  0  0  0  0  0
   -4.8213    9.7719   -8.0443 C   0  0  0  0  0  0  0  0  0  0  0  0
   -2.0996   12.1710   -6.9757 C   0  0  0  0  0  0  0  0  0  0  0  0
   -1.7487   13.4240   -6.4767 C   0  0  0  0  0  0  0  0  0  0  0  0
   -0.4123   13.4674   -6.4260 N   0  0  0  0  0  0  0  0  0  0  0  0
    0.1713   12.3664   -6.8217 N   0  0  0  0  0  0  0  0  0  0  0  0
   -0.8093   11.5624   -7.1930 C   0  0  0  0  0  0  0  0  0  0  0  0
    0.4224   14.5657   -5.9816 C   0  0  0  0  0  0  0  0  0  0  0  0
   -5.6966   14.2423  -13.2612 N   0  0  0  0  0  0  0  0  0  0  0  0
   -4.9506   15.3153  -13.5405 C   0  0  0  0  0  0  0  0  0  0  0  0
   -3.9383   15.6899  -12.6782 C   0  0  0  0  0  0  0  0  0  0  0  0
   -3.7261   14.9536  -11.5366 C   0  0  0  0  0  0  0  0  0  0  0  0
   -4.5508   13.8769  -11.2437 C   0  0  0  0  0  0  0  0  0  0  0  0
   -2.6976   15.2614  -10.7139 N   0  0  0  0  0  0  0  0  0  0  0  0
   -6.0464   12.2223   -9.8797 H   0  0  0  0  0  0  0  0  0  0  0  0
   -8.7428   10.7712  -13.3891 H   0  0  0  0  0  0  0  0  0  0  0  0
   -7.2451    9.8233  -13.6811 H   0  0  0  0  0  0  0  0  0  0  0  0
   -6.9001   12.2325  -14.0803 H   0  0  0  0  0  0  0  0  0  0  0  0
   -8.7557   10.5755  -11.5787 H   0  0  0  0  0  0  0  0  0  0  0  0
   -8.0313    9.6067   -7.2544 H   0  0  0  0  0  0  0  0  0  0  0  0
   -6.7563   12.3160   -6.9245 H   0  0  0  0  0  0  0  0  0  0  0  0
   -4.5218   13.2977   -6.4798 H   0  0  0  0  0  0  0  0  0  0  0  0
   -2.6703    9.7625   -8.0472 H   0  0  0  0  0  0  0  0  0  0  0  0
   -4.9024    8.7852   -8.4759 H   0  0  0  0  0  0  0  0  0  0  0  0
   -2.4277   14.2118   -6.1857 H   0  0  0  0  0  0  0  0  0  0  0  0
   -0.6637   10.5754   -7.6065 H   0  0  0  0  0  0  0  0  0  0  0  0
    1.4809   14.2752   -6.0543 H   0  0  0  0  0  0  0  0  0  0  0  0
    0.2393   15.4453   -6.6162 H   0  0  0  0  0  0  0  0  0  0  0  0
    0.1804   14.8105   -4.9369 H   0  0  0  0  0  0  0  0  0  0  0  0
   -6.4038   13.9739  -13.9153 H   0  0  0  0  0  0  0  0  0  0  0  0
   -5.1384   15.8875  -14.4370 H   0  0  0  0  0  0  0  0  0  0  0  0
   -3.3221   16.5493  -12.8978 H   0  0  0  0  0  0  0  0  0  0  0  0
   -4.4255   13.3274  -10.3224 H   0  0  0  0  0  0  0  0  0  0  0  0
   -2.6419   14.6376   -9.9343 H   0  0  0  0  0  0  0  0  0  0  0  0
  1  2  1  0  0  0  0
  1  4  2  0  0  0  0
  1 11  1  0  0  0  0
  2  6  2  0  0  0  0
  3  4  1  0  0  0  0
  3  5  1  0  0  0  0
  5  6  1  0  0  0  0
  5  9  1  0  0  0  0
  6  7  1  0  0  0  0
  7  8  1  0  0  0  0
  7 10  2  3  0  0  0
  8  9  2  0  0  0  0
 10 12  1  0  0  0  0
 11 24  1  0  0  0  0
 11 28  2  0  0  0  0
 12 13  2  0  0  0  0
 12 17  1  0  0  0  0
 13 14  1  0  0  0  0
 14 15  2  0  0  0  0
 15 16  1  0  0  0  0
 15 18  1  0  0  0  0
 16 17  2  0  0  0  0
 18 19  2  0  0  0  0
 18 22  1  0  0  0  0
 19 20  1  0  0  0  0
 20 21  1  0  0  0  0
 20 23  1  0  0  0  0
 21 22  2  0  0  0  0
 24 25  1  0  0  0  0
 25 26  2  0  0  0  0
 26 27  1  0  0  0  0
 27 28  1  0  0  0  0
 27 29  2  0  0  0  0
  2 30  1  0  0  0  0
  3 31  1  0  0  0  0
  3 32  1  0  0  0  0
  4 33  1  0  0  0  0
  5 34  1  0  0  0  0
 10 35  1  0  0  0  0
 13 36  1  0  0  0  0
 14 37  1  0  0  0  0
 16 38  1  0  0  0  0
 17 39  1  0  0  0  0
 19 40  1  0  0  0  0
 22 41  1  0  0  0  0
 23 42  1  0  0  0  0
 23 43  1  0  0  0  0
 23 44  1  0  0  0  0
 24 45  1  0  0  0  0
 25 46  1  0  0  0  0
 26 47  1  0  0  0  0
 28 48  1  0  0  0  0
 29 49  1  0  0  0  0
M  END
> <Name>
23

> <IC50[uM]>
0.27

$$$$
23
  -OEChem-05192314333D
 Structure written by MMmdl.
 49 53  0     1  0  0  0  0  0999 V2000
   -6.3775   12.3296  -12.0018 C   0  0  0  0  0  0  0  0  0  0  0  0
   -6.5098   11.7629  -10.7403 C   0  0  0  0  0  0  0  0  0  0  0  0
   -7.7247   10.5660  -13.0266 C   0  0  0  0  0  0  0  0  0  0  0  0
   -6.9942   11.7487  -13.1193 C   0  0  0  0  0  0  0  0  0  0  0  0
   -7.8312   10.0057  -11.7538 C   0  0  0  0  0  0  0  0  0  0  0  0
   -7.2443   10.6021  -10.6070 C   0  0  0  0  0  0  0  0  0  0  0  0
   -7.6167    9.7449   -9.5151 C   0  0  0  0  0  0  0  0  0  0  0  0
   -8.2961    8.7374   -9.9786 N   0  0  0  0  0  0  0  0  0  0  0  0
   -8.4404    8.8724  -11.2937 N   0  0  0  0  0  0  0  0  0  0  0  0
   -7.3318    9.8946   -8.0252 C   0  0  0  0  0  0  0  0  0  0  0  0
   -5.5478   13.5112  -12.1572 C   0  0  0  0  0  0  0  0  0  0  0  0
   -5.9707   10.4870   -7.7351 C   0  0  0  0  0  0  0  0  0  0  0  0
   -5.8642   11.7588   -7.1694 C   0  0  0  0  0  0  0  0  0  0  0  0
   -4.6019   12.3141   -6.9186 C   0  0  0  0  0  0  0  0  0  0  0  0
   -3.4503   11.5963   -7.2357 C   0  0  3  0  0  0  0  0  0  0  0  0
   -3.5604   10.3220   -7.8000 C   0  0  0  0  0  0  0  0  0  0  0  0
   -4.8213    9.7719   -8.0443 C   0  0  0  0  0  0  0  0  0  0  0  0
   -2.0996   12.1710   -6.9757 C   0  0  0  0  0  0  0  0  0  0  0  0
   -1.7487   13.4240   -6.4767 C   0  0  0  0  0  0  0  0  0  0  0  0
   -0.4123   13.4674   -6.4260 N   0  0  0  0  0  0  0  0  0  0  0  0
    0.1713   12.3664   -6.8217 N   0  0  0  0  0  0  0  0  0  0  0  0
   -0.8093   11.5624   -7.1930 C   0  0  0  0  0  0  0  0  0  0  0  0
    0.4224   14.5657   -5.9816 C   0  0  0  0  0  0  0  0  0  0  0  0
   -5.6966   14.2423  -13.2612 N   0  0  0  0  0  0  0  0  0  0  0  0
   -4.9506   15.3153  -13.5405 C   0  0  0  0  0  0  0  0  0  0  0  0
   -3.9383   15.6899  -12.6782 C   0  0  0  0  0  0  0  0  0  0  0  0
   -3.7261   14.9536  -11.5366 C   0  0  0  0  0  0  0  0  0  0  0  0
   -4.5508   13.8769  -11.2437 C   0  0  0  0  0  0  0  0  0  0  0  0
   -2.6976   15.2614  -10.7139 N   0  0  0  0  0  0  0  0  0  0  0  0
   -6.0464   12.2223   -9.8797 H   0  0  0  0  0  0  0  0  0  0  0  0
   -8.1826   10.1089  -13.8914 H   0  0  0  0  0  0  0  0  0  0  0  0
   -6.9001   12.2325  -14.0803 H   0  0  0  0  0  0  0  0  0  0  0  0
   -8.0313    9.6067   -7.2544 H   0  0  0  0  0  0  0  0  0  0  0  0
   -6.7563   12.3160   -6.9245 H   0  0  0  0  0  0  0  0  0  0  0  0
   -4.5527   13.2582   -7.4809 H   0  0  0  0  0  0  0  0  0  0  0  0
   -4.5569   12.5268   -5.8403 H   0  0  0  0  0  0  0  0  0  0  0  0
   -3.4477   12.0425   -8.2411 H   0  0  0  0  0  0  0  0  0  0  0  0
   -2.6703    9.7625   -8.0472 H   0  0  0  0  0  0  0  0  0  0  0  0
   -4.9024    8.7852   -8.4759 H   0  0  0  0  0  0  0  0  0  0  0  0
   -2.4277   14.2118   -6.1857 H   0  0  0  0  0  0  0  0  0  0  0  0
   -0.6637   10.5754   -7.6065 H   0  0  0  0  0  0  0  0  0  0  0  0
    1.4809   14.2752   -6.0543 H   0  0  0  0  0  0  0  0  0  0  0  0
    0.2393   15.4453   -6.6162 H   0  0  0  0  0  0  0  0  0  0  0  0
    0.1804   14.8105   -4.9369 H   0  0  0  0  0  0  0  0  0  0  0  0
   -6.4038   13.9739  -13.9153 H   0  0  0  0  0  0  0  0  0  0  0  0
   -5.1384   15.8875  -14.4370 H   0  0  0  0  0  0  0  0  0  0  0  0
   -3.3221   16.5493  -12.8978 H   0  0  0  0  0  0  0  0  0  0  0  0
   -4.4255   13.3274  -10.3224 H   0  0  0  0  0  0  0  0  0  0  0  0
   -2.6419   14.6376   -9.9343 H   0  0  0  0  0  0  0  0  0  0  0  0
  1  2  2  0  0  0  0
  1  4  1  0  0  0  0
  1 11  1  0  0  0  0
  2  6  1  0  0  0  0
  3  4  2  0  0  0  0
  3  5  1  0  0  0  0
  5  6  2  0  0  0  0
  5  9  1  0  0  0  0
  6  7  1  0  0  0  0
  7  8  1  0  0  0  0
  7 10  2  3  0  0  0
  8  9  2  0  0  0  0
 10 12  1  0  0  0  0
 11 24  1  0  0  0  0
 11 28  2  0  0  0  0
 12 13  2  0  0  0  0
 12 17  1  0  0  0  0
 13 14  1  0  0  0  0
 14 15  1  0  0  0  0
 15 16  1  0  0  0  0
 15 18  1  0  0  0  0
 16 17  2  0  0  0  0
 18 19  2  0  0  0  0
 18 22  1  0  0  0  0
 19 20  1  0  0  0  0
 20 21  1  0  0  0  0
 20 23  1  0  0  0  0
 21 22  2  0  0  0  0
 24 25  1  0  0  0  0
 25 26  2  0  0  0  0
 26 27  1  0  0  0  0
 27 28  1  0  0  0  0
 27 29  2  0  0  0  0
  2 30  1  0  0  0  0
  3 31  1  0  0  0  0
  4 32  1  0  0  0  0
 10 33  1  0  0  0  0
 13 34  1  0  0  0  0
 14 35  1  0  0  0  0
 14 36  1  0  0  0  0
 15 37  1  0  0  0  0
 16 38  1  0  0  0  0
 17 39  1  0  0  0  0
 19 40  1  0  0  0  0
 22 41  1  0  0  0  0
 23 42  1  0  0  0  0
 23 43  1  0  0  0  0
 23 44  1  0  0  0  0
 24 45  1  0  0  0  0
 25 46  1  0  0  0  0
 26 47  1  0  0  0  0
 28 48  1  0  0  0  0
 29 49  1  0  0  0  0
M  END
> <Name>
23

> <IC50[uM]>
0.27

$$$$
23
  -OEChem-05192314333D
 Structure written by MMmdl.
 49 53  0     1  0  0  0  0  0999 V2000
   -6.3775   12.3296  -12.0018 C   0  0  3  0  0  0  0  0  0  0  0  0
   -6.5098   11.7629  -10.7403 C   0  0  0  0  0  0  0  0  0  0  0  0
   -7.7247   10.5660  -13.0266 C   0  0  0  0  0  0  0  0  0  0  0  0
   -6.9942   11.7487  -13.1193 C   0  0  0  0  0  0  0  0  0  0  0  0
   -7.8312   10.0057  -11.7538 C   0  0  0  0  0  0  0  0  0  0  0  0
   -7.2443   10.6021  -10.6070 C   0  0  0  0  0  0  0  0  0  0  0  0
   -7.6167    9.7449   -9.5151 C   0  0  0  0  0  0  0  0  0  0  0  0
   -8.2961    8.7374   -9.9786 N   0  0  0  0  0  0  0  0  0  0  0  0
   -8.4404    8.8724  -11.2937 N   0  0  0  0  0  0  0  0  0  0  0  0
   -7.3318    9.8946   -8.0252 C   0  0  0  0  0  0  0  0  0  0  0  0
   -5.5478   13.5112  -12.1572 C   0  0  0  0  0  0  0  0  0  0  0  0
   -5.9707   10.4870   -7.7351 C   0  0  0  0  0  0  0  0  0  0  0  0
   -5.8642   11.7588   -7.1694 C   0  0  0  0  0  0  0  0  0  0  0  0
   -4.6019   12.3141   -6.9186 C   0  0  0  0  0  0  0  0  0  0  0  0
   -3.4503   11.5963   -7.2357 C   0  0  0  0  0  0  0  0  0  0  0  0
   -3.5604   10.3220   -7.8000 C   0  0  0  0  0  0  0  0  0  0  0  0
   -4.8213    9.7719   -8.0443 C   0  0  0  0  0  0  0  0  0  0  0  0
   -2.0996   12.1710   -6.9757 C   0  0  0  0  0  0  0  0  0  0  0  0
   -1.7487   13.4240   -6.4767 C   0  0  0  0  0  0  0  0  0  0  0  0
   -0.4123   13.4674   -6.4260 N   0  0  0  0  0  0  0  0  0  0  0  0
    0.1713   12.3664   -6.8217 N   0  0  0  0  0  0  0  0  0  0  0  0
   -0.8093   11.5624   -7.1930 C   0  0  0  0  0  0  0  0  0  0  0  0
    0.4224   14.5657   -5.9816 C   0  0  0  0  0  0  0  0  0  0  0  0
   -5.6966   14.2423  -13.2612 N   0  0  0  0  0  0  0  0  0  0  0  0
   -4.9506   15.3153  -13.5405 C   0  0  0  0  0  0  0  0  0  0  0  0
   -3.9383   15.6899  -12.6782 C   0  0  0  0  0  0  0  0  0  0  0  0
   -3.7261   14.9536  -11.5366 C   0  0  0  0  0  0  0  0  0  0  0  0
   -4.5508   13.8769  -11.2437 C   0  0  0  0  0  0  0  0  0  0  0  0
   -2.6976   15.2614  -10.7139 N   0  0  0  0  0  0  0  0  0  0  0  0
   -7.2621   12.9592  -11.8254 H   0  0  0  0  0  0  0  0  0  0  0  0
   -6.0464   12.2223   -9.8797 H   0  0  0  0  0  0  0  0  0  0  0  0
   -8.1826   10.1089  -13.8914 H   0  0  0  0  0  0  0  0  0  0  0  0
   -7.6841   12.5064  -13.5191 H   0  0  0  0  0  0  0  0  0  0  0  0
   -6.1936   11.5599  -13.8497 H   0  0  0  0  0  0  0  0  0  0  0  0
   -8.0313    9.6067   -7.2544 H   0  0  0  0  0  0  0  0  0  0  0  0
   -6.7563   12.3160   -6.9245 H   0  0  0  0  0  0  0  0  0  0  0  0
   -4.5218   13.2977   -6.4798 H   0  0  0  0  0  0  0  0  0  0  0  0
   -2.6703    9.7625   -8.0472 H   0  0  0  0  0  0  0  0  0  0  0  0
   -4.9024    8.7852   -8.4759 H   0  0  0  0  0  0  0  0  0  0  0  0
   -2.4277   14.2118   -6.1857 H   0  0  0  0  0  0  0  0  0  0  0  0
   -0.6637   10.5754   -7.6065 H   0  0  0  0  0  0  0  0  0  0  0  0
    1.4809   14.2752   -6.0543 H   0  0  0  0  0  0  0  0  0  0  0  0
    0.2393   15.4453   -6.6162 H   0  0  0  0  0  0  0  0  0  0  0  0
    0.1804   14.8105   -4.9369 H   0  0  0  0  0  0  0  0  0  0  0  0
   -6.4038   13.9739  -13.9153 H   0  0  0  0  0  0  0  0  0  0  0  0
   -5.1384   15.8875  -14.4370 H   0  0  0  0  0  0  0  0  0  0  0  0
   -3.3221   16.5493  -12.8978 H   0  0  0  0  0  0  0  0  0  0  0  0
   -4.4255   13.3274  -10.3224 H   0  0  0  0  0  0  0  0  0  0  0  0
   -2.6419   14.6376   -9.9343 H   0  0  0  0  0  0  0  0  0  0  0  0
  1  2  1  0  0  0  0
  1  4  1  0  0  0  0
  1 11  1  0  0  0  0
  2  6  2  0  0  0  0
  3  4  1  0  0  0  0
  3  5  2  0  0  0  0
  5  6  1  0  0  0  0
  5  9  1  0  0  0  0
  6  7  1  0  0  0  0
  7  8  1  0  0  0  0
  7 10  2  3  0  0  0
  8  9  2  0  0  0  0
 10 12  1  0  0  0  0
 11 24  1  0  0  0  0
 11 28  2  0  0  0  0
 12 13  2  0  0  0  0
 12 17  1  0  0  0  0
 13 14  1  0  0  0  0
 14 15  2  0  0  0  0
 15 16  1  0  0  0  0
 15 18  1  0  0  0  0
 16 17  2  0  0  0  0
 18 19  2  0  0  0  0
 18 22  1  0  0  0  0
 19 20  1  0  0  0  0
 20 21  1  0  0  0  0
 20 23  1  0  0  0  0
 21 22  2  0  0  0  0
 24 25  1  0  0  0  0
 25 26  2  0  0  0  0
 26 27  1  0  0  0  0
 27 28  1  0  0  0  0
 27 29  2  0  0  0  0
  1 30  1  0  0  0  0
  2 31  1  0  0  0  0
  3 32  1  0  0  0  0
  4 33  1  0  0  0  0
  4 34  1  0  0  0  0
 10 35  1  0  0  0  0
 13 36  1  0  0  0  0
 14 37  1  0  0  0  0
 16 38  1  0  0  0  0
 17 39  1  0  0  0  0
 19 40  1  0  0  0  0
 22 41  1  0  0  0  0
 23 42  1  0  0  0  0
 23 43  1  0  0  0  0
 23 44  1  0  0  0  0
 24 45  1  0  0  0  0
 25 46  1  0  0  0  0
 26 47  1  0  0  0  0
 28 48  1  0  0  0  0
 29 49  1  0  0  0  0
M  END
> <Name>
23

> <IC50[uM]>
0.27

$$$$
23
  -OEChem-05192314333D
 Structure written by MMmdl.
 49 53  0     1  0  0  0  0  0999 V2000
   -6.3775   12.3296  -12.0018 C   0  0  0  0  0  0  0  0  0  0  0  0
   -6.5098   11.7629  -10.7403 C   0  0  0  0  0  0  0  0  0  0  0  0
   -7.7247   10.5660  -13.0266 C   0  0  0  0  0  0  0  0  0  0  0  0
   -6.9942   11.7487  -13.1193 C   0  0  0  0  0  0  0  0  0  0  0  0
   -7.8312   10.0057  -11.7538 C   0  0  0  0  0  0  0  0  0  0  0  0
   -7.2443   10.6021  -10.6070 C   0  0  3  0  0  0  0  0  0  0  0  0
   -7.6167    9.7449   -9.5151 C   0  0  0  0  0  0  0  0  0  0  0  0
   -8.2961    8.7374   -9.9786 N   0  0  0  0  0  0  0  0  0  0  0  0
   -8.4404    8.8724  -11.2937 N   0  0  0  0  0  0  0  0  0  0  0  0
   -7.3318    9.8946   -8.0252 C   0  0  0  0  0  0  0  0  0  0  0  0
   -5.5478   13.5112  -12.1572 C   0  0  0  0  0  0  0  0  0  0  0  0
   -5.9707   10.4870   -7.7351 C   0  0  0  0  0  0  0  0  0  0  0  0
   -5.8642   11.7588   -7.1694 C   0  0  0  0  0  0  0  0  0  0  0  0
   -4.6019   12.3141   -6.9186 C   0  0  0  0  0  0  0  0  0  0  0  0
   -3.4503   11.5963   -7.2357 C   0  0  0  0  0  0  0  0  0  0  0  0
   -3.5604   10.3220   -7.8000 C   0  0  0  0  0  0  0  0  0  0  0  0
   -4.8213    9.7719   -8.0443 C   0  0  0  0  0  0  0  0  0  0  0  0
   -2.0996   12.1710   -6.9757 C   0  0  0  0  0  0  0  0  0  0  0  0
   -1.7487   13.4240   -6.4767 C   0  0  0  0  0  0  0  0  0  0  0  0
   -0.4123   13.4674   -6.4260 N   0  0  0  0  0  0  0  0  0  0  0  0
    0.1713   12.3664   -6.8217 N   0  0  0  0  0  0  0  0  0  0  0  0
   -0.8093   11.5624   -7.1930 C   0  0  0  0  0  0  0  0  0  0  0  0
    0.4224   14.5657   -5.9816 C   0  0  0  0  0  0  0  0  0  0  0  0
   -5.6966   14.2423  -13.2612 N   0  0  0  0  0  0  0  0  0  0  0  0
   -4.9506   15.3153  -13.5405 C   0  0  0  0  0  0  0  0  0  0  0  0
   -3.9383   15.6899  -12.6782 C   0  0  0  0  0  0  0  0  0  0  0  0
   -3.7261   14.9536  -11.5366 C   0  0  0  0  0  0  0  0  0  0  0  0
   -4.5508   13.8769  -11.2437 C   0  0  0  0  0  0  0  0  0  0  0  0
   -2.6976   15.2614  -10.7139 N   0  0  0  0  0  0  0  0  0  0  0  0
   -6.0464   12.2223   -9.8797 H   0  0  0  0  0  0  0  0  0  0  0  0
   -8.1826   10.1089  -13.8914 H   0  0  0  0  0  0  0  0  0  0  0  0
   -7.6841   12.5064  -13.5191 H   0  0  0  0  0  0  0  0  0  0  0  0
   -6.1936   11.5599  -13.8497 H   0  0  0  0  0  0  0  0  0  0  0  0
   -6.3326   10.0069  -10.7637 H   0  0  0  0  0  0  0  0  0  0  0  0
   -8.0313    9.6067   -7.2544 H   0  0  0  0  0  0  0  0  0  0  0  0
   -6.7563   12.3160   -6.9245 H   0  0  0  0  0  0  0  0  0  0  0  0
   -4.5218   13.2977   -6.4798 H   0  0  0  0  0  0  0  0  0  0  0  0
   -2.6703    9.7625   -8.0472 H   0  0  0  0  0  0  0  0  0  0  0  0
   -4.9024    8.7852   -8.4759 H   0  0  0  0  0  0  0  0  0  0  0  0
   -2.4277   14.2118   -6.1857 H   0  0  0  0  0  0  0  0  0  0  0  0
   -0.6637   10.5754   -7.6065 H   0  0  0  0  0  0  0  0  0  0  0  0
    1.4809   14.2752   -6.0543 H   0  0  0  0  0  0  0  0  0  0  0  0
    0.2393   15.4453   -6.6162 H   0  0  0  0  0  0  0  0  0  0  0  0
    0.1804   14.8105   -4.9369 H   0  0  0  0  0  0  0  0  0  0  0  0
   -6.4038   13.9739  -13.9153 H   0  0  0  0  0  0  0  0  0  0  0  0
   -5.1384   15.8875  -14.4370 H   0  0  0  0  0  0  0  0  0  0  0  0
   -3.3221   16.5493  -12.8978 H   0  0  0  0  0  0  0  0  0  0  0  0
   -4.4255   13.3274  -10.3224 H   0  0  0  0  0  0  0  0  0  0  0  0
   -2.6419   14.6376   -9.9343 H   0  0  0  0  0  0  0  0  0  0  0  0
  1  2  2  0  0  0  0
  1  4  1  0  0  0  0
  1 11  1  0  0  0  0
  2  6  1  0  0  0  0
  3  4  1  0  0  0  0
  3  5  2  0  0  0  0
  5  6  1  0  0  0  0
  5  9  1  0  0  0  0
  6  7  1  0  0  0  0
  7  8  1  0  0  0  0
  7 10  2  3  0  0  0
  8  9  2  0  0  0  0
 10 12  1  0  0  0  0
 11 24  1  0  0  0  0
 11 28  2  0  0  0  0
 12 13  2  0  0  0  0
 12 17  1  0  0  0  0
 13 14  1  0  0  0  0
 14 15  2  0  0  0  0
 15 16  1  0  0  0  0
 15 18  1  0  0  0  0
 16 17  2  0  0  0  0
 18 19  2  0  0  0  0
 18 22  1  0  0  0  0
 19 20  1  0  0  0  0
 20 21  1  0  0  0  0
 20 23  1  0  0  0  0
 21 22  2  0  0  0  0
 24 25  1  0  0  0  0
 25 26  2  0  0  0  0
 26 27  1  0  0  0  0
 27 28  1  0  0  0  0
 27 29  2  0  0  0  0
  2 30  1  0  0  0  0
  3 31  1  0  0  0  0
  4 32  1  0  0  0  0
  4 33  1  0  0  0  0
  6 34  1  0  0  0  0
 10 35  1  0  0  0  0
 13 36  1  0  0  0  0
 14 37  1  0  0  0  0
 16 38  1  0  0  0  0
 17 39  1  0  0  0  0
 19 40  1  0  0  0  0
 22 41  1  0  0  0  0
 23 42  1  0  0  0  0
 23 43  1  0  0  0  0
 23 44  1  0  0  0  0
 24 45  1  0  0  0  0
 25 46  1  0  0  0  0
 26 47  1  0  0  0  0
 28 48  1  0  0  0  0
 29 49  1  0  0  0  0
M  END
> <Name>
23

> <IC50[uM]>
0.27

$$$$
23
  -OEChem-05192314333D
 Structure written by MMmdl.
 49 53  0     0  0  0  0  0  0999 V2000
   -6.3775   12.3296  -12.0018 C   0  0  0  0  0  0  0  0  0  0  0  0
   -6.5098   11.7629  -10.7403 C   0  0  0  0  0  0  0  0  0  0  0  0
   -7.7247   10.5660  -13.0266 C   0  0  0  0  0  0  0  0  0  0  0  0
   -6.9942   11.7487  -13.1193 C   0  0  0  0  0  0  0  0  0  0  0  0
   -7.8312   10.0057  -11.7538 C   0  0  0  0  0  0  0  0  0  0  0  0
   -7.2443   10.6021  -10.6070 C   0  0  0  0  0  0  0  0  0  0  0  0
   -7.6167    9.7449   -9.5151 C   0  0  0  0  0  0  0  0  0  0  0  0
   -8.2961    8.7374   -9.9786 N   0  0  0  0  0  0  0  0  0  0  0  0
   -8.4404    8.8724  -11.2937 N   0  0  0  0  0  0  0  0  0  0  0  0
   -7.3318    9.8946   -8.0252 C   0  0  0  0  0  0  0  0  0  0  0  0
   -5.5478   13.5112  -12.1572 C   0  0  0  0  0  0  0  0  0  0  0  0
   -5.9707   10.4870   -7.7351 C   0  0  0  0  0  0  0  0  0  0  0  0
   -5.8642   11.7588   -7.1694 C   0  0  0  0  0  0  0  0  0  0  0  0
   -4.6019   12.3141   -6.9186 C   0  0  0  0  0  0  0  0  0  0  0  0
   -3.4503   11.5963   -7.2357 C   0  0  0  0  0  0  0  0  0  0  0  0
   -3.5604   10.3220   -7.8000 C   0  0  0  0  0  0  0  0  0  0  0  0
   -4.8213    9.7719   -8.0443 C   0  0  0  0  0  0  0  0  0  0  0  0
   -2.0996   12.1710   -6.9757 C   0  0  0  0  0  0  0  0  0  0  0  0
   -1.7487   13.4240   -6.4767 C   0  0  0  0  0  0  0  0  0  0  0  0
   -0.4123   13.4674   -6.4260 N   0  0  0  0  0  0  0  0  0  0  0  0
    0.1713   12.3664   -6.8217 N   0  0  0  0  0  0  0  0  0  0  0  0
   -0.8093   11.5624   -7.1930 C   0  0  0  0  0  0  0  0  0  0  0  0
    0.4224   14.5657   -5.9816 C   0  0  0  0  0  0  0  0  0  0  0  0
   -5.6966   14.2423  -13.2612 N   0  0  0  0  0  0  0  0  0  0  0  0
   -4.9506   15.3153  -13.5405 C   0  0  0  0  0  0  0  0  0  0  0  0
   -3.9383   15.6899  -12.6782 C   0  0  0  0  0  0  0  0  0  0  0  0
   -3.7261   14.9536  -11.5366 C   0  0  0  0  0  0  0  0  0  0  0  0
   -4.5508   13.8769  -11.2437 C   0  0  0  0  0  0  0  0  0  0  0  0
   -2.6976   15.2614  -10.7139 N   0  0  0  0  0  0  0  0  0  0  0  0
   -6.0464   12.2223   -9.8797 H   0  0  0  0  0  0  0  0  0  0  0  0
   -8.7428   10.7712  -13.3891 H   0  0  0  0  0  0  0  0  0  0  0  0
   -7.2451    9.8233  -13.6811 H   0  0  0  0  0  0  0  0  0  0  0  0
   -7.6841   12.5064  -13.5191 H   0  0  0  0  0  0  0  0  0  0  0  0
   -6.1936   11.5599  -13.8497 H   0  0  0  0  0  0  0  0  0  0  0  0
   -8.0313    9.6067   -7.2544 H   0  0  0  0  0  0  0  0  0  0  0  0
   -6.7563   12.3160   -6.9245 H   0  0  0  0  0  0  0  0  0  0  0  0
   -4.5218   13.2977   -6.4798 H   0  0  0  0  0  0  0  0  0  0  0  0
   -2.6703    9.7625   -8.0472 H   0  0  0  0  0  0  0  0  0  0  0  0
   -4.9024    8.7852   -8.4759 H   0  0  0  0  0  0  0  0  0  0  0  0
   -2.4277   14.2118   -6.1857 H   0  0  0  0  0  0  0  0  0  0  0  0
   -0.6637   10.5754   -7.6065 H   0  0  0  0  0  0  0  0  0  0  0  0
    1.4809   14.2752   -6.0543 H   0  0  0  0  0  0  0  0  0  0  0  0
    0.2393   15.4453   -6.6162 H   0  0  0  0  0  0  0  0  0  0  0  0
    0.1804   14.8105   -4.9369 H   0  0  0  0  0  0  0  0  0  0  0  0
   -6.4038   13.9739  -13.9153 H   0  0  0  0  0  0  0  0  0  0  0  0
   -5.1384   15.8875  -14.4370 H   0  0  0  0  0  0  0  0  0  0  0  0
   -3.3221   16.5493  -12.8978 H   0  0  0  0  0  0  0  0  0  0  0  0
   -4.4255   13.3274  -10.3224 H   0  0  0  0  0  0  0  0  0  0  0  0
   -2.6419   14.6376   -9.9343 H   0  0  0  0  0  0  0  0  0  0  0  0
  1  2  2  0  0  0  0
  1  4  1  0  0  0  0
  1 11  1  0  0  0  0
  2  6  1  0  0  0  0
  3  4  1  0  0  0  0
  3  5  1  0  0  0  0
  5  6  2  0  0  0  0
  5  9  1  0  0  0  0
  6  7  1  0  0  0  0
  7  8  1  0  0  0  0
  7 10  2  3  0  0  0
  8  9  2  0  0  0  0
 10 12  1  0  0  0  0
 11 24  1  0  0  0  0
 11 28  2  0  0  0  0
 12 13  2  0  0  0  0
 12 17  1  0  0  0  0
 13 14  1  0  0  0  0
 14 15  2  0  0  0  0
 15 16  1  0  0  0  0
 15 18  1  0  0  0  0
 16 17  2  0  0  0  0
 18 19  2  0  0  0  0
 18 22  1  0  0  0  0
 19 20  1  0  0  0  0
 20 21  1  0  0  0  0
 20 23  1  0  0  0  0
 21 22  2  0  0  0  0
 24 25  1  0  0  0  0
 25 26  2  0  0  0  0
 26 27  1  0  0  0  0
 27 28  1  0  0  0  0
 27 29  2  0  0  0  0
  2 30  1  0  0  0  0
  3 31  1  0  0  0  0
  3 32  1  0  0  0  0
  4 33  1  0  0  0  0
  4 34  1  0  0  0  0
 10 35  1  0  0  0  0
 13 36  1  0  0  0  0
 14 37  1  0  0  0  0
 16 38  1  0  0  0  0
 17 39  1  0  0  0  0
 19 40  1  0  0  0  0
 22 41  1  0  0  0  0
 23 42  1  0  0  0  0
 23 43  1  0  0  0  0
 23 44  1  0  0  0  0
 24 45  1  0  0  0  0
 25 46  1  0  0  0  0
 26 47  1  0  0  0  0
 28 48  1  0  0  0  0
 29 49  1  0  0  0  0
M  END
> <Name>
23

> <IC50[uM]>
0.27

$$$$
23
  -OEChem-05192314333D
 Structure written by MMmdl.
 49 53  0     1  0  0  0  0  0999 V2000
   -6.3775   12.3296  -12.0018 C   0  0  0  0  0  0  0  0  0  0  0  0
   -6.5098   11.7629  -10.7403 C   0  0  0  0  0  0  0  0  0  0  0  0
   -7.7247   10.5660  -13.0266 C   0  0  0  0  0  0  0  0  0  0  0  0
   -6.9942   11.7487  -13.1193 C   0  0  0  0  0  0  0  0  0  0  0  0
   -7.8312   10.0057  -11.7538 C   0  0  0  0  0  0  0  0  0  0  0  0
   -7.2443   10.6021  -10.6070 C   0  0  0  0  0  0  0  0  0  0  0  0
   -7.6167    9.7449   -9.5151 C   0  0  0  0  0  0  0  0  0  0  0  0
   -8.2961    8.7374   -9.9786 N   0  0  0  0  0  0  0  0  0  0  0  0
   -8.4404    8.8724  -11.2937 N   0  0  0  0  0  0  0  0  0  0  0  0
   -7.3318    9.8946   -8.0252 C   0  0  0  0  0  0  0  0  0  0  0  0
   -5.5478   13.5112  -12.1572 C   0  0  0  0  0  0  0  0  0  0  0  0
   -5.9707   10.4870   -7.7351 C   0  0  3  0  0  0  0  0  0  0  0  0
   -5.8642   11.7588   -7.1694 C   0  0  0  0  0  0  0  0  0  0  0  0
   -4.6019   12.3141   -6.9186 C   0  0  0  0  0  0  0  0  0  0  0  0
   -3.4503   11.5963   -7.2357 C   0  0  0  0  0  0  0  0  0  0  0  0
   -3.5604   10.3220   -7.8000 C   0  0  0  0  0  0  0  0  0  0  0  0
   -4.8213    9.7719   -8.0443 C   0  0  0  0  0  0  0  0  0  0  0  0
   -2.0996   12.1710   -6.9757 C   0  0  0  0  0  0  0  0  0  0  0  0
   -1.7487   13.4240   -6.4767 C   0  0  0  0  0  0  0  0  0  0  0  0
   -0.4123   13.4674   -6.4260 N   0  0  0  0  0  0  0  0  0  0  0  0
    0.1713   12.3664   -6.8217 N   0  0  0  0  0  0  0  0  0  0  0  0
   -0.8093   11.5624   -7.1930 C   0  0  0  0  0  0  0  0  0  0  0  0
    0.4224   14.5657   -5.9816 C   0  0  0  0  0  0  0  0  0  0  0  0
   -5.6966   14.2423  -13.2612 N   0  0  0  0  0  0  0  0  0  0  0  0
   -4.9506   15.3153  -13.5405 C   0  0  0  0  0  0  0  0  0  0  0  0
   -3.9383   15.6899  -12.6782 C   0  0  0  0  0  0  0  0  0  0  0  0
   -3.7261   14.9536  -11.5366 C   0  0  0  0  0  0  0  0  0  0  0  0
   -4.5508   13.8769  -11.2437 C   0  0  0  0  0  0  0  0  0  0  0  0
   -2.6976   15.2614  -10.7139 N   0  0  0  0  0  0  0  0  0  0  0  0
   -6.0464   12.2223   -9.8797 H   0  0  0  0  0  0  0  0  0  0  0  0
   -8.1826   10.1089  -13.8914 H   0  0  0  0  0  0  0  0  0  0  0  0
   -6.9001   12.2325  -14.0803 H   0  0  0  0  0  0  0  0  0  0  0  0
   -8.0313    9.6067   -7.2544 H   0  0  0  0  0  0  0  0  0  0  0  0
   -5.9850   10.0375   -6.7313 H   0  0  0  0  0  0  0  0  0  0  0  0
   -6.7563   12.3160   -6.9245 H   0  0  0  0  0  0  0  0  0  0  0  0
   -4.5218   13.2977   -6.4798 H   0  0  0  0  0  0  0  0  0  0  0  0
   -2.6703    9.7625   -8.0472 H   0  0  0  0  0  0  0  0  0  0  0  0
   -4.8715    8.8319   -7.4752 H   0  0  0  0  0  0  0  0  0  0  0  0
   -4.8665    9.5515   -9.1210 H   0  0  0  0  0  0  0  0  0  0  0  0
   -2.4277   14.2118   -6.1857 H   0  0  0  0  0  0  0  0  0  0  0  0
   -0.6637   10.5754   -7.6065 H   0  0  0  0  0  0  0  0  0  0  0  0
    1.4809   14.2752   -6.0543 H   0  0  0  0  0  0  0  0  0  0  0  0
    0.2393   15.4453   -6.6162 H   0  0  0  0  0  0  0  0  0  0  0  0
    0.1804   14.8105   -4.9369 H   0  0  0  0  0  0  0  0  0  0  0  0
   -6.4038   13.9739  -13.9153 H   0  0  0  0  0  0  0  0  0  0  0  0
   -5.1384   15.8875  -14.4370 H   0  0  0  0  0  0  0  0  0  0  0  0
   -3.3221   16.5493  -12.8978 H   0  0  0  0  0  0  0  0  0  0  0  0
   -4.4255   13.3274  -10.3224 H   0  0  0  0  0  0  0  0  0  0  0  0
   -2.6419   14.6376   -9.9343 H   0  0  0  0  0  0  0  0  0  0  0  0
  1  2  2  0  0  0  0
  1  4  1  0  0  0  0
  1 11  1  0  0  0  0
  2  6  1  0  0  0  0
  3  4  2  0  0  0  0
  3  5  1  0  0  0  0
  5  6  2  0  0  0  0
  5  9  1  0  0  0  0
  6  7  1  0  0  0  0
  7  8  1  0  0  0  0
  7 10  2  3  0  0  0
  8  9  2  0  0  0  0
 10 12  1  0  0  0  0
 11 24  1  0  0  0  0
 11 28  2  0  0  0  0
 12 13  1  0  0  0  0
 12 17  1  0  0  0  0
 13 14  2  0  0  0  0
 14 15  1  0  0  0  0
 15 16  2  0  0  0  0
 15 18  1  0  0  0  0
 16 17  1  0  0  0  0
 18 19  2  0  0  0  0
 18 22  1  0  0  0  0
 19 20  1  0  0  0  0
 20 21  1  0  0  0  0
 20 23  1  0  0  0  0
 21 22  2  0  0  0  0
 24 25  1  0  0  0  0
 25 26  2  0  0  0  0
 26 27  1  0  0  0  0
 27 28  1  0  0  0  0
 27 29  2  0  0  0  0
  2 30  1  0  0  0  0
  3 31  1  0  0  0  0
  4 32  1  0  0  0  0
 10 33  1  0  0  0  0
 12 34  1  0  0  0  0
 13 35  1  0  0  0  0
 14 36  1  0  0  0  0
 16 37  1  0  0  0  0
 17 38  1  0  0  0  0
 17 39  1  0  0  0  0
 19 40  1  0  0  0  0
 22 41  1  0  0  0  0
 23 42  1  0  0  0  0
 23 43  1  0  0  0  0
 23 44  1  0  0  0  0
 24 45  1  0  0  0  0
 25 46  1  0  0  0  0
 26 47  1  0  0  0  0
 28 48  1  0  0  0  0
 29 49  1  0  0  0  0
M  END
> <Name>
23

> <IC50[uM]>
0.27

$$$$
23
  -OEChem-05192314333D
 Structure written by MMmdl.
 49 53  0     1  0  0  0  0  0999 V2000
   -6.3775   12.3296  -12.0018 C   0  0  0  0  0  0  0  0  0  0  0  0
   -6.5098   11.7629  -10.7403 C   0  0  0  0  0  0  0  0  0  0  0  0
   -7.7247   10.5660  -13.0266 C   0  0  0  0  0  0  0  0  0  0  0  0
   -6.9942   11.7487  -13.1193 C   0  0  0  0  0  0  0  0  0  0  0  0
   -7.8312   10.0057  -11.7538 C   0  0  0  0  0  0  0  0  0  0  0  0
   -7.2443   10.6021  -10.6070 C   0  0  0  0  0  0  0  0  0  0  0  0
   -7.6167    9.7449   -9.5151 C   0  0  3  0  0  0  0  0  0  0  0  0
   -8.2961    8.7374   -9.9786 N   0  0  0  0  0  0  0  0  0  0  0  0
   -8.4404    8.8724  -11.2937 N   0  0  0  0  0  0  0  0  0  0  0  0
   -7.3318    9.8946   -8.0252 C   0  0  0  0  0  0  0  0  0  0  0  0
   -5.5478   13.5112  -12.1572 C   0  0  0  0  0  0  0  0  0  0  0  0
   -5.9707   10.4870   -7.7351 C   0  0  0  0  0  0  0  0  0  0  0  0
   -5.8642   11.7588   -7.1694 C   0  0  0  0  0  0  0  0  0  0  0  0
   -4.6019   12.3141   -6.9186 C   0  0  0  0  0  0  0  0  0  0  0  0
   -3.4503   11.5963   -7.2357 C   0  0  0  0  0  0  0  0  0  0  0  0
   -3.5604   10.3220   -7.8000 C   0  0  0  0  0  0  0  0  0  0  0  0
   -4.8213    9.7719   -8.0443 C   0  0  0  0  0  0  0  0  0  0  0  0
   -2.0996   12.1710   -6.9757 C   0  0  0  0  0  0  0  0  0  0  0  0
   -1.7487   13.4240   -6.4767 C   0  0  0  0  0  0  0  0  0  0  0  0
   -0.4123   13.4674   -6.4260 N   0  0  0  0  0  0  0  0  0  0  0  0
    0.1713   12.3664   -6.8217 N   0  0  0  0  0  0  0  0  0  0  0  0
   -0.8093   11.5624   -7.1930 C   0  0  0  0  0  0  0  0  0  0  0  0
    0.4224   14.5657   -5.9816 C   0  0  0  0  0  0  0  0  0  0  0  0
   -5.6966   14.2423  -13.2612 N   0  0  0  0  0  0  0  0  0  0  0  0
   -4.9506   15.3153  -13.5405 C   0  0  0  0  0  0  0  0  0  0  0  0
   -3.9383   15.6899  -12.6782 C   0  0  0  0  0  0  0  0  0  0  0  0
   -3.7261   14.9536  -11.5366 C   0  0  0  0  0  0  0  0  0  0  0  0
   -4.5508   13.8769  -11.2437 C   0  0  0  0  0  0  0  0  0  0  0  0
   -2.6976   15.2614  -10.7139 N   0  0  0  0  0  0  0  0  0  0  0  0
   -6.0464   12.2223   -9.8797 H   0  0  0  0  0  0  0  0  0  0  0  0
   -8.1826   10.1089  -13.8914 H   0  0  0  0  0  0  0  0  0  0  0  0
   -6.9001   12.2325  -14.0803 H   0  0  0  0  0  0  0  0  0  0  0  0
   -6.6832    9.1765   -9.6392 H   0  0  0  0  0  0  0  0  0  0  0  0
   -8.0313    9.6067   -7.2544 H   0  0  0  0  0  0  0  0  0  0  0  0
   -6.7563   12.3160   -6.9245 H   0  0  0  0  0  0  0  0  0  0  0  0
   -4.5218   13.2977   -6.4798 H   0  0  0  0  0  0  0  0  0  0  0  0
   -2.6703    9.7625   -8.0472 H   0  0  0  0  0  0  0  0  0  0  0  0
   -4.8715    8.8319   -7.4752 H   0  0  0  0  0  0  0  0  0  0  0  0
   -4.8665    9.5515   -9.1210 H   0  0  0  0  0  0  0  0  0  0  0  0
   -2.4277   14.2118   -6.1857 H   0  0  0  0  0  0  0  0  0  0  0  0
   -0.6637   10.5754   -7.6065 H   0  0  0  0  0  0  0  0  0  0  0  0
    1.4809   14.2752   -6.0543 H   0  0  0  0  0  0  0  0  0  0  0  0
    0.2393   15.4453   -6.6162 H   0  0  0  0  0  0  0  0  0  0  0  0
    0.1804   14.8105   -4.9369 H   0  0  0  0  0  0  0  0  0  0  0  0
   -6.4038   13.9739  -13.9153 H   0  0  0  0  0  0  0  0  0  0  0  0
   -5.1384   15.8875  -14.4370 H   0  0  0  0  0  0  0  0  0  0  0  0
   -3.3221   16.5493  -12.8978 H   0  0  0  0  0  0  0  0  0  0  0  0
   -4.4255   13.3274  -10.3224 H   0  0  0  0  0  0  0  0  0  0  0  0
   -2.6419   14.6376   -9.9343 H   0  0  0  0  0  0  0  0  0  0  0  0
  1  2  2  0  0  0  0
  1  4  1  0  0  0  0
  1 11  1  0  0  0  0
  2  6  1  0  0  0  0
  3  4  2  0  0  0  0
  3  5  1  0  0  0  0
  5  6  2  0  0  0  0
  5  9  1  0  0  0  0
  6  7  1  0  0  0  0
  7  8  1  0  0  0  0
  7 10  1  0  0  0  0
  8  9  2  0  0  0  0
 10 12  2  3  0  0  0
 11 24  1  0  0  0  0
 11 28  2  0  0  0  0
 12 13  1  0  0  0  0
 12 17  1  0  0  0  0
 13 14  2  0  0  0  0
 14 15  1  0  0  0  0
 15 16  2  0  0  0  0
 15 18  1  0  0  0  0
 16 17  1  0  0  0  0
 18 19  2  0  0  0  0
 18 22  1  0  0  0  0
 19 20  1  0  0  0  0
 20 21  1  0  0  0  0
 20 23  1  0  0  0  0
 21 22  2  0  0  0  0
 24 25  1  0  0  0  0
 25 26  2  0  0  0  0
 26 27  1  0  0  0  0
 27 28  1  0  0  0  0
 27 29  2  0  0  0  0
  2 30  1  0  0  0  0
  3 31  1  0  0  0  0
  4 32  1  0  0  0  0
  7 33  1  0  0  0  0
 10 34  1  0  0  0  0
 13 35  1  0  0  0  0
 14 36  1  0  0  0  0
 16 37  1  0  0  0  0
 17 38  1  0  0  0  0
 17 39  1  0  0  0  0
 19 40  1  0  0  0  0
 22 41  1  0  0  0  0
 23 42  1  0  0  0  0
 23 43  1  0  0  0  0
 23 44  1  0  0  0  0
 24 45  1  0  0  0  0
 25 46  1  0  0  0  0
 26 47  1  0  0  0  0
 28 48  1  0  0  0  0
 29 49  1  0  0  0  0
M  END
> <Name>
23

> <IC50[uM]>
0.27

$$$$
23
  -OEChem-05192314333D
 Structure written by MMmdl.
 49 53  0     0  0  0  0  0  0999 V2000
   -6.3775   12.3296  -12.0018 C   0  0  0  0  0  0  0  0  0  0  0  0
   -6.5098   11.7629  -10.7403 C   0  0  0  0  0  0  0  0  0  0  0  0
   -7.7247   10.5660  -13.0266 C   0  0  0  0  0  0  0  0  0  0  0  0
   -6.9942   11.7487  -13.1193 C   0  0  0  0  0  0  0  0  0  0  0  0
   -7.8312   10.0057  -11.7538 C   0  0  0  0  0  0  0  0  0  0  0  0
   -7.2443   10.6021  -10.6070 C   0  0  0  0  0  0  0  0  0  0  0  0
   -7.6167    9.7449   -9.5151 C   0  0  0  0  0  0  0  0  0  0  0  0
   -8.2961    8.7374   -9.9786 N   0  0  0  0  0  0  0  0  0  0  0  0
   -8.4404    8.8724  -11.2937 N   0  0  0  0  0  0  0  0  0  0  0  0
   -7.3318    9.8946   -8.0252 C   0  0  0  0  0  0  0  0  0  0  0  0
   -5.5478   13.5112  -12.1572 C   0  0  0  0  0  0  0  0  0  0  0  0
   -5.9707   10.4870   -7.7351 C   0  0  0  0  0  0  0  0  0  0  0  0
   -5.8642   11.7588   -7.1694 C   0  0  0  0  0  0  0  0  0  0  0  0
   -4.6019   12.3141   -6.9186 C   0  0  0  0  0  0  0  0  0  0  0  0
   -3.4503   11.5963   -7.2357 C   0  0  0  0  0  0  0  0  0  0  0  0
   -3.5604   10.3220   -7.8000 C   0  0  0  0  0  0  0  0  0  0  0  0
   -4.8213    9.7719   -8.0443 C   0  0  0  0  0  0  0  0  0  0  0  0
   -2.0996   12.1710   -6.9757 C   0  0  0  0  0  0  0  0  0  0  0  0
   -1.7487   13.4240   -6.4767 C   0  0  0  0  0  0  0  0  0  0  0  0
   -0.4123   13.4674   -6.4260 N   0  0  0  0  0  0  0  0  0  0  0  0
    0.1713   12.3664   -6.8217 N   0  0  0  0  0  0  0  0  0  0  0  0
   -0.8093   11.5624   -7.1930 C   0  0  0  0  0  0  0  0  0  0  0  0
    0.4224   14.5657   -5.9816 C   0  0  0  0  0  0  0  0  0  0  0  0
   -5.6966   14.2423  -13.2612 N   0  0  0  0  0  0  0  0  0  0  0  0
   -4.9506   15.3153  -13.5405 C   0  0  0  0  0  0  0  0  0  0  0  0
   -3.9383   15.6899  -12.6782 C   0  0  0  0  0  0  0  0  0  0  0  0
   -3.7261   14.9536  -11.5366 C   0  0  0  0  0  0  0  0  0  0  0  0
   -4.5508   13.8769  -11.2437 C   0  0  0  0  0  0  0  0  0  0  0  0
   -2.6976   15.2614  -10.7139 N   0  0  0  0  0  0  0  0  0  0  0  0
   -6.0464   12.2223   -9.8797 H   0  0  0  0  0  0  0  0  0  0  0  0
   -8.1826   10.1089  -13.8914 H   0  0  0  0  0  0  0  0  0  0  0  0
   -6.9001   12.2325  -14.0803 H   0  0  0  0  0  0  0  0  0  0  0  0
   -8.0313    9.6067   -7.2544 H   0  0  0  0  0  0  0  0  0  0  0  0
   -6.7563   12.3160   -6.9245 H   0  0  0  0  0  0  0  0  0  0  0  0
   -4.5527   13.2582   -7.4809 H   0  0  0  0  0  0  0  0  0  0  0  0
   -4.5569   12.5268   -5.8403 H   0  0  0  0  0  0  0  0  0  0  0  0
   -2.6703    9.7625   -8.0472 H   0  0  0  0  0  0  0  0  0  0  0  0
   -4.8715    8.8319   -7.4752 H   0  0  0  0  0  0  0  0  0  0  0  0
   -4.8665    9.5515   -9.1210 H   0  0  0  0  0  0  0  0  0  0  0  0
   -2.4277   14.2118   -6.1857 H   0  0  0  0  0  0  0  0  0  0  0  0
   -0.6637   10.5754   -7.6065 H   0  0  0  0  0  0  0  0  0  0  0  0
    1.4809   14.2752   -6.0543 H   0  0  0  0  0  0  0  0  0  0  0  0
    0.2393   15.4453   -6.6162 H   0  0  0  0  0  0  0  0  0  0  0  0
    0.1804   14.8105   -4.9369 H   0  0  0  0  0  0  0  0  0  0  0  0
   -6.4038   13.9739  -13.9153 H   0  0  0  0  0  0  0  0  0  0  0  0
   -5.1384   15.8875  -14.4370 H   0  0  0  0  0  0  0  0  0  0  0  0
   -3.3221   16.5493  -12.8978 H   0  0  0  0  0  0  0  0  0  0  0  0
   -4.4255   13.3274  -10.3224 H   0  0  0  0  0  0  0  0  0  0  0  0
   -2.6419   14.6376   -9.9343 H   0  0  0  0  0  0  0  0  0  0  0  0
  1  2  2  0  0  0  0
  1  4  1  0  0  0  0
  1 11  1  0  0  0  0
  2  6  1  0  0  0  0
  3  4  2  0  0  0  0
  3  5  1  0  0  0  0
  5  6  2  0  0  0  0
  5  9  1  0  0  0  0
  6  7  1  0  0  0  0
  7  8  1  0  0  0  0
  7 10  2  3  0  0  0
  8  9  2  0  0  0  0
 10 12  1  0  0  0  0
 11 24  1  0  0  0  0
 11 28  2  0  0  0  0
 12 13  2  0  0  0  0
 12 17  1  0  0  0  0
 13 14  1  0  0  0  0
 14 15  1  0  0  0  0
 15 16  2  0  0  0  0
 15 18  1  0  0  0  0
 16 17  1  0  0  0  0
 18 19  2  0  0  0  0
 18 22  1  0  0  0  0
 19 20  1  0  0  0  0
 20 21  1  0  0  0  0
 20 23  1  0  0  0  0
 21 22  2  0  0  0  0
 24 25  1  0  0  0  0
 25 26  2  0  0  0  0
 26 27  1  0  0  0  0
 27 28  1  0  0  0  0
 27 29  2  0  0  0  0
  2 30  1  0  0  0  0
  3 31  1  0  0  0  0
  4 32  1  0  0  0  0
 10 33  1  0  0  0  0
 13 34  1  0  0  0  0
 14 35  1  0  0  0  0
 14 36  1  0  0  0  0
 16 37  1  0  0  0  0
 17 38  1  0  0  0  0
 17 39  1  0  0  0  0
 19 40  1  0  0  0  0
 22 41  1  0  0  0  0
 23 42  1  0  0  0  0
 23 43  1  0  0  0  0
 23 44  1  0  0  0  0
 24 45  1  0  0  0  0
 25 46  1  0  0  0  0
 26 47  1  0  0  0  0
 28 48  1  0  0  0  0
 29 49  1  0  0  0  0
M  END
> <Name>
23

> <IC50[uM]>
0.27

$$$$
23
  -OEChem-05192314333D
 Structure written by MMmdl.
 49 53  0     0  0  0  0  0  0999 V2000
   -6.3775   12.3296  -12.0018 C   0  0  0  0  0  0  0  0  0  0  0  0
   -6.5098   11.7629  -10.7403 C   0  0  0  0  0  0  0  0  0  0  0  0
   -7.7247   10.5660  -13.0266 C   0  0  0  0  0  0  0  0  0  0  0  0
   -6.9942   11.7487  -13.1193 C   0  0  0  0  0  0  0  0  0  0  0  0
   -7.8312   10.0057  -11.7538 C   0  0  0  0  0  0  0  0  0  0  0  0
   -7.2443   10.6021  -10.6070 C   0  0  0  0  0  0  0  0  0  0  0  0
   -7.6167    9.7449   -9.5151 C   0  0  0  0  0  0  0  0  0  0  0  0
   -8.2961    8.7374   -9.9786 N   0  0  0  0  0  0  0  0  0  0  0  0
   -8.4404    8.8724  -11.2937 N   0  0  0  0  0  0  0  0  0  0  0  0
   -7.3318    9.8946   -8.0252 C   0  0  0  0  0  0  0  0  0  0  0  0
   -5.5478   13.5112  -12.1572 C   0  0  0  0  0  0  0  0  0  0  0  0
   -5.9707   10.4870   -7.7351 C   0  0  0  0  0  0  0  0  0  0  0  0
   -5.8642   11.7588   -7.1694 C   0  0  0  0  0  0  0  0  0  0  0  0
   -4.6019   12.3141   -6.9186 C   0  0  0  0  0  0  0  0  0  0  0  0
   -3.4503   11.5963   -7.2357 C   0  0  0  0  0  0  0  0  0  0  0  0
   -3.5604   10.3220   -7.8000 C   0  0  0  0  0  0  0  0  0  0  0  0
   -4.8213    9.7719   -8.0443 C   0  0  0  0  0  0  0  0  0  0  0  0
   -2.0996   12.1710   -6.9757 C   0  0  0  0  0  0  0  0  0  0  0  0
   -1.7487   13.4240   -6.4767 C   0  0  0  0  0  0  0  0  0  0  0  0
   -0.4123   13.4674   -6.4260 N   0  0  0  0  0  0  0  0  0  0  0  0
    0.1713   12.3664   -6.8217 N   0  0  0  0  0  0  0  0  0  0  0  0
   -0.8093   11.5624   -7.1930 C   0  0  0  0  0  0  0  0  0  0  0  0
    0.4224   14.5657   -5.9816 C   0  0  0  0  0  0  0  0  0  0  0  0
   -5.6966   14.2423  -13.2612 N   0  0  0  0  0  0  0  0  0  0  0  0
   -4.9506   15.3153  -13.5405 C   0  0  0  0  0  0  0  0  0  0  0  0
   -3.9383   15.6899  -12.6782 C   0  0  0  0  0  0  0  0  0  0  0  0
   -3.7261   14.9536  -11.5366 C   0  0  0  0  0  0  0  0  0  0  0  0
   -4.5508   13.8769  -11.2437 C   0  0  0  0  0  0  0  0  0  0  0  0
   -2.6976   15.2614  -10.7139 N   0  0  0  0  0  0  0  0  0  0  0  0
   -6.0464   12.2223   -9.8797 H   0  0  0  0  0  0  0  0  0  0  0  0
   -8.1826   10.1089  -13.8914 H   0  0  0  0  0  0  0  0  0  0  0  0
   -6.9001   12.2325  -14.0803 H   0  0  0  0  0  0  0  0  0  0  0  0
   -8.0313    9.6067   -7.2544 H   0  0  0  0  0  0  0  0  0  0  0  0
   -6.7563   12.3160   -6.9245 H   0  0  0  0  0  0  0  0  0  0  0  0
   -4.5218   13.2977   -6.4798 H   0  0  0  0  0  0  0  0  0  0  0  0
   -3.0365   10.3566   -8.7666 H   0  0  0  0  0  0  0  0  0  0  0  0
   -3.0375    9.6293   -7.1241 H   0  0  0  0  0  0  0  0  0  0  0  0
   -4.8715    8.8319   -7.4752 H   0  0  0  0  0  0  0  0  0  0  0  0
   -4.8665    9.5515   -9.1210 H   0  0  0  0  0  0  0  0  0  0  0  0
   -2.4277   14.2118   -6.1857 H   0  0  0  0  0  0  0  0  0  0  0  0
   -0.6637   10.5754   -7.6065 H   0  0  0  0  0  0  0  0  0  0  0  0
    1.4809   14.2752   -6.0543 H   0  0  0  0  0  0  0  0  0  0  0  0
    0.2393   15.4453   -6.6162 H   0  0  0  0  0  0  0  0  0  0  0  0
    0.1804   14.8105   -4.9369 H   0  0  0  0  0  0  0  0  0  0  0  0
   -6.4038   13.9739  -13.9153 H   0  0  0  0  0  0  0  0  0  0  0  0
   -5.1384   15.8875  -14.4370 H   0  0  0  0  0  0  0  0  0  0  0  0
   -3.3221   16.5493  -12.8978 H   0  0  0  0  0  0  0  0  0  0  0  0
   -4.4255   13.3274  -10.3224 H   0  0  0  0  0  0  0  0  0  0  0  0
   -2.6419   14.6376   -9.9343 H   0  0  0  0  0  0  0  0  0  0  0  0
  1  2  2  0  0  0  0
  1  4  1  0  0  0  0
  1 11  1  0  0  0  0
  2  6  1  0  0  0  0
  3  4  2  0  0  0  0
  3  5  1  0  0  0  0
  5  6  2  0  0  0  0
  5  9  1  0  0  0  0
  6  7  1  0  0  0  0
  7  8  1  0  0  0  0
  7 10  2  3  0  0  0
  8  9  2  0  0  0  0
 10 12  1  0  0  0  0
 11 24  1  0  0  0  0
 11 28  2  0  0  0  0
 12 13  2  0  0  0  0
 12 17  1  0  0  0  0
 13 14  1  0  0  0  0
 14 15  2  0  0  0  0
 15 16  1  0  0  0  0
 15 18  1  0  0  0  0
 16 17  1  0  0  0  0
 18 19  2  0  0  0  0
 18 22  1  0  0  0  0
 19 20  1  0  0  0  0
 20 21  1  0  0  0  0
 20 23  1  0  0  0  0
 21 22  2  0  0  0  0
 24 25  1  0  0  0  0
 25 26  2  0  0  0  0
 26 27  1  0  0  0  0
 27 28  1  0  0  0  0
 27 29  2  0  0  0  0
  2 30  1  0  0  0  0
  3 31  1  0  0  0  0
  4 32  1  0  0  0  0
 10 33  1  0  0  0  0
 13 34  1  0  0  0  0
 14 35  1  0  0  0  0
 16 36  1  0  0  0  0
 16 37  1  0  0  0  0
 17 38  1  0  0  0  0
 17 39  1  0  0  0  0
 19 40  1  0  0  0  0
 22 41  1  0  0  0  0
 23 42  1  0  0  0  0
 23 43  1  0  0  0  0
 23 44  1  0  0  0  0
 24 45  1  0  0  0  0
 25 46  1  0  0  0  0
 26 47  1  0  0  0  0
 28 48  1  0  0  0  0
 29 49  1  0  0  0  0
M  END
> <Name>
23

> <IC50[uM]>
0.27

$$$$
23
  -OEChem-05192314333D
 Structure written by MMmdl.
 49 53  0     1  0  0  0  0  0999 V2000
   -6.3775   12.3296  -12.0018 C   0  0  3  0  0  0  0  0  0  0  0  0
   -6.5098   11.7629  -10.7403 C   0  0  0  0  0  0  0  0  0  0  0  0
   -7.7247   10.5660  -13.0266 C   0  0  0  0  0  0  0  0  0  0  0  0
   -6.9942   11.7487  -13.1193 C   0  0  0  0  0  0  0  0  0  0  0  0
   -7.8312   10.0057  -11.7538 C   0  0  0  0  0  0  0  0  0  0  0  0
   -7.2443   10.6021  -10.6070 C   0  0  0  0  0  0  0  0  0  0  0  0
   -7.6167    9.7449   -9.5151 C   0  0  0  0  0  0  0  0  0  0  0  0
   -8.2961    8.7374   -9.9786 N   0  0  0  0  0  0  0  0  0  0  0  0
   -8.4404    8.8724  -11.2937 N   0  0  0  0  0  0  0  0  0  0  0  0
   -7.3318    9.8946   -8.0252 C   0  0  0  0  0  0  0  0  0  0  0  0
   -5.5478   13.5112  -12.1572 C   0  0  0  0  0  0  0  0  0  0  0  0
   -5.9707   10.4870   -7.7351 C   0  0  0  0  0  0  0  0  0  0  0  0
   -5.8642   11.7588   -7.1694 C   0  0  0  0  0  0  0  0  0  0  0  0
   -4.6019   12.3141   -6.9186 C   0  0  0  0  0  0  0  0  0  0  0  0
   -3.4503   11.5963   -7.2357 C   0  0  0  0  0  0  0  0  0  0  0  0
   -3.5604   10.3220   -7.8000 C   0  0  0  0  0  0  0  0  0  0  0  0
   -4.8213    9.7719   -8.0443 C   0  0  0  0  0  0  0  0  0  0  0  0
   -2.0996   12.1710   -6.9757 C   0  0  0  0  0  0  0  0  0  0  0  0
   -1.7487   13.4240   -6.4767 C   0  0  0  0  0  0  0  0  0  0  0  0
   -0.4123   13.4674   -6.4260 N   0  0  0  0  0  0  0  0  0  0  0  0
    0.1713   12.3664   -6.8217 N   0  0  0  0  0  0  0  0  0  0  0  0
   -0.8093   11.5624   -7.1930 C   0  0  0  0  0  0  0  0  0  0  0  0
    0.4224   14.5657   -5.9816 C   0  0  0  0  0  0  0  0  0  0  0  0
   -5.6966   14.2423  -13.2612 N   0  0  0  0  0  0  0  0  0  0  0  0
   -4.9506   15.3153  -13.5405 C   0  0  0  0  0  0  0  0  0  0  0  0
   -3.9383   15.6899  -12.6782 C   0  0  0  0  0  0  0  0  0  0  0  0
   -3.7261   14.9536  -11.5366 C   0  0  0  0  0  0  0  0  0  0  0  0
   -4.5508   13.8769  -11.2437 C   0  0  0  0  0  0  0  0  0  0  0  0
   -2.6976   15.2614  -10.7139 N   0  0  0  0  0  0  0  0  0  0  0  0
   -7.2621   12.9592  -11.8254 H   0  0  0  0  0  0  0  0  0  0  0  0
   -5.4950   11.5473  -10.3746 H   0  0  0  0  0  0  0  0  0  0  0  0
   -6.9796   12.5188  -10.0939 H   0  0  0  0  0  0  0  0  0  0  0  0
   -8.1826   10.1089  -13.8914 H   0  0  0  0  0  0  0  0  0  0  0  0
   -6.9001   12.2325  -14.0803 H   0  0  0  0  0  0  0  0  0  0  0  0
   -8.0313    9.6067   -7.2544 H   0  0  0  0  0  0  0  0  0  0  0  0
   -6.7563   12.3160   -6.9245 H   0  0  0  0  0  0  0  0  0  0  0  0
   -4.5218   13.2977   -6.4798 H   0  0  0  0  0  0  0  0  0  0  0  0
   -2.6703    9.7625   -8.0472 H   0  0  0  0  0  0  0  0  0  0  0  0
   -4.9024    8.7852   -8.4759 H   0  0  0  0  0  0  0  0  0  0  0  0
   -2.4277   14.2118   -6.1857 H   0  0  0  0  0  0  0  0  0  0  0  0
   -0.6637   10.5754   -7.6065 H   0  0  0  0  0  0  0  0  0  0  0  0
    1.4809   14.2752   -6.0543 H   0  0  0  0  0  0  0  0  0  0  0  0
    0.2393   15.4453   -6.6162 H   0  0  0  0  0  0  0  0  0  0  0  0
    0.1804   14.8105   -4.9369 H   0  0  0  0  0  0  0  0  0  0  0  0
   -6.4038   13.9739  -13.9153 H   0  0  0  0  0  0  0  0  0  0  0  0
   -5.1384   15.8875  -14.4370 H   0  0  0  0  0  0  0  0  0  0  0  0
   -3.3221   16.5493  -12.8978 H   0  0  0  0  0  0  0  0  0  0  0  0
   -4.4255   13.3274  -10.3224 H   0  0  0  0  0  0  0  0  0  0  0  0
   -2.6419   14.6376   -9.9343 H   0  0  0  0  0  0  0  0  0  0  0  0
  1  2  1  0  0  0  0
  1  4  1  0  0  0  0
  1 11  1  0  0  0  0
  2  6  1  0  0  0  0
  3  4  2  0  0  0  0
  3  5  1  0  0  0  0
  5  6  2  0  0  0  0
  5  9  1  0  0  0  0
  6  7  1  0  0  0  0
  7  8  1  0  0  0  0
  7 10  2  3  0  0  0
  8  9  2  0  0  0  0
 10 12  1  0  0  0  0
 11 24  1  0  0  0  0
 11 28  2  0  0  0  0
 12 13  2  0  0  0  0
 12 17  1  0  0  0  0
 13 14  1  0  0  0  0
 14 15  2  0  0  0  0
 15 16  1  0  0  0  0
 15 18  1  0  0  0  0
 16 17  2  0  0  0  0
 18 19  2  0  0  0  0
 18 22  1  0  0  0  0
 19 20  1  0  0  0  0
 20 21  1  0  0  0  0
 20 23  1  0  0  0  0
 21 22  2  0  0  0  0
 24 25  1  0  0  0  0
 25 26  2  0  0  0  0
 26 27  1  0  0  0  0
 27 28  1  0  0  0  0
 27 29  2  0  0  0  0
  1 30  1  0  0  0  0
  2 31  1  0  0  0  0
  2 32  1  0  0  0  0
  3 33  1  0  0  0  0
  4 34  1  0  0  0  0
 10 35  1  0  0  0  0
 13 36  1  0  0  0  0
 14 37  1  0  0  0  0
 16 38  1  0  0  0  0
 17 39  1  0  0  0  0
 19 40  1  0  0  0  0
 22 41  1  0  0  0  0
 23 42  1  0  0  0  0
 23 43  1  0  0  0  0
 23 44  1  0  0  0  0
 24 45  1  0  0  0  0
 25 46  1  0  0  0  0
 26 47  1  0  0  0  0
 28 48  1  0  0  0  0
 29 49  1  0  0  0  0
M  END
> <Name>
23

> <IC50[uM]>
0.27

$$$$
23
  -OEChem-05192314333D
 Structure written by MMmdl.
 49 53  0     1  0  0  0  0  0999 V2000
   -6.3775   12.3296  -12.0018 C   0  0  0  0  0  0  0  0  0  0  0  0
   -6.5098   11.7629  -10.7403 C   0  0  0  0  0  0  0  0  0  0  0  0
   -7.7247   10.5660  -13.0266 C   0  0  0  0  0  0  0  0  0  0  0  0
   -6.9942   11.7487  -13.1193 C   0  0  0  0  0  0  0  0  0  0  0  0
   -7.8312   10.0057  -11.7538 C   0  0  0  0  0  0  0  0  0  0  0  0
   -7.2443   10.6021  -10.6070 C   0  0  3  0  0  0  0  0  0  0  0  0
   -7.6167    9.7449   -9.5151 C   0  0  0  0  0  0  0  0  0  0  0  0
   -8.2961    8.7374   -9.9786 N   0  0  0  0  0  0  0  0  0  0  0  0
   -8.4404    8.8724  -11.2937 N   0  0  0  0  0  0  0  0  0  0  0  0
   -7.3318    9.8946   -8.0252 C   0  0  0  0  0  0  0  0  0  0  0  0
   -5.5478   13.5112  -12.1572 C   0  0  0  0  0  0  0  0  0  0  0  0
   -5.9707   10.4870   -7.7351 C   0  0  0  0  0  0  0  0  0  0  0  0
   -5.8642   11.7588   -7.1694 C   0  0  0  0  0  0  0  0  0  0  0  0
   -4.6019   12.3141   -6.9186 C   0  0  0  0  0  0  0  0  0  0  0  0
   -3.4503   11.5963   -7.2357 C   0  0  0  0  0  0  0  0  0  0  0  0
   -3.5604   10.3220   -7.8000 C   0  0  0  0  0  0  0  0  0  0  0  0
   -4.8213    9.7719   -8.0443 C   0  0  0  0  0  0  0  0  0  0  0  0
   -2.0996   12.1710   -6.9757 C   0  0  0  0  0  0  0  0  0  0  0  0
   -1.7487   13.4240   -6.4767 C   0  0  0  0  0  0  0  0  0  0  0  0
   -0.4123   13.4674   -6.4260 N   0  0  0  0  0  0  0  0  0  0  0  0
    0.1713   12.3664   -6.8217 N   0  0  0  0  0  0  0  0  0  0  0  0
   -0.8093   11.5624   -7.1930 C   0  0  0  0  0  0  0  0  0  0  0  0
    0.4224   14.5657   -5.9816 C   0  0  0  0  0  0  0  0  0  0  0  0
   -5.6966   14.2423  -13.2612 N   0  0  0  0  0  0  0  0  0  0  0  0
   -4.9506   15.3153  -13.5405 C   0  0  0  0  0  0  0  0  0  0  0  0
   -3.9383   15.6899  -12.6782 C   0  0  0  0  0  0  0  0  0  0  0  0
   -3.7261   14.9536  -11.5366 C   0  0  0  0  0  0  0  0  0  0  0  0
   -4.5508   13.8769  -11.2437 C   0  0  0  0  0  0  0  0  0  0  0  0
   -2.6976   15.2614  -10.7139 N   0  0  0  0  0  0  0  0  0  0  0  0
   -5.4950   11.5473  -10.3746 H   0  0  0  0  0  0  0  0  0  0  0  0
   -6.9796   12.5188  -10.0939 H   0  0  0  0  0  0  0  0  0  0  0  0
   -8.1826   10.1089  -13.8914 H   0  0  0  0  0  0  0  0  0  0  0  0
   -6.9001   12.2325  -14.0803 H   0  0  0  0  0  0  0  0  0  0  0  0
   -6.3326   10.0069  -10.7637 H   0  0  0  0  0  0  0  0  0  0  0  0
   -8.0313    9.6067   -7.2544 H   0  0  0  0  0  0  0  0  0  0  0  0
   -6.7563   12.3160   -6.9245 H   0  0  0  0  0  0  0  0  0  0  0  0
   -4.5218   13.2977   -6.4798 H   0  0  0  0  0  0  0  0  0  0  0  0
   -2.6703    9.7625   -8.0472 H   0  0  0  0  0  0  0  0  0  0  0  0
   -4.9024    8.7852   -8.4759 H   0  0  0  0  0  0  0  0  0  0  0  0
   -2.4277   14.2118   -6.1857 H   0  0  0  0  0  0  0  0  0  0  0  0
   -0.6637   10.5754   -7.6065 H   0  0  0  0  0  0  0  0  0  0  0  0
    1.4809   14.2752   -6.0543 H   0  0  0  0  0  0  0  0  0  0  0  0
    0.2393   15.4453   -6.6162 H   0  0  0  0  0  0  0  0  0  0  0  0
    0.1804   14.8105   -4.9369 H   0  0  0  0  0  0  0  0  0  0  0  0
   -6.4038   13.9739  -13.9153 H   0  0  0  0  0  0  0  0  0  0  0  0
   -5.1384   15.8875  -14.4370 H   0  0  0  0  0  0  0  0  0  0  0  0
   -3.3221   16.5493  -12.8978 H   0  0  0  0  0  0  0  0  0  0  0  0
   -4.4255   13.3274  -10.3224 H   0  0  0  0  0  0  0  0  0  0  0  0
   -2.6419   14.6376   -9.9343 H   0  0  0  0  0  0  0  0  0  0  0  0
  1  2  1  0  0  0  0
  1  4  2  0  0  0  0
  1 11  1  0  0  0  0
  2  6  1  0  0  0  0
  3  4  1  0  0  0  0
  3  5  2  0  0  0  0
  5  6  1  0  0  0  0
  5  9  1  0  0  0  0
  6  7  1  0  0  0  0
  7  8  1  0  0  0  0
  7 10  2  3  0  0  0
  8  9  2  0  0  0  0
 10 12  1  0  0  0  0
 11 24  1  0  0  0  0
 11 28  2  0  0  0  0
 12 13  2  0  0  0  0
 12 17  1  0  0  0  0
 13 14  1  0  0  0  0
 14 15  2  0  0  0  0
 15 16  1  0  0  0  0
 15 18  1  0  0  0  0
 16 17  2  0  0  0  0
 18 19  2  0  0  0  0
 18 22  1  0  0  0  0
 19 20  1  0  0  0  0
 20 21  1  0  0  0  0
 20 23  1  0  0  0  0
 21 22  2  0  0  0  0
 24 25  1  0  0  0  0
 25 26  2  0  0  0  0
 26 27  1  0  0  0  0
 27 28  1  0  0  0  0
 27 29  2  0  0  0  0
  2 30  1  0  0  0  0
  2 31  1  0  0  0  0
  3 32  1  0  0  0  0
  4 33  1  0  0  0  0
  6 34  1  0  0  0  0
 10 35  1  0  0  0  0
 13 36  1  0  0  0  0
 14 37  1  0  0  0  0
 16 38  1  0  0  0  0
 17 39  1  0  0  0  0
 19 40  1  0  0  0  0
 22 41  1  0  0  0  0
 23 42  1  0  0  0  0
 23 43  1  0  0  0  0
 23 44  1  0  0  0  0
 24 45  1  0  0  0  0
 25 46  1  0  0  0  0
 26 47  1  0  0  0  0
 28 48  1  0  0  0  0
 29 49  1  0  0  0  0
M  END
> <Name>
23

> <IC50[uM]>
0.27

$$$$
23
  -OEChem-05192314333D
 Structure written by MMmdl.
 49 53  0     0  0  0  0  0  0999 V2000
   -6.3775   12.3296  -12.0018 C   0  0  0  0  0  0  0  0  0  0  0  0
   -6.5098   11.7629  -10.7403 C   0  0  0  0  0  0  0  0  0  0  0  0
   -7.7247   10.5660  -13.0266 C   0  0  0  0  0  0  0  0  0  0  0  0
   -6.9942   11.7487  -13.1193 C   0  0  0  0  0  0  0  0  0  0  0  0
   -7.8312   10.0057  -11.7538 C   0  0  0  0  0  0  0  0  0  0  0  0
   -7.2443   10.6021  -10.6070 C   0  0  0  0  0  0  0  0  0  0  0  0
   -7.6167    9.7449   -9.5151 C   0  0  0  0  0  0  0  0  0  0  0  0
   -8.2961    8.7374   -9.9786 N   0  0  0  0  0  0  0  0  0  0  0  0
   -8.4404    8.8724  -11.2937 N   0  0  0  0  0  0  0  0  0  0  0  0
   -7.3318    9.8946   -8.0252 C   0  0  0  0  0  0  0  0  0  0  0  0
   -5.5478   13.5112  -12.1572 C   0  0  0  0  0  0  0  0  0  0  0  0
   -5.9707   10.4870   -7.7351 C   0  0  0  0  0  0  0  0  0  0  0  0
   -5.8642   11.7588   -7.1694 C   0  0  0  0  0  0  0  0  0  0  0  0
   -4.6019   12.3141   -6.9186 C   0  0  0  0  0  0  0  0  0  0  0  0
   -3.4503   11.5963   -7.2357 C   0  0  0  0  0  0  0  0  0  0  0  0
   -3.5604   10.3220   -7.8000 C   0  0  0  0  0  0  0  0  0  0  0  0
   -4.8213    9.7719   -8.0443 C   0  0  0  0  0  0  0  0  0  0  0  0
   -2.0996   12.1710   -6.9757 C   0  0  0  0  0  0  0  0  0  0  0  0
   -1.7487   13.4240   -6.4767 C   0  0  0  0  0  0  0  0  0  0  0  0
   -0.4123   13.4674   -6.4260 N   0  0  0  0  0  0  0  0  0  0  0  0
    0.1713   12.3664   -6.8217 N   0  0  0  0  0  0  0  0  0  0  0  0
   -0.8093   11.5624   -7.1930 C   0  0  0  0  0  0  0  0  0  0  0  0
    0.4224   14.5657   -5.9816 C   0  0  0  0  0  0  0  0  0  0  0  0
   -5.6966   14.2423  -13.2612 N   0  0  0  0  0  0  0  0  0  0  0  0
   -4.9506   15.3153  -13.5405 C   0  0  0  0  0  0  0  0  0  0  0  0
   -3.9383   15.6899  -12.6782 C   0  0  0  0  0  0  0  0  0  0  0  0
   -3.7261   14.9536  -11.5366 C   0  0  0  0  0  0  0  0  0  0  0  0
   -4.5508   13.8769  -11.2437 C   0  0  0  0  0  0  0  0  0  0  0  0
   -2.6976   15.2614  -10.7139 N   0  0  0  0  0  0  0  0  0  0  0  0
   -5.4950   11.5473  -10.3746 H   0  0  0  0  0  0  0  0  0  0  0  0
   -6.9796   12.5188  -10.0939 H   0  0  0  0  0  0  0  0  0  0  0  0
   -8.7428   10.7712  -13.3891 H   0  0  0  0  0  0  0  0  0  0  0  0
   -7.2451    9.8233  -13.6811 H   0  0  0  0  0  0  0  0  0  0  0  0
   -6.9001   12.2325  -14.0803 H   0  0  0  0  0  0  0  0  0  0  0  0
   -8.0313    9.6067   -7.2544 H   0  0  0  0  0  0  0  0  0  0  0  0
   -6.7563   12.3160   -6.9245 H   0  0  0  0  0  0  0  0  0  0  0  0
   -4.5218   13.2977   -6.4798 H   0  0  0  0  0  0  0  0  0  0  0  0
   -2.6703    9.7625   -8.0472 H   0  0  0  0  0  0  0  0  0  0  0  0
   -4.9024    8.7852   -8.4759 H   0  0  0  0  0  0  0  0  0  0  0  0
   -2.4277   14.2118   -6.1857 H   0  0  0  0  0  0  0  0  0  0  0  0
   -0.6637   10.5754   -7.6065 H   0  0  0  0  0  0  0  0  0  0  0  0
    1.4809   14.2752   -6.0543 H   0  0  0  0  0  0  0  0  0  0  0  0
    0.2393   15.4453   -6.6162 H   0  0  0  0  0  0  0  0  0  0  0  0
    0.1804   14.8105   -4.9369 H   0  0  0  0  0  0  0  0  0  0  0  0
   -6.4038   13.9739  -13.9153 H   0  0  0  0  0  0  0  0  0  0  0  0
   -5.1384   15.8875  -14.4370 H   0  0  0  0  0  0  0  0  0  0  0  0
   -3.3221   16.5493  -12.8978 H   0  0  0  0  0  0  0  0  0  0  0  0
   -4.4255   13.3274  -10.3224 H   0  0  0  0  0  0  0  0  0  0  0  0
   -2.6419   14.6376   -9.9343 H   0  0  0  0  0  0  0  0  0  0  0  0
  1  2  1  0  0  0  0
  1  4  2  0  0  0  0
  1 11  1  0  0  0  0
  2  6  1  0  0  0  0
  3  4  1  0  0  0  0
  3  5  1  0  0  0  0
  5  6  2  0  0  0  0
  5  9  1  0  0  0  0
  6  7  1  0  0  0  0
  7  8  1  0  0  0  0
  7 10  2  3  0  0  0
  8  9  2  0  0  0  0
 10 12  1  0  0  0  0
 11 24  1  0  0  0  0
 11 28  2  0  0  0  0
 12 13  2  0  0  0  0
 12 17  1  0  0  0  0
 13 14  1  0  0  0  0
 14 15  2  0  0  0  0
 15 16  1  0  0  0  0
 15 18  1  0  0  0  0
 16 17  2  0  0  0  0
 18 19  2  0  0  0  0
 18 22  1  0  0  0  0
 19 20  1  0  0  0  0
 20 21  1  0  0  0  0
 20 23  1  0  0  0  0
 21 22  2  0  0  0  0
 24 25  1  0  0  0  0
 25 26  2  0  0  0  0
 26 27  1  0  0  0  0
 27 28  1  0  0  0  0
 27 29  2  0  0  0  0
  2 30  1  0  0  0  0
  2 31  1  0  0  0  0
  3 32  1  0  0  0  0
  3 33  1  0  0  0  0
  4 34  1  0  0  0  0
 10 35  1  0  0  0  0
 13 36  1  0  0  0  0
 14 37  1  0  0  0  0
 16 38  1  0  0  0  0
 17 39  1  0  0  0  0
 19 40  1  0  0  0  0
 22 41  1  0  0  0  0
 23 42  1  0  0  0  0
 23 43  1  0  0  0  0
 23 44  1  0  0  0  0
 24 45  1  0  0  0  0
 25 46  1  0  0  0  0
 26 47  1  0  0  0  0
 28 48  1  0  0  0  0
 29 49  1  0  0  0  0
M  END
> <Name>
23

> <IC50[uM]>
0.27

$$$$
23
  -OEChem-05192314333D
 Structure written by MMmdl.
 49 53  0     1  0  0  0  0  0999 V2000
   -6.3775   12.3296  -12.0018 C   0  0  0  0  0  0  0  0  0  0  0  0
   -6.5098   11.7629  -10.7403 C   0  0  0  0  0  0  0  0  0  0  0  0
   -7.7247   10.5660  -13.0266 C   0  0  0  0  0  0  0  0  0  0  0  0
   -6.9942   11.7487  -13.1193 C   0  0  0  0  0  0  0  0  0  0  0  0
   -7.8312   10.0057  -11.7538 C   0  0  3  0  0  0  0  0  0  0  0  0
   -7.2443   10.6021  -10.6070 C   0  0  0  0  0  0  0  0  0  0  0  0
   -7.6167    9.7449   -9.5151 C   0  0  0  0  0  0  0  0  0  0  0  0
   -8.2961    8.7374   -9.9786 N   0  0  0  0  0  0  0  0  0  0  0  0
   -8.4404    8.8724  -11.2937 N   0  0  0  0  0  0  0  0  0  0  0  0
   -7.3318    9.8946   -8.0252 C   0  0  0  0  0  0  0  0  0  0  0  0
   -5.5478   13.5112  -12.1572 C   0  0  0  0  0  0  0  0  0  0  0  0
   -5.9707   10.4870   -7.7351 C   0  0  0  0  0  0  0  0  0  0  0  0
   -5.8642   11.7588   -7.1694 C   0  0  0  0  0  0  0  0  0  0  0  0
   -4.6019   12.3141   -6.9186 C   0  0  0  0  0  0  0  0  0  0  0  0
   -3.4503   11.5963   -7.2357 C   0  0  0  0  0  0  0  0  0  0  0  0
   -3.5604   10.3220   -7.8000 C   0  0  0  0  0  0  0  0  0  0  0  0
   -4.8213    9.7719   -8.0443 C   0  0  0  0  0  0  0  0  0  0  0  0
   -2.0996   12.1710   -6.9757 C   0  0  0  0  0  0  0  0  0  0  0  0
   -1.7487   13.4240   -6.4767 C   0  0  0  0  0  0  0  0  0  0  0  0
   -0.4123   13.4674   -6.4260 N   0  0  0  0  0  0  0  0  0  0  0  0
    0.1713   12.3664   -6.8217 N   0  0  0  0  0  0  0  0  0  0  0  0
   -0.8093   11.5624   -7.1930 C   0  0  0  0  0  0  0  0  0  0  0  0
    0.4224   14.5657   -5.9816 C   0  0  0  0  0  0  0  0  0  0  0  0
   -5.6966   14.2423  -13.2612 N   0  0  0  0  0  0  0  0  0  0  0  0
   -4.9506   15.3153  -13.5405 C   0  0  0  0  0  0  0  0  0  0  0  0
   -3.9383   15.6899  -12.6782 C   0  0  0  0  0  0  0  0  0  0  0  0
   -3.7261   14.9536  -11.5366 C   0  0  0  0  0  0  0  0  0  0  0  0
   -4.5508   13.8769  -11.2437 C   0  0  0  0  0  0  0  0  0  0  0  0
   -2.6976   15.2614  -10.7139 N   0  0  0  0  0  0  0  0  0  0  0  0
   -6.0464   12.2223   -9.8797 H   0  0  0  0  0  0  0  0  0  0  0  0
   -8.1826   10.1089  -13.8914 H   0  0  0  0  0  0  0  0  0  0  0  0
   -6.9001   12.2325  -14.0803 H   0  0  0  0  0  0  0  0  0  0  0  0
   -8.7557   10.5755  -11.5787 H   0  0  0  0  0  0  0  0  0  0  0  0
   -8.0989   10.5499   -7.5868 H   0  0  0  0  0  0  0  0  0  0  0  0
   -7.3874    8.9007   -7.5571 H   0  0  0  0  0  0  0  0  0  0  0  0
   -6.7563   12.3160   -6.9245 H   0  0  0  0  0  0  0  0  0  0  0  0
   -4.5218   13.2977   -6.4798 H   0  0  0  0  0  0  0  0  0  0  0  0
   -2.6703    9.7625   -8.0472 H   0  0  0  0  0  0  0  0  0  0  0  0
   -4.9024    8.7852   -8.4759 H   0  0  0  0  0  0  0  0  0  0  0  0
   -2.4277   14.2118   -6.1857 H   0  0  0  0  0  0  0  0  0  0  0  0
   -0.6637   10.5754   -7.6065 H   0  0  0  0  0  0  0  0  0  0  0  0
    1.4809   14.2752   -6.0543 H   0  0  0  0  0  0  0  0  0  0  0  0
    0.2393   15.4453   -6.6162 H   0  0  0  0  0  0  0  0  0  0  0  0
    0.1804   14.8105   -4.9369 H   0  0  0  0  0  0  0  0  0  0  0  0
   -6.4038   13.9739  -13.9153 H   0  0  0  0  0  0  0  0  0  0  0  0
   -5.1384   15.8875  -14.4370 H   0  0  0  0  0  0  0  0  0  0  0  0
   -3.3221   16.5493  -12.8978 H   0  0  0  0  0  0  0  0  0  0  0  0
   -4.4255   13.3274  -10.3224 H   0  0  0  0  0  0  0  0  0  0  0  0
   -2.6419   14.6376   -9.9343 H   0  0  0  0  0  0  0  0  0  0  0  0
  1  2  2  0  0  0  0
  1  4  1  0  0  0  0
  1 11  1  0  0  0  0
  2  6  1  0  0  0  0
  3  4  2  0  0  0  0
  3  5  1  0  0  0  0
  5  6  1  0  0  0  0
  5  9  1  0  0  0  0
  6  7  2  0  0  0  0
  7  8  1  0  0  0  0
  7 10  1  0  0  0  0
  8  9  2  0  0  0  0
 10 12  1  0  0  0  0
 11 24  1  0  0  0  0
 11 28  2  0  0  0  0
 12 13  2  0  0  0  0
 12 17  1  0  0  0  0
 13 14  1  0  0  0  0
 14 15  2  0  0  0  0
 15 16  1  0  0  0  0
 15 18  1  0  0  0  0
 16 17  2  0  0  0  0
 18 19  2  0  0  0  0
 18 22  1  0  0  0  0
 19 20  1  0  0  0  0
 20 21  1  0  0  0  0
 20 23  1  0  0  0  0
 21 22  2  0  0  0  0
 24 25  1  0  0  0  0
 25 26  2  0  0  0  0
 26 27  1  0  0  0  0
 27 28  1  0  0  0  0
 27 29  2  0  0  0  0
  2 30  1  0  0  0  0
  3 31  1  0  0  0  0
  4 32  1  0  0  0  0
  5 33  1  0  0  0  0
 10 34  1  0  0  0  0
 10 35  1  0  0  0  0
 13 36  1  0  0  0  0
 14 37  1  0  0  0  0
 16 38  1  0  0  0  0
 17 39  1  0  0  0  0
 19 40  1  0  0  0  0
 22 41  1  0  0  0  0
 23 42  1  0  0  0  0
 23 43  1  0  0  0  0
 23 44  1  0  0  0  0
 24 45  1  0  0  0  0
 25 46  1  0  0  0  0
 26 47  1  0  0  0  0
 28 48  1  0  0  0  0
 29 49  1  0  0  0  0
M  END
> <Name>
23

> <IC50[uM]>
0.27

$$$$
23
  -OEChem-05192314333D
 Structure written by MMmdl.
 49 53  0     0  0  0  0  0  0999 V2000
   -6.3775   12.3296  -12.0018 C   0  0  0  0  0  0  0  0  0  0  0  0
   -6.5098   11.7629  -10.7403 C   0  0  0  0  0  0  0  0  0  0  0  0
   -7.7247   10.5660  -13.0266 C   0  0  0  0  0  0  0  0  0  0  0  0
   -6.9942   11.7487  -13.1193 C   0  0  0  0  0  0  0  0  0  0  0  0
   -7.8312   10.0057  -11.7538 C   0  0  0  0  0  0  0  0  0  0  0  0
   -7.2443   10.6021  -10.6070 C   0  0  0  0  0  0  0  0  0  0  0  0
   -7.6167    9.7449   -9.5151 C   0  0  0  0  0  0  0  0  0  0  0  0
   -8.2961    8.7374   -9.9786 N   0  0  0  0  0  0  0  0  0  0  0  0
   -8.4404    8.8724  -11.2937 N   0  0  0  0  0  0  0  0  0  0  0  0
   -7.3318    9.8946   -8.0252 C   0  0  0  0  0  0  0  0  0  0  0  0
   -5.5478   13.5112  -12.1572 C   0  0  0  0  0  0  0  0  0  0  0  0
   -5.9707   10.4870   -7.7351 C   0  0  0  0  0  0  0  0  0  0  0  0
   -5.8642   11.7588   -7.1694 C   0  0  0  0  0  0  0  0  0  0  0  0
   -4.6019   12.3141   -6.9186 C   0  0  0  0  0  0  0  0  0  0  0  0
   -3.4503   11.5963   -7.2357 C   0  0  0  0  0  0  0  0  0  0  0  0
   -3.5604   10.3220   -7.8000 C   0  0  0  0  0  0  0  0  0  0  0  0
   -4.8213    9.7719   -8.0443 C   0  0  0  0  0  0  0  0  0  0  0  0
   -2.0996   12.1710   -6.9757 C   0  0  0  0  0  0  0  0  0  0  0  0
   -1.7487   13.4240   -6.4767 C   0  0  0  0  0  0  0  0  0  0  0  0
   -0.4123   13.4674   -6.4260 N   0  0  0  0  0  0  0  0  0  0  0  0
    0.1713   12.3664   -6.8217 N   0  0  0  0  0  0  0  0  0  0  0  0
   -0.8093   11.5624   -7.1930 C   0  0  0  0  0  0  0  0  0  0  0  0
    0.4224   14.5657   -5.9816 C   0  0  0  0  0  0  0  0  0  0  0  0
   -5.6966   14.2423  -13.2612 N   0  0  0  0  0  0  0  0  0  0  0  0
   -4.9506   15.3153  -13.5405 C   0  0  0  0  0  0  0  0  0  0  0  0
   -3.9383   15.6899  -12.6782 C   0  0  0  0  0  0  0  0  0  0  0  0
   -3.7261   14.9536  -11.5366 C   0  0  0  0  0  0  0  0  0  0  0  0
   -4.5508   13.8769  -11.2437 C   0  0  0  0  0  0  0  0  0  0  0  0
   -2.6976   15.2614  -10.7139 N   0  0  0  0  0  0  0  0  0  0  0  0
   -6.0464   12.2223   -9.8797 H   0  0  0  0  0  0  0  0  0  0  0  0
   -8.1826   10.1089  -13.8914 H   0  0  0  0  0  0  0  0  0  0  0  0
   -7.6841   12.5064  -13.5191 H   0  0  0  0  0  0  0  0  0  0  0  0
   -6.1936   11.5599  -13.8497 H   0  0  0  0  0  0  0  0  0  0  0  0
   -8.0989   10.5499   -7.5868 H   0  0  0  0  0  0  0  0  0  0  0  0
   -7.3874    8.9007   -7.5571 H   0  0  0  0  0  0  0  0  0  0  0  0
   -6.7563   12.3160   -6.9245 H   0  0  0  0  0  0  0  0  0  0  0  0
   -4.5218   13.2977   -6.4798 H   0  0  0  0  0  0  0  0  0  0  0  0
   -2.6703    9.7625   -8.0472 H   0  0  0  0  0  0  0  0  0  0  0  0
   -4.9024    8.7852   -8.4759 H   0  0  0  0  0  0  0  0  0  0  0  0
   -2.4277   14.2118   -6.1857 H   0  0  0  0  0  0  0  0  0  0  0  0
   -0.6637   10.5754   -7.6065 H   0  0  0  0  0  0  0  0  0  0  0  0
    1.4809   14.2752   -6.0543 H   0  0  0  0  0  0  0  0  0  0  0  0
    0.2393   15.4453   -6.6162 H   0  0  0  0  0  0  0  0  0  0  0  0
    0.1804   14.8105   -4.9369 H   0  0  0  0  0  0  0  0  0  0  0  0
   -6.4038   13.9739  -13.9153 H   0  0  0  0  0  0  0  0  0  0  0  0
   -5.1384   15.8875  -14.4370 H   0  0  0  0  0  0  0  0  0  0  0  0
   -3.3221   16.5493  -12.8978 H   0  0  0  0  0  0  0  0  0  0  0  0
   -4.4255   13.3274  -10.3224 H   0  0  0  0  0  0  0  0  0  0  0  0
   -2.6419   14.6376   -9.9343 H   0  0  0  0  0  0  0  0  0  0  0  0
  1  2  2  0  0  0  0
  1  4  1  0  0  0  0
  1 11  1  0  0  0  0
  2  6  1  0  0  0  0
  3  4  1  0  0  0  0
  3  5  2  0  0  0  0
  5  6  1  0  0  0  0
  5  9  1  0  0  0  0
  6  7  2  0  0  0  0
  7  8  1  0  0  0  0
  7 10  1  0  0  0  0
  8  9  2  0  0  0  0
 10 12  1  0  0  0  0
 11 24  1  0  0  0  0
 11 28  2  0  0  0  0
 12 13  2  0  0  0  0
 12 17  1  0  0  0  0
 13 14  1  0  0  0  0
 14 15  2  0  0  0  0
 15 16  1  0  0  0  0
 15 18  1  0  0  0  0
 16 17  2  0  0  0  0
 18 19  2  0  0  0  0
 18 22  1  0  0  0  0
 19 20  1  0  0  0  0
 20 21  1  0  0  0  0
 20 23  1  0  0  0  0
 21 22  2  0  0  0  0
 24 25  1  0  0  0  0
 25 26  2  0  0  0  0
 26 27  1  0  0  0  0
 27 28  1  0  0  0  0
 27 29  2  0  0  0  0
  2 30  1  0  0  0  0
  3 31  1  0  0  0  0
  4 32  1  0  0  0  0
  4 33  1  0  0  0  0
 10 34  1  0  0  0  0
 10 35  1  0  0  0  0
 13 36  1  0  0  0  0
 14 37  1  0  0  0  0
 16 38  1  0  0  0  0
 17 39  1  0  0  0  0
 19 40  1  0  0  0  0
 22 41  1  0  0  0  0
 23 42  1  0  0  0  0
 23 43  1  0  0  0  0
 23 44  1  0  0  0  0
 24 45  1  0  0  0  0
 25 46  1  0  0  0  0
 26 47  1  0  0  0  0
 28 48  1  0  0  0  0
 29 49  1  0  0  0  0
M  END
> <Name>
23

> <IC50[uM]>
0.27

$$$$
23
  -OEChem-05192314333D
 Structure written by MMmdl.
 49 53  0     0  0  0  0  0  0999 V2000
   -6.3775   12.3296  -12.0018 C   0  0  0  0  0  0  0  0  0  0  0  0
   -6.5098   11.7629  -10.7403 C   0  0  0  0  0  0  0  0  0  0  0  0
   -7.7247   10.5660  -13.0266 C   0  0  0  0  0  0  0  0  0  0  0  0
   -6.9942   11.7487  -13.1193 C   0  0  0  0  0  0  0  0  0  0  0  0
   -7.8312   10.0057  -11.7538 C   0  0  0  0  0  0  0  0  0  0  0  0
   -7.2443   10.6021  -10.6070 C   0  0  0  0  0  0  0  0  0  0  0  0
   -7.6167    9.7449   -9.5151 C   0  0  0  0  0  0  0  0  0  0  0  0
   -8.2961    8.7374   -9.9786 N   0  0  0  0  0  0  0  0  0  0  0  0
   -8.4404    8.8724  -11.2937 N   0  0  0  0  0  0  0  0  0  0  0  0
   -7.3318    9.8946   -8.0252 C   0  0  0  0  0  0  0  0  0  0  0  0
   -5.5478   13.5112  -12.1572 C   0  0  0  0  0  0  0  0  0  0  0  0
   -5.9707   10.4870   -7.7351 C   0  0  0  0  0  0  0  0  0  0  0  0
   -5.8642   11.7588   -7.1694 C   0  0  0  0  0  0  0  0  0  0  0  0
   -4.6019   12.3141   -6.9186 C   0  0  0  0  0  0  0  0  0  0  0  0
   -3.4503   11.5963   -7.2357 C   0  0  0  0  0  0  0  0  0  0  0  0
   -3.5604   10.3220   -7.8000 C   0  0  0  0  0  0  0  0  0  0  0  0
   -4.8213    9.7719   -8.0443 C   0  0  0  0  0  0  0  0  0  0  0  0
   -2.0996   12.1710   -6.9757 C   0  0  0  0  0  0  0  0  0  0  0  0
   -1.7487   13.4240   -6.4767 C   0  0  0  0  0  0  0  0  0  0  0  0
   -0.4123   13.4674   -6.4260 N   0  0  0  0  0  0  0  0  0  0  0  0
    0.1713   12.3664   -6.8217 N   0  0  0  0  0  0  0  0  0  0  0  0
   -0.8093   11.5624   -7.1930 C   0  0  0  0  0  0  0  0  0  0  0  0
    0.4224   14.5657   -5.9816 C   0  0  0  0  0  0  0  0  0  0  0  0
   -5.6966   14.2423  -13.2612 N   0  0  0  0  0  0  0  0  0  0  0  0
   -4.9506   15.3153  -13.5405 C   0  0  0  0  0  0  0  0  0  0  0  0
   -3.9383   15.6899  -12.6782 C   0  0  0  0  0  0  0  0  0  0  0  0
   -3.7261   14.9536  -11.5366 C   0  0  0  0  0  0  0  0  0  0  0  0
   -4.5508   13.8769  -11.2437 C   0  0  0  0  0  0  0  0  0  0  0  0
   -2.6976   15.2614  -10.7139 N   0  0  0  0  0  0  0  0  0  0  0  0
   -5.4950   11.5473  -10.3746 H   0  0  0  0  0  0  0  0  0  0  0  0
   -6.9796   12.5188  -10.0939 H   0  0  0  0  0  0  0  0  0  0  0  0
   -8.1826   10.1089  -13.8914 H   0  0  0  0  0  0  0  0  0  0  0  0
   -6.9001   12.2325  -14.0803 H   0  0  0  0  0  0  0  0  0  0  0  0
   -8.0989   10.5499   -7.5868 H   0  0  0  0  0  0  0  0  0  0  0  0
   -7.3874    8.9007   -7.5571 H   0  0  0  0  0  0  0  0  0  0  0  0
   -6.7563   12.3160   -6.9245 H   0  0  0  0  0  0  0  0  0  0  0  0
   -4.5218   13.2977   -6.4798 H   0  0  0  0  0  0  0  0  0  0  0  0
   -2.6703    9.7625   -8.0472 H   0  0  0  0  0  0  0  0  0  0  0  0
   -4.9024    8.7852   -8.4759 H   0  0  0  0  0  0  0  0  0  0  0  0
   -2.4277   14.2118   -6.1857 H   0  0  0  0  0  0  0  0  0  0  0  0
   -0.6637   10.5754   -7.6065 H   0  0  0  0  0  0  0  0  0  0  0  0
    1.4809   14.2752   -6.0543 H   0  0  0  0  0  0  0  0  0  0  0  0
    0.2393   15.4453   -6.6162 H   0  0  0  0  0  0  0  0  0  0  0  0
    0.1804   14.8105   -4.9369 H   0  0  0  0  0  0  0  0  0  0  0  0
   -6.4038   13.9739  -13.9153 H   0  0  0  0  0  0  0  0  0  0  0  0
   -5.1384   15.8875  -14.4370 H   0  0  0  0  0  0  0  0  0  0  0  0
   -3.3221   16.5493  -12.8978 H   0  0  0  0  0  0  0  0  0  0  0  0
   -4.4255   13.3274  -10.3224 H   0  0  0  0  0  0  0  0  0  0  0  0
   -2.6419   14.6376   -9.9343 H   0  0  0  0  0  0  0  0  0  0  0  0
  1  2  1  0  0  0  0
  1  4  2  0  0  0  0
  1 11  1  0  0  0  0
  2  6  1  0  0  0  0
  3  4  1  0  0  0  0
  3  5  2  0  0  0  0
  5  6  1  0  0  0  0
  5  9  1  0  0  0  0
  6  7  2  0  0  0  0
  7  8  1  0  0  0  0
  7 10  1  0  0  0  0
  8  9  2  0  0  0  0
 10 12  1  0  0  0  0
 11 24  1  0  0  0  0
 11 28  2  0  0  0  0
 12 13  2  0  0  0  0
 12 17  1  0  0  0  0
 13 14  1  0  0  0  0
 14 15  2  0  0  0  0
 15 16  1  0  0  0  0
 15 18  1  0  0  0  0
 16 17  2  0  0  0  0
 18 19  2  0  0  0  0
 18 22  1  0  0  0  0
 19 20  1  0  0  0  0
 20 21  1  0  0  0  0
 20 23  1  0  0  0  0
 21 22  2  0  0  0  0
 24 25  1  0  0  0  0
 25 26  2  0  0  0  0
 26 27  1  0  0  0  0
 27 28  1  0  0  0  0
 27 29  2  0  0  0  0
  2 30  1  0  0  0  0
  2 31  1  0  0  0  0
  3 32  1  0  0  0  0
  4 33  1  0  0  0  0
 10 34  1  0  0  0  0
 10 35  1  0  0  0  0
 13 36  1  0  0  0  0
 14 37  1  0  0  0  0
 16 38  1  0  0  0  0
 17 39  1  0  0  0  0
 19 40  1  0  0  0  0
 22 41  1  0  0  0  0
 23 42  1  0  0  0  0
 23 43  1  0  0  0  0
 23 44  1  0  0  0  0
 24 45  1  0  0  0  0
 25 46  1  0  0  0  0
 26 47  1  0  0  0  0
 28 48  1  0  0  0  0
 29 49  1  0  0  0  0
M  END
> <Name>
23

> <IC50[uM]>
0.27

$$$$
23
  -OEChem-05192314333D
 Structure written by MMmdl.
 49 53  0     1  0  0  0  0  0999 V2000
   -6.3775   12.3296  -12.0018 C   0  0  0  0  0  0  0  0  0  0  0  0
   -6.5098   11.7629  -10.7403 C   0  0  0  0  0  0  0  0  0  0  0  0
   -7.7247   10.5660  -13.0266 C   0  0  0  0  0  0  0  0  0  0  0  0
   -6.9942   11.7487  -13.1193 C   0  0  0  0  0  0  0  0  0  0  0  0
   -7.8312   10.0057  -11.7538 C   0  0  0  0  0  0  0  0  0  0  0  0
   -7.2443   10.6021  -10.6070 C   0  0  3  0  0  0  0  0  0  0  0  0
   -7.6167    9.7449   -9.5151 C   0  0  0  0  0  0  0  0  0  0  0  0
   -8.2961    8.7374   -9.9786 N   0  0  0  0  0  0  0  0  0  0  0  0
   -8.4404    8.8724  -11.2937 N   0  0  0  0  0  0  0  0  0  0  0  0
   -7.3318    9.8946   -8.0252 C   0  0  0  0  0  0  0  0  0  0  0  0
   -5.5478   13.5112  -12.1572 C   0  0  0  0  0  0  0  0  0  0  0  0
   -5.9707   10.4870   -7.7351 C   0  0  0  0  0  0  0  0  0  0  0  0
   -5.8642   11.7588   -7.1694 C   0  0  0  0  0  0  0  0  0  0  0  0
   -4.6019   12.3141   -6.9186 C   0  0  0  0  0  0  0  0  0  0  0  0
   -3.4503   11.5963   -7.2357 C   0  0  0  0  0  0  0  0  0  0  0  0
   -3.5604   10.3220   -7.8000 C   0  0  0  0  0  0  0  0  0  0  0  0
   -4.8213    9.7719   -8.0443 C   0  0  0  0  0  0  0  0  0  0  0  0
   -2.0996   12.1710   -6.9757 C   0  0  0  0  0  0  0  0  0  0  0  0
   -1.7487   13.4240   -6.4767 C   0  0  0  0  0  0  0  0  0  0  0  0
   -0.4123   13.4674   -6.4260 N   0  0  0  0  0  0  0  0  0  0  0  0
    0.1713   12.3664   -6.8217 N   0  0  0  0  0  0  0  0  0  0  0  0
   -0.8093   11.5624   -7.1930 C   0  0  0  0  0  0  0  0  0  0  0  0
    0.4224   14.5657   -5.9816 C   0  0  0  0  0  0  0  0  0  0  0  0
   -5.6966   14.2423  -13.2612 N   0  0  0  0  0  0  0  0  0  0  0  0
   -4.9506   15.3153  -13.5405 C   0  0  0  0  0  0  0  0  0  0  0  0
   -3.9383   15.6899  -12.6782 C   0  0  0  0  0  0  0  0  0  0  0  0
   -3.7261   14.9536  -11.5366 C   0  0  0  0  0  0  0  0  0  0  0  0
   -4.5508   13.8769  -11.2437 C   0  0  0  0  0  0  0  0  0  0  0  0
   -2.6976   15.2614  -10.7139 N   0  0  0  0  0  0  0  0  0  0  0  0
   -6.0464   12.2223   -9.8797 H   0  0  0  0  0  0  0  0  0  0  0  0
   -8.1826   10.1089  -13.8914 H   0  0  0  0  0  0  0  0  0  0  0  0
   -6.9001   12.2325  -14.0803 H   0  0  0  0  0  0  0  0  0  0  0  0
   -6.3326   10.0069  -10.7637 H   0  0  0  0  0  0  0  0  0  0  0  0
   -8.6538    7.9802   -9.4320 H   0  0  0  0  0  0  0  0  0  0  0  0
   -8.0313    9.6067   -7.2544 H   0  0  0  0  0  0  0  0  0  0  0  0
   -6.7563   12.3160   -6.9245 H   0  0  0  0  0  0  0  0  0  0  0  0
   -4.5218   13.2977   -6.4798 H   0  0  0  0  0  0  0  0  0  0  0  0
   -2.6703    9.7625   -8.0472 H   0  0  0  0  0  0  0  0  0  0  0  0
   -4.9024    8.7852   -8.4759 H   0  0  0  0  0  0  0  0  0  0  0  0
   -2.4277   14.2118   -6.1857 H   0  0  0  0  0  0  0  0  0  0  0  0
   -0.6637   10.5754   -7.6065 H   0  0  0  0  0  0  0  0  0  0  0  0
    1.4809   14.2752   -6.0543 H   0  0  0  0  0  0  0  0  0  0  0  0
    0.2393   15.4453   -6.6162 H   0  0  0  0  0  0  0  0  0  0  0  0
    0.1804   14.8105   -4.9369 H   0  0  0  0  0  0  0  0  0  0  0  0
   -6.4038   13.9739  -13.9153 H   0  0  0  0  0  0  0  0  0  0  0  0
   -5.1384   15.8875  -14.4370 H   0  0  0  0  0  0  0  0  0  0  0  0
   -3.3221   16.5493  -12.8978 H   0  0  0  0  0  0  0  0  0  0  0  0
   -4.4255   13.3274  -10.3224 H   0  0  0  0  0  0  0  0  0  0  0  0
   -2.6419   14.6376   -9.9343 H   0  0  0  0  0  0  0  0  0  0  0  0
  1  2  2  0  0  0  0
  1  4  1  0  0  0  0
  1 11  1  0  0  0  0
  2  6  1  0  0  0  0
  3  4  2  0  0  0  0
  3  5  1  0  0  0  0
  5  6  1  0  0  0  0
  5  9  2  0  0  0  0
  6  7  1  0  0  0  0
  7  8  1  0  0  0  0
  7 10  2  3  0  0  0
  8  9  1  0  0  0  0
 10 12  1  0  0  0  0
 11 24  1  0  0  0  0
 11 28  2  0  0  0  0
 12 13  2  0  0  0  0
 12 17  1  0  0  0  0
 13 14  1  0  0  0  0
 14 15  2  0  0  0  0
 15 16  1  0  0  0  0
 15 18  1  0  0  0  0
 16 17  2  0  0  0  0
 18 19  2  0  0  0  0
 18 22  1  0  0  0  0
 19 20  1  0  0  0  0
 20 21  1  0  0  0  0
 20 23  1  0  0  0  0
 21 22  2  0  0  0  0
 24 25  1  0  0  0  0
 25 26  2  0  0  0  0
 26 27  1  0  0  0  0
 27 28  1  0  0  0  0
 27 29  2  0  0  0  0
  2 30  1  0  0  0  0
  3 31  1  0  0  0  0
  4 32  1  0  0  0  0
  6 33  1  0  0  0  0
  8 34  1  0  0  0  0
 10 35  1  0  0  0  0
 13 36  1  0  0  0  0
 14 37  1  0  0  0  0
 16 38  1  0  0  0  0
 17 39  1  0  0  0  0
 19 40  1  0  0  0  0
 22 41  1  0  0  0  0
 23 42  1  0  0  0  0
 23 43  1  0  0  0  0
 23 44  1  0  0  0  0
 24 45  1  0  0  0  0
 25 46  1  0  0  0  0
 26 47  1  0  0  0  0
 28 48  1  0  0  0  0
 29 49  1  0  0  0  0
M  END
> <Name>
23

> <IC50[uM]>
0.27

$$$$
23
  -OEChem-05192314333D
 Structure written by MMmdl.
 49 53  0     1  0  0  0  0  0999 V2000
   -6.3775   12.3296  -12.0018 C   0  0  3  0  0  0  0  0  0  0  0  0
   -6.5098   11.7629  -10.7403 C   0  0  0  0  0  0  0  0  0  0  0  0
   -7.7247   10.5660  -13.0266 C   0  0  0  0  0  0  0  0  0  0  0  0
   -6.9942   11.7487  -13.1193 C   0  0  0  0  0  0  0  0  0  0  0  0
   -7.8312   10.0057  -11.7538 C   0  0  0  0  0  0  0  0  0  0  0  0
   -7.2443   10.6021  -10.6070 C   0  0  0  0  0  0  0  0  0  0  0  0
   -7.6167    9.7449   -9.5151 C   0  0  0  0  0  0  0  0  0  0  0  0
   -8.2961    8.7374   -9.9786 N   0  0  0  0  0  0  0  0  0  0  0  0
   -8.4404    8.8724  -11.2937 N   0  0  0  0  0  0  0  0  0  0  0  0
   -7.3318    9.8946   -8.0252 C   0  0  0  0  0  0  0  0  0  0  0  0
   -5.5478   13.5112  -12.1572 C   0  0  0  0  0  0  0  0  0  0  0  0
   -5.9707   10.4870   -7.7351 C   0  0  0  0  0  0  0  0  0  0  0  0
   -5.8642   11.7588   -7.1694 C   0  0  0  0  0  0  0  0  0  0  0  0
   -4.6019   12.3141   -6.9186 C   0  0  0  0  0  0  0  0  0  0  0  0
   -3.4503   11.5963   -7.2357 C   0  0  0  0  0  0  0  0  0  0  0  0
   -3.5604   10.3220   -7.8000 C   0  0  0  0  0  0  0  0  0  0  0  0
   -4.8213    9.7719   -8.0443 C   0  0  0  0  0  0  0  0  0  0  0  0
   -2.0996   12.1710   -6.9757 C   0  0  0  0  0  0  0  0  0  0  0  0
   -1.7487   13.4240   -6.4767 C   0  0  0  0  0  0  0  0  0  0  0  0
   -0.4123   13.4674   -6.4260 N   0  0  0  0  0  0  0  0  0  0  0  0
    0.1713   12.3664   -6.8217 N   0  0  0  0  0  0  0  0  0  0  0  0
   -0.8093   11.5624   -7.1930 C   0  0  0  0  0  0  0  0  0  0  0  0
    0.4224   14.5657   -5.9816 C   0  0  0  0  0  0  0  0  0  0  0  0
   -5.6966   14.2423  -13.2612 N   0  0  0  0  0  0  0  0  0  0  0  0
   -4.9506   15.3153  -13.5405 C   0  0  0  0  0  0  0  0  0  0  0  0
   -3.9383   15.6899  -12.6782 C   0  0  0  0  0  0  0  0  0  0  0  0
   -3.7261   14.9536  -11.5366 C   0  0  0  0  0  0  0  0  0  0  0  0
   -4.5508   13.8769  -11.2437 C   0  0  0  0  0  0  0  0  0  0  0  0
   -2.6976   15.2614  -10.7139 N   0  0  0  0  0  0  0  0  0  0  0  0
   -7.2621   12.9592  -11.8254 H   0  0  0  0  0  0  0  0  0  0  0  0
   -6.0464   12.2223   -9.8797 H   0  0  0  0  0  0  0  0  0  0  0  0
   -8.1826   10.1089  -13.8914 H   0  0  0  0  0  0  0  0  0  0  0  0
   -6.9001   12.2325  -14.0803 H   0  0  0  0  0  0  0  0  0  0  0  0
   -8.6538    7.9802   -9.4320 H   0  0  0  0  0  0  0  0  0  0  0  0
   -8.0313    9.6067   -7.2544 H   0  0  0  0  0  0  0  0  0  0  0  0
   -6.7563   12.3160   -6.9245 H   0  0  0  0  0  0  0  0  0  0  0  0
   -4.5218   13.2977   -6.4798 H   0  0  0  0  0  0  0  0  0  0  0  0
   -2.6703    9.7625   -8.0472 H   0  0  0  0  0  0  0  0  0  0  0  0
   -4.9024    8.7852   -8.4759 H   0  0  0  0  0  0  0  0  0  0  0  0
   -2.4277   14.2118   -6.1857 H   0  0  0  0  0  0  0  0  0  0  0  0
   -0.6637   10.5754   -7.6065 H   0  0  0  0  0  0  0  0  0  0  0  0
    1.4809   14.2752   -6.0543 H   0  0  0  0  0  0  0  0  0  0  0  0
    0.2393   15.4453   -6.6162 H   0  0  0  0  0  0  0  0  0  0  0  0
    0.1804   14.8105   -4.9369 H   0  0  0  0  0  0  0  0  0  0  0  0
   -5.1384   15.8875  -14.4370 H   0  0  0  0  0  0  0  0  0  0  0  0
   -3.0010   15.6690  -13.2536 H   0  0  0  0  0  0  0  0  0  0  0  0
   -4.1509   16.7215  -12.3610 H   0  0  0  0  0  0  0  0  0  0  0  0
   -4.4255   13.3274  -10.3224 H   0  0  0  0  0  0  0  0  0  0  0  0
   -2.6419   14.6376   -9.9343 H   0  0  0  0  0  0  0  0  0  0  0  0
  1  2  1  0  0  0  0
  1  4  1  0  0  0  0
  1 11  1  0  0  0  0
  2  6  2  0  0  0  0
  3  4  2  0  0  0  0
  3  5  1  0  0  0  0
  5  6  1  0  0  0  0
  5  9  2  0  0  0  0
  6  7  1  0  0  0  0
  7  8  1  0  0  0  0
  7 10  2  3  0  0  0
  8  9  1  0  0  0  0
 10 12  1  0  0  0  0
 11 24  1  0  0  0  0
 11 28  2  0  0  0  0
 12 13  2  0  0  0  0
 12 17  1  0  0  0  0
 13 14  1  0  0  0  0
 14 15  2  0  0  0  0
 15 16  1  0  0  0  0
 15 18  1  0  0  0  0
 16 17  2  0  0  0  0
 18 19  2  0  0  0  0
 18 22  1  0  0  0  0
 19 20  1  0  0  0  0
 20 21  1  0  0  0  0
 20 23  1  0  0  0  0
 21 22  2  0  0  0  0
 24 25  2  0  0  0  0
 25 26  1  0  0  0  0
 26 27  1  0  0  0  0
 27 28  1  0  0  0  0
 27 29  2  0  0  0  0
  1 30  1  0  0  0  0
  2 31  1  0  0  0  0
  3 32  1  0  0  0  0
  4 33  1  0  0  0  0
  8 34  1  0  0  0  0
 10 35  1  0  0  0  0
 13 36  1  0  0  0  0
 14 37  1  0  0  0  0
 16 38  1  0  0  0  0
 17 39  1  0  0  0  0
 19 40  1  0  0  0  0
 22 41  1  0  0  0  0
 23 42  1  0  0  0  0
 23 43  1  0  0  0  0
 23 44  1  0  0  0  0
 25 45  1  0  0  0  0
 26 46  1  0  0  0  0
 26 47  1  0  0  0  0
 28 48  1  0  0  0  0
 29 49  1  0  0  0  0
M  END
> <Name>
23

> <IC50[uM]>
0.27

$$$$
23
  -OEChem-05192314333D
 Structure written by MMmdl.
 49 53  0     0  0  0  0  0  0999 V2000
   -6.3775   12.3296  -12.0018 C   0  0  0  0  0  0  0  0  0  0  0  0
   -6.5098   11.7629  -10.7403 C   0  0  0  0  0  0  0  0  0  0  0  0
   -7.7247   10.5660  -13.0266 C   0  0  0  0  0  0  0  0  0  0  0  0
   -6.9942   11.7487  -13.1193 C   0  0  0  0  0  0  0  0  0  0  0  0
   -7.8312   10.0057  -11.7538 C   0  0  0  0  0  0  0  0  0  0  0  0
   -7.2443   10.6021  -10.6070 C   0  0  0  0  0  0  0  0  0  0  0  0
   -7.6167    9.7449   -9.5151 C   0  0  0  0  0  0  0  0  0  0  0  0
   -8.2961    8.7374   -9.9786 N   0  0  0  0  0  0  0  0  0  0  0  0
   -8.4404    8.8724  -11.2937 N   0  0  0  0  0  0  0  0  0  0  0  0
   -7.3318    9.8946   -8.0252 C   0  0  0  0  0  0  0  0  0  0  0  0
   -5.5478   13.5112  -12.1572 C   0  0  0  0  0  0  0  0  0  0  0  0
   -5.9707   10.4870   -7.7351 C   0  0  0  0  0  0  0  0  0  0  0  0
   -5.8642   11.7588   -7.1694 C   0  0  0  0  0  0  0  0  0  0  0  0
   -4.6019   12.3141   -6.9186 C   0  0  0  0  0  0  0  0  0  0  0  0
   -3.4503   11.5963   -7.2357 C   0  0  0  0  0  0  0  0  0  0  0  0
   -3.5604   10.3220   -7.8000 C   0  0  0  0  0  0  0  0  0  0  0  0
   -4.8213    9.7719   -8.0443 C   0  0  0  0  0  0  0  0  0  0  0  0
   -2.0996   12.1710   -6.9757 C   0  0  0  0  0  0  0  0  0  0  0  0
   -1.7487   13.4240   -6.4767 C   0  0  0  0  0  0  0  0  0  0  0  0
   -0.4123   13.4674   -6.4260 N   0  0  0  0  0  0  0  0  0  0  0  0
    0.1713   12.3664   -6.8217 N   0  0  0  0  0  0  0  0  0  0  0  0
   -0.8093   11.5624   -7.1930 C   0  0  0  0  0  0  0  0  0  0  0  0
    0.4224   14.5657   -5.9816 C   0  0  0  0  0  0  0  0  0  0  0  0
   -5.6966   14.2423  -13.2612 N   0  0  0  0  0  0  0  0  0  0  0  0
   -4.9506   15.3153  -13.5405 C   0  0  0  0  0  0  0  0  0  0  0  0
   -3.9383   15.6899  -12.6782 C   0  0  0  0  0  0  0  0  0  0  0  0
   -3.7261   14.9536  -11.5366 C   0  0  0  0  0  0  0  0  0  0  0  0
   -4.5508   13.8769  -11.2437 C   0  0  0  0  0  0  0  0  0  0  0  0
   -2.6976   15.2614  -10.7139 N   0  0  0  0  0  0  0  0  0  0  0  0
   -6.0464   12.2223   -9.8797 H   0  0  0  0  0  0  0  0  0  0  0  0
   -8.7428   10.7712  -13.3891 H   0  0  0  0  0  0  0  0  0  0  0  0
   -7.2451    9.8233  -13.6811 H   0  0  0  0  0  0  0  0  0  0  0  0
   -6.9001   12.2325  -14.0803 H   0  0  0  0  0  0  0  0  0  0  0  0
   -8.6538    7.9802   -9.4320 H   0  0  0  0  0  0  0  0  0  0  0  0
   -8.0313    9.6067   -7.2544 H   0  0  0  0  0  0  0  0  0  0  0  0
   -6.7563   12.3160   -6.9245 H   0  0  0  0  0  0  0  0  0  0  0  0
   -4.5218   13.2977   -6.4798 H   0  0  0  0  0  0  0  0  0  0  0  0
   -2.6703    9.7625   -8.0472 H   0  0  0  0  0  0  0  0  0  0  0  0
   -4.9024    8.7852   -8.4759 H   0  0  0  0  0  0  0  0  0  0  0  0
   -2.4277   14.2118   -6.1857 H   0  0  0  0  0  0  0  0  0  0  0  0
   -0.6637   10.5754   -7.6065 H   0  0  0  0  0  0  0  0  0  0  0  0
    1.4809   14.2752   -6.0543 H   0  0  0  0  0  0  0  0  0  0  0  0
    0.2393   15.4453   -6.6162 H   0  0  0  0  0  0  0  0  0  0  0  0
    0.1804   14.8105   -4.9369 H   0  0  0  0  0  0  0  0  0  0  0  0
   -5.1384   15.8875  -14.4370 H   0  0  0  0  0  0  0  0  0  0  0  0
   -3.0010   15.6690  -13.2536 H   0  0  0  0  0  0  0  0  0  0  0  0
   -4.1509   16.7215  -12.3610 H   0  0  0  0  0  0  0  0  0  0  0  0
   -4.4255   13.3274  -10.3224 H   0  0  0  0  0  0  0  0  0  0  0  0
   -2.6419   14.6376   -9.9343 H   0  0  0  0  0  0  0  0  0  0  0  0
  1  2  1  0  0  0  0
  1  4  2  0  0  0  0
  1 11  1  0  0  0  0
  2  6  2  0  0  0  0
  3  4  1  0  0  0  0
  3  5  1  0  0  0  0
  5  6  1  0  0  0  0
  5  9  2  0  0  0  0
  6  7  1  0  0  0  0
  7  8  1  0  0  0  0
  7 10  2  3  0  0  0
  8  9  1  0  0  0  0
 10 12  1  0  0  0  0
 11 24  1  0  0  0  0
 11 28  2  0  0  0  0
 12 13  2  0  0  0  0
 12 17  1  0  0  0  0
 13 14  1  0  0  0  0
 14 15  2  0  0  0  0
 15 16  1  0  0  0  0
 15 18  1  0  0  0  0
 16 17  2  0  0  0  0
 18 19  2  0  0  0  0
 18 22  1  0  0  0  0
 19 20  1  0  0  0  0
 20 21  1  0  0  0  0
 20 23  1  0  0  0  0
 21 22  2  0  0  0  0
 24 25  2  0  0  0  0
 25 26  1  0  0  0  0
 26 27  1  0  0  0  0
 27 28  1  0  0  0  0
 27 29  2  0  0  0  0
  2 30  1  0  0  0  0
  3 31  1  0  0  0  0
  3 32  1  0  0  0  0
  4 33  1  0  0  0  0
  8 34  1  0  0  0  0
 10 35  1  0  0  0  0
 13 36  1  0  0  0  0
 14 37  1  0  0  0  0
 16 38  1  0  0  0  0
 17 39  1  0  0  0  0
 19 40  1  0  0  0  0
 22 41  1  0  0  0  0
 23 42  1  0  0  0  0
 23 43  1  0  0  0  0
 23 44  1  0  0  0  0
 25 45  1  0  0  0  0
 26 46  1  0  0  0  0
 26 47  1  0  0  0  0
 28 48  1  0  0  0  0
 29 49  1  0  0  0  0
M  END
> <Name>
23

> <IC50[uM]>
0.27

$$$$
23
  -OEChem-05192314333D
 Structure written by MMmdl.
 49 53  0     1  0  0  0  0  0999 V2000
   -6.3775   12.3296  -12.0018 C   0  0  3  0  0  0  0  0  0  0  0  0
   -6.5098   11.7629  -10.7403 C   0  0  0  0  0  0  0  0  0  0  0  0
   -7.7247   10.5660  -13.0266 C   0  0  0  0  0  0  0  0  0  0  0  0
   -6.9942   11.7487  -13.1193 C   0  0  0  0  0  0  0  0  0  0  0  0
   -7.8312   10.0057  -11.7538 C   0  0  0  0  0  0  0  0  0  0  0  0
   -7.2443   10.6021  -10.6070 C   0  0  0  0  0  0  0  0  0  0  0  0
   -7.6167    9.7449   -9.5151 C   0  0  0  0  0  0  0  0  0  0  0  0
   -8.2961    8.7374   -9.9786 N   0  0  0  0  0  0  0  0  0  0  0  0
   -8.4404    8.8724  -11.2937 N   0  0  0  0  0  0  0  0  0  0  0  0
   -7.3318    9.8946   -8.0252 C   0  0  0  0  0  0  0  0  0  0  0  0
   -5.5478   13.5112  -12.1572 C   0  0  0  0  0  0  0  0  0  0  0  0
   -5.9707   10.4870   -7.7351 C   0  0  0  0  0  0  0  0  0  0  0  0
   -5.8642   11.7588   -7.1694 C   0  0  0  0  0  0  0  0  0  0  0  0
   -4.6019   12.3141   -6.9186 C   0  0  0  0  0  0  0  0  0  0  0  0
   -3.4503   11.5963   -7.2357 C   0  0  0  0  0  0  0  0  0  0  0  0
   -3.5604   10.3220   -7.8000 C   0  0  0  0  0  0  0  0  0  0  0  0
   -4.8213    9.7719   -8.0443 C   0  0  0  0  0  0  0  0  0  0  0  0
   -2.0996   12.1710   -6.9757 C   0  0  0  0  0  0  0  0  0  0  0  0
   -1.7487   13.4240   -6.4767 C   0  0  0  0  0  0  0  0  0  0  0  0
   -0.4123   13.4674   -6.4260 N   0  0  0  0  0  0  0  0  0  0  0  0
    0.1713   12.3664   -6.8217 N   0  0  0  0  0  0  0  0  0  0  0  0
   -0.8093   11.5624   -7.1930 C   0  0  0  0  0  0  0  0  0  0  0  0
    0.4224   14.5657   -5.9816 C   0  0  0  0  0  0  0  0  0  0  0  0
   -5.6966   14.2423  -13.2612 N   0  0  0  0  0  0  0  0  0  0  0  0
   -4.9506   15.3153  -13.5405 C   0  0  0  0  0  0  0  0  0  0  0  0
   -3.9383   15.6899  -12.6782 C   0  0  0  0  0  0  0  0  0  0  0  0
   -3.7261   14.9536  -11.5366 C   0  0  0  0  0  0  0  0  0  0  0  0
   -4.5508   13.8769  -11.2437 C   0  0  0  0  0  0  0  0  0  0  0  0
   -2.6976   15.2614  -10.7139 N   0  0  0  0  0  0  0  0  0  0  0  0
   -7.2621   12.9592  -11.8254 H   0  0  0  0  0  0  0  0  0  0  0  0
   -6.0464   12.2223   -9.8797 H   0  0  0  0  0  0  0  0  0  0  0  0
   -8.1826   10.1089  -13.8914 H   0  0  0  0  0  0  0  0  0  0  0  0
   -6.9001   12.2325  -14.0803 H   0  0  0  0  0  0  0  0  0  0  0  0
   -8.6538    7.9802   -9.4320 H   0  0  0  0  0  0  0  0  0  0  0  0
   -8.0313    9.6067   -7.2544 H   0  0  0  0  0  0  0  0  0  0  0  0
   -6.7563   12.3160   -6.9245 H   0  0  0  0  0  0  0  0  0  0  0  0
   -4.5218   13.2977   -6.4798 H   0  0  0  0  0  0  0  0  0  0  0  0
   -2.6703    9.7625   -8.0472 H   0  0  0  0  0  0  0  0  0  0  0  0
   -4.9024    8.7852   -8.4759 H   0  0  0  0  0  0  0  0  0  0  0  0
   -2.4277   14.2118   -6.1857 H   0  0  0  0  0  0  0  0  0  0  0  0
   -0.6637   10.5754   -7.6065 H   0  0  0  0  0  0  0  0  0  0  0  0
    1.4809   14.2752   -6.0543 H   0  0  0  0  0  0  0  0  0  0  0  0
    0.2393   15.4453   -6.6162 H   0  0  0  0  0  0  0  0  0  0  0  0
    0.1804   14.8105   -4.9369 H   0  0  0  0  0  0  0  0  0  0  0  0
   -5.1384   15.8875  -14.4370 H   0  0  0  0  0  0  0  0  0  0  0  0
   -3.3221   16.5493  -12.8978 H   0  0  0  0  0  0  0  0  0  0  0  0
   -5.0546   14.1072  -10.2933 H   0  0  0  0  0  0  0  0  0  0  0  0
   -3.8997   13.0003  -11.1106 H   0  0  0  0  0  0  0  0  0  0  0  0
   -2.6419   14.6376   -9.9343 H   0  0  0  0  0  0  0  0  0  0  0  0
  1  2  1  0  0  0  0
  1  4  1  0  0  0  0
  1 11  1  0  0  0  0
  2  6  2  0  0  0  0
  3  4  2  0  0  0  0
  3  5  1  0  0  0  0
  5  6  1  0  0  0  0
  5  9  2  0  0  0  0
  6  7  1  0  0  0  0
  7  8  1  0  0  0  0
  7 10  2  3  0  0  0
  8  9  1  0  0  0  0
 10 12  1  0  0  0  0
 11 24  2  0  0  0  0
 11 28  1  0  0  0  0
 12 13  2  0  0  0  0
 12 17  1  0  0  0  0
 13 14  1  0  0  0  0
 14 15  2  0  0  0  0
 15 16  1  0  0  0  0
 15 18  1  0  0  0  0
 16 17  2  0  0  0  0
 18 19  2  0  0  0  0
 18 22  1  0  0  0  0
 19 20  1  0  0  0  0
 20 21  1  0  0  0  0
 20 23  1  0  0  0  0
 21 22  2  0  0  0  0
 24 25  1  0  0  0  0
 25 26  2  0  0  0  0
 26 27  1  0  0  0  0
 27 28  1  0  0  0  0
 27 29  2  0  0  0  0
  1 30  1  0  0  0  0
  2 31  1  0  0  0  0
  3 32  1  0  0  0  0
  4 33  1  0  0  0  0
  8 34  1  0  0  0  0
 10 35  1  0  0  0  0
 13 36  1  0  0  0  0
 14 37  1  0  0  0  0
 16 38  1  0  0  0  0
 17 39  1  0  0  0  0
 19 40  1  0  0  0  0
 22 41  1  0  0  0  0
 23 42  1  0  0  0  0
 23 43  1  0  0  0  0
 23 44  1  0  0  0  0
 25 45  1  0  0  0  0
 26 46  1  0  0  0  0
 28 47  1  0  0  0  0
 28 48  1  0  0  0  0
 29 49  1  0  0  0  0
M  END
> <Name>
23

> <IC50[uM]>
0.27

$$$$
23
  -OEChem-05192314333D
 Structure written by MMmdl.
 49 53  0     0  0  0  0  0  0999 V2000
   -6.3775   12.3296  -12.0018 C   0  0  0  0  0  0  0  0  0  0  0  0
   -6.5098   11.7629  -10.7403 C   0  0  0  0  0  0  0  0  0  0  0  0
   -7.7247   10.5660  -13.0266 C   0  0  0  0  0  0  0  0  0  0  0  0
   -6.9942   11.7487  -13.1193 C   0  0  0  0  0  0  0  0  0  0  0  0
   -7.8312   10.0057  -11.7538 C   0  0  0  0  0  0  0  0  0  0  0  0
   -7.2443   10.6021  -10.6070 C   0  0  0  0  0  0  0  0  0  0  0  0
   -7.6167    9.7449   -9.5151 C   0  0  0  0  0  0  0  0  0  0  0  0
   -8.2961    8.7374   -9.9786 N   0  0  0  0  0  0  0  0  0  0  0  0
   -8.4404    8.8724  -11.2937 N   0  0  0  0  0  0  0  0  0  0  0  0
   -7.3318    9.8946   -8.0252 C   0  0  0  0  0  0  0  0  0  0  0  0
   -5.5478   13.5112  -12.1572 C   0  0  0  0  0  0  0  0  0  0  0  0
   -5.9707   10.4870   -7.7351 C   0  0  0  0  0  0  0  0  0  0  0  0
   -5.8642   11.7588   -7.1694 C   0  0  0  0  0  0  0  0  0  0  0  0
   -4.6019   12.3141   -6.9186 C   0  0  0  0  0  0  0  0  0  0  0  0
   -3.4503   11.5963   -7.2357 C   0  0  0  0  0  0  0  0  0  0  0  0
   -3.5604   10.3220   -7.8000 C   0  0  0  0  0  0  0  0  0  0  0  0
   -4.8213    9.7719   -8.0443 C   0  0  0  0  0  0  0  0  0  0  0  0
   -2.0996   12.1710   -6.9757 C   0  0  0  0  0  0  0  0  0  0  0  0
   -1.7487   13.4240   -6.4767 C   0  0  0  0  0  0  0  0  0  0  0  0
   -0.4123   13.4674   -6.4260 N   0  0  0  0  0  0  0  0  0  0  0  0
    0.1713   12.3664   -6.8217 N   0  0  0  0  0  0  0  0  0  0  0  0
   -0.8093   11.5624   -7.1930 C   0  0  0  0  0  0  0  0  0  0  0  0
    0.4224   14.5657   -5.9816 C   0  0  0  0  0  0  0  0  0  0  0  0
   -5.6966   14.2423  -13.2612 N   0  0  0  0  0  0  0  0  0  0  0  0
   -4.9506   15.3153  -13.5405 C   0  0  0  0  0  0  0  0  0  0  0  0
   -3.9383   15.6899  -12.6782 C   0  0  0  0  0  0  0  0  0  0  0  0
   -3.7261   14.9536  -11.5366 C   0  0  0  0  0  0  0  0  0  0  0  0
   -4.5508   13.8769  -11.2437 C   0  0  0  0  0  0  0  0  0  0  0  0
   -2.6976   15.2614  -10.7139 N   0  0  0  0  0  0  0  0  0  0  0  0
   -6.0464   12.2223   -9.8797 H   0  0  0  0  0  0  0  0  0  0  0  0
   -8.7428   10.7712  -13.3891 H   0  0  0  0  0  0  0  0  0  0  0  0
   -7.2451    9.8233  -13.6811 H   0  0  0  0  0  0  0  0  0  0  0  0
   -6.9001   12.2325  -14.0803 H   0  0  0  0  0  0  0  0  0  0  0  0
   -8.6538    7.9802   -9.4320 H   0  0  0  0  0  0  0  0  0  0  0  0
   -8.0313    9.6067   -7.2544 H   0  0  0  0  0  0  0  0  0  0  0  0
   -6.7563   12.3160   -6.9245 H   0  0  0  0  0  0  0  0  0  0  0  0
   -4.5218   13.2977   -6.4798 H   0  0  0  0  0  0  0  0  0  0  0  0
   -2.6703    9.7625   -8.0472 H   0  0  0  0  0  0  0  0  0  0  0  0
   -4.9024    8.7852   -8.4759 H   0  0  0  0  0  0  0  0  0  0  0  0
   -2.4277   14.2118   -6.1857 H   0  0  0  0  0  0  0  0  0  0  0  0
   -0.6637   10.5754   -7.6065 H   0  0  0  0  0  0  0  0  0  0  0  0
    1.4809   14.2752   -6.0543 H   0  0  0  0  0  0  0  0  0  0  0  0
    0.2393   15.4453   -6.6162 H   0  0  0  0  0  0  0  0  0  0  0  0
    0.1804   14.8105   -4.9369 H   0  0  0  0  0  0  0  0  0  0  0  0
   -5.1384   15.8875  -14.4370 H   0  0  0  0  0  0  0  0  0  0  0  0
   -3.3221   16.5493  -12.8978 H   0  0  0  0  0  0  0  0  0  0  0  0
   -5.0546   14.1072  -10.2933 H   0  0  0  0  0  0  0  0  0  0  0  0
   -3.8997   13.0003  -11.1106 H   0  0  0  0  0  0  0  0  0  0  0  0
   -2.6419   14.6376   -9.9343 H   0  0  0  0  0  0  0  0  0  0  0  0
  1  2  1  0  0  0  0
  1  4  2  0  0  0  0
  1 11  1  0  0  0  0
  2  6  2  0  0  0  0
  3  4  1  0  0  0  0
  3  5  1  0  0  0  0
  5  6  1  0  0  0  0
  5  9  2  0  0  0  0
  6  7  1  0  0  0  0
  7  8  1  0  0  0  0
  7 10  2  3  0  0  0
  8  9  1  0  0  0  0
 10 12  1  0  0  0  0
 11 24  2  0  0  0  0
 11 28  1  0  0  0  0
 12 13  2  0  0  0  0
 12 17  1  0  0  0  0
 13 14  1  0  0  0  0
 14 15  2  0  0  0  0
 15 16  1  0  0  0  0
 15 18  1  0  0  0  0
 16 17  2  0  0  0  0
 18 19  2  0  0  0  0
 18 22  1  0  0  0  0
 19 20  1  0  0  0  0
 20 21  1  0  0  0  0
 20 23  1  0  0  0  0
 21 22  2  0  0  0  0
 24 25  1  0  0  0  0
 25 26  2  0  0  0  0
 26 27  1  0  0  0  0
 27 28  1  0  0  0  0
 27 29  2  0  0  0  0
  2 30  1  0  0  0  0
  3 31  1  0  0  0  0
  3 32  1  0  0  0  0
  4 33  1  0  0  0  0
  8 34  1  0  0  0  0
 10 35  1  0  0  0  0
 13 36  1  0  0  0  0
 14 37  1  0  0  0  0
 16 38  1  0  0  0  0
 17 39  1  0  0  0  0
 19 40  1  0  0  0  0
 22 41  1  0  0  0  0
 23 42  1  0  0  0  0
 23 43  1  0  0  0  0
 23 44  1  0  0  0  0
 25 45  1  0  0  0  0
 26 46  1  0  0  0  0
 28 47  1  0  0  0  0
 28 48  1  0  0  0  0
 29 49  1  0  0  0  0
M  END
> <Name>
23

> <IC50[uM]>
0.27

$$$$
23
  -OEChem-05192314333D
 Structure written by MMmdl.
 49 53  0     1  0  0  0  0  0999 V2000
   -6.3775   12.3296  -12.0018 C   0  0  0  0  0  0  0  0  0  0  0  0
   -6.5098   11.7629  -10.7403 C   0  0  0  0  0  0  0  0  0  0  0  0
   -7.7247   10.5660  -13.0266 C   0  0  0  0  0  0  0  0  0  0  0  0
   -6.9942   11.7487  -13.1193 C   0  0  0  0  0  0  0  0  0  0  0  0
   -7.8312   10.0057  -11.7538 C   0  0  0  0  0  0  0  0  0  0  0  0
   -7.2443   10.6021  -10.6070 C   0  0  0  0  0  0  0  0  0  0  0  0
   -7.6167    9.7449   -9.5151 C   0  0  0  0  0  0  0  0  0  0  0  0
   -8.2961    8.7374   -9.9786 N   0  0  0  0  0  0  0  0  0  0  0  0
   -8.4404    8.8724  -11.2937 N   0  0  0  0  0  0  0  0  0  0  0  0
   -7.3318    9.8946   -8.0252 C   0  0  0  0  0  0  0  0  0  0  0  0
   -5.5478   13.5112  -12.1572 C   0  0  0  0  0  0  0  0  0  0  0  0
   -5.9707   10.4870   -7.7351 C   0  0  0  0  0  0  0  0  0  0  0  0
   -5.8642   11.7588   -7.1694 C   0  0  0  0  0  0  0  0  0  0  0  0
   -4.6019   12.3141   -6.9186 C   0  0  0  0  0  0  0  0  0  0  0  0
   -3.4503   11.5963   -7.2357 C   0  0  0  0  0  0  0  0  0  0  0  0
   -3.5604   10.3220   -7.8000 C   0  0  0  0  0  0  0  0  0  0  0  0
   -4.8213    9.7719   -8.0443 C   0  0  0  0  0  0  0  0  0  0  0  0
   -2.0996   12.1710   -6.9757 C   0  0  0  0  0  0  0  0  0  0  0  0
   -1.7487   13.4240   -6.4767 C   0  0  0  0  0  0  0  0  0  0  0  0
   -0.4123   13.4674   -6.4260 N   0  0  3  0  0  0  0  0  0  0  0  0
    0.1713   12.3664   -6.8217 N   0  0  0  0  0  0  0  0  0  0  0  0
   -0.8093   11.5624   -7.1930 C   0  0  0  0  0  0  0  0  0  0  0  0
    0.4224   14.5657   -5.9816 C   0  0  0  0  0  0  0  0  0  0  0  0
   -5.6966   14.2423  -13.2612 N   0  0  0  0  0  0  0  0  0  0  0  0
   -4.9506   15.3153  -13.5405 C   0  0  0  0  0  0  0  0  0  0  0  0
   -3.9383   15.6899  -12.6782 C   0  0  0  0  0  0  0  0  0  0  0  0
   -3.7261   14.9536  -11.5366 C   0  0  0  0  0  0  0  0  0  0  0  0
   -4.5508   13.8769  -11.2437 C   0  0  0  0  0  0  0  0  0  0  0  0
   -2.6976   15.2614  -10.7139 N   0  0  0  0  0  0  0  0  0  0  0  0
   -6.0464   12.2223   -9.8797 H   0  0  0  0  0  0  0  0  0  0  0  0
   -8.1826   10.1089  -13.8914 H   0  0  0  0  0  0  0  0  0  0  0  0
   -6.9001   12.2325  -14.0803 H   0  0  0  0  0  0  0  0  0  0  0  0
   -8.6538    7.9802   -9.4320 H   0  0  0  0  0  0  0  0  0  0  0  0
   -8.0313    9.6067   -7.2544 H   0  0  0  0  0  0  0  0  0  0  0  0
   -6.7563   12.3160   -6.9245 H   0  0  0  0  0  0  0  0  0  0  0  0
   -4.5218   13.2977   -6.4798 H   0  0  0  0  0  0  0  0  0  0  0  0
   -2.6703    9.7625   -8.0472 H   0  0  0  0  0  0  0  0  0  0  0  0
   -4.9024    8.7852   -8.4759 H   0  0  0  0  0  0  0  0  0  0  0  0
   -2.1269   14.2144   -7.1418 H   0  0  0  0  0  0  0  0  0  0  0  0
   -2.1691   13.5602   -5.4694 H   0  0  0  0  0  0  0  0  0  0  0  0
   -0.6637   10.5754   -7.6065 H   0  0  0  0  0  0  0  0  0  0  0  0
    1.4809   14.2752   -6.0543 H   0  0  0  0  0  0  0  0  0  0  0  0
    0.2393   15.4453   -6.6162 H   0  0  0  0  0  0  0  0  0  0  0  0
    0.1804   14.8105   -4.9369 H   0  0  0  0  0  0  0  0  0  0  0  0
   -5.1384   15.8875  -14.4370 H   0  0  0  0  0  0  0  0  0  0  0  0
   -3.0010   15.6690  -13.2536 H   0  0  0  0  0  0  0  0  0  0  0  0
   -4.1509   16.7215  -12.3610 H   0  0  0  0  0  0  0  0  0  0  0  0
   -4.4255   13.3274  -10.3224 H   0  0  0  0  0  0  0  0  0  0  0  0
   -2.6419   14.6376   -9.9343 H   0  0  0  0  0  0  0  0  0  0  0  0
  1  2  2  0  0  0  0
  1  4  1  0  0  0  0
  1 11  1  0  0  0  0
  2  6  1  0  0  0  0
  3  4  2  0  0  0  0
  3  5  1  0  0  0  0
  5  6  1  0  0  0  0
  5  9  2  0  0  0  0
  6  7  2  0  0  0  0
  7  8  1  0  0  0  0
  7 10  1  0  0  0  0
  8  9  1  0  0  0  0
 10 12  2  0  0  0  0
 11 24  1  0  0  0  0
 11 28  2  0  0  0  0
 12 13  1  0  0  0  0
 12 17  1  0  0  0  0
 13 14  2  0  0  0  0
 14 15  1  0  0  0  0
 15 16  1  0  0  0  0
 15 18  2  0  0  0  0
 16 17  2  0  0  0  0
 18 19  1  0  0  0  0
 18 22  1  0  0  0  0
 19 20  1  0  0  0  0
 20 21  1  0  0  0  0
 20 23  1  0  0  0  0
 21 22  2  0  0  0  0
 24 25  2  0  0  0  0
 25 26  1  0  0  0  0
 26 27  1  0  0  0  0
 27 28  1  0  0  0  0
 27 29  2  0  0  0  0
  2 30  1  0  0  0  0
  3 31  1  0  0  0  0
  4 32  1  0  0  0  0
  8 33  1  0  0  0  0
 10 34  1  0  0  0  0
 13 35  1  0  0  0  0
 14 36  1  0  0  0  0
 16 37  1  0  0  0  0
 17 38  1  0  0  0  0
 19 39  1  0  0  0  0
 19 40  1  0  0  0  0
 22 41  1  0  0  0  0
 23 42  1  0  0  0  0
 23 43  1  0  0  0  0
 23 44  1  0  0  0  0
 25 45  1  0  0  0  0
 26 46  1  0  0  0  0
 26 47  1  0  0  0  0
 28 48  1  0  0  0  0
 29 49  1  0  0  0  0
M  END
> <Name>
23

> <IC50[uM]>
0.27

$$$$
23
  -OEChem-05192314333D
 Structure written by MMmdl.
 49 53  0     1  0  0  0  0  0999 V2000
   -6.3775   12.3296  -12.0018 C   0  0  0  0  0  0  0  0  0  0  0  0
   -6.5098   11.7629  -10.7403 C   0  0  0  0  0  0  0  0  0  0  0  0
   -7.7247   10.5660  -13.0266 C   0  0  0  0  0  0  0  0  0  0  0  0
   -6.9942   11.7487  -13.1193 C   0  0  0  0  0  0  0  0  0  0  0  0
   -7.8312   10.0057  -11.7538 C   0  0  0  0  0  0  0  0  0  0  0  0
   -7.2443   10.6021  -10.6070 C   0  0  0  0  0  0  0  0  0  0  0  0
   -7.6167    9.7449   -9.5151 C   0  0  0  0  0  0  0  0  0  0  0  0
   -8.2961    8.7374   -9.9786 N   0  0  0  0  0  0  0  0  0  0  0  0
   -8.4404    8.8724  -11.2937 N   0  0  0  0  0  0  0  0  0  0  0  0
   -7.3318    9.8946   -8.0252 C   0  0  0  0  0  0  0  0  0  0  0  0
   -5.5478   13.5112  -12.1572 C   0  0  0  0  0  0  0  0  0  0  0  0
   -5.9707   10.4870   -7.7351 C   0  0  0  0  0  0  0  0  0  0  0  0
   -5.8642   11.7588   -7.1694 C   0  0  0  0  0  0  0  0  0  0  0  0
   -4.6019   12.3141   -6.9186 C   0  0  0  0  0  0  0  0  0  0  0  0
   -3.4503   11.5963   -7.2357 C   0  0  0  0  0  0  0  0  0  0  0  0
   -3.5604   10.3220   -7.8000 C   0  0  0  0  0  0  0  0  0  0  0  0
   -4.8213    9.7719   -8.0443 C   0  0  0  0  0  0  0  0  0  0  0  0
   -2.0996   12.1710   -6.9757 C   0  0  0  0  0  0  0  0  0  0  0  0
   -1.7487   13.4240   -6.4767 C   0  0  0  0  0  0  0  0  0  0  0  0
   -0.4123   13.4674   -6.4260 N   0  0  3  0  0  0  0  0  0  0  0  0
    0.1713   12.3664   -6.8217 N   0  0  0  0  0  0  0  0  0  0  0  0
   -0.8093   11.5624   -7.1930 C   0  0  0  0  0  0  0  0  0  0  0  0
    0.4224   14.5657   -5.9816 C   0  0  0  0  0  0  0  0  0  0  0  0
   -5.6966   14.2423  -13.2612 N   0  0  0  0  0  0  0  0  0  0  0  0
   -4.9506   15.3153  -13.5405 C   0  0  0  0  0  0  0  0  0  0  0  0
   -3.9383   15.6899  -12.6782 C   0  0  0  0  0  0  0  0  0  0  0  0
   -3.7261   14.9536  -11.5366 C   0  0  0  0  0  0  0  0  0  0  0  0
   -4.5508   13.8769  -11.2437 C   0  0  0  0  0  0  0  0  0  0  0  0
   -2.6976   15.2614  -10.7139 N   0  0  0  0  0  0  0  0  0  0  0  0
   -6.0464   12.2223   -9.8797 H   0  0  0  0  0  0  0  0  0  0  0  0
   -8.1826   10.1089  -13.8914 H   0  0  0  0  0  0  0  0  0  0  0  0
   -6.9001   12.2325  -14.0803 H   0  0  0  0  0  0  0  0  0  0  0  0
   -8.9338    8.2246  -11.8742 H   0  0  0  0  0  0  0  0  0  0  0  0
   -8.0313    9.6067   -7.2544 H   0  0  0  0  0  0  0  0  0  0  0  0
   -6.7563   12.3160   -6.9245 H   0  0  0  0  0  0  0  0  0  0  0  0
   -4.5218   13.2977   -6.4798 H   0  0  0  0  0  0  0  0  0  0  0  0
   -2.6703    9.7625   -8.0472 H   0  0  0  0  0  0  0  0  0  0  0  0
   -4.9024    8.7852   -8.4759 H   0  0  0  0  0  0  0  0  0  0  0  0
   -2.1269   14.2144   -7.1418 H   0  0  0  0  0  0  0  0  0  0  0  0
   -2.1691   13.5602   -5.4694 H   0  0  0  0  0  0  0  0  0  0  0  0
   -0.6637   10.5754   -7.6065 H   0  0  0  0  0  0  0  0  0  0  0  0
    1.4809   14.2752   -6.0543 H   0  0  0  0  0  0  0  0  0  0  0  0
    0.2393   15.4453   -6.6162 H   0  0  0  0  0  0  0  0  0  0  0  0
    0.1804   14.8105   -4.9369 H   0  0  0  0  0  0  0  0  0  0  0  0
   -5.1384   15.8875  -14.4370 H   0  0  0  0  0  0  0  0  0  0  0  0
   -3.0010   15.6690  -13.2536 H   0  0  0  0  0  0  0  0  0  0  0  0
   -4.1509   16.7215  -12.3610 H   0  0  0  0  0  0  0  0  0  0  0  0
   -4.4255   13.3274  -10.3224 H   0  0  0  0  0  0  0  0  0  0  0  0
   -2.6419   14.6376   -9.9343 H   0  0  0  0  0  0  0  0  0  0  0  0
  1  2  2  0  0  0  0
  1  4  1  0  0  0  0
  1 11  1  0  0  0  0
  2  6  1  0  0  0  0
  3  4  2  0  0  0  0
  3  5  1  0  0  0  0
  5  6  2  0  0  0  0
  5  9  1  0  0  0  0
  6  7  1  0  0  0  0
  7  8  2  0  0  0  0
  7 10  1  0  0  0  0
  8  9  1  0  0  0  0
 10 12  2  0  0  0  0
 11 24  1  0  0  0  0
 11 28  2  0  0  0  0
 12 13  1  0  0  0  0
 12 17  1  0  0  0  0
 13 14  2  0  0  0  0
 14 15  1  0  0  0  0
 15 16  1  0  0  0  0
 15 18  2  0  0  0  0
 16 17  2  0  0  0  0
 18 19  1  0  0  0  0
 18 22  1  0  0  0  0
 19 20  1  0  0  0  0
 20 21  1  0  0  0  0
 20 23  1  0  0  0  0
 21 22  2  0  0  0  0
 24 25  2  0  0  0  0
 25 26  1  0  0  0  0
 26 27  1  0  0  0  0
 27 28  1  0  0  0  0
 27 29  2  0  0  0  0
  2 30  1  0  0  0  0
  3 31  1  0  0  0  0
  4 32  1  0  0  0  0
  9 33  1  0  0  0  0
 10 34  1  0  0  0  0
 13 35  1  0  0  0  0
 14 36  1  0  0  0  0
 16 37  1  0  0  0  0
 17 38  1  0  0  0  0
 19 39  1  0  0  0  0
 19 40  1  0  0  0  0
 22 41  1  0  0  0  0
 23 42  1  0  0  0  0
 23 43  1  0  0  0  0
 23 44  1  0  0  0  0
 25 45  1  0  0  0  0
 26 46  1  0  0  0  0
 26 47  1  0  0  0  0
 28 48  1  0  0  0  0
 29 49  1  0  0  0  0
M  END
> <Name>
23

> <IC50[uM]>
0.27

$$$$
23
  -OEChem-05192314333D
 Structure written by MMmdl.
 49 53  0     1  0  0  0  0  0999 V2000
   -6.3775   12.3296  -12.0018 C   0  0  0  0  0  0  0  0  0  0  0  0
   -6.5098   11.7629  -10.7403 C   0  0  0  0  0  0  0  0  0  0  0  0
   -7.7247   10.5660  -13.0266 C   0  0  0  0  0  0  0  0  0  0  0  0
   -6.9942   11.7487  -13.1193 C   0  0  0  0  0  0  0  0  0  0  0  0
   -7.8312   10.0057  -11.7538 C   0  0  0  0  0  0  0  0  0  0  0  0
   -7.2443   10.6021  -10.6070 C   0  0  0  0  0  0  0  0  0  0  0  0
   -7.6167    9.7449   -9.5151 C   0  0  0  0  0  0  0  0  0  0  0  0
   -8.2961    8.7374   -9.9786 N   0  0  0  0  0  0  0  0  0  0  0  0
   -8.4404    8.8724  -11.2937 N   0  0  0  0  0  0  0  0  0  0  0  0
   -7.3318    9.8946   -8.0252 C   0  0  0  0  0  0  0  0  0  0  0  0
   -5.5478   13.5112  -12.1572 C   0  0  0  0  0  0  0  0  0  0  0  0
   -5.9707   10.4870   -7.7351 C   0  0  0  0  0  0  0  0  0  0  0  0
   -5.8642   11.7588   -7.1694 C   0  0  0  0  0  0  0  0  0  0  0  0
   -4.6019   12.3141   -6.9186 C   0  0  0  0  0  0  0  0  0  0  0  0
   -3.4503   11.5963   -7.2357 C   0  0  0  0  0  0  0  0  0  0  0  0
   -3.5604   10.3220   -7.8000 C   0  0  0  0  0  0  0  0  0  0  0  0
   -4.8213    9.7719   -8.0443 C   0  0  0  0  0  0  0  0  0  0  0  0
   -2.0996   12.1710   -6.9757 C   0  0  0  0  0  0  0  0  0  0  0  0
   -1.7487   13.4240   -6.4767 C   0  0  0  0  0  0  0  0  0  0  0  0
   -0.4123   13.4674   -6.4260 N   0  0  3  0  0  0  0  0  0  0  0  0
    0.1713   12.3664   -6.8217 N   0  0  0  0  0  0  0  0  0  0  0  0
   -0.8093   11.5624   -7.1930 C   0  0  0  0  0  0  0  0  0  0  0  0
    0.4224   14.5657   -5.9816 C   0  0  0  0  0  0  0  0  0  0  0  0
   -5.6966   14.2423  -13.2612 N   0  0  0  0  0  0  0  0  0  0  0  0
   -4.9506   15.3153  -13.5405 C   0  0  0  0  0  0  0  0  0  0  0  0
   -3.9383   15.6899  -12.6782 C   0  0  0  0  0  0  0  0  0  0  0  0
   -3.7261   14.9536  -11.5366 C   0  0  0  0  0  0  0  0  0  0  0  0
   -4.5508   13.8769  -11.2437 C   0  0  0  0  0  0  0  0  0  0  0  0
   -2.6976   15.2614  -10.7139 N   0  0  0  0  0  0  0  0  0  0  0  0
   -6.0464   12.2223   -9.8797 H   0  0  0  0  0  0  0  0  0  0  0  0
   -8.1826   10.1089  -13.8914 H   0  0  0  0  0  0  0  0  0  0  0  0
   -6.9001   12.2325  -14.0803 H   0  0  0  0  0  0  0  0  0  0  0  0
   -8.6538    7.9802   -9.4320 H   0  0  0  0  0  0  0  0  0  0  0  0
   -8.0313    9.6067   -7.2544 H   0  0  0  0  0  0  0  0  0  0  0  0
   -6.7563   12.3160   -6.9245 H   0  0  0  0  0  0  0  0  0  0  0  0
   -4.5218   13.2977   -6.4798 H   0  0  0  0  0  0  0  0  0  0  0  0
   -2.6703    9.7625   -8.0472 H   0  0  0  0  0  0  0  0  0  0  0  0
   -4.9024    8.7852   -8.4759 H   0  0  0  0  0  0  0  0  0  0  0  0
   -2.1269   14.2144   -7.1418 H   0  0  0  0  0  0  0  0  0  0  0  0
   -2.1691   13.5602   -5.4694 H   0  0  0  0  0  0  0  0  0  0  0  0
   -0.6637   10.5754   -7.6065 H   0  0  0  0  0  0  0  0  0  0  0  0
    1.4809   14.2752   -6.0543 H   0  0  0  0  0  0  0  0  0  0  0  0
    0.2393   15.4453   -6.6162 H   0  0  0  0  0  0  0  0  0  0  0  0
    0.1804   14.8105   -4.9369 H   0  0  0  0  0  0  0  0  0  0  0  0
   -5.1384   15.8875  -14.4370 H   0  0  0  0  0  0  0  0  0  0  0  0
   -3.3221   16.5493  -12.8978 H   0  0  0  0  0  0  0  0  0  0  0  0
   -5.0546   14.1072  -10.2933 H   0  0  0  0  0  0  0  0  0  0  0  0
   -3.8997   13.0003  -11.1106 H   0  0  0  0  0  0  0  0  0  0  0  0
   -2.6419   14.6376   -9.9343 H   0  0  0  0  0  0  0  0  0  0  0  0
  1  2  2  0  0  0  0
  1  4  1  0  0  0  0
  1 11  1  0  0  0  0
  2  6  1  0  0  0  0
  3  4  2  0  0  0  0
  3  5  1  0  0  0  0
  5  6  1  0  0  0  0
  5  9  2  0  0  0  0
  6  7  2  0  0  0  0
  7  8  1  0  0  0  0
  7 10  1  0  0  0  0
  8  9  1  0  0  0  0
 10 12  2  0  0  0  0
 11 24  2  0  0  0  0
 11 28  1  0  0  0  0
 12 13  1  0  0  0  0
 12 17  1  0  0  0  0
 13 14  2  0  0  0  0
 14 15  1  0  0  0  0
 15 16  1  0  0  0  0
 15 18  2  0  0  0  0
 16 17  2  0  0  0  0
 18 19  1  0  0  0  0
 18 22  1  0  0  0  0
 19 20  1  0  0  0  0
 20 21  1  0  0  0  0
 20 23  1  0  0  0  0
 21 22  2  0  0  0  0
 24 25  1  0  0  0  0
 25 26  2  0  0  0  0
 26 27  1  0  0  0  0
 27 28  1  0  0  0  0
 27 29  2  0  0  0  0
  2 30  1  0  0  0  0
  3 31  1  0  0  0  0
  4 32  1  0  0  0  0
  8 33  1  0  0  0  0
 10 34  1  0  0  0  0
 13 35  1  0  0  0  0
 14 36  1  0  0  0  0
 16 37  1  0  0  0  0
 17 38  1  0  0  0  0
 19 39  1  0  0  0  0
 19 40  1  0  0  0  0
 22 41  1  0  0  0  0
 23 42  1  0  0  0  0
 23 43  1  0  0  0  0
 23 44  1  0  0  0  0
 25 45  1  0  0  0  0
 26 46  1  0  0  0  0
 28 47  1  0  0  0  0
 28 48  1  0  0  0  0
 29 49  1  0  0  0  0
M  END
> <Name>
23

> <IC50[uM]>
0.27

$$$$
23
  -OEChem-05192314333D
 Structure written by MMmdl.
 49 53  0     1  0  0  0  0  0999 V2000
   -6.3775   12.3296  -12.0018 C   0  0  0  0  0  0  0  0  0  0  0  0
   -6.5098   11.7629  -10.7403 C   0  0  0  0  0  0  0  0  0  0  0  0
   -7.7247   10.5660  -13.0266 C   0  0  0  0  0  0  0  0  0  0  0  0
   -6.9942   11.7487  -13.1193 C   0  0  0  0  0  0  0  0  0  0  0  0
   -7.8312   10.0057  -11.7538 C   0  0  0  0  0  0  0  0  0  0  0  0
   -7.2443   10.6021  -10.6070 C   0  0  0  0  0  0  0  0  0  0  0  0
   -7.6167    9.7449   -9.5151 C   0  0  0  0  0  0  0  0  0  0  0  0
   -8.2961    8.7374   -9.9786 N   0  0  0  0  0  0  0  0  0  0  0  0
   -8.4404    8.8724  -11.2937 N   0  0  0  0  0  0  0  0  0  0  0  0
   -7.3318    9.8946   -8.0252 C   0  0  0  0  0  0  0  0  0  0  0  0
   -5.5478   13.5112  -12.1572 C   0  0  0  0  0  0  0  0  0  0  0  0
   -5.9707   10.4870   -7.7351 C   0  0  0  0  0  0  0  0  0  0  0  0
   -5.8642   11.7588   -7.1694 C   0  0  0  0  0  0  0  0  0  0  0  0
   -4.6019   12.3141   -6.9186 C   0  0  0  0  0  0  0  0  0  0  0  0
   -3.4503   11.5963   -7.2357 C   0  0  0  0  0  0  0  0  0  0  0  0
   -3.5604   10.3220   -7.8000 C   0  0  0  0  0  0  0  0  0  0  0  0
   -4.8213    9.7719   -8.0443 C   0  0  0  0  0  0  0  0  0  0  0  0
   -2.0996   12.1710   -6.9757 C   0  0  0  0  0  0  0  0  0  0  0  0
   -1.7487   13.4240   -6.4767 C   0  0  0  0  0  0  0  0  0  0  0  0
   -0.4123   13.4674   -6.4260 N   0  0  3  0  0  0  0  0  0  0  0  0
    0.1713   12.3664   -6.8217 N   0  0  0  0  0  0  0  0  0  0  0  0
   -0.8093   11.5624   -7.1930 C   0  0  0  0  0  0  0  0  0  0  0  0
    0.4224   14.5657   -5.9816 C   0  0  0  0  0  0  0  0  0  0  0  0
   -5.6966   14.2423  -13.2612 N   0  0  0  0  0  0  0  0  0  0  0  0
   -4.9506   15.3153  -13.5405 C   0  0  0  0  0  0  0  0  0  0  0  0
   -3.9383   15.6899  -12.6782 C   0  0  0  0  0  0  0  0  0  0  0  0
   -3.7261   14.9536  -11.5366 C   0  0  0  0  0  0  0  0  0  0  0  0
   -4.5508   13.8769  -11.2437 C   0  0  0  0  0  0  0  0  0  0  0  0
   -2.6976   15.2614  -10.7139 N   0  0  0  0  0  0  0  0  0  0  0  0
   -6.0464   12.2223   -9.8797 H   0  0  0  0  0  0  0  0  0  0  0  0
   -8.1826   10.1089  -13.8914 H   0  0  0  0  0  0  0  0  0  0  0  0
   -6.9001   12.2325  -14.0803 H   0  0  0  0  0  0  0  0  0  0  0  0
   -8.9338    8.2246  -11.8742 H   0  0  0  0  0  0  0  0  0  0  0  0
   -8.0313    9.6067   -7.2544 H   0  0  0  0  0  0  0  0  0  0  0  0
   -6.7563   12.3160   -6.9245 H   0  0  0  0  0  0  0  0  0  0  0  0
   -4.5218   13.2977   -6.4798 H   0  0  0  0  0  0  0  0  0  0  0  0
   -2.6703    9.7625   -8.0472 H   0  0  0  0  0  0  0  0  0  0  0  0
   -4.9024    8.7852   -8.4759 H   0  0  0  0  0  0  0  0  0  0  0  0
   -2.1269   14.2144   -7.1418 H   0  0  0  0  0  0  0  0  0  0  0  0
   -2.1691   13.5602   -5.4694 H   0  0  0  0  0  0  0  0  0  0  0  0
   -0.6637   10.5754   -7.6065 H   0  0  0  0  0  0  0  0  0  0  0  0
    1.4809   14.2752   -6.0543 H   0  0  0  0  0  0  0  0  0  0  0  0
    0.2393   15.4453   -6.6162 H   0  0  0  0  0  0  0  0  0  0  0  0
    0.1804   14.8105   -4.9369 H   0  0  0  0  0  0  0  0  0  0  0  0
   -5.1384   15.8875  -14.4370 H   0  0  0  0  0  0  0  0  0  0  0  0
   -3.3221   16.5493  -12.8978 H   0  0  0  0  0  0  0  0  0  0  0  0
   -5.0546   14.1072  -10.2933 H   0  0  0  0  0  0  0  0  0  0  0  0
   -3.8997   13.0003  -11.1106 H   0  0  0  0  0  0  0  0  0  0  0  0
   -2.6419   14.6376   -9.9343 H   0  0  0  0  0  0  0  0  0  0  0  0
  1  2  2  0  0  0  0
  1  4  1  0  0  0  0
  1 11  1  0  0  0  0
  2  6  1  0  0  0  0
  3  4  2  0  0  0  0
  3  5  1  0  0  0  0
  5  6  2  0  0  0  0
  5  9  1  0  0  0  0
  6  7  1  0  0  0  0
  7  8  2  0  0  0  0
  7 10  1  0  0  0  0
  8  9  1  0  0  0  0
 10 12  2  0  0  0  0
 11 24  2  0  0  0  0
 11 28  1  0  0  0  0
 12 13  1  0  0  0  0
 12 17  1  0  0  0  0
 13 14  2  0  0  0  0
 14 15  1  0  0  0  0
 15 16  1  0  0  0  0
 15 18  2  0  0  0  0
 16 17  2  0  0  0  0
 18 19  1  0  0  0  0
 18 22  1  0  0  0  0
 19 20  1  0  0  0  0
 20 21  1  0  0  0  0
 20 23  1  0  0  0  0
 21 22  2  0  0  0  0
 24 25  1  0  0  0  0
 25 26  2  0  0  0  0
 26 27  1  0  0  0  0
 27 28  1  0  0  0  0
 27 29  2  0  0  0  0
  2 30  1  0  0  0  0
  3 31  1  0  0  0  0
  4 32  1  0  0  0  0
  9 33  1  0  0  0  0
 10 34  1  0  0  0  0
 13 35  1  0  0  0  0
 14 36  1  0  0  0  0
 16 37  1  0  0  0  0
 17 38  1  0  0  0  0
 19 39  1  0  0  0  0
 19 40  1  0  0  0  0
 22 41  1  0  0  0  0
 23 42  1  0  0  0  0
 23 43  1  0  0  0  0
 23 44  1  0  0  0  0
 25 45  1  0  0  0  0
 26 46  1  0  0  0  0
 28 47  1  0  0  0  0
 28 48  1  0  0  0  0
 29 49  1  0  0  0  0
M  END
> <Name>
23

> <IC50[uM]>
0.27

$$$$
23
  -OEChem-05192314333D
 Structure written by MMmdl.
 49 53  0     0  0  0  0  0  0999 V2000
   -6.3775   12.3296  -12.0018 C   0  0  0  0  0  0  0  0  0  0  0  0
   -6.5098   11.7629  -10.7403 C   0  0  0  0  0  0  0  0  0  0  0  0
   -7.7247   10.5660  -13.0266 C   0  0  0  0  0  0  0  0  0  0  0  0
   -6.9942   11.7487  -13.1193 C   0  0  0  0  0  0  0  0  0  0  0  0
   -7.8312   10.0057  -11.7538 C   0  0  0  0  0  0  0  0  0  0  0  0
   -7.2443   10.6021  -10.6070 C   0  0  0  0  0  0  0  0  0  0  0  0
   -7.6167    9.7449   -9.5151 C   0  0  0  0  0  0  0  0  0  0  0  0
   -8.2961    8.7374   -9.9786 N   0  0  0  0  0  0  0  0  0  0  0  0
   -8.4404    8.8724  -11.2937 N   0  0  0  0  0  0  0  0  0  0  0  0
   -7.3318    9.8946   -8.0252 C   0  0  0  0  0  0  0  0  0  0  0  0
   -5.5478   13.5112  -12.1572 C   0  0  0  0  0  0  0  0  0  0  0  0
   -5.9707   10.4870   -7.7351 C   0  0  0  0  0  0  0  0  0  0  0  0
   -5.8642   11.7588   -7.1694 C   0  0  0  0  0  0  0  0  0  0  0  0
   -4.6019   12.3141   -6.9186 C   0  0  0  0  0  0  0  0  0  0  0  0
   -3.4503   11.5963   -7.2357 C   0  0  0  0  0  0  0  0  0  0  0  0
   -3.5604   10.3220   -7.8000 C   0  0  0  0  0  0  0  0  0  0  0  0
   -4.8213    9.7719   -8.0443 C   0  0  0  0  0  0  0  0  0  0  0  0
   -2.0996   12.1710   -6.9757 C   0  0  0  0  0  0  0  0  0  0  0  0
   -1.7487   13.4240   -6.4767 C   0  0  0  0  0  0  0  0  0  0  0  0
   -0.4123   13.4674   -6.4260 N   0  0  0  0  0  0  0  0  0  0  0  0
    0.1713   12.3664   -6.8217 N   0  0  0  0  0  0  0  0  0  0  0  0
   -0.8093   11.5624   -7.1930 C   0  0  0  0  0  0  0  0  0  0  0  0
    0.4224   14.5657   -5.9816 C   0  0  0  0  0  0  0  0  0  0  0  0
   -5.6966   14.2423  -13.2612 N   0  0  0  0  0  0  0  0  0  0  0  0
   -4.9506   15.3153  -13.5405 C   0  0  0  0  0  0  0  0  0  0  0  0
   -3.9383   15.6899  -12.6782 C   0  0  0  0  0  0  0  0  0  0  0  0
   -3.7261   14.9536  -11.5366 C   0  0  0  0  0  0  0  0  0  0  0  0
   -4.5508   13.8769  -11.2437 C   0  0  0  0  0  0  0  0  0  0  0  0
   -2.6976   15.2614  -10.7139 N   0  0  0  0  0  0  0  0  0  0  0  0
   -6.0464   12.2223   -9.8797 H   0  0  0  0  0  0  0  0  0  0  0  0
   -8.1826   10.1089  -13.8914 H   0  0  0  0  0  0  0  0  0  0  0  0
   -6.9001   12.2325  -14.0803 H   0  0  0  0  0  0  0  0  0  0  0  0
   -8.6538    7.9802   -9.4320 H   0  0  0  0  0  0  0  0  0  0  0  0
   -8.0313    9.6067   -7.2544 H   0  0  0  0  0  0  0  0  0  0  0  0
   -6.7563   12.3160   -6.9245 H   0  0  0  0  0  0  0  0  0  0  0  0
   -4.5218   13.2977   -6.4798 H   0  0  0  0  0  0  0  0  0  0  0  0
   -3.4477   12.0425   -8.2411 H   0  0  0  0  0  0  0  0  0  0  0  0
   -2.6703    9.7625   -8.0472 H   0  0  0  0  0  0  0  0  0  0  0  0
   -4.9024    8.7852   -8.4759 H   0  0  0  0  0  0  0  0  0  0  0  0
   -2.4277   14.2118   -6.1857 H   0  0  0  0  0  0  0  0  0  0  0  0
   -0.6637   10.5754   -7.6065 H   0  0  0  0  0  0  0  0  0  0  0  0
    1.4809   14.2752   -6.0543 H   0  0  0  0  0  0  0  0  0  0  0  0
    0.2393   15.4453   -6.6162 H   0  0  0  0  0  0  0  0  0  0  0  0
    0.1804   14.8105   -4.9369 H   0  0  0  0  0  0  0  0  0  0  0  0
   -5.1384   15.8875  -14.4370 H   0  0  0  0  0  0  0  0  0  0  0  0
   -3.0010   15.6690  -13.2536 H   0  0  0  0  0  0  0  0  0  0  0  0
   -4.1509   16.7215  -12.3610 H   0  0  0  0  0  0  0  0  0  0  0  0
   -4.4255   13.3274  -10.3224 H   0  0  0  0  0  0  0  0  0  0  0  0
   -2.6419   14.6376   -9.9343 H   0  0  0  0  0  0  0  0  0  0  0  0
  1  2  2  0  0  0  0
  1  4  1  0  0  0  0
  1 11  1  0  0  0  0
  2  6  1  0  0  0  0
  3  4  2  0  0  0  0
  3  5  1  0  0  0  0
  5  6  1  0  0  0  0
  5  9  2  0  0  0  0
  6  7  2  0  0  0  0
  7  8  1  0  0  0  0
  7 10  1  0  0  0  0
  8  9  1  0  0  0  0
 10 12  2  0  0  0  0
 11 24  1  0  0  0  0
 11 28  2  0  0  0  0
 12 13  1  0  0  0  0
 12 17  1  0  0  0  0
 13 14  2  0  0  0  0
 14 15  1  0  0  0  0
 15 16  1  0  0  0  0
 15 18  1  0  0  0  0
 16 17  2  0  0  0  0
 18 19  2  0  0  0  0
 18 22  1  0  0  0  0
 19 20  1  0  0  0  0
 20 21  1  0  0  0  0
 20 23  1  0  0  0  0
 21 22  2  0  0  0  0
 24 25  2  0  0  0  0
 25 26  1  0  0  0  0
 26 27  1  0  0  0  0
 27 28  1  0  0  0  0
 27 29  2  0  0  0  0
  2 30  1  0  0  0  0
  3 31  1  0  0  0  0
  4 32  1  0  0  0  0
  8 33  1  0  0  0  0
 10 34  1  0  0  0  0
 13 35  1  0  0  0  0
 14 36  1  0  0  0  0
 15 37  1  0  0  0  0
 16 38  1  0  0  0  0
 17 39  1  0  0  0  0
 19 40  1  0  0  0  0
 22 41  1  0  0  0  0
 23 42  1  0  0  0  0
 23 43  1  0  0  0  0
 23 44  1  0  0  0  0
 25 45  1  0  0  0  0
 26 46  1  0  0  0  0
 26 47  1  0  0  0  0
 28 48  1  0  0  0  0
 29 49  1  0  0  0  0
M  END
> <Name>
23

> <IC50[uM]>
0.27

$$$$
23
  -OEChem-05192314333D
 Structure written by MMmdl.
 49 53  0     0  0  0  0  0  0999 V2000
   -6.3775   12.3296  -12.0018 C   0  0  0  0  0  0  0  0  0  0  0  0
   -6.5098   11.7629  -10.7403 C   0  0  0  0  0  0  0  0  0  0  0  0
   -7.7247   10.5660  -13.0266 C   0  0  0  0  0  0  0  0  0  0  0  0
   -6.9942   11.7487  -13.1193 C   0  0  0  0  0  0  0  0  0  0  0  0
   -7.8312   10.0057  -11.7538 C   0  0  0  0  0  0  0  0  0  0  0  0
   -7.2443   10.6021  -10.6070 C   0  0  0  0  0  0  0  0  0  0  0  0
   -7.6167    9.7449   -9.5151 C   0  0  0  0  0  0  0  0  0  0  0  0
   -8.2961    8.7374   -9.9786 N   0  0  0  0  0  0  0  0  0  0  0  0
   -8.4404    8.8724  -11.2937 N   0  0  0  0  0  0  0  0  0  0  0  0
   -7.3318    9.8946   -8.0252 C   0  0  0  0  0  0  0  0  0  0  0  0
   -5.5478   13.5112  -12.1572 C   0  0  0  0  0  0  0  0  0  0  0  0
   -5.9707   10.4870   -7.7351 C   0  0  0  0  0  0  0  0  0  0  0  0
   -5.8642   11.7588   -7.1694 C   0  0  0  0  0  0  0  0  0  0  0  0
   -4.6019   12.3141   -6.9186 C   0  0  0  0  0  0  0  0  0  0  0  0
   -3.4503   11.5963   -7.2357 C   0  0  0  0  0  0  0  0  0  0  0  0
   -3.5604   10.3220   -7.8000 C   0  0  0  0  0  0  0  0  0  0  0  0
   -4.8213    9.7719   -8.0443 C   0  0  0  0  0  0  0  0  0  0  0  0
   -2.0996   12.1710   -6.9757 C   0  0  0  0  0  0  0  0  0  0  0  0
   -1.7487   13.4240   -6.4767 C   0  0  0  0  0  0  0  0  0  0  0  0
   -0.4123   13.4674   -6.4260 N   0  0  0  0  0  0  0  0  0  0  0  0
    0.1713   12.3664   -6.8217 N   0  0  0  0  0  0  0  0  0  0  0  0
   -0.8093   11.5624   -7.1930 C   0  0  0  0  0  0  0  0  0  0  0  0
    0.4224   14.5657   -5.9816 C   0  0  0  0  0  0  0  0  0  0  0  0
   -5.6966   14.2423  -13.2612 N   0  0  0  0  0  0  0  0  0  0  0  0
   -4.9506   15.3153  -13.5405 C   0  0  0  0  0  0  0  0  0  0  0  0
   -3.9383   15.6899  -12.6782 C   0  0  0  0  0  0  0  0  0  0  0  0
   -3.7261   14.9536  -11.5366 C   0  0  0  0  0  0  0  0  0  0  0  0
   -4.5508   13.8769  -11.2437 C   0  0  0  0  0  0  0  0  0  0  0  0
   -2.6976   15.2614  -10.7139 N   0  0  0  0  0  0  0  0  0  0  0  0
   -6.0464   12.2223   -9.8797 H   0  0  0  0  0  0  0  0  0  0  0  0
   -8.1826   10.1089  -13.8914 H   0  0  0  0  0  0  0  0  0  0  0  0
   -6.9001   12.2325  -14.0803 H   0  0  0  0  0  0  0  0  0  0  0  0
   -8.9338    8.2246  -11.8742 H   0  0  0  0  0  0  0  0  0  0  0  0
   -8.0313    9.6067   -7.2544 H   0  0  0  0  0  0  0  0  0  0  0  0
   -6.7563   12.3160   -6.9245 H   0  0  0  0  0  0  0  0  0  0  0  0
   -4.5218   13.2977   -6.4798 H   0  0  0  0  0  0  0  0  0  0  0  0
   -3.4477   12.0425   -8.2411 H   0  0  0  0  0  0  0  0  0  0  0  0
   -2.6703    9.7625   -8.0472 H   0  0  0  0  0  0  0  0  0  0  0  0
   -4.9024    8.7852   -8.4759 H   0  0  0  0  0  0  0  0  0  0  0  0
   -2.4277   14.2118   -6.1857 H   0  0  0  0  0  0  0  0  0  0  0  0
   -0.6637   10.5754   -7.6065 H   0  0  0  0  0  0  0  0  0  0  0  0
    1.4809   14.2752   -6.0543 H   0  0  0  0  0  0  0  0  0  0  0  0
    0.2393   15.4453   -6.6162 H   0  0  0  0  0  0  0  0  0  0  0  0
    0.1804   14.8105   -4.9369 H   0  0  0  0  0  0  0  0  0  0  0  0
   -5.1384   15.8875  -14.4370 H   0  0  0  0  0  0  0  0  0  0  0  0
   -3.0010   15.6690  -13.2536 H   0  0  0  0  0  0  0  0  0  0  0  0
   -4.1509   16.7215  -12.3610 H   0  0  0  0  0  0  0  0  0  0  0  0
   -4.4255   13.3274  -10.3224 H   0  0  0  0  0  0  0  0  0  0  0  0
   -2.6419   14.6376   -9.9343 H   0  0  0  0  0  0  0  0  0  0  0  0
  1  2  2  0  0  0  0
  1  4  1  0  0  0  0
  1 11  1  0  0  0  0
  2  6  1  0  0  0  0
  3  4  2  0  0  0  0
  3  5  1  0  0  0  0
  5  6  2  0  0  0  0
  5  9  1  0  0  0  0
  6  7  1  0  0  0  0
  7  8  2  0  0  0  0
  7 10  1  0  0  0  0
  8  9  1  0  0  0  0
 10 12  2  0  0  0  0
 11 24  1  0  0  0  0
 11 28  2  0  0  0  0
 12 13  1  0  0  0  0
 12 17  1  0  0  0  0
 13 14  2  0  0  0  0
 14 15  1  0  0  0  0
 15 16  1  0  0  0  0
 15 18  1  0  0  0  0
 16 17  2  0  0  0  0
 18 19  2  0  0  0  0
 18 22  1  0  0  0  0
 19 20  1  0  0  0  0
 20 21  1  0  0  0  0
 20 23  1  0  0  0  0
 21 22  2  0  0  0  0
 24 25  2  0  0  0  0
 25 26  1  0  0  0  0
 26 27  1  0  0  0  0
 27 28  1  0  0  0  0
 27 29  2  0  0  0  0
  2 30  1  0  0  0  0
  3 31  1  0  0  0  0
  4 32  1  0  0  0  0
  9 33  1  0  0  0  0
 10 34  1  0  0  0  0
 13 35  1  0  0  0  0
 14 36  1  0  0  0  0
 15 37  1  0  0  0  0
 16 38  1  0  0  0  0
 17 39  1  0  0  0  0
 19 40  1  0  0  0  0
 22 41  1  0  0  0  0
 23 42  1  0  0  0  0
 23 43  1  0  0  0  0
 23 44  1  0  0  0  0
 25 45  1  0  0  0  0
 26 46  1  0  0  0  0
 26 47  1  0  0  0  0
 28 48  1  0  0  0  0
 29 49  1  0  0  0  0
M  END
> <Name>
23

> <IC50[uM]>
0.27

$$$$
23
  -OEChem-05192314333D
 Structure written by MMmdl.
 49 53  0     0  0  0  0  0  0999 V2000
   -6.3775   12.3296  -12.0018 C   0  0  0  0  0  0  0  0  0  0  0  0
   -6.5098   11.7629  -10.7403 C   0  0  0  0  0  0  0  0  0  0  0  0
   -7.7247   10.5660  -13.0266 C   0  0  0  0  0  0  0  0  0  0  0  0
   -6.9942   11.7487  -13.1193 C   0  0  0  0  0  0  0  0  0  0  0  0
   -7.8312   10.0057  -11.7538 C   0  0  0  0  0  0  0  0  0  0  0  0
   -7.2443   10.6021  -10.6070 C   0  0  0  0  0  0  0  0  0  0  0  0
   -7.6167    9.7449   -9.5151 C   0  0  0  0  0  0  0  0  0  0  0  0
   -8.2961    8.7374   -9.9786 N   0  0  0  0  0  0  0  0  0  0  0  0
   -8.4404    8.8724  -11.2937 N   0  0  0  0  0  0  0  0  0  0  0  0
   -7.3318    9.8946   -8.0252 C   0  0  0  0  0  0  0  0  0  0  0  0
   -5.5478   13.5112  -12.1572 C   0  0  0  0  0  0  0  0  0  0  0  0
   -5.9707   10.4870   -7.7351 C   0  0  0  0  0  0  0  0  0  0  0  0
   -5.8642   11.7588   -7.1694 C   0  0  0  0  0  0  0  0  0  0  0  0
   -4.6019   12.3141   -6.9186 C   0  0  0  0  0  0  0  0  0  0  0  0
   -3.4503   11.5963   -7.2357 C   0  0  0  0  0  0  0  0  0  0  0  0
   -3.5604   10.3220   -7.8000 C   0  0  0  0  0  0  0  0  0  0  0  0
   -4.8213    9.7719   -8.0443 C   0  0  0  0  0  0  0  0  0  0  0  0
   -2.0996   12.1710   -6.9757 C   0  0  0  0  0  0  0  0  0  0  0  0
   -1.7487   13.4240   -6.4767 C   0  0  0  0  0  0  0  0  0  0  0  0
   -0.4123   13.4674   -6.4260 N   0  0  0  0  0  0  0  0  0  0  0  0
    0.1713   12.3664   -6.8217 N   0  0  0  0  0  0  0  0  0  0  0  0
   -0.8093   11.5624   -7.1930 C   0  0  0  0  0  0  0  0  0  0  0  0
    0.4224   14.5657   -5.9816 C   0  0  0  0  0  0  0  0  0  0  0  0
   -5.6966   14.2423  -13.2612 N   0  0  0  0  0  0  0  0  0  0  0  0
   -4.9506   15.3153  -13.5405 C   0  0  0  0  0  0  0  0  0  0  0  0
   -3.9383   15.6899  -12.6782 C   0  0  0  0  0  0  0  0  0  0  0  0
   -3.7261   14.9536  -11.5366 C   0  0  0  0  0  0  0  0  0  0  0  0
   -4.5508   13.8769  -11.2437 C   0  0  0  0  0  0  0  0  0  0  0  0
   -2.6976   15.2614  -10.7139 N   0  0  0  0  0  0  0  0  0  0  0  0
   -6.0464   12.2223   -9.8797 H   0  0  0  0  0  0  0  0  0  0  0  0
   -8.1826   10.1089  -13.8914 H   0  0  0  0  0  0  0  0  0  0  0  0
   -6.9001   12.2325  -14.0803 H   0  0  0  0  0  0  0  0  0  0  0  0
   -8.6538    7.9802   -9.4320 H   0  0  0  0  0  0  0  0  0  0  0  0
   -8.0313    9.6067   -7.2544 H   0  0  0  0  0  0  0  0  0  0  0  0
   -6.7563   12.3160   -6.9245 H   0  0  0  0  0  0  0  0  0  0  0  0
   -4.5218   13.2977   -6.4798 H   0  0  0  0  0  0  0  0  0  0  0  0
   -2.6703    9.7625   -8.0472 H   0  0  0  0  0  0  0  0  0  0  0  0
   -4.8715    8.8319   -7.4752 H   0  0  0  0  0  0  0  0  0  0  0  0
   -4.8665    9.5515   -9.1210 H   0  0  0  0  0  0  0  0  0  0  0  0
   -2.4277   14.2118   -6.1857 H   0  0  0  0  0  0  0  0  0  0  0  0
   -0.6637   10.5754   -7.6065 H   0  0  0  0  0  0  0  0  0  0  0  0
    1.4809   14.2752   -6.0543 H   0  0  0  0  0  0  0  0  0  0  0  0
    0.2393   15.4453   -6.6162 H   0  0  0  0  0  0  0  0  0  0  0  0
    0.1804   14.8105   -4.9369 H   0  0  0  0  0  0  0  0  0  0  0  0
   -5.1384   15.8875  -14.4370 H   0  0  0  0  0  0  0  0  0  0  0  0
   -3.0010   15.6690  -13.2536 H   0  0  0  0  0  0  0  0  0  0  0  0
   -4.1509   16.7215  -12.3610 H   0  0  0  0  0  0  0  0  0  0  0  0
   -4.4255   13.3274  -10.3224 H   0  0  0  0  0  0  0  0  0  0  0  0
   -2.6419   14.6376   -9.9343 H   0  0  0  0  0  0  0  0  0  0  0  0
  1  2  2  0  0  0  0
  1  4  1  0  0  0  0
  1 11  1  0  0  0  0
  2  6  1  0  0  0  0
  3  4  2  0  0  0  0
  3  5  1  0  0  0  0
  5  6  1  0  0  0  0
  5  9  2  0  0  0  0
  6  7  2  0  0  0  0
  7  8  1  0  0  0  0
  7 10  1  0  0  0  0
  8  9  1  0  0  0  0
 10 12  2  3  0  0  0
 11 24  1  0  0  0  0
 11 28  2  0  0  0  0
 12 13  1  0  0  0  0
 12 17  1  0  0  0  0
 13 14  2  0  0  0  0
 14 15  1  0  0  0  0
 15 16  2  0  0  0  0
 15 18  1  0  0  0  0
 16 17  1  0  0  0  0
 18 19  2  0  0  0  0
 18 22  1  0  0  0  0
 19 20  1  0  0  0  0
 20 21  1  0  0  0  0
 20 23  1  0  0  0  0
 21 22  2  0  0  0  0
 24 25  2  0  0  0  0
 25 26  1  0  0  0  0
 26 27  1  0  0  0  0
 27 28  1  0  0  0  0
 27 29  2  0  0  0  0
  2 30  1  0  0  0  0
  3 31  1  0  0  0  0
  4 32  1  0  0  0  0
  8 33  1  0  0  0  0
 10 34  1  0  0  0  0
 13 35  1  0  0  0  0
 14 36  1  0  0  0  0
 16 37  1  0  0  0  0
 17 38  1  0  0  0  0
 17 39  1  0  0  0  0
 19 40  1  0  0  0  0
 22 41  1  0  0  0  0
 23 42  1  0  0  0  0
 23 43  1  0  0  0  0
 23 44  1  0  0  0  0
 25 45  1  0  0  0  0
 26 46  1  0  0  0  0
 26 47  1  0  0  0  0
 28 48  1  0  0  0  0
 29 49  1  0  0  0  0
M  END
> <Name>
23

> <IC50[uM]>
0.27

$$$$
23
  -OEChem-05192314333D
 Structure written by MMmdl.
 49 53  0     0  0  0  0  0  0999 V2000
   -6.3775   12.3296  -12.0018 C   0  0  0  0  0  0  0  0  0  0  0  0
   -6.5098   11.7629  -10.7403 C   0  0  0  0  0  0  0  0  0  0  0  0
   -7.7247   10.5660  -13.0266 C   0  0  0  0  0  0  0  0  0  0  0  0
   -6.9942   11.7487  -13.1193 C   0  0  0  0  0  0  0  0  0  0  0  0
   -7.8312   10.0057  -11.7538 C   0  0  0  0  0  0  0  0  0  0  0  0
   -7.2443   10.6021  -10.6070 C   0  0  0  0  0  0  0  0  0  0  0  0
   -7.6167    9.7449   -9.5151 C   0  0  0  0  0  0  0  0  0  0  0  0
   -8.2961    8.7374   -9.9786 N   0  0  0  0  0  0  0  0  0  0  0  0
   -8.4404    8.8724  -11.2937 N   0  0  0  0  0  0  0  0  0  0  0  0
   -7.3318    9.8946   -8.0252 C   0  0  0  0  0  0  0  0  0  0  0  0
   -5.5478   13.5112  -12.1572 C   0  0  0  0  0  0  0  0  0  0  0  0
   -5.9707   10.4870   -7.7351 C   0  0  0  0  0  0  0  0  0  0  0  0
   -5.8642   11.7588   -7.1694 C   0  0  0  0  0  0  0  0  0  0  0  0
   -4.6019   12.3141   -6.9186 C   0  0  0  0  0  0  0  0  0  0  0  0
   -3.4503   11.5963   -7.2357 C   0  0  0  0  0  0  0  0  0  0  0  0
   -3.5604   10.3220   -7.8000 C   0  0  0  0  0  0  0  0  0  0  0  0
   -4.8213    9.7719   -8.0443 C   0  0  0  0  0  0  0  0  0  0  0  0
   -2.0996   12.1710   -6.9757 C   0  0  0  0  0  0  0  0  0  0  0  0
   -1.7487   13.4240   -6.4767 C   0  0  0  0  0  0  0  0  0  0  0  0
   -0.4123   13.4674   -6.4260 N   0  0  0  0  0  0  0  0  0  0  0  0
    0.1713   12.3664   -6.8217 N   0  0  0  0  0  0  0  0  0  0  0  0
   -0.8093   11.5624   -7.1930 C   0  0  0  0  0  0  0  0  0  0  0  0
    0.4224   14.5657   -5.9816 C   0  0  0  0  0  0  0  0  0  0  0  0
   -5.6966   14.2423  -13.2612 N   0  0  0  0  0  0  0  0  0  0  0  0
   -4.9506   15.3153  -13.5405 C   0  0  0  0  0  0  0  0  0  0  0  0
   -3.9383   15.6899  -12.6782 C   0  0  0  0  0  0  0  0  0  0  0  0
   -3.7261   14.9536  -11.5366 C   0  0  0  0  0  0  0  0  0  0  0  0
   -4.5508   13.8769  -11.2437 C   0  0  0  0  0  0  0  0  0  0  0  0
   -2.6976   15.2614  -10.7139 N   0  0  0  0  0  0  0  0  0  0  0  0
   -6.0464   12.2223   -9.8797 H   0  0  0  0  0  0  0  0  0  0  0  0
   -8.1826   10.1089  -13.8914 H   0  0  0  0  0  0  0  0  0  0  0  0
   -6.9001   12.2325  -14.0803 H   0  0  0  0  0  0  0  0  0  0  0  0
   -8.9338    8.2246  -11.8742 H   0  0  0  0  0  0  0  0  0  0  0  0
   -8.0313    9.6067   -7.2544 H   0  0  0  0  0  0  0  0  0  0  0  0
   -6.7563   12.3160   -6.9245 H   0  0  0  0  0  0  0  0  0  0  0  0
   -4.5218   13.2977   -6.4798 H   0  0  0  0  0  0  0  0  0  0  0  0
   -2.6703    9.7625   -8.0472 H   0  0  0  0  0  0  0  0  0  0  0  0
   -4.8715    8.8319   -7.4752 H   0  0  0  0  0  0  0  0  0  0  0  0
   -4.8665    9.5515   -9.1210 H   0  0  0  0  0  0  0  0  0  0  0  0
   -2.4277   14.2118   -6.1857 H   0  0  0  0  0  0  0  0  0  0  0  0
   -0.6637   10.5754   -7.6065 H   0  0  0  0  0  0  0  0  0  0  0  0
    1.4809   14.2752   -6.0543 H   0  0  0  0  0  0  0  0  0  0  0  0
    0.2393   15.4453   -6.6162 H   0  0  0  0  0  0  0  0  0  0  0  0
    0.1804   14.8105   -4.9369 H   0  0  0  0  0  0  0  0  0  0  0  0
   -5.1384   15.8875  -14.4370 H   0  0  0  0  0  0  0  0  0  0  0  0
   -3.0010   15.6690  -13.2536 H   0  0  0  0  0  0  0  0  0  0  0  0
   -4.1509   16.7215  -12.3610 H   0  0  0  0  0  0  0  0  0  0  0  0
   -4.4255   13.3274  -10.3224 H   0  0  0  0  0  0  0  0  0  0  0  0
   -2.6419   14.6376   -9.9343 H   0  0  0  0  0  0  0  0  0  0  0  0
  1  2  2  0  0  0  0
  1  4  1  0  0  0  0
  1 11  1  0  0  0  0
  2  6  1  0  0  0  0
  3  4  2  0  0  0  0
  3  5  1  0  0  0  0
  5  6  2  0  0  0  0
  5  9  1  0  0  0  0
  6  7  1  0  0  0  0
  7  8  2  0  0  0  0
  7 10  1  0  0  0  0
  8  9  1  0  0  0  0
 10 12  2  3  0  0  0
 11 24  1  0  0  0  0
 11 28  2  0  0  0  0
 12 13  1  0  0  0  0
 12 17  1  0  0  0  0
 13 14  2  0  0  0  0
 14 15  1  0  0  0  0
 15 16  2  0  0  0  0
 15 18  1  0  0  0  0
 16 17  1  0  0  0  0
 18 19  2  0  0  0  0
 18 22  1  0  0  0  0
 19 20  1  0  0  0  0
 20 21  1  0  0  0  0
 20 23  1  0  0  0  0
 21 22  2  0  0  0  0
 24 25  2  0  0  0  0
 25 26  1  0  0  0  0
 26 27  1  0  0  0  0
 27 28  1  0  0  0  0
 27 29  2  0  0  0  0
  2 30  1  0  0  0  0
  3 31  1  0  0  0  0
  4 32  1  0  0  0  0
  9 33  1  0  0  0  0
 10 34  1  0  0  0  0
 13 35  1  0  0  0  0
 14 36  1  0  0  0  0
 16 37  1  0  0  0  0
 17 38  1  0  0  0  0
 17 39  1  0  0  0  0
 19 40  1  0  0  0  0
 22 41  1  0  0  0  0
 23 42  1  0  0  0  0
 23 43  1  0  0  0  0
 23 44  1  0  0  0  0
 25 45  1  0  0  0  0
 26 46  1  0  0  0  0
 26 47  1  0  0  0  0
 28 48  1  0  0  0  0
 29 49  1  0  0  0  0
M  END
> <Name>
23

> <IC50[uM]>
0.27

$$$$
23
  -OEChem-05192314333D
 Structure written by MMmdl.
 49 53  0     0  0  0  0  0  0999 V2000
   -6.3775   12.3296  -12.0018 C   0  0  0  0  0  0  0  0  0  0  0  0
   -6.5098   11.7629  -10.7403 C   0  0  0  0  0  0  0  0  0  0  0  0
   -7.7247   10.5660  -13.0266 C   0  0  0  0  0  0  0  0  0  0  0  0
   -6.9942   11.7487  -13.1193 C   0  0  0  0  0  0  0  0  0  0  0  0
   -7.8312   10.0057  -11.7538 C   0  0  0  0  0  0  0  0  0  0  0  0
   -7.2443   10.6021  -10.6070 C   0  0  0  0  0  0  0  0  0  0  0  0
   -7.6167    9.7449   -9.5151 C   0  0  0  0  0  0  0  0  0  0  0  0
   -8.2961    8.7374   -9.9786 N   0  0  0  0  0  0  0  0  0  0  0  0
   -8.4404    8.8724  -11.2937 N   0  0  0  0  0  0  0  0  0  0  0  0
   -7.3318    9.8946   -8.0252 C   0  0  0  0  0  0  0  0  0  0  0  0
   -5.5478   13.5112  -12.1572 C   0  0  0  0  0  0  0  0  0  0  0  0
   -5.9707   10.4870   -7.7351 C   0  0  0  0  0  0  0  0  0  0  0  0
   -5.8642   11.7588   -7.1694 C   0  0  0  0  0  0  0  0  0  0  0  0
   -4.6019   12.3141   -6.9186 C   0  0  0  0  0  0  0  0  0  0  0  0
   -3.4503   11.5963   -7.2357 C   0  0  0  0  0  0  0  0  0  0  0  0
   -3.5604   10.3220   -7.8000 C   0  0  0  0  0  0  0  0  0  0  0  0
   -4.8213    9.7719   -8.0443 C   0  0  0  0  0  0  0  0  0  0  0  0
   -2.0996   12.1710   -6.9757 C   0  0  0  0  0  0  0  0  0  0  0  0
   -1.7487   13.4240   -6.4767 C   0  0  0  0  0  0  0  0  0  0  0  0
   -0.4123   13.4674   -6.4260 N   0  0  0  0  0  0  0  0  0  0  0  0
    0.1713   12.3664   -6.8217 N   0  0  0  0  0  0  0  0  0  0  0  0
   -0.8093   11.5624   -7.1930 C   0  0  0  0  0  0  0  0  0  0  0  0
    0.4224   14.5657   -5.9816 C   0  0  0  0  0  0  0  0  0  0  0  0
   -5.6966   14.2423  -13.2612 N   0  0  0  0  0  0  0  0  0  0  0  0
   -4.9506   15.3153  -13.5405 C   0  0  0  0  0  0  0  0  0  0  0  0
   -3.9383   15.6899  -12.6782 C   0  0  0  0  0  0  0  0  0  0  0  0
   -3.7261   14.9536  -11.5366 C   0  0  0  0  0  0  0  0  0  0  0  0
   -4.5508   13.8769  -11.2437 C   0  0  0  0  0  0  0  0  0  0  0  0
   -2.6976   15.2614  -10.7139 N   0  0  0  0  0  0  0  0  0  0  0  0
   -6.0464   12.2223   -9.8797 H   0  0  0  0  0  0  0  0  0  0  0  0
   -8.1826   10.1089  -13.8914 H   0  0  0  0  0  0  0  0  0  0  0  0
   -6.9001   12.2325  -14.0803 H   0  0  0  0  0  0  0  0  0  0  0  0
   -8.6538    7.9802   -9.4320 H   0  0  0  0  0  0  0  0  0  0  0  0
   -8.0313    9.6067   -7.2544 H   0  0  0  0  0  0  0  0  0  0  0  0
   -6.7563   12.3160   -6.9245 H   0  0  0  0  0  0  0  0  0  0  0  0
   -4.5218   13.2977   -6.4798 H   0  0  0  0  0  0  0  0  0  0  0  0
   -3.4477   12.0425   -8.2411 H   0  0  0  0  0  0  0  0  0  0  0  0
   -2.6703    9.7625   -8.0472 H   0  0  0  0  0  0  0  0  0  0  0  0
   -4.9024    8.7852   -8.4759 H   0  0  0  0  0  0  0  0  0  0  0  0
   -2.4277   14.2118   -6.1857 H   0  0  0  0  0  0  0  0  0  0  0  0
   -0.6637   10.5754   -7.6065 H   0  0  0  0  0  0  0  0  0  0  0  0
    1.4809   14.2752   -6.0543 H   0  0  0  0  0  0  0  0  0  0  0  0
    0.2393   15.4453   -6.6162 H   0  0  0  0  0  0  0  0  0  0  0  0
    0.1804   14.8105   -4.9369 H   0  0  0  0  0  0  0  0  0  0  0  0
   -5.1384   15.8875  -14.4370 H   0  0  0  0  0  0  0  0  0  0  0  0
   -3.3221   16.5493  -12.8978 H   0  0  0  0  0  0  0  0  0  0  0  0
   -5.0546   14.1072  -10.2933 H   0  0  0  0  0  0  0  0  0  0  0  0
   -3.8997   13.0003  -11.1106 H   0  0  0  0  0  0  0  0  0  0  0  0
   -2.6419   14.6376   -9.9343 H   0  0  0  0  0  0  0  0  0  0  0  0
  1  2  2  0  0  0  0
  1  4  1  0  0  0  0
  1 11  1  0  0  0  0
  2  6  1  0  0  0  0
  3  4  2  0  0  0  0
  3  5  1  0  0  0  0
  5  6  1  0  0  0  0
  5  9  2  0  0  0  0
  6  7  2  0  0  0  0
  7  8  1  0  0  0  0
  7 10  1  0  0  0  0
  8  9  1  0  0  0  0
 10 12  2  0  0  0  0
 11 24  2  0  0  0  0
 11 28  1  0  0  0  0
 12 13  1  0  0  0  0
 12 17  1  0  0  0  0
 13 14  2  0  0  0  0
 14 15  1  0  0  0  0
 15 16  1  0  0  0  0
 15 18  1  0  0  0  0
 16 17  2  0  0  0  0
 18 19  2  0  0  0  0
 18 22  1  0  0  0  0
 19 20  1  0  0  0  0
 20 21  1  0  0  0  0
 20 23  1  0  0  0  0
 21 22  2  0  0  0  0
 24 25  1  0  0  0  0
 25 26  2  0  0  0  0
 26 27  1  0  0  0  0
 27 28  1  0  0  0  0
 27 29  2  0  0  0  0
  2 30  1  0  0  0  0
  3 31  1  0  0  0  0
  4 32  1  0  0  0  0
  8 33  1  0  0  0  0
 10 34  1  0  0  0  0
 13 35  1  0  0  0  0
 14 36  1  0  0  0  0
 15 37  1  0  0  0  0
 16 38  1  0  0  0  0
 17 39  1  0  0  0  0
 19 40  1  0  0  0  0
 22 41  1  0  0  0  0
 23 42  1  0  0  0  0
 23 43  1  0  0  0  0
 23 44  1  0  0  0  0
 25 45  1  0  0  0  0
 26 46  1  0  0  0  0
 28 47  1  0  0  0  0
 28 48  1  0  0  0  0
 29 49  1  0  0  0  0
M  END
> <Name>
23

> <IC50[uM]>
0.27

$$$$
23
  -OEChem-05192314333D
 Structure written by MMmdl.
 49 53  0     0  0  0  0  0  0999 V2000
   -6.3775   12.3296  -12.0018 C   0  0  0  0  0  0  0  0  0  0  0  0
   -6.5098   11.7629  -10.7403 C   0  0  0  0  0  0  0  0  0  0  0  0
   -7.7247   10.5660  -13.0266 C   0  0  0  0  0  0  0  0  0  0  0  0
   -6.9942   11.7487  -13.1193 C   0  0  0  0  0  0  0  0  0  0  0  0
   -7.8312   10.0057  -11.7538 C   0  0  0  0  0  0  0  0  0  0  0  0
   -7.2443   10.6021  -10.6070 C   0  0  0  0  0  0  0  0  0  0  0  0
   -7.6167    9.7449   -9.5151 C   0  0  0  0  0  0  0  0  0  0  0  0
   -8.2961    8.7374   -9.9786 N   0  0  0  0  0  0  0  0  0  0  0  0
   -8.4404    8.8724  -11.2937 N   0  0  0  0  0  0  0  0  0  0  0  0
   -7.3318    9.8946   -8.0252 C   0  0  0  0  0  0  0  0  0  0  0  0
   -5.5478   13.5112  -12.1572 C   0  0  0  0  0  0  0  0  0  0  0  0
   -5.9707   10.4870   -7.7351 C   0  0  0  0  0  0  0  0  0  0  0  0
   -5.8642   11.7588   -7.1694 C   0  0  0  0  0  0  0  0  0  0  0  0
   -4.6019   12.3141   -6.9186 C   0  0  0  0  0  0  0  0  0  0  0  0
   -3.4503   11.5963   -7.2357 C   0  0  0  0  0  0  0  0  0  0  0  0
   -3.5604   10.3220   -7.8000 C   0  0  0  0  0  0  0  0  0  0  0  0
   -4.8213    9.7719   -8.0443 C   0  0  0  0  0  0  0  0  0  0  0  0
   -2.0996   12.1710   -6.9757 C   0  0  0  0  0  0  0  0  0  0  0  0
   -1.7487   13.4240   -6.4767 C   0  0  0  0  0  0  0  0  0  0  0  0
   -0.4123   13.4674   -6.4260 N   0  0  0  0  0  0  0  0  0  0  0  0
    0.1713   12.3664   -6.8217 N   0  0  0  0  0  0  0  0  0  0  0  0
   -0.8093   11.5624   -7.1930 C   0  0  0  0  0  0  0  0  0  0  0  0
    0.4224   14.5657   -5.9816 C   0  0  0  0  0  0  0  0  0  0  0  0
   -5.6966   14.2423  -13.2612 N   0  0  0  0  0  0  0  0  0  0  0  0
   -4.9506   15.3153  -13.5405 C   0  0  0  0  0  0  0  0  0  0  0  0
   -3.9383   15.6899  -12.6782 C   0  0  0  0  0  0  0  0  0  0  0  0
   -3.7261   14.9536  -11.5366 C   0  0  0  0  0  0  0  0  0  0  0  0
   -4.5508   13.8769  -11.2437 C   0  0  0  0  0  0  0  0  0  0  0  0
   -2.6976   15.2614  -10.7139 N   0  0  0  0  0  0  0  0  0  0  0  0
   -6.0464   12.2223   -9.8797 H   0  0  0  0  0  0  0  0  0  0  0  0
   -8.1826   10.1089  -13.8914 H   0  0  0  0  0  0  0  0  0  0  0  0
   -6.9001   12.2325  -14.0803 H   0  0  0  0  0  0  0  0  0  0  0  0
   -8.9338    8.2246  -11.8742 H   0  0  0  0  0  0  0  0  0  0  0  0
   -8.0313    9.6067   -7.2544 H   0  0  0  0  0  0  0  0  0  0  0  0
   -6.7563   12.3160   -6.9245 H   0  0  0  0  0  0  0  0  0  0  0  0
   -4.5218   13.2977   -6.4798 H   0  0  0  0  0  0  0  0  0  0  0  0
   -3.4477   12.0425   -8.2411 H   0  0  0  0  0  0  0  0  0  0  0  0
   -2.6703    9.7625   -8.0472 H   0  0  0  0  0  0  0  0  0  0  0  0
   -4.9024    8.7852   -8.4759 H   0  0  0  0  0  0  0  0  0  0  0  0
   -2.4277   14.2118   -6.1857 H   0  0  0  0  0  0  0  0  0  0  0  0
   -0.6637   10.5754   -7.6065 H   0  0  0  0  0  0  0  0  0  0  0  0
    1.4809   14.2752   -6.0543 H   0  0  0  0  0  0  0  0  0  0  0  0
    0.2393   15.4453   -6.6162 H   0  0  0  0  0  0  0  0  0  0  0  0
    0.1804   14.8105   -4.9369 H   0  0  0  0  0  0  0  0  0  0  0  0
   -5.1384   15.8875  -14.4370 H   0  0  0  0  0  0  0  0  0  0  0  0
   -3.3221   16.5493  -12.8978 H   0  0  0  0  0  0  0  0  0  0  0  0
   -5.0546   14.1072  -10.2933 H   0  0  0  0  0  0  0  0  0  0  0  0
   -3.8997   13.0003  -11.1106 H   0  0  0  0  0  0  0  0  0  0  0  0
   -2.6419   14.6376   -9.9343 H   0  0  0  0  0  0  0  0  0  0  0  0
  1  2  2  0  0  0  0
  1  4  1  0  0  0  0
  1 11  1  0  0  0  0
  2  6  1  0  0  0  0
  3  4  2  0  0  0  0
  3  5  1  0  0  0  0
  5  6  2  0  0  0  0
  5  9  1  0  0  0  0
  6  7  1  0  0  0  0
  7  8  2  0  0  0  0
  7 10  1  0  0  0  0
  8  9  1  0  0  0  0
 10 12  2  0  0  0  0
 11 24  2  0  0  0  0
 11 28  1  0  0  0  0
 12 13  1  0  0  0  0
 12 17  1  0  0  0  0
 13 14  2  0  0  0  0
 14 15  1  0  0  0  0
 15 16  1  0  0  0  0
 15 18  1  0  0  0  0
 16 17  2  0  0  0  0
 18 19  2  0  0  0  0
 18 22  1  0  0  0  0
 19 20  1  0  0  0  0
 20 21  1  0  0  0  0
 20 23  1  0  0  0  0
 21 22  2  0  0  0  0
 24 25  1  0  0  0  0
 25 26  2  0  0  0  0
 26 27  1  0  0  0  0
 27 28  1  0  0  0  0
 27 29  2  0  0  0  0
  2 30  1  0  0  0  0
  3 31  1  0  0  0  0
  4 32  1  0  0  0  0
  9 33  1  0  0  0  0
 10 34  1  0  0  0  0
 13 35  1  0  0  0  0
 14 36  1  0  0  0  0
 15 37  1  0  0  0  0
 16 38  1  0  0  0  0
 17 39  1  0  0  0  0
 19 40  1  0  0  0  0
 22 41  1  0  0  0  0
 23 42  1  0  0  0  0
 23 43  1  0  0  0  0
 23 44  1  0  0  0  0
 25 45  1  0  0  0  0
 26 46  1  0  0  0  0
 28 47  1  0  0  0  0
 28 48  1  0  0  0  0
 29 49  1  0  0  0  0
M  END
> <Name>
23

> <IC50[uM]>
0.27

$$$$
23
  -OEChem-05192314333D
 Structure written by MMmdl.
 49 53  0     0  0  0  0  0  0999 V2000
   -6.3775   12.3296  -12.0018 C   0  0  0  0  0  0  0  0  0  0  0  0
   -6.5098   11.7629  -10.7403 C   0  0  0  0  0  0  0  0  0  0  0  0
   -7.7247   10.5660  -13.0266 C   0  0  0  0  0  0  0  0  0  0  0  0
   -6.9942   11.7487  -13.1193 C   0  0  0  0  0  0  0  0  0  0  0  0
   -7.8312   10.0057  -11.7538 C   0  0  0  0  0  0  0  0  0  0  0  0
   -7.2443   10.6021  -10.6070 C   0  0  0  0  0  0  0  0  0  0  0  0
   -7.6167    9.7449   -9.5151 C   0  0  0  0  0  0  0  0  0  0  0  0
   -8.2961    8.7374   -9.9786 N   0  0  0  0  0  0  0  0  0  0  0  0
   -8.4404    8.8724  -11.2937 N   0  0  0  0  0  0  0  0  0  0  0  0
   -7.3318    9.8946   -8.0252 C   0  0  0  0  0  0  0  0  0  0  0  0
   -5.5478   13.5112  -12.1572 C   0  0  0  0  0  0  0  0  0  0  0  0
   -5.9707   10.4870   -7.7351 C   0  0  0  0  0  0  0  0  0  0  0  0
   -5.8642   11.7588   -7.1694 C   0  0  0  0  0  0  0  0  0  0  0  0
   -4.6019   12.3141   -6.9186 C   0  0  0  0  0  0  0  0  0  0  0  0
   -3.4503   11.5963   -7.2357 C   0  0  0  0  0  0  0  0  0  0  0  0
   -3.5604   10.3220   -7.8000 C   0  0  0  0  0  0  0  0  0  0  0  0
   -4.8213    9.7719   -8.0443 C   0  0  0  0  0  0  0  0  0  0  0  0
   -2.0996   12.1710   -6.9757 C   0  0  0  0  0  0  0  0  0  0  0  0
   -1.7487   13.4240   -6.4767 C   0  0  0  0  0  0  0  0  0  0  0  0
   -0.4123   13.4674   -6.4260 N   0  0  0  0  0  0  0  0  0  0  0  0
    0.1713   12.3664   -6.8217 N   0  0  0  0  0  0  0  0  0  0  0  0
   -0.8093   11.5624   -7.1930 C   0  0  0  0  0  0  0  0  0  0  0  0
    0.4224   14.5657   -5.9816 C   0  0  0  0  0  0  0  0  0  0  0  0
   -5.6966   14.2423  -13.2612 N   0  0  0  0  0  0  0  0  0  0  0  0
   -4.9506   15.3153  -13.5405 C   0  0  0  0  0  0  0  0  0  0  0  0
   -3.9383   15.6899  -12.6782 C   0  0  0  0  0  0  0  0  0  0  0  0
   -3.7261   14.9536  -11.5366 C   0  0  0  0  0  0  0  0  0  0  0  0
   -4.5508   13.8769  -11.2437 C   0  0  0  0  0  0  0  0  0  0  0  0
   -2.6976   15.2614  -10.7139 N   0  0  0  0  0  0  0  0  0  0  0  0
   -6.0464   12.2223   -9.8797 H   0  0  0  0  0  0  0  0  0  0  0  0
   -8.1826   10.1089  -13.8914 H   0  0  0  0  0  0  0  0  0  0  0  0
   -6.9001   12.2325  -14.0803 H   0  0  0  0  0  0  0  0  0  0  0  0
   -8.6538    7.9802   -9.4320 H   0  0  0  0  0  0  0  0  0  0  0  0
   -8.0313    9.6067   -7.2544 H   0  0  0  0  0  0  0  0  0  0  0  0
   -6.7563   12.3160   -6.9245 H   0  0  0  0  0  0  0  0  0  0  0  0
   -4.5218   13.2977   -6.4798 H   0  0  0  0  0  0  0  0  0  0  0  0
   -2.6703    9.7625   -8.0472 H   0  0  0  0  0  0  0  0  0  0  0  0
   -4.8715    8.8319   -7.4752 H   0  0  0  0  0  0  0  0  0  0  0  0
   -4.8665    9.5515   -9.1210 H   0  0  0  0  0  0  0  0  0  0  0  0
   -2.4277   14.2118   -6.1857 H   0  0  0  0  0  0  0  0  0  0  0  0
   -0.6637   10.5754   -7.6065 H   0  0  0  0  0  0  0  0  0  0  0  0
    1.4809   14.2752   -6.0543 H   0  0  0  0  0  0  0  0  0  0  0  0
    0.2393   15.4453   -6.6162 H   0  0  0  0  0  0  0  0  0  0  0  0
    0.1804   14.8105   -4.9369 H   0  0  0  0  0  0  0  0  0  0  0  0
   -5.1384   15.8875  -14.4370 H   0  0  0  0  0  0  0  0  0  0  0  0
   -3.3221   16.5493  -12.8978 H   0  0  0  0  0  0  0  0  0  0  0  0
   -5.0546   14.1072  -10.2933 H   0  0  0  0  0  0  0  0  0  0  0  0
   -3.8997   13.0003  -11.1106 H   0  0  0  0  0  0  0  0  0  0  0  0
   -2.6419   14.6376   -9.9343 H   0  0  0  0  0  0  0  0  0  0  0  0
  1  2  2  0  0  0  0
  1  4  1  0  0  0  0
  1 11  1  0  0  0  0
  2  6  1  0  0  0  0
  3  4  2  0  0  0  0
  3  5  1  0  0  0  0
  5  6  1  0  0  0  0
  5  9  2  0  0  0  0
  6  7  2  0  0  0  0
  7  8  1  0  0  0  0
  7 10  1  0  0  0  0
  8  9  1  0  0  0  0
 10 12  2  3  0  0  0
 11 24  2  0  0  0  0
 11 28  1  0  0  0  0
 12 13  1  0  0  0  0
 12 17  1  0  0  0  0
 13 14  2  0  0  0  0
 14 15  1  0  0  0  0
 15 16  2  0  0  0  0
 15 18  1  0  0  0  0
 16 17  1  0  0  0  0
 18 19  2  0  0  0  0
 18 22  1  0  0  0  0
 19 20  1  0  0  0  0
 20 21  1  0  0  0  0
 20 23  1  0  0  0  0
 21 22  2  0  0  0  0
 24 25  1  0  0  0  0
 25 26  2  0  0  0  0
 26 27  1  0  0  0  0
 27 28  1  0  0  0  0
 27 29  2  0  0  0  0
  2 30  1  0  0  0  0
  3 31  1  0  0  0  0
  4 32  1  0  0  0  0
  8 33  1  0  0  0  0
 10 34  1  0  0  0  0
 13 35  1  0  0  0  0
 14 36  1  0  0  0  0
 16 37  1  0  0  0  0
 17 38  1  0  0  0  0
 17 39  1  0  0  0  0
 19 40  1  0  0  0  0
 22 41  1  0  0  0  0
 23 42  1  0  0  0  0
 23 43  1  0  0  0  0
 23 44  1  0  0  0  0
 25 45  1  0  0  0  0
 26 46  1  0  0  0  0
 28 47  1  0  0  0  0
 28 48  1  0  0  0  0
 29 49  1  0  0  0  0
M  END
> <Name>
23

> <IC50[uM]>
0.27

$$$$
23
  -OEChem-05192314333D
 Structure written by MMmdl.
 49 53  0     0  0  0  0  0  0999 V2000
   -6.3775   12.3296  -12.0018 C   0  0  0  0  0  0  0  0  0  0  0  0
   -6.5098   11.7629  -10.7403 C   0  0  0  0  0  0  0  0  0  0  0  0
   -7.7247   10.5660  -13.0266 C   0  0  0  0  0  0  0  0  0  0  0  0
   -6.9942   11.7487  -13.1193 C   0  0  0  0  0  0  0  0  0  0  0  0
   -7.8312   10.0057  -11.7538 C   0  0  0  0  0  0  0  0  0  0  0  0
   -7.2443   10.6021  -10.6070 C   0  0  0  0  0  0  0  0  0  0  0  0
   -7.6167    9.7449   -9.5151 C   0  0  0  0  0  0  0  0  0  0  0  0
   -8.2961    8.7374   -9.9786 N   0  0  0  0  0  0  0  0  0  0  0  0
   -8.4404    8.8724  -11.2937 N   0  0  0  0  0  0  0  0  0  0  0  0
   -7.3318    9.8946   -8.0252 C   0  0  0  0  0  0  0  0  0  0  0  0
   -5.5478   13.5112  -12.1572 C   0  0  0  0  0  0  0  0  0  0  0  0
   -5.9707   10.4870   -7.7351 C   0  0  0  0  0  0  0  0  0  0  0  0
   -5.8642   11.7588   -7.1694 C   0  0  0  0  0  0  0  0  0  0  0  0
   -4.6019   12.3141   -6.9186 C   0  0  0  0  0  0  0  0  0  0  0  0
   -3.4503   11.5963   -7.2357 C   0  0  0  0  0  0  0  0  0  0  0  0
   -3.5604   10.3220   -7.8000 C   0  0  0  0  0  0  0  0  0  0  0  0
   -4.8213    9.7719   -8.0443 C   0  0  0  0  0  0  0  0  0  0  0  0
   -2.0996   12.1710   -6.9757 C   0  0  0  0  0  0  0  0  0  0  0  0
   -1.7487   13.4240   -6.4767 C   0  0  0  0  0  0  0  0  0  0  0  0
   -0.4123   13.4674   -6.4260 N   0  0  0  0  0  0  0  0  0  0  0  0
    0.1713   12.3664   -6.8217 N   0  0  0  0  0  0  0  0  0  0  0  0
   -0.8093   11.5624   -7.1930 C   0  0  0  0  0  0  0  0  0  0  0  0
    0.4224   14.5657   -5.9816 C   0  0  0  0  0  0  0  0  0  0  0  0
   -5.6966   14.2423  -13.2612 N   0  0  0  0  0  0  0  0  0  0  0  0
   -4.9506   15.3153  -13.5405 C   0  0  0  0  0  0  0  0  0  0  0  0
   -3.9383   15.6899  -12.6782 C   0  0  0  0  0  0  0  0  0  0  0  0
   -3.7261   14.9536  -11.5366 C   0  0  0  0  0  0  0  0  0  0  0  0
   -4.5508   13.8769  -11.2437 C   0  0  0  0  0  0  0  0  0  0  0  0
   -2.6976   15.2614  -10.7139 N   0  0  0  0  0  0  0  0  0  0  0  0
   -6.0464   12.2223   -9.8797 H   0  0  0  0  0  0  0  0  0  0  0  0
   -8.1826   10.1089  -13.8914 H   0  0  0  0  0  0  0  0  0  0  0  0
   -6.9001   12.2325  -14.0803 H   0  0  0  0  0  0  0  0  0  0  0  0
   -8.9338    8.2246  -11.8742 H   0  0  0  0  0  0  0  0  0  0  0  0
   -8.0313    9.6067   -7.2544 H   0  0  0  0  0  0  0  0  0  0  0  0
   -6.7563   12.3160   -6.9245 H   0  0  0  0  0  0  0  0  0  0  0  0
   -4.5218   13.2977   -6.4798 H   0  0  0  0  0  0  0  0  0  0  0  0
   -2.6703    9.7625   -8.0472 H   0  0  0  0  0  0  0  0  0  0  0  0
   -4.8715    8.8319   -7.4752 H   0  0  0  0  0  0  0  0  0  0  0  0
   -4.8665    9.5515   -9.1210 H   0  0  0  0  0  0  0  0  0  0  0  0
   -2.4277   14.2118   -6.1857 H   0  0  0  0  0  0  0  0  0  0  0  0
   -0.6637   10.5754   -7.6065 H   0  0  0  0  0  0  0  0  0  0  0  0
    1.4809   14.2752   -6.0543 H   0  0  0  0  0  0  0  0  0  0  0  0
    0.2393   15.4453   -6.6162 H   0  0  0  0  0  0  0  0  0  0  0  0
    0.1804   14.8105   -4.9369 H   0  0  0  0  0  0  0  0  0  0  0  0
   -5.1384   15.8875  -14.4370 H   0  0  0  0  0  0  0  0  0  0  0  0
   -3.3221   16.5493  -12.8978 H   0  0  0  0  0  0  0  0  0  0  0  0
   -5.0546   14.1072  -10.2933 H   0  0  0  0  0  0  0  0  0  0  0  0
   -3.8997   13.0003  -11.1106 H   0  0  0  0  0  0  0  0  0  0  0  0
   -2.6419   14.6376   -9.9343 H   0  0  0  0  0  0  0  0  0  0  0  0
  1  2  2  0  0  0  0
  1  4  1  0  0  0  0
  1 11  1  0  0  0  0
  2  6  1  0  0  0  0
  3  4  2  0  0  0  0
  3  5  1  0  0  0  0
  5  6  2  0  0  0  0
  5  9  1  0  0  0  0
  6  7  1  0  0  0  0
  7  8  2  0  0  0  0
  7 10  1  0  0  0  0
  8  9  1  0  0  0  0
 10 12  2  3  0  0  0
 11 24  2  0  0  0  0
 11 28  1  0  0  0  0
 12 13  1  0  0  0  0
 12 17  1  0  0  0  0
 13 14  2  0  0  0  0
 14 15  1  0  0  0  0
 15 16  2  0  0  0  0
 15 18  1  0  0  0  0
 16 17  1  0  0  0  0
 18 19  2  0  0  0  0
 18 22  1  0  0  0  0
 19 20  1  0  0  0  0
 20 21  1  0  0  0  0
 20 23  1  0  0  0  0
 21 22  2  0  0  0  0
 24 25  1  0  0  0  0
 25 26  2  0  0  0  0
 26 27  1  0  0  0  0
 27 28  1  0  0  0  0
 27 29  2  0  0  0  0
  2 30  1  0  0  0  0
  3 31  1  0  0  0  0
  4 32  1  0  0  0  0
  9 33  1  0  0  0  0
 10 34  1  0  0  0  0
 13 35  1  0  0  0  0
 14 36  1  0  0  0  0
 16 37  1  0  0  0  0
 17 38  1  0  0  0  0
 17 39  1  0  0  0  0
 19 40  1  0  0  0  0
 22 41  1  0  0  0  0
 23 42  1  0  0  0  0
 23 43  1  0  0  0  0
 23 44  1  0  0  0  0
 25 45  1  0  0  0  0
 26 46  1  0  0  0  0
 28 47  1  0  0  0  0
 28 48  1  0  0  0  0
 29 49  1  0  0  0  0
M  END
> <Name>
23

> <IC50[uM]>
0.27

$$$$
23
  -OEChem-05192314333D
 Structure written by MMmdl.
 49 53  0     1  0  0  0  0  0999 V2000
   -6.3775   12.3296  -12.0018 C   0  0  0  0  0  0  0  0  0  0  0  0
   -6.5098   11.7629  -10.7403 C   0  0  0  0  0  0  0  0  0  0  0  0
   -7.7247   10.5660  -13.0266 C   0  0  0  0  0  0  0  0  0  0  0  0
   -6.9942   11.7487  -13.1193 C   0  0  0  0  0  0  0  0  0  0  0  0
   -7.8312   10.0057  -11.7538 C   0  0  0  0  0  0  0  0  0  0  0  0
   -7.2443   10.6021  -10.6070 C   0  0  0  0  0  0  0  0  0  0  0  0
   -7.6167    9.7449   -9.5151 C   0  0  0  0  0  0  0  0  0  0  0  0
   -8.2961    8.7374   -9.9786 N   0  0  0  0  0  0  0  0  0  0  0  0
   -8.4404    8.8724  -11.2937 N   0  0  0  0  0  0  0  0  0  0  0  0
   -7.3318    9.8946   -8.0252 C   0  0  0  0  0  0  0  0  0  0  0  0
   -5.5478   13.5112  -12.1572 C   0  0  0  0  0  0  0  0  0  0  0  0
   -5.9707   10.4870   -7.7351 C   0  0  0  0  0  0  0  0  0  0  0  0
   -5.8642   11.7588   -7.1694 C   0  0  0  0  0  0  0  0  0  0  0  0
   -4.6019   12.3141   -6.9186 C   0  0  0  0  0  0  0  0  0  0  0  0
   -3.4503   11.5963   -7.2357 C   0  0  0  0  0  0  0  0  0  0  0  0
   -3.5604   10.3220   -7.8000 C   0  0  0  0  0  0  0  0  0  0  0  0
   -4.8213    9.7719   -8.0443 C   0  0  0  0  0  0  0  0  0  0  0  0
   -2.0996   12.1710   -6.9757 C   0  0  3  0  0  0  0  0  0  0  0  0
   -1.7487   13.4240   -6.4767 C   0  0  0  0  0  0  0  0  0  0  0  0
   -0.4123   13.4674   -6.4260 N   0  0  3  0  0  0  0  0  0  0  0  0
    0.1713   12.3664   -6.8217 N   0  0  0  0  0  0  0  0  0  0  0  0
   -0.8093   11.5624   -7.1930 C   0  0  0  0  0  0  0  0  0  0  0  0
    0.4224   14.5657   -5.9816 C   0  0  0  0  0  0  0  0  0  0  0  0
   -5.6966   14.2423  -13.2612 N   0  0  0  0  0  0  0  0  0  0  0  0
   -4.9506   15.3153  -13.5405 C   0  0  0  0  0  0  0  0  0  0  0  0
   -3.9383   15.6899  -12.6782 C   0  0  0  0  0  0  0  0  0  0  0  0
   -3.7261   14.9536  -11.5366 C   0  0  0  0  0  0  0  0  0  0  0  0
   -4.5508   13.8769  -11.2437 C   0  0  0  0  0  0  0  0  0  0  0  0
   -2.6976   15.2614  -10.7139 N   0  0  0  0  0  0  0  0  0  0  0  0
   -6.0464   12.2223   -9.8797 H   0  0  0  0  0  0  0  0  0  0  0  0
   -8.1826   10.1089  -13.8914 H   0  0  0  0  0  0  0  0  0  0  0  0
   -6.9001   12.2325  -14.0803 H   0  0  0  0  0  0  0  0  0  0  0  0
   -8.0313    9.6067   -7.2544 H   0  0  0  0  0  0  0  0  0  0  0  0
   -6.7563   12.3160   -6.9245 H   0  0  0  0  0  0  0  0  0  0  0  0
   -4.5218   13.2977   -6.4798 H   0  0  0  0  0  0  0  0  0  0  0  0
   -2.6703    9.7625   -8.0472 H   0  0  0  0  0  0  0  0  0  0  0  0
   -4.9024    8.7852   -8.4759 H   0  0  0  0  0  0  0  0  0  0  0  0
   -2.1213   11.7665   -5.9530 H   0  0  0  0  0  0  0  0  0  0  0  0
   -2.1269   14.2144   -7.1418 H   0  0  0  0  0  0  0  0  0  0  0  0
   -2.1691   13.5602   -5.4694 H   0  0  0  0  0  0  0  0  0  0  0  0
   -0.6637   10.5754   -7.6065 H   0  0  0  0  0  0  0  0  0  0  0  0
    1.4809   14.2752   -6.0543 H   0  0  0  0  0  0  0  0  0  0  0  0
    0.2393   15.4453   -6.6162 H   0  0  0  0  0  0  0  0  0  0  0  0
    0.1804   14.8105   -4.9369 H   0  0  0  0  0  0  0  0  0  0  0  0
   -5.1384   15.8875  -14.4370 H   0  0  0  0  0  0  0  0  0  0  0  0
   -3.0010   15.6690  -13.2536 H   0  0  0  0  0  0  0  0  0  0  0  0
   -4.1509   16.7215  -12.3610 H   0  0  0  0  0  0  0  0  0  0  0  0
   -4.4255   13.3274  -10.3224 H   0  0  0  0  0  0  0  0  0  0  0  0
   -2.6419   14.6376   -9.9343 H   0  0  0  0  0  0  0  0  0  0  0  0
  1  2  2  0  0  0  0
  1  4  1  0  0  0  0
  1 11  1  0  0  0  0
  2  6  1  0  0  0  0
  3  4  2  0  0  0  0
  3  5  1  0  0  0  0
  5  6  2  0  0  0  0
  5  9  1  0  0  0  0
  6  7  1  0  0  0  0
  7  8  1  0  0  0  0
  7 10  2  3  0  0  0
  8  9  2  0  0  0  0
 10 12  1  0  0  0  0
 11 24  1  0  0  0  0
 11 28  2  0  0  0  0
 12 13  2  0  0  0  0
 12 17  1  0  0  0  0
 13 14  1  0  0  0  0
 14 15  2  0  0  0  0
 15 16  1  0  0  0  0
 15 18  1  0  0  0  0
 16 17  2  0  0  0  0
 18 19  1  0  0  0  0
 18 22  1  0  0  0  0
 19 20  1  0  0  0  0
 20 21  1  0  0  0  0
 20 23  1  0  0  0  0
 21 22  2  0  0  0  0
 24 25  2  0  0  0  0
 25 26  1  0  0  0  0
 26 27  1  0  0  0  0
 27 28  1  0  0  0  0
 27 29  2  0  0  0  0
  2 30  1  0  0  0  0
  3 31  1  0  0  0  0
  4 32  1  0  0  0  0
 10 33  1  0  0  0  0
 13 34  1  0  0  0  0
 14 35  1  0  0  0  0
 16 36  1  0  0  0  0
 17 37  1  0  0  0  0
 18 38  1  0  0  0  0
 19 39  1  0  0  0  0
 19 40  1  0  0  0  0
 22 41  1  0  0  0  0
 23 42  1  0  0  0  0
 23 43  1  0  0  0  0
 23 44  1  0  0  0  0
 25 45  1  0  0  0  0
 26 46  1  0  0  0  0
 26 47  1  0  0  0  0
 28 48  1  0  0  0  0
 29 49  1  0  0  0  0
M  END
> <Name>
23

> <IC50[uM]>
0.27

$$$$
23
  -OEChem-05192314333D
 Structure written by MMmdl.
 49 53  0     1  0  0  0  0  0999 V2000
   -6.3775   12.3296  -12.0018 C   0  0  0  0  0  0  0  0  0  0  0  0
   -6.5098   11.7629  -10.7403 C   0  0  0  0  0  0  0  0  0  0  0  0
   -7.7247   10.5660  -13.0266 C   0  0  0  0  0  0  0  0  0  0  0  0
   -6.9942   11.7487  -13.1193 C   0  0  0  0  0  0  0  0  0  0  0  0
   -7.8312   10.0057  -11.7538 C   0  0  0  0  0  0  0  0  0  0  0  0
   -7.2443   10.6021  -10.6070 C   0  0  0  0  0  0  0  0  0  0  0  0
   -7.6167    9.7449   -9.5151 C   0  0  0  0  0  0  0  0  0  0  0  0
   -8.2961    8.7374   -9.9786 N   0  0  0  0  0  0  0  0  0  0  0  0
   -8.4404    8.8724  -11.2937 N   0  0  0  0  0  0  0  0  0  0  0  0
   -7.3318    9.8946   -8.0252 C   0  0  0  0  0  0  0  0  0  0  0  0
   -5.5478   13.5112  -12.1572 C   0  0  0  0  0  0  0  0  0  0  0  0
   -5.9707   10.4870   -7.7351 C   0  0  0  0  0  0  0  0  0  0  0  0
   -5.8642   11.7588   -7.1694 C   0  0  0  0  0  0  0  0  0  0  0  0
   -4.6019   12.3141   -6.9186 C   0  0  0  0  0  0  0  0  0  0  0  0
   -3.4503   11.5963   -7.2357 C   0  0  0  0  0  0  0  0  0  0  0  0
   -3.5604   10.3220   -7.8000 C   0  0  0  0  0  0  0  0  0  0  0  0
   -4.8213    9.7719   -8.0443 C   0  0  0  0  0  0  0  0  0  0  0  0
   -2.0996   12.1710   -6.9757 C   0  0  3  0  0  0  0  0  0  0  0  0
   -1.7487   13.4240   -6.4767 C   0  0  0  0  0  0  0  0  0  0  0  0
   -0.4123   13.4674   -6.4260 N   0  0  3  0  0  0  0  0  0  0  0  0
    0.1713   12.3664   -6.8217 N   0  0  0  0  0  0  0  0  0  0  0  0
   -0.8093   11.5624   -7.1930 C   0  0  0  0  0  0  0  0  0  0  0  0
    0.4224   14.5657   -5.9816 C   0  0  0  0  0  0  0  0  0  0  0  0
   -5.6966   14.2423  -13.2612 N   0  0  0  0  0  0  0  0  0  0  0  0
   -4.9506   15.3153  -13.5405 C   0  0  0  0  0  0  0  0  0  0  0  0
   -3.9383   15.6899  -12.6782 C   0  0  0  0  0  0  0  0  0  0  0  0
   -3.7261   14.9536  -11.5366 C   0  0  0  0  0  0  0  0  0  0  0  0
   -4.5508   13.8769  -11.2437 C   0  0  0  0  0  0  0  0  0  0  0  0
   -2.6976   15.2614  -10.7139 N   0  0  0  0  0  0  0  0  0  0  0  0
   -6.0464   12.2223   -9.8797 H   0  0  0  0  0  0  0  0  0  0  0  0
   -8.1826   10.1089  -13.8914 H   0  0  0  0  0  0  0  0  0  0  0  0
   -6.9001   12.2325  -14.0803 H   0  0  0  0  0  0  0  0  0  0  0  0
   -8.0313    9.6067   -7.2544 H   0  0  0  0  0  0  0  0  0  0  0  0
   -6.7563   12.3160   -6.9245 H   0  0  0  0  0  0  0  0  0  0  0  0
   -4.5218   13.2977   -6.4798 H   0  0  0  0  0  0  0  0  0  0  0  0
   -2.6703    9.7625   -8.0472 H   0  0  0  0  0  0  0  0  0  0  0  0
   -4.9024    8.7852   -8.4759 H   0  0  0  0  0  0  0  0  0  0  0  0
   -2.1213   11.7665   -5.9530 H   0  0  0  0  0  0  0  0  0  0  0  0
   -2.1269   14.2144   -7.1418 H   0  0  0  0  0  0  0  0  0  0  0  0
   -2.1691   13.5602   -5.4694 H   0  0  0  0  0  0  0  0  0  0  0  0
   -0.6637   10.5754   -7.6065 H   0  0  0  0  0  0  0  0  0  0  0  0
    1.4809   14.2752   -6.0543 H   0  0  0  0  0  0  0  0  0  0  0  0
    0.2393   15.4453   -6.6162 H   0  0  0  0  0  0  0  0  0  0  0  0
    0.1804   14.8105   -4.9369 H   0  0  0  0  0  0  0  0  0  0  0  0
   -5.1384   15.8875  -14.4370 H   0  0  0  0  0  0  0  0  0  0  0  0
   -3.3221   16.5493  -12.8978 H   0  0  0  0  0  0  0  0  0  0  0  0
   -5.0546   14.1072  -10.2933 H   0  0  0  0  0  0  0  0  0  0  0  0
   -3.8997   13.0003  -11.1106 H   0  0  0  0  0  0  0  0  0  0  0  0
   -2.6419   14.6376   -9.9343 H   0  0  0  0  0  0  0  0  0  0  0  0
  1  2  2  0  0  0  0
  1  4  1  0  0  0  0
  1 11  1  0  0  0  0
  2  6  1  0  0  0  0
  3  4  2  0  0  0  0
  3  5  1  0  0  0  0
  5  6  2  0  0  0  0
  5  9  1  0  0  0  0
  6  7  1  0  0  0  0
  7  8  1  0  0  0  0
  7 10  2  3  0  0  0
  8  9  2  0  0  0  0
 10 12  1  0  0  0  0
 11 24  2  0  0  0  0
 11 28  1  0  0  0  0
 12 13  2  0  0  0  0
 12 17  1  0  0  0  0
 13 14  1  0  0  0  0
 14 15  2  0  0  0  0
 15 16  1  0  0  0  0
 15 18  1  0  0  0  0
 16 17  2  0  0  0  0
 18 19  1  0  0  0  0
 18 22  1  0  0  0  0
 19 20  1  0  0  0  0
 20 21  1  0  0  0  0
 20 23  1  0  0  0  0
 21 22  2  0  0  0  0
 24 25  1  0  0  0  0
 25 26  2  0  0  0  0
 26 27  1  0  0  0  0
 27 28  1  0  0  0  0
 27 29  2  0  0  0  0
  2 30  1  0  0  0  0
  3 31  1  0  0  0  0
  4 32  1  0  0  0  0
 10 33  1  0  0  0  0
 13 34  1  0  0  0  0
 14 35  1  0  0  0  0
 16 36  1  0  0  0  0
 17 37  1  0  0  0  0
 18 38  1  0  0  0  0
 19 39  1  0  0  0  0
 19 40  1  0  0  0  0
 22 41  1  0  0  0  0
 23 42  1  0  0  0  0
 23 43  1  0  0  0  0
 23 44  1  0  0  0  0
 25 45  1  0  0  0  0
 26 46  1  0  0  0  0
 28 47  1  0  0  0  0
 28 48  1  0  0  0  0
 29 49  1  0  0  0  0
M  END
> <Name>
23

> <IC50[uM]>
0.27

$$$$
23
  -OEChem-05192314333D
 Structure written by MMmdl.
 49 53  0     1  0  0  0  0  0999 V2000
   -6.3775   12.3296  -12.0018 C   0  0  0  0  0  0  0  0  0  0  0  0
   -6.5098   11.7629  -10.7403 C   0  0  0  0  0  0  0  0  0  0  0  0
   -7.7247   10.5660  -13.0266 C   0  0  0  0  0  0  0  0  0  0  0  0
   -6.9942   11.7487  -13.1193 C   0  0  0  0  0  0  0  0  0  0  0  0
   -7.8312   10.0057  -11.7538 C   0  0  0  0  0  0  0  0  0  0  0  0
   -7.2443   10.6021  -10.6070 C   0  0  0  0  0  0  0  0  0  0  0  0
   -7.6167    9.7449   -9.5151 C   0  0  0  0  0  0  0  0  0  0  0  0
   -8.2961    8.7374   -9.9786 N   0  0  0  0  0  0  0  0  0  0  0  0
   -8.4404    8.8724  -11.2937 N   0  0  0  0  0  0  0  0  0  0  0  0
   -7.3318    9.8946   -8.0252 C   0  0  0  0  0  0  0  0  0  0  0  0
   -5.5478   13.5112  -12.1572 C   0  0  0  0  0  0  0  0  0  0  0  0
   -5.9707   10.4870   -7.7351 C   0  0  0  0  0  0  0  0  0  0  0  0
   -5.8642   11.7588   -7.1694 C   0  0  0  0  0  0  0  0  0  0  0  0
   -4.6019   12.3141   -6.9186 C   0  0  0  0  0  0  0  0  0  0  0  0
   -3.4503   11.5963   -7.2357 C   0  0  0  0  0  0  0  0  0  0  0  0
   -3.5604   10.3220   -7.8000 C   0  0  0  0  0  0  0  0  0  0  0  0
   -4.8213    9.7719   -8.0443 C   0  0  0  0  0  0  0  0  0  0  0  0
   -2.0996   12.1710   -6.9757 C   0  0  0  0  0  0  0  0  0  0  0  0
   -1.7487   13.4240   -6.4767 C   0  0  0  0  0  0  0  0  0  0  0  0
   -0.4123   13.4674   -6.4260 N   0  0  3  0  0  0  0  0  0  0  0  0
    0.1713   12.3664   -6.8217 N   0  0  0  0  0  0  0  0  0  0  0  0
   -0.8093   11.5624   -7.1930 C   0  0  0  0  0  0  0  0  0  0  0  0
    0.4224   14.5657   -5.9816 C   0  0  0  0  0  0  0  0  0  0  0  0
   -5.6966   14.2423  -13.2612 N   0  0  0  0  0  0  0  0  0  0  0  0
   -4.9506   15.3153  -13.5405 C   0  0  0  0  0  0  0  0  0  0  0  0
   -3.9383   15.6899  -12.6782 C   0  0  0  0  0  0  0  0  0  0  0  0
   -3.7261   14.9536  -11.5366 C   0  0  0  0  0  0  0  0  0  0  0  0
   -4.5508   13.8769  -11.2437 C   0  0  0  0  0  0  0  0  0  0  0  0
   -2.6976   15.2614  -10.7139 N   0  0  0  0  0  0  0  0  0  0  0  0
   -6.0464   12.2223   -9.8797 H   0  0  0  0  0  0  0  0  0  0  0  0
   -8.1826   10.1089  -13.8914 H   0  0  0  0  0  0  0  0  0  0  0  0
   -6.9001   12.2325  -14.0803 H   0  0  0  0  0  0  0  0  0  0  0  0
   -8.0313    9.6067   -7.2544 H   0  0  0  0  0  0  0  0  0  0  0  0
   -6.7563   12.3160   -6.9245 H   0  0  0  0  0  0  0  0  0  0  0  0
   -4.5218   13.2977   -6.4798 H   0  0  0  0  0  0  0  0  0  0  0  0
   -2.6703    9.7625   -8.0472 H   0  0  0  0  0  0  0  0  0  0  0  0
   -4.9024    8.7852   -8.4759 H   0  0  0  0  0  0  0  0  0  0  0  0
   -2.4277   14.2118   -6.1857 H   0  0  0  0  0  0  0  0  0  0  0  0
    0.7822   12.5516   -7.5915 H   0  0  0  0  0  0  0  0  0  0  0  0
   -0.7496   10.6318   -6.6095 H   0  0  0  0  0  0  0  0  0  0  0  0
   -0.6977   11.3321   -8.2628 H   0  0  0  0  0  0  0  0  0  0  0  0
    1.4812   14.2793   -6.0650 H   0  0  0  0  0  0  0  0  0  0  0  0
    0.2310   15.4487   -6.6090 H   0  0  0  0  0  0  0  0  0  0  0  0
    0.1884   14.8031   -4.9333 H   0  0  0  0  0  0  0  0  0  0  0  0
   -5.1384   15.8875  -14.4370 H   0  0  0  0  0  0  0  0  0  0  0  0
   -3.0010   15.6690  -13.2536 H   0  0  0  0  0  0  0  0  0  0  0  0
   -4.1509   16.7215  -12.3610 H   0  0  0  0  0  0  0  0  0  0  0  0
   -4.4255   13.3274  -10.3224 H   0  0  0  0  0  0  0  0  0  0  0  0
   -2.6419   14.6376   -9.9343 H   0  0  0  0  0  0  0  0  0  0  0  0
  1  2  2  0  0  0  0
  1  4  1  0  0  0  0
  1 11  1  0  0  0  0
  2  6  1  0  0  0  0
  3  4  2  0  0  0  0
  3  5  1  0  0  0  0
  5  6  2  0  0  0  0
  5  9  1  0  0  0  0
  6  7  1  0  0  0  0
  7  8  1  0  0  0  0
  7 10  2  3  0  0  0
  8  9  2  0  0  0  0
 10 12  1  0  0  0  0
 11 24  1  0  0  0  0
 11 28  2  0  0  0  0
 12 13  2  0  0  0  0
 12 17  1  0  0  0  0
 13 14  1  0  0  0  0
 14 15  2  0  0  0  0
 15 16  1  0  0  0  0
 15 18  1  0  0  0  0
 16 17  2  0  0  0  0
 18 19  2  0  0  0  0
 18 22  1  0  0  0  0
 19 20  1  0  0  0  0
 20 21  1  0  0  0  0
 20 23  1  0  0  0  0
 21 22  1  0  0  0  0
 24 25  2  0  0  0  0
 25 26  1  0  0  0  0
 26 27  1  0  0  0  0
 27 28  1  0  0  0  0
 27 29  2  0  0  0  0
  2 30  1  0  0  0  0
  3 31  1  0  0  0  0
  4 32  1  0  0  0  0
 10 33  1  0  0  0  0
 13 34  1  0  0  0  0
 14 35  1  0  0  0  0
 16 36  1  0  0  0  0
 17 37  1  0  0  0  0
 19 38  1  0  0  0  0
 21 39  1  0  0  0  0
 22 40  1  0  0  0  0
 22 41  1  0  0  0  0
 23 42  1  0  0  0  0
 23 43  1  0  0  0  0
 23 44  1  0  0  0  0
 25 45  1  0  0  0  0
 26 46  1  0  0  0  0
 26 47  1  0  0  0  0
 28 48  1  0  0  0  0
 29 49  1  0  0  0  0
M  END
> <Name>
23

> <IC50[uM]>
0.27

$$$$
23
  -OEChem-05192314333D
 Structure written by MMmdl.
 49 53  0     1  0  0  0  0  0999 V2000
   -6.3775   12.3296  -12.0018 C   0  0  0  0  0  0  0  0  0  0  0  0
   -6.5098   11.7629  -10.7403 C   0  0  0  0  0  0  0  0  0  0  0  0
   -7.7247   10.5660  -13.0266 C   0  0  0  0  0  0  0  0  0  0  0  0
   -6.9942   11.7487  -13.1193 C   0  0  0  0  0  0  0  0  0  0  0  0
   -7.8312   10.0057  -11.7538 C   0  0  0  0  0  0  0  0  0  0  0  0
   -7.2443   10.6021  -10.6070 C   0  0  0  0  0  0  0  0  0  0  0  0
   -7.6167    9.7449   -9.5151 C   0  0  0  0  0  0  0  0  0  0  0  0
   -8.2961    8.7374   -9.9786 N   0  0  0  0  0  0  0  0  0  0  0  0
   -8.4404    8.8724  -11.2937 N   0  0  0  0  0  0  0  0  0  0  0  0
   -7.3318    9.8946   -8.0252 C   0  0  0  0  0  0  0  0  0  0  0  0
   -5.5478   13.5112  -12.1572 C   0  0  0  0  0  0  0  0  0  0  0  0
   -5.9707   10.4870   -7.7351 C   0  0  0  0  0  0  0  0  0  0  0  0
   -5.8642   11.7588   -7.1694 C   0  0  0  0  0  0  0  0  0  0  0  0
   -4.6019   12.3141   -6.9186 C   0  0  0  0  0  0  0  0  0  0  0  0
   -3.4503   11.5963   -7.2357 C   0  0  0  0  0  0  0  0  0  0  0  0
   -3.5604   10.3220   -7.8000 C   0  0  0  0  0  0  0  0  0  0  0  0
   -4.8213    9.7719   -8.0443 C   0  0  0  0  0  0  0  0  0  0  0  0
   -2.0996   12.1710   -6.9757 C   0  0  0  0  0  0  0  0  0  0  0  0
   -1.7487   13.4240   -6.4767 C   0  0  0  0  0  0  0  0  0  0  0  0
   -0.4123   13.4674   -6.4260 N   0  0  3  0  0  0  0  0  0  0  0  0
    0.1713   12.3664   -6.8217 N   0  0  0  0  0  0  0  0  0  0  0  0
   -0.8093   11.5624   -7.1930 C   0  0  0  0  0  0  0  0  0  0  0  0
    0.4224   14.5657   -5.9816 C   0  0  0  0  0  0  0  0  0  0  0  0
   -5.6966   14.2423  -13.2612 N   0  0  0  0  0  0  0  0  0  0  0  0
   -4.9506   15.3153  -13.5405 C   0  0  0  0  0  0  0  0  0  0  0  0
   -3.9383   15.6899  -12.6782 C   0  0  0  0  0  0  0  0  0  0  0  0
   -3.7261   14.9536  -11.5366 C   0  0  0  0  0  0  0  0  0  0  0  0
   -4.5508   13.8769  -11.2437 C   0  0  0  0  0  0  0  0  0  0  0  0
   -2.6976   15.2614  -10.7139 N   0  0  0  0  0  0  0  0  0  0  0  0
   -6.0464   12.2223   -9.8797 H   0  0  0  0  0  0  0  0  0  0  0  0
   -8.1826   10.1089  -13.8914 H   0  0  0  0  0  0  0  0  0  0  0  0
   -6.9001   12.2325  -14.0803 H   0  0  0  0  0  0  0  0  0  0  0  0
   -8.0313    9.6067   -7.2544 H   0  0  0  0  0  0  0  0  0  0  0  0
   -6.7563   12.3160   -6.9245 H   0  0  0  0  0  0  0  0  0  0  0  0
   -4.5218   13.2977   -6.4798 H   0  0  0  0  0  0  0  0  0  0  0  0
   -2.6703    9.7625   -8.0472 H   0  0  0  0  0  0  0  0  0  0  0  0
   -4.9024    8.7852   -8.4759 H   0  0  0  0  0  0  0  0  0  0  0  0
   -2.4277   14.2118   -6.1857 H   0  0  0  0  0  0  0  0  0  0  0  0
    0.7822   12.5516   -7.5915 H   0  0  0  0  0  0  0  0  0  0  0  0
   -0.7496   10.6318   -6.6095 H   0  0  0  0  0  0  0  0  0  0  0  0
   -0.6977   11.3321   -8.2628 H   0  0  0  0  0  0  0  0  0  0  0  0
    1.4812   14.2793   -6.0650 H   0  0  0  0  0  0  0  0  0  0  0  0
    0.2310   15.4487   -6.6090 H   0  0  0  0  0  0  0  0  0  0  0  0
    0.1884   14.8031   -4.9333 H   0  0  0  0  0  0  0  0  0  0  0  0
   -5.1384   15.8875  -14.4370 H   0  0  0  0  0  0  0  0  0  0  0  0
   -3.3221   16.5493  -12.8978 H   0  0  0  0  0  0  0  0  0  0  0  0
   -5.0546   14.1072  -10.2933 H   0  0  0  0  0  0  0  0  0  0  0  0
   -3.8997   13.0003  -11.1106 H   0  0  0  0  0  0  0  0  0  0  0  0
   -2.6419   14.6376   -9.9343 H   0  0  0  0  0  0  0  0  0  0  0  0
  1  2  2  0  0  0  0
  1  4  1  0  0  0  0
  1 11  1  0  0  0  0
  2  6  1  0  0  0  0
  3  4  2  0  0  0  0
  3  5  1  0  0  0  0
  5  6  2  0  0  0  0
  5  9  1  0  0  0  0
  6  7  1  0  0  0  0
  7  8  1  0  0  0  0
  7 10  2  3  0  0  0
  8  9  2  0  0  0  0
 10 12  1  0  0  0  0
 11 24  2  0  0  0  0
 11 28  1  0  0  0  0
 12 13  2  0  0  0  0
 12 17  1  0  0  0  0
 13 14  1  0  0  0  0
 14 15  2  0  0  0  0
 15 16  1  0  0  0  0
 15 18  1  0  0  0  0
 16 17  2  0  0  0  0
 18 19  2  0  0  0  0
 18 22  1  0  0  0  0
 19 20  1  0  0  0  0
 20 21  1  0  0  0  0
 20 23  1  0  0  0  0
 21 22  1  0  0  0  0
 24 25  1  0  0  0  0
 25 26  2  0  0  0  0
 26 27  1  0  0  0  0
 27 28  1  0  0  0  0
 27 29  2  0  0  0  0
  2 30  1  0  0  0  0
  3 31  1  0  0  0  0
  4 32  1  0  0  0  0
 10 33  1  0  0  0  0
 13 34  1  0  0  0  0
 14 35  1  0  0  0  0
 16 36  1  0  0  0  0
 17 37  1  0  0  0  0
 19 38  1  0  0  0  0
 21 39  1  0  0  0  0
 22 40  1  0  0  0  0
 22 41  1  0  0  0  0
 23 42  1  0  0  0  0
 23 43  1  0  0  0  0
 23 44  1  0  0  0  0
 25 45  1  0  0  0  0
 26 46  1  0  0  0  0
 28 47  1  0  0  0  0
 28 48  1  0  0  0  0
 29 49  1  0  0  0  0
M  END
> <Name>
23

> <IC50[uM]>
0.27

$$$$
23
  -OEChem-05192314333D
 Structure written by MMmdl.
 49 53  0     1  0  0  0  0  0999 V2000
   -6.3775   12.3296  -12.0018 C   0  0  0  0  0  0  0  0  0  0  0  0
   -6.5098   11.7629  -10.7403 C   0  0  0  0  0  0  0  0  0  0  0  0
   -7.7247   10.5660  -13.0266 C   0  0  0  0  0  0  0  0  0  0  0  0
   -6.9942   11.7487  -13.1193 C   0  0  0  0  0  0  0  0  0  0  0  0
   -7.8312   10.0057  -11.7538 C   0  0  0  0  0  0  0  0  0  0  0  0
   -7.2443   10.6021  -10.6070 C   0  0  0  0  0  0  0  0  0  0  0  0
   -7.6167    9.7449   -9.5151 C   0  0  0  0  0  0  0  0  0  0  0  0
   -8.2961    8.7374   -9.9786 N   0  0  0  0  0  0  0  0  0  0  0  0
   -8.4404    8.8724  -11.2937 N   0  0  0  0  0  0  0  0  0  0  0  0
   -7.3318    9.8946   -8.0252 C   0  0  0  0  0  0  0  0  0  0  0  0
   -5.5478   13.5112  -12.1572 C   0  0  0  0  0  0  0  0  0  0  0  0
   -5.9707   10.4870   -7.7351 C   0  0  0  0  0  0  0  0  0  0  0  0
   -5.8642   11.7588   -7.1694 C   0  0  0  0  0  0  0  0  0  0  0  0
   -4.6019   12.3141   -6.9186 C   0  0  0  0  0  0  0  0  0  0  0  0
   -3.4503   11.5963   -7.2357 C   0  0  0  0  0  0  0  0  0  0  0  0
   -3.5604   10.3220   -7.8000 C   0  0  0  0  0  0  0  0  0  0  0  0
   -4.8213    9.7719   -8.0443 C   0  0  0  0  0  0  0  0  0  0  0  0
   -2.0996   12.1710   -6.9757 C   0  0  0  0  0  0  0  0  0  0  0  0
   -1.7487   13.4240   -6.4767 C   0  0  0  0  0  0  0  0  0  0  0  0
   -0.4123   13.4674   -6.4260 N   0  0  3  0  0  0  0  0  0  0  0  0
    0.1713   12.3664   -6.8217 N   0  0  0  0  0  0  0  0  0  0  0  0
   -0.8093   11.5624   -7.1930 C   0  0  0  0  0  0  0  0  0  0  0  0
    0.4224   14.5657   -5.9816 C   0  0  0  0  0  0  0  0  0  0  0  0
   -5.6966   14.2423  -13.2612 N   0  0  0  0  0  0  0  0  0  0  0  0
   -4.9506   15.3153  -13.5405 C   0  0  0  0  0  0  0  0  0  0  0  0
   -3.9383   15.6899  -12.6782 C   0  0  0  0  0  0  0  0  0  0  0  0
   -3.7261   14.9536  -11.5366 C   0  0  0  0  0  0  0  0  0  0  0  0
   -4.5508   13.8769  -11.2437 C   0  0  0  0  0  0  0  0  0  0  0  0
   -2.6976   15.2614  -10.7139 N   0  0  0  0  0  0  0  0  0  0  0  0
   -6.0464   12.2223   -9.8797 H   0  0  0  0  0  0  0  0  0  0  0  0
   -8.1826   10.1089  -13.8914 H   0  0  0  0  0  0  0  0  0  0  0  0
   -6.9001   12.2325  -14.0803 H   0  0  0  0  0  0  0  0  0  0  0  0
   -8.0313    9.6067   -7.2544 H   0  0  0  0  0  0  0  0  0  0  0  0
   -6.7563   12.3160   -6.9245 H   0  0  0  0  0  0  0  0  0  0  0  0
   -4.5218   13.2977   -6.4798 H   0  0  0  0  0  0  0  0  0  0  0  0
   -2.6703    9.7625   -8.0472 H   0  0  0  0  0  0  0  0  0  0  0  0
   -4.9024    8.7852   -8.4759 H   0  0  0  0  0  0  0  0  0  0  0  0
   -2.1269   14.2144   -7.1418 H   0  0  0  0  0  0  0  0  0  0  0  0
   -2.1691   13.5602   -5.4694 H   0  0  0  0  0  0  0  0  0  0  0  0
    0.7822   12.5516   -7.5915 H   0  0  0  0  0  0  0  0  0  0  0  0
   -0.6637   10.5754   -7.6065 H   0  0  0  0  0  0  0  0  0  0  0  0
    1.4812   14.2793   -6.0650 H   0  0  0  0  0  0  0  0  0  0  0  0
    0.2310   15.4487   -6.6090 H   0  0  0  0  0  0  0  0  0  0  0  0
    0.1884   14.8031   -4.9333 H   0  0  0  0  0  0  0  0  0  0  0  0
   -5.1384   15.8875  -14.4370 H   0  0  0  0  0  0  0  0  0  0  0  0
   -3.0010   15.6690  -13.2536 H   0  0  0  0  0  0  0  0  0  0  0  0
   -4.1509   16.7215  -12.3610 H   0  0  0  0  0  0  0  0  0  0  0  0
   -4.4255   13.3274  -10.3224 H   0  0  0  0  0  0  0  0  0  0  0  0
   -2.6419   14.6376   -9.9343 H   0  0  0  0  0  0  0  0  0  0  0  0
  1  2  2  0  0  0  0
  1  4  1  0  0  0  0
  1 11  1  0  0  0  0
  2  6  1  0  0  0  0
  3  4  2  0  0  0  0
  3  5  1  0  0  0  0
  5  6  2  0  0  0  0
  5  9  1  0  0  0  0
  6  7  1  0  0  0  0
  7  8  1  0  0  0  0
  7 10  2  3  0  0  0
  8  9  2  0  0  0  0
 10 12  1  0  0  0  0
 11 24  1  0  0  0  0
 11 28  2  0  0  0  0
 12 13  2  0  0  0  0
 12 17  1  0  0  0  0
 13 14  1  0  0  0  0
 14 15  2  0  0  0  0
 15 16  1  0  0  0  0
 15 18  1  0  0  0  0
 16 17  2  0  0  0  0
 18 19  1  0  0  0  0
 18 22  2  0  0  0  0
 19 20  1  0  0  0  0
 20 21  1  0  0  0  0
 20 23  1  0  0  0  0
 21 22  1  0  0  0  0
 24 25  2  0  0  0  0
 25 26  1  0  0  0  0
 26 27  1  0  0  0  0
 27 28  1  0  0  0  0
 27 29  2  0  0  0  0
  2 30  1  0  0  0  0
  3 31  1  0  0  0  0
  4 32  1  0  0  0  0
 10 33  1  0  0  0  0
 13 34  1  0  0  0  0
 14 35  1  0  0  0  0
 16 36  1  0  0  0  0
 17 37  1  0  0  0  0
 19 38  1  0  0  0  0
 19 39  1  0  0  0  0
 21 40  1  0  0  0  0
 22 41  1  0  0  0  0
 23 42  1  0  0  0  0
 23 43  1  0  0  0  0
 23 44  1  0  0  0  0
 25 45  1  0  0  0  0
 26 46  1  0  0  0  0
 26 47  1  0  0  0  0
 28 48  1  0  0  0  0
 29 49  1  0  0  0  0
M  END
> <Name>
23

> <IC50[uM]>
0.27

$$$$
23
  -OEChem-05192314333D
 Structure written by MMmdl.
 49 53  0     1  0  0  0  0  0999 V2000
   -6.3775   12.3296  -12.0018 C   0  0  0  0  0  0  0  0  0  0  0  0
   -6.5098   11.7629  -10.7403 C   0  0  0  0  0  0  0  0  0  0  0  0
   -7.7247   10.5660  -13.0266 C   0  0  0  0  0  0  0  0  0  0  0  0
   -6.9942   11.7487  -13.1193 C   0  0  0  0  0  0  0  0  0  0  0  0
   -7.8312   10.0057  -11.7538 C   0  0  0  0  0  0  0  0  0  0  0  0
   -7.2443   10.6021  -10.6070 C   0  0  0  0  0  0  0  0  0  0  0  0
   -7.6167    9.7449   -9.5151 C   0  0  0  0  0  0  0  0  0  0  0  0
   -8.2961    8.7374   -9.9786 N   0  0  0  0  0  0  0  0  0  0  0  0
   -8.4404    8.8724  -11.2937 N   0  0  0  0  0  0  0  0  0  0  0  0
   -7.3318    9.8946   -8.0252 C   0  0  0  0  0  0  0  0  0  0  0  0
   -5.5478   13.5112  -12.1572 C   0  0  0  0  0  0  0  0  0  0  0  0
   -5.9707   10.4870   -7.7351 C   0  0  0  0  0  0  0  0  0  0  0  0
   -5.8642   11.7588   -7.1694 C   0  0  0  0  0  0  0  0  0  0  0  0
   -4.6019   12.3141   -6.9186 C   0  0  0  0  0  0  0  0  0  0  0  0
   -3.4503   11.5963   -7.2357 C   0  0  0  0  0  0  0  0  0  0  0  0
   -3.5604   10.3220   -7.8000 C   0  0  0  0  0  0  0  0  0  0  0  0
   -4.8213    9.7719   -8.0443 C   0  0  0  0  0  0  0  0  0  0  0  0
   -2.0996   12.1710   -6.9757 C   0  0  0  0  0  0  0  0  0  0  0  0
   -1.7487   13.4240   -6.4767 C   0  0  0  0  0  0  0  0  0  0  0  0
   -0.4123   13.4674   -6.4260 N   0  0  3  0  0  0  0  0  0  0  0  0
    0.1713   12.3664   -6.8217 N   0  0  0  0  0  0  0  0  0  0  0  0
   -0.8093   11.5624   -7.1930 C   0  0  0  0  0  0  0  0  0  0  0  0
    0.4224   14.5657   -5.9816 C   0  0  0  0  0  0  0  0  0  0  0  0
   -5.6966   14.2423  -13.2612 N   0  0  0  0  0  0  0  0  0  0  0  0
   -4.9506   15.3153  -13.5405 C   0  0  0  0  0  0  0  0  0  0  0  0
   -3.9383   15.6899  -12.6782 C   0  0  0  0  0  0  0  0  0  0  0  0
   -3.7261   14.9536  -11.5366 C   0  0  0  0  0  0  0  0  0  0  0  0
   -4.5508   13.8769  -11.2437 C   0  0  0  0  0  0  0  0  0  0  0  0
   -2.6976   15.2614  -10.7139 N   0  0  0  0  0  0  0  0  0  0  0  0
   -6.0464   12.2223   -9.8797 H   0  0  0  0  0  0  0  0  0  0  0  0
   -8.1826   10.1089  -13.8914 H   0  0  0  0  0  0  0  0  0  0  0  0
   -6.9001   12.2325  -14.0803 H   0  0  0  0  0  0  0  0  0  0  0  0
   -8.0313    9.6067   -7.2544 H   0  0  0  0  0  0  0  0  0  0  0  0
   -6.7563   12.3160   -6.9245 H   0  0  0  0  0  0  0  0  0  0  0  0
   -4.5218   13.2977   -6.4798 H   0  0  0  0  0  0  0  0  0  0  0  0
   -2.6703    9.7625   -8.0472 H   0  0  0  0  0  0  0  0  0  0  0  0
   -4.9024    8.7852   -8.4759 H   0  0  0  0  0  0  0  0  0  0  0  0
   -2.1269   14.2144   -7.1418 H   0  0  0  0  0  0  0  0  0  0  0  0
   -2.1691   13.5602   -5.4694 H   0  0  0  0  0  0  0  0  0  0  0  0
    0.7822   12.5516   -7.5915 H   0  0  0  0  0  0  0  0  0  0  0  0
   -0.6637   10.5754   -7.6065 H   0  0  0  0  0  0  0  0  0  0  0  0
    1.4812   14.2793   -6.0650 H   0  0  0  0  0  0  0  0  0  0  0  0
    0.2310   15.4487   -6.6090 H   0  0  0  0  0  0  0  0  0  0  0  0
    0.1884   14.8031   -4.9333 H   0  0  0  0  0  0  0  0  0  0  0  0
   -5.1384   15.8875  -14.4370 H   0  0  0  0  0  0  0  0  0  0  0  0
   -3.3221   16.5493  -12.8978 H   0  0  0  0  0  0  0  0  0  0  0  0
   -5.0546   14.1072  -10.2933 H   0  0  0  0  0  0  0  0  0  0  0  0
   -3.8997   13.0003  -11.1106 H   0  0  0  0  0  0  0  0  0  0  0  0
   -2.6419   14.6376   -9.9343 H   0  0  0  0  0  0  0  0  0  0  0  0
  1  2  2  0  0  0  0
  1  4  1  0  0  0  0
  1 11  1  0  0  0  0
  2  6  1  0  0  0  0
  3  4  2  0  0  0  0
  3  5  1  0  0  0  0
  5  6  2  0  0  0  0
  5  9  1  0  0  0  0
  6  7  1  0  0  0  0
  7  8  1  0  0  0  0
  7 10  2  3  0  0  0
  8  9  2  0  0  0  0
 10 12  1  0  0  0  0
 11 24  2  0  0  0  0
 11 28  1  0  0  0  0
 12 13  2  0  0  0  0
 12 17  1  0  0  0  0
 13 14  1  0  0  0  0
 14 15  2  0  0  0  0
 15 16  1  0  0  0  0
 15 18  1  0  0  0  0
 16 17  2  0  0  0  0
 18 19  1  0  0  0  0
 18 22  2  0  0  0  0
 19 20  1  0  0  0  0
 20 21  1  0  0  0  0
 20 23  1  0  0  0  0
 21 22  1  0  0  0  0
 24 25  1  0  0  0  0
 25 26  2  0  0  0  0
 26 27  1  0  0  0  0
 27 28  1  0  0  0  0
 27 29  2  0  0  0  0
  2 30  1  0  0  0  0
  3 31  1  0  0  0  0
  4 32  1  0  0  0  0
 10 33  1  0  0  0  0
 13 34  1  0  0  0  0
 14 35  1  0  0  0  0
 16 36  1  0  0  0  0
 17 37  1  0  0  0  0
 19 38  1  0  0  0  0
 19 39  1  0  0  0  0
 21 40  1  0  0  0  0
 22 41  1  0  0  0  0
 23 42  1  0  0  0  0
 23 43  1  0  0  0  0
 23 44  1  0  0  0  0
 25 45  1  0  0  0  0
 26 46  1  0  0  0  0
 28 47  1  0  0  0  0
 28 48  1  0  0  0  0
 29 49  1  0  0  0  0
M  END
> <Name>
23

> <IC50[uM]>
0.27

$$$$
23
  -OEChem-05192314333D
 Structure written by MMmdl.
 49 53  0     1  0  0  0  0  0999 V2000
   -6.3775   12.3296  -12.0018 C   0  0  0  0  0  0  0  0  0  0  0  0
   -6.5098   11.7629  -10.7403 C   0  0  0  0  0  0  0  0  0  0  0  0
   -7.7247   10.5660  -13.0266 C   0  0  0  0  0  0  0  0  0  0  0  0
   -6.9942   11.7487  -13.1193 C   0  0  0  0  0  0  0  0  0  0  0  0
   -7.8312   10.0057  -11.7538 C   0  0  0  0  0  0  0  0  0  0  0  0
   -7.2443   10.6021  -10.6070 C   0  0  0  0  0  0  0  0  0  0  0  0
   -7.6167    9.7449   -9.5151 C   0  0  3  0  0  0  0  0  0  0  0  0
   -8.2961    8.7374   -9.9786 N   0  0  0  0  0  0  0  0  0  0  0  0
   -8.4404    8.8724  -11.2937 N   0  0  0  0  0  0  0  0  0  0  0  0
   -7.3318    9.8946   -8.0252 C   0  0  0  0  0  0  0  0  0  0  0  0
   -5.5478   13.5112  -12.1572 C   0  0  0  0  0  0  0  0  0  0  0  0
   -5.9707   10.4870   -7.7351 C   0  0  0  0  0  0  0  0  0  0  0  0
   -5.8642   11.7588   -7.1694 C   0  0  0  0  0  0  0  0  0  0  0  0
   -4.6019   12.3141   -6.9186 C   0  0  0  0  0  0  0  0  0  0  0  0
   -3.4503   11.5963   -7.2357 C   0  0  0  0  0  0  0  0  0  0  0  0
   -3.5604   10.3220   -7.8000 C   0  0  0  0  0  0  0  0  0  0  0  0
   -4.8213    9.7719   -8.0443 C   0  0  0  0  0  0  0  0  0  0  0  0
   -2.0996   12.1710   -6.9757 C   0  0  0  0  0  0  0  0  0  0  0  0
   -1.7487   13.4240   -6.4767 C   0  0  0  0  0  0  0  0  0  0  0  0
   -0.4123   13.4674   -6.4260 N   0  0  3  0  0  0  0  0  0  0  0  0
    0.1713   12.3664   -6.8217 N   0  0  0  0  0  0  0  0  0  0  0  0
   -0.8093   11.5624   -7.1930 C   0  0  0  0  0  0  0  0  0  0  0  0
    0.4224   14.5657   -5.9816 C   0  0  0  0  0  0  0  0  0  0  0  0
   -5.6966   14.2423  -13.2612 N   0  0  0  0  0  0  0  0  0  0  0  0
   -4.9506   15.3153  -13.5405 C   0  0  0  0  0  0  0  0  0  0  0  0
   -3.9383   15.6899  -12.6782 C   0  0  0  0  0  0  0  0  0  0  0  0
   -3.7261   14.9536  -11.5366 C   0  0  0  0  0  0  0  0  0  0  0  0
   -4.5508   13.8769  -11.2437 C   0  0  0  0  0  0  0  0  0  0  0  0
   -2.6976   15.2614  -10.7139 N   0  0  0  0  0  0  0  0  0  0  0  0
   -6.0464   12.2223   -9.8797 H   0  0  0  0  0  0  0  0  0  0  0  0
   -8.1826   10.1089  -13.8914 H   0  0  0  0  0  0  0  0  0  0  0  0
   -6.9001   12.2325  -14.0803 H   0  0  0  0  0  0  0  0  0  0  0  0
   -6.6832    9.1765   -9.6392 H   0  0  0  0  0  0  0  0  0  0  0  0
   -8.0313    9.6067   -7.2544 H   0  0  0  0  0  0  0  0  0  0  0  0
   -6.7563   12.3160   -6.9245 H   0  0  0  0  0  0  0  0  0  0  0  0
   -4.5218   13.2977   -6.4798 H   0  0  0  0  0  0  0  0  0  0  0  0
   -2.6703    9.7625   -8.0472 H   0  0  0  0  0  0  0  0  0  0  0  0
   -4.9024    8.7852   -8.4759 H   0  0  0  0  0  0  0  0  0  0  0  0
   -2.1269   14.2144   -7.1418 H   0  0  0  0  0  0  0  0  0  0  0  0
   -2.1691   13.5602   -5.4694 H   0  0  0  0  0  0  0  0  0  0  0  0
   -0.6637   10.5754   -7.6065 H   0  0  0  0  0  0  0  0  0  0  0  0
    1.4809   14.2752   -6.0543 H   0  0  0  0  0  0  0  0  0  0  0  0
    0.2393   15.4453   -6.6162 H   0  0  0  0  0  0  0  0  0  0  0  0
    0.1804   14.8105   -4.9369 H   0  0  0  0  0  0  0  0  0  0  0  0
   -5.1384   15.8875  -14.4370 H   0  0  0  0  0  0  0  0  0  0  0  0
   -3.0010   15.6690  -13.2536 H   0  0  0  0  0  0  0  0  0  0  0  0
   -4.1509   16.7215  -12.3610 H   0  0  0  0  0  0  0  0  0  0  0  0
   -4.4255   13.3274  -10.3224 H   0  0  0  0  0  0  0  0  0  0  0  0
   -2.6419   14.6376   -9.9343 H   0  0  0  0  0  0  0  0  0  0  0  0
  1  2  2  0  0  0  0
  1  4  1  0  0  0  0
  1 11  1  0  0  0  0
  2  6  1  0  0  0  0
  3  4  2  0  0  0  0
  3  5  1  0  0  0  0
  5  6  2  0  0  0  0
  5  9  1  0  0  0  0
  6  7  1  0  0  0  0
  7  8  1  0  0  0  0
  7 10  1  0  0  0  0
  8  9  2  0  0  0  0
 10 12  2  0  0  0  0
 11 24  1  0  0  0  0
 11 28  2  0  0  0  0
 12 13  1  0  0  0  0
 12 17  1  0  0  0  0
 13 14  2  0  0  0  0
 14 15  1  0  0  0  0
 15 16  1  0  0  0  0
 15 18  2  0  0  0  0
 16 17  2  0  0  0  0
 18 19  1  0  0  0  0
 18 22  1  0  0  0  0
 19 20  1  0  0  0  0
 20 21  1  0  0  0  0
 20 23  1  0  0  0  0
 21 22  2  0  0  0  0
 24 25  2  0  0  0  0
 25 26  1  0  0  0  0
 26 27  1  0  0  0  0
 27 28  1  0  0  0  0
 27 29  2  0  0  0  0
  2 30  1  0  0  0  0
  3 31  1  0  0  0  0
  4 32  1  0  0  0  0
  7 33  1  0  0  0  0
 10 34  1  0  0  0  0
 13 35  1  0  0  0  0
 14 36  1  0  0  0  0
 16 37  1  0  0  0  0
 17 38  1  0  0  0  0
 19 39  1  0  0  0  0
 19 40  1  0  0  0  0
 22 41  1  0  0  0  0
 23 42  1  0  0  0  0
 23 43  1  0  0  0  0
 23 44  1  0  0  0  0
 25 45  1  0  0  0  0
 26 46  1  0  0  0  0
 26 47  1  0  0  0  0
 28 48  1  0  0  0  0
 29 49  1  0  0  0  0
M  END
> <Name>
23

> <IC50[uM]>
0.27

$$$$
23
  -OEChem-05192314333D
 Structure written by MMmdl.
 49 53  0     1  0  0  0  0  0999 V2000
   -6.3775   12.3296  -12.0018 C   0  0  0  0  0  0  0  0  0  0  0  0
   -6.5098   11.7629  -10.7403 C   0  0  0  0  0  0  0  0  0  0  0  0
   -7.7247   10.5660  -13.0266 C   0  0  0  0  0  0  0  0  0  0  0  0
   -6.9942   11.7487  -13.1193 C   0  0  0  0  0  0  0  0  0  0  0  0
   -7.8312   10.0057  -11.7538 C   0  0  0  0  0  0  0  0  0  0  0  0
   -7.2443   10.6021  -10.6070 C   0  0  0  0  0  0  0  0  0  0  0  0
   -7.6167    9.7449   -9.5151 C   0  0  3  0  0  0  0  0  0  0  0  0
   -8.2961    8.7374   -9.9786 N   0  0  0  0  0  0  0  0  0  0  0  0
   -8.4404    8.8724  -11.2937 N   0  0  0  0  0  0  0  0  0  0  0  0
   -7.3318    9.8946   -8.0252 C   0  0  0  0  0  0  0  0  0  0  0  0
   -5.5478   13.5112  -12.1572 C   0  0  0  0  0  0  0  0  0  0  0  0
   -5.9707   10.4870   -7.7351 C   0  0  0  0  0  0  0  0  0  0  0  0
   -5.8642   11.7588   -7.1694 C   0  0  0  0  0  0  0  0  0  0  0  0
   -4.6019   12.3141   -6.9186 C   0  0  0  0  0  0  0  0  0  0  0  0
   -3.4503   11.5963   -7.2357 C   0  0  0  0  0  0  0  0  0  0  0  0
   -3.5604   10.3220   -7.8000 C   0  0  0  0  0  0  0  0  0  0  0  0
   -4.8213    9.7719   -8.0443 C   0  0  0  0  0  0  0  0  0  0  0  0
   -2.0996   12.1710   -6.9757 C   0  0  0  0  0  0  0  0  0  0  0  0
   -1.7487   13.4240   -6.4767 C   0  0  0  0  0  0  0  0  0  0  0  0
   -0.4123   13.4674   -6.4260 N   0  0  3  0  0  0  0  0  0  0  0  0
    0.1713   12.3664   -6.8217 N   0  0  0  0  0  0  0  0  0  0  0  0
   -0.8093   11.5624   -7.1930 C   0  0  0  0  0  0  0  0  0  0  0  0
    0.4224   14.5657   -5.9816 C   0  0  0  0  0  0  0  0  0  0  0  0
   -5.6966   14.2423  -13.2612 N   0  0  0  0  0  0  0  0  0  0  0  0
   -4.9506   15.3153  -13.5405 C   0  0  0  0  0  0  0  0  0  0  0  0
   -3.9383   15.6899  -12.6782 C   0  0  0  0  0  0  0  0  0  0  0  0
   -3.7261   14.9536  -11.5366 C   0  0  0  0  0  0  0  0  0  0  0  0
   -4.5508   13.8769  -11.2437 C   0  0  0  0  0  0  0  0  0  0  0  0
   -2.6976   15.2614  -10.7139 N   0  0  0  0  0  0  0  0  0  0  0  0
   -6.0464   12.2223   -9.8797 H   0  0  0  0  0  0  0  0  0  0  0  0
   -8.1826   10.1089  -13.8914 H   0  0  0  0  0  0  0  0  0  0  0  0
   -6.9001   12.2325  -14.0803 H   0  0  0  0  0  0  0  0  0  0  0  0
   -6.6832    9.1765   -9.6392 H   0  0  0  0  0  0  0  0  0  0  0  0
   -8.0313    9.6067   -7.2544 H   0  0  0  0  0  0  0  0  0  0  0  0
   -6.7563   12.3160   -6.9245 H   0  0  0  0  0  0  0  0  0  0  0  0
   -4.5218   13.2977   -6.4798 H   0  0  0  0  0  0  0  0  0  0  0  0
   -2.6703    9.7625   -8.0472 H   0  0  0  0  0  0  0  0  0  0  0  0
   -4.9024    8.7852   -8.4759 H   0  0  0  0  0  0  0  0  0  0  0  0
   -2.1269   14.2144   -7.1418 H   0  0  0  0  0  0  0  0  0  0  0  0
   -2.1691   13.5602   -5.4694 H   0  0  0  0  0  0  0  0  0  0  0  0
   -0.6637   10.5754   -7.6065 H   0  0  0  0  0  0  0  0  0  0  0  0
    1.4809   14.2752   -6.0543 H   0  0  0  0  0  0  0  0  0  0  0  0
    0.2393   15.4453   -6.6162 H   0  0  0  0  0  0  0  0  0  0  0  0
    0.1804   14.8105   -4.9369 H   0  0  0  0  0  0  0  0  0  0  0  0
   -5.1384   15.8875  -14.4370 H   0  0  0  0  0  0  0  0  0  0  0  0
   -3.3221   16.5493  -12.8978 H   0  0  0  0  0  0  0  0  0  0  0  0
   -5.0546   14.1072  -10.2933 H   0  0  0  0  0  0  0  0  0  0  0  0
   -3.8997   13.0003  -11.1106 H   0  0  0  0  0  0  0  0  0  0  0  0
   -2.6419   14.6376   -9.9343 H   0  0  0  0  0  0  0  0  0  0  0  0
  1  2  2  0  0  0  0
  1  4  1  0  0  0  0
  1 11  1  0  0  0  0
  2  6  1  0  0  0  0
  3  4  2  0  0  0  0
  3  5  1  0  0  0  0
  5  6  2  0  0  0  0
  5  9  1  0  0  0  0
  6  7  1  0  0  0  0
  7  8  1  0  0  0  0
  7 10  1  0  0  0  0
  8  9  2  0  0  0  0
 10 12  2  0  0  0  0
 11 24  2  0  0  0  0
 11 28  1  0  0  0  0
 12 13  1  0  0  0  0
 12 17  1  0  0  0  0
 13 14  2  0  0  0  0
 14 15  1  0  0  0  0
 15 16  1  0  0  0  0
 15 18  2  0  0  0  0
 16 17  2  0  0  0  0
 18 19  1  0  0  0  0
 18 22  1  0  0  0  0
 19 20  1  0  0  0  0
 20 21  1  0  0  0  0
 20 23  1  0  0  0  0
 21 22  2  0  0  0  0
 24 25  1  0  0  0  0
 25 26  2  0  0  0  0
 26 27  1  0  0  0  0
 27 28  1  0  0  0  0
 27 29  2  0  0  0  0
  2 30  1  0  0  0  0
  3 31  1  0  0  0  0
  4 32  1  0  0  0  0
  7 33  1  0  0  0  0
 10 34  1  0  0  0  0
 13 35  1  0  0  0  0
 14 36  1  0  0  0  0
 16 37  1  0  0  0  0
 17 38  1  0  0  0  0
 19 39  1  0  0  0  0
 19 40  1  0  0  0  0
 22 41  1  0  0  0  0
 23 42  1  0  0  0  0
 23 43  1  0  0  0  0
 23 44  1  0  0  0  0
 25 45  1  0  0  0  0
 26 46  1  0  0  0  0
 28 47  1  0  0  0  0
 28 48  1  0  0  0  0
 29 49  1  0  0  0  0
M  END
> <Name>
23

> <IC50[uM]>
0.27

$$$$
23
  -OEChem-05192314333D
 Structure written by MMmdl.
 49 53  0     1  0  0  0  0  0999 V2000
   -6.3775   12.3296  -12.0018 C   0  0  0  0  0  0  0  0  0  0  0  0
   -6.5098   11.7629  -10.7403 C   0  0  0  0  0  0  0  0  0  0  0  0
   -7.7247   10.5660  -13.0266 C   0  0  0  0  0  0  0  0  0  0  0  0
   -6.9942   11.7487  -13.1193 C   0  0  0  0  0  0  0  0  0  0  0  0
   -7.8312   10.0057  -11.7538 C   0  0  0  0  0  0  0  0  0  0  0  0
   -7.2443   10.6021  -10.6070 C   0  0  0  0  0  0  0  0  0  0  0  0
   -7.6167    9.7449   -9.5151 C   0  0  0  0  0  0  0  0  0  0  0  0
   -8.2961    8.7374   -9.9786 N   0  0  0  0  0  0  0  0  0  0  0  0
   -8.4404    8.8724  -11.2937 N   0  0  0  0  0  0  0  0  0  0  0  0
   -7.3318    9.8946   -8.0252 C   0  0  0  0  0  0  0  0  0  0  0  0
   -5.5478   13.5112  -12.1572 C   0  0  0  0  0  0  0  0  0  0  0  0
   -5.9707   10.4870   -7.7351 C   0  0  0  0  0  0  0  0  0  0  0  0
   -5.8642   11.7588   -7.1694 C   0  0  0  0  0  0  0  0  0  0  0  0
   -4.6019   12.3141   -6.9186 C   0  0  0  0  0  0  0  0  0  0  0  0
   -3.4503   11.5963   -7.2357 C   0  0  0  0  0  0  0  0  0  0  0  0
   -3.5604   10.3220   -7.8000 C   0  0  0  0  0  0  0  0  0  0  0  0
   -4.8213    9.7719   -8.0443 C   0  0  0  0  0  0  0  0  0  0  0  0
   -2.0996   12.1710   -6.9757 C   0  0  0  0  0  0  0  0  0  0  0  0
   -1.7487   13.4240   -6.4767 C   0  0  0  0  0  0  0  0  0  0  0  0
   -0.4123   13.4674   -6.4260 N   0  0  3  0  0  0  0  0  0  0  0  0
    0.1713   12.3664   -6.8217 N   0  0  0  0  0  0  0  0  0  0  0  0
   -0.8093   11.5624   -7.1930 C   0  0  0  0  0  0  0  0  0  0  0  0
    0.4224   14.5657   -5.9816 C   0  0  0  0  0  0  0  0  0  0  0  0
   -5.6966   14.2423  -13.2612 N   0  0  0  0  0  0  0  0  0  0  0  0
   -4.9506   15.3153  -13.5405 C   0  0  0  0  0  0  0  0  0  0  0  0
   -3.9383   15.6899  -12.6782 C   0  0  0  0  0  0  0  0  0  0  0  0
   -3.7261   14.9536  -11.5366 C   0  0  0  0  0  0  0  0  0  0  0  0
   -4.5508   13.8769  -11.2437 C   0  0  0  0  0  0  0  0  0  0  0  0
   -2.6976   15.2614  -10.7139 N   0  0  0  0  0  0  0  0  0  0  0  0
   -6.0464   12.2223   -9.8797 H   0  0  0  0  0  0  0  0  0  0  0  0
   -8.1826   10.1089  -13.8914 H   0  0  0  0  0  0  0  0  0  0  0  0
   -6.9001   12.2325  -14.0803 H   0  0  0  0  0  0  0  0  0  0  0  0
   -8.0313    9.6067   -7.2544 H   0  0  0  0  0  0  0  0  0  0  0  0
   -6.7563   12.3160   -6.9245 H   0  0  0  0  0  0  0  0  0  0  0  0
   -4.5218   13.2977   -6.4798 H   0  0  0  0  0  0  0  0  0  0  0  0
   -2.6703    9.7625   -8.0472 H   0  0  0  0  0  0  0  0  0  0  0  0
   -4.9024    8.7852   -8.4759 H   0  0  0  0  0  0  0  0  0  0  0  0
   -2.1269   14.2144   -7.1418 H   0  0  0  0  0  0  0  0  0  0  0  0
   -2.1691   13.5602   -5.4694 H   0  0  0  0  0  0  0  0  0  0  0  0
   -0.6637   10.5754   -7.6065 H   0  0  0  0  0  0  0  0  0  0  0  0
    1.4809   14.2752   -6.0543 H   0  0  0  0  0  0  0  0  0  0  0  0
    0.2393   15.4453   -6.6162 H   0  0  0  0  0  0  0  0  0  0  0  0
    0.1804   14.8105   -4.9369 H   0  0  0  0  0  0  0  0  0  0  0  0
   -5.1384   15.8875  -14.4370 H   0  0  0  0  0  0  0  0  0  0  0  0
   -3.0010   15.6690  -13.2536 H   0  0  0  0  0  0  0  0  0  0  0  0
   -4.1509   16.7215  -12.3610 H   0  0  0  0  0  0  0  0  0  0  0  0
   -5.0546   14.1072  -10.2933 H   0  0  0  0  0  0  0  0  0  0  0  0
   -3.8997   13.0003  -11.1106 H   0  0  0  0  0  0  0  0  0  0  0  0
   -2.6419   14.6376   -9.9343 H   0  0  0  0  0  0  0  0  0  0  0  0
  1  2  1  0  0  0  0
  1  4  1  0  0  0  0
  1 11  2  0  0  0  0
  2  6  2  0  0  0  0
  3  4  2  0  0  0  0
  3  5  1  0  0  0  0
  5  6  1  0  0  0  0
  5  9  2  0  0  0  0
  6  7  1  0  0  0  0
  7  8  2  0  0  0  0
  7 10  1  0  0  0  0
  8  9  1  0  0  0  0
 10 12  2  0  0  0  0
 11 24  1  0  0  0  0
 11 28  1  0  0  0  0
 12 13  1  0  0  0  0
 12 17  1  0  0  0  0
 13 14  2  0  0  0  0
 14 15  1  0  0  0  0
 15 16  1  0  0  0  0
 15 18  2  0  0  0  0
 16 17  2  0  0  0  0
 18 19  1  0  0  0  0
 18 22  1  0  0  0  0
 19 20  1  0  0  0  0
 20 21  1  0  0  0  0
 20 23  1  0  0  0  0
 21 22  2  0  0  0  0
 24 25  2  0  0  0  0
 25 26  1  0  0  0  0
 26 27  1  0  0  0  0
 27 28  1  0  0  0  0
 27 29  2  0  0  0  0
  2 30  1  0  0  0  0
  3 31  1  0  0  0  0
  4 32  1  0  0  0  0
 10 33  1  0  0  0  0
 13 34  1  0  0  0  0
 14 35  1  0  0  0  0
 16 36  1  0  0  0  0
 17 37  1  0  0  0  0
 19 38  1  0  0  0  0
 19 39  1  0  0  0  0
 22 40  1  0  0  0  0
 23 41  1  0  0  0  0
 23 42  1  0  0  0  0
 23 43  1  0  0  0  0
 25 44  1  0  0  0  0
 26 45  1  0  0  0  0
 26 46  1  0  0  0  0
 28 47  1  0  0  0  0
 28 48  1  0  0  0  0
 29 49  1  0  0  0  0
M  END
> <Name>
23

> <IC50[uM]>
0.27

$$$$
23
  -OEChem-05192314333D
 Structure written by MMmdl.
 49 53  0     1  0  0  0  0  0999 V2000
   -6.3775   12.3296  -12.0018 C   0  0  0  0  0  0  0  0  0  0  0  0
   -6.5098   11.7629  -10.7403 C   0  0  0  0  0  0  0  0  0  0  0  0
   -7.7247   10.5660  -13.0266 C   0  0  0  0  0  0  0  0  0  0  0  0
   -6.9942   11.7487  -13.1193 C   0  0  0  0  0  0  0  0  0  0  0  0
   -7.8312   10.0057  -11.7538 C   0  0  0  0  0  0  0  0  0  0  0  0
   -7.2443   10.6021  -10.6070 C   0  0  0  0  0  0  0  0  0  0  0  0
   -7.6167    9.7449   -9.5151 C   0  0  0  0  0  0  0  0  0  0  0  0
   -8.2961    8.7374   -9.9786 N   0  0  0  0  0  0  0  0  0  0  0  0
   -8.4404    8.8724  -11.2937 N   0  0  0  0  0  0  0  0  0  0  0  0
   -7.3318    9.8946   -8.0252 C   0  0  0  0  0  0  0  0  0  0  0  0
   -5.5478   13.5112  -12.1572 C   0  0  0  0  0  0  0  0  0  0  0  0
   -5.9707   10.4870   -7.7351 C   0  0  0  0  0  0  0  0  0  0  0  0
   -5.8642   11.7588   -7.1694 C   0  0  0  0  0  0  0  0  0  0  0  0
   -4.6019   12.3141   -6.9186 C   0  0  0  0  0  0  0  0  0  0  0  0
   -3.4503   11.5963   -7.2357 C   0  0  0  0  0  0  0  0  0  0  0  0
   -3.5604   10.3220   -7.8000 C   0  0  0  0  0  0  0  0  0  0  0  0
   -4.8213    9.7719   -8.0443 C   0  0  0  0  0  0  0  0  0  0  0  0
   -2.0996   12.1710   -6.9757 C   0  0  0  0  0  0  0  0  0  0  0  0
   -1.7487   13.4240   -6.4767 C   0  0  0  0  0  0  0  0  0  0  0  0
   -0.4123   13.4674   -6.4260 N   0  0  3  0  0  0  0  0  0  0  0  0
    0.1713   12.3664   -6.8217 N   0  0  0  0  0  0  0  0  0  0  0  0
   -0.8093   11.5624   -7.1930 C   0  0  0  0  0  0  0  0  0  0  0  0
    0.4224   14.5657   -5.9816 C   0  0  0  0  0  0  0  0  0  0  0  0
   -5.6966   14.2423  -13.2612 N   0  0  0  0  0  0  0  0  0  0  0  0
   -4.9506   15.3153  -13.5405 C   0  0  0  0  0  0  0  0  0  0  0  0
   -3.9383   15.6899  -12.6782 C   0  0  0  0  0  0  0  0  0  0  0  0
   -3.7261   14.9536  -11.5366 C   0  0  0  0  0  0  0  0  0  0  0  0
   -4.5508   13.8769  -11.2437 C   0  0  0  0  0  0  0  0  0  0  0  0
   -2.6976   15.2614  -10.7139 N   0  0  0  0  0  0  0  0  0  0  0  0
   -6.0464   12.2223   -9.8797 H   0  0  0  0  0  0  0  0  0  0  0  0
   -8.1826   10.1089  -13.8914 H   0  0  0  0  0  0  0  0  0  0  0  0
   -6.9001   12.2325  -14.0803 H   0  0  0  0  0  0  0  0  0  0  0  0
   -8.0313    9.6067   -7.2544 H   0  0  0  0  0  0  0  0  0  0  0  0
   -6.7563   12.3160   -6.9245 H   0  0  0  0  0  0  0  0  0  0  0  0
   -4.5218   13.2977   -6.4798 H   0  0  0  0  0  0  0  0  0  0  0  0
   -2.6703    9.7625   -8.0472 H   0  0  0  0  0  0  0  0  0  0  0  0
   -4.9024    8.7852   -8.4759 H   0  0  0  0  0  0  0  0  0  0  0  0
   -2.1269   14.2144   -7.1418 H   0  0  0  0  0  0  0  0  0  0  0  0
   -2.1691   13.5602   -5.4694 H   0  0  0  0  0  0  0  0  0  0  0  0
   -0.6637   10.5754   -7.6065 H   0  0  0  0  0  0  0  0  0  0  0  0
    1.4809   14.2752   -6.0543 H   0  0  0  0  0  0  0  0  0  0  0  0
    0.2393   15.4453   -6.6162 H   0  0  0  0  0  0  0  0  0  0  0  0
    0.1804   14.8105   -4.9369 H   0  0  0  0  0  0  0  0  0  0  0  0
   -5.1384   15.8875  -14.4370 H   0  0  0  0  0  0  0  0  0  0  0  0
   -3.0010   15.6690  -13.2536 H   0  0  0  0  0  0  0  0  0  0  0  0
   -4.1509   16.7215  -12.3610 H   0  0  0  0  0  0  0  0  0  0  0  0
   -4.4255   13.3274  -10.3224 H   0  0  0  0  0  0  0  0  0  0  0  0
   -2.6901   14.6302   -9.9383 H   0  0  0  0  0  0  0  0  0  0  0  0
   -1.8356   15.1840  -11.2148 H   0  0  0  0  0  0  0  0  0  0  0  0
  1  2  1  0  0  0  0
  1  4  1  0  0  0  0
  1 11  2  0  0  0  0
  2  6  2  0  0  0  0
  3  4  2  0  0  0  0
  3  5  1  0  0  0  0
  5  6  1  0  0  0  0
  5  9  2  0  0  0  0
  6  7  1  0  0  0  0
  7  8  2  0  0  0  0
  7 10  1  0  0  0  0
  8  9  1  0  0  0  0
 10 12  2  0  0  0  0
 11 24  1  0  0  0  0
 11 28  1  0  0  0  0
 12 13  1  0  0  0  0
 12 17  1  0  0  0  0
 13 14  2  0  0  0  0
 14 15  1  0  0  0  0
 15 16  1  0  0  0  0
 15 18  2  0  0  0  0
 16 17  2  0  0  0  0
 18 19  1  0  0  0  0
 18 22  1  0  0  0  0
 19 20  1  0  0  0  0
 20 21  1  0  0  0  0
 20 23  1  0  0  0  0
 21 22  2  0  0  0  0
 24 25  2  0  0  0  0
 25 26  1  0  0  0  0
 26 27  1  0  0  0  0
 27 28  2  0  0  0  0
 27 29  1  0  0  0  0
  2 30  1  0  0  0  0
  3 31  1  0  0  0  0
  4 32  1  0  0  0  0
 10 33  1  0  0  0  0
 13 34  1  0  0  0  0
 14 35  1  0  0  0  0
 16 36  1  0  0  0  0
 17 37  1  0  0  0  0
 19 38  1  0  0  0  0
 19 39  1  0  0  0  0
 22 40  1  0  0  0  0
 23 41  1  0  0  0  0
 23 42  1  0  0  0  0
 23 43  1  0  0  0  0
 25 44  1  0  0  0  0
 26 45  1  0  0  0  0
 26 46  1  0  0  0  0
 28 47  1  0  0  0  0
 29 48  1  0  0  0  0
 29 49  1  0  0  0  0
M  END
> <Name>
23

> <IC50[uM]>
0.27

$$$$
23
  -OEChem-05192314333D
 Structure written by MMmdl.
 49 53  0     1  0  0  0  0  0999 V2000
   -6.3775   12.3296  -12.0018 C   0  0  0  0  0  0  0  0  0  0  0  0
   -6.5098   11.7629  -10.7403 C   0  0  0  0  0  0  0  0  0  0  0  0
   -7.7247   10.5660  -13.0266 C   0  0  0  0  0  0  0  0  0  0  0  0
   -6.9942   11.7487  -13.1193 C   0  0  0  0  0  0  0  0  0  0  0  0
   -7.8312   10.0057  -11.7538 C   0  0  0  0  0  0  0  0  0  0  0  0
   -7.2443   10.6021  -10.6070 C   0  0  0  0  0  0  0  0  0  0  0  0
   -7.6167    9.7449   -9.5151 C   0  0  0  0  0  0  0  0  0  0  0  0
   -8.2961    8.7374   -9.9786 N   0  0  0  0  0  0  0  0  0  0  0  0
   -8.4404    8.8724  -11.2937 N   0  0  0  0  0  0  0  0  0  0  0  0
   -7.3318    9.8946   -8.0252 C   0  0  0  0  0  0  0  0  0  0  0  0
   -5.5478   13.5112  -12.1572 C   0  0  0  0  0  0  0  0  0  0  0  0
   -5.9707   10.4870   -7.7351 C   0  0  0  0  0  0  0  0  0  0  0  0
   -5.8642   11.7588   -7.1694 C   0  0  0  0  0  0  0  0  0  0  0  0
   -4.6019   12.3141   -6.9186 C   0  0  0  0  0  0  0  0  0  0  0  0
   -3.4503   11.5963   -7.2357 C   0  0  0  0  0  0  0  0  0  0  0  0
   -3.5604   10.3220   -7.8000 C   0  0  0  0  0  0  0  0  0  0  0  0
   -4.8213    9.7719   -8.0443 C   0  0  0  0  0  0  0  0  0  0  0  0
   -2.0996   12.1710   -6.9757 C   0  0  0  0  0  0  0  0  0  0  0  0
   -1.7487   13.4240   -6.4767 C   0  0  0  0  0  0  0  0  0  0  0  0
   -0.4123   13.4674   -6.4260 N   0  0  3  0  0  0  0  0  0  0  0  0
    0.1713   12.3664   -6.8217 N   0  0  0  0  0  0  0  0  0  0  0  0
   -0.8093   11.5624   -7.1930 C   0  0  0  0  0  0  0  0  0  0  0  0
    0.4224   14.5657   -5.9816 C   0  0  0  0  0  0  0  0  0  0  0  0
   -5.6966   14.2423  -13.2612 N   0  0  0  0  0  0  0  0  0  0  0  0
   -4.9506   15.3153  -13.5405 C   0  0  0  0  0  0  0  0  0  0  0  0
   -3.9383   15.6899  -12.6782 C   0  0  0  0  0  0  0  0  0  0  0  0
   -3.7261   14.9536  -11.5366 C   0  0  0  0  0  0  0  0  0  0  0  0
   -4.5508   13.8769  -11.2437 C   0  0  0  0  0  0  0  0  0  0  0  0
   -2.6976   15.2614  -10.7139 N   0  0  0  0  0  0  0  0  0  0  0  0
   -6.0464   12.2223   -9.8797 H   0  0  0  0  0  0  0  0  0  0  0  0
   -8.1826   10.1089  -13.8914 H   0  0  0  0  0  0  0  0  0  0  0  0
   -6.9001   12.2325  -14.0803 H   0  0  0  0  0  0  0  0  0  0  0  0
   -8.0313    9.6067   -7.2544 H   0  0  0  0  0  0  0  0  0  0  0  0
   -6.7563   12.3160   -6.9245 H   0  0  0  0  0  0  0  0  0  0  0  0
   -4.5218   13.2977   -6.4798 H   0  0  0  0  0  0  0  0  0  0  0  0
   -2.6703    9.7625   -8.0472 H   0  0  0  0  0  0  0  0  0  0  0  0
   -4.9024    8.7852   -8.4759 H   0  0  0  0  0  0  0  0  0  0  0  0
   -2.1269   14.2144   -7.1418 H   0  0  0  0  0  0  0  0  0  0  0  0
   -2.1691   13.5602   -5.4694 H   0  0  0  0  0  0  0  0  0  0  0  0
   -0.6637   10.5754   -7.6065 H   0  0  0  0  0  0  0  0  0  0  0  0
    1.4809   14.2752   -6.0543 H   0  0  0  0  0  0  0  0  0  0  0  0
    0.2393   15.4453   -6.6162 H   0  0  0  0  0  0  0  0  0  0  0  0
    0.1804   14.8105   -4.9369 H   0  0  0  0  0  0  0  0  0  0  0  0
   -5.1384   15.8875  -14.4370 H   0  0  0  0  0  0  0  0  0  0  0  0
   -3.3221   16.5493  -12.8978 H   0  0  0  0  0  0  0  0  0  0  0  0
   -5.0546   14.1072  -10.2933 H   0  0  0  0  0  0  0  0  0  0  0  0
   -3.8997   13.0003  -11.1106 H   0  0  0  0  0  0  0  0  0  0  0  0
   -2.6901   14.6302   -9.9383 H   0  0  0  0  0  0  0  0  0  0  0  0
   -1.8356   15.1840  -11.2148 H   0  0  0  0  0  0  0  0  0  0  0  0
  1  2  1  0  0  0  0
  1  4  1  0  0  0  0
  1 11  2  0  0  0  0
  2  6  2  0  0  0  0
  3  4  2  0  0  0  0
  3  5  1  0  0  0  0
  5  6  1  0  0  0  0
  5  9  2  0  0  0  0
  6  7  1  0  0  0  0
  7  8  2  0  0  0  0
  7 10  1  0  0  0  0
  8  9  1  0  0  0  0
 10 12  2  0  0  0  0
 11 24  1  0  0  0  0
 11 28  1  0  0  0  0
 12 13  1  0  0  0  0
 12 17  1  0  0  0  0
 13 14  2  0  0  0  0
 14 15  1  0  0  0  0
 15 16  1  0  0  0  0
 15 18  2  0  0  0  0
 16 17  2  0  0  0  0
 18 19  1  0  0  0  0
 18 22  1  0  0  0  0
 19 20  1  0  0  0  0
 20 21  1  0  0  0  0
 20 23  1  0  0  0  0
 21 22  2  0  0  0  0
 24 25  2  0  0  0  0
 25 26  1  0  0  0  0
 26 27  2  0  0  0  0
 27 28  1  0  0  0  0
 27 29  1  0  0  0  0
  2 30  1  0  0  0  0
  3 31  1  0  0  0  0
  4 32  1  0  0  0  0
 10 33  1  0  0  0  0
 13 34  1  0  0  0  0
 14 35  1  0  0  0  0
 16 36  1  0  0  0  0
 17 37  1  0  0  0  0
 19 38  1  0  0  0  0
 19 39  1  0  0  0  0
 22 40  1  0  0  0  0
 23 41  1  0  0  0  0
 23 42  1  0  0  0  0
 23 43  1  0  0  0  0
 25 44  1  0  0  0  0
 26 45  1  0  0  0  0
 28 46  1  0  0  0  0
 28 47  1  0  0  0  0
 29 48  1  0  0  0  0
 29 49  1  0  0  0  0
M  END
> <Name>
23

> <IC50[uM]>
0.27

$$$$
23
  -OEChem-05192314333D
 Structure written by MMmdl.
 49 53  0     1  0  0  0  0  0999 V2000
   -6.3775   12.3296  -12.0018 C   0  0  0  0  0  0  0  0  0  0  0  0
   -6.5098   11.7629  -10.7403 C   0  0  0  0  0  0  0  0  0  0  0  0
   -7.7247   10.5660  -13.0266 C   0  0  0  0  0  0  0  0  0  0  0  0
   -6.9942   11.7487  -13.1193 C   0  0  0  0  0  0  0  0  0  0  0  0
   -7.8312   10.0057  -11.7538 C   0  0  0  0  0  0  0  0  0  0  0  0
   -7.2443   10.6021  -10.6070 C   0  0  0  0  0  0  0  0  0  0  0  0
   -7.6167    9.7449   -9.5151 C   0  0  0  0  0  0  0  0  0  0  0  0
   -8.2961    8.7374   -9.9786 N   0  0  0  0  0  0  0  0  0  0  0  0
   -8.4404    8.8724  -11.2937 N   0  0  0  0  0  0  0  0  0  0  0  0
   -7.3318    9.8946   -8.0252 C   0  0  0  0  0  0  0  0  0  0  0  0
   -5.5478   13.5112  -12.1572 C   0  0  0  0  0  0  0  0  0  0  0  0
   -5.9707   10.4870   -7.7351 C   0  0  0  0  0  0  0  0  0  0  0  0
   -5.8642   11.7588   -7.1694 C   0  0  0  0  0  0  0  0  0  0  0  0
   -4.6019   12.3141   -6.9186 C   0  0  0  0  0  0  0  0  0  0  0  0
   -3.4503   11.5963   -7.2357 C   0  0  0  0  0  0  0  0  0  0  0  0
   -3.5604   10.3220   -7.8000 C   0  0  0  0  0  0  0  0  0  0  0  0
   -4.8213    9.7719   -8.0443 C   0  0  0  0  0  0  0  0  0  0  0  0
   -2.0996   12.1710   -6.9757 C   0  0  0  0  0  0  0  0  0  0  0  0
   -1.7487   13.4240   -6.4767 C   0  0  0  0  0  0  0  0  0  0  0  0
   -0.4123   13.4674   -6.4260 N   0  0  3  0  0  0  0  0  0  0  0  0
    0.1713   12.3664   -6.8217 N   0  0  0  0  0  0  0  0  0  0  0  0
   -0.8093   11.5624   -7.1930 C   0  0  0  0  0  0  0  0  0  0  0  0
    0.4224   14.5657   -5.9816 C   0  0  0  0  0  0  0  0  0  0  0  0
   -5.6966   14.2423  -13.2612 N   0  0  0  0  0  0  0  0  0  0  0  0
   -4.9506   15.3153  -13.5405 C   0  0  0  0  0  0  0  0  0  0  0  0
   -3.9383   15.6899  -12.6782 C   0  0  0  0  0  0  0  0  0  0  0  0
   -3.7261   14.9536  -11.5366 C   0  0  0  0  0  0  0  0  0  0  0  0
   -4.5508   13.8769  -11.2437 C   0  0  0  0  0  0  0  0  0  0  0  0
   -2.6976   15.2614  -10.7139 N   0  0  0  0  0  0  0  0  0  0  0  0
   -6.0464   12.2223   -9.8797 H   0  0  0  0  0  0  0  0  0  0  0  0
   -8.1826   10.1089  -13.8914 H   0  0  0  0  0  0  0  0  0  0  0  0
   -6.9001   12.2325  -14.0803 H   0  0  0  0  0  0  0  0  0  0  0  0
   -8.0313    9.6067   -7.2544 H   0  0  0  0  0  0  0  0  0  0  0  0
   -6.7563   12.3160   -6.9245 H   0  0  0  0  0  0  0  0  0  0  0  0
   -4.5218   13.2977   -6.4798 H   0  0  0  0  0  0  0  0  0  0  0  0
   -2.6703    9.7625   -8.0472 H   0  0  0  0  0  0  0  0  0  0  0  0
   -4.9024    8.7852   -8.4759 H   0  0  0  0  0  0  0  0  0  0  0  0
   -2.1269   14.2144   -7.1418 H   0  0  0  0  0  0  0  0  0  0  0  0
   -2.1691   13.5602   -5.4694 H   0  0  0  0  0  0  0  0  0  0  0  0
   -0.6637   10.5754   -7.6065 H   0  0  0  0  0  0  0  0  0  0  0  0
    1.4809   14.2752   -6.0543 H   0  0  0  0  0  0  0  0  0  0  0  0
    0.2393   15.4453   -6.6162 H   0  0  0  0  0  0  0  0  0  0  0  0
    0.1804   14.8105   -4.9369 H   0  0  0  0  0  0  0  0  0  0  0  0
   -6.4038   13.9739  -13.9153 H   0  0  0  0  0  0  0  0  0  0  0  0
   -5.1384   15.8875  -14.4370 H   0  0  0  0  0  0  0  0  0  0  0  0
   -3.3221   16.5493  -12.8978 H   0  0  0  0  0  0  0  0  0  0  0  0
   -5.0546   14.1072  -10.2933 H   0  0  0  0  0  0  0  0  0  0  0  0
   -3.8997   13.0003  -11.1106 H   0  0  0  0  0  0  0  0  0  0  0  0
   -2.6419   14.6376   -9.9343 H   0  0  0  0  0  0  0  0  0  0  0  0
  1  2  1  0  0  0  0
  1  4  1  0  0  0  0
  1 11  2  0  0  0  0
  2  6  2  0  0  0  0
  3  4  2  0  0  0  0
  3  5  1  0  0  0  0
  5  6  1  0  0  0  0
  5  9  2  0  0  0  0
  6  7  1  0  0  0  0
  7  8  2  0  0  0  0
  7 10  1  0  0  0  0
  8  9  1  0  0  0  0
 10 12  2  0  0  0  0
 11 24  1  0  0  0  0
 11 28  1  0  0  0  0
 12 13  1  0  0  0  0
 12 17  1  0  0  0  0
 13 14  2  0  0  0  0
 14 15  1  0  0  0  0
 15 16  1  0  0  0  0
 15 18  2  0  0  0  0
 16 17  2  0  0  0  0
 18 19  1  0  0  0  0
 18 22  1  0  0  0  0
 19 20  1  0  0  0  0
 20 21  1  0  0  0  0
 20 23  1  0  0  0  0
 21 22  2  0  0  0  0
 24 25  1  0  0  0  0
 25 26  2  0  0  0  0
 26 27  1  0  0  0  0
 27 28  1  0  0  0  0
 27 29  2  0  0  0  0
  2 30  1  0  0  0  0
  3 31  1  0  0  0  0
  4 32  1  0  0  0  0
 10 33  1  0  0  0  0
 13 34  1  0  0  0  0
 14 35  1  0  0  0  0
 16 36  1  0  0  0  0
 17 37  1  0  0  0  0
 19 38  1  0  0  0  0
 19 39  1  0  0  0  0
 22 40  1  0  0  0  0
 23 41  1  0  0  0  0
 23 42  1  0  0  0  0
 23 43  1  0  0  0  0
 24 44  1  0  0  0  0
 25 45  1  0  0  0  0
 26 46  1  0  0  0  0
 28 47  1  0  0  0  0
 28 48  1  0  0  0  0
 29 49  1  0  0  0  0
M  END
> <Name>
23

> <IC50[uM]>
0.27

$$$$
23
  -OEChem-05192314333D
 Structure written by MMmdl.
 49 53  0     1  0  0  0  0  0999 V2000
   -6.3775   12.3296  -12.0018 C   0  0  0  0  0  0  0  0  0  0  0  0
   -6.5098   11.7629  -10.7403 C   0  0  0  0  0  0  0  0  0  0  0  0
   -7.7247   10.5660  -13.0266 C   0  0  0  0  0  0  0  0  0  0  0  0
   -6.9942   11.7487  -13.1193 C   0  0  0  0  0  0  0  0  0  0  0  0
   -7.8312   10.0057  -11.7538 C   0  0  0  0  0  0  0  0  0  0  0  0
   -7.2443   10.6021  -10.6070 C   0  0  0  0  0  0  0  0  0  0  0  0
   -7.6167    9.7449   -9.5151 C   0  0  0  0  0  0  0  0  0  0  0  0
   -8.2961    8.7374   -9.9786 N   0  0  0  0  0  0  0  0  0  0  0  0
   -8.4404    8.8724  -11.2937 N   0  0  0  0  0  0  0  0  0  0  0  0
   -7.3318    9.8946   -8.0252 C   0  0  0  0  0  0  0  0  0  0  0  0
   -5.5478   13.5112  -12.1572 C   0  0  0  0  0  0  0  0  0  0  0  0
   -5.9707   10.4870   -7.7351 C   0  0  0  0  0  0  0  0  0  0  0  0
   -5.8642   11.7588   -7.1694 C   0  0  0  0  0  0  0  0  0  0  0  0
   -4.6019   12.3141   -6.9186 C   0  0  0  0  0  0  0  0  0  0  0  0
   -3.4503   11.5963   -7.2357 C   0  0  0  0  0  0  0  0  0  0  0  0
   -3.5604   10.3220   -7.8000 C   0  0  0  0  0  0  0  0  0  0  0  0
   -4.8213    9.7719   -8.0443 C   0  0  0  0  0  0  0  0  0  0  0  0
   -2.0996   12.1710   -6.9757 C   0  0  0  0  0  0  0  0  0  0  0  0
   -1.7487   13.4240   -6.4767 C   0  0  0  0  0  0  0  0  0  0  0  0
   -0.4123   13.4674   -6.4260 N   0  0  3  0  0  0  0  0  0  0  0  0
    0.1713   12.3664   -6.8217 N   0  0  0  0  0  0  0  0  0  0  0  0
   -0.8093   11.5624   -7.1930 C   0  0  0  0  0  0  0  0  0  0  0  0
    0.4224   14.5657   -5.9816 C   0  0  0  0  0  0  0  0  0  0  0  0
   -5.6966   14.2423  -13.2612 N   0  0  0  0  0  0  0  0  0  0  0  0
   -4.9506   15.3153  -13.5405 C   0  0  0  0  0  0  0  0  0  0  0  0
   -3.9383   15.6899  -12.6782 C   0  0  0  0  0  0  0  0  0  0  0  0
   -3.7261   14.9536  -11.5366 C   0  0  0  0  0  0  0  0  0  0  0  0
   -4.5508   13.8769  -11.2437 C   0  0  0  0  0  0  0  0  0  0  0  0
   -2.6976   15.2614  -10.7139 N   0  0  0  0  0  0  0  0  0  0  0  0
   -6.0464   12.2223   -9.8797 H   0  0  0  0  0  0  0  0  0  0  0  0
   -8.1826   10.1089  -13.8914 H   0  0  0  0  0  0  0  0  0  0  0  0
   -6.9001   12.2325  -14.0803 H   0  0  0  0  0  0  0  0  0  0  0  0
   -8.0313    9.6067   -7.2544 H   0  0  0  0  0  0  0  0  0  0  0  0
   -6.7563   12.3160   -6.9245 H   0  0  0  0  0  0  0  0  0  0  0  0
   -4.5218   13.2977   -6.4798 H   0  0  0  0  0  0  0  0  0  0  0  0
   -2.6703    9.7625   -8.0472 H   0  0  0  0  0  0  0  0  0  0  0  0
   -4.9024    8.7852   -8.4759 H   0  0  0  0  0  0  0  0  0  0  0  0
   -2.1269   14.2144   -7.1418 H   0  0  0  0  0  0  0  0  0  0  0  0
   -2.1691   13.5602   -5.4694 H   0  0  0  0  0  0  0  0  0  0  0  0
   -0.6637   10.5754   -7.6065 H   0  0  0  0  0  0  0  0  0  0  0  0
    1.4809   14.2752   -6.0543 H   0  0  0  0  0  0  0  0  0  0  0  0
    0.2393   15.4453   -6.6162 H   0  0  0  0  0  0  0  0  0  0  0  0
    0.1804   14.8105   -4.9369 H   0  0  0  0  0  0  0  0  0  0  0  0
   -6.4038   13.9739  -13.9153 H   0  0  0  0  0  0  0  0  0  0  0  0
   -5.1384   15.8875  -14.4370 H   0  0  0  0  0  0  0  0  0  0  0  0
   -3.3221   16.5493  -12.8978 H   0  0  0  0  0  0  0  0  0  0  0  0
   -4.4255   13.3274  -10.3224 H   0  0  0  0  0  0  0  0  0  0  0  0
   -2.6901   14.6302   -9.9383 H   0  0  0  0  0  0  0  0  0  0  0  0
   -1.8356   15.1840  -11.2148 H   0  0  0  0  0  0  0  0  0  0  0  0
  1  2  1  0  0  0  0
  1  4  1  0  0  0  0
  1 11  2  0  0  0  0
  2  6  2  0  0  0  0
  3  4  2  0  0  0  0
  3  5  1  0  0  0  0
  5  6  1  0  0  0  0
  5  9  2  0  0  0  0
  6  7  1  0  0  0  0
  7  8  2  0  0  0  0
  7 10  1  0  0  0  0
  8  9  1  0  0  0  0
 10 12  2  0  0  0  0
 11 24  1  0  0  0  0
 11 28  1  0  0  0  0
 12 13  1  0  0  0  0
 12 17  1  0  0  0  0
 13 14  2  0  0  0  0
 14 15  1  0  0  0  0
 15 16  1  0  0  0  0
 15 18  2  0  0  0  0
 16 17  2  0  0  0  0
 18 19  1  0  0  0  0
 18 22  1  0  0  0  0
 19 20  1  0  0  0  0
 20 21  1  0  0  0  0
 20 23  1  0  0  0  0
 21 22  2  0  0  0  0
 24 25  1  0  0  0  0
 25 26  2  0  0  0  0
 26 27  1  0  0  0  0
 27 28  2  0  0  0  0
 27 29  1  0  0  0  0
  2 30  1  0  0  0  0
  3 31  1  0  0  0  0
  4 32  1  0  0  0  0
 10 33  1  0  0  0  0
 13 34  1  0  0  0  0
 14 35  1  0  0  0  0
 16 36  1  0  0  0  0
 17 37  1  0  0  0  0
 19 38  1  0  0  0  0
 19 39  1  0  0  0  0
 22 40  1  0  0  0  0
 23 41  1  0  0  0  0
 23 42  1  0  0  0  0
 23 43  1  0  0  0  0
 24 44  1  0  0  0  0
 25 45  1  0  0  0  0
 26 46  1  0  0  0  0
 28 47  1  0  0  0  0
 29 48  1  0  0  0  0
 29 49  1  0  0  0  0
M  END
> <Name>
23

> <IC50[uM]>
0.27

$$$$
23
  -OEChem-05192314333D
 Structure written by MMmdl.
 49 53  0     1  0  0  0  0  0999 V2000
   -6.3775   12.3296  -12.0018 C   0  0  0  0  0  0  0  0  0  0  0  0
   -6.5098   11.7629  -10.7403 C   0  0  0  0  0  0  0  0  0  0  0  0
   -7.7247   10.5660  -13.0266 C   0  0  0  0  0  0  0  0  0  0  0  0
   -6.9942   11.7487  -13.1193 C   0  0  0  0  0  0  0  0  0  0  0  0
   -7.8312   10.0057  -11.7538 C   0  0  0  0  0  0  0  0  0  0  0  0
   -7.2443   10.6021  -10.6070 C   0  0  0  0  0  0  0  0  0  0  0  0
   -7.6167    9.7449   -9.5151 C   0  0  0  0  0  0  0  0  0  0  0  0
   -8.2961    8.7374   -9.9786 N   0  0  0  0  0  0  0  0  0  0  0  0
   -8.4404    8.8724  -11.2937 N   0  0  0  0  0  0  0  0  0  0  0  0
   -7.3318    9.8946   -8.0252 C   0  0  0  0  0  0  0  0  0  0  0  0
   -5.5478   13.5112  -12.1572 C   0  0  0  0  0  0  0  0  0  0  0  0
   -5.9707   10.4870   -7.7351 C   0  0  0  0  0  0  0  0  0  0  0  0
   -5.8642   11.7588   -7.1694 C   0  0  0  0  0  0  0  0  0  0  0  0
   -4.6019   12.3141   -6.9186 C   0  0  0  0  0  0  0  0  0  0  0  0
   -3.4503   11.5963   -7.2357 C   0  0  0  0  0  0  0  0  0  0  0  0
   -3.5604   10.3220   -7.8000 C   0  0  0  0  0  0  0  0  0  0  0  0
   -4.8213    9.7719   -8.0443 C   0  0  0  0  0  0  0  0  0  0  0  0
   -2.0996   12.1710   -6.9757 C   0  0  0  0  0  0  0  0  0  0  0  0
   -1.7487   13.4240   -6.4767 C   0  0  0  0  0  0  0  0  0  0  0  0
   -0.4123   13.4674   -6.4260 N   0  0  3  0  0  0  0  0  0  0  0  0
    0.1713   12.3664   -6.8217 N   0  0  0  0  0  0  0  0  0  0  0  0
   -0.8093   11.5624   -7.1930 C   0  0  0  0  0  0  0  0  0  0  0  0
    0.4224   14.5657   -5.9816 C   0  0  0  0  0  0  0  0  0  0  0  0
   -5.6966   14.2423  -13.2612 N   0  0  0  0  0  0  0  0  0  0  0  0
   -4.9506   15.3153  -13.5405 C   0  0  0  0  0  0  0  0  0  0  0  0
   -3.9383   15.6899  -12.6782 C   0  0  0  0  0  0  0  0  0  0  0  0
   -3.7261   14.9536  -11.5366 C   0  0  0  0  0  0  0  0  0  0  0  0
   -4.5508   13.8769  -11.2437 C   0  0  0  0  0  0  0  0  0  0  0  0
   -2.6976   15.2614  -10.7139 N   0  0  0  0  0  0  0  0  0  0  0  0
   -6.0464   12.2223   -9.8797 H   0  0  0  0  0  0  0  0  0  0  0  0
   -8.1826   10.1089  -13.8914 H   0  0  0  0  0  0  0  0  0  0  0  0
   -6.9001   12.2325  -14.0803 H   0  0  0  0  0  0  0  0  0  0  0  0
   -8.0313    9.6067   -7.2544 H   0  0  0  0  0  0  0  0  0  0  0  0
   -5.9850   10.0375   -6.7313 H   0  0  0  0  0  0  0  0  0  0  0  0
   -6.7563   12.3160   -6.9245 H   0  0  0  0  0  0  0  0  0  0  0  0
   -4.5218   13.2977   -6.4798 H   0  0  0  0  0  0  0  0  0  0  0  0
   -2.6703    9.7625   -8.0472 H   0  0  0  0  0  0  0  0  0  0  0  0
   -4.9024    8.7852   -8.4759 H   0  0  0  0  0  0  0  0  0  0  0  0
   -2.1269   14.2144   -7.1418 H   0  0  0  0  0  0  0  0  0  0  0  0
   -2.1691   13.5602   -5.4694 H   0  0  0  0  0  0  0  0  0  0  0  0
   -0.6637   10.5754   -7.6065 H   0  0  0  0  0  0  0  0  0  0  0  0
    1.4809   14.2752   -6.0543 H   0  0  0  0  0  0  0  0  0  0  0  0
    0.2393   15.4453   -6.6162 H   0  0  0  0  0  0  0  0  0  0  0  0
    0.1804   14.8105   -4.9369 H   0  0  0  0  0  0  0  0  0  0  0  0
   -5.1384   15.8875  -14.4370 H   0  0  0  0  0  0  0  0  0  0  0  0
   -3.3221   16.5493  -12.8978 H   0  0  0  0  0  0  0  0  0  0  0  0
   -4.4255   13.3274  -10.3224 H   0  0  0  0  0  0  0  0  0  0  0  0
   -2.6901   14.6302   -9.9383 H   0  0  0  0  0  0  0  0  0  0  0  0
   -1.8356   15.1840  -11.2148 H   0  0  0  0  0  0  0  0  0  0  0  0
  1  2  2  0  0  0  0
  1  4  1  0  0  0  0
  1 11  1  0  0  0  0
  2  6  1  0  0  0  0
  3  4  2  0  0  0  0
  3  5  1  0  0  0  0
  5  6  2  0  0  0  0
  5  9  1  0  0  0  0
  6  7  1  0  0  0  0
  7  8  1  0  0  0  0
  7 10  2  3  0  0  0
  8  9  2  0  0  0  0
 10 12  1  0  0  0  0
 11 24  2  0  0  0  0
 11 28  1  0  0  0  0
 12 13  1  0  0  0  0
 12 17  1  0  0  0  0
 13 14  2  0  0  0  0
 14 15  1  0  0  0  0
 15 16  1  0  0  0  0
 15 18  2  0  0  0  0
 16 17  2  0  0  0  0
 18 19  1  0  0  0  0
 18 22  1  0  0  0  0
 19 20  1  0  0  0  0
 20 21  1  0  0  0  0
 20 23  1  0  0  0  0
 21 22  2  0  0  0  0
 24 25  1  0  0  0  0
 25 26  2  0  0  0  0
 26 27  1  0  0  0  0
 27 28  2  0  0  0  0
 27 29  1  0  0  0  0
  2 30  1  0  0  0  0
  3 31  1  0  0  0  0
  4 32  1  0  0  0  0
 10 33  1  0  0  0  0
 12 34  1  0  0  0  0
 13 35  1  0  0  0  0
 14 36  1  0  0  0  0
 16 37  1  0  0  0  0
 17 38  1  0  0  0  0
 19 39  1  0  0  0  0
 19 40  1  0  0  0  0
 22 41  1  0  0  0  0
 23 42  1  0  0  0  0
 23 43  1  0  0  0  0
 23 44  1  0  0  0  0
 25 45  1  0  0  0  0
 26 46  1  0  0  0  0
 28 47  1  0  0  0  0
 29 48  1  0  0  0  0
 29 49  1  0  0  0  0
M  END
> <Name>
23

> <IC50[uM]>
0.27

$$$$
23
  -OEChem-05192314333D
 Structure written by MMmdl.
 49 53  0     1  0  0  0  0  0999 V2000
   -6.3775   12.3296  -12.0018 C   0  0  0  0  0  0  0  0  0  0  0  0
   -6.5098   11.7629  -10.7403 C   0  0  0  0  0  0  0  0  0  0  0  0
   -7.7247   10.5660  -13.0266 C   0  0  0  0  0  0  0  0  0  0  0  0
   -6.9942   11.7487  -13.1193 C   0  0  0  0  0  0  0  0  0  0  0  0
   -7.8312   10.0057  -11.7538 C   0  0  0  0  0  0  0  0  0  0  0  0
   -7.2443   10.6021  -10.6070 C   0  0  0  0  0  0  0  0  0  0  0  0
   -7.6167    9.7449   -9.5151 C   0  0  0  0  0  0  0  0  0  0  0  0
   -8.2961    8.7374   -9.9786 N   0  0  0  0  0  0  0  0  0  0  0  0
   -8.4404    8.8724  -11.2937 N   0  0  0  0  0  0  0  0  0  0  0  0
   -7.3318    9.8946   -8.0252 C   0  0  0  0  0  0  0  0  0  0  0  0
   -5.5478   13.5112  -12.1572 C   0  0  0  0  0  0  0  0  0  0  0  0
   -5.9707   10.4870   -7.7351 C   0  0  0  0  0  0  0  0  0  0  0  0
   -5.8642   11.7588   -7.1694 C   0  0  0  0  0  0  0  0  0  0  0  0
   -4.6019   12.3141   -6.9186 C   0  0  0  0  0  0  0  0  0  0  0  0
   -3.4503   11.5963   -7.2357 C   0  0  0  0  0  0  0  0  0  0  0  0
   -3.5604   10.3220   -7.8000 C   0  0  0  0  0  0  0  0  0  0  0  0
   -4.8213    9.7719   -8.0443 C   0  0  0  0  0  0  0  0  0  0  0  0
   -2.0996   12.1710   -6.9757 C   0  0  0  0  0  0  0  0  0  0  0  0
   -1.7487   13.4240   -6.4767 C   0  0  0  0  0  0  0  0  0  0  0  0
   -0.4123   13.4674   -6.4260 N   0  0  3  0  0  0  0  0  0  0  0  0
    0.1713   12.3664   -6.8217 N   0  0  0  0  0  0  0  0  0  0  0  0
   -0.8093   11.5624   -7.1930 C   0  0  0  0  0  0  0  0  0  0  0  0
    0.4224   14.5657   -5.9816 C   0  0  0  0  0  0  0  0  0  0  0  0
   -5.6966   14.2423  -13.2612 N   0  0  0  0  0  0  0  0  0  0  0  0
   -4.9506   15.3153  -13.5405 C   0  0  0  0  0  0  0  0  0  0  0  0
   -3.9383   15.6899  -12.6782 C   0  0  0  0  0  0  0  0  0  0  0  0
   -3.7261   14.9536  -11.5366 C   0  0  0  0  0  0  0  0  0  0  0  0
   -4.5508   13.8769  -11.2437 C   0  0  0  0  0  0  0  0  0  0  0  0
   -2.6976   15.2614  -10.7139 N   0  0  0  0  0  0  0  0  0  0  0  0
   -6.0464   12.2223   -9.8797 H   0  0  0  0  0  0  0  0  0  0  0  0
   -8.1826   10.1089  -13.8914 H   0  0  0  0  0  0  0  0  0  0  0  0
   -6.9001   12.2325  -14.0803 H   0  0  0  0  0  0  0  0  0  0  0  0
   -8.0313    9.6067   -7.2544 H   0  0  0  0  0  0  0  0  0  0  0  0
   -6.7563   12.3160   -6.9245 H   0  0  0  0  0  0  0  0  0  0  0  0
   -4.5527   13.2582   -7.4809 H   0  0  0  0  0  0  0  0  0  0  0  0
   -4.5569   12.5268   -5.8403 H   0  0  0  0  0  0  0  0  0  0  0  0
   -2.6703    9.7625   -8.0472 H   0  0  0  0  0  0  0  0  0  0  0  0
   -4.9024    8.7852   -8.4759 H   0  0  0  0  0  0  0  0  0  0  0  0
   -2.1269   14.2144   -7.1418 H   0  0  0  0  0  0  0  0  0  0  0  0
   -2.1691   13.5602   -5.4694 H   0  0  0  0  0  0  0  0  0  0  0  0
   -0.6637   10.5754   -7.6065 H   0  0  0  0  0  0  0  0  0  0  0  0
    1.4809   14.2752   -6.0543 H   0  0  0  0  0  0  0  0  0  0  0  0
    0.2393   15.4453   -6.6162 H   0  0  0  0  0  0  0  0  0  0  0  0
    0.1804   14.8105   -4.9369 H   0  0  0  0  0  0  0  0  0  0  0  0
   -5.1384   15.8875  -14.4370 H   0  0  0  0  0  0  0  0  0  0  0  0
   -3.3221   16.5493  -12.8978 H   0  0  0  0  0  0  0  0  0  0  0  0
   -4.4255   13.3274  -10.3224 H   0  0  0  0  0  0  0  0  0  0  0  0
   -2.6901   14.6302   -9.9383 H   0  0  0  0  0  0  0  0  0  0  0  0
   -1.8356   15.1840  -11.2148 H   0  0  0  0  0  0  0  0  0  0  0  0
  1  2  2  0  0  0  0
  1  4  1  0  0  0  0
  1 11  1  0  0  0  0
  2  6  1  0  0  0  0
  3  4  2  0  0  0  0
  3  5  1  0  0  0  0
  5  6  2  0  0  0  0
  5  9  1  0  0  0  0
  6  7  1  0  0  0  0
  7  8  1  0  0  0  0
  7 10  2  3  0  0  0
  8  9  2  0  0  0  0
 10 12  1  0  0  0  0
 11 24  2  0  0  0  0
 11 28  1  0  0  0  0
 12 13  2  0  0  0  0
 12 17  1  0  0  0  0
 13 14  1  0  0  0  0
 14 15  1  0  0  0  0
 15 16  1  0  0  0  0
 15 18  2  0  0  0  0
 16 17  2  0  0  0  0
 18 19  1  0  0  0  0
 18 22  1  0  0  0  0
 19 20  1  0  0  0  0
 20 21  1  0  0  0  0
 20 23  1  0  0  0  0
 21 22  2  0  0  0  0
 24 25  1  0  0  0  0
 25 26  2  0  0  0  0
 26 27  1  0  0  0  0
 27 28  2  0  0  0  0
 27 29  1  0  0  0  0
  2 30  1  0  0  0  0
  3 31  1  0  0  0  0
  4 32  1  0  0  0  0
 10 33  1  0  0  0  0
 13 34  1  0  0  0  0
 14 35  1  0  0  0  0
 14 36  1  0  0  0  0
 16 37  1  0  0  0  0
 17 38  1  0  0  0  0
 19 39  1  0  0  0  0
 19 40  1  0  0  0  0
 22 41  1  0  0  0  0
 23 42  1  0  0  0  0
 23 43  1  0  0  0  0
 23 44  1  0  0  0  0
 25 45  1  0  0  0  0
 26 46  1  0  0  0  0
 28 47  1  0  0  0  0
 29 48  1  0  0  0  0
 29 49  1  0  0  0  0
M  END
> <Name>
23

> <IC50[uM]>
0.27

$$$$
23
  -OEChem-05192314333D
 Structure written by MMmdl.
 49 53  0     1  0  0  0  0  0999 V2000
   -6.3775   12.3296  -12.0018 C   0  0  3  0  0  0  0  0  0  0  0  0
   -6.5098   11.7629  -10.7403 C   0  0  0  0  0  0  0  0  0  0  0  0
   -7.7247   10.5660  -13.0266 C   0  0  0  0  0  0  0  0  0  0  0  0
   -6.9942   11.7487  -13.1193 C   0  0  0  0  0  0  0  0  0  0  0  0
   -7.8312   10.0057  -11.7538 C   0  0  0  0  0  0  0  0  0  0  0  0
   -7.2443   10.6021  -10.6070 C   0  0  0  0  0  0  0  0  0  0  0  0
   -7.6167    9.7449   -9.5151 C   0  0  0  0  0  0  0  0  0  0  0  0
   -8.2961    8.7374   -9.9786 N   0  0  0  0  0  0  0  0  0  0  0  0
   -8.4404    8.8724  -11.2937 N   0  0  0  0  0  0  0  0  0  0  0  0
   -7.3318    9.8946   -8.0252 C   0  0  0  0  0  0  0  0  0  0  0  0
   -5.5478   13.5112  -12.1572 C   0  0  0  0  0  0  0  0  0  0  0  0
   -5.9707   10.4870   -7.7351 C   0  0  0  0  0  0  0  0  0  0  0  0
   -5.8642   11.7588   -7.1694 C   0  0  0  0  0  0  0  0  0  0  0  0
   -4.6019   12.3141   -6.9186 C   0  0  0  0  0  0  0  0  0  0  0  0
   -3.4503   11.5963   -7.2357 C   0  0  0  0  0  0  0  0  0  0  0  0
   -3.5604   10.3220   -7.8000 C   0  0  0  0  0  0  0  0  0  0  0  0
   -4.8213    9.7719   -8.0443 C   0  0  0  0  0  0  0  0  0  0  0  0
   -2.0996   12.1710   -6.9757 C   0  0  0  0  0  0  0  0  0  0  0  0
   -1.7487   13.4240   -6.4767 C   0  0  0  0  0  0  0  0  0  0  0  0
   -0.4123   13.4674   -6.4260 N   0  0  3  0  0  0  0  0  0  0  0  0
    0.1713   12.3664   -6.8217 N   0  0  0  0  0  0  0  0  0  0  0  0
   -0.8093   11.5624   -7.1930 C   0  0  0  0  0  0  0  0  0  0  0  0
    0.4224   14.5657   -5.9816 C   0  0  0  0  0  0  0  0  0  0  0  0
   -5.6966   14.2423  -13.2612 N   0  0  0  0  0  0  0  0  0  0  0  0
   -4.9506   15.3153  -13.5405 C   0  0  0  0  0  0  0  0  0  0  0  0
   -3.9383   15.6899  -12.6782 C   0  0  0  0  0  0  0  0  0  0  0  0
   -3.7261   14.9536  -11.5366 C   0  0  0  0  0  0  0  0  0  0  0  0
   -4.5508   13.8769  -11.2437 C   0  0  0  0  0  0  0  0  0  0  0  0
   -2.6976   15.2614  -10.7139 N   0  0  0  0  0  0  0  0  0  0  0  0
   -7.2621   12.9592  -11.8254 H   0  0  0  0  0  0  0  0  0  0  0  0
   -6.0464   12.2223   -9.8797 H   0  0  0  0  0  0  0  0  0  0  0  0
   -8.1826   10.1089  -13.8914 H   0  0  0  0  0  0  0  0  0  0  0  0
   -6.9001   12.2325  -14.0803 H   0  0  0  0  0  0  0  0  0  0  0  0
   -8.0313    9.6067   -7.2544 H   0  0  0  0  0  0  0  0  0  0  0  0
   -6.7563   12.3160   -6.9245 H   0  0  0  0  0  0  0  0  0  0  0  0
   -4.5218   13.2977   -6.4798 H   0  0  0  0  0  0  0  0  0  0  0  0
   -2.6703    9.7625   -8.0472 H   0  0  0  0  0  0  0  0  0  0  0  0
   -4.9024    8.7852   -8.4759 H   0  0  0  0  0  0  0  0  0  0  0  0
   -2.1269   14.2144   -7.1418 H   0  0  0  0  0  0  0  0  0  0  0  0
   -2.1691   13.5602   -5.4694 H   0  0  0  0  0  0  0  0  0  0  0  0
   -0.6637   10.5754   -7.6065 H   0  0  0  0  0  0  0  0  0  0  0  0
    1.4809   14.2752   -6.0543 H   0  0  0  0  0  0  0  0  0  0  0  0
    0.2393   15.4453   -6.6162 H   0  0  0  0  0  0  0  0  0  0  0  0
    0.1804   14.8105   -4.9369 H   0  0  0  0  0  0  0  0  0  0  0  0
   -5.1384   15.8875  -14.4370 H   0  0  0  0  0  0  0  0  0  0  0  0
   -3.3221   16.5493  -12.8978 H   0  0  0  0  0  0  0  0  0  0  0  0
   -4.4255   13.3274  -10.3224 H   0  0  0  0  0  0  0  0  0  0  0  0
   -2.6901   14.6302   -9.9383 H   0  0  0  0  0  0  0  0  0  0  0  0
   -1.8356   15.1840  -11.2148 H   0  0  0  0  0  0  0  0  0  0  0  0
  1  2  1  0  0  0  0
  1  4  1  0  0  0  0
  1 11  1  0  0  0  0
  2  6  2  0  0  0  0
  3  4  2  0  0  0  0
  3  5  1  0  0  0  0
  5  6  1  0  0  0  0
  5  9  2  0  0  0  0
  6  7  1  0  0  0  0
  7  8  2  0  0  0  0
  7 10  1  0  0  0  0
  8  9  1  0  0  0  0
 10 12  2  0  0  0  0
 11 24  2  0  0  0  0
 11 28  1  0  0  0  0
 12 13  1  0  0  0  0
 12 17  1  0  0  0  0
 13 14  2  0  0  0  0
 14 15  1  0  0  0  0
 15 16  1  0  0  0  0
 15 18  2  0  0  0  0
 16 17  2  0  0  0  0
 18 19  1  0  0  0  0
 18 22  1  0  0  0  0
 19 20  1  0  0  0  0
 20 21  1  0  0  0  0
 20 23  1  0  0  0  0
 21 22  2  0  0  0  0
 24 25  1  0  0  0  0
 25 26  2  0  0  0  0
 26 27  1  0  0  0  0
 27 28  2  0  0  0  0
 27 29  1  0  0  0  0
  1 30  1  0  0  0  0
  2 31  1  0  0  0  0
  3 32  1  0  0  0  0
  4 33  1  0  0  0  0
 10 34  1  0  0  0  0
 13 35  1  0  0  0  0
 14 36  1  0  0  0  0
 16 37  1  0  0  0  0
 17 38  1  0  0  0  0
 19 39  1  0  0  0  0
 19 40  1  0  0  0  0
 22 41  1  0  0  0  0
 23 42  1  0  0  0  0
 23 43  1  0  0  0  0
 23 44  1  0  0  0  0
 25 45  1  0  0  0  0
 26 46  1  0  0  0  0
 28 47  1  0  0  0  0
 29 48  1  0  0  0  0
 29 49  1  0  0  0  0
M  END
> <Name>
23

> <IC50[uM]>
0.27

$$$$
23
  -OEChem-05192314333D
 Structure written by MMmdl.
 49 53  0     1  0  0  0  0  0999 V2000
   -6.3775   12.3296  -12.0018 C   0  0  0  0  0  0  0  0  0  0  0  0
   -6.5098   11.7629  -10.7403 C   0  0  0  0  0  0  0  0  0  0  0  0
   -7.7247   10.5660  -13.0266 C   0  0  0  0  0  0  0  0  0  0  0  0
   -6.9942   11.7487  -13.1193 C   0  0  0  0  0  0  0  0  0  0  0  0
   -7.8312   10.0057  -11.7538 C   0  0  0  0  0  0  0  0  0  0  0  0
   -7.2443   10.6021  -10.6070 C   0  0  3  0  0  0  0  0  0  0  0  0
   -7.6167    9.7449   -9.5151 C   0  0  0  0  0  0  0  0  0  0  0  0
   -8.2961    8.7374   -9.9786 N   0  0  0  0  0  0  0  0  0  0  0  0
   -8.4404    8.8724  -11.2937 N   0  0  0  0  0  0  0  0  0  0  0  0
   -7.3318    9.8946   -8.0252 C   0  0  0  0  0  0  0  0  0  0  0  0
   -5.5478   13.5112  -12.1572 C   0  0  0  0  0  0  0  0  0  0  0  0
   -5.9707   10.4870   -7.7351 C   0  0  0  0  0  0  0  0  0  0  0  0
   -5.8642   11.7588   -7.1694 C   0  0  0  0  0  0  0  0  0  0  0  0
   -4.6019   12.3141   -6.9186 C   0  0  0  0  0  0  0  0  0  0  0  0
   -3.4503   11.5963   -7.2357 C   0  0  0  0  0  0  0  0  0  0  0  0
   -3.5604   10.3220   -7.8000 C   0  0  0  0  0  0  0  0  0  0  0  0
   -4.8213    9.7719   -8.0443 C   0  0  0  0  0  0  0  0  0  0  0  0
   -2.0996   12.1710   -6.9757 C   0  0  0  0  0  0  0  0  0  0  0  0
   -1.7487   13.4240   -6.4767 C   0  0  0  0  0  0  0  0  0  0  0  0
   -0.4123   13.4674   -6.4260 N   0  0  3  0  0  0  0  0  0  0  0  0
    0.1713   12.3664   -6.8217 N   0  0  0  0  0  0  0  0  0  0  0  0
   -0.8093   11.5624   -7.1930 C   0  0  0  0  0  0  0  0  0  0  0  0
    0.4224   14.5657   -5.9816 C   0  0  0  0  0  0  0  0  0  0  0  0
   -5.6966   14.2423  -13.2612 N   0  0  0  0  0  0  0  0  0  0  0  0
   -4.9506   15.3153  -13.5405 C   0  0  0  0  0  0  0  0  0  0  0  0
   -3.9383   15.6899  -12.6782 C   0  0  0  0  0  0  0  0  0  0  0  0
   -3.7261   14.9536  -11.5366 C   0  0  0  0  0  0  0  0  0  0  0  0
   -4.5508   13.8769  -11.2437 C   0  0  0  0  0  0  0  0  0  0  0  0
   -2.6976   15.2614  -10.7139 N   0  0  0  0  0  0  0  0  0  0  0  0
   -6.0464   12.2223   -9.8797 H   0  0  0  0  0  0  0  0  0  0  0  0
   -8.1826   10.1089  -13.8914 H   0  0  0  0  0  0  0  0  0  0  0  0
   -6.9001   12.2325  -14.0803 H   0  0  0  0  0  0  0  0  0  0  0  0
   -6.3326   10.0069  -10.7637 H   0  0  0  0  0  0  0  0  0  0  0  0
   -8.0313    9.6067   -7.2544 H   0  0  0  0  0  0  0  0  0  0  0  0
   -6.7563   12.3160   -6.9245 H   0  0  0  0  0  0  0  0  0  0  0  0
   -4.5218   13.2977   -6.4798 H   0  0  0  0  0  0  0  0  0  0  0  0
   -2.6703    9.7625   -8.0472 H   0  0  0  0  0  0  0  0  0  0  0  0
   -4.9024    8.7852   -8.4759 H   0  0  0  0  0  0  0  0  0  0  0  0
   -2.1269   14.2144   -7.1418 H   0  0  0  0  0  0  0  0  0  0  0  0
   -2.1691   13.5602   -5.4694 H   0  0  0  0  0  0  0  0  0  0  0  0
   -0.6637   10.5754   -7.6065 H   0  0  0  0  0  0  0  0  0  0  0  0
    1.4809   14.2752   -6.0543 H   0  0  0  0  0  0  0  0  0  0  0  0
    0.2393   15.4453   -6.6162 H   0  0  0  0  0  0  0  0  0  0  0  0
    0.1804   14.8105   -4.9369 H   0  0  0  0  0  0  0  0  0  0  0  0
   -5.1384   15.8875  -14.4370 H   0  0  0  0  0  0  0  0  0  0  0  0
   -3.3221   16.5493  -12.8978 H   0  0  0  0  0  0  0  0  0  0  0  0
   -4.4255   13.3274  -10.3224 H   0  0  0  0  0  0  0  0  0  0  0  0
   -2.6901   14.6302   -9.9383 H   0  0  0  0  0  0  0  0  0  0  0  0
   -1.8356   15.1840  -11.2148 H   0  0  0  0  0  0  0  0  0  0  0  0
  1  2  2  0  0  0  0
  1  4  1  0  0  0  0
  1 11  1  0  0  0  0
  2  6  1  0  0  0  0
  3  4  2  0  0  0  0
  3  5  1  0  0  0  0
  5  6  1  0  0  0  0
  5  9  2  0  0  0  0
  6  7  1  0  0  0  0
  7  8  2  0  0  0  0
  7 10  1  0  0  0  0
  8  9  1  0  0  0  0
 10 12  2  0  0  0  0
 11 24  2  0  0  0  0
 11 28  1  0  0  0  0
 12 13  1  0  0  0  0
 12 17  1  0  0  0  0
 13 14  2  0  0  0  0
 14 15  1  0  0  0  0
 15 16  1  0  0  0  0
 15 18  2  0  0  0  0
 16 17  2  0  0  0  0
 18 19  1  0  0  0  0
 18 22  1  0  0  0  0
 19 20  1  0  0  0  0
 20 21  1  0  0  0  0
 20 23  1  0  0  0  0
 21 22  2  0  0  0  0
 24 25  1  0  0  0  0
 25 26  2  0  0  0  0
 26 27  1  0  0  0  0
 27 28  2  0  0  0  0
 27 29  1  0  0  0  0
  2 30  1  0  0  0  0
  3 31  1  0  0  0  0
  4 32  1  0  0  0  0
  6 33  1  0  0  0  0
 10 34  1  0  0  0  0
 13 35  1  0  0  0  0
 14 36  1  0  0  0  0
 16 37  1  0  0  0  0
 17 38  1  0  0  0  0
 19 39  1  0  0  0  0
 19 40  1  0  0  0  0
 22 41  1  0  0  0  0
 23 42  1  0  0  0  0
 23 43  1  0  0  0  0
 23 44  1  0  0  0  0
 25 45  1  0  0  0  0
 26 46  1  0  0  0  0
 28 47  1  0  0  0  0
 29 48  1  0  0  0  0
 29 49  1  0  0  0  0
M  END
> <Name>
23

> <IC50[uM]>
0.27

$$$$
23
  -OEChem-05192314333D
 Structure written by MMmdl.
 49 53  0     1  0  0  0  0  0999 V2000
   -6.3775   12.3296  -12.0018 C   0  0  0  0  0  0  0  0  0  0  0  0
   -6.5098   11.7629  -10.7403 C   0  0  0  0  0  0  0  0  0  0  0  0
   -7.7247   10.5660  -13.0266 C   0  0  0  0  0  0  0  0  0  0  0  0
   -6.9942   11.7487  -13.1193 C   0  0  0  0  0  0  0  0  0  0  0  0
   -7.8312   10.0057  -11.7538 C   0  0  0  0  0  0  0  0  0  0  0  0
   -7.2443   10.6021  -10.6070 C   0  0  0  0  0  0  0  0  0  0  0  0
   -7.6167    9.7449   -9.5151 C   0  0  0  0  0  0  0  0  0  0  0  0
   -8.2961    8.7374   -9.9786 N   0  0  0  0  0  0  0  0  0  0  0  0
   -8.4404    8.8724  -11.2937 N   0  0  0  0  0  0  0  0  0  0  0  0
   -7.3318    9.8946   -8.0252 C   0  0  0  0  0  0  0  0  0  0  0  0
   -5.5478   13.5112  -12.1572 C   0  0  0  0  0  0  0  0  0  0  0  0
   -5.9707   10.4870   -7.7351 C   0  0  0  0  0  0  0  0  0  0  0  0
   -5.8642   11.7588   -7.1694 C   0  0  0  0  0  0  0  0  0  0  0  0
   -4.6019   12.3141   -6.9186 C   0  0  0  0  0  0  0  0  0  0  0  0
   -3.4503   11.5963   -7.2357 C   0  0  0  0  0  0  0  0  0  0  0  0
   -3.5604   10.3220   -7.8000 C   0  0  0  0  0  0  0  0  0  0  0  0
   -4.8213    9.7719   -8.0443 C   0  0  0  0  0  0  0  0  0  0  0  0
   -2.0996   12.1710   -6.9757 C   0  0  0  0  0  0  0  0  0  0  0  0
   -1.7487   13.4240   -6.4767 C   0  0  0  0  0  0  0  0  0  0  0  0
   -0.4123   13.4674   -6.4260 N   0  0  3  0  0  0  0  0  0  0  0  0
    0.1713   12.3664   -6.8217 N   0  0  0  0  0  0  0  0  0  0  0  0
   -0.8093   11.5624   -7.1930 C   0  0  0  0  0  0  0  0  0  0  0  0
    0.4224   14.5657   -5.9816 C   0  0  0  0  0  0  0  0  0  0  0  0
   -5.6966   14.2423  -13.2612 N   0  0  0  0  0  0  0  0  0  0  0  0
   -4.9506   15.3153  -13.5405 C   0  0  0  0  0  0  0  0  0  0  0  0
   -3.9383   15.6899  -12.6782 C   0  0  0  0  0  0  0  0  0  0  0  0
   -3.7261   14.9536  -11.5366 C   0  0  0  0  0  0  0  0  0  0  0  0
   -4.5508   13.8769  -11.2437 C   0  0  0  0  0  0  0  0  0  0  0  0
   -2.6976   15.2614  -10.7139 N   0  0  0  0  0  0  0  0  0  0  0  0
   -6.0464   12.2223   -9.8797 H   0  0  0  0  0  0  0  0  0  0  0  0
   -8.7428   10.7712  -13.3891 H   0  0  0  0  0  0  0  0  0  0  0  0
   -7.2451    9.8233  -13.6811 H   0  0  0  0  0  0  0  0  0  0  0  0
   -6.9001   12.2325  -14.0803 H   0  0  0  0  0  0  0  0  0  0  0  0
   -8.0313    9.6067   -7.2544 H   0  0  0  0  0  0  0  0  0  0  0  0
   -6.7563   12.3160   -6.9245 H   0  0  0  0  0  0  0  0  0  0  0  0
   -4.5218   13.2977   -6.4798 H   0  0  0  0  0  0  0  0  0  0  0  0
   -2.6703    9.7625   -8.0472 H   0  0  0  0  0  0  0  0  0  0  0  0
   -4.9024    8.7852   -8.4759 H   0  0  0  0  0  0  0  0  0  0  0  0
   -2.1269   14.2144   -7.1418 H   0  0  0  0  0  0  0  0  0  0  0  0
   -2.1691   13.5602   -5.4694 H   0  0  0  0  0  0  0  0  0  0  0  0
   -0.6637   10.5754   -7.6065 H   0  0  0  0  0  0  0  0  0  0  0  0
    1.4809   14.2752   -6.0543 H   0  0  0  0  0  0  0  0  0  0  0  0
    0.2393   15.4453   -6.6162 H   0  0  0  0  0  0  0  0  0  0  0  0
    0.1804   14.8105   -4.9369 H   0  0  0  0  0  0  0  0  0  0  0  0
   -5.1384   15.8875  -14.4370 H   0  0  0  0  0  0  0  0  0  0  0  0
   -3.3221   16.5493  -12.8978 H   0  0  0  0  0  0  0  0  0  0  0  0
   -4.4255   13.3274  -10.3224 H   0  0  0  0  0  0  0  0  0  0  0  0
   -2.6901   14.6302   -9.9383 H   0  0  0  0  0  0  0  0  0  0  0  0
   -1.8356   15.1840  -11.2148 H   0  0  0  0  0  0  0  0  0  0  0  0
  1  2  1  0  0  0  0
  1  4  2  0  0  0  0
  1 11  1  0  0  0  0
  2  6  2  0  0  0  0
  3  4  1  0  0  0  0
  3  5  1  0  0  0  0
  5  6  1  0  0  0  0
  5  9  2  0  0  0  0
  6  7  1  0  0  0  0
  7  8  2  0  0  0  0
  7 10  1  0  0  0  0
  8  9  1  0  0  0  0
 10 12  2  0  0  0  0
 11 24  2  0  0  0  0
 11 28  1  0  0  0  0
 12 13  1  0  0  0  0
 12 17  1  0  0  0  0
 13 14  2  0  0  0  0
 14 15  1  0  0  0  0
 15 16  1  0  0  0  0
 15 18  2  0  0  0  0
 16 17  2  0  0  0  0
 18 19  1  0  0  0  0
 18 22  1  0  0  0  0
 19 20  1  0  0  0  0
 20 21  1  0  0  0  0
 20 23  1  0  0  0  0
 21 22  2  0  0  0  0
 24 25  1  0  0  0  0
 25 26  2  0  0  0  0
 26 27  1  0  0  0  0
 27 28  2  0  0  0  0
 27 29  1  0  0  0  0
  2 30  1  0  0  0  0
  3 31  1  0  0  0  0
  3 32  1  0  0  0  0
  4 33  1  0  0  0  0
 10 34  1  0  0  0  0
 13 35  1  0  0  0  0
 14 36  1  0  0  0  0
 16 37  1  0  0  0  0
 17 38  1  0  0  0  0
 19 39  1  0  0  0  0
 19 40  1  0  0  0  0
 22 41  1  0  0  0  0
 23 42  1  0  0  0  0
 23 43  1  0  0  0  0
 23 44  1  0  0  0  0
 25 45  1  0  0  0  0
 26 46  1  0  0  0  0
 28 47  1  0  0  0  0
 29 48  1  0  0  0  0
 29 49  1  0  0  0  0
M  END
> <Name>
23

> <IC50[uM]>
0.27

$$$$
23
  -OEChem-05192314333D
 Structure written by MMmdl.
 49 53  0     1  0  0  0  0  0999 V2000
   -6.3775   12.3296  -12.0018 C   0  0  0  0  0  0  0  0  0  0  0  0
   -6.5098   11.7629  -10.7403 C   0  0  0  0  0  0  0  0  0  0  0  0
   -7.7247   10.5660  -13.0266 C   0  0  0  0  0  0  0  0  0  0  0  0
   -6.9942   11.7487  -13.1193 C   0  0  0  0  0  0  0  0  0  0  0  0
   -7.8312   10.0057  -11.7538 C   0  0  0  0  0  0  0  0  0  0  0  0
   -7.2443   10.6021  -10.6070 C   0  0  0  0  0  0  0  0  0  0  0  0
   -7.6167    9.7449   -9.5151 C   0  0  0  0  0  0  0  0  0  0  0  0
   -8.2961    8.7374   -9.9786 N   0  0  0  0  0  0  0  0  0  0  0  0
   -8.4404    8.8724  -11.2937 N   0  0  0  0  0  0  0  0  0  0  0  0
   -7.3318    9.8946   -8.0252 C   0  0  0  0  0  0  0  0  0  0  0  0
   -5.5478   13.5112  -12.1572 C   0  0  0  0  0  0  0  0  0  0  0  0
   -5.9707   10.4870   -7.7351 C   0  0  0  0  0  0  0  0  0  0  0  0
   -5.8642   11.7588   -7.1694 C   0  0  0  0  0  0  0  0  0  0  0  0
   -4.6019   12.3141   -6.9186 C   0  0  0  0  0  0  0  0  0  0  0  0
   -3.4503   11.5963   -7.2357 C   0  0  0  0  0  0  0  0  0  0  0  0
   -3.5604   10.3220   -7.8000 C   0  0  0  0  0  0  0  0  0  0  0  0
   -4.8213    9.7719   -8.0443 C   0  0  0  0  0  0  0  0  0  0  0  0
   -2.0996   12.1710   -6.9757 C   0  0  0  0  0  0  0  0  0  0  0  0
   -1.7487   13.4240   -6.4767 C   0  0  0  0  0  0  0  0  0  0  0  0
   -0.4123   13.4674   -6.4260 N   0  0  3  0  0  0  0  0  0  0  0  0
    0.1713   12.3664   -6.8217 N   0  0  0  0  0  0  0  0  0  0  0  0
   -0.8093   11.5624   -7.1930 C   0  0  0  0  0  0  0  0  0  0  0  0
    0.4224   14.5657   -5.9816 C   0  0  0  0  0  0  0  0  0  0  0  0
   -5.6966   14.2423  -13.2612 N   0  0  0  0  0  0  0  0  0  0  0  0
   -4.9506   15.3153  -13.5405 C   0  0  0  0  0  0  0  0  0  0  0  0
   -3.9383   15.6899  -12.6782 C   0  0  0  0  0  0  0  0  0  0  0  0
   -3.7261   14.9536  -11.5366 C   0  0  0  0  0  0  0  0  0  0  0  0
   -4.5508   13.8769  -11.2437 C   0  0  0  0  0  0  0  0  0  0  0  0
   -2.6976   15.2614  -10.7139 N   0  0  0  0  0  0  0  0  0  0  0  0
   -6.0464   12.2223   -9.8797 H   0  0  0  0  0  0  0  0  0  0  0  0
   -8.1826   10.1089  -13.8914 H   0  0  0  0  0  0  0  0  0  0  0  0
   -6.9001   12.2325  -14.0803 H   0  0  0  0  0  0  0  0  0  0  0  0
   -8.0313    9.6067   -7.2544 H   0  0  0  0  0  0  0  0  0  0  0  0
   -5.9850   10.0375   -6.7313 H   0  0  0  0  0  0  0  0  0  0  0  0
   -6.7563   12.3160   -6.9245 H   0  0  0  0  0  0  0  0  0  0  0  0
   -4.5218   13.2977   -6.4798 H   0  0  0  0  0  0  0  0  0  0  0  0
   -2.6703    9.7625   -8.0472 H   0  0  0  0  0  0  0  0  0  0  0  0
   -4.9024    8.7852   -8.4759 H   0  0  0  0  0  0  0  0  0  0  0  0
   -2.1269   14.2144   -7.1418 H   0  0  0  0  0  0  0  0  0  0  0  0
   -2.1691   13.5602   -5.4694 H   0  0  0  0  0  0  0  0  0  0  0  0
   -0.6637   10.5754   -7.6065 H   0  0  0  0  0  0  0  0  0  0  0  0
    1.4809   14.2752   -6.0543 H   0  0  0  0  0  0  0  0  0  0  0  0
    0.2393   15.4453   -6.6162 H   0  0  0  0  0  0  0  0  0  0  0  0
    0.1804   14.8105   -4.9369 H   0  0  0  0  0  0  0  0  0  0  0  0
   -6.4038   13.9739  -13.9153 H   0  0  0  0  0  0  0  0  0  0  0  0
   -5.1384   15.8875  -14.4370 H   0  0  0  0  0  0  0  0  0  0  0  0
   -3.3221   16.5493  -12.8978 H   0  0  0  0  0  0  0  0  0  0  0  0
   -4.4255   13.3274  -10.3224 H   0  0  0  0  0  0  0  0  0  0  0  0
   -2.6419   14.6376   -9.9343 H   0  0  0  0  0  0  0  0  0  0  0  0
  1  2  2  0  0  0  0
  1  4  1  0  0  0  0
  1 11  1  0  0  0  0
  2  6  1  0  0  0  0
  3  4  2  0  0  0  0
  3  5  1  0  0  0  0
  5  6  2  0  0  0  0
  5  9  1  0  0  0  0
  6  7  1  0  0  0  0
  7  8  1  0  0  0  0
  7 10  2  3  0  0  0
  8  9  2  0  0  0  0
 10 12  1  0  0  0  0
 11 24  1  0  0  0  0
 11 28  2  0  0  0  0
 12 13  1  0  0  0  0
 12 17  1  0  0  0  0
 13 14  2  0  0  0  0
 14 15  1  0  0  0  0
 15 16  1  0  0  0  0
 15 18  2  0  0  0  0
 16 17  2  0  0  0  0
 18 19  1  0  0  0  0
 18 22  1  0  0  0  0
 19 20  1  0  0  0  0
 20 21  1  0  0  0  0
 20 23  1  0  0  0  0
 21 22  2  0  0  0  0
 24 25  1  0  0  0  0
 25 26  2  0  0  0  0
 26 27  1  0  0  0  0
 27 28  1  0  0  0  0
 27 29  2  0  0  0  0
  2 30  1  0  0  0  0
  3 31  1  0  0  0  0
  4 32  1  0  0  0  0
 10 33  1  0  0  0  0
 12 34  1  0  0  0  0
 13 35  1  0  0  0  0
 14 36  1  0  0  0  0
 16 37  1  0  0  0  0
 17 38  1  0  0  0  0
 19 39  1  0  0  0  0
 19 40  1  0  0  0  0
 22 41  1  0  0  0  0
 23 42  1  0  0  0  0
 23 43  1  0  0  0  0
 23 44  1  0  0  0  0
 24 45  1  0  0  0  0
 25 46  1  0  0  0  0
 26 47  1  0  0  0  0
 28 48  1  0  0  0  0
 29 49  1  0  0  0  0
M  END
> <Name>
23

> <IC50[uM]>
0.27

$$$$
23
  -OEChem-05192314333D
 Structure written by MMmdl.
 49 53  0     1  0  0  0  0  0999 V2000
   -6.3775   12.3296  -12.0018 C   0  0  0  0  0  0  0  0  0  0  0  0
   -6.5098   11.7629  -10.7403 C   0  0  0  0  0  0  0  0  0  0  0  0
   -7.7247   10.5660  -13.0266 C   0  0  0  0  0  0  0  0  0  0  0  0
   -6.9942   11.7487  -13.1193 C   0  0  0  0  0  0  0  0  0  0  0  0
   -7.8312   10.0057  -11.7538 C   0  0  3  0  0  0  0  0  0  0  0  0
   -7.2443   10.6021  -10.6070 C   0  0  0  0  0  0  0  0  0  0  0  0
   -7.6167    9.7449   -9.5151 C   0  0  0  0  0  0  0  0  0  0  0  0
   -8.2961    8.7374   -9.9786 N   0  0  0  0  0  0  0  0  0  0  0  0
   -8.4404    8.8724  -11.2937 N   0  0  0  0  0  0  0  0  0  0  0  0
   -7.3318    9.8946   -8.0252 C   0  0  0  0  0  0  0  0  0  0  0  0
   -5.5478   13.5112  -12.1572 C   0  0  0  0  0  0  0  0  0  0  0  0
   -5.9707   10.4870   -7.7351 C   0  0  0  0  0  0  0  0  0  0  0  0
   -5.8642   11.7588   -7.1694 C   0  0  0  0  0  0  0  0  0  0  0  0
   -4.6019   12.3141   -6.9186 C   0  0  0  0  0  0  0  0  0  0  0  0
   -3.4503   11.5963   -7.2357 C   0  0  0  0  0  0  0  0  0  0  0  0
   -3.5604   10.3220   -7.8000 C   0  0  0  0  0  0  0  0  0  0  0  0
   -4.8213    9.7719   -8.0443 C   0  0  0  0  0  0  0  0  0  0  0  0
   -2.0996   12.1710   -6.9757 C   0  0  0  0  0  0  0  0  0  0  0  0
   -1.7487   13.4240   -6.4767 C   0  0  0  0  0  0  0  0  0  0  0  0
   -0.4123   13.4674   -6.4260 N   0  0  3  0  0  0  0  0  0  0  0  0
    0.1713   12.3664   -6.8217 N   0  0  0  0  0  0  0  0  0  0  0  0
   -0.8093   11.5624   -7.1930 C   0  0  0  0  0  0  0  0  0  0  0  0
    0.4224   14.5657   -5.9816 C   0  0  0  0  0  0  0  0  0  0  0  0
   -5.6966   14.2423  -13.2612 N   0  0  0  0  0  0  0  0  0  0  0  0
   -4.9506   15.3153  -13.5405 C   0  0  0  0  0  0  0  0  0  0  0  0
   -3.9383   15.6899  -12.6782 C   0  0  0  0  0  0  0  0  0  0  0  0
   -3.7261   14.9536  -11.5366 C   0  0  0  0  0  0  0  0  0  0  0  0
   -4.5508   13.8769  -11.2437 C   0  0  0  0  0  0  0  0  0  0  0  0
   -2.6976   15.2614  -10.7139 N   0  0  0  0  0  0  0  0  0  0  0  0
   -6.0464   12.2223   -9.8797 H   0  0  0  0  0  0  0  0  0  0  0  0
   -8.1826   10.1089  -13.8914 H   0  0  0  0  0  0  0  0  0  0  0  0
   -6.9001   12.2325  -14.0803 H   0  0  0  0  0  0  0  0  0  0  0  0
   -8.7557   10.5755  -11.5787 H   0  0  0  0  0  0  0  0  0  0  0  0
   -8.0313    9.6067   -7.2544 H   0  0  0  0  0  0  0  0  0  0  0  0
   -6.7563   12.3160   -6.9245 H   0  0  0  0  0  0  0  0  0  0  0  0
   -4.5218   13.2977   -6.4798 H   0  0  0  0  0  0  0  0  0  0  0  0
   -2.6703    9.7625   -8.0472 H   0  0  0  0  0  0  0  0  0  0  0  0
   -4.9024    8.7852   -8.4759 H   0  0  0  0  0  0  0  0  0  0  0  0
   -2.1269   14.2144   -7.1418 H   0  0  0  0  0  0  0  0  0  0  0  0
   -2.1691   13.5602   -5.4694 H   0  0  0  0  0  0  0  0  0  0  0  0
   -0.6637   10.5754   -7.6065 H   0  0  0  0  0  0  0  0  0  0  0  0
    1.4809   14.2752   -6.0543 H   0  0  0  0  0  0  0  0  0  0  0  0
    0.2393   15.4453   -6.6162 H   0  0  0  0  0  0  0  0  0  0  0  0
    0.1804   14.8105   -4.9369 H   0  0  0  0  0  0  0  0  0  0  0  0
   -5.1384   15.8875  -14.4370 H   0  0  0  0  0  0  0  0  0  0  0  0
   -3.3221   16.5493  -12.8978 H   0  0  0  0  0  0  0  0  0  0  0  0
   -4.4255   13.3274  -10.3224 H   0  0  0  0  0  0  0  0  0  0  0  0
   -2.6901   14.6302   -9.9383 H   0  0  0  0  0  0  0  0  0  0  0  0
   -1.8356   15.1840  -11.2148 H   0  0  0  0  0  0  0  0  0  0  0  0
  1  2  2  0  0  0  0
  1  4  1  0  0  0  0
  1 11  1  0  0  0  0
  2  6  1  0  0  0  0
  3  4  2  0  0  0  0
  3  5  1  0  0  0  0
  5  6  1  0  0  0  0
  5  9  1  0  0  0  0
  6  7  2  0  0  0  0
  7  8  1  0  0  0  0
  7 10  1  0  0  0  0
  8  9  2  0  0  0  0
 10 12  2  0  0  0  0
 11 24  2  0  0  0  0
 11 28  1  0  0  0  0
 12 13  1  0  0  0  0
 12 17  1  0  0  0  0
 13 14  2  0  0  0  0
 14 15  1  0  0  0  0
 15 16  1  0  0  0  0
 15 18  2  0  0  0  0
 16 17  2  0  0  0  0
 18 19  1  0  0  0  0
 18 22  1  0  0  0  0
 19 20  1  0  0  0  0
 20 21  1  0  0  0  0
 20 23  1  0  0  0  0
 21 22  2  0  0  0  0
 24 25  1  0  0  0  0
 25 26  2  0  0  0  0
 26 27  1  0  0  0  0
 27 28  2  0  0  0  0
 27 29  1  0  0  0  0
  2 30  1  0  0  0  0
  3 31  1  0  0  0  0
  4 32  1  0  0  0  0
  5 33  1  0  0  0  0
 10 34  1  0  0  0  0
 13 35  1  0  0  0  0
 14 36  1  0  0  0  0
 16 37  1  0  0  0  0
 17 38  1  0  0  0  0
 19 39  1  0  0  0  0
 19 40  1  0  0  0  0
 22 41  1  0  0  0  0
 23 42  1  0  0  0  0
 23 43  1  0  0  0  0
 23 44  1  0  0  0  0
 25 45  1  0  0  0  0
 26 46  1  0  0  0  0
 28 47  1  0  0  0  0
 29 48  1  0  0  0  0
 29 49  1  0  0  0  0
M  END
> <Name>
23

> <IC50[uM]>
0.27

$$$$
23
  -OEChem-05192314333D
 Structure written by MMmdl.
 49 53  0     1  0  0  0  0  0999 V2000
   -6.3775   12.3296  -12.0018 C   0  0  0  0  0  0  0  0  0  0  0  0
   -6.5098   11.7629  -10.7403 C   0  0  0  0  0  0  0  0  0  0  0  0
   -7.7247   10.5660  -13.0266 C   0  0  0  0  0  0  0  0  0  0  0  0
   -6.9942   11.7487  -13.1193 C   0  0  0  0  0  0  0  0  0  0  0  0
   -7.8312   10.0057  -11.7538 C   0  0  0  0  0  0  0  0  0  0  0  0
   -7.2443   10.6021  -10.6070 C   0  0  0  0  0  0  0  0  0  0  0  0
   -7.6167    9.7449   -9.5151 C   0  0  0  0  0  0  0  0  0  0  0  0
   -8.2961    8.7374   -9.9786 N   0  0  0  0  0  0  0  0  0  0  0  0
   -8.4404    8.8724  -11.2937 N   0  0  0  0  0  0  0  0  0  0  0  0
   -7.3318    9.8946   -8.0252 C   0  0  0  0  0  0  0  0  0  0  0  0
   -5.5478   13.5112  -12.1572 C   0  0  0  0  0  0  0  0  0  0  0  0
   -5.9707   10.4870   -7.7351 C   0  0  0  0  0  0  0  0  0  0  0  0
   -5.8642   11.7588   -7.1694 C   0  0  0  0  0  0  0  0  0  0  0  0
   -4.6019   12.3141   -6.9186 C   0  0  0  0  0  0  0  0  0  0  0  0
   -3.4503   11.5963   -7.2357 C   0  0  0  0  0  0  0  0  0  0  0  0
   -3.5604   10.3220   -7.8000 C   0  0  0  0  0  0  0  0  0  0  0  0
   -4.8213    9.7719   -8.0443 C   0  0  0  0  0  0  0  0  0  0  0  0
   -2.0996   12.1710   -6.9757 C   0  0  0  0  0  0  0  0  0  0  0  0
   -1.7487   13.4240   -6.4767 C   0  0  0  0  0  0  0  0  0  0  0  0
   -0.4123   13.4674   -6.4260 N   0  0  3  0  0  0  0  0  0  0  0  0
    0.1713   12.3664   -6.8217 N   0  0  0  0  0  0  0  0  0  0  0  0
   -0.8093   11.5624   -7.1930 C   0  0  0  0  0  0  0  0  0  0  0  0
    0.4224   14.5657   -5.9816 C   0  0  0  0  0  0  0  0  0  0  0  0
   -5.6966   14.2423  -13.2612 N   0  0  0  0  0  0  0  0  0  0  0  0
   -4.9506   15.3153  -13.5405 C   0  0  0  0  0  0  0  0  0  0  0  0
   -3.9383   15.6899  -12.6782 C   0  0  0  0  0  0  0  0  0  0  0  0
   -3.7261   14.9536  -11.5366 C   0  0  0  0  0  0  0  0  0  0  0  0
   -4.5508   13.8769  -11.2437 C   0  0  0  0  0  0  0  0  0  0  0  0
   -2.6976   15.2614  -10.7139 N   0  0  0  0  0  0  0  0  0  0  0  0
   -6.0464   12.2223   -9.8797 H   0  0  0  0  0  0  0  0  0  0  0  0
   -8.1826   10.1089  -13.8914 H   0  0  0  0  0  0  0  0  0  0  0  0
   -6.9001   12.2325  -14.0803 H   0  0  0  0  0  0  0  0  0  0  0  0
   -8.0313    9.6067   -7.2544 H   0  0  0  0  0  0  0  0  0  0  0  0
   -6.7563   12.3160   -6.9245 H   0  0  0  0  0  0  0  0  0  0  0  0
   -4.5527   13.2582   -7.4809 H   0  0  0  0  0  0  0  0  0  0  0  0
   -4.5569   12.5268   -5.8403 H   0  0  0  0  0  0  0  0  0  0  0  0
   -2.6703    9.7625   -8.0472 H   0  0  0  0  0  0  0  0  0  0  0  0
   -4.9024    8.7852   -8.4759 H   0  0  0  0  0  0  0  0  0  0  0  0
   -2.1269   14.2144   -7.1418 H   0  0  0  0  0  0  0  0  0  0  0  0
   -2.1691   13.5602   -5.4694 H   0  0  0  0  0  0  0  0  0  0  0  0
   -0.6637   10.5754   -7.6065 H   0  0  0  0  0  0  0  0  0  0  0  0
    1.4809   14.2752   -6.0543 H   0  0  0  0  0  0  0  0  0  0  0  0
    0.2393   15.4453   -6.6162 H   0  0  0  0  0  0  0  0  0  0  0  0
    0.1804   14.8105   -4.9369 H   0  0  0  0  0  0  0  0  0  0  0  0
   -6.4038   13.9739  -13.9153 H   0  0  0  0  0  0  0  0  0  0  0  0
   -5.1384   15.8875  -14.4370 H   0  0  0  0  0  0  0  0  0  0  0  0
   -3.3221   16.5493  -12.8978 H   0  0  0  0  0  0  0  0  0  0  0  0
   -4.4255   13.3274  -10.3224 H   0  0  0  0  0  0  0  0  0  0  0  0
   -2.6419   14.6376   -9.9343 H   0  0  0  0  0  0  0  0  0  0  0  0
  1  2  2  0  0  0  0
  1  4  1  0  0  0  0
  1 11  1  0  0  0  0
  2  6  1  0  0  0  0
  3  4  2  0  0  0  0
  3  5  1  0  0  0  0
  5  6  2  0  0  0  0
  5  9  1  0  0  0  0
  6  7  1  0  0  0  0
  7  8  1  0  0  0  0
  7 10  2  3  0  0  0
  8  9  2  0  0  0  0
 10 12  1  0  0  0  0
 11 24  1  0  0  0  0
 11 28  2  0  0  0  0
 12 13  2  0  0  0  0
 12 17  1  0  0  0  0
 13 14  1  0  0  0  0
 14 15  1  0  0  0  0
 15 16  1  0  0  0  0
 15 18  2  0  0  0  0
 16 17  2  0  0  0  0
 18 19  1  0  0  0  0
 18 22  1  0  0  0  0
 19 20  1  0  0  0  0
 20 21  1  0  0  0  0
 20 23  1  0  0  0  0
 21 22  2  0  0  0  0
 24 25  1  0  0  0  0
 25 26  2  0  0  0  0
 26 27  1  0  0  0  0
 27 28  1  0  0  0  0
 27 29  2  0  0  0  0
  2 30  1  0  0  0  0
  3 31  1  0  0  0  0
  4 32  1  0  0  0  0
 10 33  1  0  0  0  0
 13 34  1  0  0  0  0
 14 35  1  0  0  0  0
 14 36  1  0  0  0  0
 16 37  1  0  0  0  0
 17 38  1  0  0  0  0
 19 39  1  0  0  0  0
 19 40  1  0  0  0  0
 22 41  1  0  0  0  0
 23 42  1  0  0  0  0
 23 43  1  0  0  0  0
 23 44  1  0  0  0  0
 24 45  1  0  0  0  0
 25 46  1  0  0  0  0
 26 47  1  0  0  0  0
 28 48  1  0  0  0  0
 29 49  1  0  0  0  0
M  END
> <Name>
23

> <IC50[uM]>
0.27

$$$$
23
  -OEChem-05192314333D
 Structure written by MMmdl.
 49 53  0     1  0  0  0  0  0999 V2000
   -6.3775   12.3296  -12.0018 C   0  0  0  0  0  0  0  0  0  0  0  0
   -6.5098   11.7629  -10.7403 C   0  0  0  0  0  0  0  0  0  0  0  0
   -7.7247   10.5660  -13.0266 C   0  0  0  0  0  0  0  0  0  0  0  0
   -6.9942   11.7487  -13.1193 C   0  0  0  0  0  0  0  0  0  0  0  0
   -7.8312   10.0057  -11.7538 C   0  0  0  0  0  0  0  0  0  0  0  0
   -7.2443   10.6021  -10.6070 C   0  0  0  0  0  0  0  0  0  0  0  0
   -7.6167    9.7449   -9.5151 C   0  0  0  0  0  0  0  0  0  0  0  0
   -8.2961    8.7374   -9.9786 N   0  0  0  0  0  0  0  0  0  0  0  0
   -8.4404    8.8724  -11.2937 N   0  0  0  0  0  0  0  0  0  0  0  0
   -7.3318    9.8946   -8.0252 C   0  0  0  0  0  0  0  0  0  0  0  0
   -5.5478   13.5112  -12.1572 C   0  0  0  0  0  0  0  0  0  0  0  0
   -5.9707   10.4870   -7.7351 C   0  0  0  0  0  0  0  0  0  0  0  0
   -5.8642   11.7588   -7.1694 C   0  0  0  0  0  0  0  0  0  0  0  0
   -4.6019   12.3141   -6.9186 C   0  0  0  0  0  0  0  0  0  0  0  0
   -3.4503   11.5963   -7.2357 C   0  0  0  0  0  0  0  0  0  0  0  0
   -3.5604   10.3220   -7.8000 C   0  0  0  0  0  0  0  0  0  0  0  0
   -4.8213    9.7719   -8.0443 C   0  0  0  0  0  0  0  0  0  0  0  0
   -2.0996   12.1710   -6.9757 C   0  0  0  0  0  0  0  0  0  0  0  0
   -1.7487   13.4240   -6.4767 C   0  0  0  0  0  0  0  0  0  0  0  0
   -0.4123   13.4674   -6.4260 N   0  0  3  0  0  0  0  0  0  0  0  0
    0.1713   12.3664   -6.8217 N   0  0  0  0  0  0  0  0  0  0  0  0
   -0.8093   11.5624   -7.1930 C   0  0  0  0  0  0  0  0  0  0  0  0
    0.4224   14.5657   -5.9816 C   0  0  0  0  0  0  0  0  0  0  0  0
   -5.6966   14.2423  -13.2612 N   0  0  0  0  0  0  0  0  0  0  0  0
   -4.9506   15.3153  -13.5405 C   0  0  0  0  0  0  0  0  0  0  0  0
   -3.9383   15.6899  -12.6782 C   0  0  0  0  0  0  0  0  0  0  0  0
   -3.7261   14.9536  -11.5366 C   0  0  0  0  0  0  0  0  0  0  0  0
   -4.5508   13.8769  -11.2437 C   0  0  0  0  0  0  0  0  0  0  0  0
   -2.6976   15.2614  -10.7139 N   0  0  0  0  0  0  0  0  0  0  0  0
   -6.0464   12.2223   -9.8797 H   0  0  0  0  0  0  0  0  0  0  0  0
   -8.1826   10.1089  -13.8914 H   0  0  0  0  0  0  0  0  0  0  0  0
   -7.6841   12.5064  -13.5191 H   0  0  0  0  0  0  0  0  0  0  0  0
   -6.1936   11.5599  -13.8497 H   0  0  0  0  0  0  0  0  0  0  0  0
   -8.0313    9.6067   -7.2544 H   0  0  0  0  0  0  0  0  0  0  0  0
   -6.7563   12.3160   -6.9245 H   0  0  0  0  0  0  0  0  0  0  0  0
   -4.5218   13.2977   -6.4798 H   0  0  0  0  0  0  0  0  0  0  0  0
   -2.6703    9.7625   -8.0472 H   0  0  0  0  0  0  0  0  0  0  0  0
   -4.9024    8.7852   -8.4759 H   0  0  0  0  0  0  0  0  0  0  0  0
   -2.1269   14.2144   -7.1418 H   0  0  0  0  0  0  0  0  0  0  0  0
   -2.1691   13.5602   -5.4694 H   0  0  0  0  0  0  0  0  0  0  0  0
   -0.6637   10.5754   -7.6065 H   0  0  0  0  0  0  0  0  0  0  0  0
    1.4809   14.2752   -6.0543 H   0  0  0  0  0  0  0  0  0  0  0  0
    0.2393   15.4453   -6.6162 H   0  0  0  0  0  0  0  0  0  0  0  0
    0.1804   14.8105   -4.9369 H   0  0  0  0  0  0  0  0  0  0  0  0
   -5.1384   15.8875  -14.4370 H   0  0  0  0  0  0  0  0  0  0  0  0
   -3.3221   16.5493  -12.8978 H   0  0  0  0  0  0  0  0  0  0  0  0
   -4.4255   13.3274  -10.3224 H   0  0  0  0  0  0  0  0  0  0  0  0
   -2.6901   14.6302   -9.9383 H   0  0  0  0  0  0  0  0  0  0  0  0
   -1.8356   15.1840  -11.2148 H   0  0  0  0  0  0  0  0  0  0  0  0
  1  2  2  0  0  0  0
  1  4  1  0  0  0  0
  1 11  1  0  0  0  0
  2  6  1  0  0  0  0
  3  4  1  0  0  0  0
  3  5  2  0  0  0  0
  5  6  1  0  0  0  0
  5  9  1  0  0  0  0
  6  7  2  0  0  0  0
  7  8  1  0  0  0  0
  7 10  1  0  0  0  0
  8  9  2  0  0  0  0
 10 12  2  0  0  0  0
 11 24  2  0  0  0  0
 11 28  1  0  0  0  0
 12 13  1  0  0  0  0
 12 17  1  0  0  0  0
 13 14  2  0  0  0  0
 14 15  1  0  0  0  0
 15 16  1  0  0  0  0
 15 18  2  0  0  0  0
 16 17  2  0  0  0  0
 18 19  1  0  0  0  0
 18 22  1  0  0  0  0
 19 20  1  0  0  0  0
 20 21  1  0  0  0  0
 20 23  1  0  0  0  0
 21 22  2  0  0  0  0
 24 25  1  0  0  0  0
 25 26  2  0  0  0  0
 26 27  1  0  0  0  0
 27 28  2  0  0  0  0
 27 29  1  0  0  0  0
  2 30  1  0  0  0  0
  3 31  1  0  0  0  0
  4 32  1  0  0  0  0
  4 33  1  0  0  0  0
 10 34  1  0  0  0  0
 13 35  1  0  0  0  0
 14 36  1  0  0  0  0
 16 37  1  0  0  0  0
 17 38  1  0  0  0  0
 19 39  1  0  0  0  0
 19 40  1  0  0  0  0
 22 41  1  0  0  0  0
 23 42  1  0  0  0  0
 23 43  1  0  0  0  0
 23 44  1  0  0  0  0
 25 45  1  0  0  0  0
 26 46  1  0  0  0  0
 28 47  1  0  0  0  0
 29 48  1  0  0  0  0
 29 49  1  0  0  0  0
M  END
> <Name>
23

> <IC50[uM]>
0.27

$$$$
23
  -OEChem-05192314333D
 Structure written by MMmdl.
 49 53  0     1  0  0  0  0  0999 V2000
   -6.3775   12.3296  -12.0018 C   0  0  0  0  0  0  0  0  0  0  0  0
   -6.5098   11.7629  -10.7403 C   0  0  0  0  0  0  0  0  0  0  0  0
   -7.7247   10.5660  -13.0266 C   0  0  0  0  0  0  0  0  0  0  0  0
   -6.9942   11.7487  -13.1193 C   0  0  0  0  0  0  0  0  0  0  0  0
   -7.8312   10.0057  -11.7538 C   0  0  0  0  0  0  0  0  0  0  0  0
   -7.2443   10.6021  -10.6070 C   0  0  0  0  0  0  0  0  0  0  0  0
   -7.6167    9.7449   -9.5151 C   0  0  0  0  0  0  0  0  0  0  0  0
   -8.2961    8.7374   -9.9786 N   0  0  0  0  0  0  0  0  0  0  0  0
   -8.4404    8.8724  -11.2937 N   0  0  0  0  0  0  0  0  0  0  0  0
   -7.3318    9.8946   -8.0252 C   0  0  0  0  0  0  0  0  0  0  0  0
   -5.5478   13.5112  -12.1572 C   0  0  0  0  0  0  0  0  0  0  0  0
   -5.9707   10.4870   -7.7351 C   0  0  0  0  0  0  0  0  0  0  0  0
   -5.8642   11.7588   -7.1694 C   0  0  0  0  0  0  0  0  0  0  0  0
   -4.6019   12.3141   -6.9186 C   0  0  0  0  0  0  0  0  0  0  0  0
   -3.4503   11.5963   -7.2357 C   0  0  0  0  0  0  0  0  0  0  0  0
   -3.5604   10.3220   -7.8000 C   0  0  0  0  0  0  0  0  0  0  0  0
   -4.8213    9.7719   -8.0443 C   0  0  0  0  0  0  0  0  0  0  0  0
   -2.0996   12.1710   -6.9757 C   0  0  0  0  0  0  0  0  0  0  0  0
   -1.7487   13.4240   -6.4767 C   0  0  0  0  0  0  0  0  0  0  0  0
   -0.4123   13.4674   -6.4260 N   0  0  3  0  0  0  0  0  0  0  0  0
    0.1713   12.3664   -6.8217 N   0  0  0  0  0  0  0  0  0  0  0  0
   -0.8093   11.5624   -7.1930 C   0  0  0  0  0  0  0  0  0  0  0  0
    0.4224   14.5657   -5.9816 C   0  0  0  0  0  0  0  0  0  0  0  0
   -5.6966   14.2423  -13.2612 N   0  0  0  0  0  0  0  0  0  0  0  0
   -4.9506   15.3153  -13.5405 C   0  0  0  0  0  0  0  0  0  0  0  0
   -3.9383   15.6899  -12.6782 C   0  0  0  0  0  0  0  0  0  0  0  0
   -3.7261   14.9536  -11.5366 C   0  0  0  0  0  0  0  0  0  0  0  0
   -4.5508   13.8769  -11.2437 C   0  0  0  0  0  0  0  0  0  0  0  0
   -2.6976   15.2614  -10.7139 N   0  0  0  0  0  0  0  0  0  0  0  0
   -5.4950   11.5473  -10.3746 H   0  0  0  0  0  0  0  0  0  0  0  0
   -6.9796   12.5188  -10.0939 H   0  0  0  0  0  0  0  0  0  0  0  0
   -8.1826   10.1089  -13.8914 H   0  0  0  0  0  0  0  0  0  0  0  0
   -6.9001   12.2325  -14.0803 H   0  0  0  0  0  0  0  0  0  0  0  0
   -8.0313    9.6067   -7.2544 H   0  0  0  0  0  0  0  0  0  0  0  0
   -6.7563   12.3160   -6.9245 H   0  0  0  0  0  0  0  0  0  0  0  0
   -4.5218   13.2977   -6.4798 H   0  0  0  0  0  0  0  0  0  0  0  0
   -2.6703    9.7625   -8.0472 H   0  0  0  0  0  0  0  0  0  0  0  0
   -4.9024    8.7852   -8.4759 H   0  0  0  0  0  0  0  0  0  0  0  0
   -2.1269   14.2144   -7.1418 H   0  0  0  0  0  0  0  0  0  0  0  0
   -2.1691   13.5602   -5.4694 H   0  0  0  0  0  0  0  0  0  0  0  0
   -0.6637   10.5754   -7.6065 H   0  0  0  0  0  0  0  0  0  0  0  0
    1.4809   14.2752   -6.0543 H   0  0  0  0  0  0  0  0  0  0  0  0
    0.2393   15.4453   -6.6162 H   0  0  0  0  0  0  0  0  0  0  0  0
    0.1804   14.8105   -4.9369 H   0  0  0  0  0  0  0  0  0  0  0  0
   -5.1384   15.8875  -14.4370 H   0  0  0  0  0  0  0  0  0  0  0  0
   -3.3221   16.5493  -12.8978 H   0  0  0  0  0  0  0  0  0  0  0  0
   -4.4255   13.3274  -10.3224 H   0  0  0  0  0  0  0  0  0  0  0  0
   -2.6901   14.6302   -9.9383 H   0  0  0  0  0  0  0  0  0  0  0  0
   -1.8356   15.1840  -11.2148 H   0  0  0  0  0  0  0  0  0  0  0  0
  1  2  1  0  0  0  0
  1  4  2  0  0  0  0
  1 11  1  0  0  0  0
  2  6  1  0  0  0  0
  3  4  1  0  0  0  0
  3  5  2  0  0  0  0
  5  6  1  0  0  0  0
  5  9  1  0  0  0  0
  6  7  2  0  0  0  0
  7  8  1  0  0  0  0
  7 10  1  0  0  0  0
  8  9  2  0  0  0  0
 10 12  2  0  0  0  0
 11 24  2  0  0  0  0
 11 28  1  0  0  0  0
 12 13  1  0  0  0  0
 12 17  1  0  0  0  0
 13 14  2  0  0  0  0
 14 15  1  0  0  0  0
 15 16  1  0  0  0  0
 15 18  2  0  0  0  0
 16 17  2  0  0  0  0
 18 19  1  0  0  0  0
 18 22  1  0  0  0  0
 19 20  1  0  0  0  0
 20 21  1  0  0  0  0
 20 23  1  0  0  0  0
 21 22  2  0  0  0  0
 24 25  1  0  0  0  0
 25 26  2  0  0  0  0
 26 27  1  0  0  0  0
 27 28  2  0  0  0  0
 27 29  1  0  0  0  0
  2 30  1  0  0  0  0
  2 31  1  0  0  0  0
  3 32  1  0  0  0  0
  4 33  1  0  0  0  0
 10 34  1  0  0  0  0
 13 35  1  0  0  0  0
 14 36  1  0  0  0  0
 16 37  1  0  0  0  0
 17 38  1  0  0  0  0
 19 39  1  0  0  0  0
 19 40  1  0  0  0  0
 22 41  1  0  0  0  0
 23 42  1  0  0  0  0
 23 43  1  0  0  0  0
 23 44  1  0  0  0  0
 25 45  1  0  0  0  0
 26 46  1  0  0  0  0
 28 47  1  0  0  0  0
 29 48  1  0  0  0  0
 29 49  1  0  0  0  0
M  END
> <Name>
23

> <IC50[uM]>
0.27

$$$$
23
  -OEChem-05192314333D
 Structure written by MMmdl.
 49 53  0     1  0  0  0  0  0999 V2000
   -6.3775   12.3296  -12.0018 C   0  0  3  0  0  0  0  0  0  0  0  0
   -6.5098   11.7629  -10.7403 C   0  0  0  0  0  0  0  0  0  0  0  0
   -7.7247   10.5660  -13.0266 C   0  0  0  0  0  0  0  0  0  0  0  0
   -6.9942   11.7487  -13.1193 C   0  0  0  0  0  0  0  0  0  0  0  0
   -7.8312   10.0057  -11.7538 C   0  0  0  0  0  0  0  0  0  0  0  0
   -7.2443   10.6021  -10.6070 C   0  0  0  0  0  0  0  0  0  0  0  0
   -7.6167    9.7449   -9.5151 C   0  0  0  0  0  0  0  0  0  0  0  0
   -8.2961    8.7374   -9.9786 N   0  0  0  0  0  0  0  0  0  0  0  0
   -8.4404    8.8724  -11.2937 N   0  0  0  0  0  0  0  0  0  0  0  0
   -7.3318    9.8946   -8.0252 C   0  0  0  0  0  0  0  0  0  0  0  0
   -5.5478   13.5112  -12.1572 C   0  0  0  0  0  0  0  0  0  0  0  0
   -5.9707   10.4870   -7.7351 C   0  0  0  0  0  0  0  0  0  0  0  0
   -5.8642   11.7588   -7.1694 C   0  0  0  0  0  0  0  0  0  0  0  0
   -4.6019   12.3141   -6.9186 C   0  0  0  0  0  0  0  0  0  0  0  0
   -3.4503   11.5963   -7.2357 C   0  0  0  0  0  0  0  0  0  0  0  0
   -3.5604   10.3220   -7.8000 C   0  0  0  0  0  0  0  0  0  0  0  0
   -4.8213    9.7719   -8.0443 C   0  0  0  0  0  0  0  0  0  0  0  0
   -2.0996   12.1710   -6.9757 C   0  0  0  0  0  0  0  0  0  0  0  0
   -1.7487   13.4240   -6.4767 C   0  0  0  0  0  0  0  0  0  0  0  0
   -0.4123   13.4674   -6.4260 N   0  0  3  0  0  0  0  0  0  0  0  0
    0.1713   12.3664   -6.8217 N   0  0  0  0  0  0  0  0  0  0  0  0
   -0.8093   11.5624   -7.1930 C   0  0  0  0  0  0  0  0  0  0  0  0
    0.4224   14.5657   -5.9816 C   0  0  0  0  0  0  0  0  0  0  0  0
   -5.6966   14.2423  -13.2612 N   0  0  0  0  0  0  0  0  0  0  0  0
   -4.9506   15.3153  -13.5405 C   0  0  0  0  0  0  0  0  0  0  0  0
   -3.9383   15.6899  -12.6782 C   0  0  0  0  0  0  0  0  0  0  0  0
   -3.7261   14.9536  -11.5366 C   0  0  0  0  0  0  0  0  0  0  0  0
   -4.5508   13.8769  -11.2437 C   0  0  0  0  0  0  0  0  0  0  0  0
   -2.6976   15.2614  -10.7139 N   0  0  0  0  0  0  0  0  0  0  0  0
   -7.2621   12.9592  -11.8254 H   0  0  0  0  0  0  0  0  0  0  0  0
   -6.0464   12.2223   -9.8797 H   0  0  0  0  0  0  0  0  0  0  0  0
   -8.1826   10.1089  -13.8914 H   0  0  0  0  0  0  0  0  0  0  0  0
   -6.9001   12.2325  -14.0803 H   0  0  0  0  0  0  0  0  0  0  0  0
   -8.0313    9.6067   -7.2544 H   0  0  0  0  0  0  0  0  0  0  0  0
   -6.7563   12.3160   -6.9245 H   0  0  0  0  0  0  0  0  0  0  0  0
   -4.5218   13.2977   -6.4798 H   0  0  0  0  0  0  0  0  0  0  0  0
   -2.6703    9.7625   -8.0472 H   0  0  0  0  0  0  0  0  0  0  0  0
   -4.9024    8.7852   -8.4759 H   0  0  0  0  0  0  0  0  0  0  0  0
   -2.1269   14.2144   -7.1418 H   0  0  0  0  0  0  0  0  0  0  0  0
   -2.1691   13.5602   -5.4694 H   0  0  0  0  0  0  0  0  0  0  0  0
   -0.6637   10.5754   -7.6065 H   0  0  0  0  0  0  0  0  0  0  0  0
    1.4809   14.2752   -6.0543 H   0  0  0  0  0  0  0  0  0  0  0  0
    0.2393   15.4453   -6.6162 H   0  0  0  0  0  0  0  0  0  0  0  0
    0.1804   14.8105   -4.9369 H   0  0  0  0  0  0  0  0  0  0  0  0
   -6.4038   13.9739  -13.9153 H   0  0  0  0  0  0  0  0  0  0  0  0
   -5.1384   15.8875  -14.4370 H   0  0  0  0  0  0  0  0  0  0  0  0
   -3.3221   16.5493  -12.8978 H   0  0  0  0  0  0  0  0  0  0  0  0
   -4.4255   13.3274  -10.3224 H   0  0  0  0  0  0  0  0  0  0  0  0
   -2.6419   14.6376   -9.9343 H   0  0  0  0  0  0  0  0  0  0  0  0
  1  2  1  0  0  0  0
  1  4  1  0  0  0  0
  1 11  1  0  0  0  0
  2  6  2  0  0  0  0
  3  4  2  0  0  0  0
  3  5  1  0  0  0  0
  5  6  1  0  0  0  0
  5  9  2  0  0  0  0
  6  7  1  0  0  0  0
  7  8  2  0  0  0  0
  7 10  1  0  0  0  0
  8  9  1  0  0  0  0
 10 12  2  0  0  0  0
 11 24  1  0  0  0  0
 11 28  2  0  0  0  0
 12 13  1  0  0  0  0
 12 17  1  0  0  0  0
 13 14  2  0  0  0  0
 14 15  1  0  0  0  0
 15 16  1  0  0  0  0
 15 18  2  0  0  0  0
 16 17  2  0  0  0  0
 18 19  1  0  0  0  0
 18 22  1  0  0  0  0
 19 20  1  0  0  0  0
 20 21  1  0  0  0  0
 20 23  1  0  0  0  0
 21 22  2  0  0  0  0
 24 25  1  0  0  0  0
 25 26  2  0  0  0  0
 26 27  1  0  0  0  0
 27 28  1  0  0  0  0
 27 29  2  0  0  0  0
  1 30  1  0  0  0  0
  2 31  1  0  0  0  0
  3 32  1  0  0  0  0
  4 33  1  0  0  0  0
 10 34  1  0  0  0  0
 13 35  1  0  0  0  0
 14 36  1  0  0  0  0
 16 37  1  0  0  0  0
 17 38  1  0  0  0  0
 19 39  1  0  0  0  0
 19 40  1  0  0  0  0
 22 41  1  0  0  0  0
 23 42  1  0  0  0  0
 23 43  1  0  0  0  0
 23 44  1  0  0  0  0
 24 45  1  0  0  0  0
 25 46  1  0  0  0  0
 26 47  1  0  0  0  0
 28 48  1  0  0  0  0
 29 49  1  0  0  0  0
M  END
> <Name>
23

> <IC50[uM]>
0.27

$$$$
23
  -OEChem-05192314333D
 Structure written by MMmdl.
 49 53  0     1  0  0  0  0  0999 V2000
   -6.3775   12.3296  -12.0018 C   0  0  0  0  0  0  0  0  0  0  0  0
   -6.5098   11.7629  -10.7403 C   0  0  0  0  0  0  0  0  0  0  0  0
   -7.7247   10.5660  -13.0266 C   0  0  0  0  0  0  0  0  0  0  0  0
   -6.9942   11.7487  -13.1193 C   0  0  0  0  0  0  0  0  0  0  0  0
   -7.8312   10.0057  -11.7538 C   0  0  0  0  0  0  0  0  0  0  0  0
   -7.2443   10.6021  -10.6070 C   0  0  3  0  0  0  0  0  0  0  0  0
   -7.6167    9.7449   -9.5151 C   0  0  0  0  0  0  0  0  0  0  0  0
   -8.2961    8.7374   -9.9786 N   0  0  0  0  0  0  0  0  0  0  0  0
   -8.4404    8.8724  -11.2937 N   0  0  0  0  0  0  0  0  0  0  0  0
   -7.3318    9.8946   -8.0252 C   0  0  0  0  0  0  0  0  0  0  0  0
   -5.5478   13.5112  -12.1572 C   0  0  0  0  0  0  0  0  0  0  0  0
   -5.9707   10.4870   -7.7351 C   0  0  0  0  0  0  0  0  0  0  0  0
   -5.8642   11.7588   -7.1694 C   0  0  0  0  0  0  0  0  0  0  0  0
   -4.6019   12.3141   -6.9186 C   0  0  0  0  0  0  0  0  0  0  0  0
   -3.4503   11.5963   -7.2357 C   0  0  0  0  0  0  0  0  0  0  0  0
   -3.5604   10.3220   -7.8000 C   0  0  0  0  0  0  0  0  0  0  0  0
   -4.8213    9.7719   -8.0443 C   0  0  0  0  0  0  0  0  0  0  0  0
   -2.0996   12.1710   -6.9757 C   0  0  0  0  0  0  0  0  0  0  0  0
   -1.7487   13.4240   -6.4767 C   0  0  0  0  0  0  0  0  0  0  0  0
   -0.4123   13.4674   -6.4260 N   0  0  3  0  0  0  0  0  0  0  0  0
    0.1713   12.3664   -6.8217 N   0  0  0  0  0  0  0  0  0  0  0  0
   -0.8093   11.5624   -7.1930 C   0  0  0  0  0  0  0  0  0  0  0  0
    0.4224   14.5657   -5.9816 C   0  0  0  0  0  0  0  0  0  0  0  0
   -5.6966   14.2423  -13.2612 N   0  0  0  0  0  0  0  0  0  0  0  0
   -4.9506   15.3153  -13.5405 C   0  0  0  0  0  0  0  0  0  0  0  0
   -3.9383   15.6899  -12.6782 C   0  0  0  0  0  0  0  0  0  0  0  0
   -3.7261   14.9536  -11.5366 C   0  0  0  0  0  0  0  0  0  0  0  0
   -4.5508   13.8769  -11.2437 C   0  0  0  0  0  0  0  0  0  0  0  0
   -2.6976   15.2614  -10.7139 N   0  0  0  0  0  0  0  0  0  0  0  0
   -6.0464   12.2223   -9.8797 H   0  0  0  0  0  0  0  0  0  0  0  0
   -8.1826   10.1089  -13.8914 H   0  0  0  0  0  0  0  0  0  0  0  0
   -6.9001   12.2325  -14.0803 H   0  0  0  0  0  0  0  0  0  0  0  0
   -6.3326   10.0069  -10.7637 H   0  0  0  0  0  0  0  0  0  0  0  0
   -8.0313    9.6067   -7.2544 H   0  0  0  0  0  0  0  0  0  0  0  0
   -6.7563   12.3160   -6.9245 H   0  0  0  0  0  0  0  0  0  0  0  0
   -4.5218   13.2977   -6.4798 H   0  0  0  0  0  0  0  0  0  0  0  0
   -2.6703    9.7625   -8.0472 H   0  0  0  0  0  0  0  0  0  0  0  0
   -4.9024    8.7852   -8.4759 H   0  0  0  0  0  0  0  0  0  0  0  0
   -2.1269   14.2144   -7.1418 H   0  0  0  0  0  0  0  0  0  0  0  0
   -2.1691   13.5602   -5.4694 H   0  0  0  0  0  0  0  0  0  0  0  0
   -0.6637   10.5754   -7.6065 H   0  0  0  0  0  0  0  0  0  0  0  0
    1.4809   14.2752   -6.0543 H   0  0  0  0  0  0  0  0  0  0  0  0
    0.2393   15.4453   -6.6162 H   0  0  0  0  0  0  0  0  0  0  0  0
    0.1804   14.8105   -4.9369 H   0  0  0  0  0  0  0  0  0  0  0  0
   -6.4038   13.9739  -13.9153 H   0  0  0  0  0  0  0  0  0  0  0  0
   -5.1384   15.8875  -14.4370 H   0  0  0  0  0  0  0  0  0  0  0  0
   -3.3221   16.5493  -12.8978 H   0  0  0  0  0  0  0  0  0  0  0  0
   -4.4255   13.3274  -10.3224 H   0  0  0  0  0  0  0  0  0  0  0  0
   -2.6419   14.6376   -9.9343 H   0  0  0  0  0  0  0  0  0  0  0  0
  1  2  2  0  0  0  0
  1  4  1  0  0  0  0
  1 11  1  0  0  0  0
  2  6  1  0  0  0  0
  3  4  2  0  0  0  0
  3  5  1  0  0  0  0
  5  6  1  0  0  0  0
  5  9  2  0  0  0  0
  6  7  1  0  0  0  0
  7  8  2  0  0  0  0
  7 10  1  0  0  0  0
  8  9  1  0  0  0  0
 10 12  2  0  0  0  0
 11 24  1  0  0  0  0
 11 28  2  0  0  0  0
 12 13  1  0  0  0  0
 12 17  1  0  0  0  0
 13 14  2  0  0  0  0
 14 15  1  0  0  0  0
 15 16  1  0  0  0  0
 15 18  2  0  0  0  0
 16 17  2  0  0  0  0
 18 19  1  0  0  0  0
 18 22  1  0  0  0  0
 19 20  1  0  0  0  0
 20 21  1  0  0  0  0
 20 23  1  0  0  0  0
 21 22  2  0  0  0  0
 24 25  1  0  0  0  0
 25 26  2  0  0  0  0
 26 27  1  0  0  0  0
 27 28  1  0  0  0  0
 27 29  2  0  0  0  0
  2 30  1  0  0  0  0
  3 31  1  0  0  0  0
  4 32  1  0  0  0  0
  6 33  1  0  0  0  0
 10 34  1  0  0  0  0
 13 35  1  0  0  0  0
 14 36  1  0  0  0  0
 16 37  1  0  0  0  0
 17 38  1  0  0  0  0
 19 39  1  0  0  0  0
 19 40  1  0  0  0  0
 22 41  1  0  0  0  0
 23 42  1  0  0  0  0
 23 43  1  0  0  0  0
 23 44  1  0  0  0  0
 24 45  1  0  0  0  0
 25 46  1  0  0  0  0
 26 47  1  0  0  0  0
 28 48  1  0  0  0  0
 29 49  1  0  0  0  0
M  END
> <Name>
23

> <IC50[uM]>
0.27

$$$$
23
  -OEChem-05192314333D
 Structure written by MMmdl.
 49 53  0     1  0  0  0  0  0999 V2000
   -6.3775   12.3296  -12.0018 C   0  0  0  0  0  0  0  0  0  0  0  0
   -6.5098   11.7629  -10.7403 C   0  0  0  0  0  0  0  0  0  0  0  0
   -7.7247   10.5660  -13.0266 C   0  0  0  0  0  0  0  0  0  0  0  0
   -6.9942   11.7487  -13.1193 C   0  0  0  0  0  0  0  0  0  0  0  0
   -7.8312   10.0057  -11.7538 C   0  0  0  0  0  0  0  0  0  0  0  0
   -7.2443   10.6021  -10.6070 C   0  0  0  0  0  0  0  0  0  0  0  0
   -7.6167    9.7449   -9.5151 C   0  0  0  0  0  0  0  0  0  0  0  0
   -8.2961    8.7374   -9.9786 N   0  0  0  0  0  0  0  0  0  0  0  0
   -8.4404    8.8724  -11.2937 N   0  0  0  0  0  0  0  0  0  0  0  0
   -7.3318    9.8946   -8.0252 C   0  0  0  0  0  0  0  0  0  0  0  0
   -5.5478   13.5112  -12.1572 C   0  0  0  0  0  0  0  0  0  0  0  0
   -5.9707   10.4870   -7.7351 C   0  0  0  0  0  0  0  0  0  0  0  0
   -5.8642   11.7588   -7.1694 C   0  0  0  0  0  0  0  0  0  0  0  0
   -4.6019   12.3141   -6.9186 C   0  0  0  0  0  0  0  0  0  0  0  0
   -3.4503   11.5963   -7.2357 C   0  0  0  0  0  0  0  0  0  0  0  0
   -3.5604   10.3220   -7.8000 C   0  0  0  0  0  0  0  0  0  0  0  0
   -4.8213    9.7719   -8.0443 C   0  0  0  0  0  0  0  0  0  0  0  0
   -2.0996   12.1710   -6.9757 C   0  0  0  0  0  0  0  0  0  0  0  0
   -1.7487   13.4240   -6.4767 C   0  0  0  0  0  0  0  0  0  0  0  0
   -0.4123   13.4674   -6.4260 N   0  0  3  0  0  0  0  0  0  0  0  0
    0.1713   12.3664   -6.8217 N   0  0  0  0  0  0  0  0  0  0  0  0
   -0.8093   11.5624   -7.1930 C   0  0  0  0  0  0  0  0  0  0  0  0
    0.4224   14.5657   -5.9816 C   0  0  0  0  0  0  0  0  0  0  0  0
   -5.6966   14.2423  -13.2612 N   0  0  0  0  0  0  0  0  0  0  0  0
   -4.9506   15.3153  -13.5405 C   0  0  0  0  0  0  0  0  0  0  0  0
   -3.9383   15.6899  -12.6782 C   0  0  0  0  0  0  0  0  0  0  0  0
   -3.7261   14.9536  -11.5366 C   0  0  0  0  0  0  0  0  0  0  0  0
   -4.5508   13.8769  -11.2437 C   0  0  0  0  0  0  0  0  0  0  0  0
   -2.6976   15.2614  -10.7139 N   0  0  0  0  0  0  0  0  0  0  0  0
   -6.0464   12.2223   -9.8797 H   0  0  0  0  0  0  0  0  0  0  0  0
   -8.7428   10.7712  -13.3891 H   0  0  0  0  0  0  0  0  0  0  0  0
   -7.2451    9.8233  -13.6811 H   0  0  0  0  0  0  0  0  0  0  0  0
   -6.9001   12.2325  -14.0803 H   0  0  0  0  0  0  0  0  0  0  0  0
   -8.0313    9.6067   -7.2544 H   0  0  0  0  0  0  0  0  0  0  0  0
   -6.7563   12.3160   -6.9245 H   0  0  0  0  0  0  0  0  0  0  0  0
   -4.5218   13.2977   -6.4798 H   0  0  0  0  0  0  0  0  0  0  0  0
   -2.6703    9.7625   -8.0472 H   0  0  0  0  0  0  0  0  0  0  0  0
   -4.9024    8.7852   -8.4759 H   0  0  0  0  0  0  0  0  0  0  0  0
   -2.1269   14.2144   -7.1418 H   0  0  0  0  0  0  0  0  0  0  0  0
   -2.1691   13.5602   -5.4694 H   0  0  0  0  0  0  0  0  0  0  0  0
   -0.6637   10.5754   -7.6065 H   0  0  0  0  0  0  0  0  0  0  0  0
    1.4809   14.2752   -6.0543 H   0  0  0  0  0  0  0  0  0  0  0  0
    0.2393   15.4453   -6.6162 H   0  0  0  0  0  0  0  0  0  0  0  0
    0.1804   14.8105   -4.9369 H   0  0  0  0  0  0  0  0  0  0  0  0
   -6.4038   13.9739  -13.9153 H   0  0  0  0  0  0  0  0  0  0  0  0
   -5.1384   15.8875  -14.4370 H   0  0  0  0  0  0  0  0  0  0  0  0
   -3.3221   16.5493  -12.8978 H   0  0  0  0  0  0  0  0  0  0  0  0
   -4.4255   13.3274  -10.3224 H   0  0  0  0  0  0  0  0  0  0  0  0
   -2.6419   14.6376   -9.9343 H   0  0  0  0  0  0  0  0  0  0  0  0
  1  2  1  0  0  0  0
  1  4  2  0  0  0  0
  1 11  1  0  0  0  0
  2  6  2  0  0  0  0
  3  4  1  0  0  0  0
  3  5  1  0  0  0  0
  5  6  1  0  0  0  0
  5  9  2  0  0  0  0
  6  7  1  0  0  0  0
  7  8  2  0  0  0  0
  7 10  1  0  0  0  0
  8  9  1  0  0  0  0
 10 12  2  0  0  0  0
 11 24  1  0  0  0  0
 11 28  2  0  0  0  0
 12 13  1  0  0  0  0
 12 17  1  0  0  0  0
 13 14  2  0  0  0  0
 14 15  1  0  0  0  0
 15 16  1  0  0  0  0
 15 18  2  0  0  0  0
 16 17  2  0  0  0  0
 18 19  1  0  0  0  0
 18 22  1  0  0  0  0
 19 20  1  0  0  0  0
 20 21  1  0  0  0  0
 20 23  1  0  0  0  0
 21 22  2  0  0  0  0
 24 25  1  0  0  0  0
 25 26  2  0  0  0  0
 26 27  1  0  0  0  0
 27 28  1  0  0  0  0
 27 29  2  0  0  0  0
  2 30  1  0  0  0  0
  3 31  1  0  0  0  0
  3 32  1  0  0  0  0
  4 33  1  0  0  0  0
 10 34  1  0  0  0  0
 13 35  1  0  0  0  0
 14 36  1  0  0  0  0
 16 37  1  0  0  0  0
 17 38  1  0  0  0  0
 19 39  1  0  0  0  0
 19 40  1  0  0  0  0
 22 41  1  0  0  0  0
 23 42  1  0  0  0  0
 23 43  1  0  0  0  0
 23 44  1  0  0  0  0
 24 45  1  0  0  0  0
 25 46  1  0  0  0  0
 26 47  1  0  0  0  0
 28 48  1  0  0  0  0
 29 49  1  0  0  0  0
M  END
> <Name>
23

> <IC50[uM]>
0.27

$$$$
23
  -OEChem-05192314333D
 Structure written by MMmdl.
 49 53  0     1  0  0  0  0  0999 V2000
   -6.3775   12.3296  -12.0018 C   0  0  0  0  0  0  0  0  0  0  0  0
   -6.5098   11.7629  -10.7403 C   0  0  0  0  0  0  0  0  0  0  0  0
   -7.7247   10.5660  -13.0266 C   0  0  0  0  0  0  0  0  0  0  0  0
   -6.9942   11.7487  -13.1193 C   0  0  0  0  0  0  0  0  0  0  0  0
   -7.8312   10.0057  -11.7538 C   0  0  3  0  0  0  0  0  0  0  0  0
   -7.2443   10.6021  -10.6070 C   0  0  0  0  0  0  0  0  0  0  0  0
   -7.6167    9.7449   -9.5151 C   0  0  0  0  0  0  0  0  0  0  0  0
   -8.2961    8.7374   -9.9786 N   0  0  0  0  0  0  0  0  0  0  0  0
   -8.4404    8.8724  -11.2937 N   0  0  0  0  0  0  0  0  0  0  0  0
   -7.3318    9.8946   -8.0252 C   0  0  0  0  0  0  0  0  0  0  0  0
   -5.5478   13.5112  -12.1572 C   0  0  0  0  0  0  0  0  0  0  0  0
   -5.9707   10.4870   -7.7351 C   0  0  0  0  0  0  0  0  0  0  0  0
   -5.8642   11.7588   -7.1694 C   0  0  0  0  0  0  0  0  0  0  0  0
   -4.6019   12.3141   -6.9186 C   0  0  0  0  0  0  0  0  0  0  0  0
   -3.4503   11.5963   -7.2357 C   0  0  0  0  0  0  0  0  0  0  0  0
   -3.5604   10.3220   -7.8000 C   0  0  0  0  0  0  0  0  0  0  0  0
   -4.8213    9.7719   -8.0443 C   0  0  0  0  0  0  0  0  0  0  0  0
   -2.0996   12.1710   -6.9757 C   0  0  0  0  0  0  0  0  0  0  0  0
   -1.7487   13.4240   -6.4767 C   0  0  0  0  0  0  0  0  0  0  0  0
   -0.4123   13.4674   -6.4260 N   0  0  3  0  0  0  0  0  0  0  0  0
    0.1713   12.3664   -6.8217 N   0  0  0  0  0  0  0  0  0  0  0  0
   -0.8093   11.5624   -7.1930 C   0  0  0  0  0  0  0  0  0  0  0  0
    0.4224   14.5657   -5.9816 C   0  0  0  0  0  0  0  0  0  0  0  0
   -5.6966   14.2423  -13.2612 N   0  0  0  0  0  0  0  0  0  0  0  0
   -4.9506   15.3153  -13.5405 C   0  0  0  0  0  0  0  0  0  0  0  0
   -3.9383   15.6899  -12.6782 C   0  0  0  0  0  0  0  0  0  0  0  0
   -3.7261   14.9536  -11.5366 C   0  0  0  0  0  0  0  0  0  0  0  0
   -4.5508   13.8769  -11.2437 C   0  0  0  0  0  0  0  0  0  0  0  0
   -2.6976   15.2614  -10.7139 N   0  0  0  0  0  0  0  0  0  0  0  0
   -6.0464   12.2223   -9.8797 H   0  0  0  0  0  0  0  0  0  0  0  0
   -8.1826   10.1089  -13.8914 H   0  0  0  0  0  0  0  0  0  0  0  0
   -6.9001   12.2325  -14.0803 H   0  0  0  0  0  0  0  0  0  0  0  0
   -8.7557   10.5755  -11.5787 H   0  0  0  0  0  0  0  0  0  0  0  0
   -8.0313    9.6067   -7.2544 H   0  0  0  0  0  0  0  0  0  0  0  0
   -6.7563   12.3160   -6.9245 H   0  0  0  0  0  0  0  0  0  0  0  0
   -4.5218   13.2977   -6.4798 H   0  0  0  0  0  0  0  0  0  0  0  0
   -2.6703    9.7625   -8.0472 H   0  0  0  0  0  0  0  0  0  0  0  0
   -4.9024    8.7852   -8.4759 H   0  0  0  0  0  0  0  0  0  0  0  0
   -2.1269   14.2144   -7.1418 H   0  0  0  0  0  0  0  0  0  0  0  0
   -2.1691   13.5602   -5.4694 H   0  0  0  0  0  0  0  0  0  0  0  0
   -0.6637   10.5754   -7.6065 H   0  0  0  0  0  0  0  0  0  0  0  0
    1.4809   14.2752   -6.0543 H   0  0  0  0  0  0  0  0  0  0  0  0
    0.2393   15.4453   -6.6162 H   0  0  0  0  0  0  0  0  0  0  0  0
    0.1804   14.8105   -4.9369 H   0  0  0  0  0  0  0  0  0  0  0  0
   -6.4038   13.9739  -13.9153 H   0  0  0  0  0  0  0  0  0  0  0  0
   -5.1384   15.8875  -14.4370 H   0  0  0  0  0  0  0  0  0  0  0  0
   -3.3221   16.5493  -12.8978 H   0  0  0  0  0  0  0  0  0  0  0  0
   -4.4255   13.3274  -10.3224 H   0  0  0  0  0  0  0  0  0  0  0  0
   -2.6419   14.6376   -9.9343 H   0  0  0  0  0  0  0  0  0  0  0  0
  1  2  2  0  0  0  0
  1  4  1  0  0  0  0
  1 11  1  0  0  0  0
  2  6  1  0  0  0  0
  3  4  2  0  0  0  0
  3  5  1  0  0  0  0
  5  6  1  0  0  0  0
  5  9  1  0  0  0  0
  6  7  2  0  0  0  0
  7  8  1  0  0  0  0
  7 10  1  0  0  0  0
  8  9  2  0  0  0  0
 10 12  2  0  0  0  0
 11 24  1  0  0  0  0
 11 28  2  0  0  0  0
 12 13  1  0  0  0  0
 12 17  1  0  0  0  0
 13 14  2  0  0  0  0
 14 15  1  0  0  0  0
 15 16  1  0  0  0  0
 15 18  2  0  0  0  0
 16 17  2  0  0  0  0
 18 19  1  0  0  0  0
 18 22  1  0  0  0  0
 19 20  1  0  0  0  0
 20 21  1  0  0  0  0
 20 23  1  0  0  0  0
 21 22  2  0  0  0  0
 24 25  1  0  0  0  0
 25 26  2  0  0  0  0
 26 27  1  0  0  0  0
 27 28  1  0  0  0  0
 27 29  2  0  0  0  0
  2 30  1  0  0  0  0
  3 31  1  0  0  0  0
  4 32  1  0  0  0  0
  5 33  1  0  0  0  0
 10 34  1  0  0  0  0
 13 35  1  0  0  0  0
 14 36  1  0  0  0  0
 16 37  1  0  0  0  0
 17 38  1  0  0  0  0
 19 39  1  0  0  0  0
 19 40  1  0  0  0  0
 22 41  1  0  0  0  0
 23 42  1  0  0  0  0
 23 43  1  0  0  0  0
 23 44  1  0  0  0  0
 24 45  1  0  0  0  0
 25 46  1  0  0  0  0
 26 47  1  0  0  0  0
 28 48  1  0  0  0  0
 29 49  1  0  0  0  0
M  END
> <Name>
23

> <IC50[uM]>
0.27

$$$$
23
  -OEChem-05192314333D
 Structure written by MMmdl.
 49 53  0     1  0  0  0  0  0999 V2000
   -6.3775   12.3296  -12.0018 C   0  0  0  0  0  0  0  0  0  0  0  0
   -6.5098   11.7629  -10.7403 C   0  0  0  0  0  0  0  0  0  0  0  0
   -7.7247   10.5660  -13.0266 C   0  0  0  0  0  0  0  0  0  0  0  0
   -6.9942   11.7487  -13.1193 C   0  0  0  0  0  0  0  0  0  0  0  0
   -7.8312   10.0057  -11.7538 C   0  0  0  0  0  0  0  0  0  0  0  0
   -7.2443   10.6021  -10.6070 C   0  0  0  0  0  0  0  0  0  0  0  0
   -7.6167    9.7449   -9.5151 C   0  0  0  0  0  0  0  0  0  0  0  0
   -8.2961    8.7374   -9.9786 N   0  0  0  0  0  0  0  0  0  0  0  0
   -8.4404    8.8724  -11.2937 N   0  0  0  0  0  0  0  0  0  0  0  0
   -7.3318    9.8946   -8.0252 C   0  0  0  0  0  0  0  0  0  0  0  0
   -5.5478   13.5112  -12.1572 C   0  0  0  0  0  0  0  0  0  0  0  0
   -5.9707   10.4870   -7.7351 C   0  0  0  0  0  0  0  0  0  0  0  0
   -5.8642   11.7588   -7.1694 C   0  0  0  0  0  0  0  0  0  0  0  0
   -4.6019   12.3141   -6.9186 C   0  0  0  0  0  0  0  0  0  0  0  0
   -3.4503   11.5963   -7.2357 C   0  0  0  0  0  0  0  0  0  0  0  0
   -3.5604   10.3220   -7.8000 C   0  0  0  0  0  0  0  0  0  0  0  0
   -4.8213    9.7719   -8.0443 C   0  0  0  0  0  0  0  0  0  0  0  0
   -2.0996   12.1710   -6.9757 C   0  0  0  0  0  0  0  0  0  0  0  0
   -1.7487   13.4240   -6.4767 C   0  0  0  0  0  0  0  0  0  0  0  0
   -0.4123   13.4674   -6.4260 N   0  0  3  0  0  0  0  0  0  0  0  0
    0.1713   12.3664   -6.8217 N   0  0  0  0  0  0  0  0  0  0  0  0
   -0.8093   11.5624   -7.1930 C   0  0  0  0  0  0  0  0  0  0  0  0
    0.4224   14.5657   -5.9816 C   0  0  0  0  0  0  0  0  0  0  0  0
   -5.6966   14.2423  -13.2612 N   0  0  0  0  0  0  0  0  0  0  0  0
   -4.9506   15.3153  -13.5405 C   0  0  0  0  0  0  0  0  0  0  0  0
   -3.9383   15.6899  -12.6782 C   0  0  0  0  0  0  0  0  0  0  0  0
   -3.7261   14.9536  -11.5366 C   0  0  0  0  0  0  0  0  0  0  0  0
   -4.5508   13.8769  -11.2437 C   0  0  0  0  0  0  0  0  0  0  0  0
   -2.6976   15.2614  -10.7139 N   0  0  0  0  0  0  0  0  0  0  0  0
   -6.0464   12.2223   -9.8797 H   0  0  0  0  0  0  0  0  0  0  0  0
   -8.1826   10.1089  -13.8914 H   0  0  0  0  0  0  0  0  0  0  0  0
   -7.6841   12.5064  -13.5191 H   0  0  0  0  0  0  0  0  0  0  0  0
   -6.1936   11.5599  -13.8497 H   0  0  0  0  0  0  0  0  0  0  0  0
   -8.0313    9.6067   -7.2544 H   0  0  0  0  0  0  0  0  0  0  0  0
   -6.7563   12.3160   -6.9245 H   0  0  0  0  0  0  0  0  0  0  0  0
   -4.5218   13.2977   -6.4798 H   0  0  0  0  0  0  0  0  0  0  0  0
   -2.6703    9.7625   -8.0472 H   0  0  0  0  0  0  0  0  0  0  0  0
   -4.9024    8.7852   -8.4759 H   0  0  0  0  0  0  0  0  0  0  0  0
   -2.1269   14.2144   -7.1418 H   0  0  0  0  0  0  0  0  0  0  0  0
   -2.1691   13.5602   -5.4694 H   0  0  0  0  0  0  0  0  0  0  0  0
   -0.6637   10.5754   -7.6065 H   0  0  0  0  0  0  0  0  0  0  0  0
    1.4809   14.2752   -6.0543 H   0  0  0  0  0  0  0  0  0  0  0  0
    0.2393   15.4453   -6.6162 H   0  0  0  0  0  0  0  0  0  0  0  0
    0.1804   14.8105   -4.9369 H   0  0  0  0  0  0  0  0  0  0  0  0
   -6.4038   13.9739  -13.9153 H   0  0  0  0  0  0  0  0  0  0  0  0
   -5.1384   15.8875  -14.4370 H   0  0  0  0  0  0  0  0  0  0  0  0
   -3.3221   16.5493  -12.8978 H   0  0  0  0  0  0  0  0  0  0  0  0
   -4.4255   13.3274  -10.3224 H   0  0  0  0  0  0  0  0  0  0  0  0
   -2.6419   14.6376   -9.9343 H   0  0  0  0  0  0  0  0  0  0  0  0
  1  2  2  0  0  0  0
  1  4  1  0  0  0  0
  1 11  1  0  0  0  0
  2  6  1  0  0  0  0
  3  4  1  0  0  0  0
  3  5  2  0  0  0  0
  5  6  1  0  0  0  0
  5  9  1  0  0  0  0
  6  7  2  0  0  0  0
  7  8  1  0  0  0  0
  7 10  1  0  0  0  0
  8  9  2  0  0  0  0
 10 12  2  0  0  0  0
 11 24  1  0  0  0  0
 11 28  2  0  0  0  0
 12 13  1  0  0  0  0
 12 17  1  0  0  0  0
 13 14  2  0  0  0  0
 14 15  1  0  0  0  0
 15 16  1  0  0  0  0
 15 18  2  0  0  0  0
 16 17  2  0  0  0  0
 18 19  1  0  0  0  0
 18 22  1  0  0  0  0
 19 20  1  0  0  0  0
 20 21  1  0  0  0  0
 20 23  1  0  0  0  0
 21 22  2  0  0  0  0
 24 25  1  0  0  0  0
 25 26  2  0  0  0  0
 26 27  1  0  0  0  0
 27 28  1  0  0  0  0
 27 29  2  0  0  0  0
  2 30  1  0  0  0  0
  3 31  1  0  0  0  0
  4 32  1  0  0  0  0
  4 33  1  0  0  0  0
 10 34  1  0  0  0  0
 13 35  1  0  0  0  0
 14 36  1  0  0  0  0
 16 37  1  0  0  0  0
 17 38  1  0  0  0  0
 19 39  1  0  0  0  0
 19 40  1  0  0  0  0
 22 41  1  0  0  0  0
 23 42  1  0  0  0  0
 23 43  1  0  0  0  0
 23 44  1  0  0  0  0
 24 45  1  0  0  0  0
 25 46  1  0  0  0  0
 26 47  1  0  0  0  0
 28 48  1  0  0  0  0
 29 49  1  0  0  0  0
M  END
> <Name>
23

> <IC50[uM]>
0.27

$$$$
23
  -OEChem-05192314333D
 Structure written by MMmdl.
 49 53  0     1  0  0  0  0  0999 V2000
   -6.3775   12.3296  -12.0018 C   0  0  0  0  0  0  0  0  0  0  0  0
   -6.5098   11.7629  -10.7403 C   0  0  0  0  0  0  0  0  0  0  0  0
   -7.7247   10.5660  -13.0266 C   0  0  0  0  0  0  0  0  0  0  0  0
   -6.9942   11.7487  -13.1193 C   0  0  0  0  0  0  0  0  0  0  0  0
   -7.8312   10.0057  -11.7538 C   0  0  0  0  0  0  0  0  0  0  0  0
   -7.2443   10.6021  -10.6070 C   0  0  0  0  0  0  0  0  0  0  0  0
   -7.6167    9.7449   -9.5151 C   0  0  0  0  0  0  0  0  0  0  0  0
   -8.2961    8.7374   -9.9786 N   0  0  0  0  0  0  0  0  0  0  0  0
   -8.4404    8.8724  -11.2937 N   0  0  0  0  0  0  0  0  0  0  0  0
   -7.3318    9.8946   -8.0252 C   0  0  0  0  0  0  0  0  0  0  0  0
   -5.5478   13.5112  -12.1572 C   0  0  0  0  0  0  0  0  0  0  0  0
   -5.9707   10.4870   -7.7351 C   0  0  0  0  0  0  0  0  0  0  0  0
   -5.8642   11.7588   -7.1694 C   0  0  0  0  0  0  0  0  0  0  0  0
   -4.6019   12.3141   -6.9186 C   0  0  0  0  0  0  0  0  0  0  0  0
   -3.4503   11.5963   -7.2357 C   0  0  0  0  0  0  0  0  0  0  0  0
   -3.5604   10.3220   -7.8000 C   0  0  0  0  0  0  0  0  0  0  0  0
   -4.8213    9.7719   -8.0443 C   0  0  0  0  0  0  0  0  0  0  0  0
   -2.0996   12.1710   -6.9757 C   0  0  0  0  0  0  0  0  0  0  0  0
   -1.7487   13.4240   -6.4767 C   0  0  0  0  0  0  0  0  0  0  0  0
   -0.4123   13.4674   -6.4260 N   0  0  3  0  0  0  0  0  0  0  0  0
    0.1713   12.3664   -6.8217 N   0  0  0  0  0  0  0  0  0  0  0  0
   -0.8093   11.5624   -7.1930 C   0  0  0  0  0  0  0  0  0  0  0  0
    0.4224   14.5657   -5.9816 C   0  0  0  0  0  0  0  0  0  0  0  0
   -5.6966   14.2423  -13.2612 N   0  0  0  0  0  0  0  0  0  0  0  0
   -4.9506   15.3153  -13.5405 C   0  0  0  0  0  0  0  0  0  0  0  0
   -3.9383   15.6899  -12.6782 C   0  0  0  0  0  0  0  0  0  0  0  0
   -3.7261   14.9536  -11.5366 C   0  0  0  0  0  0  0  0  0  0  0  0
   -4.5508   13.8769  -11.2437 C   0  0  0  0  0  0  0  0  0  0  0  0
   -2.6976   15.2614  -10.7139 N   0  0  0  0  0  0  0  0  0  0  0  0
   -5.4950   11.5473  -10.3746 H   0  0  0  0  0  0  0  0  0  0  0  0
   -6.9796   12.5188  -10.0939 H   0  0  0  0  0  0  0  0  0  0  0  0
   -8.1826   10.1089  -13.8914 H   0  0  0  0  0  0  0  0  0  0  0  0
   -6.9001   12.2325  -14.0803 H   0  0  0  0  0  0  0  0  0  0  0  0
   -8.0313    9.6067   -7.2544 H   0  0  0  0  0  0  0  0  0  0  0  0
   -6.7563   12.3160   -6.9245 H   0  0  0  0  0  0  0  0  0  0  0  0
   -4.5218   13.2977   -6.4798 H   0  0  0  0  0  0  0  0  0  0  0  0
   -2.6703    9.7625   -8.0472 H   0  0  0  0  0  0  0  0  0  0  0  0
   -4.9024    8.7852   -8.4759 H   0  0  0  0  0  0  0  0  0  0  0  0
   -2.1269   14.2144   -7.1418 H   0  0  0  0  0  0  0  0  0  0  0  0
   -2.1691   13.5602   -5.4694 H   0  0  0  0  0  0  0  0  0  0  0  0
   -0.6637   10.5754   -7.6065 H   0  0  0  0  0  0  0  0  0  0  0  0
    1.4809   14.2752   -6.0543 H   0  0  0  0  0  0  0  0  0  0  0  0
    0.2393   15.4453   -6.6162 H   0  0  0  0  0  0  0  0  0  0  0  0
    0.1804   14.8105   -4.9369 H   0  0  0  0  0  0  0  0  0  0  0  0
   -6.4038   13.9739  -13.9153 H   0  0  0  0  0  0  0  0  0  0  0  0
   -5.1384   15.8875  -14.4370 H   0  0  0  0  0  0  0  0  0  0  0  0
   -3.3221   16.5493  -12.8978 H   0  0  0  0  0  0  0  0  0  0  0  0
   -4.4255   13.3274  -10.3224 H   0  0  0  0  0  0  0  0  0  0  0  0
   -2.6419   14.6376   -9.9343 H   0  0  0  0  0  0  0  0  0  0  0  0
  1  2  1  0  0  0  0
  1  4  2  0  0  0  0
  1 11  1  0  0  0  0
  2  6  1  0  0  0  0
  3  4  1  0  0  0  0
  3  5  2  0  0  0  0
  5  6  1  0  0  0  0
  5  9  1  0  0  0  0
  6  7  2  0  0  0  0
  7  8  1  0  0  0  0
  7 10  1  0  0  0  0
  8  9  2  0  0  0  0
 10 12  2  0  0  0  0
 11 24  1  0  0  0  0
 11 28  2  0  0  0  0
 12 13  1  0  0  0  0
 12 17  1  0  0  0  0
 13 14  2  0  0  0  0
 14 15  1  0  0  0  0
 15 16  1  0  0  0  0
 15 18  2  0  0  0  0
 16 17  2  0  0  0  0
 18 19  1  0  0  0  0
 18 22  1  0  0  0  0
 19 20  1  0  0  0  0
 20 21  1  0  0  0  0
 20 23  1  0  0  0  0
 21 22  2  0  0  0  0
 24 25  1  0  0  0  0
 25 26  2  0  0  0  0
 26 27  1  0  0  0  0
 27 28  1  0  0  0  0
 27 29  2  0  0  0  0
  2 30  1  0  0  0  0
  2 31  1  0  0  0  0
  3 32  1  0  0  0  0
  4 33  1  0  0  0  0
 10 34  1  0  0  0  0
 13 35  1  0  0  0  0
 14 36  1  0  0  0  0
 16 37  1  0  0  0  0
 17 38  1  0  0  0  0
 19 39  1  0  0  0  0
 19 40  1  0  0  0  0
 22 41  1  0  0  0  0
 23 42  1  0  0  0  0
 23 43  1  0  0  0  0
 23 44  1  0  0  0  0
 24 45  1  0  0  0  0
 25 46  1  0  0  0  0
 26 47  1  0  0  0  0
 28 48  1  0  0  0  0
 29 49  1  0  0  0  0
M  END
> <Name>
23

> <IC50[uM]>
0.27

$$$$
23
  -OEChem-05192314333D
 Structure written by MMmdl.
 49 53  0     1  0  0  0  0  0999 V2000
   -6.3775   12.3296  -12.0018 C   0  0  3  0  0  0  0  0  0  0  0  0
   -6.5098   11.7629  -10.7403 C   0  0  0  0  0  0  0  0  0  0  0  0
   -7.7247   10.5660  -13.0266 C   0  0  0  0  0  0  0  0  0  0  0  0
   -6.9942   11.7487  -13.1193 C   0  0  0  0  0  0  0  0  0  0  0  0
   -7.8312   10.0057  -11.7538 C   0  0  0  0  0  0  0  0  0  0  0  0
   -7.2443   10.6021  -10.6070 C   0  0  0  0  0  0  0  0  0  0  0  0
   -7.6167    9.7449   -9.5151 C   0  0  0  0  0  0  0  0  0  0  0  0
   -8.2961    8.7374   -9.9786 N   0  0  0  0  0  0  0  0  0  0  0  0
   -8.4404    8.8724  -11.2937 N   0  0  0  0  0  0  0  0  0  0  0  0
   -7.3318    9.8946   -8.0252 C   0  0  0  0  0  0  0  0  0  0  0  0
   -5.5478   13.5112  -12.1572 C   0  0  0  0  0  0  0  0  0  0  0  0
   -5.9707   10.4870   -7.7351 C   0  0  0  0  0  0  0  0  0  0  0  0
   -5.8642   11.7588   -7.1694 C   0  0  0  0  0  0  0  0  0  0  0  0
   -4.6019   12.3141   -6.9186 C   0  0  0  0  0  0  0  0  0  0  0  0
   -3.4503   11.5963   -7.2357 C   0  0  0  0  0  0  0  0  0  0  0  0
   -3.5604   10.3220   -7.8000 C   0  0  0  0  0  0  0  0  0  0  0  0
   -4.8213    9.7719   -8.0443 C   0  0  0  0  0  0  0  0  0  0  0  0
   -2.0996   12.1710   -6.9757 C   0  0  0  0  0  0  0  0  0  0  0  0
   -1.7487   13.4240   -6.4767 C   0  0  0  0  0  0  0  0  0  0  0  0
   -0.4123   13.4674   -6.4260 N   0  0  0  0  0  0  0  0  0  0  0  0
    0.1713   12.3664   -6.8217 N   0  0  0  0  0  0  0  0  0  0  0  0
   -0.8093   11.5624   -7.1930 C   0  0  0  0  0  0  0  0  0  0  0  0
    0.4224   14.5657   -5.9816 C   0  0  0  0  0  0  0  0  0  0  0  0
   -5.6966   14.2423  -13.2612 N   0  0  0  0  0  0  0  0  0  0  0  0
   -4.9506   15.3153  -13.5405 C   0  0  0  0  0  0  0  0  0  0  0  0
   -3.9383   15.6899  -12.6782 C   0  0  0  0  0  0  0  0  0  0  0  0
   -3.7261   14.9536  -11.5366 C   0  0  0  0  0  0  0  0  0  0  0  0
   -4.5508   13.8769  -11.2437 C   0  0  0  0  0  0  0  0  0  0  0  0
   -2.6976   15.2614  -10.7139 N   0  0  0  0  0  0  0  0  0  0  0  0
   -7.2621   12.9592  -11.8254 H   0  0  0  0  0  0  0  0  0  0  0  0
   -6.0464   12.2223   -9.8797 H   0  0  0  0  0  0  0  0  0  0  0  0
   -8.1826   10.1089  -13.8914 H   0  0  0  0  0  0  0  0  0  0  0  0
   -6.9001   12.2325  -14.0803 H   0  0  0  0  0  0  0  0  0  0  0  0
   -8.0989   10.5499   -7.5868 H   0  0  0  0  0  0  0  0  0  0  0  0
   -7.3874    8.9007   -7.5571 H   0  0  0  0  0  0  0  0  0  0  0  0
   -6.7563   12.3160   -6.9245 H   0  0  0  0  0  0  0  0  0  0  0  0
   -4.5218   13.2977   -6.4798 H   0  0  0  0  0  0  0  0  0  0  0  0
   -2.6703    9.7625   -8.0472 H   0  0  0  0  0  0  0  0  0  0  0  0
   -4.9024    8.7852   -8.4759 H   0  0  0  0  0  0  0  0  0  0  0  0
   -2.4277   14.2118   -6.1857 H   0  0  0  0  0  0  0  0  0  0  0  0
   -0.6637   10.5754   -7.6065 H   0  0  0  0  0  0  0  0  0  0  0  0
    1.4809   14.2752   -6.0543 H   0  0  0  0  0  0  0  0  0  0  0  0
    0.2393   15.4453   -6.6162 H   0  0  0  0  0  0  0  0  0  0  0  0
    0.1804   14.8105   -4.9369 H   0  0  0  0  0  0  0  0  0  0  0  0
   -5.1384   15.8875  -14.4370 H   0  0  0  0  0  0  0  0  0  0  0  0
   -3.0010   15.6690  -13.2536 H   0  0  0  0  0  0  0  0  0  0  0  0
   -4.1509   16.7215  -12.3610 H   0  0  0  0  0  0  0  0  0  0  0  0
   -4.4255   13.3274  -10.3224 H   0  0  0  0  0  0  0  0  0  0  0  0
   -2.6419   14.6376   -9.9343 H   0  0  0  0  0  0  0  0  0  0  0  0
  1  2  1  0  0  0  0
  1  4  1  0  0  0  0
  1 11  1  0  0  0  0
  2  6  2  0  0  0  0
  3  4  2  0  0  0  0
  3  5  1  0  0  0  0
  5  6  1  0  0  0  0
  5  9  2  0  0  0  0
  6  7  1  0  0  0  0
  7  8  2  0  0  0  0
  7 10  1  0  0  0  0
  8  9  1  0  0  0  0
 10 12  1  0  0  0  0
 11 24  1  0  0  0  0
 11 28  2  0  0  0  0
 12 13  2  0  0  0  0
 12 17  1  0  0  0  0
 13 14  1  0  0  0  0
 14 15  2  0  0  0  0
 15 16  1  0  0  0  0
 15 18  1  0  0  0  0
 16 17  2  0  0  0  0
 18 19  2  0  0  0  0
 18 22  1  0  0  0  0
 19 20  1  0  0  0  0
 20 21  1  0  0  0  0
 20 23  1  0  0  0  0
 21 22  2  0  0  0  0
 24 25  2  0  0  0  0
 25 26  1  0  0  0  0
 26 27  1  0  0  0  0
 27 28  1  0  0  0  0
 27 29  2  0  0  0  0
  1 30  1  0  0  0  0
  2 31  1  0  0  0  0
  3 32  1  0  0  0  0
  4 33  1  0  0  0  0
 10 34  1  0  0  0  0
 10 35  1  0  0  0  0
 13 36  1  0  0  0  0
 14 37  1  0  0  0  0
 16 38  1  0  0  0  0
 17 39  1  0  0  0  0
 19 40  1  0  0  0  0
 22 41  1  0  0  0  0
 23 42  1  0  0  0  0
 23 43  1  0  0  0  0
 23 44  1  0  0  0  0
 25 45  1  0  0  0  0
 26 46  1  0  0  0  0
 26 47  1  0  0  0  0
 28 48  1  0  0  0  0
 29 49  1  0  0  0  0
M  END
> <Name>
23

> <IC50[uM]>
0.27

$$$$
23
  -OEChem-05192314333D
 Structure written by MMmdl.
 49 53  0     1  0  0  0  0  0999 V2000
   -6.3775   12.3296  -12.0018 C   0  0  0  0  0  0  0  0  0  0  0  0
   -6.5098   11.7629  -10.7403 C   0  0  0  0  0  0  0  0  0  0  0  0
   -7.7247   10.5660  -13.0266 C   0  0  0  0  0  0  0  0  0  0  0  0
   -6.9942   11.7487  -13.1193 C   0  0  0  0  0  0  0  0  0  0  0  0
   -7.8312   10.0057  -11.7538 C   0  0  0  0  0  0  0  0  0  0  0  0
   -7.2443   10.6021  -10.6070 C   0  0  3  0  0  0  0  0  0  0  0  0
   -7.6167    9.7449   -9.5151 C   0  0  0  0  0  0  0  0  0  0  0  0
   -8.2961    8.7374   -9.9786 N   0  0  0  0  0  0  0  0  0  0  0  0
   -8.4404    8.8724  -11.2937 N   0  0  0  0  0  0  0  0  0  0  0  0
   -7.3318    9.8946   -8.0252 C   0  0  0  0  0  0  0  0  0  0  0  0
   -5.5478   13.5112  -12.1572 C   0  0  0  0  0  0  0  0  0  0  0  0
   -5.9707   10.4870   -7.7351 C   0  0  0  0  0  0  0  0  0  0  0  0
   -5.8642   11.7588   -7.1694 C   0  0  0  0  0  0  0  0  0  0  0  0
   -4.6019   12.3141   -6.9186 C   0  0  0  0  0  0  0  0  0  0  0  0
   -3.4503   11.5963   -7.2357 C   0  0  0  0  0  0  0  0  0  0  0  0
   -3.5604   10.3220   -7.8000 C   0  0  0  0  0  0  0  0  0  0  0  0
   -4.8213    9.7719   -8.0443 C   0  0  0  0  0  0  0  0  0  0  0  0
   -2.0996   12.1710   -6.9757 C   0  0  0  0  0  0  0  0  0  0  0  0
   -1.7487   13.4240   -6.4767 C   0  0  0  0  0  0  0  0  0  0  0  0
   -0.4123   13.4674   -6.4260 N   0  0  0  0  0  0  0  0  0  0  0  0
    0.1713   12.3664   -6.8217 N   0  0  0  0  0  0  0  0  0  0  0  0
   -0.8093   11.5624   -7.1930 C   0  0  0  0  0  0  0  0  0  0  0  0
    0.4224   14.5657   -5.9816 C   0  0  0  0  0  0  0  0  0  0  0  0
   -5.6966   14.2423  -13.2612 N   0  0  0  0  0  0  0  0  0  0  0  0
   -4.9506   15.3153  -13.5405 C   0  0  0  0  0  0  0  0  0  0  0  0
   -3.9383   15.6899  -12.6782 C   0  0  0  0  0  0  0  0  0  0  0  0
   -3.7261   14.9536  -11.5366 C   0  0  0  0  0  0  0  0  0  0  0  0
   -4.5508   13.8769  -11.2437 C   0  0  0  0  0  0  0  0  0  0  0  0
   -2.6976   15.2614  -10.7139 N   0  0  0  0  0  0  0  0  0  0  0  0
   -6.0464   12.2223   -9.8797 H   0  0  0  0  0  0  0  0  0  0  0  0
   -8.1826   10.1089  -13.8914 H   0  0  0  0  0  0  0  0  0  0  0  0
   -6.9001   12.2325  -14.0803 H   0  0  0  0  0  0  0  0  0  0  0  0
   -6.3326   10.0069  -10.7637 H   0  0  0  0  0  0  0  0  0  0  0  0
   -8.0989   10.5499   -7.5868 H   0  0  0  0  0  0  0  0  0  0  0  0
   -7.3874    8.9007   -7.5571 H   0  0  0  0  0  0  0  0  0  0  0  0
   -6.7563   12.3160   -6.9245 H   0  0  0  0  0  0  0  0  0  0  0  0
   -4.5218   13.2977   -6.4798 H   0  0  0  0  0  0  0  0  0  0  0  0
   -2.6703    9.7625   -8.0472 H   0  0  0  0  0  0  0  0  0  0  0  0
   -4.9024    8.7852   -8.4759 H   0  0  0  0  0  0  0  0  0  0  0  0
   -2.4277   14.2118   -6.1857 H   0  0  0  0  0  0  0  0  0  0  0  0
   -0.6637   10.5754   -7.6065 H   0  0  0  0  0  0  0  0  0  0  0  0
    1.4809   14.2752   -6.0543 H   0  0  0  0  0  0  0  0  0  0  0  0
    0.2393   15.4453   -6.6162 H   0  0  0  0  0  0  0  0  0  0  0  0
    0.1804   14.8105   -4.9369 H   0  0  0  0  0  0  0  0  0  0  0  0
   -5.1384   15.8875  -14.4370 H   0  0  0  0  0  0  0  0  0  0  0  0
   -3.0010   15.6690  -13.2536 H   0  0  0  0  0  0  0  0  0  0  0  0
   -4.1509   16.7215  -12.3610 H   0  0  0  0  0  0  0  0  0  0  0  0
   -4.4255   13.3274  -10.3224 H   0  0  0  0  0  0  0  0  0  0  0  0
   -2.6419   14.6376   -9.9343 H   0  0  0  0  0  0  0  0  0  0  0  0
  1  2  2  0  0  0  0
  1  4  1  0  0  0  0
  1 11  1  0  0  0  0
  2  6  1  0  0  0  0
  3  4  2  0  0  0  0
  3  5  1  0  0  0  0
  5  6  1  0  0  0  0
  5  9  2  0  0  0  0
  6  7  1  0  0  0  0
  7  8  2  0  0  0  0
  7 10  1  0  0  0  0
  8  9  1  0  0  0  0
 10 12  1  0  0  0  0
 11 24  1  0  0  0  0
 11 28  2  0  0  0  0
 12 13  2  0  0  0  0
 12 17  1  0  0  0  0
 13 14  1  0  0  0  0
 14 15  2  0  0  0  0
 15 16  1  0  0  0  0
 15 18  1  0  0  0  0
 16 17  2  0  0  0  0
 18 19  2  0  0  0  0
 18 22  1  0  0  0  0
 19 20  1  0  0  0  0
 20 21  1  0  0  0  0
 20 23  1  0  0  0  0
 21 22  2  0  0  0  0
 24 25  2  0  0  0  0
 25 26  1  0  0  0  0
 26 27  1  0  0  0  0
 27 28  1  0  0  0  0
 27 29  2  0  0  0  0
  2 30  1  0  0  0  0
  3 31  1  0  0  0  0
  4 32  1  0  0  0  0
  6 33  1  0  0  0  0
 10 34  1  0  0  0  0
 10 35  1  0  0  0  0
 13 36  1  0  0  0  0
 14 37  1  0  0  0  0
 16 38  1  0  0  0  0
 17 39  1  0  0  0  0
 19 40  1  0  0  0  0
 22 41  1  0  0  0  0
 23 42  1  0  0  0  0
 23 43  1  0  0  0  0
 23 44  1  0  0  0  0
 25 45  1  0  0  0  0
 26 46  1  0  0  0  0
 26 47  1  0  0  0  0
 28 48  1  0  0  0  0
 29 49  1  0  0  0  0
M  END
> <Name>
23

> <IC50[uM]>
0.27

$$$$
23
  -OEChem-05192314333D
 Structure written by MMmdl.
 49 53  0     0  0  0  0  0  0999 V2000
   -6.3775   12.3296  -12.0018 C   0  0  0  0  0  0  0  0  0  0  0  0
   -6.5098   11.7629  -10.7403 C   0  0  0  0  0  0  0  0  0  0  0  0
   -7.7247   10.5660  -13.0266 C   0  0  0  0  0  0  0  0  0  0  0  0
   -6.9942   11.7487  -13.1193 C   0  0  0  0  0  0  0  0  0  0  0  0
   -7.8312   10.0057  -11.7538 C   0  0  0  0  0  0  0  0  0  0  0  0
   -7.2443   10.6021  -10.6070 C   0  0  0  0  0  0  0  0  0  0  0  0
   -7.6167    9.7449   -9.5151 C   0  0  0  0  0  0  0  0  0  0  0  0
   -8.2961    8.7374   -9.9786 N   0  0  0  0  0  0  0  0  0  0  0  0
   -8.4404    8.8724  -11.2937 N   0  0  0  0  0  0  0  0  0  0  0  0
   -7.3318    9.8946   -8.0252 C   0  0  0  0  0  0  0  0  0  0  0  0
   -5.5478   13.5112  -12.1572 C   0  0  0  0  0  0  0  0  0  0  0  0
   -5.9707   10.4870   -7.7351 C   0  0  0  0  0  0  0  0  0  0  0  0
   -5.8642   11.7588   -7.1694 C   0  0  0  0  0  0  0  0  0  0  0  0
   -4.6019   12.3141   -6.9186 C   0  0  0  0  0  0  0  0  0  0  0  0
   -3.4503   11.5963   -7.2357 C   0  0  0  0  0  0  0  0  0  0  0  0
   -3.5604   10.3220   -7.8000 C   0  0  0  0  0  0  0  0  0  0  0  0
   -4.8213    9.7719   -8.0443 C   0  0  0  0  0  0  0  0  0  0  0  0
   -2.0996   12.1710   -6.9757 C   0  0  0  0  0  0  0  0  0  0  0  0
   -1.7487   13.4240   -6.4767 C   0  0  0  0  0  0  0  0  0  0  0  0
   -0.4123   13.4674   -6.4260 N   0  0  0  0  0  0  0  0  0  0  0  0
    0.1713   12.3664   -6.8217 N   0  0  0  0  0  0  0  0  0  0  0  0
   -0.8093   11.5624   -7.1930 C   0  0  0  0  0  0  0  0  0  0  0  0
    0.4224   14.5657   -5.9816 C   0  0  0  0  0  0  0  0  0  0  0  0
   -5.6966   14.2423  -13.2612 N   0  0  0  0  0  0  0  0  0  0  0  0
   -4.9506   15.3153  -13.5405 C   0  0  0  0  0  0  0  0  0  0  0  0
   -3.9383   15.6899  -12.6782 C   0  0  0  0  0  0  0  0  0  0  0  0
   -3.7261   14.9536  -11.5366 C   0  0  0  0  0  0  0  0  0  0  0  0
   -4.5508   13.8769  -11.2437 C   0  0  0  0  0  0  0  0  0  0  0  0
   -2.6976   15.2614  -10.7139 N   0  0  0  0  0  0  0  0  0  0  0  0
   -6.0464   12.2223   -9.8797 H   0  0  0  0  0  0  0  0  0  0  0  0
   -8.7428   10.7712  -13.3891 H   0  0  0  0  0  0  0  0  0  0  0  0
   -7.2451    9.8233  -13.6811 H   0  0  0  0  0  0  0  0  0  0  0  0
   -6.9001   12.2325  -14.0803 H   0  0  0  0  0  0  0  0  0  0  0  0
   -8.0989   10.5499   -7.5868 H   0  0  0  0  0  0  0  0  0  0  0  0
   -7.3874    8.9007   -7.5571 H   0  0  0  0  0  0  0  0  0  0  0  0
   -6.7563   12.3160   -6.9245 H   0  0  0  0  0  0  0  0  0  0  0  0
   -4.5218   13.2977   -6.4798 H   0  0  0  0  0  0  0  0  0  0  0  0
   -2.6703    9.7625   -8.0472 H   0  0  0  0  0  0  0  0  0  0  0  0
   -4.9024    8.7852   -8.4759 H   0  0  0  0  0  0  0  0  0  0  0  0
   -2.4277   14.2118   -6.1857 H   0  0  0  0  0  0  0  0  0  0  0  0
   -0.6637   10.5754   -7.6065 H   0  0  0  0  0  0  0  0  0  0  0  0
    1.4809   14.2752   -6.0543 H   0  0  0  0  0  0  0  0  0  0  0  0
    0.2393   15.4453   -6.6162 H   0  0  0  0  0  0  0  0  0  0  0  0
    0.1804   14.8105   -4.9369 H   0  0  0  0  0  0  0  0  0  0  0  0
   -5.1384   15.8875  -14.4370 H   0  0  0  0  0  0  0  0  0  0  0  0
   -3.0010   15.6690  -13.2536 H   0  0  0  0  0  0  0  0  0  0  0  0
   -4.1509   16.7215  -12.3610 H   0  0  0  0  0  0  0  0  0  0  0  0
   -4.4255   13.3274  -10.3224 H   0  0  0  0  0  0  0  0  0  0  0  0
   -2.6419   14.6376   -9.9343 H   0  0  0  0  0  0  0  0  0  0  0  0
  1  2  1  0  0  0  0
  1  4  2  0  0  0  0
  1 11  1  0  0  0  0
  2  6  2  0  0  0  0
  3  4  1  0  0  0  0
  3  5  1  0  0  0  0
  5  6  1  0  0  0  0
  5  9  2  0  0  0  0
  6  7  1  0  0  0  0
  7  8  2  0  0  0  0
  7 10  1  0  0  0  0
  8  9  1  0  0  0  0
 10 12  1  0  0  0  0
 11 24  1  0  0  0  0
 11 28  2  0  0  0  0
 12 13  2  0  0  0  0
 12 17  1  0  0  0  0
 13 14  1  0  0  0  0
 14 15  2  0  0  0  0
 15 16  1  0  0  0  0
 15 18  1  0  0  0  0
 16 17  2  0  0  0  0
 18 19  2  0  0  0  0
 18 22  1  0  0  0  0
 19 20  1  0  0  0  0
 20 21  1  0  0  0  0
 20 23  1  0  0  0  0
 21 22  2  0  0  0  0
 24 25  2  0  0  0  0
 25 26  1  0  0  0  0
 26 27  1  0  0  0  0
 27 28  1  0  0  0  0
 27 29  2  0  0  0  0
  2 30  1  0  0  0  0
  3 31  1  0  0  0  0
  3 32  1  0  0  0  0
  4 33  1  0  0  0  0
 10 34  1  0  0  0  0
 10 35  1  0  0  0  0
 13 36  1  0  0  0  0
 14 37  1  0  0  0  0
 16 38  1  0  0  0  0
 17 39  1  0  0  0  0
 19 40  1  0  0  0  0
 22 41  1  0  0  0  0
 23 42  1  0  0  0  0
 23 43  1  0  0  0  0
 23 44  1  0  0  0  0
 25 45  1  0  0  0  0
 26 46  1  0  0  0  0
 26 47  1  0  0  0  0
 28 48  1  0  0  0  0
 29 49  1  0  0  0  0
M  END
> <Name>
23

> <IC50[uM]>
0.27

$$$$
23
  -OEChem-05192314333D
 Structure written by MMmdl.
 49 53  0     1  0  0  0  0  0999 V2000
   -6.3775   12.3296  -12.0018 C   0  0  3  0  0  0  0  0  0  0  0  0
   -6.5098   11.7629  -10.7403 C   0  0  0  0  0  0  0  0  0  0  0  0
   -7.7247   10.5660  -13.0266 C   0  0  0  0  0  0  0  0  0  0  0  0
   -6.9942   11.7487  -13.1193 C   0  0  0  0  0  0  0  0  0  0  0  0
   -7.8312   10.0057  -11.7538 C   0  0  0  0  0  0  0  0  0  0  0  0
   -7.2443   10.6021  -10.6070 C   0  0  0  0  0  0  0  0  0  0  0  0
   -7.6167    9.7449   -9.5151 C   0  0  0  0  0  0  0  0  0  0  0  0
   -8.2961    8.7374   -9.9786 N   0  0  0  0  0  0  0  0  0  0  0  0
   -8.4404    8.8724  -11.2937 N   0  0  0  0  0  0  0  0  0  0  0  0
   -7.3318    9.8946   -8.0252 C   0  0  0  0  0  0  0  0  0  0  0  0
   -5.5478   13.5112  -12.1572 C   0  0  0  0  0  0  0  0  0  0  0  0
   -5.9707   10.4870   -7.7351 C   0  0  0  0  0  0  0  0  0  0  0  0
   -5.8642   11.7588   -7.1694 C   0  0  0  0  0  0  0  0  0  0  0  0
   -4.6019   12.3141   -6.9186 C   0  0  0  0  0  0  0  0  0  0  0  0
   -3.4503   11.5963   -7.2357 C   0  0  0  0  0  0  0  0  0  0  0  0
   -3.5604   10.3220   -7.8000 C   0  0  0  0  0  0  0  0  0  0  0  0
   -4.8213    9.7719   -8.0443 C   0  0  0  0  0  0  0  0  0  0  0  0
   -2.0996   12.1710   -6.9757 C   0  0  0  0  0  0  0  0  0  0  0  0
   -1.7487   13.4240   -6.4767 C   0  0  0  0  0  0  0  0  0  0  0  0
   -0.4123   13.4674   -6.4260 N   0  0  0  0  0  0  0  0  0  0  0  0
    0.1713   12.3664   -6.8217 N   0  0  0  0  0  0  0  0  0  0  0  0
   -0.8093   11.5624   -7.1930 C   0  0  0  0  0  0  0  0  0  0  0  0
    0.4224   14.5657   -5.9816 C   0  0  0  0  0  0  0  0  0  0  0  0
   -5.6966   14.2423  -13.2612 N   0  0  0  0  0  0  0  0  0  0  0  0
   -4.9506   15.3153  -13.5405 C   0  0  0  0  0  0  0  0  0  0  0  0
   -3.9383   15.6899  -12.6782 C   0  0  0  0  0  0  0  0  0  0  0  0
   -3.7261   14.9536  -11.5366 C   0  0  0  0  0  0  0  0  0  0  0  0
   -4.5508   13.8769  -11.2437 C   0  0  0  0  0  0  0  0  0  0  0  0
   -2.6976   15.2614  -10.7139 N   0  0  0  0  0  0  0  0  0  0  0  0
   -7.2621   12.9592  -11.8254 H   0  0  0  0  0  0  0  0  0  0  0  0
   -6.0464   12.2223   -9.8797 H   0  0  0  0  0  0  0  0  0  0  0  0
   -8.1826   10.1089  -13.8914 H   0  0  0  0  0  0  0  0  0  0  0  0
   -6.9001   12.2325  -14.0803 H   0  0  0  0  0  0  0  0  0  0  0  0
   -8.0989   10.5499   -7.5868 H   0  0  0  0  0  0  0  0  0  0  0  0
   -7.3874    8.9007   -7.5571 H   0  0  0  0  0  0  0  0  0  0  0  0
   -6.7563   12.3160   -6.9245 H   0  0  0  0  0  0  0  0  0  0  0  0
   -4.5218   13.2977   -6.4798 H   0  0  0  0  0  0  0  0  0  0  0  0
   -2.6703    9.7625   -8.0472 H   0  0  0  0  0  0  0  0  0  0  0  0
   -4.9024    8.7852   -8.4759 H   0  0  0  0  0  0  0  0  0  0  0  0
   -2.4277   14.2118   -6.1857 H   0  0  0  0  0  0  0  0  0  0  0  0
   -0.6637   10.5754   -7.6065 H   0  0  0  0  0  0  0  0  0  0  0  0
    1.4809   14.2752   -6.0543 H   0  0  0  0  0  0  0  0  0  0  0  0
    0.2393   15.4453   -6.6162 H   0  0  0  0  0  0  0  0  0  0  0  0
    0.1804   14.8105   -4.9369 H   0  0  0  0  0  0  0  0  0  0  0  0
   -5.1384   15.8875  -14.4370 H   0  0  0  0  0  0  0  0  0  0  0  0
   -3.3221   16.5493  -12.8978 H   0  0  0  0  0  0  0  0  0  0  0  0
   -5.0546   14.1072  -10.2933 H   0  0  0  0  0  0  0  0  0  0  0  0
   -3.8997   13.0003  -11.1106 H   0  0  0  0  0  0  0  0  0  0  0  0
   -2.6419   14.6376   -9.9343 H   0  0  0  0  0  0  0  0  0  0  0  0
  1  2  1  0  0  0  0
  1  4  1  0  0  0  0
  1 11  1  0  0  0  0
  2  6  2  0  0  0  0
  3  4  2  0  0  0  0
  3  5  1  0  0  0  0
  5  6  1  0  0  0  0
  5  9  2  0  0  0  0
  6  7  1  0  0  0  0
  7  8  2  0  0  0  0
  7 10  1  0  0  0  0
  8  9  1  0  0  0  0
 10 12  1  0  0  0  0
 11 24  2  0  0  0  0
 11 28  1  0  0  0  0
 12 13  2  0  0  0  0
 12 17  1  0  0  0  0
 13 14  1  0  0  0  0
 14 15  2  0  0  0  0
 15 16  1  0  0  0  0
 15 18  1  0  0  0  0
 16 17  2  0  0  0  0
 18 19  2  0  0  0  0
 18 22  1  0  0  0  0
 19 20  1  0  0  0  0
 20 21  1  0  0  0  0
 20 23  1  0  0  0  0
 21 22  2  0  0  0  0
 24 25  1  0  0  0  0
 25 26  2  0  0  0  0
 26 27  1  0  0  0  0
 27 28  1  0  0  0  0
 27 29  2  0  0  0  0
  1 30  1  0  0  0  0
  2 31  1  0  0  0  0
  3 32  1  0  0  0  0
  4 33  1  0  0  0  0
 10 34  1  0  0  0  0
 10 35  1  0  0  0  0
 13 36  1  0  0  0  0
 14 37  1  0  0  0  0
 16 38  1  0  0  0  0
 17 39  1  0  0  0  0
 19 40  1  0  0  0  0
 22 41  1  0  0  0  0
 23 42  1  0  0  0  0
 23 43  1  0  0  0  0
 23 44  1  0  0  0  0
 25 45  1  0  0  0  0
 26 46  1  0  0  0  0
 28 47  1  0  0  0  0
 28 48  1  0  0  0  0
 29 49  1  0  0  0  0
M  END
> <Name>
23

> <IC50[uM]>
0.27

$$$$
23
  -OEChem-05192314333D
 Structure written by MMmdl.
 49 53  0     1  0  0  0  0  0999 V2000
   -6.3775   12.3296  -12.0018 C   0  0  0  0  0  0  0  0  0  0  0  0
   -6.5098   11.7629  -10.7403 C   0  0  0  0  0  0  0  0  0  0  0  0
   -7.7247   10.5660  -13.0266 C   0  0  0  0  0  0  0  0  0  0  0  0
   -6.9942   11.7487  -13.1193 C   0  0  0  0  0  0  0  0  0  0  0  0
   -7.8312   10.0057  -11.7538 C   0  0  0  0  0  0  0  0  0  0  0  0
   -7.2443   10.6021  -10.6070 C   0  0  3  0  0  0  0  0  0  0  0  0
   -7.6167    9.7449   -9.5151 C   0  0  0  0  0  0  0  0  0  0  0  0
   -8.2961    8.7374   -9.9786 N   0  0  0  0  0  0  0  0  0  0  0  0
   -8.4404    8.8724  -11.2937 N   0  0  0  0  0  0  0  0  0  0  0  0
   -7.3318    9.8946   -8.0252 C   0  0  0  0  0  0  0  0  0  0  0  0
   -5.5478   13.5112  -12.1572 C   0  0  0  0  0  0  0  0  0  0  0  0
   -5.9707   10.4870   -7.7351 C   0  0  0  0  0  0  0  0  0  0  0  0
   -5.8642   11.7588   -7.1694 C   0  0  0  0  0  0  0  0  0  0  0  0
   -4.6019   12.3141   -6.9186 C   0  0  0  0  0  0  0  0  0  0  0  0
   -3.4503   11.5963   -7.2357 C   0  0  0  0  0  0  0  0  0  0  0  0
   -3.5604   10.3220   -7.8000 C   0  0  0  0  0  0  0  0  0  0  0  0
   -4.8213    9.7719   -8.0443 C   0  0  0  0  0  0  0  0  0  0  0  0
   -2.0996   12.1710   -6.9757 C   0  0  0  0  0  0  0  0  0  0  0  0
   -1.7487   13.4240   -6.4767 C   0  0  0  0  0  0  0  0  0  0  0  0
   -0.4123   13.4674   -6.4260 N   0  0  0  0  0  0  0  0  0  0  0  0
    0.1713   12.3664   -6.8217 N   0  0  0  0  0  0  0  0  0  0  0  0
   -0.8093   11.5624   -7.1930 C   0  0  0  0  0  0  0  0  0  0  0  0
    0.4224   14.5657   -5.9816 C   0  0  0  0  0  0  0  0  0  0  0  0
   -5.6966   14.2423  -13.2612 N   0  0  0  0  0  0  0  0  0  0  0  0
   -4.9506   15.3153  -13.5405 C   0  0  0  0  0  0  0  0  0  0  0  0
   -3.9383   15.6899  -12.6782 C   0  0  0  0  0  0  0  0  0  0  0  0
   -3.7261   14.9536  -11.5366 C   0  0  0  0  0  0  0  0  0  0  0  0
   -4.5508   13.8769  -11.2437 C   0  0  0  0  0  0  0  0  0  0  0  0
   -2.6976   15.2614  -10.7139 N   0  0  0  0  0  0  0  0  0  0  0  0
   -6.0464   12.2223   -9.8797 H   0  0  0  0  0  0  0  0  0  0  0  0
   -8.1826   10.1089  -13.8914 H   0  0  0  0  0  0  0  0  0  0  0  0
   -6.9001   12.2325  -14.0803 H   0  0  0  0  0  0  0  0  0  0  0  0
   -6.3326   10.0069  -10.7637 H   0  0  0  0  0  0  0  0  0  0  0  0
   -8.0989   10.5499   -7.5868 H   0  0  0  0  0  0  0  0  0  0  0  0
   -7.3874    8.9007   -7.5571 H   0  0  0  0  0  0  0  0  0  0  0  0
   -6.7563   12.3160   -6.9245 H   0  0  0  0  0  0  0  0  0  0  0  0
   -4.5218   13.2977   -6.4798 H   0  0  0  0  0  0  0  0  0  0  0  0
   -2.6703    9.7625   -8.0472 H   0  0  0  0  0  0  0  0  0  0  0  0
   -4.9024    8.7852   -8.4759 H   0  0  0  0  0  0  0  0  0  0  0  0
   -2.4277   14.2118   -6.1857 H   0  0  0  0  0  0  0  0  0  0  0  0
   -0.6637   10.5754   -7.6065 H   0  0  0  0  0  0  0  0  0  0  0  0
    1.4809   14.2752   -6.0543 H   0  0  0  0  0  0  0  0  0  0  0  0
    0.2393   15.4453   -6.6162 H   0  0  0  0  0  0  0  0  0  0  0  0
    0.1804   14.8105   -4.9369 H   0  0  0  0  0  0  0  0  0  0  0  0
   -5.1384   15.8875  -14.4370 H   0  0  0  0  0  0  0  0  0  0  0  0
   -3.3221   16.5493  -12.8978 H   0  0  0  0  0  0  0  0  0  0  0  0
   -5.0546   14.1072  -10.2933 H   0  0  0  0  0  0  0  0  0  0  0  0
   -3.8997   13.0003  -11.1106 H   0  0  0  0  0  0  0  0  0  0  0  0
   -2.6419   14.6376   -9.9343 H   0  0  0  0  0  0  0  0  0  0  0  0
  1  2  2  0  0  0  0
  1  4  1  0  0  0  0
  1 11  1  0  0  0  0
  2  6  1  0  0  0  0
  3  4  2  0  0  0  0
  3  5  1  0  0  0  0
  5  6  1  0  0  0  0
  5  9  2  0  0  0  0
  6  7  1  0  0  0  0
  7  8  2  0  0  0  0
  7 10  1  0  0  0  0
  8  9  1  0  0  0  0
 10 12  1  0  0  0  0
 11 24  2  0  0  0  0
 11 28  1  0  0  0  0
 12 13  2  0  0  0  0
 12 17  1  0  0  0  0
 13 14  1  0  0  0  0
 14 15  2  0  0  0  0
 15 16  1  0  0  0  0
 15 18  1  0  0  0  0
 16 17  2  0  0  0  0
 18 19  2  0  0  0  0
 18 22  1  0  0  0  0
 19 20  1  0  0  0  0
 20 21  1  0  0  0  0
 20 23  1  0  0  0  0
 21 22  2  0  0  0  0
 24 25  1  0  0  0  0
 25 26  2  0  0  0  0
 26 27  1  0  0  0  0
 27 28  1  0  0  0  0
 27 29  2  0  0  0  0
  2 30  1  0  0  0  0
  3 31  1  0  0  0  0
  4 32  1  0  0  0  0
  6 33  1  0  0  0  0
 10 34  1  0  0  0  0
 10 35  1  0  0  0  0
 13 36  1  0  0  0  0
 14 37  1  0  0  0  0
 16 38  1  0  0  0  0
 17 39  1  0  0  0  0
 19 40  1  0  0  0  0
 22 41  1  0  0  0  0
 23 42  1  0  0  0  0
 23 43  1  0  0  0  0
 23 44  1  0  0  0  0
 25 45  1  0  0  0  0
 26 46  1  0  0  0  0
 28 47  1  0  0  0  0
 28 48  1  0  0  0  0
 29 49  1  0  0  0  0
M  END
> <Name>
23

> <IC50[uM]>
0.27

$$$$
23
  -OEChem-05192314333D
 Structure written by MMmdl.
 49 53  0     0  0  0  0  0  0999 V2000
   -6.3775   12.3296  -12.0018 C   0  0  0  0  0  0  0  0  0  0  0  0
   -6.5098   11.7629  -10.7403 C   0  0  0  0  0  0  0  0  0  0  0  0
   -7.7247   10.5660  -13.0266 C   0  0  0  0  0  0  0  0  0  0  0  0
   -6.9942   11.7487  -13.1193 C   0  0  0  0  0  0  0  0  0  0  0  0
   -7.8312   10.0057  -11.7538 C   0  0  0  0  0  0  0  0  0  0  0  0
   -7.2443   10.6021  -10.6070 C   0  0  0  0  0  0  0  0  0  0  0  0
   -7.6167    9.7449   -9.5151 C   0  0  0  0  0  0  0  0  0  0  0  0
   -8.2961    8.7374   -9.9786 N   0  0  0  0  0  0  0  0  0  0  0  0
   -8.4404    8.8724  -11.2937 N   0  0  0  0  0  0  0  0  0  0  0  0
   -7.3318    9.8946   -8.0252 C   0  0  0  0  0  0  0  0  0  0  0  0
   -5.5478   13.5112  -12.1572 C   0  0  0  0  0  0  0  0  0  0  0  0
   -5.9707   10.4870   -7.7351 C   0  0  0  0  0  0  0  0  0  0  0  0
   -5.8642   11.7588   -7.1694 C   0  0  0  0  0  0  0  0  0  0  0  0
   -4.6019   12.3141   -6.9186 C   0  0  0  0  0  0  0  0  0  0  0  0
   -3.4503   11.5963   -7.2357 C   0  0  0  0  0  0  0  0  0  0  0  0
   -3.5604   10.3220   -7.8000 C   0  0  0  0  0  0  0  0  0  0  0  0
   -4.8213    9.7719   -8.0443 C   0  0  0  0  0  0  0  0  0  0  0  0
   -2.0996   12.1710   -6.9757 C   0  0  0  0  0  0  0  0  0  0  0  0
   -1.7487   13.4240   -6.4767 C   0  0  0  0  0  0  0  0  0  0  0  0
   -0.4123   13.4674   -6.4260 N   0  0  0  0  0  0  0  0  0  0  0  0
    0.1713   12.3664   -6.8217 N   0  0  0  0  0  0  0  0  0  0  0  0
   -0.8093   11.5624   -7.1930 C   0  0  0  0  0  0  0  0  0  0  0  0
    0.4224   14.5657   -5.9816 C   0  0  0  0  0  0  0  0  0  0  0  0
   -5.6966   14.2423  -13.2612 N   0  0  0  0  0  0  0  0  0  0  0  0
   -4.9506   15.3153  -13.5405 C   0  0  0  0  0  0  0  0  0  0  0  0
   -3.9383   15.6899  -12.6782 C   0  0  0  0  0  0  0  0  0  0  0  0
   -3.7261   14.9536  -11.5366 C   0  0  0  0  0  0  0  0  0  0  0  0
   -4.5508   13.8769  -11.2437 C   0  0  0  0  0  0  0  0  0  0  0  0
   -2.6976   15.2614  -10.7139 N   0  0  0  0  0  0  0  0  0  0  0  0
   -6.0464   12.2223   -9.8797 H   0  0  0  0  0  0  0  0  0  0  0  0
   -8.7428   10.7712  -13.3891 H   0  0  0  0  0  0  0  0  0  0  0  0
   -7.2451    9.8233  -13.6811 H   0  0  0  0  0  0  0  0  0  0  0  0
   -6.9001   12.2325  -14.0803 H   0  0  0  0  0  0  0  0  0  0  0  0
   -8.0989   10.5499   -7.5868 H   0  0  0  0  0  0  0  0  0  0  0  0
   -7.3874    8.9007   -7.5571 H   0  0  0  0  0  0  0  0  0  0  0  0
   -6.7563   12.3160   -6.9245 H   0  0  0  0  0  0  0  0  0  0  0  0
   -4.5218   13.2977   -6.4798 H   0  0  0  0  0  0  0  0  0  0  0  0
   -2.6703    9.7625   -8.0472 H   0  0  0  0  0  0  0  0  0  0  0  0
   -4.9024    8.7852   -8.4759 H   0  0  0  0  0  0  0  0  0  0  0  0
   -2.4277   14.2118   -6.1857 H   0  0  0  0  0  0  0  0  0  0  0  0
   -0.6637   10.5754   -7.6065 H   0  0  0  0  0  0  0  0  0  0  0  0
    1.4809   14.2752   -6.0543 H   0  0  0  0  0  0  0  0  0  0  0  0
    0.2393   15.4453   -6.6162 H   0  0  0  0  0  0  0  0  0  0  0  0
    0.1804   14.8105   -4.9369 H   0  0  0  0  0  0  0  0  0  0  0  0
   -5.1384   15.8875  -14.4370 H   0  0  0  0  0  0  0  0  0  0  0  0
   -3.3221   16.5493  -12.8978 H   0  0  0  0  0  0  0  0  0  0  0  0
   -5.0546   14.1072  -10.2933 H   0  0  0  0  0  0  0  0  0  0  0  0
   -3.8997   13.0003  -11.1106 H   0  0  0  0  0  0  0  0  0  0  0  0
   -2.6419   14.6376   -9.9343 H   0  0  0  0  0  0  0  0  0  0  0  0
  1  2  1  0  0  0  0
  1  4  2  0  0  0  0
  1 11  1  0  0  0  0
  2  6  2  0  0  0  0
  3  4  1  0  0  0  0
  3  5  1  0  0  0  0
  5  6  1  0  0  0  0
  5  9  2  0  0  0  0
  6  7  1  0  0  0  0
  7  8  2  0  0  0  0
  7 10  1  0  0  0  0
  8  9  1  0  0  0  0
 10 12  1  0  0  0  0
 11 24  2  0  0  0  0
 11 28  1  0  0  0  0
 12 13  2  0  0  0  0
 12 17  1  0  0  0  0
 13 14  1  0  0  0  0
 14 15  2  0  0  0  0
 15 16  1  0  0  0  0
 15 18  1  0  0  0  0
 16 17  2  0  0  0  0
 18 19  2  0  0  0  0
 18 22  1  0  0  0  0
 19 20  1  0  0  0  0
 20 21  1  0  0  0  0
 20 23  1  0  0  0  0
 21 22  2  0  0  0  0
 24 25  1  0  0  0  0
 25 26  2  0  0  0  0
 26 27  1  0  0  0  0
 27 28  1  0  0  0  0
 27 29  2  0  0  0  0
  2 30  1  0  0  0  0
  3 31  1  0  0  0  0
  3 32  1  0  0  0  0
  4 33  1  0  0  0  0
 10 34  1  0  0  0  0
 10 35  1  0  0  0  0
 13 36  1  0  0  0  0
 14 37  1  0  0  0  0
 16 38  1  0  0  0  0
 17 39  1  0  0  0  0
 19 40  1  0  0  0  0
 22 41  1  0  0  0  0
 23 42  1  0  0  0  0
 23 43  1  0  0  0  0
 23 44  1  0  0  0  0
 25 45  1  0  0  0  0
 26 46  1  0  0  0  0
 28 47  1  0  0  0  0
 28 48  1  0  0  0  0
 29 49  1  0  0  0  0
M  END
> <Name>
23

> <IC50[uM]>
0.27

$$$$
23
  -OEChem-05192314333D
 Structure written by MMmdl.
 49 53  0     0  0  0  0  0  0999 V2000
   -6.3775   12.3296  -12.0018 C   0  0  0  0  0  0  0  0  0  0  0  0
   -6.5098   11.7629  -10.7403 C   0  0  0  0  0  0  0  0  0  0  0  0
   -7.7247   10.5660  -13.0266 C   0  0  0  0  0  0  0  0  0  0  0  0
   -6.9942   11.7487  -13.1193 C   0  0  0  0  0  0  0  0  0  0  0  0
   -7.8312   10.0057  -11.7538 C   0  0  0  0  0  0  0  0  0  0  0  0
   -7.2443   10.6021  -10.6070 C   0  0  0  0  0  0  0  0  0  0  0  0
   -7.6167    9.7449   -9.5151 C   0  0  0  0  0  0  0  0  0  0  0  0
   -8.2961    8.7374   -9.9786 N   0  0  0  0  0  0  0  0  0  0  0  0
   -8.4404    8.8724  -11.2937 N   0  0  0  0  0  0  0  0  0  0  0  0
   -7.3318    9.8946   -8.0252 C   0  0  0  0  0  0  0  0  0  0  0  0
   -5.5478   13.5112  -12.1572 C   0  0  0  0  0  0  0  0  0  0  0  0
   -5.9707   10.4870   -7.7351 C   0  0  0  0  0  0  0  0  0  0  0  0
   -5.8642   11.7588   -7.1694 C   0  0  0  0  0  0  0  0  0  0  0  0
   -4.6019   12.3141   -6.9186 C   0  0  0  0  0  0  0  0  0  0  0  0
   -3.4503   11.5963   -7.2357 C   0  0  0  0  0  0  0  0  0  0  0  0
   -3.5604   10.3220   -7.8000 C   0  0  0  0  0  0  0  0  0  0  0  0
   -4.8213    9.7719   -8.0443 C   0  0  0  0  0  0  0  0  0  0  0  0
   -2.0996   12.1710   -6.9757 C   0  0  0  0  0  0  0  0  0  0  0  0
   -1.7487   13.4240   -6.4767 C   0  0  0  0  0  0  0  0  0  0  0  0
   -0.4123   13.4674   -6.4260 N   0  0  0  0  0  0  0  0  0  0  0  0
    0.1713   12.3664   -6.8217 N   0  0  0  0  0  0  0  0  0  0  0  0
   -0.8093   11.5624   -7.1930 C   0  0  0  0  0  0  0  0  0  0  0  0
    0.4224   14.5657   -5.9816 C   0  0  0  0  0  0  0  0  0  0  0  0
   -5.6966   14.2423  -13.2612 N   0  0  0  0  0  0  0  0  0  0  0  0
   -4.9506   15.3153  -13.5405 C   0  0  0  0  0  0  0  0  0  0  0  0
   -3.9383   15.6899  -12.6782 C   0  0  0  0  0  0  0  0  0  0  0  0
   -3.7261   14.9536  -11.5366 C   0  0  0  0  0  0  0  0  0  0  0  0
   -4.5508   13.8769  -11.2437 C   0  0  0  0  0  0  0  0  0  0  0  0
   -2.6976   15.2614  -10.7139 N   0  0  0  0  0  0  0  0  0  0  0  0
   -6.0464   12.2223   -9.8797 H   0  0  0  0  0  0  0  0  0  0  0  0
   -8.1826   10.1089  -13.8914 H   0  0  0  0  0  0  0  0  0  0  0  0
   -6.9001   12.2325  -14.0803 H   0  0  0  0  0  0  0  0  0  0  0  0
   -8.0313    9.6067   -7.2544 H   0  0  0  0  0  0  0  0  0  0  0  0
   -5.9850   10.0375   -6.7313 H   0  0  0  0  0  0  0  0  0  0  0  0
   -6.7563   12.3160   -6.9245 H   0  0  0  0  0  0  0  0  0  0  0  0
   -4.5218   13.2977   -6.4798 H   0  0  0  0  0  0  0  0  0  0  0  0
   -3.4477   12.0425   -8.2411 H   0  0  0  0  0  0  0  0  0  0  0  0
   -2.6703    9.7625   -8.0472 H   0  0  0  0  0  0  0  0  0  0  0  0
   -4.9024    8.7852   -8.4759 H   0  0  0  0  0  0  0  0  0  0  0  0
   -2.4277   14.2118   -6.1857 H   0  0  0  0  0  0  0  0  0  0  0  0
   -0.6637   10.5754   -7.6065 H   0  0  0  0  0  0  0  0  0  0  0  0
    1.4809   14.2752   -6.0543 H   0  0  0  0  0  0  0  0  0  0  0  0
    0.2393   15.4453   -6.6162 H   0  0  0  0  0  0  0  0  0  0  0  0
    0.1804   14.8105   -4.9369 H   0  0  0  0  0  0  0  0  0  0  0  0
   -5.1384   15.8875  -14.4370 H   0  0  0  0  0  0  0  0  0  0  0  0
   -3.0010   15.6690  -13.2536 H   0  0  0  0  0  0  0  0  0  0  0  0
   -4.1509   16.7215  -12.3610 H   0  0  0  0  0  0  0  0  0  0  0  0
   -4.4255   13.3274  -10.3224 H   0  0  0  0  0  0  0  0  0  0  0  0
   -2.6419   14.6376   -9.9343 H   0  0  0  0  0  0  0  0  0  0  0  0
  1  2  2  0  0  0  0
  1  4  1  0  0  0  0
  1 11  1  0  0  0  0
  2  6  1  0  0  0  0
  3  4  2  0  0  0  0
  3  5  1  0  0  0  0
  5  6  2  0  0  0  0
  5  9  1  0  0  0  0
  6  7  1  0  0  0  0
  7  8  1  0  0  0  0
  7 10  2  3  0  0  0
  8  9  2  0  0  0  0
 10 12  1  0  0  0  0
 11 24  1  0  0  0  0
 11 28  2  0  0  0  0
 12 13  1  0  0  0  0
 12 17  1  0  0  0  0
 13 14  2  0  0  0  0
 14 15  1  0  0  0  0
 15 16  1  0  0  0  0
 15 18  1  0  0  0  0
 16 17  2  0  0  0  0
 18 19  2  0  0  0  0
 18 22  1  0  0  0  0
 19 20  1  0  0  0  0
 20 21  1  0  0  0  0
 20 23  1  0  0  0  0
 21 22  2  0  0  0  0
 24 25  2  0  0  0  0
 25 26  1  0  0  0  0
 26 27  1  0  0  0  0
 27 28  1  0  0  0  0
 27 29  2  0  0  0  0
  2 30  1  0  0  0  0
  3 31  1  0  0  0  0
  4 32  1  0  0  0  0
 10 33  1  0  0  0  0
 12 34  1  0  0  0  0
 13 35  1  0  0  0  0
 14 36  1  0  0  0  0
 15 37  1  0  0  0  0
 16 38  1  0  0  0  0
 17 39  1  0  0  0  0
 19 40  1  0  0  0  0
 22 41  1  0  0  0  0
 23 42  1  0  0  0  0
 23 43  1  0  0  0  0
 23 44  1  0  0  0  0
 25 45  1  0  0  0  0
 26 46  1  0  0  0  0
 26 47  1  0  0  0  0
 28 48  1  0  0  0  0
 29 49  1  0  0  0  0
M  END
> <Name>
23

> <IC50[uM]>
0.27

$$$$
23
  -OEChem-05192314333D
 Structure written by MMmdl.
 49 53  0     1  0  0  0  0  0999 V2000
   -6.3775   12.3296  -12.0018 C   0  0  0  0  0  0  0  0  0  0  0  0
   -6.5098   11.7629  -10.7403 C   0  0  0  0  0  0  0  0  0  0  0  0
   -7.7247   10.5660  -13.0266 C   0  0  0  0  0  0  0  0  0  0  0  0
   -6.9942   11.7487  -13.1193 C   0  0  0  0  0  0  0  0  0  0  0  0
   -7.8312   10.0057  -11.7538 C   0  0  0  0  0  0  0  0  0  0  0  0
   -7.2443   10.6021  -10.6070 C   0  0  0  0  0  0  0  0  0  0  0  0
   -7.6167    9.7449   -9.5151 C   0  0  3  0  0  0  0  0  0  0  0  0
   -8.2961    8.7374   -9.9786 N   0  0  0  0  0  0  0  0  0  0  0  0
   -8.4404    8.8724  -11.2937 N   0  0  0  0  0  0  0  0  0  0  0  0
   -7.3318    9.8946   -8.0252 C   0  0  0  0  0  0  0  0  0  0  0  0
   -5.5478   13.5112  -12.1572 C   0  0  0  0  0  0  0  0  0  0  0  0
   -5.9707   10.4870   -7.7351 C   0  0  0  0  0  0  0  0  0  0  0  0
   -5.8642   11.7588   -7.1694 C   0  0  0  0  0  0  0  0  0  0  0  0
   -4.6019   12.3141   -6.9186 C   0  0  0  0  0  0  0  0  0  0  0  0
   -3.4503   11.5963   -7.2357 C   0  0  0  0  0  0  0  0  0  0  0  0
   -3.5604   10.3220   -7.8000 C   0  0  0  0  0  0  0  0  0  0  0  0
   -4.8213    9.7719   -8.0443 C   0  0  0  0  0  0  0  0  0  0  0  0
   -2.0996   12.1710   -6.9757 C   0  0  0  0  0  0  0  0  0  0  0  0
   -1.7487   13.4240   -6.4767 C   0  0  0  0  0  0  0  0  0  0  0  0
   -0.4123   13.4674   -6.4260 N   0  0  0  0  0  0  0  0  0  0  0  0
    0.1713   12.3664   -6.8217 N   0  0  0  0  0  0  0  0  0  0  0  0
   -0.8093   11.5624   -7.1930 C   0  0  0  0  0  0  0  0  0  0  0  0
    0.4224   14.5657   -5.9816 C   0  0  0  0  0  0  0  0  0  0  0  0
   -5.6966   14.2423  -13.2612 N   0  0  0  0  0  0  0  0  0  0  0  0
   -4.9506   15.3153  -13.5405 C   0  0  0  0  0  0  0  0  0  0  0  0
   -3.9383   15.6899  -12.6782 C   0  0  0  0  0  0  0  0  0  0  0  0
   -3.7261   14.9536  -11.5366 C   0  0  0  0  0  0  0  0  0  0  0  0
   -4.5508   13.8769  -11.2437 C   0  0  0  0  0  0  0  0  0  0  0  0
   -2.6976   15.2614  -10.7139 N   0  0  0  0  0  0  0  0  0  0  0  0
   -6.0464   12.2223   -9.8797 H   0  0  0  0  0  0  0  0  0  0  0  0
   -8.1826   10.1089  -13.8914 H   0  0  0  0  0  0  0  0  0  0  0  0
   -6.9001   12.2325  -14.0803 H   0  0  0  0  0  0  0  0  0  0  0  0
   -6.6832    9.1765   -9.6392 H   0  0  0  0  0  0  0  0  0  0  0  0
   -8.0313    9.6067   -7.2544 H   0  0  0  0  0  0  0  0  0  0  0  0
   -6.7563   12.3160   -6.9245 H   0  0  0  0  0  0  0  0  0  0  0  0
   -4.5218   13.2977   -6.4798 H   0  0  0  0  0  0  0  0  0  0  0  0
   -3.4477   12.0425   -8.2411 H   0  0  0  0  0  0  0  0  0  0  0  0
   -2.6703    9.7625   -8.0472 H   0  0  0  0  0  0  0  0  0  0  0  0
   -4.9024    8.7852   -8.4759 H   0  0  0  0  0  0  0  0  0  0  0  0
   -2.4277   14.2118   -6.1857 H   0  0  0  0  0  0  0  0  0  0  0  0
   -0.6637   10.5754   -7.6065 H   0  0  0  0  0  0  0  0  0  0  0  0
    1.4809   14.2752   -6.0543 H   0  0  0  0  0  0  0  0  0  0  0  0
    0.2393   15.4453   -6.6162 H   0  0  0  0  0  0  0  0  0  0  0  0
    0.1804   14.8105   -4.9369 H   0  0  0  0  0  0  0  0  0  0  0  0
   -5.1384   15.8875  -14.4370 H   0  0  0  0  0  0  0  0  0  0  0  0
   -3.0010   15.6690  -13.2536 H   0  0  0  0  0  0  0  0  0  0  0  0
   -4.1509   16.7215  -12.3610 H   0  0  0  0  0  0  0  0  0  0  0  0
   -4.4255   13.3274  -10.3224 H   0  0  0  0  0  0  0  0  0  0  0  0
   -2.6419   14.6376   -9.9343 H   0  0  0  0  0  0  0  0  0  0  0  0
  1  2  2  0  0  0  0
  1  4  1  0  0  0  0
  1 11  1  0  0  0  0
  2  6  1  0  0  0  0
  3  4  2  0  0  0  0
  3  5  1  0  0  0  0
  5  6  2  0  0  0  0
  5  9  1  0  0  0  0
  6  7  1  0  0  0  0
  7  8  1  0  0  0  0
  7 10  1  0  0  0  0
  8  9  2  0  0  0  0
 10 12  2  0  0  0  0
 11 24  1  0  0  0  0
 11 28  2  0  0  0  0
 12 13  1  0  0  0  0
 12 17  1  0  0  0  0
 13 14  2  0  0  0  0
 14 15  1  0  0  0  0
 15 16  1  0  0  0  0
 15 18  1  0  0  0  0
 16 17  2  0  0  0  0
 18 19  2  0  0  0  0
 18 22  1  0  0  0  0
 19 20  1  0  0  0  0
 20 21  1  0  0  0  0
 20 23  1  0  0  0  0
 21 22  2  0  0  0  0
 24 25  2  0  0  0  0
 25 26  1  0  0  0  0
 26 27  1  0  0  0  0
 27 28  1  0  0  0  0
 27 29  2  0  0  0  0
  2 30  1  0  0  0  0
  3 31  1  0  0  0  0
  4 32  1  0  0  0  0
  7 33  1  0  0  0  0
 10 34  1  0  0  0  0
 13 35  1  0  0  0  0
 14 36  1  0  0  0  0
 15 37  1  0  0  0  0
 16 38  1  0  0  0  0
 17 39  1  0  0  0  0
 19 40  1  0  0  0  0
 22 41  1  0  0  0  0
 23 42  1  0  0  0  0
 23 43  1  0  0  0  0
 23 44  1  0  0  0  0
 25 45  1  0  0  0  0
 26 46  1  0  0  0  0
 26 47  1  0  0  0  0
 28 48  1  0  0  0  0
 29 49  1  0  0  0  0
M  END
> <Name>
23

> <IC50[uM]>
0.27

$$$$
23
  -OEChem-05192314333D
 Structure written by MMmdl.
 49 53  0     1  0  0  0  0  0999 V2000
   -6.3775   12.3296  -12.0018 C   0  0  3  0  0  0  0  0  0  0  0  0
   -6.5098   11.7629  -10.7403 C   0  0  0  0  0  0  0  0  0  0  0  0
   -7.7247   10.5660  -13.0266 C   0  0  0  0  0  0  0  0  0  0  0  0
   -6.9942   11.7487  -13.1193 C   0  0  0  0  0  0  0  0  0  0  0  0
   -7.8312   10.0057  -11.7538 C   0  0  3  0  0  0  0  0  0  0  0  0
   -7.2443   10.6021  -10.6070 C   0  0  0  0  0  0  0  0  0  0  0  0
   -7.6167    9.7449   -9.5151 C   0  0  0  0  0  0  0  0  0  0  0  0
   -8.2961    8.7374   -9.9786 N   0  0  0  0  0  0  0  0  0  0  0  0
   -8.4404    8.8724  -11.2937 N   0  0  0  0  0  0  0  0  0  0  0  0
   -7.3318    9.8946   -8.0252 C   0  0  0  0  0  0  0  0  0  0  0  0
   -5.5478   13.5112  -12.1572 C   0  0  0  0  0  0  0  0  0  0  0  0
   -5.9707   10.4870   -7.7351 C   0  0  0  0  0  0  0  0  0  0  0  0
   -5.8642   11.7588   -7.1694 C   0  0  0  0  0  0  0  0  0  0  0  0
   -4.6019   12.3141   -6.9186 C   0  0  0  0  0  0  0  0  0  0  0  0
   -3.4503   11.5963   -7.2357 C   0  0  0  0  0  0  0  0  0  0  0  0
   -3.5604   10.3220   -7.8000 C   0  0  0  0  0  0  0  0  0  0  0  0
   -4.8213    9.7719   -8.0443 C   0  0  0  0  0  0  0  0  0  0  0  0
   -2.0996   12.1710   -6.9757 C   0  0  0  0  0  0  0  0  0  0  0  0
   -1.7487   13.4240   -6.4767 C   0  0  0  0  0  0  0  0  0  0  0  0
   -0.4123   13.4674   -6.4260 N   0  0  0  0  0  0  0  0  0  0  0  0
    0.1713   12.3664   -6.8217 N   0  0  0  0  0  0  0  0  0  0  0  0
   -0.8093   11.5624   -7.1930 C   0  0  0  0  0  0  0  0  0  0  0  0
    0.4224   14.5657   -5.9816 C   0  0  0  0  0  0  0  0  0  0  0  0
   -5.6966   14.2423  -13.2612 N   0  0  0  0  0  0  0  0  0  0  0  0
   -4.9506   15.3153  -13.5405 C   0  0  0  0  0  0  0  0  0  0  0  0
   -3.9383   15.6899  -12.6782 C   0  0  0  0  0  0  0  0  0  0  0  0
   -3.7261   14.9536  -11.5366 C   0  0  0  0  0  0  0  0  0  0  0  0
   -4.5508   13.8769  -11.2437 C   0  0  0  0  0  0  0  0  0  0  0  0
   -2.6976   15.2614  -10.7139 N   0  0  0  0  0  0  0  0  0  0  0  0
   -7.2621   12.9592  -11.8254 H   0  0  0  0  0  0  0  0  0  0  0  0
   -6.0464   12.2223   -9.8797 H   0  0  0  0  0  0  0  0  0  0  0  0
   -8.1826   10.1089  -13.8914 H   0  0  0  0  0  0  0  0  0  0  0  0
   -6.9001   12.2325  -14.0803 H   0  0  0  0  0  0  0  0  0  0  0  0
   -8.7557   10.5755  -11.5787 H   0  0  0  0  0  0  0  0  0  0  0  0
   -8.0313    9.6067   -7.2544 H   0  0  0  0  0  0  0  0  0  0  0  0
   -6.7563   12.3160   -6.9245 H   0  0  0  0  0  0  0  0  0  0  0  0
   -4.5218   13.2977   -6.4798 H   0  0  0  0  0  0  0  0  0  0  0  0
   -2.6703    9.7625   -8.0472 H   0  0  0  0  0  0  0  0  0  0  0  0
   -4.9024    8.7852   -8.4759 H   0  0  0  0  0  0  0  0  0  0  0  0
   -2.4277   14.2118   -6.1857 H   0  0  0  0  0  0  0  0  0  0  0  0
   -0.6637   10.5754   -7.6065 H   0  0  0  0  0  0  0  0  0  0  0  0
    1.4809   14.2752   -6.0543 H   0  0  0  0  0  0  0  0  0  0  0  0
    0.2393   15.4453   -6.6162 H   0  0  0  0  0  0  0  0  0  0  0  0
    0.1804   14.8105   -4.9369 H   0  0  0  0  0  0  0  0  0  0  0  0
   -5.1384   15.8875  -14.4370 H   0  0  0  0  0  0  0  0  0  0  0  0
   -3.0010   15.6690  -13.2536 H   0  0  0  0  0  0  0  0  0  0  0  0
   -4.1509   16.7215  -12.3610 H   0  0  0  0  0  0  0  0  0  0  0  0
   -4.4255   13.3274  -10.3224 H   0  0  0  0  0  0  0  0  0  0  0  0
   -2.6419   14.6376   -9.9343 H   0  0  0  0  0  0  0  0  0  0  0  0
  1  2  1  0  0  0  0
  1  4  1  0  0  0  0
  1 11  1  0  0  0  0
  2  6  2  0  0  0  0
  3  4  2  0  0  0  0
  3  5  1  0  0  0  0
  5  6  1  0  0  0  0
  5  9  1  0  0  0  0
  6  7  1  0  0  0  0
  7  8  1  0  0  0  0
  7 10  2  3  0  0  0
  8  9  2  0  0  0  0
 10 12  1  0  0  0  0
 11 24  1  0  0  0  0
 11 28  2  0  0  0  0
 12 13  2  0  0  0  0
 12 17  1  0  0  0  0
 13 14  1  0  0  0  0
 14 15  2  0  0  0  0
 15 16  1  0  0  0  0
 15 18  1  0  0  0  0
 16 17  2  0  0  0  0
 18 19  2  0  0  0  0
 18 22  1  0  0  0  0
 19 20  1  0  0  0  0
 20 21  1  0  0  0  0
 20 23  1  0  0  0  0
 21 22  2  0  0  0  0
 24 25  2  0  0  0  0
 25 26  1  0  0  0  0
 26 27  1  0  0  0  0
 27 28  1  0  0  0  0
 27 29  2  0  0  0  0
  1 30  1  0  0  0  0
  2 31  1  0  0  0  0
  3 32  1  0  0  0  0
  4 33  1  0  0  0  0
  5 34  1  0  0  0  0
 10 35  1  0  0  0  0
 13 36  1  0  0  0  0
 14 37  1  0  0  0  0
 16 38  1  0  0  0  0
 17 39  1  0  0  0  0
 19 40  1  0  0  0  0
 22 41  1  0  0  0  0
 23 42  1  0  0  0  0
 23 43  1  0  0  0  0
 23 44  1  0  0  0  0
 25 45  1  0  0  0  0
 26 46  1  0  0  0  0
 26 47  1  0  0  0  0
 28 48  1  0  0  0  0
 29 49  1  0  0  0  0
M  END
> <Name>
23

> <IC50[uM]>
0.27

$$$$
23
  -OEChem-05192314333D
 Structure written by MMmdl.
 49 53  0     1  0  0  0  0  0999 V2000
   -6.3775   12.3296  -12.0018 C   0  0  0  0  0  0  0  0  0  0  0  0
   -6.5098   11.7629  -10.7403 C   0  0  0  0  0  0  0  0  0  0  0  0
   -7.7247   10.5660  -13.0266 C   0  0  0  0  0  0  0  0  0  0  0  0
   -6.9942   11.7487  -13.1193 C   0  0  0  0  0  0  0  0  0  0  0  0
   -7.8312   10.0057  -11.7538 C   0  0  3  0  0  0  0  0  0  0  0  0
   -7.2443   10.6021  -10.6070 C   0  0  3  0  0  0  0  0  0  0  0  0
   -7.6167    9.7449   -9.5151 C   0  0  0  0  0  0  0  0  0  0  0  0
   -8.2961    8.7374   -9.9786 N   0  0  0  0  0  0  0  0  0  0  0  0
   -8.4404    8.8724  -11.2937 N   0  0  0  0  0  0  0  0  0  0  0  0
   -7.3318    9.8946   -8.0252 C   0  0  0  0  0  0  0  0  0  0  0  0
   -5.5478   13.5112  -12.1572 C   0  0  0  0  0  0  0  0  0  0  0  0
   -5.9707   10.4870   -7.7351 C   0  0  0  0  0  0  0  0  0  0  0  0
   -5.8642   11.7588   -7.1694 C   0  0  0  0  0  0  0  0  0  0  0  0
   -4.6019   12.3141   -6.9186 C   0  0  0  0  0  0  0  0  0  0  0  0
   -3.4503   11.5963   -7.2357 C   0  0  0  0  0  0  0  0  0  0  0  0
   -3.5604   10.3220   -7.8000 C   0  0  0  0  0  0  0  0  0  0  0  0
   -4.8213    9.7719   -8.0443 C   0  0  0  0  0  0  0  0  0  0  0  0
   -2.0996   12.1710   -6.9757 C   0  0  0  0  0  0  0  0  0  0  0  0
   -1.7487   13.4240   -6.4767 C   0  0  0  0  0  0  0  0  0  0  0  0
   -0.4123   13.4674   -6.4260 N   0  0  0  0  0  0  0  0  0  0  0  0
    0.1713   12.3664   -6.8217 N   0  0  0  0  0  0  0  0  0  0  0  0
   -0.8093   11.5624   -7.1930 C   0  0  0  0  0  0  0  0  0  0  0  0
    0.4224   14.5657   -5.9816 C   0  0  0  0  0  0  0  0  0  0  0  0
   -5.6966   14.2423  -13.2612 N   0  0  0  0  0  0  0  0  0  0  0  0
   -4.9506   15.3153  -13.5405 C   0  0  0  0  0  0  0  0  0  0  0  0
   -3.9383   15.6899  -12.6782 C   0  0  0  0  0  0  0  0  0  0  0  0
   -3.7261   14.9536  -11.5366 C   0  0  0  0  0  0  0  0  0  0  0  0
   -4.5508   13.8769  -11.2437 C   0  0  0  0  0  0  0  0  0  0  0  0
   -2.6976   15.2614  -10.7139 N   0  0  0  0  0  0  0  0  0  0  0  0
   -6.0464   12.2223   -9.8797 H   0  0  0  0  0  0  0  0  0  0  0  0
   -8.1826   10.1089  -13.8914 H   0  0  0  0  0  0  0  0  0  0  0  0
   -6.9001   12.2325  -14.0803 H   0  0  0  0  0  0  0  0  0  0  0  0
   -8.7557   10.5755  -11.5787 H   0  0  0  0  0  0  0  0  0  0  0  0
   -6.3326   10.0069  -10.7637 H   0  0  0  0  0  0  0  0  0  0  0  0
   -8.0313    9.6067   -7.2544 H   0  0  0  0  0  0  0  0  0  0  0  0
   -6.7563   12.3160   -6.9245 H   0  0  0  0  0  0  0  0  0  0  0  0
   -4.5218   13.2977   -6.4798 H   0  0  0  0  0  0  0  0  0  0  0  0
   -2.6703    9.7625   -8.0472 H   0  0  0  0  0  0  0  0  0  0  0  0
   -4.9024    8.7852   -8.4759 H   0  0  0  0  0  0  0  0  0  0  0  0
   -2.4277   14.2118   -6.1857 H   0  0  0  0  0  0  0  0  0  0  0  0
   -0.6637   10.5754   -7.6065 H   0  0  0  0  0  0  0  0  0  0  0  0
    1.4809   14.2752   -6.0543 H   0  0  0  0  0  0  0  0  0  0  0  0
    0.2393   15.4453   -6.6162 H   0  0  0  0  0  0  0  0  0  0  0  0
    0.1804   14.8105   -4.9369 H   0  0  0  0  0  0  0  0  0  0  0  0
   -5.1384   15.8875  -14.4370 H   0  0  0  0  0  0  0  0  0  0  0  0
   -3.0010   15.6690  -13.2536 H   0  0  0  0  0  0  0  0  0  0  0  0
   -4.1509   16.7215  -12.3610 H   0  0  0  0  0  0  0  0  0  0  0  0
   -4.4255   13.3274  -10.3224 H   0  0  0  0  0  0  0  0  0  0  0  0
   -2.6419   14.6376   -9.9343 H   0  0  0  0  0  0  0  0  0  0  0  0
  1  2  2  0  0  0  0
  1  4  1  0  0  0  0
  1 11  1  0  0  0  0
  2  6  1  0  0  0  0
  3  4  2  0  0  0  0
  3  5  1  0  0  0  0
  5  6  1  0  0  0  0
  5  9  1  0  0  0  0
  6  7  1  0  0  0  0
  7  8  1  0  0  0  0
  7 10  2  3  0  0  0
  8  9  2  0  0  0  0
 10 12  1  0  0  0  0
 11 24  1  0  0  0  0
 11 28  2  0  0  0  0
 12 13  2  0  0  0  0
 12 17  1  0  0  0  0
 13 14  1  0  0  0  0
 14 15  2  0  0  0  0
 15 16  1  0  0  0  0
 15 18  1  0  0  0  0
 16 17  2  0  0  0  0
 18 19  2  0  0  0  0
 18 22  1  0  0  0  0
 19 20  1  0  0  0  0
 20 21  1  0  0  0  0
 20 23  1  0  0  0  0
 21 22  2  0  0  0  0
 24 25  2  0  0  0  0
 25 26  1  0  0  0  0
 26 27  1  0  0  0  0
 27 28  1  0  0  0  0
 27 29  2  0  0  0  0
  2 30  1  0  0  0  0
  3 31  1  0  0  0  0
  4 32  1  0  0  0  0
  5 33  1  0  0  0  0
  6 34  1  0  0  0  0
 10 35  1  0  0  0  0
 13 36  1  0  0  0  0
 14 37  1  0  0  0  0
 16 38  1  0  0  0  0
 17 39  1  0  0  0  0
 19 40  1  0  0  0  0
 22 41  1  0  0  0  0
 23 42  1  0  0  0  0
 23 43  1  0  0  0  0
 23 44  1  0  0  0  0
 25 45  1  0  0  0  0
 26 46  1  0  0  0  0
 26 47  1  0  0  0  0
 28 48  1  0  0  0  0
 29 49  1  0  0  0  0
M  END
> <Name>
23

> <IC50[uM]>
0.27

$$$$
23
  -OEChem-05192314333D
 Structure written by MMmdl.
 49 53  0     1  0  0  0  0  0999 V2000
   -6.3775   12.3296  -12.0018 C   0  0  0  0  0  0  0  0  0  0  0  0
   -6.5098   11.7629  -10.7403 C   0  0  0  0  0  0  0  0  0  0  0  0
   -7.7247   10.5660  -13.0266 C   0  0  0  0  0  0  0  0  0  0  0  0
   -6.9942   11.7487  -13.1193 C   0  0  0  0  0  0  0  0  0  0  0  0
   -7.8312   10.0057  -11.7538 C   0  0  3  0  0  0  0  0  0  0  0  0
   -7.2443   10.6021  -10.6070 C   0  0  0  0  0  0  0  0  0  0  0  0
   -7.6167    9.7449   -9.5151 C   0  0  0  0  0  0  0  0  0  0  0  0
   -8.2961    8.7374   -9.9786 N   0  0  0  0  0  0  0  0  0  0  0  0
   -8.4404    8.8724  -11.2937 N   0  0  0  0  0  0  0  0  0  0  0  0
   -7.3318    9.8946   -8.0252 C   0  0  0  0  0  0  0  0  0  0  0  0
   -5.5478   13.5112  -12.1572 C   0  0  0  0  0  0  0  0  0  0  0  0
   -5.9707   10.4870   -7.7351 C   0  0  0  0  0  0  0  0  0  0  0  0
   -5.8642   11.7588   -7.1694 C   0  0  0  0  0  0  0  0  0  0  0  0
   -4.6019   12.3141   -6.9186 C   0  0  0  0  0  0  0  0  0  0  0  0
   -3.4503   11.5963   -7.2357 C   0  0  0  0  0  0  0  0  0  0  0  0
   -3.5604   10.3220   -7.8000 C   0  0  0  0  0  0  0  0  0  0  0  0
   -4.8213    9.7719   -8.0443 C   0  0  0  0  0  0  0  0  0  0  0  0
   -2.0996   12.1710   -6.9757 C   0  0  0  0  0  0  0  0  0  0  0  0
   -1.7487   13.4240   -6.4767 C   0  0  0  0  0  0  0  0  0  0  0  0
   -0.4123   13.4674   -6.4260 N   0  0  0  0  0  0  0  0  0  0  0  0
    0.1713   12.3664   -6.8217 N   0  0  0  0  0  0  0  0  0  0  0  0
   -0.8093   11.5624   -7.1930 C   0  0  0  0  0  0  0  0  0  0  0  0
    0.4224   14.5657   -5.9816 C   0  0  0  0  0  0  0  0  0  0  0  0
   -5.6966   14.2423  -13.2612 N   0  0  0  0  0  0  0  0  0  0  0  0
   -4.9506   15.3153  -13.5405 C   0  0  0  0  0  0  0  0  0  0  0  0
   -3.9383   15.6899  -12.6782 C   0  0  0  0  0  0  0  0  0  0  0  0
   -3.7261   14.9536  -11.5366 C   0  0  0  0  0  0  0  0  0  0  0  0
   -4.5508   13.8769  -11.2437 C   0  0  0  0  0  0  0  0  0  0  0  0
   -2.6976   15.2614  -10.7139 N   0  0  0  0  0  0  0  0  0  0  0  0
   -6.0464   12.2223   -9.8797 H   0  0  0  0  0  0  0  0  0  0  0  0
   -8.7428   10.7712  -13.3891 H   0  0  0  0  0  0  0  0  0  0  0  0
   -7.2451    9.8233  -13.6811 H   0  0  0  0  0  0  0  0  0  0  0  0
   -6.9001   12.2325  -14.0803 H   0  0  0  0  0  0  0  0  0  0  0  0
   -8.7557   10.5755  -11.5787 H   0  0  0  0  0  0  0  0  0  0  0  0
   -8.0313    9.6067   -7.2544 H   0  0  0  0  0  0  0  0  0  0  0  0
   -6.7563   12.3160   -6.9245 H   0  0  0  0  0  0  0  0  0  0  0  0
   -4.5218   13.2977   -6.4798 H   0  0  0  0  0  0  0  0  0  0  0  0
   -2.6703    9.7625   -8.0472 H   0  0  0  0  0  0  0  0  0  0  0  0
   -4.9024    8.7852   -8.4759 H   0  0  0  0  0  0  0  0  0  0  0  0
   -2.4277   14.2118   -6.1857 H   0  0  0  0  0  0  0  0  0  0  0  0
   -0.6637   10.5754   -7.6065 H   0  0  0  0  0  0  0  0  0  0  0  0
    1.4809   14.2752   -6.0543 H   0  0  0  0  0  0  0  0  0  0  0  0
    0.2393   15.4453   -6.6162 H   0  0  0  0  0  0  0  0  0  0  0  0
    0.1804   14.8105   -4.9369 H   0  0  0  0  0  0  0  0  0  0  0  0
   -5.1384   15.8875  -14.4370 H   0  0  0  0  0  0  0  0  0  0  0  0
   -3.0010   15.6690  -13.2536 H   0  0  0  0  0  0  0  0  0  0  0  0
   -4.1509   16.7215  -12.3610 H   0  0  0  0  0  0  0  0  0  0  0  0
   -4.4255   13.3274  -10.3224 H   0  0  0  0  0  0  0  0  0  0  0  0
   -2.6419   14.6376   -9.9343 H   0  0  0  0  0  0  0  0  0  0  0  0
  1  2  1  0  0  0  0
  1  4  2  0  0  0  0
  1 11  1  0  0  0  0
  2  6  2  0  0  0  0
  3  4  1  0  0  0  0
  3  5  1  0  0  0  0
  5  6  1  0  0  0  0
  5  9  1  0  0  0  0
  6  7  1  0  0  0  0
  7  8  1  0  0  0  0
  7 10  2  3  0  0  0
  8  9  2  0  0  0  0
 10 12  1  0  0  0  0
 11 24  1  0  0  0  0
 11 28  2  0  0  0  0
 12 13  2  0  0  0  0
 12 17  1  0  0  0  0
 13 14  1  0  0  0  0
 14 15  2  0  0  0  0
 15 16  1  0  0  0  0
 15 18  1  0  0  0  0
 16 17  2  0  0  0  0
 18 19  2  0  0  0  0
 18 22  1  0  0  0  0
 19 20  1  0  0  0  0
 20 21  1  0  0  0  0
 20 23  1  0  0  0  0
 21 22  2  0  0  0  0
 24 25  2  0  0  0  0
 25 26  1  0  0  0  0
 26 27  1  0  0  0  0
 27 28  1  0  0  0  0
 27 29  2  0  0  0  0
  2 30  1  0  0  0  0
  3 31  1  0  0  0  0
  3 32  1  0  0  0  0
  4 33  1  0  0  0  0
  5 34  1  0  0  0  0
 10 35  1  0  0  0  0
 13 36  1  0  0  0  0
 14 37  1  0  0  0  0
 16 38  1  0  0  0  0
 17 39  1  0  0  0  0
 19 40  1  0  0  0  0
 22 41  1  0  0  0  0
 23 42  1  0  0  0  0
 23 43  1  0  0  0  0
 23 44  1  0  0  0  0
 25 45  1  0  0  0  0
 26 46  1  0  0  0  0
 26 47  1  0  0  0  0
 28 48  1  0  0  0  0
 29 49  1  0  0  0  0
M  END
> <Name>
23

> <IC50[uM]>
0.27

$$$$
23
  -OEChem-05192314333D
 Structure written by MMmdl.
 49 53  0     1  0  0  0  0  0999 V2000
   -6.3775   12.3296  -12.0018 C   0  0  0  0  0  0  0  0  0  0  0  0
   -6.5098   11.7629  -10.7403 C   0  0  0  0  0  0  0  0  0  0  0  0
   -7.7247   10.5660  -13.0266 C   0  0  0  0  0  0  0  0  0  0  0  0
   -6.9942   11.7487  -13.1193 C   0  0  0  0  0  0  0  0  0  0  0  0
   -7.8312   10.0057  -11.7538 C   0  0  0  0  0  0  0  0  0  0  0  0
   -7.2443   10.6021  -10.6070 C   0  0  0  0  0  0  0  0  0  0  0  0
   -7.6167    9.7449   -9.5151 C   0  0  0  0  0  0  0  0  0  0  0  0
   -8.2961    8.7374   -9.9786 N   0  0  0  0  0  0  0  0  0  0  0  0
   -8.4404    8.8724  -11.2937 N   0  0  0  0  0  0  0  0  0  0  0  0
   -7.3318    9.8946   -8.0252 C   0  0  0  0  0  0  0  0  0  0  0  0
   -5.5478   13.5112  -12.1572 C   0  0  0  0  0  0  0  0  0  0  0  0
   -5.9707   10.4870   -7.7351 C   0  0  0  0  0  0  0  0  0  0  0  0
   -5.8642   11.7588   -7.1694 C   0  0  0  0  0  0  0  0  0  0  0  0
   -4.6019   12.3141   -6.9186 C   0  0  0  0  0  0  0  0  0  0  0  0
   -3.4503   11.5963   -7.2357 C   0  0  3  0  0  0  0  0  0  0  0  0
   -3.5604   10.3220   -7.8000 C   0  0  0  0  0  0  0  0  0  0  0  0
   -4.8213    9.7719   -8.0443 C   0  0  0  0  0  0  0  0  0  0  0  0
   -2.0996   12.1710   -6.9757 C   0  0  0  0  0  0  0  0  0  0  0  0
   -1.7487   13.4240   -6.4767 C   0  0  0  0  0  0  0  0  0  0  0  0
   -0.4123   13.4674   -6.4260 N   0  0  0  0  0  0  0  0  0  0  0  0
    0.1713   12.3664   -6.8217 N   0  0  0  0  0  0  0  0  0  0  0  0
   -0.8093   11.5624   -7.1930 C   0  0  0  0  0  0  0  0  0  0  0  0
    0.4224   14.5657   -5.9816 C   0  0  0  0  0  0  0  0  0  0  0  0
   -5.6966   14.2423  -13.2612 N   0  0  0  0  0  0  0  0  0  0  0  0
   -4.9506   15.3153  -13.5405 C   0  0  0  0  0  0  0  0  0  0  0  0
   -3.9383   15.6899  -12.6782 C   0  0  0  0  0  0  0  0  0  0  0  0
   -3.7261   14.9536  -11.5366 C   0  0  0  0  0  0  0  0  0  0  0  0
   -4.5508   13.8769  -11.2437 C   0  0  0  0  0  0  0  0  0  0  0  0
   -2.6976   15.2614  -10.7139 N   0  0  0  0  0  0  0  0  0  0  0  0
   -6.0464   12.2223   -9.8797 H   0  0  0  0  0  0  0  0  0  0  0  0
   -8.1826   10.1089  -13.8914 H   0  0  0  0  0  0  0  0  0  0  0  0
   -6.9001   12.2325  -14.0803 H   0  0  0  0  0  0  0  0  0  0  0  0
   -8.0313    9.6067   -7.2544 H   0  0  0  0  0  0  0  0  0  0  0  0
   -6.7563   12.3160   -6.9245 H   0  0  0  0  0  0  0  0  0  0  0  0
   -4.5527   13.2582   -7.4809 H   0  0  0  0  0  0  0  0  0  0  0  0
   -4.5569   12.5268   -5.8403 H   0  0  0  0  0  0  0  0  0  0  0  0
   -3.4477   12.0425   -8.2411 H   0  0  0  0  0  0  0  0  0  0  0  0
   -2.6703    9.7625   -8.0472 H   0  0  0  0  0  0  0  0  0  0  0  0
   -4.9024    8.7852   -8.4759 H   0  0  0  0  0  0  0  0  0  0  0  0
   -2.4277   14.2118   -6.1857 H   0  0  0  0  0  0  0  0  0  0  0  0
   -0.6637   10.5754   -7.6065 H   0  0  0  0  0  0  0  0  0  0  0  0
    1.4809   14.2752   -6.0543 H   0  0  0  0  0  0  0  0  0  0  0  0
    0.2393   15.4453   -6.6162 H   0  0  0  0  0  0  0  0  0  0  0  0
    0.1804   14.8105   -4.9369 H   0  0  0  0  0  0  0  0  0  0  0  0
   -5.1384   15.8875  -14.4370 H   0  0  0  0  0  0  0  0  0  0  0  0
   -3.0010   15.6690  -13.2536 H   0  0  0  0  0  0  0  0  0  0  0  0
   -4.1509   16.7215  -12.3610 H   0  0  0  0  0  0  0  0  0  0  0  0
   -4.4255   13.3274  -10.3224 H   0  0  0  0  0  0  0  0  0  0  0  0
   -2.6419   14.6376   -9.9343 H   0  0  0  0  0  0  0  0  0  0  0  0
  1  2  2  0  0  0  0
  1  4  1  0  0  0  0
  1 11  1  0  0  0  0
  2  6  1  0  0  0  0
  3  4  2  0  0  0  0
  3  5  1  0  0  0  0
  5  6  2  0  0  0  0
  5  9  1  0  0  0  0
  6  7  1  0  0  0  0
  7  8  1  0  0  0  0
  7 10  2  3  0  0  0
  8  9  2  0  0  0  0
 10 12  1  0  0  0  0
 11 24  1  0  0  0  0
 11 28  2  0  0  0  0
 12 13  2  0  0  0  0
 12 17  1  0  0  0  0
 13 14  1  0  0  0  0
 14 15  1  0  0  0  0
 15 16  1  0  0  0  0
 15 18  1  0  0  0  0
 16 17  2  0  0  0  0
 18 19  2  0  0  0  0
 18 22  1  0  0  0  0
 19 20  1  0  0  0  0
 20 21  1  0  0  0  0
 20 23  1  0  0  0  0
 21 22  2  0  0  0  0
 24 25  2  0  0  0  0
 25 26  1  0  0  0  0
 26 27  1  0  0  0  0
 27 28  1  0  0  0  0
 27 29  2  0  0  0  0
  2 30  1  0  0  0  0
  3 31  1  0  0  0  0
  4 32  1  0  0  0  0
 10 33  1  0  0  0  0
 13 34  1  0  0  0  0
 14 35  1  0  0  0  0
 14 36  1  0  0  0  0
 15 37  1  0  0  0  0
 16 38  1  0  0  0  0
 17 39  1  0  0  0  0
 19 40  1  0  0  0  0
 22 41  1  0  0  0  0
 23 42  1  0  0  0  0
 23 43  1  0  0  0  0
 23 44  1  0  0  0  0
 25 45  1  0  0  0  0
 26 46  1  0  0  0  0
 26 47  1  0  0  0  0
 28 48  1  0  0  0  0
 29 49  1  0  0  0  0
M  END
> <Name>
23

> <IC50[uM]>
0.27

$$$$
23
  -OEChem-05192314333D
 Structure written by MMmdl.
 49 53  0     1  0  0  0  0  0999 V2000
   -6.3775   12.3296  -12.0018 C   0  0  3  0  0  0  0  0  0  0  0  0
   -6.5098   11.7629  -10.7403 C   0  0  0  0  0  0  0  0  0  0  0  0
   -7.7247   10.5660  -13.0266 C   0  0  0  0  0  0  0  0  0  0  0  0
   -6.9942   11.7487  -13.1193 C   0  0  0  0  0  0  0  0  0  0  0  0
   -7.8312   10.0057  -11.7538 C   0  0  0  0  0  0  0  0  0  0  0  0
   -7.2443   10.6021  -10.6070 C   0  0  0  0  0  0  0  0  0  0  0  0
   -7.6167    9.7449   -9.5151 C   0  0  0  0  0  0  0  0  0  0  0  0
   -8.2961    8.7374   -9.9786 N   0  0  0  0  0  0  0  0  0  0  0  0
   -8.4404    8.8724  -11.2937 N   0  0  0  0  0  0  0  0  0  0  0  0
   -7.3318    9.8946   -8.0252 C   0  0  0  0  0  0  0  0  0  0  0  0
   -5.5478   13.5112  -12.1572 C   0  0  0  0  0  0  0  0  0  0  0  0
   -5.9707   10.4870   -7.7351 C   0  0  0  0  0  0  0  0  0  0  0  0
   -5.8642   11.7588   -7.1694 C   0  0  0  0  0  0  0  0  0  0  0  0
   -4.6019   12.3141   -6.9186 C   0  0  0  0  0  0  0  0  0  0  0  0
   -3.4503   11.5963   -7.2357 C   0  0  0  0  0  0  0  0  0  0  0  0
   -3.5604   10.3220   -7.8000 C   0  0  0  0  0  0  0  0  0  0  0  0
   -4.8213    9.7719   -8.0443 C   0  0  0  0  0  0  0  0  0  0  0  0
   -2.0996   12.1710   -6.9757 C   0  0  0  0  0  0  0  0  0  0  0  0
   -1.7487   13.4240   -6.4767 C   0  0  0  0  0  0  0  0  0  0  0  0
   -0.4123   13.4674   -6.4260 N   0  0  0  0  0  0  0  0  0  0  0  0
    0.1713   12.3664   -6.8217 N   0  0  0  0  0  0  0  0  0  0  0  0
   -0.8093   11.5624   -7.1930 C   0  0  0  0  0  0  0  0  0  0  0  0
    0.4224   14.5657   -5.9816 C   0  0  0  0  0  0  0  0  0  0  0  0
   -5.6966   14.2423  -13.2612 N   0  0  0  0  0  0  0  0  0  0  0  0
   -4.9506   15.3153  -13.5405 C   0  0  0  0  0  0  0  0  0  0  0  0
   -3.9383   15.6899  -12.6782 C   0  0  0  0  0  0  0  0  0  0  0  0
   -3.7261   14.9536  -11.5366 C   0  0  0  0  0  0  0  0  0  0  0  0
   -4.5508   13.8769  -11.2437 C   0  0  0  0  0  0  0  0  0  0  0  0
   -2.6976   15.2614  -10.7139 N   0  0  0  0  0  0  0  0  0  0  0  0
   -7.2621   12.9592  -11.8254 H   0  0  0  0  0  0  0  0  0  0  0  0
   -6.0464   12.2223   -9.8797 H   0  0  0  0  0  0  0  0  0  0  0  0
   -8.1826   10.1089  -13.8914 H   0  0  0  0  0  0  0  0  0  0  0  0
   -7.6841   12.5064  -13.5191 H   0  0  0  0  0  0  0  0  0  0  0  0
   -6.1936   11.5599  -13.8497 H   0  0  0  0  0  0  0  0  0  0  0  0
   -8.0313    9.6067   -7.2544 H   0  0  0  0  0  0  0  0  0  0  0  0
   -6.7563   12.3160   -6.9245 H   0  0  0  0  0  0  0  0  0  0  0  0
   -4.5218   13.2977   -6.4798 H   0  0  0  0  0  0  0  0  0  0  0  0
   -2.6703    9.7625   -8.0472 H   0  0  0  0  0  0  0  0  0  0  0  0
   -4.9024    8.7852   -8.4759 H   0  0  0  0  0  0  0  0  0  0  0  0
   -2.4277   14.2118   -6.1857 H   0  0  0  0  0  0  0  0  0  0  0  0
   -0.6637   10.5754   -7.6065 H   0  0  0  0  0  0  0  0  0  0  0  0
    1.4809   14.2752   -6.0543 H   0  0  0  0  0  0  0  0  0  0  0  0
    0.2393   15.4453   -6.6162 H   0  0  0  0  0  0  0  0  0  0  0  0
    0.1804   14.8105   -4.9369 H   0  0  0  0  0  0  0  0  0  0  0  0
   -5.1384   15.8875  -14.4370 H   0  0  0  0  0  0  0  0  0  0  0  0
   -3.0010   15.6690  -13.2536 H   0  0  0  0  0  0  0  0  0  0  0  0
   -4.1509   16.7215  -12.3610 H   0  0  0  0  0  0  0  0  0  0  0  0
   -4.4255   13.3274  -10.3224 H   0  0  0  0  0  0  0  0  0  0  0  0
   -2.6419   14.6376   -9.9343 H   0  0  0  0  0  0  0  0  0  0  0  0
  1  2  1  0  0  0  0
  1  4  1  0  0  0  0
  1 11  1  0  0  0  0
  2  6  2  0  0  0  0
  3  4  1  0  0  0  0
  3  5  2  0  0  0  0
  5  6  1  0  0  0  0
  5  9  1  0  0  0  0
  6  7  1  0  0  0  0
  7  8  1  0  0  0  0
  7 10  2  3  0  0  0
  8  9  2  0  0  0  0
 10 12  1  0  0  0  0
 11 24  1  0  0  0  0
 11 28  2  0  0  0  0
 12 13  2  0  0  0  0
 12 17  1  0  0  0  0
 13 14  1  0  0  0  0
 14 15  2  0  0  0  0
 15 16  1  0  0  0  0
 15 18  1  0  0  0  0
 16 17  2  0  0  0  0
 18 19  2  0  0  0  0
 18 22  1  0  0  0  0
 19 20  1  0  0  0  0
 20 21  1  0  0  0  0
 20 23  1  0  0  0  0
 21 22  2  0  0  0  0
 24 25  2  0  0  0  0
 25 26  1  0  0  0  0
 26 27  1  0  0  0  0
 27 28  1  0  0  0  0
 27 29  2  0  0  0  0
  1 30  1  0  0  0  0
  2 31  1  0  0  0  0
  3 32  1  0  0  0  0
  4 33  1  0  0  0  0
  4 34  1  0  0  0  0
 10 35  1  0  0  0  0
 13 36  1  0  0  0  0
 14 37  1  0  0  0  0
 16 38  1  0  0  0  0
 17 39  1  0  0  0  0
 19 40  1  0  0  0  0
 22 41  1  0  0  0  0
 23 42  1  0  0  0  0
 23 43  1  0  0  0  0
 23 44  1  0  0  0  0
 25 45  1  0  0  0  0
 26 46  1  0  0  0  0
 26 47  1  0  0  0  0
 28 48  1  0  0  0  0
 29 49  1  0  0  0  0
M  END
> <Name>
23

> <IC50[uM]>
0.27

$$$$
23
  -OEChem-05192314333D
 Structure written by MMmdl.
 49 53  0     1  0  0  0  0  0999 V2000
   -6.3775   12.3296  -12.0018 C   0  0  0  0  0  0  0  0  0  0  0  0
   -6.5098   11.7629  -10.7403 C   0  0  0  0  0  0  0  0  0  0  0  0
   -7.7247   10.5660  -13.0266 C   0  0  0  0  0  0  0  0  0  0  0  0
   -6.9942   11.7487  -13.1193 C   0  0  0  0  0  0  0  0  0  0  0  0
   -7.8312   10.0057  -11.7538 C   0  0  0  0  0  0  0  0  0  0  0  0
   -7.2443   10.6021  -10.6070 C   0  0  3  0  0  0  0  0  0  0  0  0
   -7.6167    9.7449   -9.5151 C   0  0  0  0  0  0  0  0  0  0  0  0
   -8.2961    8.7374   -9.9786 N   0  0  0  0  0  0  0  0  0  0  0  0
   -8.4404    8.8724  -11.2937 N   0  0  0  0  0  0  0  0  0  0  0  0
   -7.3318    9.8946   -8.0252 C   0  0  0  0  0  0  0  0  0  0  0  0
   -5.5478   13.5112  -12.1572 C   0  0  0  0  0  0  0  0  0  0  0  0
   -5.9707   10.4870   -7.7351 C   0  0  0  0  0  0  0  0  0  0  0  0
   -5.8642   11.7588   -7.1694 C   0  0  0  0  0  0  0  0  0  0  0  0
   -4.6019   12.3141   -6.9186 C   0  0  0  0  0  0  0  0  0  0  0  0
   -3.4503   11.5963   -7.2357 C   0  0  0  0  0  0  0  0  0  0  0  0
   -3.5604   10.3220   -7.8000 C   0  0  0  0  0  0  0  0  0  0  0  0
   -4.8213    9.7719   -8.0443 C   0  0  0  0  0  0  0  0  0  0  0  0
   -2.0996   12.1710   -6.9757 C   0  0  0  0  0  0  0  0  0  0  0  0
   -1.7487   13.4240   -6.4767 C   0  0  0  0  0  0  0  0  0  0  0  0
   -0.4123   13.4674   -6.4260 N   0  0  0  0  0  0  0  0  0  0  0  0
    0.1713   12.3664   -6.8217 N   0  0  0  0  0  0  0  0  0  0  0  0
   -0.8093   11.5624   -7.1930 C   0  0  0  0  0  0  0  0  0  0  0  0
    0.4224   14.5657   -5.9816 C   0  0  0  0  0  0  0  0  0  0  0  0
   -5.6966   14.2423  -13.2612 N   0  0  0  0  0  0  0  0  0  0  0  0
   -4.9506   15.3153  -13.5405 C   0  0  0  0  0  0  0  0  0  0  0  0
   -3.9383   15.6899  -12.6782 C   0  0  0  0  0  0  0  0  0  0  0  0
   -3.7261   14.9536  -11.5366 C   0  0  0  0  0  0  0  0  0  0  0  0
   -4.5508   13.8769  -11.2437 C   0  0  0  0  0  0  0  0  0  0  0  0
   -2.6976   15.2614  -10.7139 N   0  0  0  0  0  0  0  0  0  0  0  0
   -6.0464   12.2223   -9.8797 H   0  0  0  0  0  0  0  0  0  0  0  0
   -8.1826   10.1089  -13.8914 H   0  0  0  0  0  0  0  0  0  0  0  0
   -7.6841   12.5064  -13.5191 H   0  0  0  0  0  0  0  0  0  0  0  0
   -6.1936   11.5599  -13.8497 H   0  0  0  0  0  0  0  0  0  0  0  0
   -6.3326   10.0069  -10.7637 H   0  0  0  0  0  0  0  0  0  0  0  0
   -8.0313    9.6067   -7.2544 H   0  0  0  0  0  0  0  0  0  0  0  0
   -6.7563   12.3160   -6.9245 H   0  0  0  0  0  0  0  0  0  0  0  0
   -4.5218   13.2977   -6.4798 H   0  0  0  0  0  0  0  0  0  0  0  0
   -2.6703    9.7625   -8.0472 H   0  0  0  0  0  0  0  0  0  0  0  0
   -4.9024    8.7852   -8.4759 H   0  0  0  0  0  0  0  0  0  0  0  0
   -2.4277   14.2118   -6.1857 H   0  0  0  0  0  0  0  0  0  0  0  0
   -0.6637   10.5754   -7.6065 H   0  0  0  0  0  0  0  0  0  0  0  0
    1.4809   14.2752   -6.0543 H   0  0  0  0  0  0  0  0  0  0  0  0
    0.2393   15.4453   -6.6162 H   0  0  0  0  0  0  0  0  0  0  0  0
    0.1804   14.8105   -4.9369 H   0  0  0  0  0  0  0  0  0  0  0  0
   -5.1384   15.8875  -14.4370 H   0  0  0  0  0  0  0  0  0  0  0  0
   -3.0010   15.6690  -13.2536 H   0  0  0  0  0  0  0  0  0  0  0  0
   -4.1509   16.7215  -12.3610 H   0  0  0  0  0  0  0  0  0  0  0  0
   -4.4255   13.3274  -10.3224 H   0  0  0  0  0  0  0  0  0  0  0  0
   -2.6419   14.6376   -9.9343 H   0  0  0  0  0  0  0  0  0  0  0  0
  1  2  2  0  0  0  0
  1  4  1  0  0  0  0
  1 11  1  0  0  0  0
  2  6  1  0  0  0  0
  3  4  1  0  0  0  0
  3  5  2  0  0  0  0
  5  6  1  0  0  0  0
  5  9  1  0  0  0  0
  6  7  1  0  0  0  0
  7  8  1  0  0  0  0
  7 10  2  3  0  0  0
  8  9  2  0  0  0  0
 10 12  1  0  0  0  0
 11 24  1  0  0  0  0
 11 28  2  0  0  0  0
 12 13  2  0  0  0  0
 12 17  1  0  0  0  0
 13 14  1  0  0  0  0
 14 15  2  0  0  0  0
 15 16  1  0  0  0  0
 15 18  1  0  0  0  0
 16 17  2  0  0  0  0
 18 19  2  0  0  0  0
 18 22  1  0  0  0  0
 19 20  1  0  0  0  0
 20 21  1  0  0  0  0
 20 23  1  0  0  0  0
 21 22  2  0  0  0  0
 24 25  2  0  0  0  0
 25 26  1  0  0  0  0
 26 27  1  0  0  0  0
 27 28  1  0  0  0  0
 27 29  2  0  0  0  0
  2 30  1  0  0  0  0
  3 31  1  0  0  0  0
  4 32  1  0  0  0  0
  4 33  1  0  0  0  0
  6 34  1  0  0  0  0
 10 35  1  0  0  0  0
 13 36  1  0  0  0  0
 14 37  1  0  0  0  0
 16 38  1  0  0  0  0
 17 39  1  0  0  0  0
 19 40  1  0  0  0  0
 22 41  1  0  0  0  0
 23 42  1  0  0  0  0
 23 43  1  0  0  0  0
 23 44  1  0  0  0  0
 25 45  1  0  0  0  0
 26 46  1  0  0  0  0
 26 47  1  0  0  0  0
 28 48  1  0  0  0  0
 29 49  1  0  0  0  0
M  END
> <Name>
23

> <IC50[uM]>
0.27

$$$$
23
  -OEChem-05192314333D
 Structure written by MMmdl.
 49 53  0     0  0  0  0  0  0999 V2000
   -6.3775   12.3296  -12.0018 C   0  0  0  0  0  0  0  0  0  0  0  0
   -6.5098   11.7629  -10.7403 C   0  0  0  0  0  0  0  0  0  0  0  0
   -7.7247   10.5660  -13.0266 C   0  0  0  0  0  0  0  0  0  0  0  0
   -6.9942   11.7487  -13.1193 C   0  0  0  0  0  0  0  0  0  0  0  0
   -7.8312   10.0057  -11.7538 C   0  0  0  0  0  0  0  0  0  0  0  0
   -7.2443   10.6021  -10.6070 C   0  0  0  0  0  0  0  0  0  0  0  0
   -7.6167    9.7449   -9.5151 C   0  0  0  0  0  0  0  0  0  0  0  0
   -8.2961    8.7374   -9.9786 N   0  0  0  0  0  0  0  0  0  0  0  0
   -8.4404    8.8724  -11.2937 N   0  0  0  0  0  0  0  0  0  0  0  0
   -7.3318    9.8946   -8.0252 C   0  0  0  0  0  0  0  0  0  0  0  0
   -5.5478   13.5112  -12.1572 C   0  0  0  0  0  0  0  0  0  0  0  0
   -5.9707   10.4870   -7.7351 C   0  0  0  0  0  0  0  0  0  0  0  0
   -5.8642   11.7588   -7.1694 C   0  0  0  0  0  0  0  0  0  0  0  0
   -4.6019   12.3141   -6.9186 C   0  0  0  0  0  0  0  0  0  0  0  0
   -3.4503   11.5963   -7.2357 C   0  0  0  0  0  0  0  0  0  0  0  0
   -3.5604   10.3220   -7.8000 C   0  0  0  0  0  0  0  0  0  0  0  0
   -4.8213    9.7719   -8.0443 C   0  0  0  0  0  0  0  0  0  0  0  0
   -2.0996   12.1710   -6.9757 C   0  0  0  0  0  0  0  0  0  0  0  0
   -1.7487   13.4240   -6.4767 C   0  0  0  0  0  0  0  0  0  0  0  0
   -0.4123   13.4674   -6.4260 N   0  0  0  0  0  0  0  0  0  0  0  0
    0.1713   12.3664   -6.8217 N   0  0  0  0  0  0  0  0  0  0  0  0
   -0.8093   11.5624   -7.1930 C   0  0  0  0  0  0  0  0  0  0  0  0
    0.4224   14.5657   -5.9816 C   0  0  0  0  0  0  0  0  0  0  0  0
   -5.6966   14.2423  -13.2612 N   0  0  0  0  0  0  0  0  0  0  0  0
   -4.9506   15.3153  -13.5405 C   0  0  0  0  0  0  0  0  0  0  0  0
   -3.9383   15.6899  -12.6782 C   0  0  0  0  0  0  0  0  0  0  0  0
   -3.7261   14.9536  -11.5366 C   0  0  0  0  0  0  0  0  0  0  0  0
   -4.5508   13.8769  -11.2437 C   0  0  0  0  0  0  0  0  0  0  0  0
   -2.6976   15.2614  -10.7139 N   0  0  0  0  0  0  0  0  0  0  0  0
   -6.0464   12.2223   -9.8797 H   0  0  0  0  0  0  0  0  0  0  0  0
   -8.7428   10.7712  -13.3891 H   0  0  0  0  0  0  0  0  0  0  0  0
   -7.2451    9.8233  -13.6811 H   0  0  0  0  0  0  0  0  0  0  0  0
   -7.6841   12.5064  -13.5191 H   0  0  0  0  0  0  0  0  0  0  0  0
   -6.1936   11.5599  -13.8497 H   0  0  0  0  0  0  0  0  0  0  0  0
   -8.0313    9.6067   -7.2544 H   0  0  0  0  0  0  0  0  0  0  0  0
   -6.7563   12.3160   -6.9245 H   0  0  0  0  0  0  0  0  0  0  0  0
   -4.5218   13.2977   -6.4798 H   0  0  0  0  0  0  0  0  0  0  0  0
   -2.6703    9.7625   -8.0472 H   0  0  0  0  0  0  0  0  0  0  0  0
   -4.9024    8.7852   -8.4759 H   0  0  0  0  0  0  0  0  0  0  0  0
   -2.4277   14.2118   -6.1857 H   0  0  0  0  0  0  0  0  0  0  0  0
   -0.6637   10.5754   -7.6065 H   0  0  0  0  0  0  0  0  0  0  0  0
    1.4809   14.2752   -6.0543 H   0  0  0  0  0  0  0  0  0  0  0  0
    0.2393   15.4453   -6.6162 H   0  0  0  0  0  0  0  0  0  0  0  0
    0.1804   14.8105   -4.9369 H   0  0  0  0  0  0  0  0  0  0  0  0
   -5.1384   15.8875  -14.4370 H   0  0  0  0  0  0  0  0  0  0  0  0
   -3.0010   15.6690  -13.2536 H   0  0  0  0  0  0  0  0  0  0  0  0
   -4.1509   16.7215  -12.3610 H   0  0  0  0  0  0  0  0  0  0  0  0
   -4.4255   13.3274  -10.3224 H   0  0  0  0  0  0  0  0  0  0  0  0
   -2.6419   14.6376   -9.9343 H   0  0  0  0  0  0  0  0  0  0  0  0
  1  2  2  0  0  0  0
  1  4  1  0  0  0  0
  1 11  1  0  0  0  0
  2  6  1  0  0  0  0
  3  4  1  0  0  0  0
  3  5  1  0  0  0  0
  5  6  2  0  0  0  0
  5  9  1  0  0  0  0
  6  7  1  0  0  0  0
  7  8  1  0  0  0  0
  7 10  2  3  0  0  0
  8  9  2  0  0  0  0
 10 12  1  0  0  0  0
 11 24  1  0  0  0  0
 11 28  2  0  0  0  0
 12 13  2  0  0  0  0
 12 17  1  0  0  0  0
 13 14  1  0  0  0  0
 14 15  2  0  0  0  0
 15 16  1  0  0  0  0
 15 18  1  0  0  0  0
 16 17  2  0  0  0  0
 18 19  2  0  0  0  0
 18 22  1  0  0  0  0
 19 20  1  0  0  0  0
 20 21  1  0  0  0  0
 20 23  1  0  0  0  0
 21 22  2  0  0  0  0
 24 25  2  0  0  0  0
 25 26  1  0  0  0  0
 26 27  1  0  0  0  0
 27 28  1  0  0  0  0
 27 29  2  0  0  0  0
  2 30  1  0  0  0  0
  3 31  1  0  0  0  0
  3 32  1  0  0  0  0
  4 33  1  0  0  0  0
  4 34  1  0  0  0  0
 10 35  1  0  0  0  0
 13 36  1  0  0  0  0
 14 37  1  0  0  0  0
 16 38  1  0  0  0  0
 17 39  1  0  0  0  0
 19 40  1  0  0  0  0
 22 41  1  0  0  0  0
 23 42  1  0  0  0  0
 23 43  1  0  0  0  0
 23 44  1  0  0  0  0
 25 45  1  0  0  0  0
 26 46  1  0  0  0  0
 26 47  1  0  0  0  0
 28 48  1  0  0  0  0
 29 49  1  0  0  0  0
M  END
> <Name>
23

> <IC50[uM]>
0.27

$$$$
23
  -OEChem-05192314333D
 Structure written by MMmdl.
 49 53  0     1  0  0  0  0  0999 V2000
   -6.3775   12.3296  -12.0018 C   0  0  0  0  0  0  0  0  0  0  0  0
   -6.5098   11.7629  -10.7403 C   0  0  0  0  0  0  0  0  0  0  0  0
   -7.7247   10.5660  -13.0266 C   0  0  0  0  0  0  0  0  0  0  0  0
   -6.9942   11.7487  -13.1193 C   0  0  0  0  0  0  0  0  0  0  0  0
   -7.8312   10.0057  -11.7538 C   0  0  0  0  0  0  0  0  0  0  0  0
   -7.2443   10.6021  -10.6070 C   0  0  0  0  0  0  0  0  0  0  0  0
   -7.6167    9.7449   -9.5151 C   0  0  0  0  0  0  0  0  0  0  0  0
   -8.2961    8.7374   -9.9786 N   0  0  0  0  0  0  0  0  0  0  0  0
   -8.4404    8.8724  -11.2937 N   0  0  0  0  0  0  0  0  0  0  0  0
   -7.3318    9.8946   -8.0252 C   0  0  0  0  0  0  0  0  0  0  0  0
   -5.5478   13.5112  -12.1572 C   0  0  0  0  0  0  0  0  0  0  0  0
   -5.9707   10.4870   -7.7351 C   0  0  3  0  0  0  0  0  0  0  0  0
   -5.8642   11.7588   -7.1694 C   0  0  0  0  0  0  0  0  0  0  0  0
   -4.6019   12.3141   -6.9186 C   0  0  0  0  0  0  0  0  0  0  0  0
   -3.4503   11.5963   -7.2357 C   0  0  0  0  0  0  0  0  0  0  0  0
   -3.5604   10.3220   -7.8000 C   0  0  0  0  0  0  0  0  0  0  0  0
   -4.8213    9.7719   -8.0443 C   0  0  0  0  0  0  0  0  0  0  0  0
   -2.0996   12.1710   -6.9757 C   0  0  0  0  0  0  0  0  0  0  0  0
   -1.7487   13.4240   -6.4767 C   0  0  0  0  0  0  0  0  0  0  0  0
   -0.4123   13.4674   -6.4260 N   0  0  0  0  0  0  0  0  0  0  0  0
    0.1713   12.3664   -6.8217 N   0  0  0  0  0  0  0  0  0  0  0  0
   -0.8093   11.5624   -7.1930 C   0  0  0  0  0  0  0  0  0  0  0  0
    0.4224   14.5657   -5.9816 C   0  0  0  0  0  0  0  0  0  0  0  0
   -5.6966   14.2423  -13.2612 N   0  0  0  0  0  0  0  0  0  0  0  0
   -4.9506   15.3153  -13.5405 C   0  0  0  0  0  0  0  0  0  0  0  0
   -3.9383   15.6899  -12.6782 C   0  0  0  0  0  0  0  0  0  0  0  0
   -3.7261   14.9536  -11.5366 C   0  0  0  0  0  0  0  0  0  0  0  0
   -4.5508   13.8769  -11.2437 C   0  0  0  0  0  0  0  0  0  0  0  0
   -2.6976   15.2614  -10.7139 N   0  0  0  0  0  0  0  0  0  0  0  0
   -6.0464   12.2223   -9.8797 H   0  0  0  0  0  0  0  0  0  0  0  0
   -8.1826   10.1089  -13.8914 H   0  0  0  0  0  0  0  0  0  0  0  0
   -6.9001   12.2325  -14.0803 H   0  0  0  0  0  0  0  0  0  0  0  0
   -8.0313    9.6067   -7.2544 H   0  0  0  0  0  0  0  0  0  0  0  0
   -5.9850   10.0375   -6.7313 H   0  0  0  0  0  0  0  0  0  0  0  0
   -6.7563   12.3160   -6.9245 H   0  0  0  0  0  0  0  0  0  0  0  0
   -4.5218   13.2977   -6.4798 H   0  0  0  0  0  0  0  0  0  0  0  0
   -2.6703    9.7625   -8.0472 H   0  0  0  0  0  0  0  0  0  0  0  0
   -4.8715    8.8319   -7.4752 H   0  0  0  0  0  0  0  0  0  0  0  0
   -4.8665    9.5515   -9.1210 H   0  0  0  0  0  0  0  0  0  0  0  0
   -2.4277   14.2118   -6.1857 H   0  0  0  0  0  0  0  0  0  0  0  0
   -0.6637   10.5754   -7.6065 H   0  0  0  0  0  0  0  0  0  0  0  0
    1.4809   14.2752   -6.0543 H   0  0  0  0  0  0  0  0  0  0  0  0
    0.2393   15.4453   -6.6162 H   0  0  0  0  0  0  0  0  0  0  0  0
    0.1804   14.8105   -4.9369 H   0  0  0  0  0  0  0  0  0  0  0  0
   -5.1384   15.8875  -14.4370 H   0  0  0  0  0  0  0  0  0  0  0  0
   -3.0010   15.6690  -13.2536 H   0  0  0  0  0  0  0  0  0  0  0  0
   -4.1509   16.7215  -12.3610 H   0  0  0  0  0  0  0  0  0  0  0  0
   -4.4255   13.3274  -10.3224 H   0  0  0  0  0  0  0  0  0  0  0  0
   -2.6419   14.6376   -9.9343 H   0  0  0  0  0  0  0  0  0  0  0  0
  1  2  2  0  0  0  0
  1  4  1  0  0  0  0
  1 11  1  0  0  0  0
  2  6  1  0  0  0  0
  3  4  2  0  0  0  0
  3  5  1  0  0  0  0
  5  6  2  0  0  0  0
  5  9  1  0  0  0  0
  6  7  1  0  0  0  0
  7  8  1  0  0  0  0
  7 10  2  3  0  0  0
  8  9  2  0  0  0  0
 10 12  1  0  0  0  0
 11 24  1  0  0  0  0
 11 28  2  0  0  0  0
 12 13  1  0  0  0  0
 12 17  1  0  0  0  0
 13 14  2  0  0  0  0
 14 15  1  0  0  0  0
 15 16  2  0  0  0  0
 15 18  1  0  0  0  0
 16 17  1  0  0  0  0
 18 19  2  0  0  0  0
 18 22  1  0  0  0  0
 19 20  1  0  0  0  0
 20 21  1  0  0  0  0
 20 23  1  0  0  0  0
 21 22  2  0  0  0  0
 24 25  2  0  0  0  0
 25 26  1  0  0  0  0
 26 27  1  0  0  0  0
 27 28  1  0  0  0  0
 27 29  2  0  0  0  0
  2 30  1  0  0  0  0
  3 31  1  0  0  0  0
  4 32  1  0  0  0  0
 10 33  1  0  0  0  0
 12 34  1  0  0  0  0
 13 35  1  0  0  0  0
 14 36  1  0  0  0  0
 16 37  1  0  0  0  0
 17 38  1  0  0  0  0
 17 39  1  0  0  0  0
 19 40  1  0  0  0  0
 22 41  1  0  0  0  0
 23 42  1  0  0  0  0
 23 43  1  0  0  0  0
 23 44  1  0  0  0  0
 25 45  1  0  0  0  0
 26 46  1  0  0  0  0
 26 47  1  0  0  0  0
 28 48  1  0  0  0  0
 29 49  1  0  0  0  0
M  END
> <Name>
23

> <IC50[uM]>
0.27

$$$$
23
  -OEChem-05192314333D
 Structure written by MMmdl.
 49 53  0     1  0  0  0  0  0999 V2000
   -6.3775   12.3296  -12.0018 C   0  0  0  0  0  0  0  0  0  0  0  0
   -6.5098   11.7629  -10.7403 C   0  0  0  0  0  0  0  0  0  0  0  0
   -7.7247   10.5660  -13.0266 C   0  0  0  0  0  0  0  0  0  0  0  0
   -6.9942   11.7487  -13.1193 C   0  0  0  0  0  0  0  0  0  0  0  0
   -7.8312   10.0057  -11.7538 C   0  0  0  0  0  0  0  0  0  0  0  0
   -7.2443   10.6021  -10.6070 C   0  0  0  0  0  0  0  0  0  0  0  0
   -7.6167    9.7449   -9.5151 C   0  0  3  0  0  0  0  0  0  0  0  0
   -8.2961    8.7374   -9.9786 N   0  0  0  0  0  0  0  0  0  0  0  0
   -8.4404    8.8724  -11.2937 N   0  0  0  0  0  0  0  0  0  0  0  0
   -7.3318    9.8946   -8.0252 C   0  0  0  0  0  0  0  0  0  0  0  0
   -5.5478   13.5112  -12.1572 C   0  0  0  0  0  0  0  0  0  0  0  0
   -5.9707   10.4870   -7.7351 C   0  0  0  0  0  0  0  0  0  0  0  0
   -5.8642   11.7588   -7.1694 C   0  0  0  0  0  0  0  0  0  0  0  0
   -4.6019   12.3141   -6.9186 C   0  0  0  0  0  0  0  0  0  0  0  0
   -3.4503   11.5963   -7.2357 C   0  0  0  0  0  0  0  0  0  0  0  0
   -3.5604   10.3220   -7.8000 C   0  0  0  0  0  0  0  0  0  0  0  0
   -4.8213    9.7719   -8.0443 C   0  0  0  0  0  0  0  0  0  0  0  0
   -2.0996   12.1710   -6.9757 C   0  0  0  0  0  0  0  0  0  0  0  0
   -1.7487   13.4240   -6.4767 C   0  0  0  0  0  0  0  0  0  0  0  0
   -0.4123   13.4674   -6.4260 N   0  0  0  0  0  0  0  0  0  0  0  0
    0.1713   12.3664   -6.8217 N   0  0  0  0  0  0  0  0  0  0  0  0
   -0.8093   11.5624   -7.1930 C   0  0  0  0  0  0  0  0  0  0  0  0
    0.4224   14.5657   -5.9816 C   0  0  0  0  0  0  0  0  0  0  0  0
   -5.6966   14.2423  -13.2612 N   0  0  0  0  0  0  0  0  0  0  0  0
   -4.9506   15.3153  -13.5405 C   0  0  0  0  0  0  0  0  0  0  0  0
   -3.9383   15.6899  -12.6782 C   0  0  0  0  0  0  0  0  0  0  0  0
   -3.7261   14.9536  -11.5366 C   0  0  0  0  0  0  0  0  0  0  0  0
   -4.5508   13.8769  -11.2437 C   0  0  0  0  0  0  0  0  0  0  0  0
   -2.6976   15.2614  -10.7139 N   0  0  0  0  0  0  0  0  0  0  0  0
   -6.0464   12.2223   -9.8797 H   0  0  0  0  0  0  0  0  0  0  0  0
   -8.1826   10.1089  -13.8914 H   0  0  0  0  0  0  0  0  0  0  0  0
   -6.9001   12.2325  -14.0803 H   0  0  0  0  0  0  0  0  0  0  0  0
   -6.6832    9.1765   -9.6392 H   0  0  0  0  0  0  0  0  0  0  0  0
   -8.0313    9.6067   -7.2544 H   0  0  0  0  0  0  0  0  0  0  0  0
   -6.7563   12.3160   -6.9245 H   0  0  0  0  0  0  0  0  0  0  0  0
   -4.5218   13.2977   -6.4798 H   0  0  0  0  0  0  0  0  0  0  0  0
   -2.6703    9.7625   -8.0472 H   0  0  0  0  0  0  0  0  0  0  0  0
   -4.8715    8.8319   -7.4752 H   0  0  0  0  0  0  0  0  0  0  0  0
   -4.8665    9.5515   -9.1210 H   0  0  0  0  0  0  0  0  0  0  0  0
   -2.4277   14.2118   -6.1857 H   0  0  0  0  0  0  0  0  0  0  0  0
   -0.6637   10.5754   -7.6065 H   0  0  0  0  0  0  0  0  0  0  0  0
    1.4809   14.2752   -6.0543 H   0  0  0  0  0  0  0  0  0  0  0  0
    0.2393   15.4453   -6.6162 H   0  0  0  0  0  0  0  0  0  0  0  0
    0.1804   14.8105   -4.9369 H   0  0  0  0  0  0  0  0  0  0  0  0
   -5.1384   15.8875  -14.4370 H   0  0  0  0  0  0  0  0  0  0  0  0
   -3.0010   15.6690  -13.2536 H   0  0  0  0  0  0  0  0  0  0  0  0
   -4.1509   16.7215  -12.3610 H   0  0  0  0  0  0  0  0  0  0  0  0
   -4.4255   13.3274  -10.3224 H   0  0  0  0  0  0  0  0  0  0  0  0
   -2.6419   14.6376   -9.9343 H   0  0  0  0  0  0  0  0  0  0  0  0
  1  2  2  0  0  0  0
  1  4  1  0  0  0  0
  1 11  1  0  0  0  0
  2  6  1  0  0  0  0
  3  4  2  0  0  0  0
  3  5  1  0  0  0  0
  5  6  2  0  0  0  0
  5  9  1  0  0  0  0
  6  7  1  0  0  0  0
  7  8  1  0  0  0  0
  7 10  1  0  0  0  0
  8  9  2  0  0  0  0
 10 12  2  3  0  0  0
 11 24  1  0  0  0  0
 11 28  2  0  0  0  0
 12 13  1  0  0  0  0
 12 17  1  0  0  0  0
 13 14  2  0  0  0  0
 14 15  1  0  0  0  0
 15 16  2  0  0  0  0
 15 18  1  0  0  0  0
 16 17  1  0  0  0  0
 18 19  2  0  0  0  0
 18 22  1  0  0  0  0
 19 20  1  0  0  0  0
 20 21  1  0  0  0  0
 20 23  1  0  0  0  0
 21 22  2  0  0  0  0
 24 25  2  0  0  0  0
 25 26  1  0  0  0  0
 26 27  1  0  0  0  0
 27 28  1  0  0  0  0
 27 29  2  0  0  0  0
  2 30  1  0  0  0  0
  3 31  1  0  0  0  0
  4 32  1  0  0  0  0
  7 33  1  0  0  0  0
 10 34  1  0  0  0  0
 13 35  1  0  0  0  0
 14 36  1  0  0  0  0
 16 37  1  0  0  0  0
 17 38  1  0  0  0  0
 17 39  1  0  0  0  0
 19 40  1  0  0  0  0
 22 41  1  0  0  0  0
 23 42  1  0  0  0  0
 23 43  1  0  0  0  0
 23 44  1  0  0  0  0
 25 45  1  0  0  0  0
 26 46  1  0  0  0  0
 26 47  1  0  0  0  0
 28 48  1  0  0  0  0
 29 49  1  0  0  0  0
M  END
> <Name>
23

> <IC50[uM]>
0.27

$$$$
23
  -OEChem-05192314333D
 Structure written by MMmdl.
 49 53  0     0  0  0  0  0  0999 V2000
   -6.3775   12.3296  -12.0018 C   0  0  0  0  0  0  0  0  0  0  0  0
   -6.5098   11.7629  -10.7403 C   0  0  0  0  0  0  0  0  0  0  0  0
   -7.7247   10.5660  -13.0266 C   0  0  0  0  0  0  0  0  0  0  0  0
   -6.9942   11.7487  -13.1193 C   0  0  0  0  0  0  0  0  0  0  0  0
   -7.8312   10.0057  -11.7538 C   0  0  0  0  0  0  0  0  0  0  0  0
   -7.2443   10.6021  -10.6070 C   0  0  0  0  0  0  0  0  0  0  0  0
   -7.6167    9.7449   -9.5151 C   0  0  0  0  0  0  0  0  0  0  0  0
   -8.2961    8.7374   -9.9786 N   0  0  0  0  0  0  0  0  0  0  0  0
   -8.4404    8.8724  -11.2937 N   0  0  0  0  0  0  0  0  0  0  0  0
   -7.3318    9.8946   -8.0252 C   0  0  0  0  0  0  0  0  0  0  0  0
   -5.5478   13.5112  -12.1572 C   0  0  0  0  0  0  0  0  0  0  0  0
   -5.9707   10.4870   -7.7351 C   0  0  0  0  0  0  0  0  0  0  0  0
   -5.8642   11.7588   -7.1694 C   0  0  0  0  0  0  0  0  0  0  0  0
   -4.6019   12.3141   -6.9186 C   0  0  0  0  0  0  0  0  0  0  0  0
   -3.4503   11.5963   -7.2357 C   0  0  0  0  0  0  0  0  0  0  0  0
   -3.5604   10.3220   -7.8000 C   0  0  0  0  0  0  0  0  0  0  0  0
   -4.8213    9.7719   -8.0443 C   0  0  0  0  0  0  0  0  0  0  0  0
   -2.0996   12.1710   -6.9757 C   0  0  0  0  0  0  0  0  0  0  0  0
   -1.7487   13.4240   -6.4767 C   0  0  0  0  0  0  0  0  0  0  0  0
   -0.4123   13.4674   -6.4260 N   0  0  0  0  0  0  0  0  0  0  0  0
    0.1713   12.3664   -6.8217 N   0  0  0  0  0  0  0  0  0  0  0  0
   -0.8093   11.5624   -7.1930 C   0  0  0  0  0  0  0  0  0  0  0  0
    0.4224   14.5657   -5.9816 C   0  0  0  0  0  0  0  0  0  0  0  0
   -5.6966   14.2423  -13.2612 N   0  0  0  0  0  0  0  0  0  0  0  0
   -4.9506   15.3153  -13.5405 C   0  0  0  0  0  0  0  0  0  0  0  0
   -3.9383   15.6899  -12.6782 C   0  0  0  0  0  0  0  0  0  0  0  0
   -3.7261   14.9536  -11.5366 C   0  0  0  0  0  0  0  0  0  0  0  0
   -4.5508   13.8769  -11.2437 C   0  0  0  0  0  0  0  0  0  0  0  0
   -2.6976   15.2614  -10.7139 N   0  0  0  0  0  0  0  0  0  0  0  0
   -6.0464   12.2223   -9.8797 H   0  0  0  0  0  0  0  0  0  0  0  0
   -8.1826   10.1089  -13.8914 H   0  0  0  0  0  0  0  0  0  0  0  0
   -6.9001   12.2325  -14.0803 H   0  0  0  0  0  0  0  0  0  0  0  0
   -8.0313    9.6067   -7.2544 H   0  0  0  0  0  0  0  0  0  0  0  0
   -6.7563   12.3160   -6.9245 H   0  0  0  0  0  0  0  0  0  0  0  0
   -4.5527   13.2582   -7.4809 H   0  0  0  0  0  0  0  0  0  0  0  0
   -4.5569   12.5268   -5.8403 H   0  0  0  0  0  0  0  0  0  0  0  0
   -2.6703    9.7625   -8.0472 H   0  0  0  0  0  0  0  0  0  0  0  0
   -4.8715    8.8319   -7.4752 H   0  0  0  0  0  0  0  0  0  0  0  0
   -4.8665    9.5515   -9.1210 H   0  0  0  0  0  0  0  0  0  0  0  0
   -2.4277   14.2118   -6.1857 H   0  0  0  0  0  0  0  0  0  0  0  0
   -0.6637   10.5754   -7.6065 H   0  0  0  0  0  0  0  0  0  0  0  0
    1.4809   14.2752   -6.0543 H   0  0  0  0  0  0  0  0  0  0  0  0
    0.2393   15.4453   -6.6162 H   0  0  0  0  0  0  0  0  0  0  0  0
    0.1804   14.8105   -4.9369 H   0  0  0  0  0  0  0  0  0  0  0  0
   -5.1384   15.8875  -14.4370 H   0  0  0  0  0  0  0  0  0  0  0  0
   -3.0010   15.6690  -13.2536 H   0  0  0  0  0  0  0  0  0  0  0  0
   -4.1509   16.7215  -12.3610 H   0  0  0  0  0  0  0  0  0  0  0  0
   -4.4255   13.3274  -10.3224 H   0  0  0  0  0  0  0  0  0  0  0  0
   -2.6419   14.6376   -9.9343 H   0  0  0  0  0  0  0  0  0  0  0  0
  1  2  2  0  0  0  0
  1  4  1  0  0  0  0
  1 11  1  0  0  0  0
  2  6  1  0  0  0  0
  3  4  2  0  0  0  0
  3  5  1  0  0  0  0
  5  6  2  0  0  0  0
  5  9  1  0  0  0  0
  6  7  1  0  0  0  0
  7  8  1  0  0  0  0
  7 10  2  3  0  0  0
  8  9  2  0  0  0  0
 10 12  1  0  0  0  0
 11 24  1  0  0  0  0
 11 28  2  0  0  0  0
 12 13  2  0  0  0  0
 12 17  1  0  0  0  0
 13 14  1  0  0  0  0
 14 15  1  0  0  0  0
 15 16  2  0  0  0  0
 15 18  1  0  0  0  0
 16 17  1  0  0  0  0
 18 19  2  0  0  0  0
 18 22  1  0  0  0  0
 19 20  1  0  0  0  0
 20 21  1  0  0  0  0
 20 23  1  0  0  0  0
 21 22  2  0  0  0  0
 24 25  2  0  0  0  0
 25 26  1  0  0  0  0
 26 27  1  0  0  0  0
 27 28  1  0  0  0  0
 27 29  2  0  0  0  0
  2 30  1  0  0  0  0
  3 31  1  0  0  0  0
  4 32  1  0  0  0  0
 10 33  1  0  0  0  0
 13 34  1  0  0  0  0
 14 35  1  0  0  0  0
 14 36  1  0  0  0  0
 16 37  1  0  0  0  0
 17 38  1  0  0  0  0
 17 39  1  0  0  0  0
 19 40  1  0  0  0  0
 22 41  1  0  0  0  0
 23 42  1  0  0  0  0
 23 43  1  0  0  0  0
 23 44  1  0  0  0  0
 25 45  1  0  0  0  0
 26 46  1  0  0  0  0
 26 47  1  0  0  0  0
 28 48  1  0  0  0  0
 29 49  1  0  0  0  0
M  END
> <Name>
23

> <IC50[uM]>
0.27

$$$$
23
  -OEChem-05192314333D
 Structure written by MMmdl.
 49 53  0     0  0  0  0  0  0999 V2000
   -6.3775   12.3296  -12.0018 C   0  0  0  0  0  0  0  0  0  0  0  0
   -6.5098   11.7629  -10.7403 C   0  0  0  0  0  0  0  0  0  0  0  0
   -7.7247   10.5660  -13.0266 C   0  0  0  0  0  0  0  0  0  0  0  0
   -6.9942   11.7487  -13.1193 C   0  0  0  0  0  0  0  0  0  0  0  0
   -7.8312   10.0057  -11.7538 C   0  0  0  0  0  0  0  0  0  0  0  0
   -7.2443   10.6021  -10.6070 C   0  0  0  0  0  0  0  0  0  0  0  0
   -7.6167    9.7449   -9.5151 C   0  0  0  0  0  0  0  0  0  0  0  0
   -8.2961    8.7374   -9.9786 N   0  0  0  0  0  0  0  0  0  0  0  0
   -8.4404    8.8724  -11.2937 N   0  0  0  0  0  0  0  0  0  0  0  0
   -7.3318    9.8946   -8.0252 C   0  0  0  0  0  0  0  0  0  0  0  0
   -5.5478   13.5112  -12.1572 C   0  0  0  0  0  0  0  0  0  0  0  0
   -5.9707   10.4870   -7.7351 C   0  0  0  0  0  0  0  0  0  0  0  0
   -5.8642   11.7588   -7.1694 C   0  0  0  0  0  0  0  0  0  0  0  0
   -4.6019   12.3141   -6.9186 C   0  0  0  0  0  0  0  0  0  0  0  0
   -3.4503   11.5963   -7.2357 C   0  0  0  0  0  0  0  0  0  0  0  0
   -3.5604   10.3220   -7.8000 C   0  0  0  0  0  0  0  0  0  0  0  0
   -4.8213    9.7719   -8.0443 C   0  0  0  0  0  0  0  0  0  0  0  0
   -2.0996   12.1710   -6.9757 C   0  0  0  0  0  0  0  0  0  0  0  0
   -1.7487   13.4240   -6.4767 C   0  0  0  0  0  0  0  0  0  0  0  0
   -0.4123   13.4674   -6.4260 N   0  0  0  0  0  0  0  0  0  0  0  0
    0.1713   12.3664   -6.8217 N   0  0  0  0  0  0  0  0  0  0  0  0
   -0.8093   11.5624   -7.1930 C   0  0  0  0  0  0  0  0  0  0  0  0
    0.4224   14.5657   -5.9816 C   0  0  0  0  0  0  0  0  0  0  0  0
   -5.6966   14.2423  -13.2612 N   0  0  0  0  0  0  0  0  0  0  0  0
   -4.9506   15.3153  -13.5405 C   0  0  0  0  0  0  0  0  0  0  0  0
   -3.9383   15.6899  -12.6782 C   0  0  0  0  0  0  0  0  0  0  0  0
   -3.7261   14.9536  -11.5366 C   0  0  0  0  0  0  0  0  0  0  0  0
   -4.5508   13.8769  -11.2437 C   0  0  0  0  0  0  0  0  0  0  0  0
   -2.6976   15.2614  -10.7139 N   0  0  0  0  0  0  0  0  0  0  0  0
   -6.0464   12.2223   -9.8797 H   0  0  0  0  0  0  0  0  0  0  0  0
   -8.1826   10.1089  -13.8914 H   0  0  0  0  0  0  0  0  0  0  0  0
   -6.9001   12.2325  -14.0803 H   0  0  0  0  0  0  0  0  0  0  0  0
   -8.0313    9.6067   -7.2544 H   0  0  0  0  0  0  0  0  0  0  0  0
   -6.7563   12.3160   -6.9245 H   0  0  0  0  0  0  0  0  0  0  0  0
   -4.5218   13.2977   -6.4798 H   0  0  0  0  0  0  0  0  0  0  0  0
   -3.0365   10.3566   -8.7666 H   0  0  0  0  0  0  0  0  0  0  0  0
   -3.0375    9.6293   -7.1241 H   0  0  0  0  0  0  0  0  0  0  0  0
   -4.8715    8.8319   -7.4752 H   0  0  0  0  0  0  0  0  0  0  0  0
   -4.8665    9.5515   -9.1210 H   0  0  0  0  0  0  0  0  0  0  0  0
   -2.4277   14.2118   -6.1857 H   0  0  0  0  0  0  0  0  0  0  0  0
   -0.6637   10.5754   -7.6065 H   0  0  0  0  0  0  0  0  0  0  0  0
    1.4809   14.2752   -6.0543 H   0  0  0  0  0  0  0  0  0  0  0  0
    0.2393   15.4453   -6.6162 H   0  0  0  0  0  0  0  0  0  0  0  0
    0.1804   14.8105   -4.9369 H   0  0  0  0  0  0  0  0  0  0  0  0
   -5.1384   15.8875  -14.4370 H   0  0  0  0  0  0  0  0  0  0  0  0
   -3.0010   15.6690  -13.2536 H   0  0  0  0  0  0  0  0  0  0  0  0
   -4.1509   16.7215  -12.3610 H   0  0  0  0  0  0  0  0  0  0  0  0
   -4.4255   13.3274  -10.3224 H   0  0  0  0  0  0  0  0  0  0  0  0
   -2.6419   14.6376   -9.9343 H   0  0  0  0  0  0  0  0  0  0  0  0
  1  2  2  0  0  0  0
  1  4  1  0  0  0  0
  1 11  1  0  0  0  0
  2  6  1  0  0  0  0
  3  4  2  0  0  0  0
  3  5  1  0  0  0  0
  5  6  2  0  0  0  0
  5  9  1  0  0  0  0
  6  7  1  0  0  0  0
  7  8  1  0  0  0  0
  7 10  2  3  0  0  0
  8  9  2  0  0  0  0
 10 12  1  0  0  0  0
 11 24  1  0  0  0  0
 11 28  2  0  0  0  0
 12 13  2  0  0  0  0
 12 17  1  0  0  0  0
 13 14  1  0  0  0  0
 14 15  2  0  0  0  0
 15 16  1  0  0  0  0
 15 18  1  0  0  0  0
 16 17  1  0  0  0  0
 18 19  2  0  0  0  0
 18 22  1  0  0  0  0
 19 20  1  0  0  0  0
 20 21  1  0  0  0  0
 20 23  1  0  0  0  0
 21 22  2  0  0  0  0
 24 25  2  0  0  0  0
 25 26  1  0  0  0  0
 26 27  1  0  0  0  0
 27 28  1  0  0  0  0
 27 29  2  0  0  0  0
  2 30  1  0  0  0  0
  3 31  1  0  0  0  0
  4 32  1  0  0  0  0
 10 33  1  0  0  0  0
 13 34  1  0  0  0  0
 14 35  1  0  0  0  0
 16 36  1  0  0  0  0
 16 37  1  0  0  0  0
 17 38  1  0  0  0  0
 17 39  1  0  0  0  0
 19 40  1  0  0  0  0
 22 41  1  0  0  0  0
 23 42  1  0  0  0  0
 23 43  1  0  0  0  0
 23 44  1  0  0  0  0
 25 45  1  0  0  0  0
 26 46  1  0  0  0  0
 26 47  1  0  0  0  0
 28 48  1  0  0  0  0
 29 49  1  0  0  0  0
M  END
> <Name>
23

> <IC50[uM]>
0.27

$$$$
23
  -OEChem-05192314333D
 Structure written by MMmdl.
 49 53  0     0  0  0  0  0  0999 V2000
   -6.3775   12.3296  -12.0018 C   0  0  0  0  0  0  0  0  0  0  0  0
   -6.5098   11.7629  -10.7403 C   0  0  0  0  0  0  0  0  0  0  0  0
   -7.7247   10.5660  -13.0266 C   0  0  0  0  0  0  0  0  0  0  0  0
   -6.9942   11.7487  -13.1193 C   0  0  0  0  0  0  0  0  0  0  0  0
   -7.8312   10.0057  -11.7538 C   0  0  0  0  0  0  0  0  0  0  0  0
   -7.2443   10.6021  -10.6070 C   0  0  0  0  0  0  0  0  0  0  0  0
   -7.6167    9.7449   -9.5151 C   0  0  0  0  0  0  0  0  0  0  0  0
   -8.2961    8.7374   -9.9786 N   0  0  0  0  0  0  0  0  0  0  0  0
   -8.4404    8.8724  -11.2937 N   0  0  0  0  0  0  0  0  0  0  0  0
   -7.3318    9.8946   -8.0252 C   0  0  0  0  0  0  0  0  0  0  0  0
   -5.5478   13.5112  -12.1572 C   0  0  0  0  0  0  0  0  0  0  0  0
   -5.9707   10.4870   -7.7351 C   0  0  0  0  0  0  0  0  0  0  0  0
   -5.8642   11.7588   -7.1694 C   0  0  0  0  0  0  0  0  0  0  0  0
   -4.6019   12.3141   -6.9186 C   0  0  0  0  0  0  0  0  0  0  0  0
   -3.4503   11.5963   -7.2357 C   0  0  0  0  0  0  0  0  0  0  0  0
   -3.5604   10.3220   -7.8000 C   0  0  0  0  0  0  0  0  0  0  0  0
   -4.8213    9.7719   -8.0443 C   0  0  0  0  0  0  0  0  0  0  0  0
   -2.0996   12.1710   -6.9757 C   0  0  0  0  0  0  0  0  0  0  0  0
   -1.7487   13.4240   -6.4767 C   0  0  0  0  0  0  0  0  0  0  0  0
   -0.4123   13.4674   -6.4260 N   0  0  0  0  0  0  0  0  0  0  0  0
    0.1713   12.3664   -6.8217 N   0  0  0  0  0  0  0  0  0  0  0  0
   -0.8093   11.5624   -7.1930 C   0  0  0  0  0  0  0  0  0  0  0  0
    0.4224   14.5657   -5.9816 C   0  0  0  0  0  0  0  0  0  0  0  0
   -5.6966   14.2423  -13.2612 N   0  0  0  0  0  0  0  0  0  0  0  0
   -4.9506   15.3153  -13.5405 C   0  0  0  0  0  0  0  0  0  0  0  0
   -3.9383   15.6899  -12.6782 C   0  0  0  0  0  0  0  0  0  0  0  0
   -3.7261   14.9536  -11.5366 C   0  0  0  0  0  0  0  0  0  0  0  0
   -4.5508   13.8769  -11.2437 C   0  0  0  0  0  0  0  0  0  0  0  0
   -2.6976   15.2614  -10.7139 N   0  0  0  0  0  0  0  0  0  0  0  0
   -6.0464   12.2223   -9.8797 H   0  0  0  0  0  0  0  0  0  0  0  0
   -8.1826   10.1089  -13.8914 H   0  0  0  0  0  0  0  0  0  0  0  0
   -6.9001   12.2325  -14.0803 H   0  0  0  0  0  0  0  0  0  0  0  0
   -8.0313    9.6067   -7.2544 H   0  0  0  0  0  0  0  0  0  0  0  0
   -5.9850   10.0375   -6.7313 H   0  0  0  0  0  0  0  0  0  0  0  0
   -6.7563   12.3160   -6.9245 H   0  0  0  0  0  0  0  0  0  0  0  0
   -4.5218   13.2977   -6.4798 H   0  0  0  0  0  0  0  0  0  0  0  0
   -3.4477   12.0425   -8.2411 H   0  0  0  0  0  0  0  0  0  0  0  0
   -2.6703    9.7625   -8.0472 H   0  0  0  0  0  0  0  0  0  0  0  0
   -4.9024    8.7852   -8.4759 H   0  0  0  0  0  0  0  0  0  0  0  0
   -2.4277   14.2118   -6.1857 H   0  0  0  0  0  0  0  0  0  0  0  0
   -0.6637   10.5754   -7.6065 H   0  0  0  0  0  0  0  0  0  0  0  0
    1.4809   14.2752   -6.0543 H   0  0  0  0  0  0  0  0  0  0  0  0
    0.2393   15.4453   -6.6162 H   0  0  0  0  0  0  0  0  0  0  0  0
    0.1804   14.8105   -4.9369 H   0  0  0  0  0  0  0  0  0  0  0  0
   -5.1384   15.8875  -14.4370 H   0  0  0  0  0  0  0  0  0  0  0  0
   -3.3221   16.5493  -12.8978 H   0  0  0  0  0  0  0  0  0  0  0  0
   -5.0546   14.1072  -10.2933 H   0  0  0  0  0  0  0  0  0  0  0  0
   -3.8997   13.0003  -11.1106 H   0  0  0  0  0  0  0  0  0  0  0  0
   -2.6419   14.6376   -9.9343 H   0  0  0  0  0  0  0  0  0  0  0  0
  1  2  2  0  0  0  0
  1  4  1  0  0  0  0
  1 11  1  0  0  0  0
  2  6  1  0  0  0  0
  3  4  2  0  0  0  0
  3  5  1  0  0  0  0
  5  6  2  0  0  0  0
  5  9  1  0  0  0  0
  6  7  1  0  0  0  0
  7  8  1  0  0  0  0
  7 10  2  3  0  0  0
  8  9  2  0  0  0  0
 10 12  1  0  0  0  0
 11 24  2  0  0  0  0
 11 28  1  0  0  0  0
 12 13  1  0  0  0  0
 12 17  1  0  0  0  0
 13 14  2  0  0  0  0
 14 15  1  0  0  0  0
 15 16  1  0  0  0  0
 15 18  1  0  0  0  0
 16 17  2  0  0  0  0
 18 19  2  0  0  0  0
 18 22  1  0  0  0  0
 19 20  1  0  0  0  0
 20 21  1  0  0  0  0
 20 23  1  0  0  0  0
 21 22  2  0  0  0  0
 24 25  1  0  0  0  0
 25 26  2  0  0  0  0
 26 27  1  0  0  0  0
 27 28  1  0  0  0  0
 27 29  2  0  0  0  0
  2 30  1  0  0  0  0
  3 31  1  0  0  0  0
  4 32  1  0  0  0  0
 10 33  1  0  0  0  0
 12 34  1  0  0  0  0
 13 35  1  0  0  0  0
 14 36  1  0  0  0  0
 15 37  1  0  0  0  0
 16 38  1  0  0  0  0
 17 39  1  0  0  0  0
 19 40  1  0  0  0  0
 22 41  1  0  0  0  0
 23 42  1  0  0  0  0
 23 43  1  0  0  0  0
 23 44  1  0  0  0  0
 25 45  1  0  0  0  0
 26 46  1  0  0  0  0
 28 47  1  0  0  0  0
 28 48  1  0  0  0  0
 29 49  1  0  0  0  0
M  END
> <Name>
23

> <IC50[uM]>
0.27

$$$$
23
  -OEChem-05192314333D
 Structure written by MMmdl.
 49 53  0     1  0  0  0  0  0999 V2000
   -6.3775   12.3296  -12.0018 C   0  0  0  0  0  0  0  0  0  0  0  0
   -6.5098   11.7629  -10.7403 C   0  0  0  0  0  0  0  0  0  0  0  0
   -7.7247   10.5660  -13.0266 C   0  0  0  0  0  0  0  0  0  0  0  0
   -6.9942   11.7487  -13.1193 C   0  0  0  0  0  0  0  0  0  0  0  0
   -7.8312   10.0057  -11.7538 C   0  0  0  0  0  0  0  0  0  0  0  0
   -7.2443   10.6021  -10.6070 C   0  0  0  0  0  0  0  0  0  0  0  0
   -7.6167    9.7449   -9.5151 C   0  0  3  0  0  0  0  0  0  0  0  0
   -8.2961    8.7374   -9.9786 N   0  0  0  0  0  0  0  0  0  0  0  0
   -8.4404    8.8724  -11.2937 N   0  0  0  0  0  0  0  0  0  0  0  0
   -7.3318    9.8946   -8.0252 C   0  0  0  0  0  0  0  0  0  0  0  0
   -5.5478   13.5112  -12.1572 C   0  0  0  0  0  0  0  0  0  0  0  0
   -5.9707   10.4870   -7.7351 C   0  0  0  0  0  0  0  0  0  0  0  0
   -5.8642   11.7588   -7.1694 C   0  0  0  0  0  0  0  0  0  0  0  0
   -4.6019   12.3141   -6.9186 C   0  0  0  0  0  0  0  0  0  0  0  0
   -3.4503   11.5963   -7.2357 C   0  0  0  0  0  0  0  0  0  0  0  0
   -3.5604   10.3220   -7.8000 C   0  0  0  0  0  0  0  0  0  0  0  0
   -4.8213    9.7719   -8.0443 C   0  0  0  0  0  0  0  0  0  0  0  0
   -2.0996   12.1710   -6.9757 C   0  0  0  0  0  0  0  0  0  0  0  0
   -1.7487   13.4240   -6.4767 C   0  0  0  0  0  0  0  0  0  0  0  0
   -0.4123   13.4674   -6.4260 N   0  0  0  0  0  0  0  0  0  0  0  0
    0.1713   12.3664   -6.8217 N   0  0  0  0  0  0  0  0  0  0  0  0
   -0.8093   11.5624   -7.1930 C   0  0  0  0  0  0  0  0  0  0  0  0
    0.4224   14.5657   -5.9816 C   0  0  0  0  0  0  0  0  0  0  0  0
   -5.6966   14.2423  -13.2612 N   0  0  0  0  0  0  0  0  0  0  0  0
   -4.9506   15.3153  -13.5405 C   0  0  0  0  0  0  0  0  0  0  0  0
   -3.9383   15.6899  -12.6782 C   0  0  0  0  0  0  0  0  0  0  0  0
   -3.7261   14.9536  -11.5366 C   0  0  0  0  0  0  0  0  0  0  0  0
   -4.5508   13.8769  -11.2437 C   0  0  0  0  0  0  0  0  0  0  0  0
   -2.6976   15.2614  -10.7139 N   0  0  0  0  0  0  0  0  0  0  0  0
   -6.0464   12.2223   -9.8797 H   0  0  0  0  0  0  0  0  0  0  0  0
   -8.1826   10.1089  -13.8914 H   0  0  0  0  0  0  0  0  0  0  0  0
   -6.9001   12.2325  -14.0803 H   0  0  0  0  0  0  0  0  0  0  0  0
   -6.6832    9.1765   -9.6392 H   0  0  0  0  0  0  0  0  0  0  0  0
   -8.0313    9.6067   -7.2544 H   0  0  0  0  0  0  0  0  0  0  0  0
   -6.7563   12.3160   -6.9245 H   0  0  0  0  0  0  0  0  0  0  0  0
   -4.5218   13.2977   -6.4798 H   0  0  0  0  0  0  0  0  0  0  0  0
   -3.4477   12.0425   -8.2411 H   0  0  0  0  0  0  0  0  0  0  0  0
   -2.6703    9.7625   -8.0472 H   0  0  0  0  0  0  0  0  0  0  0  0
   -4.9024    8.7852   -8.4759 H   0  0  0  0  0  0  0  0  0  0  0  0
   -2.4277   14.2118   -6.1857 H   0  0  0  0  0  0  0  0  0  0  0  0
   -0.6637   10.5754   -7.6065 H   0  0  0  0  0  0  0  0  0  0  0  0
    1.4809   14.2752   -6.0543 H   0  0  0  0  0  0  0  0  0  0  0  0
    0.2393   15.4453   -6.6162 H   0  0  0  0  0  0  0  0  0  0  0  0
    0.1804   14.8105   -4.9369 H   0  0  0  0  0  0  0  0  0  0  0  0
   -5.1384   15.8875  -14.4370 H   0  0  0  0  0  0  0  0  0  0  0  0
   -3.3221   16.5493  -12.8978 H   0  0  0  0  0  0  0  0  0  0  0  0
   -5.0546   14.1072  -10.2933 H   0  0  0  0  0  0  0  0  0  0  0  0
   -3.8997   13.0003  -11.1106 H   0  0  0  0  0  0  0  0  0  0  0  0
   -2.6419   14.6376   -9.9343 H   0  0  0  0  0  0  0  0  0  0  0  0
  1  2  2  0  0  0  0
  1  4  1  0  0  0  0
  1 11  1  0  0  0  0
  2  6  1  0  0  0  0
  3  4  2  0  0  0  0
  3  5  1  0  0  0  0
  5  6  2  0  0  0  0
  5  9  1  0  0  0  0
  6  7  1  0  0  0  0
  7  8  1  0  0  0  0
  7 10  1  0  0  0  0
  8  9  2  0  0  0  0
 10 12  2  0  0  0  0
 11 24  2  0  0  0  0
 11 28  1  0  0  0  0
 12 13  1  0  0  0  0
 12 17  1  0  0  0  0
 13 14  2  0  0  0  0
 14 15  1  0  0  0  0
 15 16  1  0  0  0  0
 15 18  1  0  0  0  0
 16 17  2  0  0  0  0
 18 19  2  0  0  0  0
 18 22  1  0  0  0  0
 19 20  1  0  0  0  0
 20 21  1  0  0  0  0
 20 23  1  0  0  0  0
 21 22  2  0  0  0  0
 24 25  1  0  0  0  0
 25 26  2  0  0  0  0
 26 27  1  0  0  0  0
 27 28  1  0  0  0  0
 27 29  2  0  0  0  0
  2 30  1  0  0  0  0
  3 31  1  0  0  0  0
  4 32  1  0  0  0  0
  7 33  1  0  0  0  0
 10 34  1  0  0  0  0
 13 35  1  0  0  0  0
 14 36  1  0  0  0  0
 15 37  1  0  0  0  0
 16 38  1  0  0  0  0
 17 39  1  0  0  0  0
 19 40  1  0  0  0  0
 22 41  1  0  0  0  0
 23 42  1  0  0  0  0
 23 43  1  0  0  0  0
 23 44  1  0  0  0  0
 25 45  1  0  0  0  0
 26 46  1  0  0  0  0
 28 47  1  0  0  0  0
 28 48  1  0  0  0  0
 29 49  1  0  0  0  0
M  END
> <Name>
23

> <IC50[uM]>
0.27

$$$$
23
  -OEChem-05192314333D
 Structure written by MMmdl.
 49 53  0     1  0  0  0  0  0999 V2000
   -6.3775   12.3296  -12.0018 C   0  0  3  0  0  0  0  0  0  0  0  0
   -6.5098   11.7629  -10.7403 C   0  0  0  0  0  0  0  0  0  0  0  0
   -7.7247   10.5660  -13.0266 C   0  0  0  0  0  0  0  0  0  0  0  0
   -6.9942   11.7487  -13.1193 C   0  0  0  0  0  0  0  0  0  0  0  0
   -7.8312   10.0057  -11.7538 C   0  0  3  0  0  0  0  0  0  0  0  0
   -7.2443   10.6021  -10.6070 C   0  0  0  0  0  0  0  0  0  0  0  0
   -7.6167    9.7449   -9.5151 C   0  0  0  0  0  0  0  0  0  0  0  0
   -8.2961    8.7374   -9.9786 N   0  0  0  0  0  0  0  0  0  0  0  0
   -8.4404    8.8724  -11.2937 N   0  0  0  0  0  0  0  0  0  0  0  0
   -7.3318    9.8946   -8.0252 C   0  0  0  0  0  0  0  0  0  0  0  0
   -5.5478   13.5112  -12.1572 C   0  0  0  0  0  0  0  0  0  0  0  0
   -5.9707   10.4870   -7.7351 C   0  0  0  0  0  0  0  0  0  0  0  0
   -5.8642   11.7588   -7.1694 C   0  0  0  0  0  0  0  0  0  0  0  0
   -4.6019   12.3141   -6.9186 C   0  0  0  0  0  0  0  0  0  0  0  0
   -3.4503   11.5963   -7.2357 C   0  0  0  0  0  0  0  0  0  0  0  0
   -3.5604   10.3220   -7.8000 C   0  0  0  0  0  0  0  0  0  0  0  0
   -4.8213    9.7719   -8.0443 C   0  0  0  0  0  0  0  0  0  0  0  0
   -2.0996   12.1710   -6.9757 C   0  0  0  0  0  0  0  0  0  0  0  0
   -1.7487   13.4240   -6.4767 C   0  0  0  0  0  0  0  0  0  0  0  0
   -0.4123   13.4674   -6.4260 N   0  0  0  0  0  0  0  0  0  0  0  0
    0.1713   12.3664   -6.8217 N   0  0  0  0  0  0  0  0  0  0  0  0
   -0.8093   11.5624   -7.1930 C   0  0  0  0  0  0  0  0  0  0  0  0
    0.4224   14.5657   -5.9816 C   0  0  0  0  0  0  0  0  0  0  0  0
   -5.6966   14.2423  -13.2612 N   0  0  0  0  0  0  0  0  0  0  0  0
   -4.9506   15.3153  -13.5405 C   0  0  0  0  0  0  0  0  0  0  0  0
   -3.9383   15.6899  -12.6782 C   0  0  0  0  0  0  0  0  0  0  0  0
   -3.7261   14.9536  -11.5366 C   0  0  0  0  0  0  0  0  0  0  0  0
   -4.5508   13.8769  -11.2437 C   0  0  0  0  0  0  0  0  0  0  0  0
   -2.6976   15.2614  -10.7139 N   0  0  0  0  0  0  0  0  0  0  0  0
   -7.2621   12.9592  -11.8254 H   0  0  0  0  0  0  0  0  0  0  0  0
   -6.0464   12.2223   -9.8797 H   0  0  0  0  0  0  0  0  0  0  0  0
   -8.1826   10.1089  -13.8914 H   0  0  0  0  0  0  0  0  0  0  0  0
   -6.9001   12.2325  -14.0803 H   0  0  0  0  0  0  0  0  0  0  0  0
   -8.7557   10.5755  -11.5787 H   0  0  0  0  0  0  0  0  0  0  0  0
   -8.0313    9.6067   -7.2544 H   0  0  0  0  0  0  0  0  0  0  0  0
   -6.7563   12.3160   -6.9245 H   0  0  0  0  0  0  0  0  0  0  0  0
   -4.5218   13.2977   -6.4798 H   0  0  0  0  0  0  0  0  0  0  0  0
   -2.6703    9.7625   -8.0472 H   0  0  0  0  0  0  0  0  0  0  0  0
   -4.9024    8.7852   -8.4759 H   0  0  0  0  0  0  0  0  0  0  0  0
   -2.4277   14.2118   -6.1857 H   0  0  0  0  0  0  0  0  0  0  0  0
   -0.6637   10.5754   -7.6065 H   0  0  0  0  0  0  0  0  0  0  0  0
    1.4809   14.2752   -6.0543 H   0  0  0  0  0  0  0  0  0  0  0  0
    0.2393   15.4453   -6.6162 H   0  0  0  0  0  0  0  0  0  0  0  0
    0.1804   14.8105   -4.9369 H   0  0  0  0  0  0  0  0  0  0  0  0
   -5.1384   15.8875  -14.4370 H   0  0  0  0  0  0  0  0  0  0  0  0
   -3.3221   16.5493  -12.8978 H   0  0  0  0  0  0  0  0  0  0  0  0
   -5.0546   14.1072  -10.2933 H   0  0  0  0  0  0  0  0  0  0  0  0
   -3.8997   13.0003  -11.1106 H   0  0  0  0  0  0  0  0  0  0  0  0
   -2.6419   14.6376   -9.9343 H   0  0  0  0  0  0  0  0  0  0  0  0
  1  2  1  0  0  0  0
  1  4  1  0  0  0  0
  1 11  1  0  0  0  0
  2  6  2  0  0  0  0
  3  4  2  0  0  0  0
  3  5  1  0  0  0  0
  5  6  1  0  0  0  0
  5  9  1  0  0  0  0
  6  7  1  0  0  0  0
  7  8  1  0  0  0  0
  7 10  2  3  0  0  0
  8  9  2  0  0  0  0
 10 12  1  0  0  0  0
 11 24  2  0  0  0  0
 11 28  1  0  0  0  0
 12 13  2  0  0  0  0
 12 17  1  0  0  0  0
 13 14  1  0  0  0  0
 14 15  2  0  0  0  0
 15 16  1  0  0  0  0
 15 18  1  0  0  0  0
 16 17  2  0  0  0  0
 18 19  2  0  0  0  0
 18 22  1  0  0  0  0
 19 20  1  0  0  0  0
 20 21  1  0  0  0  0
 20 23  1  0  0  0  0
 21 22  2  0  0  0  0
 24 25  1  0  0  0  0
 25 26  2  0  0  0  0
 26 27  1  0  0  0  0
 27 28  1  0  0  0  0
 27 29  2  0  0  0  0
  1 30  1  0  0  0  0
  2 31  1  0  0  0  0
  3 32  1  0  0  0  0
  4 33  1  0  0  0  0
  5 34  1  0  0  0  0
 10 35  1  0  0  0  0
 13 36  1  0  0  0  0
 14 37  1  0  0  0  0
 16 38  1  0  0  0  0
 17 39  1  0  0  0  0
 19 40  1  0  0  0  0
 22 41  1  0  0  0  0
 23 42  1  0  0  0  0
 23 43  1  0  0  0  0
 23 44  1  0  0  0  0
 25 45  1  0  0  0  0
 26 46  1  0  0  0  0
 28 47  1  0  0  0  0
 28 48  1  0  0  0  0
 29 49  1  0  0  0  0
M  END
> <Name>
23

> <IC50[uM]>
0.27

$$$$
23
  -OEChem-05192314333D
 Structure written by MMmdl.
 49 53  0     1  0  0  0  0  0999 V2000
   -6.3775   12.3296  -12.0018 C   0  0  0  0  0  0  0  0  0  0  0  0
   -6.5098   11.7629  -10.7403 C   0  0  0  0  0  0  0  0  0  0  0  0
   -7.7247   10.5660  -13.0266 C   0  0  0  0  0  0  0  0  0  0  0  0
   -6.9942   11.7487  -13.1193 C   0  0  0  0  0  0  0  0  0  0  0  0
   -7.8312   10.0057  -11.7538 C   0  0  3  0  0  0  0  0  0  0  0  0
   -7.2443   10.6021  -10.6070 C   0  0  3  0  0  0  0  0  0  0  0  0
   -7.6167    9.7449   -9.5151 C   0  0  0  0  0  0  0  0  0  0  0  0
   -8.2961    8.7374   -9.9786 N   0  0  0  0  0  0  0  0  0  0  0  0
   -8.4404    8.8724  -11.2937 N   0  0  0  0  0  0  0  0  0  0  0  0
   -7.3318    9.8946   -8.0252 C   0  0  0  0  0  0  0  0  0  0  0  0
   -5.5478   13.5112  -12.1572 C   0  0  0  0  0  0  0  0  0  0  0  0
   -5.9707   10.4870   -7.7351 C   0  0  0  0  0  0  0  0  0  0  0  0
   -5.8642   11.7588   -7.1694 C   0  0  0  0  0  0  0  0  0  0  0  0
   -4.6019   12.3141   -6.9186 C   0  0  0  0  0  0  0  0  0  0  0  0
   -3.4503   11.5963   -7.2357 C   0  0  0  0  0  0  0  0  0  0  0  0
   -3.5604   10.3220   -7.8000 C   0  0  0  0  0  0  0  0  0  0  0  0
   -4.8213    9.7719   -8.0443 C   0  0  0  0  0  0  0  0  0  0  0  0
   -2.0996   12.1710   -6.9757 C   0  0  0  0  0  0  0  0  0  0  0  0
   -1.7487   13.4240   -6.4767 C   0  0  0  0  0  0  0  0  0  0  0  0
   -0.4123   13.4674   -6.4260 N   0  0  0  0  0  0  0  0  0  0  0  0
    0.1713   12.3664   -6.8217 N   0  0  0  0  0  0  0  0  0  0  0  0
   -0.8093   11.5624   -7.1930 C   0  0  0  0  0  0  0  0  0  0  0  0
    0.4224   14.5657   -5.9816 C   0  0  0  0  0  0  0  0  0  0  0  0
   -5.6966   14.2423  -13.2612 N   0  0  0  0  0  0  0  0  0  0  0  0
   -4.9506   15.3153  -13.5405 C   0  0  0  0  0  0  0  0  0  0  0  0
   -3.9383   15.6899  -12.6782 C   0  0  0  0  0  0  0  0  0  0  0  0
   -3.7261   14.9536  -11.5366 C   0  0  0  0  0  0  0  0  0  0  0  0
   -4.5508   13.8769  -11.2437 C   0  0  0  0  0  0  0  0  0  0  0  0
   -2.6976   15.2614  -10.7139 N   0  0  0  0  0  0  0  0  0  0  0  0
   -6.0464   12.2223   -9.8797 H   0  0  0  0  0  0  0  0  0  0  0  0
   -8.1826   10.1089  -13.8914 H   0  0  0  0  0  0  0  0  0  0  0  0
   -6.9001   12.2325  -14.0803 H   0  0  0  0  0  0  0  0  0  0  0  0
   -8.7557   10.5755  -11.5787 H   0  0  0  0  0  0  0  0  0  0  0  0
   -6.3326   10.0069  -10.7637 H   0  0  0  0  0  0  0  0  0  0  0  0
   -8.0313    9.6067   -7.2544 H   0  0  0  0  0  0  0  0  0  0  0  0
   -6.7563   12.3160   -6.9245 H   0  0  0  0  0  0  0  0  0  0  0  0
   -4.5218   13.2977   -6.4798 H   0  0  0  0  0  0  0  0  0  0  0  0
   -2.6703    9.7625   -8.0472 H   0  0  0  0  0  0  0  0  0  0  0  0
   -4.9024    8.7852   -8.4759 H   0  0  0  0  0  0  0  0  0  0  0  0
   -2.4277   14.2118   -6.1857 H   0  0  0  0  0  0  0  0  0  0  0  0
   -0.6637   10.5754   -7.6065 H   0  0  0  0  0  0  0  0  0  0  0  0
    1.4809   14.2752   -6.0543 H   0  0  0  0  0  0  0  0  0  0  0  0
    0.2393   15.4453   -6.6162 H   0  0  0  0  0  0  0  0  0  0  0  0
    0.1804   14.8105   -4.9369 H   0  0  0  0  0  0  0  0  0  0  0  0
   -5.1384   15.8875  -14.4370 H   0  0  0  0  0  0  0  0  0  0  0  0
   -3.3221   16.5493  -12.8978 H   0  0  0  0  0  0  0  0  0  0  0  0
   -5.0546   14.1072  -10.2933 H   0  0  0  0  0  0  0  0  0  0  0  0
   -3.8997   13.0003  -11.1106 H   0  0  0  0  0  0  0  0  0  0  0  0
   -2.6419   14.6376   -9.9343 H   0  0  0  0  0  0  0  0  0  0  0  0
  1  2  2  0  0  0  0
  1  4  1  0  0  0  0
  1 11  1  0  0  0  0
  2  6  1  0  0  0  0
  3  4  2  0  0  0  0
  3  5  1  0  0  0  0
  5  6  1  0  0  0  0
  5  9  1  0  0  0  0
  6  7  1  0  0  0  0
  7  8  1  0  0  0  0
  7 10  2  3  0  0  0
  8  9  2  0  0  0  0
 10 12  1  0  0  0  0
 11 24  2  0  0  0  0
 11 28  1  0  0  0  0
 12 13  2  0  0  0  0
 12 17  1  0  0  0  0
 13 14  1  0  0  0  0
 14 15  2  0  0  0  0
 15 16  1  0  0  0  0
 15 18  1  0  0  0  0
 16 17  2  0  0  0  0
 18 19  2  0  0  0  0
 18 22  1  0  0  0  0
 19 20  1  0  0  0  0
 20 21  1  0  0  0  0
 20 23  1  0  0  0  0
 21 22  2  0  0  0  0
 24 25  1  0  0  0  0
 25 26  2  0  0  0  0
 26 27  1  0  0  0  0
 27 28  1  0  0  0  0
 27 29  2  0  0  0  0
  2 30  1  0  0  0  0
  3 31  1  0  0  0  0
  4 32  1  0  0  0  0
  5 33  1  0  0  0  0
  6 34  1  0  0  0  0
 10 35  1  0  0  0  0
 13 36  1  0  0  0  0
 14 37  1  0  0  0  0
 16 38  1  0  0  0  0
 17 39  1  0  0  0  0
 19 40  1  0  0  0  0
 22 41  1  0  0  0  0
 23 42  1  0  0  0  0
 23 43  1  0  0  0  0
 23 44  1  0  0  0  0
 25 45  1  0  0  0  0
 26 46  1  0  0  0  0
 28 47  1  0  0  0  0
 28 48  1  0  0  0  0
 29 49  1  0  0  0  0
M  END
> <Name>
23

> <IC50[uM]>
0.27

$$$$
23
  -OEChem-05192314333D
 Structure written by MMmdl.
 49 53  0     1  0  0  0  0  0999 V2000
   -6.3775   12.3296  -12.0018 C   0  0  0  0  0  0  0  0  0  0  0  0
   -6.5098   11.7629  -10.7403 C   0  0  0  0  0  0  0  0  0  0  0  0
   -7.7247   10.5660  -13.0266 C   0  0  0  0  0  0  0  0  0  0  0  0
   -6.9942   11.7487  -13.1193 C   0  0  0  0  0  0  0  0  0  0  0  0
   -7.8312   10.0057  -11.7538 C   0  0  3  0  0  0  0  0  0  0  0  0
   -7.2443   10.6021  -10.6070 C   0  0  0  0  0  0  0  0  0  0  0  0
   -7.6167    9.7449   -9.5151 C   0  0  0  0  0  0  0  0  0  0  0  0
   -8.2961    8.7374   -9.9786 N   0  0  0  0  0  0  0  0  0  0  0  0
   -8.4404    8.8724  -11.2937 N   0  0  0  0  0  0  0  0  0  0  0  0
   -7.3318    9.8946   -8.0252 C   0  0  0  0  0  0  0  0  0  0  0  0
   -5.5478   13.5112  -12.1572 C   0  0  0  0  0  0  0  0  0  0  0  0
   -5.9707   10.4870   -7.7351 C   0  0  0  0  0  0  0  0  0  0  0  0
   -5.8642   11.7588   -7.1694 C   0  0  0  0  0  0  0  0  0  0  0  0
   -4.6019   12.3141   -6.9186 C   0  0  0  0  0  0  0  0  0  0  0  0
   -3.4503   11.5963   -7.2357 C   0  0  0  0  0  0  0  0  0  0  0  0
   -3.5604   10.3220   -7.8000 C   0  0  0  0  0  0  0  0  0  0  0  0
   -4.8213    9.7719   -8.0443 C   0  0  0  0  0  0  0  0  0  0  0  0
   -2.0996   12.1710   -6.9757 C   0  0  0  0  0  0  0  0  0  0  0  0
   -1.7487   13.4240   -6.4767 C   0  0  0  0  0  0  0  0  0  0  0  0
   -0.4123   13.4674   -6.4260 N   0  0  0  0  0  0  0  0  0  0  0  0
    0.1713   12.3664   -6.8217 N   0  0  0  0  0  0  0  0  0  0  0  0
   -0.8093   11.5624   -7.1930 C   0  0  0  0  0  0  0  0  0  0  0  0
    0.4224   14.5657   -5.9816 C   0  0  0  0  0  0  0  0  0  0  0  0
   -5.6966   14.2423  -13.2612 N   0  0  0  0  0  0  0  0  0  0  0  0
   -4.9506   15.3153  -13.5405 C   0  0  0  0  0  0  0  0  0  0  0  0
   -3.9383   15.6899  -12.6782 C   0  0  0  0  0  0  0  0  0  0  0  0
   -3.7261   14.9536  -11.5366 C   0  0  0  0  0  0  0  0  0  0  0  0
   -4.5508   13.8769  -11.2437 C   0  0  0  0  0  0  0  0  0  0  0  0
   -2.6976   15.2614  -10.7139 N   0  0  0  0  0  0  0  0  0  0  0  0
   -6.0464   12.2223   -9.8797 H   0  0  0  0  0  0  0  0  0  0  0  0
   -8.7428   10.7712  -13.3891 H   0  0  0  0  0  0  0  0  0  0  0  0
   -7.2451    9.8233  -13.6811 H   0  0  0  0  0  0  0  0  0  0  0  0
   -6.9001   12.2325  -14.0803 H   0  0  0  0  0  0  0  0  0  0  0  0
   -8.7557   10.5755  -11.5787 H   0  0  0  0  0  0  0  0  0  0  0  0
   -8.0313    9.6067   -7.2544 H   0  0  0  0  0  0  0  0  0  0  0  0
   -6.7563   12.3160   -6.9245 H   0  0  0  0  0  0  0  0  0  0  0  0
   -4.5218   13.2977   -6.4798 H   0  0  0  0  0  0  0  0  0  0  0  0
   -2.6703    9.7625   -8.0472 H   0  0  0  0  0  0  0  0  0  0  0  0
   -4.9024    8.7852   -8.4759 H   0  0  0  0  0  0  0  0  0  0  0  0
   -2.4277   14.2118   -6.1857 H   0  0  0  0  0  0  0  0  0  0  0  0
   -0.6637   10.5754   -7.6065 H   0  0  0  0  0  0  0  0  0  0  0  0
    1.4809   14.2752   -6.0543 H   0  0  0  0  0  0  0  0  0  0  0  0
    0.2393   15.4453   -6.6162 H   0  0  0  0  0  0  0  0  0  0  0  0
    0.1804   14.8105   -4.9369 H   0  0  0  0  0  0  0  0  0  0  0  0
   -5.1384   15.8875  -14.4370 H   0  0  0  0  0  0  0  0  0  0  0  0
   -3.3221   16.5493  -12.8978 H   0  0  0  0  0  0  0  0  0  0  0  0
   -5.0546   14.1072  -10.2933 H   0  0  0  0  0  0  0  0  0  0  0  0
   -3.8997   13.0003  -11.1106 H   0  0  0  0  0  0  0  0  0  0  0  0
   -2.6419   14.6376   -9.9343 H   0  0  0  0  0  0  0  0  0  0  0  0
  1  2  1  0  0  0  0
  1  4  2  0  0  0  0
  1 11  1  0  0  0  0
  2  6  2  0  0  0  0
  3  4  1  0  0  0  0
  3  5  1  0  0  0  0
  5  6  1  0  0  0  0
  5  9  1  0  0  0  0
  6  7  1  0  0  0  0
  7  8  1  0  0  0  0
  7 10  2  3  0  0  0
  8  9  2  0  0  0  0
 10 12  1  0  0  0  0
 11 24  2  0  0  0  0
 11 28  1  0  0  0  0
 12 13  2  0  0  0  0
 12 17  1  0  0  0  0
 13 14  1  0  0  0  0
 14 15  2  0  0  0  0
 15 16  1  0  0  0  0
 15 18  1  0  0  0  0
 16 17  2  0  0  0  0
 18 19  2  0  0  0  0
 18 22  1  0  0  0  0
 19 20  1  0  0  0  0
 20 21  1  0  0  0  0
 20 23  1  0  0  0  0
 21 22  2  0  0  0  0
 24 25  1  0  0  0  0
 25 26  2  0  0  0  0
 26 27  1  0  0  0  0
 27 28  1  0  0  0  0
 27 29  2  0  0  0  0
  2 30  1  0  0  0  0
  3 31  1  0  0  0  0
  3 32  1  0  0  0  0
  4 33  1  0  0  0  0
  5 34  1  0  0  0  0
 10 35  1  0  0  0  0
 13 36  1  0  0  0  0
 14 37  1  0  0  0  0
 16 38  1  0  0  0  0
 17 39  1  0  0  0  0
 19 40  1  0  0  0  0
 22 41  1  0  0  0  0
 23 42  1  0  0  0  0
 23 43  1  0  0  0  0
 23 44  1  0  0  0  0
 25 45  1  0  0  0  0
 26 46  1  0  0  0  0
 28 47  1  0  0  0  0
 28 48  1  0  0  0  0
 29 49  1  0  0  0  0
M  END
> <Name>
23

> <IC50[uM]>
0.27

$$$$
23
  -OEChem-05192314333D
 Structure written by MMmdl.
 49 53  0     1  0  0  0  0  0999 V2000
   -6.3775   12.3296  -12.0018 C   0  0  0  0  0  0  0  0  0  0  0  0
   -6.5098   11.7629  -10.7403 C   0  0  0  0  0  0  0  0  0  0  0  0
   -7.7247   10.5660  -13.0266 C   0  0  0  0  0  0  0  0  0  0  0  0
   -6.9942   11.7487  -13.1193 C   0  0  0  0  0  0  0  0  0  0  0  0
   -7.8312   10.0057  -11.7538 C   0  0  3  0  0  0  0  0  0  0  0  0
   -7.2443   10.6021  -10.6070 C   0  0  0  0  0  0  0  0  0  0  0  0
   -7.6167    9.7449   -9.5151 C   0  0  0  0  0  0  0  0  0  0  0  0
   -8.2961    8.7374   -9.9786 N   0  0  0  0  0  0  0  0  0  0  0  0
   -8.4404    8.8724  -11.2937 N   0  0  0  0  0  0  0  0  0  0  0  0
   -7.3318    9.8946   -8.0252 C   0  0  0  0  0  0  0  0  0  0  0  0
   -5.5478   13.5112  -12.1572 C   0  0  0  0  0  0  0  0  0  0  0  0
   -5.9707   10.4870   -7.7351 C   0  0  0  0  0  0  0  0  0  0  0  0
   -5.8642   11.7588   -7.1694 C   0  0  0  0  0  0  0  0  0  0  0  0
   -4.6019   12.3141   -6.9186 C   0  0  0  0  0  0  0  0  0  0  0  0
   -3.4503   11.5963   -7.2357 C   0  0  0  0  0  0  0  0  0  0  0  0
   -3.5604   10.3220   -7.8000 C   0  0  0  0  0  0  0  0  0  0  0  0
   -4.8213    9.7719   -8.0443 C   0  0  0  0  0  0  0  0  0  0  0  0
   -2.0996   12.1710   -6.9757 C   0  0  0  0  0  0  0  0  0  0  0  0
   -1.7487   13.4240   -6.4767 C   0  0  0  0  0  0  0  0  0  0  0  0
   -0.4123   13.4674   -6.4260 N   0  0  0  0  0  0  0  0  0  0  0  0
    0.1713   12.3664   -6.8217 N   0  0  0  0  0  0  0  0  0  0  0  0
   -0.8093   11.5624   -7.1930 C   0  0  0  0  0  0  0  0  0  0  0  0
    0.4224   14.5657   -5.9816 C   0  0  0  0  0  0  0  0  0  0  0  0
   -5.6966   14.2423  -13.2612 N   0  0  0  0  0  0  0  0  0  0  0  0
   -4.9506   15.3153  -13.5405 C   0  0  0  0  0  0  0  0  0  0  0  0
   -3.9383   15.6899  -12.6782 C   0  0  0  0  0  0  0  0  0  0  0  0
   -3.7261   14.9536  -11.5366 C   0  0  0  0  0  0  0  0  0  0  0  0
   -4.5508   13.8769  -11.2437 C   0  0  0  0  0  0  0  0  0  0  0  0
   -2.6976   15.2614  -10.7139 N   0  0  0  0  0  0  0  0  0  0  0  0
   -6.0464   12.2223   -9.8797 H   0  0  0  0  0  0  0  0  0  0  0  0
   -8.1826   10.1089  -13.8914 H   0  0  0  0  0  0  0  0  0  0  0  0
   -6.9001   12.2325  -14.0803 H   0  0  0  0  0  0  0  0  0  0  0  0
   -8.7557   10.5755  -11.5787 H   0  0  0  0  0  0  0  0  0  0  0  0
   -8.0313    9.6067   -7.2544 H   0  0  0  0  0  0  0  0  0  0  0  0
   -6.7563   12.3160   -6.9245 H   0  0  0  0  0  0  0  0  0  0  0  0
   -4.5218   13.2977   -6.4798 H   0  0  0  0  0  0  0  0  0  0  0  0
   -2.6703    9.7625   -8.0472 H   0  0  0  0  0  0  0  0  0  0  0  0
   -4.9024    8.7852   -8.4759 H   0  0  0  0  0  0  0  0  0  0  0  0
   -2.4277   14.2118   -6.1857 H   0  0  0  0  0  0  0  0  0  0  0  0
   -0.6637   10.5754   -7.6065 H   0  0  0  0  0  0  0  0  0  0  0  0
    1.4809   14.2752   -6.0543 H   0  0  0  0  0  0  0  0  0  0  0  0
    0.2393   15.4453   -6.6162 H   0  0  0  0  0  0  0  0  0  0  0  0
    0.1804   14.8105   -4.9369 H   0  0  0  0  0  0  0  0  0  0  0  0
   -5.1384   15.8875  -14.4370 H   0  0  0  0  0  0  0  0  0  0  0  0
   -3.0010   15.6690  -13.2536 H   0  0  0  0  0  0  0  0  0  0  0  0
   -4.1509   16.7215  -12.3610 H   0  0  0  0  0  0  0  0  0  0  0  0
   -5.0546   14.1072  -10.2933 H   0  0  0  0  0  0  0  0  0  0  0  0
   -3.8997   13.0003  -11.1106 H   0  0  0  0  0  0  0  0  0  0  0  0
   -2.6419   14.6376   -9.9343 H   0  0  0  0  0  0  0  0  0  0  0  0
  1  2  1  0  0  0  0
  1  4  1  0  0  0  0
  1 11  2  0  0  0  0
  2  6  2  0  0  0  0
  3  4  2  0  0  0  0
  3  5  1  0  0  0  0
  5  6  1  0  0  0  0
  5  9  1  0  0  0  0
  6  7  1  0  0  0  0
  7  8  1  0  0  0  0
  7 10  2  3  0  0  0
  8  9  2  0  0  0  0
 10 12  1  0  0  0  0
 11 24  1  0  0  0  0
 11 28  1  0  0  0  0
 12 13  2  0  0  0  0
 12 17  1  0  0  0  0
 13 14  1  0  0  0  0
 14 15  2  0  0  0  0
 15 16  1  0  0  0  0
 15 18  1  0  0  0  0
 16 17  2  0  0  0  0
 18 19  2  0  0  0  0
 18 22  1  0  0  0  0
 19 20  1  0  0  0  0
 20 21  1  0  0  0  0
 20 23  1  0  0  0  0
 21 22  2  0  0  0  0
 24 25  2  0  0  0  0
 25 26  1  0  0  0  0
 26 27  1  0  0  0  0
 27 28  1  0  0  0  0
 27 29  2  0  0  0  0
  2 30  1  0  0  0  0
  3 31  1  0  0  0  0
  4 32  1  0  0  0  0
  5 33  1  0  0  0  0
 10 34  1  0  0  0  0
 13 35  1  0  0  0  0
 14 36  1  0  0  0  0
 16 37  1  0  0  0  0
 17 38  1  0  0  0  0
 19 39  1  0  0  0  0
 22 40  1  0  0  0  0
 23 41  1  0  0  0  0
 23 42  1  0  0  0  0
 23 43  1  0  0  0  0
 25 44  1  0  0  0  0
 26 45  1  0  0  0  0
 26 46  1  0  0  0  0
 28 47  1  0  0  0  0
 28 48  1  0  0  0  0
 29 49  1  0  0  0  0
M  END
> <Name>
23

> <IC50[uM]>
0.27

$$$$
23
  -OEChem-05192314333D
 Structure written by MMmdl.
 49 53  0     1  0  0  0  0  0999 V2000
   -6.3775   12.3296  -12.0018 C   0  0  0  0  0  0  0  0  0  0  0  0
   -6.5098   11.7629  -10.7403 C   0  0  0  0  0  0  0  0  0  0  0  0
   -7.7247   10.5660  -13.0266 C   0  0  0  0  0  0  0  0  0  0  0  0
   -6.9942   11.7487  -13.1193 C   0  0  0  0  0  0  0  0  0  0  0  0
   -7.8312   10.0057  -11.7538 C   0  0  0  0  0  0  0  0  0  0  0  0
   -7.2443   10.6021  -10.6070 C   0  0  0  0  0  0  0  0  0  0  0  0
   -7.6167    9.7449   -9.5151 C   0  0  0  0  0  0  0  0  0  0  0  0
   -8.2961    8.7374   -9.9786 N   0  0  0  0  0  0  0  0  0  0  0  0
   -8.4404    8.8724  -11.2937 N   0  0  0  0  0  0  0  0  0  0  0  0
   -7.3318    9.8946   -8.0252 C   0  0  0  0  0  0  0  0  0  0  0  0
   -5.5478   13.5112  -12.1572 C   0  0  0  0  0  0  0  0  0  0  0  0
   -5.9707   10.4870   -7.7351 C   0  0  0  0  0  0  0  0  0  0  0  0
   -5.8642   11.7588   -7.1694 C   0  0  0  0  0  0  0  0  0  0  0  0
   -4.6019   12.3141   -6.9186 C   0  0  0  0  0  0  0  0  0  0  0  0
   -3.4503   11.5963   -7.2357 C   0  0  3  0  0  0  0  0  0  0  0  0
   -3.5604   10.3220   -7.8000 C   0  0  0  0  0  0  0  0  0  0  0  0
   -4.8213    9.7719   -8.0443 C   0  0  0  0  0  0  0  0  0  0  0  0
   -2.0996   12.1710   -6.9757 C   0  0  0  0  0  0  0  0  0  0  0  0
   -1.7487   13.4240   -6.4767 C   0  0  0  0  0  0  0  0  0  0  0  0
   -0.4123   13.4674   -6.4260 N   0  0  0  0  0  0  0  0  0  0  0  0
    0.1713   12.3664   -6.8217 N   0  0  0  0  0  0  0  0  0  0  0  0
   -0.8093   11.5624   -7.1930 C   0  0  0  0  0  0  0  0  0  0  0  0
    0.4224   14.5657   -5.9816 C   0  0  0  0  0  0  0  0  0  0  0  0
   -5.6966   14.2423  -13.2612 N   0  0  0  0  0  0  0  0  0  0  0  0
   -4.9506   15.3153  -13.5405 C   0  0  0  0  0  0  0  0  0  0  0  0
   -3.9383   15.6899  -12.6782 C   0  0  0  0  0  0  0  0  0  0  0  0
   -3.7261   14.9536  -11.5366 C   0  0  0  0  0  0  0  0  0  0  0  0
   -4.5508   13.8769  -11.2437 C   0  0  0  0  0  0  0  0  0  0  0  0
   -2.6976   15.2614  -10.7139 N   0  0  0  0  0  0  0  0  0  0  0  0
   -6.0464   12.2223   -9.8797 H   0  0  0  0  0  0  0  0  0  0  0  0
   -8.1826   10.1089  -13.8914 H   0  0  0  0  0  0  0  0  0  0  0  0
   -6.9001   12.2325  -14.0803 H   0  0  0  0  0  0  0  0  0  0  0  0
   -8.0313    9.6067   -7.2544 H   0  0  0  0  0  0  0  0  0  0  0  0
   -6.7563   12.3160   -6.9245 H   0  0  0  0  0  0  0  0  0  0  0  0
   -4.5527   13.2582   -7.4809 H   0  0  0  0  0  0  0  0  0  0  0  0
   -4.5569   12.5268   -5.8403 H   0  0  0  0  0  0  0  0  0  0  0  0
   -3.4477   12.0425   -8.2411 H   0  0  0  0  0  0  0  0  0  0  0  0
   -2.6703    9.7625   -8.0472 H   0  0  0  0  0  0  0  0  0  0  0  0
   -4.9024    8.7852   -8.4759 H   0  0  0  0  0  0  0  0  0  0  0  0
   -2.4277   14.2118   -6.1857 H   0  0  0  0  0  0  0  0  0  0  0  0
   -0.6637   10.5754   -7.6065 H   0  0  0  0  0  0  0  0  0  0  0  0
    1.4809   14.2752   -6.0543 H   0  0  0  0  0  0  0  0  0  0  0  0
    0.2393   15.4453   -6.6162 H   0  0  0  0  0  0  0  0  0  0  0  0
    0.1804   14.8105   -4.9369 H   0  0  0  0  0  0  0  0  0  0  0  0
   -5.1384   15.8875  -14.4370 H   0  0  0  0  0  0  0  0  0  0  0  0
   -3.3221   16.5493  -12.8978 H   0  0  0  0  0  0  0  0  0  0  0  0
   -5.0546   14.1072  -10.2933 H   0  0  0  0  0  0  0  0  0  0  0  0
   -3.8997   13.0003  -11.1106 H   0  0  0  0  0  0  0  0  0  0  0  0
   -2.6419   14.6376   -9.9343 H   0  0  0  0  0  0  0  0  0  0  0  0
  1  2  2  0  0  0  0
  1  4  1  0  0  0  0
  1 11  1  0  0  0  0
  2  6  1  0  0  0  0
  3  4  2  0  0  0  0
  3  5  1  0  0  0  0
  5  6  2  0  0  0  0
  5  9  1  0  0  0  0
  6  7  1  0  0  0  0
  7  8  1  0  0  0  0
  7 10  2  3  0  0  0
  8  9  2  0  0  0  0
 10 12  1  0  0  0  0
 11 24  2  0  0  0  0
 11 28  1  0  0  0  0
 12 13  2  0  0  0  0
 12 17  1  0  0  0  0
 13 14  1  0  0  0  0
 14 15  1  0  0  0  0
 15 16  1  0  0  0  0
 15 18  1  0  0  0  0
 16 17  2  0  0  0  0
 18 19  2  0  0  0  0
 18 22  1  0  0  0  0
 19 20  1  0  0  0  0
 20 21  1  0  0  0  0
 20 23  1  0  0  0  0
 21 22  2  0  0  0  0
 24 25  1  0  0  0  0
 25 26  2  0  0  0  0
 26 27  1  0  0  0  0
 27 28  1  0  0  0  0
 27 29  2  0  0  0  0
  2 30  1  0  0  0  0
  3 31  1  0  0  0  0
  4 32  1  0  0  0  0
 10 33  1  0  0  0  0
 13 34  1  0  0  0  0
 14 35  1  0  0  0  0
 14 36  1  0  0  0  0
 15 37  1  0  0  0  0
 16 38  1  0  0  0  0
 17 39  1  0  0  0  0
 19 40  1  0  0  0  0
 22 41  1  0  0  0  0
 23 42  1  0  0  0  0
 23 43  1  0  0  0  0
 23 44  1  0  0  0  0
 25 45  1  0  0  0  0
 26 46  1  0  0  0  0
 28 47  1  0  0  0  0
 28 48  1  0  0  0  0
 29 49  1  0  0  0  0
M  END
> <Name>
23

> <IC50[uM]>
0.27

$$$$
23
  -OEChem-05192314333D
 Structure written by MMmdl.
 49 53  0     1  0  0  0  0  0999 V2000
   -6.3775   12.3296  -12.0018 C   0  0  3  0  0  0  0  0  0  0  0  0
   -6.5098   11.7629  -10.7403 C   0  0  0  0  0  0  0  0  0  0  0  0
   -7.7247   10.5660  -13.0266 C   0  0  0  0  0  0  0  0  0  0  0  0
   -6.9942   11.7487  -13.1193 C   0  0  0  0  0  0  0  0  0  0  0  0
   -7.8312   10.0057  -11.7538 C   0  0  0  0  0  0  0  0  0  0  0  0
   -7.2443   10.6021  -10.6070 C   0  0  0  0  0  0  0  0  0  0  0  0
   -7.6167    9.7449   -9.5151 C   0  0  0  0  0  0  0  0  0  0  0  0
   -8.2961    8.7374   -9.9786 N   0  0  0  0  0  0  0  0  0  0  0  0
   -8.4404    8.8724  -11.2937 N   0  0  0  0  0  0  0  0  0  0  0  0
   -7.3318    9.8946   -8.0252 C   0  0  0  0  0  0  0  0  0  0  0  0
   -5.5478   13.5112  -12.1572 C   0  0  0  0  0  0  0  0  0  0  0  0
   -5.9707   10.4870   -7.7351 C   0  0  0  0  0  0  0  0  0  0  0  0
   -5.8642   11.7588   -7.1694 C   0  0  0  0  0  0  0  0  0  0  0  0
   -4.6019   12.3141   -6.9186 C   0  0  0  0  0  0  0  0  0  0  0  0
   -3.4503   11.5963   -7.2357 C   0  0  0  0  0  0  0  0  0  0  0  0
   -3.5604   10.3220   -7.8000 C   0  0  0  0  0  0  0  0  0  0  0  0
   -4.8213    9.7719   -8.0443 C   0  0  0  0  0  0  0  0  0  0  0  0
   -2.0996   12.1710   -6.9757 C   0  0  0  0  0  0  0  0  0  0  0  0
   -1.7487   13.4240   -6.4767 C   0  0  0  0  0  0  0  0  0  0  0  0
   -0.4123   13.4674   -6.4260 N   0  0  0  0  0  0  0  0  0  0  0  0
    0.1713   12.3664   -6.8217 N   0  0  0  0  0  0  0  0  0  0  0  0
   -0.8093   11.5624   -7.1930 C   0  0  0  0  0  0  0  0  0  0  0  0
    0.4224   14.5657   -5.9816 C   0  0  0  0  0  0  0  0  0  0  0  0
   -5.6966   14.2423  -13.2612 N   0  0  0  0  0  0  0  0  0  0  0  0
   -4.9506   15.3153  -13.5405 C   0  0  0  0  0  0  0  0  0  0  0  0
   -3.9383   15.6899  -12.6782 C   0  0  0  0  0  0  0  0  0  0  0  0
   -3.7261   14.9536  -11.5366 C   0  0  0  0  0  0  0  0  0  0  0  0
   -4.5508   13.8769  -11.2437 C   0  0  0  0  0  0  0  0  0  0  0  0
   -2.6976   15.2614  -10.7139 N   0  0  0  0  0  0  0  0  0  0  0  0
   -7.2621   12.9592  -11.8254 H   0  0  0  0  0  0  0  0  0  0  0  0
   -6.0464   12.2223   -9.8797 H   0  0  0  0  0  0  0  0  0  0  0  0
   -8.1826   10.1089  -13.8914 H   0  0  0  0  0  0  0  0  0  0  0  0
   -7.6841   12.5064  -13.5191 H   0  0  0  0  0  0  0  0  0  0  0  0
   -6.1936   11.5599  -13.8497 H   0  0  0  0  0  0  0  0  0  0  0  0
   -8.0313    9.6067   -7.2544 H   0  0  0  0  0  0  0  0  0  0  0  0
   -6.7563   12.3160   -6.9245 H   0  0  0  0  0  0  0  0  0  0  0  0
   -4.5218   13.2977   -6.4798 H   0  0  0  0  0  0  0  0  0  0  0  0
   -2.6703    9.7625   -8.0472 H   0  0  0  0  0  0  0  0  0  0  0  0
   -4.9024    8.7852   -8.4759 H   0  0  0  0  0  0  0  0  0  0  0  0
   -2.4277   14.2118   -6.1857 H   0  0  0  0  0  0  0  0  0  0  0  0
   -0.6637   10.5754   -7.6065 H   0  0  0  0  0  0  0  0  0  0  0  0
    1.4809   14.2752   -6.0543 H   0  0  0  0  0  0  0  0  0  0  0  0
    0.2393   15.4453   -6.6162 H   0  0  0  0  0  0  0  0  0  0  0  0
    0.1804   14.8105   -4.9369 H   0  0  0  0  0  0  0  0  0  0  0  0
   -5.1384   15.8875  -14.4370 H   0  0  0  0  0  0  0  0  0  0  0  0
   -3.3221   16.5493  -12.8978 H   0  0  0  0  0  0  0  0  0  0  0  0
   -5.0546   14.1072  -10.2933 H   0  0  0  0  0  0  0  0  0  0  0  0
   -3.8997   13.0003  -11.1106 H   0  0  0  0  0  0  0  0  0  0  0  0
   -2.6419   14.6376   -9.9343 H   0  0  0  0  0  0  0  0  0  0  0  0
  1  2  1  0  0  0  0
  1  4  1  0  0  0  0
  1 11  1  0  0  0  0
  2  6  2  0  0  0  0
  3  4  1  0  0  0  0
  3  5  2  0  0  0  0
  5  6  1  0  0  0  0
  5  9  1  0  0  0  0
  6  7  1  0  0  0  0
  7  8  1  0  0  0  0
  7 10  2  3  0  0  0
  8  9  2  0  0  0  0
 10 12  1  0  0  0  0
 11 24  2  0  0  0  0
 11 28  1  0  0  0  0
 12 13  2  0  0  0  0
 12 17  1  0  0  0  0
 13 14  1  0  0  0  0
 14 15  2  0  0  0  0
 15 16  1  0  0  0  0
 15 18  1  0  0  0  0
 16 17  2  0  0  0  0
 18 19  2  0  0  0  0
 18 22  1  0  0  0  0
 19 20  1  0  0  0  0
 20 21  1  0  0  0  0
 20 23  1  0  0  0  0
 21 22  2  0  0  0  0
 24 25  1  0  0  0  0
 25 26  2  0  0  0  0
 26 27  1  0  0  0  0
 27 28  1  0  0  0  0
 27 29  2  0  0  0  0
  1 30  1  0  0  0  0
  2 31  1  0  0  0  0
  3 32  1  0  0  0  0
  4 33  1  0  0  0  0
  4 34  1  0  0  0  0
 10 35  1  0  0  0  0
 13 36  1  0  0  0  0
 14 37  1  0  0  0  0
 16 38  1  0  0  0  0
 17 39  1  0  0  0  0
 19 40  1  0  0  0  0
 22 41  1  0  0  0  0
 23 42  1  0  0  0  0
 23 43  1  0  0  0  0
 23 44  1  0  0  0  0
 25 45  1  0  0  0  0
 26 46  1  0  0  0  0
 28 47  1  0  0  0  0
 28 48  1  0  0  0  0
 29 49  1  0  0  0  0
M  END
> <Name>
23

> <IC50[uM]>
0.27

$$$$
23
  -OEChem-05192314333D
 Structure written by MMmdl.
 49 53  0     1  0  0  0  0  0999 V2000
   -6.3775   12.3296  -12.0018 C   0  0  0  0  0  0  0  0  0  0  0  0
   -6.5098   11.7629  -10.7403 C   0  0  0  0  0  0  0  0  0  0  0  0
   -7.7247   10.5660  -13.0266 C   0  0  0  0  0  0  0  0  0  0  0  0
   -6.9942   11.7487  -13.1193 C   0  0  0  0  0  0  0  0  0  0  0  0
   -7.8312   10.0057  -11.7538 C   0  0  0  0  0  0  0  0  0  0  0  0
   -7.2443   10.6021  -10.6070 C   0  0  3  0  0  0  0  0  0  0  0  0
   -7.6167    9.7449   -9.5151 C   0  0  0  0  0  0  0  0  0  0  0  0
   -8.2961    8.7374   -9.9786 N   0  0  0  0  0  0  0  0  0  0  0  0
   -8.4404    8.8724  -11.2937 N   0  0  0  0  0  0  0  0  0  0  0  0
   -7.3318    9.8946   -8.0252 C   0  0  0  0  0  0  0  0  0  0  0  0
   -5.5478   13.5112  -12.1572 C   0  0  0  0  0  0  0  0  0  0  0  0
   -5.9707   10.4870   -7.7351 C   0  0  0  0  0  0  0  0  0  0  0  0
   -5.8642   11.7588   -7.1694 C   0  0  0  0  0  0  0  0  0  0  0  0
   -4.6019   12.3141   -6.9186 C   0  0  0  0  0  0  0  0  0  0  0  0
   -3.4503   11.5963   -7.2357 C   0  0  0  0  0  0  0  0  0  0  0  0
   -3.5604   10.3220   -7.8000 C   0  0  0  0  0  0  0  0  0  0  0  0
   -4.8213    9.7719   -8.0443 C   0  0  0  0  0  0  0  0  0  0  0  0
   -2.0996   12.1710   -6.9757 C   0  0  0  0  0  0  0  0  0  0  0  0
   -1.7487   13.4240   -6.4767 C   0  0  0  0  0  0  0  0  0  0  0  0
   -0.4123   13.4674   -6.4260 N   0  0  0  0  0  0  0  0  0  0  0  0
    0.1713   12.3664   -6.8217 N   0  0  0  0  0  0  0  0  0  0  0  0
   -0.8093   11.5624   -7.1930 C   0  0  0  0  0  0  0  0  0  0  0  0
    0.4224   14.5657   -5.9816 C   0  0  0  0  0  0  0  0  0  0  0  0
   -5.6966   14.2423  -13.2612 N   0  0  0  0  0  0  0  0  0  0  0  0
   -4.9506   15.3153  -13.5405 C   0  0  0  0  0  0  0  0  0  0  0  0
   -3.9383   15.6899  -12.6782 C   0  0  0  0  0  0  0  0  0  0  0  0
   -3.7261   14.9536  -11.5366 C   0  0  0  0  0  0  0  0  0  0  0  0
   -4.5508   13.8769  -11.2437 C   0  0  0  0  0  0  0  0  0  0  0  0
   -2.6976   15.2614  -10.7139 N   0  0  0  0  0  0  0  0  0  0  0  0
   -6.0464   12.2223   -9.8797 H   0  0  0  0  0  0  0  0  0  0  0  0
   -8.1826   10.1089  -13.8914 H   0  0  0  0  0  0  0  0  0  0  0  0
   -7.6841   12.5064  -13.5191 H   0  0  0  0  0  0  0  0  0  0  0  0
   -6.1936   11.5599  -13.8497 H   0  0  0  0  0  0  0  0  0  0  0  0
   -6.3326   10.0069  -10.7637 H   0  0  0  0  0  0  0  0  0  0  0  0
   -8.0313    9.6067   -7.2544 H   0  0  0  0  0  0  0  0  0  0  0  0
   -6.7563   12.3160   -6.9245 H   0  0  0  0  0  0  0  0  0  0  0  0
   -4.5218   13.2977   -6.4798 H   0  0  0  0  0  0  0  0  0  0  0  0
   -2.6703    9.7625   -8.0472 H   0  0  0  0  0  0  0  0  0  0  0  0
   -4.9024    8.7852   -8.4759 H   0  0  0  0  0  0  0  0  0  0  0  0
   -2.4277   14.2118   -6.1857 H   0  0  0  0  0  0  0  0  0  0  0  0
   -0.6637   10.5754   -7.6065 H   0  0  0  0  0  0  0  0  0  0  0  0
    1.4809   14.2752   -6.0543 H   0  0  0  0  0  0  0  0  0  0  0  0
    0.2393   15.4453   -6.6162 H   0  0  0  0  0  0  0  0  0  0  0  0
    0.1804   14.8105   -4.9369 H   0  0  0  0  0  0  0  0  0  0  0  0
   -5.1384   15.8875  -14.4370 H   0  0  0  0  0  0  0  0  0  0  0  0
   -3.3221   16.5493  -12.8978 H   0  0  0  0  0  0  0  0  0  0  0  0
   -5.0546   14.1072  -10.2933 H   0  0  0  0  0  0  0  0  0  0  0  0
   -3.8997   13.0003  -11.1106 H   0  0  0  0  0  0  0  0  0  0  0  0
   -2.6419   14.6376   -9.9343 H   0  0  0  0  0  0  0  0  0  0  0  0
  1  2  2  0  0  0  0
  1  4  1  0  0  0  0
  1 11  1  0  0  0  0
  2  6  1  0  0  0  0
  3  4  1  0  0  0  0
  3  5  2  0  0  0  0
  5  6  1  0  0  0  0
  5  9  1  0  0  0  0
  6  7  1  0  0  0  0
  7  8  1  0  0  0  0
  7 10  2  3  0  0  0
  8  9  2  0  0  0  0
 10 12  1  0  0  0  0
 11 24  2  0  0  0  0
 11 28  1  0  0  0  0
 12 13  2  0  0  0  0
 12 17  1  0  0  0  0
 13 14  1  0  0  0  0
 14 15  2  0  0  0  0
 15 16  1  0  0  0  0
 15 18  1  0  0  0  0
 16 17  2  0  0  0  0
 18 19  2  0  0  0  0
 18 22  1  0  0  0  0
 19 20  1  0  0  0  0
 20 21  1  0  0  0  0
 20 23  1  0  0  0  0
 21 22  2  0  0  0  0
 24 25  1  0  0  0  0
 25 26  2  0  0  0  0
 26 27  1  0  0  0  0
 27 28  1  0  0  0  0
 27 29  2  0  0  0  0
  2 30  1  0  0  0  0
  3 31  1  0  0  0  0
  4 32  1  0  0  0  0
  4 33  1  0  0  0  0
  6 34  1  0  0  0  0
 10 35  1  0  0  0  0
 13 36  1  0  0  0  0
 14 37  1  0  0  0  0
 16 38  1  0  0  0  0
 17 39  1  0  0  0  0
 19 40  1  0  0  0  0
 22 41  1  0  0  0  0
 23 42  1  0  0  0  0
 23 43  1  0  0  0  0
 23 44  1  0  0  0  0
 25 45  1  0  0  0  0
 26 46  1  0  0  0  0
 28 47  1  0  0  0  0
 28 48  1  0  0  0  0
 29 49  1  0  0  0  0
M  END
> <Name>
23

> <IC50[uM]>
0.27

$$$$
23
  -OEChem-05192314333D
 Structure written by MMmdl.
 49 53  0     0  0  0  0  0  0999 V2000
   -6.3775   12.3296  -12.0018 C   0  0  0  0  0  0  0  0  0  0  0  0
   -6.5098   11.7629  -10.7403 C   0  0  0  0  0  0  0  0  0  0  0  0
   -7.7247   10.5660  -13.0266 C   0  0  0  0  0  0  0  0  0  0  0  0
   -6.9942   11.7487  -13.1193 C   0  0  0  0  0  0  0  0  0  0  0  0
   -7.8312   10.0057  -11.7538 C   0  0  0  0  0  0  0  0  0  0  0  0
   -7.2443   10.6021  -10.6070 C   0  0  0  0  0  0  0  0  0  0  0  0
   -7.6167    9.7449   -9.5151 C   0  0  0  0  0  0  0  0  0  0  0  0
   -8.2961    8.7374   -9.9786 N   0  0  0  0  0  0  0  0  0  0  0  0
   -8.4404    8.8724  -11.2937 N   0  0  0  0  0  0  0  0  0  0  0  0
   -7.3318    9.8946   -8.0252 C   0  0  0  0  0  0  0  0  0  0  0  0
   -5.5478   13.5112  -12.1572 C   0  0  0  0  0  0  0  0  0  0  0  0
   -5.9707   10.4870   -7.7351 C   0  0  0  0  0  0  0  0  0  0  0  0
   -5.8642   11.7588   -7.1694 C   0  0  0  0  0  0  0  0  0  0  0  0
   -4.6019   12.3141   -6.9186 C   0  0  0  0  0  0  0  0  0  0  0  0
   -3.4503   11.5963   -7.2357 C   0  0  0  0  0  0  0  0  0  0  0  0
   -3.5604   10.3220   -7.8000 C   0  0  0  0  0  0  0  0  0  0  0  0
   -4.8213    9.7719   -8.0443 C   0  0  0  0  0  0  0  0  0  0  0  0
   -2.0996   12.1710   -6.9757 C   0  0  0  0  0  0  0  0  0  0  0  0
   -1.7487   13.4240   -6.4767 C   0  0  0  0  0  0  0  0  0  0  0  0
   -0.4123   13.4674   -6.4260 N   0  0  0  0  0  0  0  0  0  0  0  0
    0.1713   12.3664   -6.8217 N   0  0  0  0  0  0  0  0  0  0  0  0
   -0.8093   11.5624   -7.1930 C   0  0  0  0  0  0  0  0  0  0  0  0
    0.4224   14.5657   -5.9816 C   0  0  0  0  0  0  0  0  0  0  0  0
   -5.6966   14.2423  -13.2612 N   0  0  0  0  0  0  0  0  0  0  0  0
   -4.9506   15.3153  -13.5405 C   0  0  0  0  0  0  0  0  0  0  0  0
   -3.9383   15.6899  -12.6782 C   0  0  0  0  0  0  0  0  0  0  0  0
   -3.7261   14.9536  -11.5366 C   0  0  0  0  0  0  0  0  0  0  0  0
   -4.5508   13.8769  -11.2437 C   0  0  0  0  0  0  0  0  0  0  0  0
   -2.6976   15.2614  -10.7139 N   0  0  0  0  0  0  0  0  0  0  0  0
   -6.0464   12.2223   -9.8797 H   0  0  0  0  0  0  0  0  0  0  0  0
   -8.7428   10.7712  -13.3891 H   0  0  0  0  0  0  0  0  0  0  0  0
   -7.2451    9.8233  -13.6811 H   0  0  0  0  0  0  0  0  0  0  0  0
   -7.6841   12.5064  -13.5191 H   0  0  0  0  0  0  0  0  0  0  0  0
   -6.1936   11.5599  -13.8497 H   0  0  0  0  0  0  0  0  0  0  0  0
   -8.0313    9.6067   -7.2544 H   0  0  0  0  0  0  0  0  0  0  0  0
   -6.7563   12.3160   -6.9245 H   0  0  0  0  0  0  0  0  0  0  0  0
   -4.5218   13.2977   -6.4798 H   0  0  0  0  0  0  0  0  0  0  0  0
   -2.6703    9.7625   -8.0472 H   0  0  0  0  0  0  0  0  0  0  0  0
   -4.9024    8.7852   -8.4759 H   0  0  0  0  0  0  0  0  0  0  0  0
   -2.4277   14.2118   -6.1857 H   0  0  0  0  0  0  0  0  0  0  0  0
   -0.6637   10.5754   -7.6065 H   0  0  0  0  0  0  0  0  0  0  0  0
    1.4809   14.2752   -6.0543 H   0  0  0  0  0  0  0  0  0  0  0  0
    0.2393   15.4453   -6.6162 H   0  0  0  0  0  0  0  0  0  0  0  0
    0.1804   14.8105   -4.9369 H   0  0  0  0  0  0  0  0  0  0  0  0
   -5.1384   15.8875  -14.4370 H   0  0  0  0  0  0  0  0  0  0  0  0
   -3.3221   16.5493  -12.8978 H   0  0  0  0  0  0  0  0  0  0  0  0
   -5.0546   14.1072  -10.2933 H   0  0  0  0  0  0  0  0  0  0  0  0
   -3.8997   13.0003  -11.1106 H   0  0  0  0  0  0  0  0  0  0  0  0
   -2.6419   14.6376   -9.9343 H   0  0  0  0  0  0  0  0  0  0  0  0
  1  2  2  0  0  0  0
  1  4  1  0  0  0  0
  1 11  1  0  0  0  0
  2  6  1  0  0  0  0
  3  4  1  0  0  0  0
  3  5  1  0  0  0  0
  5  6  2  0  0  0  0
  5  9  1  0  0  0  0
  6  7  1  0  0  0  0
  7  8  1  0  0  0  0
  7 10  2  3  0  0  0
  8  9  2  0  0  0  0
 10 12  1  0  0  0  0
 11 24  2  0  0  0  0
 11 28  1  0  0  0  0
 12 13  2  0  0  0  0
 12 17  1  0  0  0  0
 13 14  1  0  0  0  0
 14 15  2  0  0  0  0
 15 16  1  0  0  0  0
 15 18  1  0  0  0  0
 16 17  2  0  0  0  0
 18 19  2  0  0  0  0
 18 22  1  0  0  0  0
 19 20  1  0  0  0  0
 20 21  1  0  0  0  0
 20 23  1  0  0  0  0
 21 22  2  0  0  0  0
 24 25  1  0  0  0  0
 25 26  2  0  0  0  0
 26 27  1  0  0  0  0
 27 28  1  0  0  0  0
 27 29  2  0  0  0  0
  2 30  1  0  0  0  0
  3 31  1  0  0  0  0
  3 32  1  0  0  0  0
  4 33  1  0  0  0  0
  4 34  1  0  0  0  0
 10 35  1  0  0  0  0
 13 36  1  0  0  0  0
 14 37  1  0  0  0  0
 16 38  1  0  0  0  0
 17 39  1  0  0  0  0
 19 40  1  0  0  0  0
 22 41  1  0  0  0  0
 23 42  1  0  0  0  0
 23 43  1  0  0  0  0
 23 44  1  0  0  0  0
 25 45  1  0  0  0  0
 26 46  1  0  0  0  0
 28 47  1  0  0  0  0
 28 48  1  0  0  0  0
 29 49  1  0  0  0  0
M  END
> <Name>
23

> <IC50[uM]>
0.27

$$$$
23
  -OEChem-05192314333D
 Structure written by MMmdl.
 49 53  0     0  0  0  0  0  0999 V2000
   -6.3775   12.3296  -12.0018 C   0  0  0  0  0  0  0  0  0  0  0  0
   -6.5098   11.7629  -10.7403 C   0  0  0  0  0  0  0  0  0  0  0  0
   -7.7247   10.5660  -13.0266 C   0  0  0  0  0  0  0  0  0  0  0  0
   -6.9942   11.7487  -13.1193 C   0  0  0  0  0  0  0  0  0  0  0  0
   -7.8312   10.0057  -11.7538 C   0  0  0  0  0  0  0  0  0  0  0  0
   -7.2443   10.6021  -10.6070 C   0  0  0  0  0  0  0  0  0  0  0  0
   -7.6167    9.7449   -9.5151 C   0  0  0  0  0  0  0  0  0  0  0  0
   -8.2961    8.7374   -9.9786 N   0  0  0  0  0  0  0  0  0  0  0  0
   -8.4404    8.8724  -11.2937 N   0  0  0  0  0  0  0  0  0  0  0  0
   -7.3318    9.8946   -8.0252 C   0  0  0  0  0  0  0  0  0  0  0  0
   -5.5478   13.5112  -12.1572 C   0  0  0  0  0  0  0  0  0  0  0  0
   -5.9707   10.4870   -7.7351 C   0  0  0  0  0  0  0  0  0  0  0  0
   -5.8642   11.7588   -7.1694 C   0  0  0  0  0  0  0  0  0  0  0  0
   -4.6019   12.3141   -6.9186 C   0  0  0  0  0  0  0  0  0  0  0  0
   -3.4503   11.5963   -7.2357 C   0  0  0  0  0  0  0  0  0  0  0  0
   -3.5604   10.3220   -7.8000 C   0  0  0  0  0  0  0  0  0  0  0  0
   -4.8213    9.7719   -8.0443 C   0  0  0  0  0  0  0  0  0  0  0  0
   -2.0996   12.1710   -6.9757 C   0  0  0  0  0  0  0  0  0  0  0  0
   -1.7487   13.4240   -6.4767 C   0  0  0  0  0  0  0  0  0  0  0  0
   -0.4123   13.4674   -6.4260 N   0  0  0  0  0  0  0  0  0  0  0  0
    0.1713   12.3664   -6.8217 N   0  0  0  0  0  0  0  0  0  0  0  0
   -0.8093   11.5624   -7.1930 C   0  0  0  0  0  0  0  0  0  0  0  0
    0.4224   14.5657   -5.9816 C   0  0  0  0  0  0  0  0  0  0  0  0
   -5.6966   14.2423  -13.2612 N   0  0  0  0  0  0  0  0  0  0  0  0
   -4.9506   15.3153  -13.5405 C   0  0  0  0  0  0  0  0  0  0  0  0
   -3.9383   15.6899  -12.6782 C   0  0  0  0  0  0  0  0  0  0  0  0
   -3.7261   14.9536  -11.5366 C   0  0  0  0  0  0  0  0  0  0  0  0
   -4.5508   13.8769  -11.2437 C   0  0  0  0  0  0  0  0  0  0  0  0
   -2.6976   15.2614  -10.7139 N   0  0  0  0  0  0  0  0  0  0  0  0
   -6.0464   12.2223   -9.8797 H   0  0  0  0  0  0  0  0  0  0  0  0
   -8.1826   10.1089  -13.8914 H   0  0  0  0  0  0  0  0  0  0  0  0
   -7.6841   12.5064  -13.5191 H   0  0  0  0  0  0  0  0  0  0  0  0
   -6.1936   11.5599  -13.8497 H   0  0  0  0  0  0  0  0  0  0  0  0
   -8.0313    9.6067   -7.2544 H   0  0  0  0  0  0  0  0  0  0  0  0
   -6.7563   12.3160   -6.9245 H   0  0  0  0  0  0  0  0  0  0  0  0
   -4.5218   13.2977   -6.4798 H   0  0  0  0  0  0  0  0  0  0  0  0
   -2.6703    9.7625   -8.0472 H   0  0  0  0  0  0  0  0  0  0  0  0
   -4.9024    8.7852   -8.4759 H   0  0  0  0  0  0  0  0  0  0  0  0
   -2.4277   14.2118   -6.1857 H   0  0  0  0  0  0  0  0  0  0  0  0
   -0.6637   10.5754   -7.6065 H   0  0  0  0  0  0  0  0  0  0  0  0
    1.4809   14.2752   -6.0543 H   0  0  0  0  0  0  0  0  0  0  0  0
    0.2393   15.4453   -6.6162 H   0  0  0  0  0  0  0  0  0  0  0  0
    0.1804   14.8105   -4.9369 H   0  0  0  0  0  0  0  0  0  0  0  0
   -5.1384   15.8875  -14.4370 H   0  0  0  0  0  0  0  0  0  0  0  0
   -3.0010   15.6690  -13.2536 H   0  0  0  0  0  0  0  0  0  0  0  0
   -4.1509   16.7215  -12.3610 H   0  0  0  0  0  0  0  0  0  0  0  0
   -5.0546   14.1072  -10.2933 H   0  0  0  0  0  0  0  0  0  0  0  0
   -3.8997   13.0003  -11.1106 H   0  0  0  0  0  0  0  0  0  0  0  0
   -2.6419   14.6376   -9.9343 H   0  0  0  0  0  0  0  0  0  0  0  0
  1  2  1  0  0  0  0
  1  4  1  0  0  0  0
  1 11  2  0  0  0  0
  2  6  2  0  0  0  0
  3  4  1  0  0  0  0
  3  5  2  0  0  0  0
  5  6  1  0  0  0  0
  5  9  1  0  0  0  0
  6  7  1  0  0  0  0
  7  8  1  0  0  0  0
  7 10  2  3  0  0  0
  8  9  2  0  0  0  0
 10 12  1  0  0  0  0
 11 24  1  0  0  0  0
 11 28  1  0  0  0  0
 12 13  2  0  0  0  0
 12 17  1  0  0  0  0
 13 14  1  0  0  0  0
 14 15  2  0  0  0  0
 15 16  1  0  0  0  0
 15 18  1  0  0  0  0
 16 17  2  0  0  0  0
 18 19  2  0  0  0  0
 18 22  1  0  0  0  0
 19 20  1  0  0  0  0
 20 21  1  0  0  0  0
 20 23  1  0  0  0  0
 21 22  2  0  0  0  0
 24 25  2  0  0  0  0
 25 26  1  0  0  0  0
 26 27  1  0  0  0  0
 27 28  1  0  0  0  0
 27 29  2  0  0  0  0
  2 30  1  0  0  0  0
  3 31  1  0  0  0  0
  4 32  1  0  0  0  0
  4 33  1  0  0  0  0
 10 34  1  0  0  0  0
 13 35  1  0  0  0  0
 14 36  1  0  0  0  0
 16 37  1  0  0  0  0
 17 38  1  0  0  0  0
 19 39  1  0  0  0  0
 22 40  1  0  0  0  0
 23 41  1  0  0  0  0
 23 42  1  0  0  0  0
 23 43  1  0  0  0  0
 25 44  1  0  0  0  0
 26 45  1  0  0  0  0
 26 46  1  0  0  0  0
 28 47  1  0  0  0  0
 28 48  1  0  0  0  0
 29 49  1  0  0  0  0
M  END
> <Name>
23

> <IC50[uM]>
0.27

$$$$
23
  -OEChem-05192314333D
 Structure written by MMmdl.
 49 53  0     1  0  0  0  0  0999 V2000
   -6.3775   12.3296  -12.0018 C   0  0  0  0  0  0  0  0  0  0  0  0
   -6.5098   11.7629  -10.7403 C   0  0  0  0  0  0  0  0  0  0  0  0
   -7.7247   10.5660  -13.0266 C   0  0  0  0  0  0  0  0  0  0  0  0
   -6.9942   11.7487  -13.1193 C   0  0  0  0  0  0  0  0  0  0  0  0
   -7.8312   10.0057  -11.7538 C   0  0  0  0  0  0  0  0  0  0  0  0
   -7.2443   10.6021  -10.6070 C   0  0  0  0  0  0  0  0  0  0  0  0
   -7.6167    9.7449   -9.5151 C   0  0  0  0  0  0  0  0  0  0  0  0
   -8.2961    8.7374   -9.9786 N   0  0  0  0  0  0  0  0  0  0  0  0
   -8.4404    8.8724  -11.2937 N   0  0  0  0  0  0  0  0  0  0  0  0
   -7.3318    9.8946   -8.0252 C   0  0  0  0  0  0  0  0  0  0  0  0
   -5.5478   13.5112  -12.1572 C   0  0  0  0  0  0  0  0  0  0  0  0
   -5.9707   10.4870   -7.7351 C   0  0  3  0  0  0  0  0  0  0  0  0
   -5.8642   11.7588   -7.1694 C   0  0  0  0  0  0  0  0  0  0  0  0
   -4.6019   12.3141   -6.9186 C   0  0  0  0  0  0  0  0  0  0  0  0
   -3.4503   11.5963   -7.2357 C   0  0  0  0  0  0  0  0  0  0  0  0
   -3.5604   10.3220   -7.8000 C   0  0  0  0  0  0  0  0  0  0  0  0
   -4.8213    9.7719   -8.0443 C   0  0  0  0  0  0  0  0  0  0  0  0
   -2.0996   12.1710   -6.9757 C   0  0  0  0  0  0  0  0  0  0  0  0
   -1.7487   13.4240   -6.4767 C   0  0  0  0  0  0  0  0  0  0  0  0
   -0.4123   13.4674   -6.4260 N   0  0  0  0  0  0  0  0  0  0  0  0
    0.1713   12.3664   -6.8217 N   0  0  0  0  0  0  0  0  0  0  0  0
   -0.8093   11.5624   -7.1930 C   0  0  0  0  0  0  0  0  0  0  0  0
    0.4224   14.5657   -5.9816 C   0  0  0  0  0  0  0  0  0  0  0  0
   -5.6966   14.2423  -13.2612 N   0  0  0  0  0  0  0  0  0  0  0  0
   -4.9506   15.3153  -13.5405 C   0  0  0  0  0  0  0  0  0  0  0  0
   -3.9383   15.6899  -12.6782 C   0  0  0  0  0  0  0  0  0  0  0  0
   -3.7261   14.9536  -11.5366 C   0  0  0  0  0  0  0  0  0  0  0  0
   -4.5508   13.8769  -11.2437 C   0  0  0  0  0  0  0  0  0  0  0  0
   -2.6976   15.2614  -10.7139 N   0  0  0  0  0  0  0  0  0  0  0  0
   -6.0464   12.2223   -9.8797 H   0  0  0  0  0  0  0  0  0  0  0  0
   -8.1826   10.1089  -13.8914 H   0  0  0  0  0  0  0  0  0  0  0  0
   -6.9001   12.2325  -14.0803 H   0  0  0  0  0  0  0  0  0  0  0  0
   -8.0313    9.6067   -7.2544 H   0  0  0  0  0  0  0  0  0  0  0  0
   -5.9850   10.0375   -6.7313 H   0  0  0  0  0  0  0  0  0  0  0  0
   -6.7563   12.3160   -6.9245 H   0  0  0  0  0  0  0  0  0  0  0  0
   -4.5218   13.2977   -6.4798 H   0  0  0  0  0  0  0  0  0  0  0  0
   -2.6703    9.7625   -8.0472 H   0  0  0  0  0  0  0  0  0  0  0  0
   -4.8715    8.8319   -7.4752 H   0  0  0  0  0  0  0  0  0  0  0  0
   -4.8665    9.5515   -9.1210 H   0  0  0  0  0  0  0  0  0  0  0  0
   -2.4277   14.2118   -6.1857 H   0  0  0  0  0  0  0  0  0  0  0  0
   -0.6637   10.5754   -7.6065 H   0  0  0  0  0  0  0  0  0  0  0  0
    1.4809   14.2752   -6.0543 H   0  0  0  0  0  0  0  0  0  0  0  0
    0.2393   15.4453   -6.6162 H   0  0  0  0  0  0  0  0  0  0  0  0
    0.1804   14.8105   -4.9369 H   0  0  0  0  0  0  0  0  0  0  0  0
   -5.1384   15.8875  -14.4370 H   0  0  0  0  0  0  0  0  0  0  0  0
   -3.3221   16.5493  -12.8978 H   0  0  0  0  0  0  0  0  0  0  0  0
   -5.0546   14.1072  -10.2933 H   0  0  0  0  0  0  0  0  0  0  0  0
   -3.8997   13.0003  -11.1106 H   0  0  0  0  0  0  0  0  0  0  0  0
   -2.6419   14.6376   -9.9343 H   0  0  0  0  0  0  0  0  0  0  0  0
  1  2  2  0  0  0  0
  1  4  1  0  0  0  0
  1 11  1  0  0  0  0
  2  6  1  0  0  0  0
  3  4  2  0  0  0  0
  3  5  1  0  0  0  0
  5  6  2  0  0  0  0
  5  9  1  0  0  0  0
  6  7  1  0  0  0  0
  7  8  1  0  0  0  0
  7 10  2  3  0  0  0
  8  9  2  0  0  0  0
 10 12  1  0  0  0  0
 11 24  2  0  0  0  0
 11 28  1  0  0  0  0
 12 13  1  0  0  0  0
 12 17  1  0  0  0  0
 13 14  2  0  0  0  0
 14 15  1  0  0  0  0
 15 16  2  0  0  0  0
 15 18  1  0  0  0  0
 16 17  1  0  0  0  0
 18 19  2  0  0  0  0
 18 22  1  0  0  0  0
 19 20  1  0  0  0  0
 20 21  1  0  0  0  0
 20 23  1  0  0  0  0
 21 22  2  0  0  0  0
 24 25  1  0  0  0  0
 25 26  2  0  0  0  0
 26 27  1  0  0  0  0
 27 28  1  0  0  0  0
 27 29  2  0  0  0  0
  2 30  1  0  0  0  0
  3 31  1  0  0  0  0
  4 32  1  0  0  0  0
 10 33  1  0  0  0  0
 12 34  1  0  0  0  0
 13 35  1  0  0  0  0
 14 36  1  0  0  0  0
 16 37  1  0  0  0  0
 17 38  1  0  0  0  0
 17 39  1  0  0  0  0
 19 40  1  0  0  0  0
 22 41  1  0  0  0  0
 23 42  1  0  0  0  0
 23 43  1  0  0  0  0
 23 44  1  0  0  0  0
 25 45  1  0  0  0  0
 26 46  1  0  0  0  0
 28 47  1  0  0  0  0
 28 48  1  0  0  0  0
 29 49  1  0  0  0  0
M  END
> <Name>
23

> <IC50[uM]>
0.27

$$$$
23
  -OEChem-05192314333D
 Structure written by MMmdl.
 49 53  0     1  0  0  0  0  0999 V2000
   -6.3775   12.3296  -12.0018 C   0  0  0  0  0  0  0  0  0  0  0  0
   -6.5098   11.7629  -10.7403 C   0  0  0  0  0  0  0  0  0  0  0  0
   -7.7247   10.5660  -13.0266 C   0  0  0  0  0  0  0  0  0  0  0  0
   -6.9942   11.7487  -13.1193 C   0  0  0  0  0  0  0  0  0  0  0  0
   -7.8312   10.0057  -11.7538 C   0  0  0  0  0  0  0  0  0  0  0  0
   -7.2443   10.6021  -10.6070 C   0  0  0  0  0  0  0  0  0  0  0  0
   -7.6167    9.7449   -9.5151 C   0  0  3  0  0  0  0  0  0  0  0  0
   -8.2961    8.7374   -9.9786 N   0  0  0  0  0  0  0  0  0  0  0  0
   -8.4404    8.8724  -11.2937 N   0  0  0  0  0  0  0  0  0  0  0  0
   -7.3318    9.8946   -8.0252 C   0  0  0  0  0  0  0  0  0  0  0  0
   -5.5478   13.5112  -12.1572 C   0  0  0  0  0  0  0  0  0  0  0  0
   -5.9707   10.4870   -7.7351 C   0  0  0  0  0  0  0  0  0  0  0  0
   -5.8642   11.7588   -7.1694 C   0  0  0  0  0  0  0  0  0  0  0  0
   -4.6019   12.3141   -6.9186 C   0  0  0  0  0  0  0  0  0  0  0  0
   -3.4503   11.5963   -7.2357 C   0  0  0  0  0  0  0  0  0  0  0  0
   -3.5604   10.3220   -7.8000 C   0  0  0  0  0  0  0  0  0  0  0  0
   -4.8213    9.7719   -8.0443 C   0  0  0  0  0  0  0  0  0  0  0  0
   -2.0996   12.1710   -6.9757 C   0  0  0  0  0  0  0  0  0  0  0  0
   -1.7487   13.4240   -6.4767 C   0  0  0  0  0  0  0  0  0  0  0  0
   -0.4123   13.4674   -6.4260 N   0  0  0  0  0  0  0  0  0  0  0  0
    0.1713   12.3664   -6.8217 N   0  0  0  0  0  0  0  0  0  0  0  0
   -0.8093   11.5624   -7.1930 C   0  0  0  0  0  0  0  0  0  0  0  0
    0.4224   14.5657   -5.9816 C   0  0  0  0  0  0  0  0  0  0  0  0
   -5.6966   14.2423  -13.2612 N   0  0  0  0  0  0  0  0  0  0  0  0
   -4.9506   15.3153  -13.5405 C   0  0  0  0  0  0  0  0  0  0  0  0
   -3.9383   15.6899  -12.6782 C   0  0  0  0  0  0  0  0  0  0  0  0
   -3.7261   14.9536  -11.5366 C   0  0  0  0  0  0  0  0  0  0  0  0
   -4.5508   13.8769  -11.2437 C   0  0  0  0  0  0  0  0  0  0  0  0
   -2.6976   15.2614  -10.7139 N   0  0  0  0  0  0  0  0  0  0  0  0
   -6.0464   12.2223   -9.8797 H   0  0  0  0  0  0  0  0  0  0  0  0
   -8.1826   10.1089  -13.8914 H   0  0  0  0  0  0  0  0  0  0  0  0
   -6.9001   12.2325  -14.0803 H   0  0  0  0  0  0  0  0  0  0  0  0
   -6.6832    9.1765   -9.6392 H   0  0  0  0  0  0  0  0  0  0  0  0
   -8.0313    9.6067   -7.2544 H   0  0  0  0  0  0  0  0  0  0  0  0
   -6.7563   12.3160   -6.9245 H   0  0  0  0  0  0  0  0  0  0  0  0
   -4.5218   13.2977   -6.4798 H   0  0  0  0  0  0  0  0  0  0  0  0
   -2.6703    9.7625   -8.0472 H   0  0  0  0  0  0  0  0  0  0  0  0
   -4.8715    8.8319   -7.4752 H   0  0  0  0  0  0  0  0  0  0  0  0
   -4.8665    9.5515   -9.1210 H   0  0  0  0  0  0  0  0  0  0  0  0
   -2.4277   14.2118   -6.1857 H   0  0  0  0  0  0  0  0  0  0  0  0
   -0.6637   10.5754   -7.6065 H   0  0  0  0  0  0  0  0  0  0  0  0
    1.4809   14.2752   -6.0543 H   0  0  0  0  0  0  0  0  0  0  0  0
    0.2393   15.4453   -6.6162 H   0  0  0  0  0  0  0  0  0  0  0  0
    0.1804   14.8105   -4.9369 H   0  0  0  0  0  0  0  0  0  0  0  0
   -5.1384   15.8875  -14.4370 H   0  0  0  0  0  0  0  0  0  0  0  0
   -3.3221   16.5493  -12.8978 H   0  0  0  0  0  0  0  0  0  0  0  0
   -5.0546   14.1072  -10.2933 H   0  0  0  0  0  0  0  0  0  0  0  0
   -3.8997   13.0003  -11.1106 H   0  0  0  0  0  0  0  0  0  0  0  0
   -2.6419   14.6376   -9.9343 H   0  0  0  0  0  0  0  0  0  0  0  0
  1  2  2  0  0  0  0
  1  4  1  0  0  0  0
  1 11  1  0  0  0  0
  2  6  1  0  0  0  0
  3  4  2  0  0  0  0
  3  5  1  0  0  0  0
  5  6  2  0  0  0  0
  5  9  1  0  0  0  0
  6  7  1  0  0  0  0
  7  8  1  0  0  0  0
  7 10  1  0  0  0  0
  8  9  2  0  0  0  0
 10 12  2  3  0  0  0
 11 24  2  0  0  0  0
 11 28  1  0  0  0  0
 12 13  1  0  0  0  0
 12 17  1  0  0  0  0
 13 14  2  0  0  0  0
 14 15  1  0  0  0  0
 15 16  2  0  0  0  0
 15 18  1  0  0  0  0
 16 17  1  0  0  0  0
 18 19  2  0  0  0  0
 18 22  1  0  0  0  0
 19 20  1  0  0  0  0
 20 21  1  0  0  0  0
 20 23  1  0  0  0  0
 21 22  2  0  0  0  0
 24 25  1  0  0  0  0
 25 26  2  0  0  0  0
 26 27  1  0  0  0  0
 27 28  1  0  0  0  0
 27 29  2  0  0  0  0
  2 30  1  0  0  0  0
  3 31  1  0  0  0  0
  4 32  1  0  0  0  0
  7 33  1  0  0  0  0
 10 34  1  0  0  0  0
 13 35  1  0  0  0  0
 14 36  1  0  0  0  0
 16 37  1  0  0  0  0
 17 38  1  0  0  0  0
 17 39  1  0  0  0  0
 19 40  1  0  0  0  0
 22 41  1  0  0  0  0
 23 42  1  0  0  0  0
 23 43  1  0  0  0  0
 23 44  1  0  0  0  0
 25 45  1  0  0  0  0
 26 46  1  0  0  0  0
 28 47  1  0  0  0  0
 28 48  1  0  0  0  0
 29 49  1  0  0  0  0
M  END
> <Name>
23

> <IC50[uM]>
0.27

$$$$
23
  -OEChem-05192314333D
 Structure written by MMmdl.
 49 53  0     0  0  0  0  0  0999 V2000
   -6.3775   12.3296  -12.0018 C   0  0  0  0  0  0  0  0  0  0  0  0
   -6.5098   11.7629  -10.7403 C   0  0  0  0  0  0  0  0  0  0  0  0
   -7.7247   10.5660  -13.0266 C   0  0  0  0  0  0  0  0  0  0  0  0
   -6.9942   11.7487  -13.1193 C   0  0  0  0  0  0  0  0  0  0  0  0
   -7.8312   10.0057  -11.7538 C   0  0  0  0  0  0  0  0  0  0  0  0
   -7.2443   10.6021  -10.6070 C   0  0  0  0  0  0  0  0  0  0  0  0
   -7.6167    9.7449   -9.5151 C   0  0  0  0  0  0  0  0  0  0  0  0
   -8.2961    8.7374   -9.9786 N   0  0  0  0  0  0  0  0  0  0  0  0
   -8.4404    8.8724  -11.2937 N   0  0  0  0  0  0  0  0  0  0  0  0
   -7.3318    9.8946   -8.0252 C   0  0  0  0  0  0  0  0  0  0  0  0
   -5.5478   13.5112  -12.1572 C   0  0  0  0  0  0  0  0  0  0  0  0
   -5.9707   10.4870   -7.7351 C   0  0  0  0  0  0  0  0  0  0  0  0
   -5.8642   11.7588   -7.1694 C   0  0  0  0  0  0  0  0  0  0  0  0
   -4.6019   12.3141   -6.9186 C   0  0  0  0  0  0  0  0  0  0  0  0
   -3.4503   11.5963   -7.2357 C   0  0  0  0  0  0  0  0  0  0  0  0
   -3.5604   10.3220   -7.8000 C   0  0  0  0  0  0  0  0  0  0  0  0
   -4.8213    9.7719   -8.0443 C   0  0  0  0  0  0  0  0  0  0  0  0
   -2.0996   12.1710   -6.9757 C   0  0  0  0  0  0  0  0  0  0  0  0
   -1.7487   13.4240   -6.4767 C   0  0  0  0  0  0  0  0  0  0  0  0
   -0.4123   13.4674   -6.4260 N   0  0  0  0  0  0  0  0  0  0  0  0
    0.1713   12.3664   -6.8217 N   0  0  0  0  0  0  0  0  0  0  0  0
   -0.8093   11.5624   -7.1930 C   0  0  0  0  0  0  0  0  0  0  0  0
    0.4224   14.5657   -5.9816 C   0  0  0  0  0  0  0  0  0  0  0  0
   -5.6966   14.2423  -13.2612 N   0  0  0  0  0  0  0  0  0  0  0  0
   -4.9506   15.3153  -13.5405 C   0  0  0  0  0  0  0  0  0  0  0  0
   -3.9383   15.6899  -12.6782 C   0  0  0  0  0  0  0  0  0  0  0  0
   -3.7261   14.9536  -11.5366 C   0  0  0  0  0  0  0  0  0  0  0  0
   -4.5508   13.8769  -11.2437 C   0  0  0  0  0  0  0  0  0  0  0  0
   -2.6976   15.2614  -10.7139 N   0  0  0  0  0  0  0  0  0  0  0  0
   -6.0464   12.2223   -9.8797 H   0  0  0  0  0  0  0  0  0  0  0  0
   -8.1826   10.1089  -13.8914 H   0  0  0  0  0  0  0  0  0  0  0  0
   -6.9001   12.2325  -14.0803 H   0  0  0  0  0  0  0  0  0  0  0  0
   -8.0313    9.6067   -7.2544 H   0  0  0  0  0  0  0  0  0  0  0  0
   -6.7563   12.3160   -6.9245 H   0  0  0  0  0  0  0  0  0  0  0  0
   -4.5527   13.2582   -7.4809 H   0  0  0  0  0  0  0  0  0  0  0  0
   -4.5569   12.5268   -5.8403 H   0  0  0  0  0  0  0  0  0  0  0  0
   -2.6703    9.7625   -8.0472 H   0  0  0  0  0  0  0  0  0  0  0  0
   -4.8715    8.8319   -7.4752 H   0  0  0  0  0  0  0  0  0  0  0  0
   -4.8665    9.5515   -9.1210 H   0  0  0  0  0  0  0  0  0  0  0  0
   -2.4277   14.2118   -6.1857 H   0  0  0  0  0  0  0  0  0  0  0  0
   -0.6637   10.5754   -7.6065 H   0  0  0  0  0  0  0  0  0  0  0  0
    1.4809   14.2752   -6.0543 H   0  0  0  0  0  0  0  0  0  0  0  0
    0.2393   15.4453   -6.6162 H   0  0  0  0  0  0  0  0  0  0  0  0
    0.1804   14.8105   -4.9369 H   0  0  0  0  0  0  0  0  0  0  0  0
   -5.1384   15.8875  -14.4370 H   0  0  0  0  0  0  0  0  0  0  0  0
   -3.3221   16.5493  -12.8978 H   0  0  0  0  0  0  0  0  0  0  0  0
   -5.0546   14.1072  -10.2933 H   0  0  0  0  0  0  0  0  0  0  0  0
   -3.8997   13.0003  -11.1106 H   0  0  0  0  0  0  0  0  0  0  0  0
   -2.6419   14.6376   -9.9343 H   0  0  0  0  0  0  0  0  0  0  0  0
  1  2  2  0  0  0  0
  1  4  1  0  0  0  0
  1 11  1  0  0  0  0
  2  6  1  0  0  0  0
  3  4  2  0  0  0  0
  3  5  1  0  0  0  0
  5  6  2  0  0  0  0
  5  9  1  0  0  0  0
  6  7  1  0  0  0  0
  7  8  1  0  0  0  0
  7 10  2  3  0  0  0
  8  9  2  0  0  0  0
 10 12  1  0  0  0  0
 11 24  2  0  0  0  0
 11 28  1  0  0  0  0
 12 13  2  0  0  0  0
 12 17  1  0  0  0  0
 13 14  1  0  0  0  0
 14 15  1  0  0  0  0
 15 16  2  0  0  0  0
 15 18  1  0  0  0  0
 16 17  1  0  0  0  0
 18 19  2  0  0  0  0
 18 22  1  0  0  0  0
 19 20  1  0  0  0  0
 20 21  1  0  0  0  0
 20 23  1  0  0  0  0
 21 22  2  0  0  0  0
 24 25  1  0  0  0  0
 25 26  2  0  0  0  0
 26 27  1  0  0  0  0
 27 28  1  0  0  0  0
 27 29  2  0  0  0  0
  2 30  1  0  0  0  0
  3 31  1  0  0  0  0
  4 32  1  0  0  0  0
 10 33  1  0  0  0  0
 13 34  1  0  0  0  0
 14 35  1  0  0  0  0
 14 36  1  0  0  0  0
 16 37  1  0  0  0  0
 17 38  1  0  0  0  0
 17 39  1  0  0  0  0
 19 40  1  0  0  0  0
 22 41  1  0  0  0  0
 23 42  1  0  0  0  0
 23 43  1  0  0  0  0
 23 44  1  0  0  0  0
 25 45  1  0  0  0  0
 26 46  1  0  0  0  0
 28 47  1  0  0  0  0
 28 48  1  0  0  0  0
 29 49  1  0  0  0  0
M  END
> <Name>
23

> <IC50[uM]>
0.27

$$$$
23
  -OEChem-05192314333D
 Structure written by MMmdl.
 49 53  0     0  0  0  0  0  0999 V2000
   -6.3775   12.3296  -12.0018 C   0  0  0  0  0  0  0  0  0  0  0  0
   -6.5098   11.7629  -10.7403 C   0  0  0  0  0  0  0  0  0  0  0  0
   -7.7247   10.5660  -13.0266 C   0  0  0  0  0  0  0  0  0  0  0  0
   -6.9942   11.7487  -13.1193 C   0  0  0  0  0  0  0  0  0  0  0  0
   -7.8312   10.0057  -11.7538 C   0  0  0  0  0  0  0  0  0  0  0  0
   -7.2443   10.6021  -10.6070 C   0  0  0  0  0  0  0  0  0  0  0  0
   -7.6167    9.7449   -9.5151 C   0  0  0  0  0  0  0  0  0  0  0  0
   -8.2961    8.7374   -9.9786 N   0  0  0  0  0  0  0  0  0  0  0  0
   -8.4404    8.8724  -11.2937 N   0  0  0  0  0  0  0  0  0  0  0  0
   -7.3318    9.8946   -8.0252 C   0  0  0  0  0  0  0  0  0  0  0  0
   -5.5478   13.5112  -12.1572 C   0  0  0  0  0  0  0  0  0  0  0  0
   -5.9707   10.4870   -7.7351 C   0  0  0  0  0  0  0  0  0  0  0  0
   -5.8642   11.7588   -7.1694 C   0  0  0  0  0  0  0  0  0  0  0  0
   -4.6019   12.3141   -6.9186 C   0  0  0  0  0  0  0  0  0  0  0  0
   -3.4503   11.5963   -7.2357 C   0  0  0  0  0  0  0  0  0  0  0  0
   -3.5604   10.3220   -7.8000 C   0  0  0  0  0  0  0  0  0  0  0  0
   -4.8213    9.7719   -8.0443 C   0  0  0  0  0  0  0  0  0  0  0  0
   -2.0996   12.1710   -6.9757 C   0  0  0  0  0  0  0  0  0  0  0  0
   -1.7487   13.4240   -6.4767 C   0  0  0  0  0  0  0  0  0  0  0  0
   -0.4123   13.4674   -6.4260 N   0  0  0  0  0  0  0  0  0  0  0  0
    0.1713   12.3664   -6.8217 N   0  0  0  0  0  0  0  0  0  0  0  0
   -0.8093   11.5624   -7.1930 C   0  0  0  0  0  0  0  0  0  0  0  0
    0.4224   14.5657   -5.9816 C   0  0  0  0  0  0  0  0  0  0  0  0
   -5.6966   14.2423  -13.2612 N   0  0  0  0  0  0  0  0  0  0  0  0
   -4.9506   15.3153  -13.5405 C   0  0  0  0  0  0  0  0  0  0  0  0
   -3.9383   15.6899  -12.6782 C   0  0  0  0  0  0  0  0  0  0  0  0
   -3.7261   14.9536  -11.5366 C   0  0  0  0  0  0  0  0  0  0  0  0
   -4.5508   13.8769  -11.2437 C   0  0  0  0  0  0  0  0  0  0  0  0
   -2.6976   15.2614  -10.7139 N   0  0  0  0  0  0  0  0  0  0  0  0
   -6.0464   12.2223   -9.8797 H   0  0  0  0  0  0  0  0  0  0  0  0
   -8.1826   10.1089  -13.8914 H   0  0  0  0  0  0  0  0  0  0  0  0
   -6.9001   12.2325  -14.0803 H   0  0  0  0  0  0  0  0  0  0  0  0
   -8.0313    9.6067   -7.2544 H   0  0  0  0  0  0  0  0  0  0  0  0
   -6.7563   12.3160   -6.9245 H   0  0  0  0  0  0  0  0  0  0  0  0
   -4.5218   13.2977   -6.4798 H   0  0  0  0  0  0  0  0  0  0  0  0
   -3.0365   10.3566   -8.7666 H   0  0  0  0  0  0  0  0  0  0  0  0
   -3.0375    9.6293   -7.1241 H   0  0  0  0  0  0  0  0  0  0  0  0
   -4.8715    8.8319   -7.4752 H   0  0  0  0  0  0  0  0  0  0  0  0
   -4.8665    9.5515   -9.1210 H   0  0  0  0  0  0  0  0  0  0  0  0
   -2.4277   14.2118   -6.1857 H   0  0  0  0  0  0  0  0  0  0  0  0
   -0.6637   10.5754   -7.6065 H   0  0  0  0  0  0  0  0  0  0  0  0
    1.4809   14.2752   -6.0543 H   0  0  0  0  0  0  0  0  0  0  0  0
    0.2393   15.4453   -6.6162 H   0  0  0  0  0  0  0  0  0  0  0  0
    0.1804   14.8105   -4.9369 H   0  0  0  0  0  0  0  0  0  0  0  0
   -5.1384   15.8875  -14.4370 H   0  0  0  0  0  0  0  0  0  0  0  0
   -3.3221   16.5493  -12.8978 H   0  0  0  0  0  0  0  0  0  0  0  0
   -5.0546   14.1072  -10.2933 H   0  0  0  0  0  0  0  0  0  0  0  0
   -3.8997   13.0003  -11.1106 H   0  0  0  0  0  0  0  0  0  0  0  0
   -2.6419   14.6376   -9.9343 H   0  0  0  0  0  0  0  0  0  0  0  0
  1  2  2  0  0  0  0
  1  4  1  0  0  0  0
  1 11  1  0  0  0  0
  2  6  1  0  0  0  0
  3  4  2  0  0  0  0
  3  5  1  0  0  0  0
  5  6  2  0  0  0  0
  5  9  1  0  0  0  0
  6  7  1  0  0  0  0
  7  8  1  0  0  0  0
  7 10  2  3  0  0  0
  8  9  2  0  0  0  0
 10 12  1  0  0  0  0
 11 24  2  0  0  0  0
 11 28  1  0  0  0  0
 12 13  2  0  0  0  0
 12 17  1  0  0  0  0
 13 14  1  0  0  0  0
 14 15  2  0  0  0  0
 15 16  1  0  0  0  0
 15 18  1  0  0  0  0
 16 17  1  0  0  0  0
 18 19  2  0  0  0  0
 18 22  1  0  0  0  0
 19 20  1  0  0  0  0
 20 21  1  0  0  0  0
 20 23  1  0  0  0  0
 21 22  2  0  0  0  0
 24 25  1  0  0  0  0
 25 26  2  0  0  0  0
 26 27  1  0  0  0  0
 27 28  1  0  0  0  0
 27 29  2  0  0  0  0
  2 30  1  0  0  0  0
  3 31  1  0  0  0  0
  4 32  1  0  0  0  0
 10 33  1  0  0  0  0
 13 34  1  0  0  0  0
 14 35  1  0  0  0  0
 16 36  1  0  0  0  0
 16 37  1  0  0  0  0
 17 38  1  0  0  0  0
 17 39  1  0  0  0  0
 19 40  1  0  0  0  0
 22 41  1  0  0  0  0
 23 42  1  0  0  0  0
 23 43  1  0  0  0  0
 23 44  1  0  0  0  0
 25 45  1  0  0  0  0
 26 46  1  0  0  0  0
 28 47  1  0  0  0  0
 28 48  1  0  0  0  0
 29 49  1  0  0  0  0
M  END
> <Name>
23

> <IC50[uM]>
0.27

$$$$
23
  -OEChem-05192314333D
 Structure written by MMmdl.
 49 53  0     1  0  0  0  0  0999 V2000
   -6.3775   12.3296  -12.0018 C   0  0  3  0  0  0  0  0  0  0  0  0
   -6.5098   11.7629  -10.7403 C   0  0  0  0  0  0  0  0  0  0  0  0
   -7.7247   10.5660  -13.0266 C   0  0  0  0  0  0  0  0  0  0  0  0
   -6.9942   11.7487  -13.1193 C   0  0  0  0  0  0  0  0  0  0  0  0
   -7.8312   10.0057  -11.7538 C   0  0  0  0  0  0  0  0  0  0  0  0
   -7.2443   10.6021  -10.6070 C   0  0  0  0  0  0  0  0  0  0  0  0
   -7.6167    9.7449   -9.5151 C   0  0  0  0  0  0  0  0  0  0  0  0
   -8.2961    8.7374   -9.9786 N   0  0  0  0  0  0  0  0  0  0  0  0
   -8.4404    8.8724  -11.2937 N   0  0  0  0  0  0  0  0  0  0  0  0
   -7.3318    9.8946   -8.0252 C   0  0  0  0  0  0  0  0  0  0  0  0
   -5.5478   13.5112  -12.1572 C   0  0  0  0  0  0  0  0  0  0  0  0
   -5.9707   10.4870   -7.7351 C   0  0  0  0  0  0  0  0  0  0  0  0
   -5.8642   11.7588   -7.1694 C   0  0  0  0  0  0  0  0  0  0  0  0
   -4.6019   12.3141   -6.9186 C   0  0  0  0  0  0  0  0  0  0  0  0
   -3.4503   11.5963   -7.2357 C   0  0  0  0  0  0  0  0  0  0  0  0
   -3.5604   10.3220   -7.8000 C   0  0  0  0  0  0  0  0  0  0  0  0
   -4.8213    9.7719   -8.0443 C   0  0  0  0  0  0  0  0  0  0  0  0
   -2.0996   12.1710   -6.9757 C   0  0  0  0  0  0  0  0  0  0  0  0
   -1.7487   13.4240   -6.4767 C   0  0  0  0  0  0  0  0  0  0  0  0
   -0.4123   13.4674   -6.4260 N   0  0  0  0  0  0  0  0  0  0  0  0
    0.1713   12.3664   -6.8217 N   0  0  0  0  0  0  0  0  0  0  0  0
   -0.8093   11.5624   -7.1930 C   0  0  0  0  0  0  0  0  0  0  0  0
    0.4224   14.5657   -5.9816 C   0  0  0  0  0  0  0  0  0  0  0  0
   -5.6966   14.2423  -13.2612 N   0  0  0  0  0  0  0  0  0  0  0  0
   -4.9506   15.3153  -13.5405 C   0  0  0  0  0  0  0  0  0  0  0  0
   -3.9383   15.6899  -12.6782 C   0  0  0  0  0  0  0  0  0  0  0  0
   -3.7261   14.9536  -11.5366 C   0  0  0  0  0  0  0  0  0  0  0  0
   -4.5508   13.8769  -11.2437 C   0  0  0  0  0  0  0  0  0  0  0  0
   -2.6976   15.2614  -10.7139 N   0  0  0  0  0  0  0  0  0  0  0  0
   -7.2621   12.9592  -11.8254 H   0  0  0  0  0  0  0  0  0  0  0  0
   -5.4950   11.5473  -10.3746 H   0  0  0  0  0  0  0  0  0  0  0  0
   -6.9796   12.5188  -10.0939 H   0  0  0  0  0  0  0  0  0  0  0  0
   -8.1826   10.1089  -13.8914 H   0  0  0  0  0  0  0  0  0  0  0  0
   -6.9001   12.2325  -14.0803 H   0  0  0  0  0  0  0  0  0  0  0  0
   -8.0313    9.6067   -7.2544 H   0  0  0  0  0  0  0  0  0  0  0  0
   -6.7563   12.3160   -6.9245 H   0  0  0  0  0  0  0  0  0  0  0  0
   -4.5218   13.2977   -6.4798 H   0  0  0  0  0  0  0  0  0  0  0  0
   -2.6703    9.7625   -8.0472 H   0  0  0  0  0  0  0  0  0  0  0  0
   -4.9024    8.7852   -8.4759 H   0  0  0  0  0  0  0  0  0  0  0  0
   -2.4277   14.2118   -6.1857 H   0  0  0  0  0  0  0  0  0  0  0  0
   -0.6637   10.5754   -7.6065 H   0  0  0  0  0  0  0  0  0  0  0  0
    1.4809   14.2752   -6.0543 H   0  0  0  0  0  0  0  0  0  0  0  0
    0.2393   15.4453   -6.6162 H   0  0  0  0  0  0  0  0  0  0  0  0
    0.1804   14.8105   -4.9369 H   0  0  0  0  0  0  0  0  0  0  0  0
   -5.1384   15.8875  -14.4370 H   0  0  0  0  0  0  0  0  0  0  0  0
   -3.0010   15.6690  -13.2536 H   0  0  0  0  0  0  0  0  0  0  0  0
   -4.1509   16.7215  -12.3610 H   0  0  0  0  0  0  0  0  0  0  0  0
   -4.4255   13.3274  -10.3224 H   0  0  0  0  0  0  0  0  0  0  0  0
   -2.6419   14.6376   -9.9343 H   0  0  0  0  0  0  0  0  0  0  0  0
  1  2  1  0  0  0  0
  1  4  1  0  0  0  0
  1 11  1  0  0  0  0
  2  6  1  0  0  0  0
  3  4  2  0  0  0  0
  3  5  1  0  0  0  0
  5  6  2  0  0  0  0
  5  9  1  0  0  0  0
  6  7  1  0  0  0  0
  7  8  1  0  0  0  0
  7 10  2  3  0  0  0
  8  9  2  0  0  0  0
 10 12  1  0  0  0  0
 11 24  1  0  0  0  0
 11 28  2  0  0  0  0
 12 13  2  0  0  0  0
 12 17  1  0  0  0  0
 13 14  1  0  0  0  0
 14 15  2  0  0  0  0
 15 16  1  0  0  0  0
 15 18  1  0  0  0  0
 16 17  2  0  0  0  0
 18 19  2  0  0  0  0
 18 22  1  0  0  0  0
 19 20  1  0  0  0  0
 20 21  1  0  0  0  0
 20 23  1  0  0  0  0
 21 22  2  0  0  0  0
 24 25  2  0  0  0  0
 25 26  1  0  0  0  0
 26 27  1  0  0  0  0
 27 28  1  0  0  0  0
 27 29  2  0  0  0  0
  1 30  1  0  0  0  0
  2 31  1  0  0  0  0
  2 32  1  0  0  0  0
  3 33  1  0  0  0  0
  4 34  1  0  0  0  0
 10 35  1  0  0  0  0
 13 36  1  0  0  0  0
 14 37  1  0  0  0  0
 16 38  1  0  0  0  0
 17 39  1  0  0  0  0
 19 40  1  0  0  0  0
 22 41  1  0  0  0  0
 23 42  1  0  0  0  0
 23 43  1  0  0  0  0
 23 44  1  0  0  0  0
 25 45  1  0  0  0  0
 26 46  1  0  0  0  0
 26 47  1  0  0  0  0
 28 48  1  0  0  0  0
 29 49  1  0  0  0  0
M  END
> <Name>
23

> <IC50[uM]>
0.27

$$$$
23
  -OEChem-05192314333D
 Structure written by MMmdl.
 49 53  0     1  0  0  0  0  0999 V2000
   -6.3775   12.3296  -12.0018 C   0  0  0  0  0  0  0  0  0  0  0  0
   -6.5098   11.7629  -10.7403 C   0  0  0  0  0  0  0  0  0  0  0  0
   -7.7247   10.5660  -13.0266 C   0  0  0  0  0  0  0  0  0  0  0  0
   -6.9942   11.7487  -13.1193 C   0  0  0  0  0  0  0  0  0  0  0  0
   -7.8312   10.0057  -11.7538 C   0  0  0  0  0  0  0  0  0  0  0  0
   -7.2443   10.6021  -10.6070 C   0  0  3  0  0  0  0  0  0  0  0  0
   -7.6167    9.7449   -9.5151 C   0  0  0  0  0  0  0  0  0  0  0  0
   -8.2961    8.7374   -9.9786 N   0  0  0  0  0  0  0  0  0  0  0  0
   -8.4404    8.8724  -11.2937 N   0  0  0  0  0  0  0  0  0  0  0  0
   -7.3318    9.8946   -8.0252 C   0  0  0  0  0  0  0  0  0  0  0  0
   -5.5478   13.5112  -12.1572 C   0  0  0  0  0  0  0  0  0  0  0  0
   -5.9707   10.4870   -7.7351 C   0  0  0  0  0  0  0  0  0  0  0  0
   -5.8642   11.7588   -7.1694 C   0  0  0  0  0  0  0  0  0  0  0  0
   -4.6019   12.3141   -6.9186 C   0  0  0  0  0  0  0  0  0  0  0  0
   -3.4503   11.5963   -7.2357 C   0  0  0  0  0  0  0  0  0  0  0  0
   -3.5604   10.3220   -7.8000 C   0  0  0  0  0  0  0  0  0  0  0  0
   -4.8213    9.7719   -8.0443 C   0  0  0  0  0  0  0  0  0  0  0  0
   -2.0996   12.1710   -6.9757 C   0  0  0  0  0  0  0  0  0  0  0  0
   -1.7487   13.4240   -6.4767 C   0  0  0  0  0  0  0  0  0  0  0  0
   -0.4123   13.4674   -6.4260 N   0  0  0  0  0  0  0  0  0  0  0  0
    0.1713   12.3664   -6.8217 N   0  0  0  0  0  0  0  0  0  0  0  0
   -0.8093   11.5624   -7.1930 C   0  0  0  0  0  0  0  0  0  0  0  0
    0.4224   14.5657   -5.9816 C   0  0  0  0  0  0  0  0  0  0  0  0
   -5.6966   14.2423  -13.2612 N   0  0  0  0  0  0  0  0  0  0  0  0
   -4.9506   15.3153  -13.5405 C   0  0  0  0  0  0  0  0  0  0  0  0
   -3.9383   15.6899  -12.6782 C   0  0  0  0  0  0  0  0  0  0  0  0
   -3.7261   14.9536  -11.5366 C   0  0  0  0  0  0  0  0  0  0  0  0
   -4.5508   13.8769  -11.2437 C   0  0  0  0  0  0  0  0  0  0  0  0
   -2.6976   15.2614  -10.7139 N   0  0  0  0  0  0  0  0  0  0  0  0
   -5.4950   11.5473  -10.3746 H   0  0  0  0  0  0  0  0  0  0  0  0
   -6.9796   12.5188  -10.0939 H   0  0  0  0  0  0  0  0  0  0  0  0
   -8.1826   10.1089  -13.8914 H   0  0  0  0  0  0  0  0  0  0  0  0
   -6.9001   12.2325  -14.0803 H   0  0  0  0  0  0  0  0  0  0  0  0
   -6.3326   10.0069  -10.7637 H   0  0  0  0  0  0  0  0  0  0  0  0
   -8.0313    9.6067   -7.2544 H   0  0  0  0  0  0  0  0  0  0  0  0
   -6.7563   12.3160   -6.9245 H   0  0  0  0  0  0  0  0  0  0  0  0
   -4.5218   13.2977   -6.4798 H   0  0  0  0  0  0  0  0  0  0  0  0
   -2.6703    9.7625   -8.0472 H   0  0  0  0  0  0  0  0  0  0  0  0
   -4.9024    8.7852   -8.4759 H   0  0  0  0  0  0  0  0  0  0  0  0
   -2.4277   14.2118   -6.1857 H   0  0  0  0  0  0  0  0  0  0  0  0
   -0.6637   10.5754   -7.6065 H   0  0  0  0  0  0  0  0  0  0  0  0
    1.4809   14.2752   -6.0543 H   0  0  0  0  0  0  0  0  0  0  0  0
    0.2393   15.4453   -6.6162 H   0  0  0  0  0  0  0  0  0  0  0  0
    0.1804   14.8105   -4.9369 H   0  0  0  0  0  0  0  0  0  0  0  0
   -5.1384   15.8875  -14.4370 H   0  0  0  0  0  0  0  0  0  0  0  0
   -3.0010   15.6690  -13.2536 H   0  0  0  0  0  0  0  0  0  0  0  0
   -4.1509   16.7215  -12.3610 H   0  0  0  0  0  0  0  0  0  0  0  0
   -4.4255   13.3274  -10.3224 H   0  0  0  0  0  0  0  0  0  0  0  0
   -2.6419   14.6376   -9.9343 H   0  0  0  0  0  0  0  0  0  0  0  0
  1  2  1  0  0  0  0
  1  4  2  0  0  0  0
  1 11  1  0  0  0  0
  2  6  1  0  0  0  0
  3  4  1  0  0  0  0
  3  5  2  0  0  0  0
  5  6  1  0  0  0  0
  5  9  1  0  0  0  0
  6  7  1  0  0  0  0
  7  8  1  0  0  0  0
  7 10  2  3  0  0  0
  8  9  2  0  0  0  0
 10 12  1  0  0  0  0
 11 24  1  0  0  0  0
 11 28  2  0  0  0  0
 12 13  2  0  0  0  0
 12 17  1  0  0  0  0
 13 14  1  0  0  0  0
 14 15  2  0  0  0  0
 15 16  1  0  0  0  0
 15 18  1  0  0  0  0
 16 17  2  0  0  0  0
 18 19  2  0  0  0  0
 18 22  1  0  0  0  0
 19 20  1  0  0  0  0
 20 21  1  0  0  0  0
 20 23  1  0  0  0  0
 21 22  2  0  0  0  0
 24 25  2  0  0  0  0
 25 26  1  0  0  0  0
 26 27  1  0  0  0  0
 27 28  1  0  0  0  0
 27 29  2  0  0  0  0
  2 30  1  0  0  0  0
  2 31  1  0  0  0  0
  3 32  1  0  0  0  0
  4 33  1  0  0  0  0
  6 34  1  0  0  0  0
 10 35  1  0  0  0  0
 13 36  1  0  0  0  0
 14 37  1  0  0  0  0
 16 38  1  0  0  0  0
 17 39  1  0  0  0  0
 19 40  1  0  0  0  0
 22 41  1  0  0  0  0
 23 42  1  0  0  0  0
 23 43  1  0  0  0  0
 23 44  1  0  0  0  0
 25 45  1  0  0  0  0
 26 46  1  0  0  0  0
 26 47  1  0  0  0  0
 28 48  1  0  0  0  0
 29 49  1  0  0  0  0
M  END
> <Name>
23

> <IC50[uM]>
0.27

$$$$
23
  -OEChem-05192314333D
 Structure written by MMmdl.
 49 53  0     0  0  0  0  0  0999 V2000
   -6.3775   12.3296  -12.0018 C   0  0  0  0  0  0  0  0  0  0  0  0
   -6.5098   11.7629  -10.7403 C   0  0  0  0  0  0  0  0  0  0  0  0
   -7.7247   10.5660  -13.0266 C   0  0  0  0  0  0  0  0  0  0  0  0
   -6.9942   11.7487  -13.1193 C   0  0  0  0  0  0  0  0  0  0  0  0
   -7.8312   10.0057  -11.7538 C   0  0  0  0  0  0  0  0  0  0  0  0
   -7.2443   10.6021  -10.6070 C   0  0  0  0  0  0  0  0  0  0  0  0
   -7.6167    9.7449   -9.5151 C   0  0  0  0  0  0  0  0  0  0  0  0
   -8.2961    8.7374   -9.9786 N   0  0  0  0  0  0  0  0  0  0  0  0
   -8.4404    8.8724  -11.2937 N   0  0  0  0  0  0  0  0  0  0  0  0
   -7.3318    9.8946   -8.0252 C   0  0  0  0  0  0  0  0  0  0  0  0
   -5.5478   13.5112  -12.1572 C   0  0  0  0  0  0  0  0  0  0  0  0
   -5.9707   10.4870   -7.7351 C   0  0  0  0  0  0  0  0  0  0  0  0
   -5.8642   11.7588   -7.1694 C   0  0  0  0  0  0  0  0  0  0  0  0
   -4.6019   12.3141   -6.9186 C   0  0  0  0  0  0  0  0  0  0  0  0
   -3.4503   11.5963   -7.2357 C   0  0  0  0  0  0  0  0  0  0  0  0
   -3.5604   10.3220   -7.8000 C   0  0  0  0  0  0  0  0  0  0  0  0
   -4.8213    9.7719   -8.0443 C   0  0  0  0  0  0  0  0  0  0  0  0
   -2.0996   12.1710   -6.9757 C   0  0  0  0  0  0  0  0  0  0  0  0
   -1.7487   13.4240   -6.4767 C   0  0  0  0  0  0  0  0  0  0  0  0
   -0.4123   13.4674   -6.4260 N   0  0  0  0  0  0  0  0  0  0  0  0
    0.1713   12.3664   -6.8217 N   0  0  0  0  0  0  0  0  0  0  0  0
   -0.8093   11.5624   -7.1930 C   0  0  0  0  0  0  0  0  0  0  0  0
    0.4224   14.5657   -5.9816 C   0  0  0  0  0  0  0  0  0  0  0  0
   -5.6966   14.2423  -13.2612 N   0  0  0  0  0  0  0  0  0  0  0  0
   -4.9506   15.3153  -13.5405 C   0  0  0  0  0  0  0  0  0  0  0  0
   -3.9383   15.6899  -12.6782 C   0  0  0  0  0  0  0  0  0  0  0  0
   -3.7261   14.9536  -11.5366 C   0  0  0  0  0  0  0  0  0  0  0  0
   -4.5508   13.8769  -11.2437 C   0  0  0  0  0  0  0  0  0  0  0  0
   -2.6976   15.2614  -10.7139 N   0  0  0  0  0  0  0  0  0  0  0  0
   -5.4950   11.5473  -10.3746 H   0  0  0  0  0  0  0  0  0  0  0  0
   -6.9796   12.5188  -10.0939 H   0  0  0  0  0  0  0  0  0  0  0  0
   -8.7428   10.7712  -13.3891 H   0  0  0  0  0  0  0  0  0  0  0  0
   -7.2451    9.8233  -13.6811 H   0  0  0  0  0  0  0  0  0  0  0  0
   -6.9001   12.2325  -14.0803 H   0  0  0  0  0  0  0  0  0  0  0  0
   -8.0313    9.6067   -7.2544 H   0  0  0  0  0  0  0  0  0  0  0  0
   -6.7563   12.3160   -6.9245 H   0  0  0  0  0  0  0  0  0  0  0  0
   -4.5218   13.2977   -6.4798 H   0  0  0  0  0  0  0  0  0  0  0  0
   -2.6703    9.7625   -8.0472 H   0  0  0  0  0  0  0  0  0  0  0  0
   -4.9024    8.7852   -8.4759 H   0  0  0  0  0  0  0  0  0  0  0  0
   -2.4277   14.2118   -6.1857 H   0  0  0  0  0  0  0  0  0  0  0  0
   -0.6637   10.5754   -7.6065 H   0  0  0  0  0  0  0  0  0  0  0  0
    1.4809   14.2752   -6.0543 H   0  0  0  0  0  0  0  0  0  0  0  0
    0.2393   15.4453   -6.6162 H   0  0  0  0  0  0  0  0  0  0  0  0
    0.1804   14.8105   -4.9369 H   0  0  0  0  0  0  0  0  0  0  0  0
   -5.1384   15.8875  -14.4370 H   0  0  0  0  0  0  0  0  0  0  0  0
   -3.0010   15.6690  -13.2536 H   0  0  0  0  0  0  0  0  0  0  0  0
   -4.1509   16.7215  -12.3610 H   0  0  0  0  0  0  0  0  0  0  0  0
   -4.4255   13.3274  -10.3224 H   0  0  0  0  0  0  0  0  0  0  0  0
   -2.6419   14.6376   -9.9343 H   0  0  0  0  0  0  0  0  0  0  0  0
  1  2  1  0  0  0  0
  1  4  2  0  0  0  0
  1 11  1  0  0  0  0
  2  6  1  0  0  0  0
  3  4  1  0  0  0  0
  3  5  1  0  0  0  0
  5  6  2  0  0  0  0
  5  9  1  0  0  0  0
  6  7  1  0  0  0  0
  7  8  1  0  0  0  0
  7 10  2  3  0  0  0
  8  9  2  0  0  0  0
 10 12  1  0  0  0  0
 11 24  1  0  0  0  0
 11 28  2  0  0  0  0
 12 13  2  0  0  0  0
 12 17  1  0  0  0  0
 13 14  1  0  0  0  0
 14 15  2  0  0  0  0
 15 16  1  0  0  0  0
 15 18  1  0  0  0  0
 16 17  2  0  0  0  0
 18 19  2  0  0  0  0
 18 22  1  0  0  0  0
 19 20  1  0  0  0  0
 20 21  1  0  0  0  0
 20 23  1  0  0  0  0
 21 22  2  0  0  0  0
 24 25  2  0  0  0  0
 25 26  1  0  0  0  0
 26 27  1  0  0  0  0
 27 28  1  0  0  0  0
 27 29  2  0  0  0  0
  2 30  1  0  0  0  0
  2 31  1  0  0  0  0
  3 32  1  0  0  0  0
  3 33  1  0  0  0  0
  4 34  1  0  0  0  0
 10 35  1  0  0  0  0
 13 36  1  0  0  0  0
 14 37  1  0  0  0  0
 16 38  1  0  0  0  0
 17 39  1  0  0  0  0
 19 40  1  0  0  0  0
 22 41  1  0  0  0  0
 23 42  1  0  0  0  0
 23 43  1  0  0  0  0
 23 44  1  0  0  0  0
 25 45  1  0  0  0  0
 26 46  1  0  0  0  0
 26 47  1  0  0  0  0
 28 48  1  0  0  0  0
 29 49  1  0  0  0  0
M  END
> <Name>
23

> <IC50[uM]>
0.27

$$$$
23
  -OEChem-05192314333D
 Structure written by MMmdl.
 49 53  0     1  0  0  0  0  0999 V2000
   -6.3775   12.3296  -12.0018 C   0  0  3  0  0  0  0  0  0  0  0  0
   -6.5098   11.7629  -10.7403 C   0  0  0  0  0  0  0  0  0  0  0  0
   -7.7247   10.5660  -13.0266 C   0  0  0  0  0  0  0  0  0  0  0  0
   -6.9942   11.7487  -13.1193 C   0  0  0  0  0  0  0  0  0  0  0  0
   -7.8312   10.0057  -11.7538 C   0  0  0  0  0  0  0  0  0  0  0  0
   -7.2443   10.6021  -10.6070 C   0  0  0  0  0  0  0  0  0  0  0  0
   -7.6167    9.7449   -9.5151 C   0  0  0  0  0  0  0  0  0  0  0  0
   -8.2961    8.7374   -9.9786 N   0  0  0  0  0  0  0  0  0  0  0  0
   -8.4404    8.8724  -11.2937 N   0  0  0  0  0  0  0  0  0  0  0  0
   -7.3318    9.8946   -8.0252 C   0  0  0  0  0  0  0  0  0  0  0  0
   -5.5478   13.5112  -12.1572 C   0  0  0  0  0  0  0  0  0  0  0  0
   -5.9707   10.4870   -7.7351 C   0  0  0  0  0  0  0  0  0  0  0  0
   -5.8642   11.7588   -7.1694 C   0  0  0  0  0  0  0  0  0  0  0  0
   -4.6019   12.3141   -6.9186 C   0  0  0  0  0  0  0  0  0  0  0  0
   -3.4503   11.5963   -7.2357 C   0  0  0  0  0  0  0  0  0  0  0  0
   -3.5604   10.3220   -7.8000 C   0  0  0  0  0  0  0  0  0  0  0  0
   -4.8213    9.7719   -8.0443 C   0  0  0  0  0  0  0  0  0  0  0  0
   -2.0996   12.1710   -6.9757 C   0  0  0  0  0  0  0  0  0  0  0  0
   -1.7487   13.4240   -6.4767 C   0  0  0  0  0  0  0  0  0  0  0  0
   -0.4123   13.4674   -6.4260 N   0  0  0  0  0  0  0  0  0  0  0  0
    0.1713   12.3664   -6.8217 N   0  0  0  0  0  0  0  0  0  0  0  0
   -0.8093   11.5624   -7.1930 C   0  0  0  0  0  0  0  0  0  0  0  0
    0.4224   14.5657   -5.9816 C   0  0  0  0  0  0  0  0  0  0  0  0
   -5.6966   14.2423  -13.2612 N   0  0  0  0  0  0  0  0  0  0  0  0
   -4.9506   15.3153  -13.5405 C   0  0  0  0  0  0  0  0  0  0  0  0
   -3.9383   15.6899  -12.6782 C   0  0  0  0  0  0  0  0  0  0  0  0
   -3.7261   14.9536  -11.5366 C   0  0  0  0  0  0  0  0  0  0  0  0
   -4.5508   13.8769  -11.2437 C   0  0  0  0  0  0  0  0  0  0  0  0
   -2.6976   15.2614  -10.7139 N   0  0  0  0  0  0  0  0  0  0  0  0
   -7.2621   12.9592  -11.8254 H   0  0  0  0  0  0  0  0  0  0  0  0
   -5.4950   11.5473  -10.3746 H   0  0  0  0  0  0  0  0  0  0  0  0
   -6.9796   12.5188  -10.0939 H   0  0  0  0  0  0  0  0  0  0  0  0
   -8.1826   10.1089  -13.8914 H   0  0  0  0  0  0  0  0  0  0  0  0
   -6.9001   12.2325  -14.0803 H   0  0  0  0  0  0  0  0  0  0  0  0
   -8.0313    9.6067   -7.2544 H   0  0  0  0  0  0  0  0  0  0  0  0
   -6.7563   12.3160   -6.9245 H   0  0  0  0  0  0  0  0  0  0  0  0
   -4.5218   13.2977   -6.4798 H   0  0  0  0  0  0  0  0  0  0  0  0
   -2.6703    9.7625   -8.0472 H   0  0  0  0  0  0  0  0  0  0  0  0
   -4.9024    8.7852   -8.4759 H   0  0  0  0  0  0  0  0  0  0  0  0
   -2.4277   14.2118   -6.1857 H   0  0  0  0  0  0  0  0  0  0  0  0
   -0.6637   10.5754   -7.6065 H   0  0  0  0  0  0  0  0  0  0  0  0
    1.4809   14.2752   -6.0543 H   0  0  0  0  0  0  0  0  0  0  0  0
    0.2393   15.4453   -6.6162 H   0  0  0  0  0  0  0  0  0  0  0  0
    0.1804   14.8105   -4.9369 H   0  0  0  0  0  0  0  0  0  0  0  0
   -5.1384   15.8875  -14.4370 H   0  0  0  0  0  0  0  0  0  0  0  0
   -3.3221   16.5493  -12.8978 H   0  0  0  0  0  0  0  0  0  0  0  0
   -5.0546   14.1072  -10.2933 H   0  0  0  0  0  0  0  0  0  0  0  0
   -3.8997   13.0003  -11.1106 H   0  0  0  0  0  0  0  0  0  0  0  0
   -2.6419   14.6376   -9.9343 H   0  0  0  0  0  0  0  0  0  0  0  0
  1  2  1  0  0  0  0
  1  4  1  0  0  0  0
  1 11  1  0  0  0  0
  2  6  1  0  0  0  0
  3  4  2  0  0  0  0
  3  5  1  0  0  0  0
  5  6  2  0  0  0  0
  5  9  1  0  0  0  0
  6  7  1  0  0  0  0
  7  8  1  0  0  0  0
  7 10  2  3  0  0  0
  8  9  2  0  0  0  0
 10 12  1  0  0  0  0
 11 24  2  0  0  0  0
 11 28  1  0  0  0  0
 12 13  2  0  0  0  0
 12 17  1  0  0  0  0
 13 14  1  0  0  0  0
 14 15  2  0  0  0  0
 15 16  1  0  0  0  0
 15 18  1  0  0  0  0
 16 17  2  0  0  0  0
 18 19  2  0  0  0  0
 18 22  1  0  0  0  0
 19 20  1  0  0  0  0
 20 21  1  0  0  0  0
 20 23  1  0  0  0  0
 21 22  2  0  0  0  0
 24 25  1  0  0  0  0
 25 26  2  0  0  0  0
 26 27  1  0  0  0  0
 27 28  1  0  0  0  0
 27 29  2  0  0  0  0
  1 30  1  0  0  0  0
  2 31  1  0  0  0  0
  2 32  1  0  0  0  0
  3 33  1  0  0  0  0
  4 34  1  0  0  0  0
 10 35  1  0  0  0  0
 13 36  1  0  0  0  0
 14 37  1  0  0  0  0
 16 38  1  0  0  0  0
 17 39  1  0  0  0  0
 19 40  1  0  0  0  0
 22 41  1  0  0  0  0
 23 42  1  0  0  0  0
 23 43  1  0  0  0  0
 23 44  1  0  0  0  0
 25 45  1  0  0  0  0
 26 46  1  0  0  0  0
 28 47  1  0  0  0  0
 28 48  1  0  0  0  0
 29 49  1  0  0  0  0
M  END
> <Name>
23

> <IC50[uM]>
0.27

$$$$
23
  -OEChem-05192314333D
 Structure written by MMmdl.
 49 53  0     1  0  0  0  0  0999 V2000
   -6.3775   12.3296  -12.0018 C   0  0  0  0  0  0  0  0  0  0  0  0
   -6.5098   11.7629  -10.7403 C   0  0  0  0  0  0  0  0  0  0  0  0
   -7.7247   10.5660  -13.0266 C   0  0  0  0  0  0  0  0  0  0  0  0
   -6.9942   11.7487  -13.1193 C   0  0  0  0  0  0  0  0  0  0  0  0
   -7.8312   10.0057  -11.7538 C   0  0  0  0  0  0  0  0  0  0  0  0
   -7.2443   10.6021  -10.6070 C   0  0  3  0  0  0  0  0  0  0  0  0
   -7.6167    9.7449   -9.5151 C   0  0  0  0  0  0  0  0  0  0  0  0
   -8.2961    8.7374   -9.9786 N   0  0  0  0  0  0  0  0  0  0  0  0
   -8.4404    8.8724  -11.2937 N   0  0  0  0  0  0  0  0  0  0  0  0
   -7.3318    9.8946   -8.0252 C   0  0  0  0  0  0  0  0  0  0  0  0
   -5.5478   13.5112  -12.1572 C   0  0  0  0  0  0  0  0  0  0  0  0
   -5.9707   10.4870   -7.7351 C   0  0  0  0  0  0  0  0  0  0  0  0
   -5.8642   11.7588   -7.1694 C   0  0  0  0  0  0  0  0  0  0  0  0
   -4.6019   12.3141   -6.9186 C   0  0  0  0  0  0  0  0  0  0  0  0
   -3.4503   11.5963   -7.2357 C   0  0  0  0  0  0  0  0  0  0  0  0
   -3.5604   10.3220   -7.8000 C   0  0  0  0  0  0  0  0  0  0  0  0
   -4.8213    9.7719   -8.0443 C   0  0  0  0  0  0  0  0  0  0  0  0
   -2.0996   12.1710   -6.9757 C   0  0  0  0  0  0  0  0  0  0  0  0
   -1.7487   13.4240   -6.4767 C   0  0  0  0  0  0  0  0  0  0  0  0
   -0.4123   13.4674   -6.4260 N   0  0  0  0  0  0  0  0  0  0  0  0
    0.1713   12.3664   -6.8217 N   0  0  0  0  0  0  0  0  0  0  0  0
   -0.8093   11.5624   -7.1930 C   0  0  0  0  0  0  0  0  0  0  0  0
    0.4224   14.5657   -5.9816 C   0  0  0  0  0  0  0  0  0  0  0  0
   -5.6966   14.2423  -13.2612 N   0  0  0  0  0  0  0  0  0  0  0  0
   -4.9506   15.3153  -13.5405 C   0  0  0  0  0  0  0  0  0  0  0  0
   -3.9383   15.6899  -12.6782 C   0  0  0  0  0  0  0  0  0  0  0  0
   -3.7261   14.9536  -11.5366 C   0  0  0  0  0  0  0  0  0  0  0  0
   -4.5508   13.8769  -11.2437 C   0  0  0  0  0  0  0  0  0  0  0  0
   -2.6976   15.2614  -10.7139 N   0  0  0  0  0  0  0  0  0  0  0  0
   -5.4950   11.5473  -10.3746 H   0  0  0  0  0  0  0  0  0  0  0  0
   -6.9796   12.5188  -10.0939 H   0  0  0  0  0  0  0  0  0  0  0  0
   -8.1826   10.1089  -13.8914 H   0  0  0  0  0  0  0  0  0  0  0  0
   -6.9001   12.2325  -14.0803 H   0  0  0  0  0  0  0  0  0  0  0  0
   -6.3326   10.0069  -10.7637 H   0  0  0  0  0  0  0  0  0  0  0  0
   -8.0313    9.6067   -7.2544 H   0  0  0  0  0  0  0  0  0  0  0  0
   -6.7563   12.3160   -6.9245 H   0  0  0  0  0  0  0  0  0  0  0  0
   -4.5218   13.2977   -6.4798 H   0  0  0  0  0  0  0  0  0  0  0  0
   -2.6703    9.7625   -8.0472 H   0  0  0  0  0  0  0  0  0  0  0  0
   -4.9024    8.7852   -8.4759 H   0  0  0  0  0  0  0  0  0  0  0  0
   -2.4277   14.2118   -6.1857 H   0  0  0  0  0  0  0  0  0  0  0  0
   -0.6637   10.5754   -7.6065 H   0  0  0  0  0  0  0  0  0  0  0  0
    1.4809   14.2752   -6.0543 H   0  0  0  0  0  0  0  0  0  0  0  0
    0.2393   15.4453   -6.6162 H   0  0  0  0  0  0  0  0  0  0  0  0
    0.1804   14.8105   -4.9369 H   0  0  0  0  0  0  0  0  0  0  0  0
   -5.1384   15.8875  -14.4370 H   0  0  0  0  0  0  0  0  0  0  0  0
   -3.3221   16.5493  -12.8978 H   0  0  0  0  0  0  0  0  0  0  0  0
   -5.0546   14.1072  -10.2933 H   0  0  0  0  0  0  0  0  0  0  0  0
   -3.8997   13.0003  -11.1106 H   0  0  0  0  0  0  0  0  0  0  0  0
   -2.6419   14.6376   -9.9343 H   0  0  0  0  0  0  0  0  0  0  0  0
  1  2  1  0  0  0  0
  1  4  2  0  0  0  0
  1 11  1  0  0  0  0
  2  6  1  0  0  0  0
  3  4  1  0  0  0  0
  3  5  2  0  0  0  0
  5  6  1  0  0  0  0
  5  9  1  0  0  0  0
  6  7  1  0  0  0  0
  7  8  1  0  0  0  0
  7 10  2  3  0  0  0
  8  9  2  0  0  0  0
 10 12  1  0  0  0  0
 11 24  2  0  0  0  0
 11 28  1  0  0  0  0
 12 13  2  0  0  0  0
 12 17  1  0  0  0  0
 13 14  1  0  0  0  0
 14 15  2  0  0  0  0
 15 16  1  0  0  0  0
 15 18  1  0  0  0  0
 16 17  2  0  0  0  0
 18 19  2  0  0  0  0
 18 22  1  0  0  0  0
 19 20  1  0  0  0  0
 20 21  1  0  0  0  0
 20 23  1  0  0  0  0
 21 22  2  0  0  0  0
 24 25  1  0  0  0  0
 25 26  2  0  0  0  0
 26 27  1  0  0  0  0
 27 28  1  0  0  0  0
 27 29  2  0  0  0  0
  2 30  1  0  0  0  0
  2 31  1  0  0  0  0
  3 32  1  0  0  0  0
  4 33  1  0  0  0  0
  6 34  1  0  0  0  0
 10 35  1  0  0  0  0
 13 36  1  0  0  0  0
 14 37  1  0  0  0  0
 16 38  1  0  0  0  0
 17 39  1  0  0  0  0
 19 40  1  0  0  0  0
 22 41  1  0  0  0  0
 23 42  1  0  0  0  0
 23 43  1  0  0  0  0
 23 44  1  0  0  0  0
 25 45  1  0  0  0  0
 26 46  1  0  0  0  0
 28 47  1  0  0  0  0
 28 48  1  0  0  0  0
 29 49  1  0  0  0  0
M  END
> <Name>
23

> <IC50[uM]>
0.27

$$$$
23
  -OEChem-05192314333D
 Structure written by MMmdl.
 49 53  0     0  0  0  0  0  0999 V2000
   -6.3775   12.3296  -12.0018 C   0  0  0  0  0  0  0  0  0  0  0  0
   -6.5098   11.7629  -10.7403 C   0  0  0  0  0  0  0  0  0  0  0  0
   -7.7247   10.5660  -13.0266 C   0  0  0  0  0  0  0  0  0  0  0  0
   -6.9942   11.7487  -13.1193 C   0  0  0  0  0  0  0  0  0  0  0  0
   -7.8312   10.0057  -11.7538 C   0  0  0  0  0  0  0  0  0  0  0  0
   -7.2443   10.6021  -10.6070 C   0  0  0  0  0  0  0  0  0  0  0  0
   -7.6167    9.7449   -9.5151 C   0  0  0  0  0  0  0  0  0  0  0  0
   -8.2961    8.7374   -9.9786 N   0  0  0  0  0  0  0  0  0  0  0  0
   -8.4404    8.8724  -11.2937 N   0  0  0  0  0  0  0  0  0  0  0  0
   -7.3318    9.8946   -8.0252 C   0  0  0  0  0  0  0  0  0  0  0  0
   -5.5478   13.5112  -12.1572 C   0  0  0  0  0  0  0  0  0  0  0  0
   -5.9707   10.4870   -7.7351 C   0  0  0  0  0  0  0  0  0  0  0  0
   -5.8642   11.7588   -7.1694 C   0  0  0  0  0  0  0  0  0  0  0  0
   -4.6019   12.3141   -6.9186 C   0  0  0  0  0  0  0  0  0  0  0  0
   -3.4503   11.5963   -7.2357 C   0  0  0  0  0  0  0  0  0  0  0  0
   -3.5604   10.3220   -7.8000 C   0  0  0  0  0  0  0  0  0  0  0  0
   -4.8213    9.7719   -8.0443 C   0  0  0  0  0  0  0  0  0  0  0  0
   -2.0996   12.1710   -6.9757 C   0  0  0  0  0  0  0  0  0  0  0  0
   -1.7487   13.4240   -6.4767 C   0  0  0  0  0  0  0  0  0  0  0  0
   -0.4123   13.4674   -6.4260 N   0  0  0  0  0  0  0  0  0  0  0  0
    0.1713   12.3664   -6.8217 N   0  0  0  0  0  0  0  0  0  0  0  0
   -0.8093   11.5624   -7.1930 C   0  0  0  0  0  0  0  0  0  0  0  0
    0.4224   14.5657   -5.9816 C   0  0  0  0  0  0  0  0  0  0  0  0
   -5.6966   14.2423  -13.2612 N   0  0  0  0  0  0  0  0  0  0  0  0
   -4.9506   15.3153  -13.5405 C   0  0  0  0  0  0  0  0  0  0  0  0
   -3.9383   15.6899  -12.6782 C   0  0  0  0  0  0  0  0  0  0  0  0
   -3.7261   14.9536  -11.5366 C   0  0  0  0  0  0  0  0  0  0  0  0
   -4.5508   13.8769  -11.2437 C   0  0  0  0  0  0  0  0  0  0  0  0
   -2.6976   15.2614  -10.7139 N   0  0  0  0  0  0  0  0  0  0  0  0
   -5.4950   11.5473  -10.3746 H   0  0  0  0  0  0  0  0  0  0  0  0
   -6.9796   12.5188  -10.0939 H   0  0  0  0  0  0  0  0  0  0  0  0
   -8.7428   10.7712  -13.3891 H   0  0  0  0  0  0  0  0  0  0  0  0
   -7.2451    9.8233  -13.6811 H   0  0  0  0  0  0  0  0  0  0  0  0
   -6.9001   12.2325  -14.0803 H   0  0  0  0  0  0  0  0  0  0  0  0
   -8.0313    9.6067   -7.2544 H   0  0  0  0  0  0  0  0  0  0  0  0
   -6.7563   12.3160   -6.9245 H   0  0  0  0  0  0  0  0  0  0  0  0
   -4.5218   13.2977   -6.4798 H   0  0  0  0  0  0  0  0  0  0  0  0
   -2.6703    9.7625   -8.0472 H   0  0  0  0  0  0  0  0  0  0  0  0
   -4.9024    8.7852   -8.4759 H   0  0  0  0  0  0  0  0  0  0  0  0
   -2.4277   14.2118   -6.1857 H   0  0  0  0  0  0  0  0  0  0  0  0
   -0.6637   10.5754   -7.6065 H   0  0  0  0  0  0  0  0  0  0  0  0
    1.4809   14.2752   -6.0543 H   0  0  0  0  0  0  0  0  0  0  0  0
    0.2393   15.4453   -6.6162 H   0  0  0  0  0  0  0  0  0  0  0  0
    0.1804   14.8105   -4.9369 H   0  0  0  0  0  0  0  0  0  0  0  0
   -5.1384   15.8875  -14.4370 H   0  0  0  0  0  0  0  0  0  0  0  0
   -3.3221   16.5493  -12.8978 H   0  0  0  0  0  0  0  0  0  0  0  0
   -5.0546   14.1072  -10.2933 H   0  0  0  0  0  0  0  0  0  0  0  0
   -3.8997   13.0003  -11.1106 H   0  0  0  0  0  0  0  0  0  0  0  0
   -2.6419   14.6376   -9.9343 H   0  0  0  0  0  0  0  0  0  0  0  0
  1  2  1  0  0  0  0
  1  4  2  0  0  0  0
  1 11  1  0  0  0  0
  2  6  1  0  0  0  0
  3  4  1  0  0  0  0
  3  5  1  0  0  0  0
  5  6  2  0  0  0  0
  5  9  1  0  0  0  0
  6  7  1  0  0  0  0
  7  8  1  0  0  0  0
  7 10  2  3  0  0  0
  8  9  2  0  0  0  0
 10 12  1  0  0  0  0
 11 24  2  0  0  0  0
 11 28  1  0  0  0  0
 12 13  2  0  0  0  0
 12 17  1  0  0  0  0
 13 14  1  0  0  0  0
 14 15  2  0  0  0  0
 15 16  1  0  0  0  0
 15 18  1  0  0  0  0
 16 17  2  0  0  0  0
 18 19  2  0  0  0  0
 18 22  1  0  0  0  0
 19 20  1  0  0  0  0
 20 21  1  0  0  0  0
 20 23  1  0  0  0  0
 21 22  2  0  0  0  0
 24 25  1  0  0  0  0
 25 26  2  0  0  0  0
 26 27  1  0  0  0  0
 27 28  1  0  0  0  0
 27 29  2  0  0  0  0
  2 30  1  0  0  0  0
  2 31  1  0  0  0  0
  3 32  1  0  0  0  0
  3 33  1  0  0  0  0
  4 34  1  0  0  0  0
 10 35  1  0  0  0  0
 13 36  1  0  0  0  0
 14 37  1  0  0  0  0
 16 38  1  0  0  0  0
 17 39  1  0  0  0  0
 19 40  1  0  0  0  0
 22 41  1  0  0  0  0
 23 42  1  0  0  0  0
 23 43  1  0  0  0  0
 23 44  1  0  0  0  0
 25 45  1  0  0  0  0
 26 46  1  0  0  0  0
 28 47  1  0  0  0  0
 28 48  1  0  0  0  0
 29 49  1  0  0  0  0
M  END
> <Name>
23

> <IC50[uM]>
0.27

$$$$
23
  -OEChem-05192314333D
 Structure written by MMmdl.
 49 53  0     0  0  0  0  0  0999 V2000
   -6.3775   12.3296  -12.0018 C   0  0  0  0  0  0  0  0  0  0  0  0
   -6.5098   11.7629  -10.7403 C   0  0  0  0  0  0  0  0  0  0  0  0
   -7.7247   10.5660  -13.0266 C   0  0  0  0  0  0  0  0  0  0  0  0
   -6.9942   11.7487  -13.1193 C   0  0  0  0  0  0  0  0  0  0  0  0
   -7.8312   10.0057  -11.7538 C   0  0  0  0  0  0  0  0  0  0  0  0
   -7.2443   10.6021  -10.6070 C   0  0  0  0  0  0  0  0  0  0  0  0
   -7.6167    9.7449   -9.5151 C   0  0  0  0  0  0  0  0  0  0  0  0
   -8.2961    8.7374   -9.9786 N   0  0  0  0  0  0  0  0  0  0  0  0
   -8.4404    8.8724  -11.2937 N   0  0  0  0  0  0  0  0  0  0  0  0
   -7.3318    9.8946   -8.0252 C   0  0  0  0  0  0  0  0  0  0  0  0
   -5.5478   13.5112  -12.1572 C   0  0  0  0  0  0  0  0  0  0  0  0
   -5.9707   10.4870   -7.7351 C   0  0  0  0  0  0  0  0  0  0  0  0
   -5.8642   11.7588   -7.1694 C   0  0  0  0  0  0  0  0  0  0  0  0
   -4.6019   12.3141   -6.9186 C   0  0  0  0  0  0  0  0  0  0  0  0
   -3.4503   11.5963   -7.2357 C   0  0  0  0  0  0  0  0  0  0  0  0
   -3.5604   10.3220   -7.8000 C   0  0  0  0  0  0  0  0  0  0  0  0
   -4.8213    9.7719   -8.0443 C   0  0  0  0  0  0  0  0  0  0  0  0
   -2.0996   12.1710   -6.9757 C   0  0  0  0  0  0  0  0  0  0  0  0
   -1.7487   13.4240   -6.4767 C   0  0  0  0  0  0  0  0  0  0  0  0
   -0.4123   13.4674   -6.4260 N   0  0  0  0  0  0  0  0  0  0  0  0
    0.1713   12.3664   -6.8217 N   0  0  0  0  0  0  0  0  0  0  0  0
   -0.8093   11.5624   -7.1930 C   0  0  0  0  0  0  0  0  0  0  0  0
    0.4224   14.5657   -5.9816 C   0  0  0  0  0  0  0  0  0  0  0  0
   -5.6966   14.2423  -13.2612 N   0  0  0  0  0  0  0  0  0  0  0  0
   -4.9506   15.3153  -13.5405 C   0  0  0  0  0  0  0  0  0  0  0  0
   -3.9383   15.6899  -12.6782 C   0  0  0  0  0  0  0  0  0  0  0  0
   -3.7261   14.9536  -11.5366 C   0  0  0  0  0  0  0  0  0  0  0  0
   -4.5508   13.8769  -11.2437 C   0  0  0  0  0  0  0  0  0  0  0  0
   -2.6976   15.2614  -10.7139 N   0  0  0  0  0  0  0  0  0  0  0  0
   -5.4950   11.5473  -10.3746 H   0  0  0  0  0  0  0  0  0  0  0  0
   -6.9796   12.5188  -10.0939 H   0  0  0  0  0  0  0  0  0  0  0  0
   -8.1826   10.1089  -13.8914 H   0  0  0  0  0  0  0  0  0  0  0  0
   -6.9001   12.2325  -14.0803 H   0  0  0  0  0  0  0  0  0  0  0  0
   -8.0313    9.6067   -7.2544 H   0  0  0  0  0  0  0  0  0  0  0  0
   -6.7563   12.3160   -6.9245 H   0  0  0  0  0  0  0  0  0  0  0  0
   -4.5218   13.2977   -6.4798 H   0  0  0  0  0  0  0  0  0  0  0  0
   -2.6703    9.7625   -8.0472 H   0  0  0  0  0  0  0  0  0  0  0  0
   -4.9024    8.7852   -8.4759 H   0  0  0  0  0  0  0  0  0  0  0  0
   -2.4277   14.2118   -6.1857 H   0  0  0  0  0  0  0  0  0  0  0  0
   -0.6637   10.5754   -7.6065 H   0  0  0  0  0  0  0  0  0  0  0  0
    1.4809   14.2752   -6.0543 H   0  0  0  0  0  0  0  0  0  0  0  0
    0.2393   15.4453   -6.6162 H   0  0  0  0  0  0  0  0  0  0  0  0
    0.1804   14.8105   -4.9369 H   0  0  0  0  0  0  0  0  0  0  0  0
   -5.1384   15.8875  -14.4370 H   0  0  0  0  0  0  0  0  0  0  0  0
   -3.0010   15.6690  -13.2536 H   0  0  0  0  0  0  0  0  0  0  0  0
   -4.1509   16.7215  -12.3610 H   0  0  0  0  0  0  0  0  0  0  0  0
   -5.0546   14.1072  -10.2933 H   0  0  0  0  0  0  0  0  0  0  0  0
   -3.8997   13.0003  -11.1106 H   0  0  0  0  0  0  0  0  0  0  0  0
   -2.6419   14.6376   -9.9343 H   0  0  0  0  0  0  0  0  0  0  0  0
  1  2  1  0  0  0  0
  1  4  1  0  0  0  0
  1 11  2  0  0  0  0
  2  6  1  0  0  0  0
  3  4  2  0  0  0  0
  3  5  1  0  0  0  0
  5  6  2  0  0  0  0
  5  9  1  0  0  0  0
  6  7  1  0  0  0  0
  7  8  1  0  0  0  0
  7 10  2  3  0  0  0
  8  9  2  0  0  0  0
 10 12  1  0  0  0  0
 11 24  1  0  0  0  0
 11 28  1  0  0  0  0
 12 13  2  0  0  0  0
 12 17  1  0  0  0  0
 13 14  1  0  0  0  0
 14 15  2  0  0  0  0
 15 16  1  0  0  0  0
 15 18  1  0  0  0  0
 16 17  2  0  0  0  0
 18 19  2  0  0  0  0
 18 22  1  0  0  0  0
 19 20  1  0  0  0  0
 20 21  1  0  0  0  0
 20 23  1  0  0  0  0
 21 22  2  0  0  0  0
 24 25  2  0  0  0  0
 25 26  1  0  0  0  0
 26 27  1  0  0  0  0
 27 28  1  0  0  0  0
 27 29  2  0  0  0  0
  2 30  1  0  0  0  0
  2 31  1  0  0  0  0
  3 32  1  0  0  0  0
  4 33  1  0  0  0  0
 10 34  1  0  0  0  0
 13 35  1  0  0  0  0
 14 36  1  0  0  0  0
 16 37  1  0  0  0  0
 17 38  1  0  0  0  0
 19 39  1  0  0  0  0
 22 40  1  0  0  0  0
 23 41  1  0  0  0  0
 23 42  1  0  0  0  0
 23 43  1  0  0  0  0
 25 44  1  0  0  0  0
 26 45  1  0  0  0  0
 26 46  1  0  0  0  0
 28 47  1  0  0  0  0
 28 48  1  0  0  0  0
 29 49  1  0  0  0  0
M  END
> <Name>
23

> <IC50[uM]>
0.27

$$$$
23
  -OEChem-05192314333D
 Structure written by MMmdl.
 49 53  0     1  0  0  0  0  0999 V2000
   -6.3775   12.3296  -12.0018 C   0  0  0  0  0  0  0  0  0  0  0  0
   -6.5098   11.7629  -10.7403 C   0  0  0  0  0  0  0  0  0  0  0  0
   -7.7247   10.5660  -13.0266 C   0  0  0  0  0  0  0  0  0  0  0  0
   -6.9942   11.7487  -13.1193 C   0  0  0  0  0  0  0  0  0  0  0  0
   -7.8312   10.0057  -11.7538 C   0  0  3  0  0  0  0  0  0  0  0  0
   -7.2443   10.6021  -10.6070 C   0  0  0  0  0  0  0  0  0  0  0  0
   -7.6167    9.7449   -9.5151 C   0  0  0  0  0  0  0  0  0  0  0  0
   -8.2961    8.7374   -9.9786 N   0  0  0  0  0  0  0  0  0  0  0  0
   -8.4404    8.8724  -11.2937 N   0  0  0  0  0  0  0  0  0  0  0  0
   -7.3318    9.8946   -8.0252 C   0  0  0  0  0  0  0  0  0  0  0  0
   -5.5478   13.5112  -12.1572 C   0  0  0  0  0  0  0  0  0  0  0  0
   -5.9707   10.4870   -7.7351 C   0  0  0  0  0  0  0  0  0  0  0  0
   -5.8642   11.7588   -7.1694 C   0  0  0  0  0  0  0  0  0  0  0  0
   -4.6019   12.3141   -6.9186 C   0  0  0  0  0  0  0  0  0  0  0  0
   -3.4503   11.5963   -7.2357 C   0  0  0  0  0  0  0  0  0  0  0  0
   -3.5604   10.3220   -7.8000 C   0  0  0  0  0  0  0  0  0  0  0  0
   -4.8213    9.7719   -8.0443 C   0  0  0  0  0  0  0  0  0  0  0  0
   -2.0996   12.1710   -6.9757 C   0  0  0  0  0  0  0  0  0  0  0  0
   -1.7487   13.4240   -6.4767 C   0  0  0  0  0  0  0  0  0  0  0  0
   -0.4123   13.4674   -6.4260 N   0  0  0  0  0  0  0  0  0  0  0  0
    0.1713   12.3664   -6.8217 N   0  0  0  0  0  0  0  0  0  0  0  0
   -0.8093   11.5624   -7.1930 C   0  0  0  0  0  0  0  0  0  0  0  0
    0.4224   14.5657   -5.9816 C   0  0  0  0  0  0  0  0  0  0  0  0
   -5.6966   14.2423  -13.2612 N   0  0  0  0  0  0  0  0  0  0  0  0
   -4.9506   15.3153  -13.5405 C   0  0  0  0  0  0  0  0  0  0  0  0
   -3.9383   15.6899  -12.6782 C   0  0  0  0  0  0  0  0  0  0  0  0
   -3.7261   14.9536  -11.5366 C   0  0  0  0  0  0  0  0  0  0  0  0
   -4.5508   13.8769  -11.2437 C   0  0  0  0  0  0  0  0  0  0  0  0
   -2.6976   15.2614  -10.7139 N   0  0  0  0  0  0  0  0  0  0  0  0
   -6.0464   12.2223   -9.8797 H   0  0  0  0  0  0  0  0  0  0  0  0
   -8.1826   10.1089  -13.8914 H   0  0  0  0  0  0  0  0  0  0  0  0
   -6.9001   12.2325  -14.0803 H   0  0  0  0  0  0  0  0  0  0  0  0
   -8.7557   10.5755  -11.5787 H   0  0  0  0  0  0  0  0  0  0  0  0
   -8.0989   10.5499   -7.5868 H   0  0  0  0  0  0  0  0  0  0  0  0
   -7.3874    8.9007   -7.5571 H   0  0  0  0  0  0  0  0  0  0  0  0
   -6.7563   12.3160   -6.9245 H   0  0  0  0  0  0  0  0  0  0  0  0
   -4.5218   13.2977   -6.4798 H   0  0  0  0  0  0  0  0  0  0  0  0
   -2.6703    9.7625   -8.0472 H   0  0  0  0  0  0  0  0  0  0  0  0
   -4.9024    8.7852   -8.4759 H   0  0  0  0  0  0  0  0  0  0  0  0
   -2.4277   14.2118   -6.1857 H   0  0  0  0  0  0  0  0  0  0  0  0
   -0.6637   10.5754   -7.6065 H   0  0  0  0  0  0  0  0  0  0  0  0
    1.4809   14.2752   -6.0543 H   0  0  0  0  0  0  0  0  0  0  0  0
    0.2393   15.4453   -6.6162 H   0  0  0  0  0  0  0  0  0  0  0  0
    0.1804   14.8105   -4.9369 H   0  0  0  0  0  0  0  0  0  0  0  0
   -5.1384   15.8875  -14.4370 H   0  0  0  0  0  0  0  0  0  0  0  0
   -3.0010   15.6690  -13.2536 H   0  0  0  0  0  0  0  0  0  0  0  0
   -4.1509   16.7215  -12.3610 H   0  0  0  0  0  0  0  0  0  0  0  0
   -4.4255   13.3274  -10.3224 H   0  0  0  0  0  0  0  0  0  0  0  0
   -2.6419   14.6376   -9.9343 H   0  0  0  0  0  0  0  0  0  0  0  0
  1  2  2  0  0  0  0
  1  4  1  0  0  0  0
  1 11  1  0  0  0  0
  2  6  1  0  0  0  0
  3  4  2  0  0  0  0
  3  5  1  0  0  0  0
  5  6  1  0  0  0  0
  5  9  1  0  0  0  0
  6  7  2  0  0  0  0
  7  8  1  0  0  0  0
  7 10  1  0  0  0  0
  8  9  2  0  0  0  0
 10 12  1  0  0  0  0
 11 24  1  0  0  0  0
 11 28  2  0  0  0  0
 12 13  2  0  0  0  0
 12 17  1  0  0  0  0
 13 14  1  0  0  0  0
 14 15  2  0  0  0  0
 15 16  1  0  0  0  0
 15 18  1  0  0  0  0
 16 17  2  0  0  0  0
 18 19  2  0  0  0  0
 18 22  1  0  0  0  0
 19 20  1  0  0  0  0
 20 21  1  0  0  0  0
 20 23  1  0  0  0  0
 21 22  2  0  0  0  0
 24 25  2  0  0  0  0
 25 26  1  0  0  0  0
 26 27  1  0  0  0  0
 27 28  1  0  0  0  0
 27 29  2  0  0  0  0
  2 30  1  0  0  0  0
  3 31  1  0  0  0  0
  4 32  1  0  0  0  0
  5 33  1  0  0  0  0
 10 34  1  0  0  0  0
 10 35  1  0  0  0  0
 13 36  1  0  0  0  0
 14 37  1  0  0  0  0
 16 38  1  0  0  0  0
 17 39  1  0  0  0  0
 19 40  1  0  0  0  0
 22 41  1  0  0  0  0
 23 42  1  0  0  0  0
 23 43  1  0  0  0  0
 23 44  1  0  0  0  0
 25 45  1  0  0  0  0
 26 46  1  0  0  0  0
 26 47  1  0  0  0  0
 28 48  1  0  0  0  0
 29 49  1  0  0  0  0
M  END
> <Name>
23

> <IC50[uM]>
0.27

$$$$
23
  -OEChem-05192314333D
 Structure written by MMmdl.
 49 53  0     0  0  0  0  0  0999 V2000
   -6.3775   12.3296  -12.0018 C   0  0  0  0  0  0  0  0  0  0  0  0
   -6.5098   11.7629  -10.7403 C   0  0  0  0  0  0  0  0  0  0  0  0
   -7.7247   10.5660  -13.0266 C   0  0  0  0  0  0  0  0  0  0  0  0
   -6.9942   11.7487  -13.1193 C   0  0  0  0  0  0  0  0  0  0  0  0
   -7.8312   10.0057  -11.7538 C   0  0  0  0  0  0  0  0  0  0  0  0
   -7.2443   10.6021  -10.6070 C   0  0  0  0  0  0  0  0  0  0  0  0
   -7.6167    9.7449   -9.5151 C   0  0  0  0  0  0  0  0  0  0  0  0
   -8.2961    8.7374   -9.9786 N   0  0  0  0  0  0  0  0  0  0  0  0
   -8.4404    8.8724  -11.2937 N   0  0  0  0  0  0  0  0  0  0  0  0
   -7.3318    9.8946   -8.0252 C   0  0  0  0  0  0  0  0  0  0  0  0
   -5.5478   13.5112  -12.1572 C   0  0  0  0  0  0  0  0  0  0  0  0
   -5.9707   10.4870   -7.7351 C   0  0  0  0  0  0  0  0  0  0  0  0
   -5.8642   11.7588   -7.1694 C   0  0  0  0  0  0  0  0  0  0  0  0
   -4.6019   12.3141   -6.9186 C   0  0  0  0  0  0  0  0  0  0  0  0
   -3.4503   11.5963   -7.2357 C   0  0  0  0  0  0  0  0  0  0  0  0
   -3.5604   10.3220   -7.8000 C   0  0  0  0  0  0  0  0  0  0  0  0
   -4.8213    9.7719   -8.0443 C   0  0  0  0  0  0  0  0  0  0  0  0
   -2.0996   12.1710   -6.9757 C   0  0  0  0  0  0  0  0  0  0  0  0
   -1.7487   13.4240   -6.4767 C   0  0  0  0  0  0  0  0  0  0  0  0
   -0.4123   13.4674   -6.4260 N   0  0  0  0  0  0  0  0  0  0  0  0
    0.1713   12.3664   -6.8217 N   0  0  0  0  0  0  0  0  0  0  0  0
   -0.8093   11.5624   -7.1930 C   0  0  0  0  0  0  0  0  0  0  0  0
    0.4224   14.5657   -5.9816 C   0  0  0  0  0  0  0  0  0  0  0  0
   -5.6966   14.2423  -13.2612 N   0  0  0  0  0  0  0  0  0  0  0  0
   -4.9506   15.3153  -13.5405 C   0  0  0  0  0  0  0  0  0  0  0  0
   -3.9383   15.6899  -12.6782 C   0  0  0  0  0  0  0  0  0  0  0  0
   -3.7261   14.9536  -11.5366 C   0  0  0  0  0  0  0  0  0  0  0  0
   -4.5508   13.8769  -11.2437 C   0  0  0  0  0  0  0  0  0  0  0  0
   -2.6976   15.2614  -10.7139 N   0  0  0  0  0  0  0  0  0  0  0  0
   -6.0464   12.2223   -9.8797 H   0  0  0  0  0  0  0  0  0  0  0  0
   -8.1826   10.1089  -13.8914 H   0  0  0  0  0  0  0  0  0  0  0  0
   -7.6841   12.5064  -13.5191 H   0  0  0  0  0  0  0  0  0  0  0  0
   -6.1936   11.5599  -13.8497 H   0  0  0  0  0  0  0  0  0  0  0  0
   -8.0989   10.5499   -7.5868 H   0  0  0  0  0  0  0  0  0  0  0  0
   -7.3874    8.9007   -7.5571 H   0  0  0  0  0  0  0  0  0  0  0  0
   -6.7563   12.3160   -6.9245 H   0  0  0  0  0  0  0  0  0  0  0  0
   -4.5218   13.2977   -6.4798 H   0  0  0  0  0  0  0  0  0  0  0  0
   -2.6703    9.7625   -8.0472 H   0  0  0  0  0  0  0  0  0  0  0  0
   -4.9024    8.7852   -8.4759 H   0  0  0  0  0  0  0  0  0  0  0  0
   -2.4277   14.2118   -6.1857 H   0  0  0  0  0  0  0  0  0  0  0  0
   -0.6637   10.5754   -7.6065 H   0  0  0  0  0  0  0  0  0  0  0  0
    1.4809   14.2752   -6.0543 H   0  0  0  0  0  0  0  0  0  0  0  0
    0.2393   15.4453   -6.6162 H   0  0  0  0  0  0  0  0  0  0  0  0
    0.1804   14.8105   -4.9369 H   0  0  0  0  0  0  0  0  0  0  0  0
   -5.1384   15.8875  -14.4370 H   0  0  0  0  0  0  0  0  0  0  0  0
   -3.0010   15.6690  -13.2536 H   0  0  0  0  0  0  0  0  0  0  0  0
   -4.1509   16.7215  -12.3610 H   0  0  0  0  0  0  0  0  0  0  0  0
   -4.4255   13.3274  -10.3224 H   0  0  0  0  0  0  0  0  0  0  0  0
   -2.6419   14.6376   -9.9343 H   0  0  0  0  0  0  0  0  0  0  0  0
  1  2  2  0  0  0  0
  1  4  1  0  0  0  0
  1 11  1  0  0  0  0
  2  6  1  0  0  0  0
  3  4  1  0  0  0  0
  3  5  2  0  0  0  0
  5  6  1  0  0  0  0
  5  9  1  0  0  0  0
  6  7  2  0  0  0  0
  7  8  1  0  0  0  0
  7 10  1  0  0  0  0
  8  9  2  0  0  0  0
 10 12  1  0  0  0  0
 11 24  1  0  0  0  0
 11 28  2  0  0  0  0
 12 13  2  0  0  0  0
 12 17  1  0  0  0  0
 13 14  1  0  0  0  0
 14 15  2  0  0  0  0
 15 16  1  0  0  0  0
 15 18  1  0  0  0  0
 16 17  2  0  0  0  0
 18 19  2  0  0  0  0
 18 22  1  0  0  0  0
 19 20  1  0  0  0  0
 20 21  1  0  0  0  0
 20 23  1  0  0  0  0
 21 22  2  0  0  0  0
 24 25  2  0  0  0  0
 25 26  1  0  0  0  0
 26 27  1  0  0  0  0
 27 28  1  0  0  0  0
 27 29  2  0  0  0  0
  2 30  1  0  0  0  0
  3 31  1  0  0  0  0
  4 32  1  0  0  0  0
  4 33  1  0  0  0  0
 10 34  1  0  0  0  0
 10 35  1  0  0  0  0
 13 36  1  0  0  0  0
 14 37  1  0  0  0  0
 16 38  1  0  0  0  0
 17 39  1  0  0  0  0
 19 40  1  0  0  0  0
 22 41  1  0  0  0  0
 23 42  1  0  0  0  0
 23 43  1  0  0  0  0
 23 44  1  0  0  0  0
 25 45  1  0  0  0  0
 26 46  1  0  0  0  0
 26 47  1  0  0  0  0
 28 48  1  0  0  0  0
 29 49  1  0  0  0  0
M  END
> <Name>
23

> <IC50[uM]>
0.27

$$$$
23
  -OEChem-05192314333D
 Structure written by MMmdl.
 49 53  0     1  0  0  0  0  0999 V2000
   -6.3775   12.3296  -12.0018 C   0  0  0  0  0  0  0  0  0  0  0  0
   -6.5098   11.7629  -10.7403 C   0  0  0  0  0  0  0  0  0  0  0  0
   -7.7247   10.5660  -13.0266 C   0  0  0  0  0  0  0  0  0  0  0  0
   -6.9942   11.7487  -13.1193 C   0  0  0  0  0  0  0  0  0  0  0  0
   -7.8312   10.0057  -11.7538 C   0  0  3  0  0  0  0  0  0  0  0  0
   -7.2443   10.6021  -10.6070 C   0  0  0  0  0  0  0  0  0  0  0  0
   -7.6167    9.7449   -9.5151 C   0  0  0  0  0  0  0  0  0  0  0  0
   -8.2961    8.7374   -9.9786 N   0  0  0  0  0  0  0  0  0  0  0  0
   -8.4404    8.8724  -11.2937 N   0  0  0  0  0  0  0  0  0  0  0  0
   -7.3318    9.8946   -8.0252 C   0  0  0  0  0  0  0  0  0  0  0  0
   -5.5478   13.5112  -12.1572 C   0  0  0  0  0  0  0  0  0  0  0  0
   -5.9707   10.4870   -7.7351 C   0  0  0  0  0  0  0  0  0  0  0  0
   -5.8642   11.7588   -7.1694 C   0  0  0  0  0  0  0  0  0  0  0  0
   -4.6019   12.3141   -6.9186 C   0  0  0  0  0  0  0  0  0  0  0  0
   -3.4503   11.5963   -7.2357 C   0  0  0  0  0  0  0  0  0  0  0  0
   -3.5604   10.3220   -7.8000 C   0  0  0  0  0  0  0  0  0  0  0  0
   -4.8213    9.7719   -8.0443 C   0  0  0  0  0  0  0  0  0  0  0  0
   -2.0996   12.1710   -6.9757 C   0  0  0  0  0  0  0  0  0  0  0  0
   -1.7487   13.4240   -6.4767 C   0  0  0  0  0  0  0  0  0  0  0  0
   -0.4123   13.4674   -6.4260 N   0  0  0  0  0  0  0  0  0  0  0  0
    0.1713   12.3664   -6.8217 N   0  0  0  0  0  0  0  0  0  0  0  0
   -0.8093   11.5624   -7.1930 C   0  0  0  0  0  0  0  0  0  0  0  0
    0.4224   14.5657   -5.9816 C   0  0  0  0  0  0  0  0  0  0  0  0
   -5.6966   14.2423  -13.2612 N   0  0  0  0  0  0  0  0  0  0  0  0
   -4.9506   15.3153  -13.5405 C   0  0  0  0  0  0  0  0  0  0  0  0
   -3.9383   15.6899  -12.6782 C   0  0  0  0  0  0  0  0  0  0  0  0
   -3.7261   14.9536  -11.5366 C   0  0  0  0  0  0  0  0  0  0  0  0
   -4.5508   13.8769  -11.2437 C   0  0  0  0  0  0  0  0  0  0  0  0
   -2.6976   15.2614  -10.7139 N   0  0  0  0  0  0  0  0  0  0  0  0
   -6.0464   12.2223   -9.8797 H   0  0  0  0  0  0  0  0  0  0  0  0
   -8.1826   10.1089  -13.8914 H   0  0  0  0  0  0  0  0  0  0  0  0
   -6.9001   12.2325  -14.0803 H   0  0  0  0  0  0  0  0  0  0  0  0
   -8.7557   10.5755  -11.5787 H   0  0  0  0  0  0  0  0  0  0  0  0
   -8.0989   10.5499   -7.5868 H   0  0  0  0  0  0  0  0  0  0  0  0
   -7.3874    8.9007   -7.5571 H   0  0  0  0  0  0  0  0  0  0  0  0
   -6.7563   12.3160   -6.9245 H   0  0  0  0  0  0  0  0  0  0  0  0
   -4.5218   13.2977   -6.4798 H   0  0  0  0  0  0  0  0  0  0  0  0
   -2.6703    9.7625   -8.0472 H   0  0  0  0  0  0  0  0  0  0  0  0
   -4.9024    8.7852   -8.4759 H   0  0  0  0  0  0  0  0  0  0  0  0
   -2.4277   14.2118   -6.1857 H   0  0  0  0  0  0  0  0  0  0  0  0
   -0.6637   10.5754   -7.6065 H   0  0  0  0  0  0  0  0  0  0  0  0
    1.4809   14.2752   -6.0543 H   0  0  0  0  0  0  0  0  0  0  0  0
    0.2393   15.4453   -6.6162 H   0  0  0  0  0  0  0  0  0  0  0  0
    0.1804   14.8105   -4.9369 H   0  0  0  0  0  0  0  0  0  0  0  0
   -5.1384   15.8875  -14.4370 H   0  0  0  0  0  0  0  0  0  0  0  0
   -3.3221   16.5493  -12.8978 H   0  0  0  0  0  0  0  0  0  0  0  0
   -5.0546   14.1072  -10.2933 H   0  0  0  0  0  0  0  0  0  0  0  0
   -3.8997   13.0003  -11.1106 H   0  0  0  0  0  0  0  0  0  0  0  0
   -2.6419   14.6376   -9.9343 H   0  0  0  0  0  0  0  0  0  0  0  0
  1  2  2  0  0  0  0
  1  4  1  0  0  0  0
  1 11  1  0  0  0  0
  2  6  1  0  0  0  0
  3  4  2  0  0  0  0
  3  5  1  0  0  0  0
  5  6  1  0  0  0  0
  5  9  1  0  0  0  0
  6  7  2  0  0  0  0
  7  8  1  0  0  0  0
  7 10  1  0  0  0  0
  8  9  2  0  0  0  0
 10 12  1  0  0  0  0
 11 24  2  0  0  0  0
 11 28  1  0  0  0  0
 12 13  2  0  0  0  0
 12 17  1  0  0  0  0
 13 14  1  0  0  0  0
 14 15  2  0  0  0  0
 15 16  1  0  0  0  0
 15 18  1  0  0  0  0
 16 17  2  0  0  0  0
 18 19  2  0  0  0  0
 18 22  1  0  0  0  0
 19 20  1  0  0  0  0
 20 21  1  0  0  0  0
 20 23  1  0  0  0  0
 21 22  2  0  0  0  0
 24 25  1  0  0  0  0
 25 26  2  0  0  0  0
 26 27  1  0  0  0  0
 27 28  1  0  0  0  0
 27 29  2  0  0  0  0
  2 30  1  0  0  0  0
  3 31  1  0  0  0  0
  4 32  1  0  0  0  0
  5 33  1  0  0  0  0
 10 34  1  0  0  0  0
 10 35  1  0  0  0  0
 13 36  1  0  0  0  0
 14 37  1  0  0  0  0
 16 38  1  0  0  0  0
 17 39  1  0  0  0  0
 19 40  1  0  0  0  0
 22 41  1  0  0  0  0
 23 42  1  0  0  0  0
 23 43  1  0  0  0  0
 23 44  1  0  0  0  0
 25 45  1  0  0  0  0
 26 46  1  0  0  0  0
 28 47  1  0  0  0  0
 28 48  1  0  0  0  0
 29 49  1  0  0  0  0
M  END
> <Name>
23

> <IC50[uM]>
0.27

$$$$
23
  -OEChem-05192314333D
 Structure written by MMmdl.
 49 53  0     0  0  0  0  0  0999 V2000
   -6.3775   12.3296  -12.0018 C   0  0  0  0  0  0  0  0  0  0  0  0
   -6.5098   11.7629  -10.7403 C   0  0  0  0  0  0  0  0  0  0  0  0
   -7.7247   10.5660  -13.0266 C   0  0  0  0  0  0  0  0  0  0  0  0
   -6.9942   11.7487  -13.1193 C   0  0  0  0  0  0  0  0  0  0  0  0
   -7.8312   10.0057  -11.7538 C   0  0  0  0  0  0  0  0  0  0  0  0
   -7.2443   10.6021  -10.6070 C   0  0  0  0  0  0  0  0  0  0  0  0
   -7.6167    9.7449   -9.5151 C   0  0  0  0  0  0  0  0  0  0  0  0
   -8.2961    8.7374   -9.9786 N   0  0  0  0  0  0  0  0  0  0  0  0
   -8.4404    8.8724  -11.2937 N   0  0  0  0  0  0  0  0  0  0  0  0
   -7.3318    9.8946   -8.0252 C   0  0  0  0  0  0  0  0  0  0  0  0
   -5.5478   13.5112  -12.1572 C   0  0  0  0  0  0  0  0  0  0  0  0
   -5.9707   10.4870   -7.7351 C   0  0  0  0  0  0  0  0  0  0  0  0
   -5.8642   11.7588   -7.1694 C   0  0  0  0  0  0  0  0  0  0  0  0
   -4.6019   12.3141   -6.9186 C   0  0  0  0  0  0  0  0  0  0  0  0
   -3.4503   11.5963   -7.2357 C   0  0  0  0  0  0  0  0  0  0  0  0
   -3.5604   10.3220   -7.8000 C   0  0  0  0  0  0  0  0  0  0  0  0
   -4.8213    9.7719   -8.0443 C   0  0  0  0  0  0  0  0  0  0  0  0
   -2.0996   12.1710   -6.9757 C   0  0  0  0  0  0  0  0  0  0  0  0
   -1.7487   13.4240   -6.4767 C   0  0  0  0  0  0  0  0  0  0  0  0
   -0.4123   13.4674   -6.4260 N   0  0  0  0  0  0  0  0  0  0  0  0
    0.1713   12.3664   -6.8217 N   0  0  0  0  0  0  0  0  0  0  0  0
   -0.8093   11.5624   -7.1930 C   0  0  0  0  0  0  0  0  0  0  0  0
    0.4224   14.5657   -5.9816 C   0  0  0  0  0  0  0  0  0  0  0  0
   -5.6966   14.2423  -13.2612 N   0  0  0  0  0  0  0  0  0  0  0  0
   -4.9506   15.3153  -13.5405 C   0  0  0  0  0  0  0  0  0  0  0  0
   -3.9383   15.6899  -12.6782 C   0  0  0  0  0  0  0  0  0  0  0  0
   -3.7261   14.9536  -11.5366 C   0  0  0  0  0  0  0  0  0  0  0  0
   -4.5508   13.8769  -11.2437 C   0  0  0  0  0  0  0  0  0  0  0  0
   -2.6976   15.2614  -10.7139 N   0  0  0  0  0  0  0  0  0  0  0  0
   -6.0464   12.2223   -9.8797 H   0  0  0  0  0  0  0  0  0  0  0  0
   -8.1826   10.1089  -13.8914 H   0  0  0  0  0  0  0  0  0  0  0  0
   -7.6841   12.5064  -13.5191 H   0  0  0  0  0  0  0  0  0  0  0  0
   -6.1936   11.5599  -13.8497 H   0  0  0  0  0  0  0  0  0  0  0  0
   -8.0989   10.5499   -7.5868 H   0  0  0  0  0  0  0  0  0  0  0  0
   -7.3874    8.9007   -7.5571 H   0  0  0  0  0  0  0  0  0  0  0  0
   -6.7563   12.3160   -6.9245 H   0  0  0  0  0  0  0  0  0  0  0  0
   -4.5218   13.2977   -6.4798 H   0  0  0  0  0  0  0  0  0  0  0  0
   -2.6703    9.7625   -8.0472 H   0  0  0  0  0  0  0  0  0  0  0  0
   -4.9024    8.7852   -8.4759 H   0  0  0  0  0  0  0  0  0  0  0  0
   -2.4277   14.2118   -6.1857 H   0  0  0  0  0  0  0  0  0  0  0  0
   -0.6637   10.5754   -7.6065 H   0  0  0  0  0  0  0  0  0  0  0  0
    1.4809   14.2752   -6.0543 H   0  0  0  0  0  0  0  0  0  0  0  0
    0.2393   15.4453   -6.6162 H   0  0  0  0  0  0  0  0  0  0  0  0
    0.1804   14.8105   -4.9369 H   0  0  0  0  0  0  0  0  0  0  0  0
   -5.1384   15.8875  -14.4370 H   0  0  0  0  0  0  0  0  0  0  0  0
   -3.3221   16.5493  -12.8978 H   0  0  0  0  0  0  0  0  0  0  0  0
   -5.0546   14.1072  -10.2933 H   0  0  0  0  0  0  0  0  0  0  0  0
   -3.8997   13.0003  -11.1106 H   0  0  0  0  0  0  0  0  0  0  0  0
   -2.6419   14.6376   -9.9343 H   0  0  0  0  0  0  0  0  0  0  0  0
  1  2  2  0  0  0  0
  1  4  1  0  0  0  0
  1 11  1  0  0  0  0
  2  6  1  0  0  0  0
  3  4  1  0  0  0  0
  3  5  2  0  0  0  0
  5  6  1  0  0  0  0
  5  9  1  0  0  0  0
  6  7  2  0  0  0  0
  7  8  1  0  0  0  0
  7 10  1  0  0  0  0
  8  9  2  0  0  0  0
 10 12  1  0  0  0  0
 11 24  2  0  0  0  0
 11 28  1  0  0  0  0
 12 13  2  0  0  0  0
 12 17  1  0  0  0  0
 13 14  1  0  0  0  0
 14 15  2  0  0  0  0
 15 16  1  0  0  0  0
 15 18  1  0  0  0  0
 16 17  2  0  0  0  0
 18 19  2  0  0  0  0
 18 22  1  0  0  0  0
 19 20  1  0  0  0  0
 20 21  1  0  0  0  0
 20 23  1  0  0  0  0
 21 22  2  0  0  0  0
 24 25  1  0  0  0  0
 25 26  2  0  0  0  0
 26 27  1  0  0  0  0
 27 28  1  0  0  0  0
 27 29  2  0  0  0  0
  2 30  1  0  0  0  0
  3 31  1  0  0  0  0
  4 32  1  0  0  0  0
  4 33  1  0  0  0  0
 10 34  1  0  0  0  0
 10 35  1  0  0  0  0
 13 36  1  0  0  0  0
 14 37  1  0  0  0  0
 16 38  1  0  0  0  0
 17 39  1  0  0  0  0
 19 40  1  0  0  0  0
 22 41  1  0  0  0  0
 23 42  1  0  0  0  0
 23 43  1  0  0  0  0
 23 44  1  0  0  0  0
 25 45  1  0  0  0  0
 26 46  1  0  0  0  0
 28 47  1  0  0  0  0
 28 48  1  0  0  0  0
 29 49  1  0  0  0  0
M  END
> <Name>
23

> <IC50[uM]>
0.27

$$$$
23
  -OEChem-05192314333D
 Structure written by MMmdl.
 49 53  0     0  0  0  0  0  0999 V2000
   -6.3775   12.3296  -12.0018 C   0  0  0  0  0  0  0  0  0  0  0  0
   -6.5098   11.7629  -10.7403 C   0  0  0  0  0  0  0  0  0  0  0  0
   -7.7247   10.5660  -13.0266 C   0  0  0  0  0  0  0  0  0  0  0  0
   -6.9942   11.7487  -13.1193 C   0  0  0  0  0  0  0  0  0  0  0  0
   -7.8312   10.0057  -11.7538 C   0  0  0  0  0  0  0  0  0  0  0  0
   -7.2443   10.6021  -10.6070 C   0  0  0  0  0  0  0  0  0  0  0  0
   -7.6167    9.7449   -9.5151 C   0  0  0  0  0  0  0  0  0  0  0  0
   -8.2961    8.7374   -9.9786 N   0  0  0  0  0  0  0  0  0  0  0  0
   -8.4404    8.8724  -11.2937 N   0  0  0  0  0  0  0  0  0  0  0  0
   -7.3318    9.8946   -8.0252 C   0  0  0  0  0  0  0  0  0  0  0  0
   -5.5478   13.5112  -12.1572 C   0  0  0  0  0  0  0  0  0  0  0  0
   -5.9707   10.4870   -7.7351 C   0  0  0  0  0  0  0  0  0  0  0  0
   -5.8642   11.7588   -7.1694 C   0  0  0  0  0  0  0  0  0  0  0  0
   -4.6019   12.3141   -6.9186 C   0  0  0  0  0  0  0  0  0  0  0  0
   -3.4503   11.5963   -7.2357 C   0  0  0  0  0  0  0  0  0  0  0  0
   -3.5604   10.3220   -7.8000 C   0  0  0  0  0  0  0  0  0  0  0  0
   -4.8213    9.7719   -8.0443 C   0  0  0  0  0  0  0  0  0  0  0  0
   -2.0996   12.1710   -6.9757 C   0  0  0  0  0  0  0  0  0  0  0  0
   -1.7487   13.4240   -6.4767 C   0  0  0  0  0  0  0  0  0  0  0  0
   -0.4123   13.4674   -6.4260 N   0  0  0  0  0  0  0  0  0  0  0  0
    0.1713   12.3664   -6.8217 N   0  0  0  0  0  0  0  0  0  0  0  0
   -0.8093   11.5624   -7.1930 C   0  0  0  0  0  0  0  0  0  0  0  0
    0.4224   14.5657   -5.9816 C   0  0  0  0  0  0  0  0  0  0  0  0
   -5.6966   14.2423  -13.2612 N   0  0  0  0  0  0  0  0  0  0  0  0
   -4.9506   15.3153  -13.5405 C   0  0  0  0  0  0  0  0  0  0  0  0
   -3.9383   15.6899  -12.6782 C   0  0  0  0  0  0  0  0  0  0  0  0
   -3.7261   14.9536  -11.5366 C   0  0  0  0  0  0  0  0  0  0  0  0
   -4.5508   13.8769  -11.2437 C   0  0  0  0  0  0  0  0  0  0  0  0
   -2.6976   15.2614  -10.7139 N   0  0  0  0  0  0  0  0  0  0  0  0
   -5.4950   11.5473  -10.3746 H   0  0  0  0  0  0  0  0  0  0  0  0
   -6.9796   12.5188  -10.0939 H   0  0  0  0  0  0  0  0  0  0  0  0
   -8.1826   10.1089  -13.8914 H   0  0  0  0  0  0  0  0  0  0  0  0
   -6.9001   12.2325  -14.0803 H   0  0  0  0  0  0  0  0  0  0  0  0
   -8.0989   10.5499   -7.5868 H   0  0  0  0  0  0  0  0  0  0  0  0
   -7.3874    8.9007   -7.5571 H   0  0  0  0  0  0  0  0  0  0  0  0
   -6.7563   12.3160   -6.9245 H   0  0  0  0  0  0  0  0  0  0  0  0
   -4.5218   13.2977   -6.4798 H   0  0  0  0  0  0  0  0  0  0  0  0
   -2.6703    9.7625   -8.0472 H   0  0  0  0  0  0  0  0  0  0  0  0
   -4.9024    8.7852   -8.4759 H   0  0  0  0  0  0  0  0  0  0  0  0
   -2.4277   14.2118   -6.1857 H   0  0  0  0  0  0  0  0  0  0  0  0
   -0.6637   10.5754   -7.6065 H   0  0  0  0  0  0  0  0  0  0  0  0
    1.4809   14.2752   -6.0543 H   0  0  0  0  0  0  0  0  0  0  0  0
    0.2393   15.4453   -6.6162 H   0  0  0  0  0  0  0  0  0  0  0  0
    0.1804   14.8105   -4.9369 H   0  0  0  0  0  0  0  0  0  0  0  0
   -5.1384   15.8875  -14.4370 H   0  0  0  0  0  0  0  0  0  0  0  0
   -3.0010   15.6690  -13.2536 H   0  0  0  0  0  0  0  0  0  0  0  0
   -4.1509   16.7215  -12.3610 H   0  0  0  0  0  0  0  0  0  0  0  0
   -4.4255   13.3274  -10.3224 H   0  0  0  0  0  0  0  0  0  0  0  0
   -2.6419   14.6376   -9.9343 H   0  0  0  0  0  0  0  0  0  0  0  0
  1  2  1  0  0  0  0
  1  4  2  0  0  0  0
  1 11  1  0  0  0  0
  2  6  1  0  0  0  0
  3  4  1  0  0  0  0
  3  5  2  0  0  0  0
  5  6  1  0  0  0  0
  5  9  1  0  0  0  0
  6  7  2  0  0  0  0
  7  8  1  0  0  0  0
  7 10  1  0  0  0  0
  8  9  2  0  0  0  0
 10 12  1  0  0  0  0
 11 24  1  0  0  0  0
 11 28  2  0  0  0  0
 12 13  2  0  0  0  0
 12 17  1  0  0  0  0
 13 14  1  0  0  0  0
 14 15  2  0  0  0  0
 15 16  1  0  0  0  0
 15 18  1  0  0  0  0
 16 17  2  0  0  0  0
 18 19  2  0  0  0  0
 18 22  1  0  0  0  0
 19 20  1  0  0  0  0
 20 21  1  0  0  0  0
 20 23  1  0  0  0  0
 21 22  2  0  0  0  0
 24 25  2  0  0  0  0
 25 26  1  0  0  0  0
 26 27  1  0  0  0  0
 27 28  1  0  0  0  0
 27 29  2  0  0  0  0
  2 30  1  0  0  0  0
  2 31  1  0  0  0  0
  3 32  1  0  0  0  0
  4 33  1  0  0  0  0
 10 34  1  0  0  0  0
 10 35  1  0  0  0  0
 13 36  1  0  0  0  0
 14 37  1  0  0  0  0
 16 38  1  0  0  0  0
 17 39  1  0  0  0  0
 19 40  1  0  0  0  0
 22 41  1  0  0  0  0
 23 42  1  0  0  0  0
 23 43  1  0  0  0  0
 23 44  1  0  0  0  0
 25 45  1  0  0  0  0
 26 46  1  0  0  0  0
 26 47  1  0  0  0  0
 28 48  1  0  0  0  0
 29 49  1  0  0  0  0
M  END
> <Name>
23

> <IC50[uM]>
0.27

$$$$
23
  -OEChem-05192314333D
 Structure written by MMmdl.
 49 53  0     0  0  0  0  0  0999 V2000
   -6.3775   12.3296  -12.0018 C   0  0  0  0  0  0  0  0  0  0  0  0
   -6.5098   11.7629  -10.7403 C   0  0  0  0  0  0  0  0  0  0  0  0
   -7.7247   10.5660  -13.0266 C   0  0  0  0  0  0  0  0  0  0  0  0
   -6.9942   11.7487  -13.1193 C   0  0  0  0  0  0  0  0  0  0  0  0
   -7.8312   10.0057  -11.7538 C   0  0  0  0  0  0  0  0  0  0  0  0
   -7.2443   10.6021  -10.6070 C   0  0  0  0  0  0  0  0  0  0  0  0
   -7.6167    9.7449   -9.5151 C   0  0  0  0  0  0  0  0  0  0  0  0
   -8.2961    8.7374   -9.9786 N   0  0  0  0  0  0  0  0  0  0  0  0
   -8.4404    8.8724  -11.2937 N   0  0  0  0  0  0  0  0  0  0  0  0
   -7.3318    9.8946   -8.0252 C   0  0  0  0  0  0  0  0  0  0  0  0
   -5.5478   13.5112  -12.1572 C   0  0  0  0  0  0  0  0  0  0  0  0
   -5.9707   10.4870   -7.7351 C   0  0  0  0  0  0  0  0  0  0  0  0
   -5.8642   11.7588   -7.1694 C   0  0  0  0  0  0  0  0  0  0  0  0
   -4.6019   12.3141   -6.9186 C   0  0  0  0  0  0  0  0  0  0  0  0
   -3.4503   11.5963   -7.2357 C   0  0  0  0  0  0  0  0  0  0  0  0
   -3.5604   10.3220   -7.8000 C   0  0  0  0  0  0  0  0  0  0  0  0
   -4.8213    9.7719   -8.0443 C   0  0  0  0  0  0  0  0  0  0  0  0
   -2.0996   12.1710   -6.9757 C   0  0  0  0  0  0  0  0  0  0  0  0
   -1.7487   13.4240   -6.4767 C   0  0  0  0  0  0  0  0  0  0  0  0
   -0.4123   13.4674   -6.4260 N   0  0  0  0  0  0  0  0  0  0  0  0
    0.1713   12.3664   -6.8217 N   0  0  0  0  0  0  0  0  0  0  0  0
   -0.8093   11.5624   -7.1930 C   0  0  0  0  0  0  0  0  0  0  0  0
    0.4224   14.5657   -5.9816 C   0  0  0  0  0  0  0  0  0  0  0  0
   -5.6966   14.2423  -13.2612 N   0  0  0  0  0  0  0  0  0  0  0  0
   -4.9506   15.3153  -13.5405 C   0  0  0  0  0  0  0  0  0  0  0  0
   -3.9383   15.6899  -12.6782 C   0  0  0  0  0  0  0  0  0  0  0  0
   -3.7261   14.9536  -11.5366 C   0  0  0  0  0  0  0  0  0  0  0  0
   -4.5508   13.8769  -11.2437 C   0  0  0  0  0  0  0  0  0  0  0  0
   -2.6976   15.2614  -10.7139 N   0  0  0  0  0  0  0  0  0  0  0  0
   -5.4950   11.5473  -10.3746 H   0  0  0  0  0  0  0  0  0  0  0  0
   -6.9796   12.5188  -10.0939 H   0  0  0  0  0  0  0  0  0  0  0  0
   -8.1826   10.1089  -13.8914 H   0  0  0  0  0  0  0  0  0  0  0  0
   -6.9001   12.2325  -14.0803 H   0  0  0  0  0  0  0  0  0  0  0  0
   -8.0989   10.5499   -7.5868 H   0  0  0  0  0  0  0  0  0  0  0  0
   -7.3874    8.9007   -7.5571 H   0  0  0  0  0  0  0  0  0  0  0  0
   -6.7563   12.3160   -6.9245 H   0  0  0  0  0  0  0  0  0  0  0  0
   -4.5218   13.2977   -6.4798 H   0  0  0  0  0  0  0  0  0  0  0  0
   -2.6703    9.7625   -8.0472 H   0  0  0  0  0  0  0  0  0  0  0  0
   -4.9024    8.7852   -8.4759 H   0  0  0  0  0  0  0  0  0  0  0  0
   -2.4277   14.2118   -6.1857 H   0  0  0  0  0  0  0  0  0  0  0  0
   -0.6637   10.5754   -7.6065 H   0  0  0  0  0  0  0  0  0  0  0  0
    1.4809   14.2752   -6.0543 H   0  0  0  0  0  0  0  0  0  0  0  0
    0.2393   15.4453   -6.6162 H   0  0  0  0  0  0  0  0  0  0  0  0
    0.1804   14.8105   -4.9369 H   0  0  0  0  0  0  0  0  0  0  0  0
   -5.1384   15.8875  -14.4370 H   0  0  0  0  0  0  0  0  0  0  0  0
   -3.3221   16.5493  -12.8978 H   0  0  0  0  0  0  0  0  0  0  0  0
   -5.0546   14.1072  -10.2933 H   0  0  0  0  0  0  0  0  0  0  0  0
   -3.8997   13.0003  -11.1106 H   0  0  0  0  0  0  0  0  0  0  0  0
   -2.6419   14.6376   -9.9343 H   0  0  0  0  0  0  0  0  0  0  0  0
  1  2  1  0  0  0  0
  1  4  2  0  0  0  0
  1 11  1  0  0  0  0
  2  6  1  0  0  0  0
  3  4  1  0  0  0  0
  3  5  2  0  0  0  0
  5  6  1  0  0  0  0
  5  9  1  0  0  0  0
  6  7  2  0  0  0  0
  7  8  1  0  0  0  0
  7 10  1  0  0  0  0
  8  9  2  0  0  0  0
 10 12  1  0  0  0  0
 11 24  2  0  0  0  0
 11 28  1  0  0  0  0
 12 13  2  0  0  0  0
 12 17  1  0  0  0  0
 13 14  1  0  0  0  0
 14 15  2  0  0  0  0
 15 16  1  0  0  0  0
 15 18  1  0  0  0  0
 16 17  2  0  0  0  0
 18 19  2  0  0  0  0
 18 22  1  0  0  0  0
 19 20  1  0  0  0  0
 20 21  1  0  0  0  0
 20 23  1  0  0  0  0
 21 22  2  0  0  0  0
 24 25  1  0  0  0  0
 25 26  2  0  0  0  0
 26 27  1  0  0  0  0
 27 28  1  0  0  0  0
 27 29  2  0  0  0  0
  2 30  1  0  0  0  0
  2 31  1  0  0  0  0
  3 32  1  0  0  0  0
  4 33  1  0  0  0  0
 10 34  1  0  0  0  0
 10 35  1  0  0  0  0
 13 36  1  0  0  0  0
 14 37  1  0  0  0  0
 16 38  1  0  0  0  0
 17 39  1  0  0  0  0
 19 40  1  0  0  0  0
 22 41  1  0  0  0  0
 23 42  1  0  0  0  0
 23 43  1  0  0  0  0
 23 44  1  0  0  0  0
 25 45  1  0  0  0  0
 26 46  1  0  0  0  0
 28 47  1  0  0  0  0
 28 48  1  0  0  0  0
 29 49  1  0  0  0  0
M  END
> <Name>
23

> <IC50[uM]>
0.27

$$$$
23
  -OEChem-05192314333D
 Structure written by MMmdl.
 49 53  0     1  0  0  0  0  0999 V2000
   -6.3775   12.3296  -12.0018 C   0  0  0  0  0  0  0  0  0  0  0  0
   -6.5098   11.7629  -10.7403 C   0  0  0  0  0  0  0  0  0  0  0  0
   -7.7247   10.5660  -13.0266 C   0  0  0  0  0  0  0  0  0  0  0  0
   -6.9942   11.7487  -13.1193 C   0  0  0  0  0  0  0  0  0  0  0  0
   -7.8312   10.0057  -11.7538 C   0  0  0  0  0  0  0  0  0  0  0  0
   -7.2443   10.6021  -10.6070 C   0  0  3  0  0  0  0  0  0  0  0  0
   -7.6167    9.7449   -9.5151 C   0  0  0  0  0  0  0  0  0  0  0  0
   -8.2961    8.7374   -9.9786 N   0  0  0  0  0  0  0  0  0  0  0  0
   -8.4404    8.8724  -11.2937 N   0  0  0  0  0  0  0  0  0  0  0  0
   -7.3318    9.8946   -8.0252 C   0  0  0  0  0  0  0  0  0  0  0  0
   -5.5478   13.5112  -12.1572 C   0  0  0  0  0  0  0  0  0  0  0  0
   -5.9707   10.4870   -7.7351 C   0  0  0  0  0  0  0  0  0  0  0  0
   -5.8642   11.7588   -7.1694 C   0  0  0  0  0  0  0  0  0  0  0  0
   -4.6019   12.3141   -6.9186 C   0  0  0  0  0  0  0  0  0  0  0  0
   -3.4503   11.5963   -7.2357 C   0  0  0  0  0  0  0  0  0  0  0  0
   -3.5604   10.3220   -7.8000 C   0  0  0  0  0  0  0  0  0  0  0  0
   -4.8213    9.7719   -8.0443 C   0  0  0  0  0  0  0  0  0  0  0  0
   -2.0996   12.1710   -6.9757 C   0  0  0  0  0  0  0  0  0  0  0  0
   -1.7487   13.4240   -6.4767 C   0  0  0  0  0  0  0  0  0  0  0  0
   -0.4123   13.4674   -6.4260 N   0  0  0  0  0  0  0  0  0  0  0  0
    0.1713   12.3664   -6.8217 N   0  0  0  0  0  0  0  0  0  0  0  0
   -0.8093   11.5624   -7.1930 C   0  0  0  0  0  0  0  0  0  0  0  0
    0.4224   14.5657   -5.9816 C   0  0  0  0  0  0  0  0  0  0  0  0
   -5.6966   14.2423  -13.2612 N   0  0  0  0  0  0  0  0  0  0  0  0
   -4.9506   15.3153  -13.5405 C   0  0  0  0  0  0  0  0  0  0  0  0
   -3.9383   15.6899  -12.6782 C   0  0  0  0  0  0  0  0  0  0  0  0
   -3.7261   14.9536  -11.5366 C   0  0  0  0  0  0  0  0  0  0  0  0
   -4.5508   13.8769  -11.2437 C   0  0  0  0  0  0  0  0  0  0  0  0
   -2.6976   15.2614  -10.7139 N   0  0  0  0  0  0  0  0  0  0  0  0
   -6.0464   12.2223   -9.8797 H   0  0  0  0  0  0  0  0  0  0  0  0
   -8.1826   10.1089  -13.8914 H   0  0  0  0  0  0  0  0  0  0  0  0
   -6.9001   12.2325  -14.0803 H   0  0  0  0  0  0  0  0  0  0  0  0
   -6.3326   10.0069  -10.7637 H   0  0  0  0  0  0  0  0  0  0  0  0
   -8.6538    7.9802   -9.4320 H   0  0  0  0  0  0  0  0  0  0  0  0
   -8.0313    9.6067   -7.2544 H   0  0  0  0  0  0  0  0  0  0  0  0
   -6.7563   12.3160   -6.9245 H   0  0  0  0  0  0  0  0  0  0  0  0
   -4.5218   13.2977   -6.4798 H   0  0  0  0  0  0  0  0  0  0  0  0
   -2.6703    9.7625   -8.0472 H   0  0  0  0  0  0  0  0  0  0  0  0
   -4.9024    8.7852   -8.4759 H   0  0  0  0  0  0  0  0  0  0  0  0
   -2.4277   14.2118   -6.1857 H   0  0  0  0  0  0  0  0  0  0  0  0
   -0.6637   10.5754   -7.6065 H   0  0  0  0  0  0  0  0  0  0  0  0
    1.4809   14.2752   -6.0543 H   0  0  0  0  0  0  0  0  0  0  0  0
    0.2393   15.4453   -6.6162 H   0  0  0  0  0  0  0  0  0  0  0  0
    0.1804   14.8105   -4.9369 H   0  0  0  0  0  0  0  0  0  0  0  0
   -5.1384   15.8875  -14.4370 H   0  0  0  0  0  0  0  0  0  0  0  0
   -3.0010   15.6690  -13.2536 H   0  0  0  0  0  0  0  0  0  0  0  0
   -4.1509   16.7215  -12.3610 H   0  0  0  0  0  0  0  0  0  0  0  0
   -4.4255   13.3274  -10.3224 H   0  0  0  0  0  0  0  0  0  0  0  0
   -2.6419   14.6376   -9.9343 H   0  0  0  0  0  0  0  0  0  0  0  0
  1  2  2  0  0  0  0
  1  4  1  0  0  0  0
  1 11  1  0  0  0  0
  2  6  1  0  0  0  0
  3  4  2  0  0  0  0
  3  5  1  0  0  0  0
  5  6  1  0  0  0  0
  5  9  2  0  0  0  0
  6  7  1  0  0  0  0
  7  8  1  0  0  0  0
  7 10  2  3  0  0  0
  8  9  1  0  0  0  0
 10 12  1  0  0  0  0
 11 24  1  0  0  0  0
 11 28  2  0  0  0  0
 12 13  2  0  0  0  0
 12 17  1  0  0  0  0
 13 14  1  0  0  0  0
 14 15  2  0  0  0  0
 15 16  1  0  0  0  0
 15 18  1  0  0  0  0
 16 17  2  0  0  0  0
 18 19  2  0  0  0  0
 18 22  1  0  0  0  0
 19 20  1  0  0  0  0
 20 21  1  0  0  0  0
 20 23  1  0  0  0  0
 21 22  2  0  0  0  0
 24 25  2  0  0  0  0
 25 26  1  0  0  0  0
 26 27  1  0  0  0  0
 27 28  1  0  0  0  0
 27 29  2  0  0  0  0
  2 30  1  0  0  0  0
  3 31  1  0  0  0  0
  4 32  1  0  0  0  0
  6 33  1  0  0  0  0
  8 34  1  0  0  0  0
 10 35  1  0  0  0  0
 13 36  1  0  0  0  0
 14 37  1  0  0  0  0
 16 38  1  0  0  0  0
 17 39  1  0  0  0  0
 19 40  1  0  0  0  0
 22 41  1  0  0  0  0
 23 42  1  0  0  0  0
 23 43  1  0  0  0  0
 23 44  1  0  0  0  0
 25 45  1  0  0  0  0
 26 46  1  0  0  0  0
 26 47  1  0  0  0  0
 28 48  1  0  0  0  0
 29 49  1  0  0  0  0
M  END
> <Name>
23

> <IC50[uM]>
0.27

$$$$
23
  -OEChem-05192314333D
 Structure written by MMmdl.
 49 53  0     1  0  0  0  0  0999 V2000
   -6.3775   12.3296  -12.0018 C   0  0  0  0  0  0  0  0  0  0  0  0
   -6.5098   11.7629  -10.7403 C   0  0  0  0  0  0  0  0  0  0  0  0
   -7.7247   10.5660  -13.0266 C   0  0  0  0  0  0  0  0  0  0  0  0
   -6.9942   11.7487  -13.1193 C   0  0  0  0  0  0  0  0  0  0  0  0
   -7.8312   10.0057  -11.7538 C   0  0  0  0  0  0  0  0  0  0  0  0
   -7.2443   10.6021  -10.6070 C   0  0  3  0  0  0  0  0  0  0  0  0
   -7.6167    9.7449   -9.5151 C   0  0  0  0  0  0  0  0  0  0  0  0
   -8.2961    8.7374   -9.9786 N   0  0  0  0  0  0  0  0  0  0  0  0
   -8.4404    8.8724  -11.2937 N   0  0  0  0  0  0  0  0  0  0  0  0
   -7.3318    9.8946   -8.0252 C   0  0  0  0  0  0  0  0  0  0  0  0
   -5.5478   13.5112  -12.1572 C   0  0  0  0  0  0  0  0  0  0  0  0
   -5.9707   10.4870   -7.7351 C   0  0  0  0  0  0  0  0  0  0  0  0
   -5.8642   11.7588   -7.1694 C   0  0  0  0  0  0  0  0  0  0  0  0
   -4.6019   12.3141   -6.9186 C   0  0  0  0  0  0  0  0  0  0  0  0
   -3.4503   11.5963   -7.2357 C   0  0  0  0  0  0  0  0  0  0  0  0
   -3.5604   10.3220   -7.8000 C   0  0  0  0  0  0  0  0  0  0  0  0
   -4.8213    9.7719   -8.0443 C   0  0  0  0  0  0  0  0  0  0  0  0
   -2.0996   12.1710   -6.9757 C   0  0  0  0  0  0  0  0  0  0  0  0
   -1.7487   13.4240   -6.4767 C   0  0  0  0  0  0  0  0  0  0  0  0
   -0.4123   13.4674   -6.4260 N   0  0  0  0  0  0  0  0  0  0  0  0
    0.1713   12.3664   -6.8217 N   0  0  0  0  0  0  0  0  0  0  0  0
   -0.8093   11.5624   -7.1930 C   0  0  0  0  0  0  0  0  0  0  0  0
    0.4224   14.5657   -5.9816 C   0  0  0  0  0  0  0  0  0  0  0  0
   -5.6966   14.2423  -13.2612 N   0  0  0  0  0  0  0  0  0  0  0  0
   -4.9506   15.3153  -13.5405 C   0  0  0  0  0  0  0  0  0  0  0  0
   -3.9383   15.6899  -12.6782 C   0  0  0  0  0  0  0  0  0  0  0  0
   -3.7261   14.9536  -11.5366 C   0  0  0  0  0  0  0  0  0  0  0  0
   -4.5508   13.8769  -11.2437 C   0  0  0  0  0  0  0  0  0  0  0  0
   -2.6976   15.2614  -10.7139 N   0  0  0  0  0  0  0  0  0  0  0  0
   -6.0464   12.2223   -9.8797 H   0  0  0  0  0  0  0  0  0  0  0  0
   -8.1826   10.1089  -13.8914 H   0  0  0  0  0  0  0  0  0  0  0  0
   -6.9001   12.2325  -14.0803 H   0  0  0  0  0  0  0  0  0  0  0  0
   -6.3326   10.0069  -10.7637 H   0  0  0  0  0  0  0  0  0  0  0  0
   -8.6538    7.9802   -9.4320 H   0  0  0  0  0  0  0  0  0  0  0  0
   -8.0313    9.6067   -7.2544 H   0  0  0  0  0  0  0  0  0  0  0  0
   -6.7563   12.3160   -6.9245 H   0  0  0  0  0  0  0  0  0  0  0  0
   -4.5218   13.2977   -6.4798 H   0  0  0  0  0  0  0  0  0  0  0  0
   -2.6703    9.7625   -8.0472 H   0  0  0  0  0  0  0  0  0  0  0  0
   -4.9024    8.7852   -8.4759 H   0  0  0  0  0  0  0  0  0  0  0  0
   -2.4277   14.2118   -6.1857 H   0  0  0  0  0  0  0  0  0  0  0  0
   -0.6637   10.5754   -7.6065 H   0  0  0  0  0  0  0  0  0  0  0  0
    1.4809   14.2752   -6.0543 H   0  0  0  0  0  0  0  0  0  0  0  0
    0.2393   15.4453   -6.6162 H   0  0  0  0  0  0  0  0  0  0  0  0
    0.1804   14.8105   -4.9369 H   0  0  0  0  0  0  0  0  0  0  0  0
   -5.1384   15.8875  -14.4370 H   0  0  0  0  0  0  0  0  0  0  0  0
   -3.3221   16.5493  -12.8978 H   0  0  0  0  0  0  0  0  0  0  0  0
   -5.0546   14.1072  -10.2933 H   0  0  0  0  0  0  0  0  0  0  0  0
   -3.8997   13.0003  -11.1106 H   0  0  0  0  0  0  0  0  0  0  0  0
   -2.6419   14.6376   -9.9343 H   0  0  0  0  0  0  0  0  0  0  0  0
  1  2  2  0  0  0  0
  1  4  1  0  0  0  0
  1 11  1  0  0  0  0
  2  6  1  0  0  0  0
  3  4  2  0  0  0  0
  3  5  1  0  0  0  0
  5  6  1  0  0  0  0
  5  9  2  0  0  0  0
  6  7  1  0  0  0  0
  7  8  1  0  0  0  0
  7 10  2  3  0  0  0
  8  9  1  0  0  0  0
 10 12  1  0  0  0  0
 11 24  2  0  0  0  0
 11 28  1  0  0  0  0
 12 13  2  0  0  0  0
 12 17  1  0  0  0  0
 13 14  1  0  0  0  0
 14 15  2  0  0  0  0
 15 16  1  0  0  0  0
 15 18  1  0  0  0  0
 16 17  2  0  0  0  0
 18 19  2  0  0  0  0
 18 22  1  0  0  0  0
 19 20  1  0  0  0  0
 20 21  1  0  0  0  0
 20 23  1  0  0  0  0
 21 22  2  0  0  0  0
 24 25  1  0  0  0  0
 25 26  2  0  0  0  0
 26 27  1  0  0  0  0
 27 28  1  0  0  0  0
 27 29  2  0  0  0  0
  2 30  1  0  0  0  0
  3 31  1  0  0  0  0
  4 32  1  0  0  0  0
  6 33  1  0  0  0  0
  8 34  1  0  0  0  0
 10 35  1  0  0  0  0
 13 36  1  0  0  0  0
 14 37  1  0  0  0  0
 16 38  1  0  0  0  0
 17 39  1  0  0  0  0
 19 40  1  0  0  0  0
 22 41  1  0  0  0  0
 23 42  1  0  0  0  0
 23 43  1  0  0  0  0
 23 44  1  0  0  0  0
 25 45  1  0  0  0  0
 26 46  1  0  0  0  0
 28 47  1  0  0  0  0
 28 48  1  0  0  0  0
 29 49  1  0  0  0  0
M  END
> <Name>
23

> <IC50[uM]>
0.27

$$$$
23
  -OEChem-05192314333D
 Structure written by MMmdl.
 49 53  0     1  0  0  0  0  0999 V2000
   -6.3775   12.3296  -12.0018 C   0  0  0  0  0  0  0  0  0  0  0  0
   -6.5098   11.7629  -10.7403 C   0  0  0  0  0  0  0  0  0  0  0  0
   -7.7247   10.5660  -13.0266 C   0  0  0  0  0  0  0  0  0  0  0  0
   -6.9942   11.7487  -13.1193 C   0  0  0  0  0  0  0  0  0  0  0  0
   -7.8312   10.0057  -11.7538 C   0  0  3  0  0  0  0  0  0  0  0  0
   -7.2443   10.6021  -10.6070 C   0  0  0  0  0  0  0  0  0  0  0  0
   -7.6167    9.7449   -9.5151 C   0  0  0  0  0  0  0  0  0  0  0  0
   -8.2961    8.7374   -9.9786 N   0  0  0  0  0  0  0  0  0  0  0  0
   -8.4404    8.8724  -11.2937 N   0  0  0  0  0  0  0  0  0  0  0  0
   -7.3318    9.8946   -8.0252 C   0  0  0  0  0  0  0  0  0  0  0  0
   -5.5478   13.5112  -12.1572 C   0  0  0  0  0  0  0  0  0  0  0  0
   -5.9707   10.4870   -7.7351 C   0  0  0  0  0  0  0  0  0  0  0  0
   -5.8642   11.7588   -7.1694 C   0  0  0  0  0  0  0  0  0  0  0  0
   -4.6019   12.3141   -6.9186 C   0  0  0  0  0  0  0  0  0  0  0  0
   -3.4503   11.5963   -7.2357 C   0  0  0  0  0  0  0  0  0  0  0  0
   -3.5604   10.3220   -7.8000 C   0  0  0  0  0  0  0  0  0  0  0  0
   -4.8213    9.7719   -8.0443 C   0  0  0  0  0  0  0  0  0  0  0  0
   -2.0996   12.1710   -6.9757 C   0  0  0  0  0  0  0  0  0  0  0  0
   -1.7487   13.4240   -6.4767 C   0  0  0  0  0  0  0  0  0  0  0  0
   -0.4123   13.4674   -6.4260 N   0  0  0  0  0  0  0  0  0  0  0  0
    0.1713   12.3664   -6.8217 N   0  0  0  0  0  0  0  0  0  0  0  0
   -0.8093   11.5624   -7.1930 C   0  0  0  0  0  0  0  0  0  0  0  0
    0.4224   14.5657   -5.9816 C   0  0  0  0  0  0  0  0  0  0  0  0
   -5.6966   14.2423  -13.2612 N   0  0  0  0  0  0  0  0  0  0  0  0
   -4.9506   15.3153  -13.5405 C   0  0  0  0  0  0  0  0  0  0  0  0
   -3.9383   15.6899  -12.6782 C   0  0  0  0  0  0  0  0  0  0  0  0
   -3.7261   14.9536  -11.5366 C   0  0  0  0  0  0  0  0  0  0  0  0
   -4.5508   13.8769  -11.2437 C   0  0  0  0  0  0  0  0  0  0  0  0
   -2.6976   15.2614  -10.7139 N   0  0  0  0  0  0  0  0  0  0  0  0
   -6.0464   12.2223   -9.8797 H   0  0  0  0  0  0  0  0  0  0  0  0
   -8.1826   10.1089  -13.8914 H   0  0  0  0  0  0  0  0  0  0  0  0
   -6.9001   12.2325  -14.0803 H   0  0  0  0  0  0  0  0  0  0  0  0
   -8.7557   10.5755  -11.5787 H   0  0  0  0  0  0  0  0  0  0  0  0
   -8.0313    9.6067   -7.2544 H   0  0  0  0  0  0  0  0  0  0  0  0
   -6.7563   12.3160   -6.9245 H   0  0  0  0  0  0  0  0  0  0  0  0
   -4.5218   13.2977   -6.4798 H   0  0  0  0  0  0  0  0  0  0  0  0
   -2.6703    9.7625   -8.0472 H   0  0  0  0  0  0  0  0  0  0  0  0
   -4.9024    8.7852   -8.4759 H   0  0  0  0  0  0  0  0  0  0  0  0
   -2.4277   14.2118   -6.1857 H   0  0  0  0  0  0  0  0  0  0  0  0
   -0.6637   10.5754   -7.6065 H   0  0  0  0  0  0  0  0  0  0  0  0
    1.4809   14.2752   -6.0543 H   0  0  0  0  0  0  0  0  0  0  0  0
    0.2393   15.4453   -6.6162 H   0  0  0  0  0  0  0  0  0  0  0  0
    0.1804   14.8105   -4.9369 H   0  0  0  0  0  0  0  0  0  0  0  0
   -5.1384   15.8875  -14.4370 H   0  0  0  0  0  0  0  0  0  0  0  0
   -3.0010   15.6690  -13.2536 H   0  0  0  0  0  0  0  0  0  0  0  0
   -4.1509   16.7215  -12.3610 H   0  0  0  0  0  0  0  0  0  0  0  0
   -4.4255   13.3274  -10.3224 H   0  0  0  0  0  0  0  0  0  0  0  0
   -2.6901   14.6302   -9.9383 H   0  0  0  0  0  0  0  0  0  0  0  0
   -1.8356   15.1840  -11.2148 H   0  0  0  0  0  0  0  0  0  0  0  0
  1  2  1  0  0  0  0
  1  4  1  0  0  0  0
  1 11  2  0  0  0  0
  2  6  2  0  0  0  0
  3  4  2  0  0  0  0
  3  5  1  0  0  0  0
  5  6  1  0  0  0  0
  5  9  1  0  0  0  0
  6  7  1  0  0  0  0
  7  8  1  0  0  0  0
  7 10  2  3  0  0  0
  8  9  2  0  0  0  0
 10 12  1  0  0  0  0
 11 24  1  0  0  0  0
 11 28  1  0  0  0  0
 12 13  2  0  0  0  0
 12 17  1  0  0  0  0
 13 14  1  0  0  0  0
 14 15  2  0  0  0  0
 15 16  1  0  0  0  0
 15 18  1  0  0  0  0
 16 17  2  0  0  0  0
 18 19  2  0  0  0  0
 18 22  1  0  0  0  0
 19 20  1  0  0  0  0
 20 21  1  0  0  0  0
 20 23  1  0  0  0  0
 21 22  2  0  0  0  0
 24 25  2  0  0  0  0
 25 26  1  0  0  0  0
 26 27  1  0  0  0  0
 27 28  2  0  0  0  0
 27 29  1  0  0  0  0
  2 30  1  0  0  0  0
  3 31  1  0  0  0  0
  4 32  1  0  0  0  0
  5 33  1  0  0  0  0
 10 34  1  0  0  0  0
 13 35  1  0  0  0  0
 14 36  1  0  0  0  0
 16 37  1  0  0  0  0
 17 38  1  0  0  0  0
 19 39  1  0  0  0  0
 22 40  1  0  0  0  0
 23 41  1  0  0  0  0
 23 42  1  0  0  0  0
 23 43  1  0  0  0  0
 25 44  1  0  0  0  0
 26 45  1  0  0  0  0
 26 46  1  0  0  0  0
 28 47  1  0  0  0  0
 29 48  1  0  0  0  0
 29 49  1  0  0  0  0
M  END
> <Name>
23

> <IC50[uM]>
0.27

$$$$
23
  -OEChem-05192314333D
 Structure written by MMmdl.
 49 53  0     0  0  0  0  0  0999 V2000
   -6.3775   12.3296  -12.0018 C   0  0  0  0  0  0  0  0  0  0  0  0
   -6.5098   11.7629  -10.7403 C   0  0  0  0  0  0  0  0  0  0  0  0
   -7.7247   10.5660  -13.0266 C   0  0  0  0  0  0  0  0  0  0  0  0
   -6.9942   11.7487  -13.1193 C   0  0  0  0  0  0  0  0  0  0  0  0
   -7.8312   10.0057  -11.7538 C   0  0  0  0  0  0  0  0  0  0  0  0
   -7.2443   10.6021  -10.6070 C   0  0  0  0  0  0  0  0  0  0  0  0
   -7.6167    9.7449   -9.5151 C   0  0  0  0  0  0  0  0  0  0  0  0
   -8.2961    8.7374   -9.9786 N   0  0  0  0  0  0  0  0  0  0  0  0
   -8.4404    8.8724  -11.2937 N   0  0  0  0  0  0  0  0  0  0  0  0
   -7.3318    9.8946   -8.0252 C   0  0  0  0  0  0  0  0  0  0  0  0
   -5.5478   13.5112  -12.1572 C   0  0  0  0  0  0  0  0  0  0  0  0
   -5.9707   10.4870   -7.7351 C   0  0  0  0  0  0  0  0  0  0  0  0
   -5.8642   11.7588   -7.1694 C   0  0  0  0  0  0  0  0  0  0  0  0
   -4.6019   12.3141   -6.9186 C   0  0  0  0  0  0  0  0  0  0  0  0
   -3.4503   11.5963   -7.2357 C   0  0  0  0  0  0  0  0  0  0  0  0
   -3.5604   10.3220   -7.8000 C   0  0  0  0  0  0  0  0  0  0  0  0
   -4.8213    9.7719   -8.0443 C   0  0  0  0  0  0  0  0  0  0  0  0
   -2.0996   12.1710   -6.9757 C   0  0  0  0  0  0  0  0  0  0  0  0
   -1.7487   13.4240   -6.4767 C   0  0  0  0  0  0  0  0  0  0  0  0
   -0.4123   13.4674   -6.4260 N   0  0  0  0  0  0  0  0  0  0  0  0
    0.1713   12.3664   -6.8217 N   0  0  0  0  0  0  0  0  0  0  0  0
   -0.8093   11.5624   -7.1930 C   0  0  0  0  0  0  0  0  0  0  0  0
    0.4224   14.5657   -5.9816 C   0  0  0  0  0  0  0  0  0  0  0  0
   -5.6966   14.2423  -13.2612 N   0  0  0  0  0  0  0  0  0  0  0  0
   -4.9506   15.3153  -13.5405 C   0  0  0  0  0  0  0  0  0  0  0  0
   -3.9383   15.6899  -12.6782 C   0  0  0  0  0  0  0  0  0  0  0  0
   -3.7261   14.9536  -11.5366 C   0  0  0  0  0  0  0  0  0  0  0  0
   -4.5508   13.8769  -11.2437 C   0  0  0  0  0  0  0  0  0  0  0  0
   -2.6976   15.2614  -10.7139 N   0  0  0  0  0  0  0  0  0  0  0  0
   -6.0464   12.2223   -9.8797 H   0  0  0  0  0  0  0  0  0  0  0  0
   -8.1826   10.1089  -13.8914 H   0  0  0  0  0  0  0  0  0  0  0  0
   -7.6841   12.5064  -13.5191 H   0  0  0  0  0  0  0  0  0  0  0  0
   -6.1936   11.5599  -13.8497 H   0  0  0  0  0  0  0  0  0  0  0  0
   -8.0313    9.6067   -7.2544 H   0  0  0  0  0  0  0  0  0  0  0  0
   -6.7563   12.3160   -6.9245 H   0  0  0  0  0  0  0  0  0  0  0  0
   -4.5218   13.2977   -6.4798 H   0  0  0  0  0  0  0  0  0  0  0  0
   -2.6703    9.7625   -8.0472 H   0  0  0  0  0  0  0  0  0  0  0  0
   -4.9024    8.7852   -8.4759 H   0  0  0  0  0  0  0  0  0  0  0  0
   -2.4277   14.2118   -6.1857 H   0  0  0  0  0  0  0  0  0  0  0  0
   -0.6637   10.5754   -7.6065 H   0  0  0  0  0  0  0  0  0  0  0  0
    1.4809   14.2752   -6.0543 H   0  0  0  0  0  0  0  0  0  0  0  0
    0.2393   15.4453   -6.6162 H   0  0  0  0  0  0  0  0  0  0  0  0
    0.1804   14.8105   -4.9369 H   0  0  0  0  0  0  0  0  0  0  0  0
   -5.1384   15.8875  -14.4370 H   0  0  0  0  0  0  0  0  0  0  0  0
   -3.0010   15.6690  -13.2536 H   0  0  0  0  0  0  0  0  0  0  0  0
   -4.1509   16.7215  -12.3610 H   0  0  0  0  0  0  0  0  0  0  0  0
   -4.4255   13.3274  -10.3224 H   0  0  0  0  0  0  0  0  0  0  0  0
   -2.6901   14.6302   -9.9383 H   0  0  0  0  0  0  0  0  0  0  0  0
   -1.8356   15.1840  -11.2148 H   0  0  0  0  0  0  0  0  0  0  0  0
  1  2  1  0  0  0  0
  1  4  1  0  0  0  0
  1 11  2  0  0  0  0
  2  6  2  0  0  0  0
  3  4  1  0  0  0  0
  3  5  2  0  0  0  0
  5  6  1  0  0  0  0
  5  9  1  0  0  0  0
  6  7  1  0  0  0  0
  7  8  1  0  0  0  0
  7 10  2  3  0  0  0
  8  9  2  0  0  0  0
 10 12  1  0  0  0  0
 11 24  1  0  0  0  0
 11 28  1  0  0  0  0
 12 13  2  0  0  0  0
 12 17  1  0  0  0  0
 13 14  1  0  0  0  0
 14 15  2  0  0  0  0
 15 16  1  0  0  0  0
 15 18  1  0  0  0  0
 16 17  2  0  0  0  0
 18 19  2  0  0  0  0
 18 22  1  0  0  0  0
 19 20  1  0  0  0  0
 20 21  1  0  0  0  0
 20 23  1  0  0  0  0
 21 22  2  0  0  0  0
 24 25  2  0  0  0  0
 25 26  1  0  0  0  0
 26 27  1  0  0  0  0
 27 28  2  0  0  0  0
 27 29  1  0  0  0  0
  2 30  1  0  0  0  0
  3 31  1  0  0  0  0
  4 32  1  0  0  0  0
  4 33  1  0  0  0  0
 10 34  1  0  0  0  0
 13 35  1  0  0  0  0
 14 36  1  0  0  0  0
 16 37  1  0  0  0  0
 17 38  1  0  0  0  0
 19 39  1  0  0  0  0
 22 40  1  0  0  0  0
 23 41  1  0  0  0  0
 23 42  1  0  0  0  0
 23 43  1  0  0  0  0
 25 44  1  0  0  0  0
 26 45  1  0  0  0  0
 26 46  1  0  0  0  0
 28 47  1  0  0  0  0
 29 48  1  0  0  0  0
 29 49  1  0  0  0  0
M  END
> <Name>
23

> <IC50[uM]>
0.27

$$$$
23
  -OEChem-05192314333D
 Structure written by MMmdl.
 49 53  0     1  0  0  0  0  0999 V2000
   -6.3775   12.3296  -12.0018 C   0  0  0  0  0  0  0  0  0  0  0  0
   -6.5098   11.7629  -10.7403 C   0  0  0  0  0  0  0  0  0  0  0  0
   -7.7247   10.5660  -13.0266 C   0  0  0  0  0  0  0  0  0  0  0  0
   -6.9942   11.7487  -13.1193 C   0  0  0  0  0  0  0  0  0  0  0  0
   -7.8312   10.0057  -11.7538 C   0  0  3  0  0  0  0  0  0  0  0  0
   -7.2443   10.6021  -10.6070 C   0  0  0  0  0  0  0  0  0  0  0  0
   -7.6167    9.7449   -9.5151 C   0  0  0  0  0  0  0  0  0  0  0  0
   -8.2961    8.7374   -9.9786 N   0  0  0  0  0  0  0  0  0  0  0  0
   -8.4404    8.8724  -11.2937 N   0  0  0  0  0  0  0  0  0  0  0  0
   -7.3318    9.8946   -8.0252 C   0  0  0  0  0  0  0  0  0  0  0  0
   -5.5478   13.5112  -12.1572 C   0  0  0  0  0  0  0  0  0  0  0  0
   -5.9707   10.4870   -7.7351 C   0  0  0  0  0  0  0  0  0  0  0  0
   -5.8642   11.7588   -7.1694 C   0  0  0  0  0  0  0  0  0  0  0  0
   -4.6019   12.3141   -6.9186 C   0  0  0  0  0  0  0  0  0  0  0  0
   -3.4503   11.5963   -7.2357 C   0  0  0  0  0  0  0  0  0  0  0  0
   -3.5604   10.3220   -7.8000 C   0  0  0  0  0  0  0  0  0  0  0  0
   -4.8213    9.7719   -8.0443 C   0  0  0  0  0  0  0  0  0  0  0  0
   -2.0996   12.1710   -6.9757 C   0  0  0  0  0  0  0  0  0  0  0  0
   -1.7487   13.4240   -6.4767 C   0  0  0  0  0  0  0  0  0  0  0  0
   -0.4123   13.4674   -6.4260 N   0  0  0  0  0  0  0  0  0  0  0  0
    0.1713   12.3664   -6.8217 N   0  0  0  0  0  0  0  0  0  0  0  0
   -0.8093   11.5624   -7.1930 C   0  0  0  0  0  0  0  0  0  0  0  0
    0.4224   14.5657   -5.9816 C   0  0  0  0  0  0  0  0  0  0  0  0
   -5.6966   14.2423  -13.2612 N   0  0  0  0  0  0  0  0  0  0  0  0
   -4.9506   15.3153  -13.5405 C   0  0  0  0  0  0  0  0  0  0  0  0
   -3.9383   15.6899  -12.6782 C   0  0  0  0  0  0  0  0  0  0  0  0
   -3.7261   14.9536  -11.5366 C   0  0  0  0  0  0  0  0  0  0  0  0
   -4.5508   13.8769  -11.2437 C   0  0  0  0  0  0  0  0  0  0  0  0
   -2.6976   15.2614  -10.7139 N   0  0  0  0  0  0  0  0  0  0  0  0
   -6.0464   12.2223   -9.8797 H   0  0  0  0  0  0  0  0  0  0  0  0
   -8.1826   10.1089  -13.8914 H   0  0  0  0  0  0  0  0  0  0  0  0
   -6.9001   12.2325  -14.0803 H   0  0  0  0  0  0  0  0  0  0  0  0
   -8.7557   10.5755  -11.5787 H   0  0  0  0  0  0  0  0  0  0  0  0
   -8.0313    9.6067   -7.2544 H   0  0  0  0  0  0  0  0  0  0  0  0
   -6.7563   12.3160   -6.9245 H   0  0  0  0  0  0  0  0  0  0  0  0
   -4.5218   13.2977   -6.4798 H   0  0  0  0  0  0  0  0  0  0  0  0
   -2.6703    9.7625   -8.0472 H   0  0  0  0  0  0  0  0  0  0  0  0
   -4.9024    8.7852   -8.4759 H   0  0  0  0  0  0  0  0  0  0  0  0
   -2.4277   14.2118   -6.1857 H   0  0  0  0  0  0  0  0  0  0  0  0
   -0.6637   10.5754   -7.6065 H   0  0  0  0  0  0  0  0  0  0  0  0
    1.4809   14.2752   -6.0543 H   0  0  0  0  0  0  0  0  0  0  0  0
    0.2393   15.4453   -6.6162 H   0  0  0  0  0  0  0  0  0  0  0  0
    0.1804   14.8105   -4.9369 H   0  0  0  0  0  0  0  0  0  0  0  0
   -5.1384   15.8875  -14.4370 H   0  0  0  0  0  0  0  0  0  0  0  0
   -3.3221   16.5493  -12.8978 H   0  0  0  0  0  0  0  0  0  0  0  0
   -5.0546   14.1072  -10.2933 H   0  0  0  0  0  0  0  0  0  0  0  0
   -3.8997   13.0003  -11.1106 H   0  0  0  0  0  0  0  0  0  0  0  0
   -2.6901   14.6302   -9.9383 H   0  0  0  0  0  0  0  0  0  0  0  0
   -1.8356   15.1840  -11.2148 H   0  0  0  0  0  0  0  0  0  0  0  0
  1  2  1  0  0  0  0
  1  4  1  0  0  0  0
  1 11  2  0  0  0  0
  2  6  2  0  0  0  0
  3  4  2  0  0  0  0
  3  5  1  0  0  0  0
  5  6  1  0  0  0  0
  5  9  1  0  0  0  0
  6  7  1  0  0  0  0
  7  8  1  0  0  0  0
  7 10  2  3  0  0  0
  8  9  2  0  0  0  0
 10 12  1  0  0  0  0
 11 24  1  0  0  0  0
 11 28  1  0  0  0  0
 12 13  2  0  0  0  0
 12 17  1  0  0  0  0
 13 14  1  0  0  0  0
 14 15  2  0  0  0  0
 15 16  1  0  0  0  0
 15 18  1  0  0  0  0
 16 17  2  0  0  0  0
 18 19  2  0  0  0  0
 18 22  1  0  0  0  0
 19 20  1  0  0  0  0
 20 21  1  0  0  0  0
 20 23  1  0  0  0  0
 21 22  2  0  0  0  0
 24 25  2  0  0  0  0
 25 26  1  0  0  0  0
 26 27  2  0  0  0  0
 27 28  1  0  0  0  0
 27 29  1  0  0  0  0
  2 30  1  0  0  0  0
  3 31  1  0  0  0  0
  4 32  1  0  0  0  0
  5 33  1  0  0  0  0
 10 34  1  0  0  0  0
 13 35  1  0  0  0  0
 14 36  1  0  0  0  0
 16 37  1  0  0  0  0
 17 38  1  0  0  0  0
 19 39  1  0  0  0  0
 22 40  1  0  0  0  0
 23 41  1  0  0  0  0
 23 42  1  0  0  0  0
 23 43  1  0  0  0  0
 25 44  1  0  0  0  0
 26 45  1  0  0  0  0
 28 46  1  0  0  0  0
 28 47  1  0  0  0  0
 29 48  1  0  0  0  0
 29 49  1  0  0  0  0
M  END
> <Name>
23

> <IC50[uM]>
0.27

$$$$
23
  -OEChem-05192314333D
 Structure written by MMmdl.
 49 53  0     1  0  0  0  0  0999 V2000
   -6.3775   12.3296  -12.0018 C   0  0  0  0  0  0  0  0  0  0  0  0
   -6.5098   11.7629  -10.7403 C   0  0  0  0  0  0  0  0  0  0  0  0
   -7.7247   10.5660  -13.0266 C   0  0  0  0  0  0  0  0  0  0  0  0
   -6.9942   11.7487  -13.1193 C   0  0  0  0  0  0  0  0  0  0  0  0
   -7.8312   10.0057  -11.7538 C   0  0  3  0  0  0  0  0  0  0  0  0
   -7.2443   10.6021  -10.6070 C   0  0  0  0  0  0  0  0  0  0  0  0
   -7.6167    9.7449   -9.5151 C   0  0  0  0  0  0  0  0  0  0  0  0
   -8.2961    8.7374   -9.9786 N   0  0  0  0  0  0  0  0  0  0  0  0
   -8.4404    8.8724  -11.2937 N   0  0  0  0  0  0  0  0  0  0  0  0
   -7.3318    9.8946   -8.0252 C   0  0  0  0  0  0  0  0  0  0  0  0
   -5.5478   13.5112  -12.1572 C   0  0  0  0  0  0  0  0  0  0  0  0
   -5.9707   10.4870   -7.7351 C   0  0  0  0  0  0  0  0  0  0  0  0
   -5.8642   11.7588   -7.1694 C   0  0  0  0  0  0  0  0  0  0  0  0
   -4.6019   12.3141   -6.9186 C   0  0  0  0  0  0  0  0  0  0  0  0
   -3.4503   11.5963   -7.2357 C   0  0  0  0  0  0  0  0  0  0  0  0
   -3.5604   10.3220   -7.8000 C   0  0  0  0  0  0  0  0  0  0  0  0
   -4.8213    9.7719   -8.0443 C   0  0  0  0  0  0  0  0  0  0  0  0
   -2.0996   12.1710   -6.9757 C   0  0  0  0  0  0  0  0  0  0  0  0
   -1.7487   13.4240   -6.4767 C   0  0  0  0  0  0  0  0  0  0  0  0
   -0.4123   13.4674   -6.4260 N   0  0  0  0  0  0  0  0  0  0  0  0
    0.1713   12.3664   -6.8217 N   0  0  0  0  0  0  0  0  0  0  0  0
   -0.8093   11.5624   -7.1930 C   0  0  0  0  0  0  0  0  0  0  0  0
    0.4224   14.5657   -5.9816 C   0  0  0  0  0  0  0  0  0  0  0  0
   -5.6966   14.2423  -13.2612 N   0  0  0  0  0  0  0  0  0  0  0  0
   -4.9506   15.3153  -13.5405 C   0  0  0  0  0  0  0  0  0  0  0  0
   -3.9383   15.6899  -12.6782 C   0  0  0  0  0  0  0  0  0  0  0  0
   -3.7261   14.9536  -11.5366 C   0  0  0  0  0  0  0  0  0  0  0  0
   -4.5508   13.8769  -11.2437 C   0  0  0  0  0  0  0  0  0  0  0  0
   -2.6976   15.2614  -10.7139 N   0  0  0  0  0  0  0  0  0  0  0  0
   -6.0464   12.2223   -9.8797 H   0  0  0  0  0  0  0  0  0  0  0  0
   -8.1826   10.1089  -13.8914 H   0  0  0  0  0  0  0  0  0  0  0  0
   -6.9001   12.2325  -14.0803 H   0  0  0  0  0  0  0  0  0  0  0  0
   -8.7557   10.5755  -11.5787 H   0  0  0  0  0  0  0  0  0  0  0  0
   -8.0313    9.6067   -7.2544 H   0  0  0  0  0  0  0  0  0  0  0  0
   -6.7563   12.3160   -6.9245 H   0  0  0  0  0  0  0  0  0  0  0  0
   -4.5218   13.2977   -6.4798 H   0  0  0  0  0  0  0  0  0  0  0  0
   -2.6703    9.7625   -8.0472 H   0  0  0  0  0  0  0  0  0  0  0  0
   -4.9024    8.7852   -8.4759 H   0  0  0  0  0  0  0  0  0  0  0  0
   -2.4277   14.2118   -6.1857 H   0  0  0  0  0  0  0  0  0  0  0  0
   -0.6637   10.5754   -7.6065 H   0  0  0  0  0  0  0  0  0  0  0  0
    1.4809   14.2752   -6.0543 H   0  0  0  0  0  0  0  0  0  0  0  0
    0.2393   15.4453   -6.6162 H   0  0  0  0  0  0  0  0  0  0  0  0
    0.1804   14.8105   -4.9369 H   0  0  0  0  0  0  0  0  0  0  0  0
   -6.4038   13.9739  -13.9153 H   0  0  0  0  0  0  0  0  0  0  0  0
   -5.1384   15.8875  -14.4370 H   0  0  0  0  0  0  0  0  0  0  0  0
   -3.3221   16.5493  -12.8978 H   0  0  0  0  0  0  0  0  0  0  0  0
   -5.0546   14.1072  -10.2933 H   0  0  0  0  0  0  0  0  0  0  0  0
   -3.8997   13.0003  -11.1106 H   0  0  0  0  0  0  0  0  0  0  0  0
   -2.6419   14.6376   -9.9343 H   0  0  0  0  0  0  0  0  0  0  0  0
  1  2  1  0  0  0  0
  1  4  1  0  0  0  0
  1 11  2  0  0  0  0
  2  6  2  0  0  0  0
  3  4  2  0  0  0  0
  3  5  1  0  0  0  0
  5  6  1  0  0  0  0
  5  9  1  0  0  0  0
  6  7  1  0  0  0  0
  7  8  1  0  0  0  0
  7 10  2  3  0  0  0
  8  9  2  0  0  0  0
 10 12  1  0  0  0  0
 11 24  1  0  0  0  0
 11 28  1  0  0  0  0
 12 13  2  0  0  0  0
 12 17  1  0  0  0  0
 13 14  1  0  0  0  0
 14 15  2  0  0  0  0
 15 16  1  0  0  0  0
 15 18  1  0  0  0  0
 16 17  2  0  0  0  0
 18 19  2  0  0  0  0
 18 22  1  0  0  0  0
 19 20  1  0  0  0  0
 20 21  1  0  0  0  0
 20 23  1  0  0  0  0
 21 22  2  0  0  0  0
 24 25  1  0  0  0  0
 25 26  2  0  0  0  0
 26 27  1  0  0  0  0
 27 28  1  0  0  0  0
 27 29  2  0  0  0  0
  2 30  1  0  0  0  0
  3 31  1  0  0  0  0
  4 32  1  0  0  0  0
  5 33  1  0  0  0  0
 10 34  1  0  0  0  0
 13 35  1  0  0  0  0
 14 36  1  0  0  0  0
 16 37  1  0  0  0  0
 17 38  1  0  0  0  0
 19 39  1  0  0  0  0
 22 40  1  0  0  0  0
 23 41  1  0  0  0  0
 23 42  1  0  0  0  0
 23 43  1  0  0  0  0
 24 44  1  0  0  0  0
 25 45  1  0  0  0  0
 26 46  1  0  0  0  0
 28 47  1  0  0  0  0
 28 48  1  0  0  0  0
 29 49  1  0  0  0  0
M  END
> <Name>
23

> <IC50[uM]>
0.27

$$$$
23
  -OEChem-05192314333D
 Structure written by MMmdl.
 49 53  0     0  0  0  0  0  0999 V2000
   -6.3775   12.3296  -12.0018 C   0  0  0  0  0  0  0  0  0  0  0  0
   -6.5098   11.7629  -10.7403 C   0  0  0  0  0  0  0  0  0  0  0  0
   -7.7247   10.5660  -13.0266 C   0  0  0  0  0  0  0  0  0  0  0  0
   -6.9942   11.7487  -13.1193 C   0  0  0  0  0  0  0  0  0  0  0  0
   -7.8312   10.0057  -11.7538 C   0  0  0  0  0  0  0  0  0  0  0  0
   -7.2443   10.6021  -10.6070 C   0  0  0  0  0  0  0  0  0  0  0  0
   -7.6167    9.7449   -9.5151 C   0  0  0  0  0  0  0  0  0  0  0  0
   -8.2961    8.7374   -9.9786 N   0  0  0  0  0  0  0  0  0  0  0  0
   -8.4404    8.8724  -11.2937 N   0  0  0  0  0  0  0  0  0  0  0  0
   -7.3318    9.8946   -8.0252 C   0  0  0  0  0  0  0  0  0  0  0  0
   -5.5478   13.5112  -12.1572 C   0  0  0  0  0  0  0  0  0  0  0  0
   -5.9707   10.4870   -7.7351 C   0  0  0  0  0  0  0  0  0  0  0  0
   -5.8642   11.7588   -7.1694 C   0  0  0  0  0  0  0  0  0  0  0  0
   -4.6019   12.3141   -6.9186 C   0  0  0  0  0  0  0  0  0  0  0  0
   -3.4503   11.5963   -7.2357 C   0  0  0  0  0  0  0  0  0  0  0  0
   -3.5604   10.3220   -7.8000 C   0  0  0  0  0  0  0  0  0  0  0  0
   -4.8213    9.7719   -8.0443 C   0  0  0  0  0  0  0  0  0  0  0  0
   -2.0996   12.1710   -6.9757 C   0  0  0  0  0  0  0  0  0  0  0  0
   -1.7487   13.4240   -6.4767 C   0  0  0  0  0  0  0  0  0  0  0  0
   -0.4123   13.4674   -6.4260 N   0  0  0  0  0  0  0  0  0  0  0  0
    0.1713   12.3664   -6.8217 N   0  0  0  0  0  0  0  0  0  0  0  0
   -0.8093   11.5624   -7.1930 C   0  0  0  0  0  0  0  0  0  0  0  0
    0.4224   14.5657   -5.9816 C   0  0  0  0  0  0  0  0  0  0  0  0
   -5.6966   14.2423  -13.2612 N   0  0  0  0  0  0  0  0  0  0  0  0
   -4.9506   15.3153  -13.5405 C   0  0  0  0  0  0  0  0  0  0  0  0
   -3.9383   15.6899  -12.6782 C   0  0  0  0  0  0  0  0  0  0  0  0
   -3.7261   14.9536  -11.5366 C   0  0  0  0  0  0  0  0  0  0  0  0
   -4.5508   13.8769  -11.2437 C   0  0  0  0  0  0  0  0  0  0  0  0
   -2.6976   15.2614  -10.7139 N   0  0  0  0  0  0  0  0  0  0  0  0
   -6.0464   12.2223   -9.8797 H   0  0  0  0  0  0  0  0  0  0  0  0
   -8.1826   10.1089  -13.8914 H   0  0  0  0  0  0  0  0  0  0  0  0
   -7.6841   12.5064  -13.5191 H   0  0  0  0  0  0  0  0  0  0  0  0
   -6.1936   11.5599  -13.8497 H   0  0  0  0  0  0  0  0  0  0  0  0
   -8.0313    9.6067   -7.2544 H   0  0  0  0  0  0  0  0  0  0  0  0
   -6.7563   12.3160   -6.9245 H   0  0  0  0  0  0  0  0  0  0  0  0
   -4.5218   13.2977   -6.4798 H   0  0  0  0  0  0  0  0  0  0  0  0
   -2.6703    9.7625   -8.0472 H   0  0  0  0  0  0  0  0  0  0  0  0
   -4.9024    8.7852   -8.4759 H   0  0  0  0  0  0  0  0  0  0  0  0
   -2.4277   14.2118   -6.1857 H   0  0  0  0  0  0  0  0  0  0  0  0
   -0.6637   10.5754   -7.6065 H   0  0  0  0  0  0  0  0  0  0  0  0
    1.4809   14.2752   -6.0543 H   0  0  0  0  0  0  0  0  0  0  0  0
    0.2393   15.4453   -6.6162 H   0  0  0  0  0  0  0  0  0  0  0  0
    0.1804   14.8105   -4.9369 H   0  0  0  0  0  0  0  0  0  0  0  0
   -5.1384   15.8875  -14.4370 H   0  0  0  0  0  0  0  0  0  0  0  0
   -3.3221   16.5493  -12.8978 H   0  0  0  0  0  0  0  0  0  0  0  0
   -5.0546   14.1072  -10.2933 H   0  0  0  0  0  0  0  0  0  0  0  0
   -3.8997   13.0003  -11.1106 H   0  0  0  0  0  0  0  0  0  0  0  0
   -2.6901   14.6302   -9.9383 H   0  0  0  0  0  0  0  0  0  0  0  0
   -1.8356   15.1840  -11.2148 H   0  0  0  0  0  0  0  0  0  0  0  0
  1  2  1  0  0  0  0
  1  4  1  0  0  0  0
  1 11  2  0  0  0  0
  2  6  2  0  0  0  0
  3  4  1  0  0  0  0
  3  5  2  0  0  0  0
  5  6  1  0  0  0  0
  5  9  1  0  0  0  0
  6  7  1  0  0  0  0
  7  8  1  0  0  0  0
  7 10  2  3  0  0  0
  8  9  2  0  0  0  0
 10 12  1  0  0  0  0
 11 24  1  0  0  0  0
 11 28  1  0  0  0  0
 12 13  2  0  0  0  0
 12 17  1  0  0  0  0
 13 14  1  0  0  0  0
 14 15  2  0  0  0  0
 15 16  1  0  0  0  0
 15 18  1  0  0  0  0
 16 17  2  0  0  0  0
 18 19  2  0  0  0  0
 18 22  1  0  0  0  0
 19 20  1  0  0  0  0
 20 21  1  0  0  0  0
 20 23  1  0  0  0  0
 21 22  2  0  0  0  0
 24 25  2  0  0  0  0
 25 26  1  0  0  0  0
 26 27  2  0  0  0  0
 27 28  1  0  0  0  0
 27 29  1  0  0  0  0
  2 30  1  0  0  0  0
  3 31  1  0  0  0  0
  4 32  1  0  0  0  0
  4 33  1  0  0  0  0
 10 34  1  0  0  0  0
 13 35  1  0  0  0  0
 14 36  1  0  0  0  0
 16 37  1  0  0  0  0
 17 38  1  0  0  0  0
 19 39  1  0  0  0  0
 22 40  1  0  0  0  0
 23 41  1  0  0  0  0
 23 42  1  0  0  0  0
 23 43  1  0  0  0  0
 25 44  1  0  0  0  0
 26 45  1  0  0  0  0
 28 46  1  0  0  0  0
 28 47  1  0  0  0  0
 29 48  1  0  0  0  0
 29 49  1  0  0  0  0
M  END
> <Name>
23

> <IC50[uM]>
0.27

$$$$
23
  -OEChem-05192314333D
 Structure written by MMmdl.
 49 53  0     0  0  0  0  0  0999 V2000
   -6.3775   12.3296  -12.0018 C   0  0  0  0  0  0  0  0  0  0  0  0
   -6.5098   11.7629  -10.7403 C   0  0  0  0  0  0  0  0  0  0  0  0
   -7.7247   10.5660  -13.0266 C   0  0  0  0  0  0  0  0  0  0  0  0
   -6.9942   11.7487  -13.1193 C   0  0  0  0  0  0  0  0  0  0  0  0
   -7.8312   10.0057  -11.7538 C   0  0  0  0  0  0  0  0  0  0  0  0
   -7.2443   10.6021  -10.6070 C   0  0  0  0  0  0  0  0  0  0  0  0
   -7.6167    9.7449   -9.5151 C   0  0  0  0  0  0  0  0  0  0  0  0
   -8.2961    8.7374   -9.9786 N   0  0  0  0  0  0  0  0  0  0  0  0
   -8.4404    8.8724  -11.2937 N   0  0  0  0  0  0  0  0  0  0  0  0
   -7.3318    9.8946   -8.0252 C   0  0  0  0  0  0  0  0  0  0  0  0
   -5.5478   13.5112  -12.1572 C   0  0  0  0  0  0  0  0  0  0  0  0
   -5.9707   10.4870   -7.7351 C   0  0  0  0  0  0  0  0  0  0  0  0
   -5.8642   11.7588   -7.1694 C   0  0  0  0  0  0  0  0  0  0  0  0
   -4.6019   12.3141   -6.9186 C   0  0  0  0  0  0  0  0  0  0  0  0
   -3.4503   11.5963   -7.2357 C   0  0  0  0  0  0  0  0  0  0  0  0
   -3.5604   10.3220   -7.8000 C   0  0  0  0  0  0  0  0  0  0  0  0
   -4.8213    9.7719   -8.0443 C   0  0  0  0  0  0  0  0  0  0  0  0
   -2.0996   12.1710   -6.9757 C   0  0  0  0  0  0  0  0  0  0  0  0
   -1.7487   13.4240   -6.4767 C   0  0  0  0  0  0  0  0  0  0  0  0
   -0.4123   13.4674   -6.4260 N   0  0  0  0  0  0  0  0  0  0  0  0
    0.1713   12.3664   -6.8217 N   0  0  0  0  0  0  0  0  0  0  0  0
   -0.8093   11.5624   -7.1930 C   0  0  0  0  0  0  0  0  0  0  0  0
    0.4224   14.5657   -5.9816 C   0  0  0  0  0  0  0  0  0  0  0  0
   -5.6966   14.2423  -13.2612 N   0  0  0  0  0  0  0  0  0  0  0  0
   -4.9506   15.3153  -13.5405 C   0  0  0  0  0  0  0  0  0  0  0  0
   -3.9383   15.6899  -12.6782 C   0  0  0  0  0  0  0  0  0  0  0  0
   -3.7261   14.9536  -11.5366 C   0  0  0  0  0  0  0  0  0  0  0  0
   -4.5508   13.8769  -11.2437 C   0  0  0  0  0  0  0  0  0  0  0  0
   -2.6976   15.2614  -10.7139 N   0  0  0  0  0  0  0  0  0  0  0  0
   -6.0464   12.2223   -9.8797 H   0  0  0  0  0  0  0  0  0  0  0  0
   -8.1826   10.1089  -13.8914 H   0  0  0  0  0  0  0  0  0  0  0  0
   -7.6841   12.5064  -13.5191 H   0  0  0  0  0  0  0  0  0  0  0  0
   -6.1936   11.5599  -13.8497 H   0  0  0  0  0  0  0  0  0  0  0  0
   -8.0313    9.6067   -7.2544 H   0  0  0  0  0  0  0  0  0  0  0  0
   -6.7563   12.3160   -6.9245 H   0  0  0  0  0  0  0  0  0  0  0  0
   -4.5218   13.2977   -6.4798 H   0  0  0  0  0  0  0  0  0  0  0  0
   -2.6703    9.7625   -8.0472 H   0  0  0  0  0  0  0  0  0  0  0  0
   -4.9024    8.7852   -8.4759 H   0  0  0  0  0  0  0  0  0  0  0  0
   -2.4277   14.2118   -6.1857 H   0  0  0  0  0  0  0  0  0  0  0  0
   -0.6637   10.5754   -7.6065 H   0  0  0  0  0  0  0  0  0  0  0  0
    1.4809   14.2752   -6.0543 H   0  0  0  0  0  0  0  0  0  0  0  0
    0.2393   15.4453   -6.6162 H   0  0  0  0  0  0  0  0  0  0  0  0
    0.1804   14.8105   -4.9369 H   0  0  0  0  0  0  0  0  0  0  0  0
   -6.4038   13.9739  -13.9153 H   0  0  0  0  0  0  0  0  0  0  0  0
   -5.1384   15.8875  -14.4370 H   0  0  0  0  0  0  0  0  0  0  0  0
   -3.3221   16.5493  -12.8978 H   0  0  0  0  0  0  0  0  0  0  0  0
   -5.0546   14.1072  -10.2933 H   0  0  0  0  0  0  0  0  0  0  0  0
   -3.8997   13.0003  -11.1106 H   0  0  0  0  0  0  0  0  0  0  0  0
   -2.6419   14.6376   -9.9343 H   0  0  0  0  0  0  0  0  0  0  0  0
  1  2  1  0  0  0  0
  1  4  1  0  0  0  0
  1 11  2  0  0  0  0
  2  6  2  0  0  0  0
  3  4  1  0  0  0  0
  3  5  2  0  0  0  0
  5  6  1  0  0  0  0
  5  9  1  0  0  0  0
  6  7  1  0  0  0  0
  7  8  1  0  0  0  0
  7 10  2  3  0  0  0
  8  9  2  0  0  0  0
 10 12  1  0  0  0  0
 11 24  1  0  0  0  0
 11 28  1  0  0  0  0
 12 13  2  0  0  0  0
 12 17  1  0  0  0  0
 13 14  1  0  0  0  0
 14 15  2  0  0  0  0
 15 16  1  0  0  0  0
 15 18  1  0  0  0  0
 16 17  2  0  0  0  0
 18 19  2  0  0  0  0
 18 22  1  0  0  0  0
 19 20  1  0  0  0  0
 20 21  1  0  0  0  0
 20 23  1  0  0  0  0
 21 22  2  0  0  0  0
 24 25  1  0  0  0  0
 25 26  2  0  0  0  0
 26 27  1  0  0  0  0
 27 28  1  0  0  0  0
 27 29  2  0  0  0  0
  2 30  1  0  0  0  0
  3 31  1  0  0  0  0
  4 32  1  0  0  0  0
  4 33  1  0  0  0  0
 10 34  1  0  0  0  0
 13 35  1  0  0  0  0
 14 36  1  0  0  0  0
 16 37  1  0  0  0  0
 17 38  1  0  0  0  0
 19 39  1  0  0  0  0
 22 40  1  0  0  0  0
 23 41  1  0  0  0  0
 23 42  1  0  0  0  0
 23 43  1  0  0  0  0
 24 44  1  0  0  0  0
 25 45  1  0  0  0  0
 26 46  1  0  0  0  0
 28 47  1  0  0  0  0
 28 48  1  0  0  0  0
 29 49  1  0  0  0  0
M  END
> <Name>
23

> <IC50[uM]>
0.27

$$$$
23
  -OEChem-05192314333D
 Structure written by MMmdl.
 49 53  0     0  0  0  0  0  0999 V2000
   -6.3775   12.3296  -12.0018 C   0  0  0  0  0  0  0  0  0  0  0  0
   -6.5098   11.7629  -10.7403 C   0  0  0  0  0  0  0  0  0  0  0  0
   -7.7247   10.5660  -13.0266 C   0  0  0  0  0  0  0  0  0  0  0  0
   -6.9942   11.7487  -13.1193 C   0  0  0  0  0  0  0  0  0  0  0  0
   -7.8312   10.0057  -11.7538 C   0  0  0  0  0  0  0  0  0  0  0  0
   -7.2443   10.6021  -10.6070 C   0  0  0  0  0  0  0  0  0  0  0  0
   -7.6167    9.7449   -9.5151 C   0  0  0  0  0  0  0  0  0  0  0  0
   -8.2961    8.7374   -9.9786 N   0  0  0  0  0  0  0  0  0  0  0  0
   -8.4404    8.8724  -11.2937 N   0  0  0  0  0  0  0  0  0  0  0  0
   -7.3318    9.8946   -8.0252 C   0  0  0  0  0  0  0  0  0  0  0  0
   -5.5478   13.5112  -12.1572 C   0  0  0  0  0  0  0  0  0  0  0  0
   -5.9707   10.4870   -7.7351 C   0  0  0  0  0  0  0  0  0  0  0  0
   -5.8642   11.7588   -7.1694 C   0  0  0  0  0  0  0  0  0  0  0  0
   -4.6019   12.3141   -6.9186 C   0  0  0  0  0  0  0  0  0  0  0  0
   -3.4503   11.5963   -7.2357 C   0  0  0  0  0  0  0  0  0  0  0  0
   -3.5604   10.3220   -7.8000 C   0  0  0  0  0  0  0  0  0  0  0  0
   -4.8213    9.7719   -8.0443 C   0  0  0  0  0  0  0  0  0  0  0  0
   -2.0996   12.1710   -6.9757 C   0  0  0  0  0  0  0  0  0  0  0  0
   -1.7487   13.4240   -6.4767 C   0  0  0  0  0  0  0  0  0  0  0  0
   -0.4123   13.4674   -6.4260 N   0  0  0  0  0  0  0  0  0  0  0  0
    0.1713   12.3664   -6.8217 N   0  0  0  0  0  0  0  0  0  0  0  0
   -0.8093   11.5624   -7.1930 C   0  0  0  0  0  0  0  0  0  0  0  0
    0.4224   14.5657   -5.9816 C   0  0  0  0  0  0  0  0  0  0  0  0
   -5.6966   14.2423  -13.2612 N   0  0  0  0  0  0  0  0  0  0  0  0
   -4.9506   15.3153  -13.5405 C   0  0  0  0  0  0  0  0  0  0  0  0
   -3.9383   15.6899  -12.6782 C   0  0  0  0  0  0  0  0  0  0  0  0
   -3.7261   14.9536  -11.5366 C   0  0  0  0  0  0  0  0  0  0  0  0
   -4.5508   13.8769  -11.2437 C   0  0  0  0  0  0  0  0  0  0  0  0
   -2.6976   15.2614  -10.7139 N   0  0  0  0  0  0  0  0  0  0  0  0
   -5.4950   11.5473  -10.3746 H   0  0  0  0  0  0  0  0  0  0  0  0
   -6.9796   12.5188  -10.0939 H   0  0  0  0  0  0  0  0  0  0  0  0
   -8.1826   10.1089  -13.8914 H   0  0  0  0  0  0  0  0  0  0  0  0
   -6.9001   12.2325  -14.0803 H   0  0  0  0  0  0  0  0  0  0  0  0
   -8.0313    9.6067   -7.2544 H   0  0  0  0  0  0  0  0  0  0  0  0
   -6.7563   12.3160   -6.9245 H   0  0  0  0  0  0  0  0  0  0  0  0
   -4.5218   13.2977   -6.4798 H   0  0  0  0  0  0  0  0  0  0  0  0
   -2.6703    9.7625   -8.0472 H   0  0  0  0  0  0  0  0  0  0  0  0
   -4.9024    8.7852   -8.4759 H   0  0  0  0  0  0  0  0  0  0  0  0
   -2.4277   14.2118   -6.1857 H   0  0  0  0  0  0  0  0  0  0  0  0
   -0.6637   10.5754   -7.6065 H   0  0  0  0  0  0  0  0  0  0  0  0
    1.4809   14.2752   -6.0543 H   0  0  0  0  0  0  0  0  0  0  0  0
    0.2393   15.4453   -6.6162 H   0  0  0  0  0  0  0  0  0  0  0  0
    0.1804   14.8105   -4.9369 H   0  0  0  0  0  0  0  0  0  0  0  0
   -5.1384   15.8875  -14.4370 H   0  0  0  0  0  0  0  0  0  0  0  0
   -3.0010   15.6690  -13.2536 H   0  0  0  0  0  0  0  0  0  0  0  0
   -4.1509   16.7215  -12.3610 H   0  0  0  0  0  0  0  0  0  0  0  0
   -4.4255   13.3274  -10.3224 H   0  0  0  0  0  0  0  0  0  0  0  0
   -2.6901   14.6302   -9.9383 H   0  0  0  0  0  0  0  0  0  0  0  0
   -1.8356   15.1840  -11.2148 H   0  0  0  0  0  0  0  0  0  0  0  0
  1  2  1  0  0  0  0
  1  4  1  0  0  0  0
  1 11  2  0  0  0  0
  2  6  1  0  0  0  0
  3  4  2  0  0  0  0
  3  5  1  0  0  0  0
  5  6  2  0  0  0  0
  5  9  1  0  0  0  0
  6  7  1  0  0  0  0
  7  8  1  0  0  0  0
  7 10  2  3  0  0  0
  8  9  2  0  0  0  0
 10 12  1  0  0  0  0
 11 24  1  0  0  0  0
 11 28  1  0  0  0  0
 12 13  2  0  0  0  0
 12 17  1  0  0  0  0
 13 14  1  0  0  0  0
 14 15  2  0  0  0  0
 15 16  1  0  0  0  0
 15 18  1  0  0  0  0
 16 17  2  0  0  0  0
 18 19  2  0  0  0  0
 18 22  1  0  0  0  0
 19 20  1  0  0  0  0
 20 21  1  0  0  0  0
 20 23  1  0  0  0  0
 21 22  2  0  0  0  0
 24 25  2  0  0  0  0
 25 26  1  0  0  0  0
 26 27  1  0  0  0  0
 27 28  2  0  0  0  0
 27 29  1  0  0  0  0
  2 30  1  0  0  0  0
  2 31  1  0  0  0  0
  3 32  1  0  0  0  0
  4 33  1  0  0  0  0
 10 34  1  0  0  0  0
 13 35  1  0  0  0  0
 14 36  1  0  0  0  0
 16 37  1  0  0  0  0
 17 38  1  0  0  0  0
 19 39  1  0  0  0  0
 22 40  1  0  0  0  0
 23 41  1  0  0  0  0
 23 42  1  0  0  0  0
 23 43  1  0  0  0  0
 25 44  1  0  0  0  0
 26 45  1  0  0  0  0
 26 46  1  0  0  0  0
 28 47  1  0  0  0  0
 29 48  1  0  0  0  0
 29 49  1  0  0  0  0
M  END
> <Name>
23

> <IC50[uM]>
0.27

$$$$
23
  -OEChem-05192314333D
 Structure written by MMmdl.
 49 53  0     0  0  0  0  0  0999 V2000
   -6.3775   12.3296  -12.0018 C   0  0  0  0  0  0  0  0  0  0  0  0
   -6.5098   11.7629  -10.7403 C   0  0  0  0  0  0  0  0  0  0  0  0
   -7.7247   10.5660  -13.0266 C   0  0  0  0  0  0  0  0  0  0  0  0
   -6.9942   11.7487  -13.1193 C   0  0  0  0  0  0  0  0  0  0  0  0
   -7.8312   10.0057  -11.7538 C   0  0  0  0  0  0  0  0  0  0  0  0
   -7.2443   10.6021  -10.6070 C   0  0  0  0  0  0  0  0  0  0  0  0
   -7.6167    9.7449   -9.5151 C   0  0  0  0  0  0  0  0  0  0  0  0
   -8.2961    8.7374   -9.9786 N   0  0  0  0  0  0  0  0  0  0  0  0
   -8.4404    8.8724  -11.2937 N   0  0  0  0  0  0  0  0  0  0  0  0
   -7.3318    9.8946   -8.0252 C   0  0  0  0  0  0  0  0  0  0  0  0
   -5.5478   13.5112  -12.1572 C   0  0  0  0  0  0  0  0  0  0  0  0
   -5.9707   10.4870   -7.7351 C   0  0  0  0  0  0  0  0  0  0  0  0
   -5.8642   11.7588   -7.1694 C   0  0  0  0  0  0  0  0  0  0  0  0
   -4.6019   12.3141   -6.9186 C   0  0  0  0  0  0  0  0  0  0  0  0
   -3.4503   11.5963   -7.2357 C   0  0  0  0  0  0  0  0  0  0  0  0
   -3.5604   10.3220   -7.8000 C   0  0  0  0  0  0  0  0  0  0  0  0
   -4.8213    9.7719   -8.0443 C   0  0  0  0  0  0  0  0  0  0  0  0
   -2.0996   12.1710   -6.9757 C   0  0  0  0  0  0  0  0  0  0  0  0
   -1.7487   13.4240   -6.4767 C   0  0  0  0  0  0  0  0  0  0  0  0
   -0.4123   13.4674   -6.4260 N   0  0  0  0  0  0  0  0  0  0  0  0
    0.1713   12.3664   -6.8217 N   0  0  0  0  0  0  0  0  0  0  0  0
   -0.8093   11.5624   -7.1930 C   0  0  0  0  0  0  0  0  0  0  0  0
    0.4224   14.5657   -5.9816 C   0  0  0  0  0  0  0  0  0  0  0  0
   -5.6966   14.2423  -13.2612 N   0  0  0  0  0  0  0  0  0  0  0  0
   -4.9506   15.3153  -13.5405 C   0  0  0  0  0  0  0  0  0  0  0  0
   -3.9383   15.6899  -12.6782 C   0  0  0  0  0  0  0  0  0  0  0  0
   -3.7261   14.9536  -11.5366 C   0  0  0  0  0  0  0  0  0  0  0  0
   -4.5508   13.8769  -11.2437 C   0  0  0  0  0  0  0  0  0  0  0  0
   -2.6976   15.2614  -10.7139 N   0  0  0  0  0  0  0  0  0  0  0  0
   -5.4950   11.5473  -10.3746 H   0  0  0  0  0  0  0  0  0  0  0  0
   -6.9796   12.5188  -10.0939 H   0  0  0  0  0  0  0  0  0  0  0  0
   -8.1826   10.1089  -13.8914 H   0  0  0  0  0  0  0  0  0  0  0  0
   -6.9001   12.2325  -14.0803 H   0  0  0  0  0  0  0  0  0  0  0  0
   -8.0313    9.6067   -7.2544 H   0  0  0  0  0  0  0  0  0  0  0  0
   -6.7563   12.3160   -6.9245 H   0  0  0  0  0  0  0  0  0  0  0  0
   -4.5218   13.2977   -6.4798 H   0  0  0  0  0  0  0  0  0  0  0  0
   -2.6703    9.7625   -8.0472 H   0  0  0  0  0  0  0  0  0  0  0  0
   -4.9024    8.7852   -8.4759 H   0  0  0  0  0  0  0  0  0  0  0  0
   -2.4277   14.2118   -6.1857 H   0  0  0  0  0  0  0  0  0  0  0  0
   -0.6637   10.5754   -7.6065 H   0  0  0  0  0  0  0  0  0  0  0  0
    1.4809   14.2752   -6.0543 H   0  0  0  0  0  0  0  0  0  0  0  0
    0.2393   15.4453   -6.6162 H   0  0  0  0  0  0  0  0  0  0  0  0
    0.1804   14.8105   -4.9369 H   0  0  0  0  0  0  0  0  0  0  0  0
   -5.1384   15.8875  -14.4370 H   0  0  0  0  0  0  0  0  0  0  0  0
   -3.3221   16.5493  -12.8978 H   0  0  0  0  0  0  0  0  0  0  0  0
   -5.0546   14.1072  -10.2933 H   0  0  0  0  0  0  0  0  0  0  0  0
   -3.8997   13.0003  -11.1106 H   0  0  0  0  0  0  0  0  0  0  0  0
   -2.6901   14.6302   -9.9383 H   0  0  0  0  0  0  0  0  0  0  0  0
   -1.8356   15.1840  -11.2148 H   0  0  0  0  0  0  0  0  0  0  0  0
  1  2  1  0  0  0  0
  1  4  1  0  0  0  0
  1 11  2  0  0  0  0
  2  6  1  0  0  0  0
  3  4  2  0  0  0  0
  3  5  1  0  0  0  0
  5  6  2  0  0  0  0
  5  9  1  0  0  0  0
  6  7  1  0  0  0  0
  7  8  1  0  0  0  0
  7 10  2  3  0  0  0
  8  9  2  0  0  0  0
 10 12  1  0  0  0  0
 11 24  1  0  0  0  0
 11 28  1  0  0  0  0
 12 13  2  0  0  0  0
 12 17  1  0  0  0  0
 13 14  1  0  0  0  0
 14 15  2  0  0  0  0
 15 16  1  0  0  0  0
 15 18  1  0  0  0  0
 16 17  2  0  0  0  0
 18 19  2  0  0  0  0
 18 22  1  0  0  0  0
 19 20  1  0  0  0  0
 20 21  1  0  0  0  0
 20 23  1  0  0  0  0
 21 22  2  0  0  0  0
 24 25  2  0  0  0  0
 25 26  1  0  0  0  0
 26 27  2  0  0  0  0
 27 28  1  0  0  0  0
 27 29  1  0  0  0  0
  2 30  1  0  0  0  0
  2 31  1  0  0  0  0
  3 32  1  0  0  0  0
  4 33  1  0  0  0  0
 10 34  1  0  0  0  0
 13 35  1  0  0  0  0
 14 36  1  0  0  0  0
 16 37  1  0  0  0  0
 17 38  1  0  0  0  0
 19 39  1  0  0  0  0
 22 40  1  0  0  0  0
 23 41  1  0  0  0  0
 23 42  1  0  0  0  0
 23 43  1  0  0  0  0
 25 44  1  0  0  0  0
 26 45  1  0  0  0  0
 28 46  1  0  0  0  0
 28 47  1  0  0  0  0
 29 48  1  0  0  0  0
 29 49  1  0  0  0  0
M  END
> <Name>
23

> <IC50[uM]>
0.27

$$$$
23
  -OEChem-05192314333D
 Structure written by MMmdl.
 49 53  0     0  0  0  0  0  0999 V2000
   -6.3775   12.3296  -12.0018 C   0  0  0  0  0  0  0  0  0  0  0  0
   -6.5098   11.7629  -10.7403 C   0  0  0  0  0  0  0  0  0  0  0  0
   -7.7247   10.5660  -13.0266 C   0  0  0  0  0  0  0  0  0  0  0  0
   -6.9942   11.7487  -13.1193 C   0  0  0  0  0  0  0  0  0  0  0  0
   -7.8312   10.0057  -11.7538 C   0  0  0  0  0  0  0  0  0  0  0  0
   -7.2443   10.6021  -10.6070 C   0  0  0  0  0  0  0  0  0  0  0  0
   -7.6167    9.7449   -9.5151 C   0  0  0  0  0  0  0  0  0  0  0  0
   -8.2961    8.7374   -9.9786 N   0  0  0  0  0  0  0  0  0  0  0  0
   -8.4404    8.8724  -11.2937 N   0  0  0  0  0  0  0  0  0  0  0  0
   -7.3318    9.8946   -8.0252 C   0  0  0  0  0  0  0  0  0  0  0  0
   -5.5478   13.5112  -12.1572 C   0  0  0  0  0  0  0  0  0  0  0  0
   -5.9707   10.4870   -7.7351 C   0  0  0  0  0  0  0  0  0  0  0  0
   -5.8642   11.7588   -7.1694 C   0  0  0  0  0  0  0  0  0  0  0  0
   -4.6019   12.3141   -6.9186 C   0  0  0  0  0  0  0  0  0  0  0  0
   -3.4503   11.5963   -7.2357 C   0  0  0  0  0  0  0  0  0  0  0  0
   -3.5604   10.3220   -7.8000 C   0  0  0  0  0  0  0  0  0  0  0  0
   -4.8213    9.7719   -8.0443 C   0  0  0  0  0  0  0  0  0  0  0  0
   -2.0996   12.1710   -6.9757 C   0  0  0  0  0  0  0  0  0  0  0  0
   -1.7487   13.4240   -6.4767 C   0  0  0  0  0  0  0  0  0  0  0  0
   -0.4123   13.4674   -6.4260 N   0  0  0  0  0  0  0  0  0  0  0  0
    0.1713   12.3664   -6.8217 N   0  0  0  0  0  0  0  0  0  0  0  0
   -0.8093   11.5624   -7.1930 C   0  0  0  0  0  0  0  0  0  0  0  0
    0.4224   14.5657   -5.9816 C   0  0  0  0  0  0  0  0  0  0  0  0
   -5.6966   14.2423  -13.2612 N   0  0  0  0  0  0  0  0  0  0  0  0
   -4.9506   15.3153  -13.5405 C   0  0  0  0  0  0  0  0  0  0  0  0
   -3.9383   15.6899  -12.6782 C   0  0  0  0  0  0  0  0  0  0  0  0
   -3.7261   14.9536  -11.5366 C   0  0  0  0  0  0  0  0  0  0  0  0
   -4.5508   13.8769  -11.2437 C   0  0  0  0  0  0  0  0  0  0  0  0
   -2.6976   15.2614  -10.7139 N   0  0  0  0  0  0  0  0  0  0  0  0
   -5.4950   11.5473  -10.3746 H   0  0  0  0  0  0  0  0  0  0  0  0
   -6.9796   12.5188  -10.0939 H   0  0  0  0  0  0  0  0  0  0  0  0
   -8.1826   10.1089  -13.8914 H   0  0  0  0  0  0  0  0  0  0  0  0
   -6.9001   12.2325  -14.0803 H   0  0  0  0  0  0  0  0  0  0  0  0
   -8.0313    9.6067   -7.2544 H   0  0  0  0  0  0  0  0  0  0  0  0
   -6.7563   12.3160   -6.9245 H   0  0  0  0  0  0  0  0  0  0  0  0
   -4.5218   13.2977   -6.4798 H   0  0  0  0  0  0  0  0  0  0  0  0
   -2.6703    9.7625   -8.0472 H   0  0  0  0  0  0  0  0  0  0  0  0
   -4.9024    8.7852   -8.4759 H   0  0  0  0  0  0  0  0  0  0  0  0
   -2.4277   14.2118   -6.1857 H   0  0  0  0  0  0  0  0  0  0  0  0
   -0.6637   10.5754   -7.6065 H   0  0  0  0  0  0  0  0  0  0  0  0
    1.4809   14.2752   -6.0543 H   0  0  0  0  0  0  0  0  0  0  0  0
    0.2393   15.4453   -6.6162 H   0  0  0  0  0  0  0  0  0  0  0  0
    0.1804   14.8105   -4.9369 H   0  0  0  0  0  0  0  0  0  0  0  0
   -6.4038   13.9739  -13.9153 H   0  0  0  0  0  0  0  0  0  0  0  0
   -5.1384   15.8875  -14.4370 H   0  0  0  0  0  0  0  0  0  0  0  0
   -3.3221   16.5493  -12.8978 H   0  0  0  0  0  0  0  0  0  0  0  0
   -5.0546   14.1072  -10.2933 H   0  0  0  0  0  0  0  0  0  0  0  0
   -3.8997   13.0003  -11.1106 H   0  0  0  0  0  0  0  0  0  0  0  0
   -2.6419   14.6376   -9.9343 H   0  0  0  0  0  0  0  0  0  0  0  0
  1  2  1  0  0  0  0
  1  4  1  0  0  0  0
  1 11  2  0  0  0  0
  2  6  1  0  0  0  0
  3  4  2  0  0  0  0
  3  5  1  0  0  0  0
  5  6  2  0  0  0  0
  5  9  1  0  0  0  0
  6  7  1  0  0  0  0
  7  8  1  0  0  0  0
  7 10  2  3  0  0  0
  8  9  2  0  0  0  0
 10 12  1  0  0  0  0
 11 24  1  0  0  0  0
 11 28  1  0  0  0  0
 12 13  2  0  0  0  0
 12 17  1  0  0  0  0
 13 14  1  0  0  0  0
 14 15  2  0  0  0  0
 15 16  1  0  0  0  0
 15 18  1  0  0  0  0
 16 17  2  0  0  0  0
 18 19  2  0  0  0  0
 18 22  1  0  0  0  0
 19 20  1  0  0  0  0
 20 21  1  0  0  0  0
 20 23  1  0  0  0  0
 21 22  2  0  0  0  0
 24 25  1  0  0  0  0
 25 26  2  0  0  0  0
 26 27  1  0  0  0  0
 27 28  1  0  0  0  0
 27 29  2  0  0  0  0
  2 30  1  0  0  0  0
  2 31  1  0  0  0  0
  3 32  1  0  0  0  0
  4 33  1  0  0  0  0
 10 34  1  0  0  0  0
 13 35  1  0  0  0  0
 14 36  1  0  0  0  0
 16 37  1  0  0  0  0
 17 38  1  0  0  0  0
 19 39  1  0  0  0  0
 22 40  1  0  0  0  0
 23 41  1  0  0  0  0
 23 42  1  0  0  0  0
 23 43  1  0  0  0  0
 24 44  1  0  0  0  0
 25 45  1  0  0  0  0
 26 46  1  0  0  0  0
 28 47  1  0  0  0  0
 28 48  1  0  0  0  0
 29 49  1  0  0  0  0
M  END
> <Name>
23

> <IC50[uM]>
0.27

$$$$
23
  -OEChem-05192314333D
 Structure written by MMmdl.
 49 53  0     1  0  0  0  0  0999 V2000
   -6.3775   12.3296  -12.0018 C   0  0  0  0  0  0  0  0  0  0  0  0
   -6.5098   11.7629  -10.7403 C   0  0  0  0  0  0  0  0  0  0  0  0
   -7.7247   10.5660  -13.0266 C   0  0  0  0  0  0  0  0  0  0  0  0
   -6.9942   11.7487  -13.1193 C   0  0  0  0  0  0  0  0  0  0  0  0
   -7.8312   10.0057  -11.7538 C   0  0  3  0  0  0  0  0  0  0  0  0
   -7.2443   10.6021  -10.6070 C   0  0  0  0  0  0  0  0  0  0  0  0
   -7.6167    9.7449   -9.5151 C   0  0  0  0  0  0  0  0  0  0  0  0
   -8.2961    8.7374   -9.9786 N   0  0  0  0  0  0  0  0  0  0  0  0
   -8.4404    8.8724  -11.2937 N   0  0  0  0  0  0  0  0  0  0  0  0
   -7.3318    9.8946   -8.0252 C   0  0  0  0  0  0  0  0  0  0  0  0
   -5.5478   13.5112  -12.1572 C   0  0  0  0  0  0  0  0  0  0  0  0
   -5.9707   10.4870   -7.7351 C   0  0  0  0  0  0  0  0  0  0  0  0
   -5.8642   11.7588   -7.1694 C   0  0  0  0  0  0  0  0  0  0  0  0
   -4.6019   12.3141   -6.9186 C   0  0  0  0  0  0  0  0  0  0  0  0
   -3.4503   11.5963   -7.2357 C   0  0  0  0  0  0  0  0  0  0  0  0
   -3.5604   10.3220   -7.8000 C   0  0  0  0  0  0  0  0  0  0  0  0
   -4.8213    9.7719   -8.0443 C   0  0  0  0  0  0  0  0  0  0  0  0
   -2.0996   12.1710   -6.9757 C   0  0  0  0  0  0  0  0  0  0  0  0
   -1.7487   13.4240   -6.4767 C   0  0  0  0  0  0  0  0  0  0  0  0
   -0.4123   13.4674   -6.4260 N   0  0  0  0  0  0  0  0  0  0  0  0
    0.1713   12.3664   -6.8217 N   0  0  0  0  0  0  0  0  0  0  0  0
   -0.8093   11.5624   -7.1930 C   0  0  0  0  0  0  0  0  0  0  0  0
    0.4224   14.5657   -5.9816 C   0  0  0  0  0  0  0  0  0  0  0  0
   -5.6966   14.2423  -13.2612 N   0  0  0  0  0  0  0  0  0  0  0  0
   -4.9506   15.3153  -13.5405 C   0  0  0  0  0  0  0  0  0  0  0  0
   -3.9383   15.6899  -12.6782 C   0  0  0  0  0  0  0  0  0  0  0  0
   -3.7261   14.9536  -11.5366 C   0  0  0  0  0  0  0  0  0  0  0  0
   -4.5508   13.8769  -11.2437 C   0  0  0  0  0  0  0  0  0  0  0  0
   -2.6976   15.2614  -10.7139 N   0  0  0  0  0  0  0  0  0  0  0  0
   -6.0464   12.2223   -9.8797 H   0  0  0  0  0  0  0  0  0  0  0  0
   -8.1826   10.1089  -13.8914 H   0  0  0  0  0  0  0  0  0  0  0  0
   -6.9001   12.2325  -14.0803 H   0  0  0  0  0  0  0  0  0  0  0  0
   -8.7557   10.5755  -11.5787 H   0  0  0  0  0  0  0  0  0  0  0  0
   -8.0313    9.6067   -7.2544 H   0  0  0  0  0  0  0  0  0  0  0  0
   -6.7563   12.3160   -6.9245 H   0  0  0  0  0  0  0  0  0  0  0  0
   -4.5218   13.2977   -6.4798 H   0  0  0  0  0  0  0  0  0  0  0  0
   -2.6703    9.7625   -8.0472 H   0  0  0  0  0  0  0  0  0  0  0  0
   -4.9024    8.7852   -8.4759 H   0  0  0  0  0  0  0  0  0  0  0  0
   -2.4277   14.2118   -6.1857 H   0  0  0  0  0  0  0  0  0  0  0  0
   -0.6637   10.5754   -7.6065 H   0  0  0  0  0  0  0  0  0  0  0  0
    1.4809   14.2752   -6.0543 H   0  0  0  0  0  0  0  0  0  0  0  0
    0.2393   15.4453   -6.6162 H   0  0  0  0  0  0  0  0  0  0  0  0
    0.1804   14.8105   -4.9369 H   0  0  0  0  0  0  0  0  0  0  0  0
   -6.4038   13.9739  -13.9153 H   0  0  0  0  0  0  0  0  0  0  0  0
   -5.1384   15.8875  -14.4370 H   0  0  0  0  0  0  0  0  0  0  0  0
   -3.3221   16.5493  -12.8978 H   0  0  0  0  0  0  0  0  0  0  0  0
   -4.4255   13.3274  -10.3224 H   0  0  0  0  0  0  0  0  0  0  0  0
   -2.6901   14.6302   -9.9383 H   0  0  0  0  0  0  0  0  0  0  0  0
   -1.8356   15.1840  -11.2148 H   0  0  0  0  0  0  0  0  0  0  0  0
  1  2  1  0  0  0  0
  1  4  1  0  0  0  0
  1 11  2  0  0  0  0
  2  6  2  0  0  0  0
  3  4  2  0  0  0  0
  3  5  1  0  0  0  0
  5  6  1  0  0  0  0
  5  9  1  0  0  0  0
  6  7  1  0  0  0  0
  7  8  1  0  0  0  0
  7 10  2  3  0  0  0
  8  9  2  0  0  0  0
 10 12  1  0  0  0  0
 11 24  1  0  0  0  0
 11 28  1  0  0  0  0
 12 13  2  0  0  0  0
 12 17  1  0  0  0  0
 13 14  1  0  0  0  0
 14 15  2  0  0  0  0
 15 16  1  0  0  0  0
 15 18  1  0  0  0  0
 16 17  2  0  0  0  0
 18 19  2  0  0  0  0
 18 22  1  0  0  0  0
 19 20  1  0  0  0  0
 20 21  1  0  0  0  0
 20 23  1  0  0  0  0
 21 22  2  0  0  0  0
 24 25  1  0  0  0  0
 25 26  2  0  0  0  0
 26 27  1  0  0  0  0
 27 28  2  0  0  0  0
 27 29  1  0  0  0  0
  2 30  1  0  0  0  0
  3 31  1  0  0  0  0
  4 32  1  0  0  0  0
  5 33  1  0  0  0  0
 10 34  1  0  0  0  0
 13 35  1  0  0  0  0
 14 36  1  0  0  0  0
 16 37  1  0  0  0  0
 17 38  1  0  0  0  0
 19 39  1  0  0  0  0
 22 40  1  0  0  0  0
 23 41  1  0  0  0  0
 23 42  1  0  0  0  0
 23 43  1  0  0  0  0
 24 44  1  0  0  0  0
 25 45  1  0  0  0  0
 26 46  1  0  0  0  0
 28 47  1  0  0  0  0
 29 48  1  0  0  0  0
 29 49  1  0  0  0  0
M  END
> <Name>
23

> <IC50[uM]>
0.27

$$$$
23
  -OEChem-05192314333D
 Structure written by MMmdl.
 49 53  0     0  0  0  0  0  0999 V2000
   -6.3775   12.3296  -12.0018 C   0  0  0  0  0  0  0  0  0  0  0  0
   -6.5098   11.7629  -10.7403 C   0  0  0  0  0  0  0  0  0  0  0  0
   -7.7247   10.5660  -13.0266 C   0  0  0  0  0  0  0  0  0  0  0  0
   -6.9942   11.7487  -13.1193 C   0  0  0  0  0  0  0  0  0  0  0  0
   -7.8312   10.0057  -11.7538 C   0  0  0  0  0  0  0  0  0  0  0  0
   -7.2443   10.6021  -10.6070 C   0  0  0  0  0  0  0  0  0  0  0  0
   -7.6167    9.7449   -9.5151 C   0  0  0  0  0  0  0  0  0  0  0  0
   -8.2961    8.7374   -9.9786 N   0  0  0  0  0  0  0  0  0  0  0  0
   -8.4404    8.8724  -11.2937 N   0  0  0  0  0  0  0  0  0  0  0  0
   -7.3318    9.8946   -8.0252 C   0  0  0  0  0  0  0  0  0  0  0  0
   -5.5478   13.5112  -12.1572 C   0  0  0  0  0  0  0  0  0  0  0  0
   -5.9707   10.4870   -7.7351 C   0  0  0  0  0  0  0  0  0  0  0  0
   -5.8642   11.7588   -7.1694 C   0  0  0  0  0  0  0  0  0  0  0  0
   -4.6019   12.3141   -6.9186 C   0  0  0  0  0  0  0  0  0  0  0  0
   -3.4503   11.5963   -7.2357 C   0  0  0  0  0  0  0  0  0  0  0  0
   -3.5604   10.3220   -7.8000 C   0  0  0  0  0  0  0  0  0  0  0  0
   -4.8213    9.7719   -8.0443 C   0  0  0  0  0  0  0  0  0  0  0  0
   -2.0996   12.1710   -6.9757 C   0  0  0  0  0  0  0  0  0  0  0  0
   -1.7487   13.4240   -6.4767 C   0  0  0  0  0  0  0  0  0  0  0  0
   -0.4123   13.4674   -6.4260 N   0  0  0  0  0  0  0  0  0  0  0  0
    0.1713   12.3664   -6.8217 N   0  0  0  0  0  0  0  0  0  0  0  0
   -0.8093   11.5624   -7.1930 C   0  0  0  0  0  0  0  0  0  0  0  0
    0.4224   14.5657   -5.9816 C   0  0  0  0  0  0  0  0  0  0  0  0
   -5.6966   14.2423  -13.2612 N   0  0  0  0  0  0  0  0  0  0  0  0
   -4.9506   15.3153  -13.5405 C   0  0  0  0  0  0  0  0  0  0  0  0
   -3.9383   15.6899  -12.6782 C   0  0  0  0  0  0  0  0  0  0  0  0
   -3.7261   14.9536  -11.5366 C   0  0  0  0  0  0  0  0  0  0  0  0
   -4.5508   13.8769  -11.2437 C   0  0  0  0  0  0  0  0  0  0  0  0
   -2.6976   15.2614  -10.7139 N   0  0  0  0  0  0  0  0  0  0  0  0
   -6.0464   12.2223   -9.8797 H   0  0  0  0  0  0  0  0  0  0  0  0
   -8.1826   10.1089  -13.8914 H   0  0  0  0  0  0  0  0  0  0  0  0
   -7.6841   12.5064  -13.5191 H   0  0  0  0  0  0  0  0  0  0  0  0
   -6.1936   11.5599  -13.8497 H   0  0  0  0  0  0  0  0  0  0  0  0
   -8.0313    9.6067   -7.2544 H   0  0  0  0  0  0  0  0  0  0  0  0
   -6.7563   12.3160   -6.9245 H   0  0  0  0  0  0  0  0  0  0  0  0
   -4.5218   13.2977   -6.4798 H   0  0  0  0  0  0  0  0  0  0  0  0
   -2.6703    9.7625   -8.0472 H   0  0  0  0  0  0  0  0  0  0  0  0
   -4.9024    8.7852   -8.4759 H   0  0  0  0  0  0  0  0  0  0  0  0
   -2.4277   14.2118   -6.1857 H   0  0  0  0  0  0  0  0  0  0  0  0
   -0.6637   10.5754   -7.6065 H   0  0  0  0  0  0  0  0  0  0  0  0
    1.4809   14.2752   -6.0543 H   0  0  0  0  0  0  0  0  0  0  0  0
    0.2393   15.4453   -6.6162 H   0  0  0  0  0  0  0  0  0  0  0  0
    0.1804   14.8105   -4.9369 H   0  0  0  0  0  0  0  0  0  0  0  0
   -6.4038   13.9739  -13.9153 H   0  0  0  0  0  0  0  0  0  0  0  0
   -5.1384   15.8875  -14.4370 H   0  0  0  0  0  0  0  0  0  0  0  0
   -3.3221   16.5493  -12.8978 H   0  0  0  0  0  0  0  0  0  0  0  0
   -4.4255   13.3274  -10.3224 H   0  0  0  0  0  0  0  0  0  0  0  0
   -2.6901   14.6302   -9.9383 H   0  0  0  0  0  0  0  0  0  0  0  0
   -1.8356   15.1840  -11.2148 H   0  0  0  0  0  0  0  0  0  0  0  0
  1  2  1  0  0  0  0
  1  4  1  0  0  0  0
  1 11  2  0  0  0  0
  2  6  2  0  0  0  0
  3  4  1  0  0  0  0
  3  5  2  0  0  0  0
  5  6  1  0  0  0  0
  5  9  1  0  0  0  0
  6  7  1  0  0  0  0
  7  8  1  0  0  0  0
  7 10  2  3  0  0  0
  8  9  2  0  0  0  0
 10 12  1  0  0  0  0
 11 24  1  0  0  0  0
 11 28  1  0  0  0  0
 12 13  2  0  0  0  0
 12 17  1  0  0  0  0
 13 14  1  0  0  0  0
 14 15  2  0  0  0  0
 15 16  1  0  0  0  0
 15 18  1  0  0  0  0
 16 17  2  0  0  0  0
 18 19  2  0  0  0  0
 18 22  1  0  0  0  0
 19 20  1  0  0  0  0
 20 21  1  0  0  0  0
 20 23  1  0  0  0  0
 21 22  2  0  0  0  0
 24 25  1  0  0  0  0
 25 26  2  0  0  0  0
 26 27  1  0  0  0  0
 27 28  2  0  0  0  0
 27 29  1  0  0  0  0
  2 30  1  0  0  0  0
  3 31  1  0  0  0  0
  4 32  1  0  0  0  0
  4 33  1  0  0  0  0
 10 34  1  0  0  0  0
 13 35  1  0  0  0  0
 14 36  1  0  0  0  0
 16 37  1  0  0  0  0
 17 38  1  0  0  0  0
 19 39  1  0  0  0  0
 22 40  1  0  0  0  0
 23 41  1  0  0  0  0
 23 42  1  0  0  0  0
 23 43  1  0  0  0  0
 24 44  1  0  0  0  0
 25 45  1  0  0  0  0
 26 46  1  0  0  0  0
 28 47  1  0  0  0  0
 29 48  1  0  0  0  0
 29 49  1  0  0  0  0
M  END
> <Name>
23

> <IC50[uM]>
0.27

$$$$
23
  -OEChem-05192314333D
 Structure written by MMmdl.
 49 53  0     0  0  0  0  0  0999 V2000
   -6.3775   12.3296  -12.0018 C   0  0  0  0  0  0  0  0  0  0  0  0
   -6.5098   11.7629  -10.7403 C   0  0  0  0  0  0  0  0  0  0  0  0
   -7.7247   10.5660  -13.0266 C   0  0  0  0  0  0  0  0  0  0  0  0
   -6.9942   11.7487  -13.1193 C   0  0  0  0  0  0  0  0  0  0  0  0
   -7.8312   10.0057  -11.7538 C   0  0  0  0  0  0  0  0  0  0  0  0
   -7.2443   10.6021  -10.6070 C   0  0  0  0  0  0  0  0  0  0  0  0
   -7.6167    9.7449   -9.5151 C   0  0  0  0  0  0  0  0  0  0  0  0
   -8.2961    8.7374   -9.9786 N   0  0  0  0  0  0  0  0  0  0  0  0
   -8.4404    8.8724  -11.2937 N   0  0  0  0  0  0  0  0  0  0  0  0
   -7.3318    9.8946   -8.0252 C   0  0  0  0  0  0  0  0  0  0  0  0
   -5.5478   13.5112  -12.1572 C   0  0  0  0  0  0  0  0  0  0  0  0
   -5.9707   10.4870   -7.7351 C   0  0  0  0  0  0  0  0  0  0  0  0
   -5.8642   11.7588   -7.1694 C   0  0  0  0  0  0  0  0  0  0  0  0
   -4.6019   12.3141   -6.9186 C   0  0  0  0  0  0  0  0  0  0  0  0
   -3.4503   11.5963   -7.2357 C   0  0  0  0  0  0  0  0  0  0  0  0
   -3.5604   10.3220   -7.8000 C   0  0  0  0  0  0  0  0  0  0  0  0
   -4.8213    9.7719   -8.0443 C   0  0  0  0  0  0  0  0  0  0  0  0
   -2.0996   12.1710   -6.9757 C   0  0  0  0  0  0  0  0  0  0  0  0
   -1.7487   13.4240   -6.4767 C   0  0  0  0  0  0  0  0  0  0  0  0
   -0.4123   13.4674   -6.4260 N   0  0  0  0  0  0  0  0  0  0  0  0
    0.1713   12.3664   -6.8217 N   0  0  0  0  0  0  0  0  0  0  0  0
   -0.8093   11.5624   -7.1930 C   0  0  0  0  0  0  0  0  0  0  0  0
    0.4224   14.5657   -5.9816 C   0  0  0  0  0  0  0  0  0  0  0  0
   -5.6966   14.2423  -13.2612 N   0  0  0  0  0  0  0  0  0  0  0  0
   -4.9506   15.3153  -13.5405 C   0  0  0  0  0  0  0  0  0  0  0  0
   -3.9383   15.6899  -12.6782 C   0  0  0  0  0  0  0  0  0  0  0  0
   -3.7261   14.9536  -11.5366 C   0  0  0  0  0  0  0  0  0  0  0  0
   -4.5508   13.8769  -11.2437 C   0  0  0  0  0  0  0  0  0  0  0  0
   -2.6976   15.2614  -10.7139 N   0  0  0  0  0  0  0  0  0  0  0  0
   -5.4950   11.5473  -10.3746 H   0  0  0  0  0  0  0  0  0  0  0  0
   -6.9796   12.5188  -10.0939 H   0  0  0  0  0  0  0  0  0  0  0  0
   -8.1826   10.1089  -13.8914 H   0  0  0  0  0  0  0  0  0  0  0  0
   -6.9001   12.2325  -14.0803 H   0  0  0  0  0  0  0  0  0  0  0  0
   -8.0313    9.6067   -7.2544 H   0  0  0  0  0  0  0  0  0  0  0  0
   -6.7563   12.3160   -6.9245 H   0  0  0  0  0  0  0  0  0  0  0  0
   -4.5218   13.2977   -6.4798 H   0  0  0  0  0  0  0  0  0  0  0  0
   -2.6703    9.7625   -8.0472 H   0  0  0  0  0  0  0  0  0  0  0  0
   -4.9024    8.7852   -8.4759 H   0  0  0  0  0  0  0  0  0  0  0  0
   -2.4277   14.2118   -6.1857 H   0  0  0  0  0  0  0  0  0  0  0  0
   -0.6637   10.5754   -7.6065 H   0  0  0  0  0  0  0  0  0  0  0  0
    1.4809   14.2752   -6.0543 H   0  0  0  0  0  0  0  0  0  0  0  0
    0.2393   15.4453   -6.6162 H   0  0  0  0  0  0  0  0  0  0  0  0
    0.1804   14.8105   -4.9369 H   0  0  0  0  0  0  0  0  0  0  0  0
   -6.4038   13.9739  -13.9153 H   0  0  0  0  0  0  0  0  0  0  0  0
   -5.1384   15.8875  -14.4370 H   0  0  0  0  0  0  0  0  0  0  0  0
   -3.3221   16.5493  -12.8978 H   0  0  0  0  0  0  0  0  0  0  0  0
   -4.4255   13.3274  -10.3224 H   0  0  0  0  0  0  0  0  0  0  0  0
   -2.6901   14.6302   -9.9383 H   0  0  0  0  0  0  0  0  0  0  0  0
   -1.8356   15.1840  -11.2148 H   0  0  0  0  0  0  0  0  0  0  0  0
  1  2  1  0  0  0  0
  1  4  1  0  0  0  0
  1 11  2  0  0  0  0
  2  6  1  0  0  0  0
  3  4  2  0  0  0  0
  3  5  1  0  0  0  0
  5  6  2  0  0  0  0
  5  9  1  0  0  0  0
  6  7  1  0  0  0  0
  7  8  1  0  0  0  0
  7 10  2  3  0  0  0
  8  9  2  0  0  0  0
 10 12  1  0  0  0  0
 11 24  1  0  0  0  0
 11 28  1  0  0  0  0
 12 13  2  0  0  0  0
 12 17  1  0  0  0  0
 13 14  1  0  0  0  0
 14 15  2  0  0  0  0
 15 16  1  0  0  0  0
 15 18  1  0  0  0  0
 16 17  2  0  0  0  0
 18 19  2  0  0  0  0
 18 22  1  0  0  0  0
 19 20  1  0  0  0  0
 20 21  1  0  0  0  0
 20 23  1  0  0  0  0
 21 22  2  0  0  0  0
 24 25  1  0  0  0  0
 25 26  2  0  0  0  0
 26 27  1  0  0  0  0
 27 28  2  0  0  0  0
 27 29  1  0  0  0  0
  2 30  1  0  0  0  0
  2 31  1  0  0  0  0
  3 32  1  0  0  0  0
  4 33  1  0  0  0  0
 10 34  1  0  0  0  0
 13 35  1  0  0  0  0
 14 36  1  0  0  0  0
 16 37  1  0  0  0  0
 17 38  1  0  0  0  0
 19 39  1  0  0  0  0
 22 40  1  0  0  0  0
 23 41  1  0  0  0  0
 23 42  1  0  0  0  0
 23 43  1  0  0  0  0
 24 44  1  0  0  0  0
 25 45  1  0  0  0  0
 26 46  1  0  0  0  0
 28 47  1  0  0  0  0
 29 48  1  0  0  0  0
 29 49  1  0  0  0  0
M  END
> <Name>
23

> <IC50[uM]>
0.27

$$$$
23
  -OEChem-05192314333D
 Structure written by MMmdl.
 49 53  0     0  0  0  0  0  0999 V2000
   -6.3775   12.3296  -12.0018 C   0  0  0  0  0  0  0  0  0  0  0  0
   -6.5098   11.7629  -10.7403 C   0  0  0  0  0  0  0  0  0  0  0  0
   -7.7247   10.5660  -13.0266 C   0  0  0  0  0  0  0  0  0  0  0  0
   -6.9942   11.7487  -13.1193 C   0  0  0  0  0  0  0  0  0  0  0  0
   -7.8312   10.0057  -11.7538 C   0  0  0  0  0  0  0  0  0  0  0  0
   -7.2443   10.6021  -10.6070 C   0  0  0  0  0  0  0  0  0  0  0  0
   -7.6167    9.7449   -9.5151 C   0  0  0  0  0  0  0  0  0  0  0  0
   -8.2961    8.7374   -9.9786 N   0  0  0  0  0  0  0  0  0  0  0  0
   -8.4404    8.8724  -11.2937 N   0  0  0  0  0  0  0  0  0  0  0  0
   -7.3318    9.8946   -8.0252 C   0  0  0  0  0  0  0  0  0  0  0  0
   -5.5478   13.5112  -12.1572 C   0  0  0  0  0  0  0  0  0  0  0  0
   -5.9707   10.4870   -7.7351 C   0  0  0  0  0  0  0  0  0  0  0  0
   -5.8642   11.7588   -7.1694 C   0  0  0  0  0  0  0  0  0  0  0  0
   -4.6019   12.3141   -6.9186 C   0  0  0  0  0  0  0  0  0  0  0  0
   -3.4503   11.5963   -7.2357 C   0  0  0  0  0  0  0  0  0  0  0  0
   -3.5604   10.3220   -7.8000 C   0  0  0  0  0  0  0  0  0  0  0  0
   -4.8213    9.7719   -8.0443 C   0  0  0  0  0  0  0  0  0  0  0  0
   -2.0996   12.1710   -6.9757 C   0  0  0  0  0  0  0  0  0  0  0  0
   -1.7487   13.4240   -6.4767 C   0  0  0  0  0  0  0  0  0  0  0  0
   -0.4123   13.4674   -6.4260 N   0  0  0  0  0  0  0  0  0  0  0  0
    0.1713   12.3664   -6.8217 N   0  0  0  0  0  0  0  0  0  0  0  0
   -0.8093   11.5624   -7.1930 C   0  0  0  0  0  0  0  0  0  0  0  0
    0.4224   14.5657   -5.9816 C   0  0  0  0  0  0  0  0  0  0  0  0
   -5.6966   14.2423  -13.2612 N   0  0  0  0  0  0  0  0  0  0  0  0
   -4.9506   15.3153  -13.5405 C   0  0  0  0  0  0  0  0  0  0  0  0
   -3.9383   15.6899  -12.6782 C   0  0  0  0  0  0  0  0  0  0  0  0
   -3.7261   14.9536  -11.5366 C   0  0  0  0  0  0  0  0  0  0  0  0
   -4.5508   13.8769  -11.2437 C   0  0  0  0  0  0  0  0  0  0  0  0
   -2.6976   15.2614  -10.7139 N   0  0  0  0  0  0  0  0  0  0  0  0
   -6.0464   12.2223   -9.8797 H   0  0  0  0  0  0  0  0  0  0  0  0
   -8.1826   10.1089  -13.8914 H   0  0  0  0  0  0  0  0  0  0  0  0
   -6.9001   12.2325  -14.0803 H   0  0  0  0  0  0  0  0  0  0  0  0
   -8.0313    9.6067   -7.2544 H   0  0  0  0  0  0  0  0  0  0  0  0
   -6.7563   12.3160   -6.9245 H   0  0  0  0  0  0  0  0  0  0  0  0
   -4.5218   13.2977   -6.4798 H   0  0  0  0  0  0  0  0  0  0  0  0
   -3.4477   12.0425   -8.2411 H   0  0  0  0  0  0  0  0  0  0  0  0
   -2.6703    9.7625   -8.0472 H   0  0  0  0  0  0  0  0  0  0  0  0
   -4.9024    8.7852   -8.4759 H   0  0  0  0  0  0  0  0  0  0  0  0
   -2.4277   14.2118   -6.1857 H   0  0  0  0  0  0  0  0  0  0  0  0
   -0.6637   10.5754   -7.6065 H   0  0  0  0  0  0  0  0  0  0  0  0
    1.4809   14.2752   -6.0543 H   0  0  0  0  0  0  0  0  0  0  0  0
    0.2393   15.4453   -6.6162 H   0  0  0  0  0  0  0  0  0  0  0  0
    0.1804   14.8105   -4.9369 H   0  0  0  0  0  0  0  0  0  0  0  0
   -5.1384   15.8875  -14.4370 H   0  0  0  0  0  0  0  0  0  0  0  0
   -3.0010   15.6690  -13.2536 H   0  0  0  0  0  0  0  0  0  0  0  0
   -4.1509   16.7215  -12.3610 H   0  0  0  0  0  0  0  0  0  0  0  0
   -5.0546   14.1072  -10.2933 H   0  0  0  0  0  0  0  0  0  0  0  0
   -3.8997   13.0003  -11.1106 H   0  0  0  0  0  0  0  0  0  0  0  0
   -2.6419   14.6376   -9.9343 H   0  0  0  0  0  0  0  0  0  0  0  0
  1  2  1  0  0  0  0
  1  4  1  0  0  0  0
  1 11  2  0  0  0  0
  2  6  2  0  0  0  0
  3  4  2  0  0  0  0
  3  5  1  0  0  0  0
  5  6  1  0  0  0  0
  5  9  2  0  0  0  0
  6  7  1  0  0  0  0
  7  8  2  0  0  0  0
  7 10  1  0  0  0  0
  8  9  1  0  0  0  0
 10 12  2  0  0  0  0
 11 24  1  0  0  0  0
 11 28  1  0  0  0  0
 12 13  1  0  0  0  0
 12 17  1  0  0  0  0
 13 14  2  0  0  0  0
 14 15  1  0  0  0  0
 15 16  1  0  0  0  0
 15 18  1  0  0  0  0
 16 17  2  0  0  0  0
 18 19  2  0  0  0  0
 18 22  1  0  0  0  0
 19 20  1  0  0  0  0
 20 21  1  0  0  0  0
 20 23  1  0  0  0  0
 21 22  2  0  0  0  0
 24 25  2  0  0  0  0
 25 26  1  0  0  0  0
 26 27  1  0  0  0  0
 27 28  1  0  0  0  0
 27 29  2  0  0  0  0
  2 30  1  0  0  0  0
  3 31  1  0  0  0  0
  4 32  1  0  0  0  0
 10 33  1  0  0  0  0
 13 34  1  0  0  0  0
 14 35  1  0  0  0  0
 15 36  1  0  0  0  0
 16 37  1  0  0  0  0
 17 38  1  0  0  0  0
 19 39  1  0  0  0  0
 22 40  1  0  0  0  0
 23 41  1  0  0  0  0
 23 42  1  0  0  0  0
 23 43  1  0  0  0  0
 25 44  1  0  0  0  0
 26 45  1  0  0  0  0
 26 46  1  0  0  0  0
 28 47  1  0  0  0  0
 28 48  1  0  0  0  0
 29 49  1  0  0  0  0
M  END
> <Name>
23

> <IC50[uM]>
0.27

$$$$
23
  -OEChem-05192314333D
 Structure written by MMmdl.
 49 53  0     0  0  0  0  0  0999 V2000
   -6.3775   12.3296  -12.0018 C   0  0  0  0  0  0  0  0  0  0  0  0
   -6.5098   11.7629  -10.7403 C   0  0  0  0  0  0  0  0  0  0  0  0
   -7.7247   10.5660  -13.0266 C   0  0  0  0  0  0  0  0  0  0  0  0
   -6.9942   11.7487  -13.1193 C   0  0  0  0  0  0  0  0  0  0  0  0
   -7.8312   10.0057  -11.7538 C   0  0  0  0  0  0  0  0  0  0  0  0
   -7.2443   10.6021  -10.6070 C   0  0  0  0  0  0  0  0  0  0  0  0
   -7.6167    9.7449   -9.5151 C   0  0  0  0  0  0  0  0  0  0  0  0
   -8.2961    8.7374   -9.9786 N   0  0  0  0  0  0  0  0  0  0  0  0
   -8.4404    8.8724  -11.2937 N   0  0  0  0  0  0  0  0  0  0  0  0
   -7.3318    9.8946   -8.0252 C   0  0  0  0  0  0  0  0  0  0  0  0
   -5.5478   13.5112  -12.1572 C   0  0  0  0  0  0  0  0  0  0  0  0
   -5.9707   10.4870   -7.7351 C   0  0  0  0  0  0  0  0  0  0  0  0
   -5.8642   11.7588   -7.1694 C   0  0  0  0  0  0  0  0  0  0  0  0
   -4.6019   12.3141   -6.9186 C   0  0  0  0  0  0  0  0  0  0  0  0
   -3.4503   11.5963   -7.2357 C   0  0  0  0  0  0  0  0  0  0  0  0
   -3.5604   10.3220   -7.8000 C   0  0  0  0  0  0  0  0  0  0  0  0
   -4.8213    9.7719   -8.0443 C   0  0  0  0  0  0  0  0  0  0  0  0
   -2.0996   12.1710   -6.9757 C   0  0  0  0  0  0  0  0  0  0  0  0
   -1.7487   13.4240   -6.4767 C   0  0  0  0  0  0  0  0  0  0  0  0
   -0.4123   13.4674   -6.4260 N   0  0  0  0  0  0  0  0  0  0  0  0
    0.1713   12.3664   -6.8217 N   0  0  0  0  0  0  0  0  0  0  0  0
   -0.8093   11.5624   -7.1930 C   0  0  0  0  0  0  0  0  0  0  0  0
    0.4224   14.5657   -5.9816 C   0  0  0  0  0  0  0  0  0  0  0  0
   -5.6966   14.2423  -13.2612 N   0  0  0  0  0  0  0  0  0  0  0  0
   -4.9506   15.3153  -13.5405 C   0  0  0  0  0  0  0  0  0  0  0  0
   -3.9383   15.6899  -12.6782 C   0  0  0  0  0  0  0  0  0  0  0  0
   -3.7261   14.9536  -11.5366 C   0  0  0  0  0  0  0  0  0  0  0  0
   -4.5508   13.8769  -11.2437 C   0  0  0  0  0  0  0  0  0  0  0  0
   -2.6976   15.2614  -10.7139 N   0  0  0  0  0  0  0  0  0  0  0  0
   -6.0464   12.2223   -9.8797 H   0  0  0  0  0  0  0  0  0  0  0  0
   -8.1826   10.1089  -13.8914 H   0  0  0  0  0  0  0  0  0  0  0  0
   -6.9001   12.2325  -14.0803 H   0  0  0  0  0  0  0  0  0  0  0  0
   -8.0313    9.6067   -7.2544 H   0  0  0  0  0  0  0  0  0  0  0  0
   -6.7563   12.3160   -6.9245 H   0  0  0  0  0  0  0  0  0  0  0  0
   -4.5218   13.2977   -6.4798 H   0  0  0  0  0  0  0  0  0  0  0  0
   -2.6703    9.7625   -8.0472 H   0  0  0  0  0  0  0  0  0  0  0  0
   -4.8715    8.8319   -7.4752 H   0  0  0  0  0  0  0  0  0  0  0  0
   -4.8665    9.5515   -9.1210 H   0  0  0  0  0  0  0  0  0  0  0  0
   -2.4277   14.2118   -6.1857 H   0  0  0  0  0  0  0  0  0  0  0  0
   -0.6637   10.5754   -7.6065 H   0  0  0  0  0  0  0  0  0  0  0  0
    1.4809   14.2752   -6.0543 H   0  0  0  0  0  0  0  0  0  0  0  0
    0.2393   15.4453   -6.6162 H   0  0  0  0  0  0  0  0  0  0  0  0
    0.1804   14.8105   -4.9369 H   0  0  0  0  0  0  0  0  0  0  0  0
   -5.1384   15.8875  -14.4370 H   0  0  0  0  0  0  0  0  0  0  0  0
   -3.0010   15.6690  -13.2536 H   0  0  0  0  0  0  0  0  0  0  0  0
   -4.1509   16.7215  -12.3610 H   0  0  0  0  0  0  0  0  0  0  0  0
   -5.0546   14.1072  -10.2933 H   0  0  0  0  0  0  0  0  0  0  0  0
   -3.8997   13.0003  -11.1106 H   0  0  0  0  0  0  0  0  0  0  0  0
   -2.6419   14.6376   -9.9343 H   0  0  0  0  0  0  0  0  0  0  0  0
  1  2  1  0  0  0  0
  1  4  1  0  0  0  0
  1 11  2  0  0  0  0
  2  6  2  0  0  0  0
  3  4  2  0  0  0  0
  3  5  1  0  0  0  0
  5  6  1  0  0  0  0
  5  9  2  0  0  0  0
  6  7  1  0  0  0  0
  7  8  2  0  0  0  0
  7 10  1  0  0  0  0
  8  9  1  0  0  0  0
 10 12  2  3  0  0  0
 11 24  1  0  0  0  0
 11 28  1  0  0  0  0
 12 13  1  0  0  0  0
 12 17  1  0  0  0  0
 13 14  2  0  0  0  0
 14 15  1  0  0  0  0
 15 16  2  0  0  0  0
 15 18  1  0  0  0  0
 16 17  1  0  0  0  0
 18 19  2  0  0  0  0
 18 22  1  0  0  0  0
 19 20  1  0  0  0  0
 20 21  1  0  0  0  0
 20 23  1  0  0  0  0
 21 22  2  0  0  0  0
 24 25  2  0  0  0  0
 25 26  1  0  0  0  0
 26 27  1  0  0  0  0
 27 28  1  0  0  0  0
 27 29  2  0  0  0  0
  2 30  1  0  0  0  0
  3 31  1  0  0  0  0
  4 32  1  0  0  0  0
 10 33  1  0  0  0  0
 13 34  1  0  0  0  0
 14 35  1  0  0  0  0
 16 36  1  0  0  0  0
 17 37  1  0  0  0  0
 17 38  1  0  0  0  0
 19 39  1  0  0  0  0
 22 40  1  0  0  0  0
 23 41  1  0  0  0  0
 23 42  1  0  0  0  0
 23 43  1  0  0  0  0
 25 44  1  0  0  0  0
 26 45  1  0  0  0  0
 26 46  1  0  0  0  0
 28 47  1  0  0  0  0
 28 48  1  0  0  0  0
 29 49  1  0  0  0  0
M  END
> <Name>
23

> <IC50[uM]>
0.27

$$$$
23
  -OEChem-05192314333D
 Structure written by MMmdl.
 49 53  0     0  0  0  0  0  0999 V2000
   -6.3775   12.3296  -12.0018 C   0  0  0  0  0  0  0  0  0  0  0  0
   -6.5098   11.7629  -10.7403 C   0  0  0  0  0  0  0  0  0  0  0  0
   -7.7247   10.5660  -13.0266 C   0  0  0  0  0  0  0  0  0  0  0  0
   -6.9942   11.7487  -13.1193 C   0  0  0  0  0  0  0  0  0  0  0  0
   -7.8312   10.0057  -11.7538 C   0  0  0  0  0  0  0  0  0  0  0  0
   -7.2443   10.6021  -10.6070 C   0  0  0  0  0  0  0  0  0  0  0  0
   -7.6167    9.7449   -9.5151 C   0  0  0  0  0  0  0  0  0  0  0  0
   -8.2961    8.7374   -9.9786 N   0  0  0  0  0  0  0  0  0  0  0  0
   -8.4404    8.8724  -11.2937 N   0  0  0  0  0  0  0  0  0  0  0  0
   -7.3318    9.8946   -8.0252 C   0  0  0  0  0  0  0  0  0  0  0  0
   -5.5478   13.5112  -12.1572 C   0  0  0  0  0  0  0  0  0  0  0  0
   -5.9707   10.4870   -7.7351 C   0  0  0  0  0  0  0  0  0  0  0  0
   -5.8642   11.7588   -7.1694 C   0  0  0  0  0  0  0  0  0  0  0  0
   -4.6019   12.3141   -6.9186 C   0  0  0  0  0  0  0  0  0  0  0  0
   -3.4503   11.5963   -7.2357 C   0  0  0  0  0  0  0  0  0  0  0  0
   -3.5604   10.3220   -7.8000 C   0  0  0  0  0  0  0  0  0  0  0  0
   -4.8213    9.7719   -8.0443 C   0  0  0  0  0  0  0  0  0  0  0  0
   -2.0996   12.1710   -6.9757 C   0  0  0  0  0  0  0  0  0  0  0  0
   -1.7487   13.4240   -6.4767 C   0  0  0  0  0  0  0  0  0  0  0  0
   -0.4123   13.4674   -6.4260 N   0  0  0  0  0  0  0  0  0  0  0  0
    0.1713   12.3664   -6.8217 N   0  0  0  0  0  0  0  0  0  0  0  0
   -0.8093   11.5624   -7.1930 C   0  0  0  0  0  0  0  0  0  0  0  0
    0.4224   14.5657   -5.9816 C   0  0  0  0  0  0  0  0  0  0  0  0
   -5.6966   14.2423  -13.2612 N   0  0  0  0  0  0  0  0  0  0  0  0
   -4.9506   15.3153  -13.5405 C   0  0  0  0  0  0  0  0  0  0  0  0
   -3.9383   15.6899  -12.6782 C   0  0  0  0  0  0  0  0  0  0  0  0
   -3.7261   14.9536  -11.5366 C   0  0  0  0  0  0  0  0  0  0  0  0
   -4.5508   13.8769  -11.2437 C   0  0  0  0  0  0  0  0  0  0  0  0
   -2.6976   15.2614  -10.7139 N   0  0  0  0  0  0  0  0  0  0  0  0
   -6.0464   12.2223   -9.8797 H   0  0  0  0  0  0  0  0  0  0  0  0
   -8.1826   10.1089  -13.8914 H   0  0  0  0  0  0  0  0  0  0  0  0
   -6.9001   12.2325  -14.0803 H   0  0  0  0  0  0  0  0  0  0  0  0
   -8.0313    9.6067   -7.2544 H   0  0  0  0  0  0  0  0  0  0  0  0
   -6.7563   12.3160   -6.9245 H   0  0  0  0  0  0  0  0  0  0  0  0
   -4.5218   13.2977   -6.4798 H   0  0  0  0  0  0  0  0  0  0  0  0
   -3.4477   12.0425   -8.2411 H   0  0  0  0  0  0  0  0  0  0  0  0
   -2.6703    9.7625   -8.0472 H   0  0  0  0  0  0  0  0  0  0  0  0
   -4.9024    8.7852   -8.4759 H   0  0  0  0  0  0  0  0  0  0  0  0
   -2.4277   14.2118   -6.1857 H   0  0  0  0  0  0  0  0  0  0  0  0
   -0.6637   10.5754   -7.6065 H   0  0  0  0  0  0  0  0  0  0  0  0
    1.4809   14.2752   -6.0543 H   0  0  0  0  0  0  0  0  0  0  0  0
    0.2393   15.4453   -6.6162 H   0  0  0  0  0  0  0  0  0  0  0  0
    0.1804   14.8105   -4.9369 H   0  0  0  0  0  0  0  0  0  0  0  0
   -5.1384   15.8875  -14.4370 H   0  0  0  0  0  0  0  0  0  0  0  0
   -3.0010   15.6690  -13.2536 H   0  0  0  0  0  0  0  0  0  0  0  0
   -4.1509   16.7215  -12.3610 H   0  0  0  0  0  0  0  0  0  0  0  0
   -4.4255   13.3274  -10.3224 H   0  0  0  0  0  0  0  0  0  0  0  0
   -2.6901   14.6302   -9.9383 H   0  0  0  0  0  0  0  0  0  0  0  0
   -1.8356   15.1840  -11.2148 H   0  0  0  0  0  0  0  0  0  0  0  0
  1  2  1  0  0  0  0
  1  4  1  0  0  0  0
  1 11  2  0  0  0  0
  2  6  2  0  0  0  0
  3  4  2  0  0  0  0
  3  5  1  0  0  0  0
  5  6  1  0  0  0  0
  5  9  2  0  0  0  0
  6  7  1  0  0  0  0
  7  8  2  0  0  0  0
  7 10  1  0  0  0  0
  8  9  1  0  0  0  0
 10 12  2  0  0  0  0
 11 24  1  0  0  0  0
 11 28  1  0  0  0  0
 12 13  1  0  0  0  0
 12 17  1  0  0  0  0
 13 14  2  0  0  0  0
 14 15  1  0  0  0  0
 15 16  1  0  0  0  0
 15 18  1  0  0  0  0
 16 17  2  0  0  0  0
 18 19  2  0  0  0  0
 18 22  1  0  0  0  0
 19 20  1  0  0  0  0
 20 21  1  0  0  0  0
 20 23  1  0  0  0  0
 21 22  2  0  0  0  0
 24 25  2  0  0  0  0
 25 26  1  0  0  0  0
 26 27  1  0  0  0  0
 27 28  2  0  0  0  0
 27 29  1  0  0  0  0
  2 30  1  0  0  0  0
  3 31  1  0  0  0  0
  4 32  1  0  0  0  0
 10 33  1  0  0  0  0
 13 34  1  0  0  0  0
 14 35  1  0  0  0  0
 15 36  1  0  0  0  0
 16 37  1  0  0  0  0
 17 38  1  0  0  0  0
 19 39  1  0  0  0  0
 22 40  1  0  0  0  0
 23 41  1  0  0  0  0
 23 42  1  0  0  0  0
 23 43  1  0  0  0  0
 25 44  1  0  0  0  0
 26 45  1  0  0  0  0
 26 46  1  0  0  0  0
 28 47  1  0  0  0  0
 29 48  1  0  0  0  0
 29 49  1  0  0  0  0
M  END
> <Name>
23

> <IC50[uM]>
0.27

$$$$
23
  -OEChem-05192314333D
 Structure written by MMmdl.
 49 53  0     0  0  0  0  0  0999 V2000
   -6.3775   12.3296  -12.0018 C   0  0  0  0  0  0  0  0  0  0  0  0
   -6.5098   11.7629  -10.7403 C   0  0  0  0  0  0  0  0  0  0  0  0
   -7.7247   10.5660  -13.0266 C   0  0  0  0  0  0  0  0  0  0  0  0
   -6.9942   11.7487  -13.1193 C   0  0  0  0  0  0  0  0  0  0  0  0
   -7.8312   10.0057  -11.7538 C   0  0  0  0  0  0  0  0  0  0  0  0
   -7.2443   10.6021  -10.6070 C   0  0  0  0  0  0  0  0  0  0  0  0
   -7.6167    9.7449   -9.5151 C   0  0  0  0  0  0  0  0  0  0  0  0
   -8.2961    8.7374   -9.9786 N   0  0  0  0  0  0  0  0  0  0  0  0
   -8.4404    8.8724  -11.2937 N   0  0  0  0  0  0  0  0  0  0  0  0
   -7.3318    9.8946   -8.0252 C   0  0  0  0  0  0  0  0  0  0  0  0
   -5.5478   13.5112  -12.1572 C   0  0  0  0  0  0  0  0  0  0  0  0
   -5.9707   10.4870   -7.7351 C   0  0  0  0  0  0  0  0  0  0  0  0
   -5.8642   11.7588   -7.1694 C   0  0  0  0  0  0  0  0  0  0  0  0
   -4.6019   12.3141   -6.9186 C   0  0  0  0  0  0  0  0  0  0  0  0
   -3.4503   11.5963   -7.2357 C   0  0  0  0  0  0  0  0  0  0  0  0
   -3.5604   10.3220   -7.8000 C   0  0  0  0  0  0  0  0  0  0  0  0
   -4.8213    9.7719   -8.0443 C   0  0  0  0  0  0  0  0  0  0  0  0
   -2.0996   12.1710   -6.9757 C   0  0  0  0  0  0  0  0  0  0  0  0
   -1.7487   13.4240   -6.4767 C   0  0  0  0  0  0  0  0  0  0  0  0
   -0.4123   13.4674   -6.4260 N   0  0  0  0  0  0  0  0  0  0  0  0
    0.1713   12.3664   -6.8217 N   0  0  0  0  0  0  0  0  0  0  0  0
   -0.8093   11.5624   -7.1930 C   0  0  0  0  0  0  0  0  0  0  0  0
    0.4224   14.5657   -5.9816 C   0  0  0  0  0  0  0  0  0  0  0  0
   -5.6966   14.2423  -13.2612 N   0  0  0  0  0  0  0  0  0  0  0  0
   -4.9506   15.3153  -13.5405 C   0  0  0  0  0  0  0  0  0  0  0  0
   -3.9383   15.6899  -12.6782 C   0  0  0  0  0  0  0  0  0  0  0  0
   -3.7261   14.9536  -11.5366 C   0  0  0  0  0  0  0  0  0  0  0  0
   -4.5508   13.8769  -11.2437 C   0  0  0  0  0  0  0  0  0  0  0  0
   -2.6976   15.2614  -10.7139 N   0  0  0  0  0  0  0  0  0  0  0  0
   -6.0464   12.2223   -9.8797 H   0  0  0  0  0  0  0  0  0  0  0  0
   -8.1826   10.1089  -13.8914 H   0  0  0  0  0  0  0  0  0  0  0  0
   -6.9001   12.2325  -14.0803 H   0  0  0  0  0  0  0  0  0  0  0  0
   -8.0313    9.6067   -7.2544 H   0  0  0  0  0  0  0  0  0  0  0  0
   -6.7563   12.3160   -6.9245 H   0  0  0  0  0  0  0  0  0  0  0  0
   -4.5218   13.2977   -6.4798 H   0  0  0  0  0  0  0  0  0  0  0  0
   -2.6703    9.7625   -8.0472 H   0  0  0  0  0  0  0  0  0  0  0  0
   -4.8715    8.8319   -7.4752 H   0  0  0  0  0  0  0  0  0  0  0  0
   -4.8665    9.5515   -9.1210 H   0  0  0  0  0  0  0  0  0  0  0  0
   -2.4277   14.2118   -6.1857 H   0  0  0  0  0  0  0  0  0  0  0  0
   -0.6637   10.5754   -7.6065 H   0  0  0  0  0  0  0  0  0  0  0  0
    1.4809   14.2752   -6.0543 H   0  0  0  0  0  0  0  0  0  0  0  0
    0.2393   15.4453   -6.6162 H   0  0  0  0  0  0  0  0  0  0  0  0
    0.1804   14.8105   -4.9369 H   0  0  0  0  0  0  0  0  0  0  0  0
   -5.1384   15.8875  -14.4370 H   0  0  0  0  0  0  0  0  0  0  0  0
   -3.0010   15.6690  -13.2536 H   0  0  0  0  0  0  0  0  0  0  0  0
   -4.1509   16.7215  -12.3610 H   0  0  0  0  0  0  0  0  0  0  0  0
   -4.4255   13.3274  -10.3224 H   0  0  0  0  0  0  0  0  0  0  0  0
   -2.6901   14.6302   -9.9383 H   0  0  0  0  0  0  0  0  0  0  0  0
   -1.8356   15.1840  -11.2148 H   0  0  0  0  0  0  0  0  0  0  0  0
  1  2  1  0  0  0  0
  1  4  1  0  0  0  0
  1 11  2  0  0  0  0
  2  6  2  0  0  0  0
  3  4  2  0  0  0  0
  3  5  1  0  0  0  0
  5  6  1  0  0  0  0
  5  9  2  0  0  0  0
  6  7  1  0  0  0  0
  7  8  2  0  0  0  0
  7 10  1  0  0  0  0
  8  9  1  0  0  0  0
 10 12  2  3  0  0  0
 11 24  1  0  0  0  0
 11 28  1  0  0  0  0
 12 13  1  0  0  0  0
 12 17  1  0  0  0  0
 13 14  2  0  0  0  0
 14 15  1  0  0  0  0
 15 16  2  0  0  0  0
 15 18  1  0  0  0  0
 16 17  1  0  0  0  0
 18 19  2  0  0  0  0
 18 22  1  0  0  0  0
 19 20  1  0  0  0  0
 20 21  1  0  0  0  0
 20 23  1  0  0  0  0
 21 22  2  0  0  0  0
 24 25  2  0  0  0  0
 25 26  1  0  0  0  0
 26 27  1  0  0  0  0
 27 28  2  0  0  0  0
 27 29  1  0  0  0  0
  2 30  1  0  0  0  0
  3 31  1  0  0  0  0
  4 32  1  0  0  0  0
 10 33  1  0  0  0  0
 13 34  1  0  0  0  0
 14 35  1  0  0  0  0
 16 36  1  0  0  0  0
 17 37  1  0  0  0  0
 17 38  1  0  0  0  0
 19 39  1  0  0  0  0
 22 40  1  0  0  0  0
 23 41  1  0  0  0  0
 23 42  1  0  0  0  0
 23 43  1  0  0  0  0
 25 44  1  0  0  0  0
 26 45  1  0  0  0  0
 26 46  1  0  0  0  0
 28 47  1  0  0  0  0
 29 48  1  0  0  0  0
 29 49  1  0  0  0  0
M  END
> <Name>
23

> <IC50[uM]>
0.27

$$$$
23
  -OEChem-05192314333D
 Structure written by MMmdl.
 49 53  0     0  0  0  0  0  0999 V2000
   -6.3775   12.3296  -12.0018 C   0  0  0  0  0  0  0  0  0  0  0  0
   -6.5098   11.7629  -10.7403 C   0  0  0  0  0  0  0  0  0  0  0  0
   -7.7247   10.5660  -13.0266 C   0  0  0  0  0  0  0  0  0  0  0  0
   -6.9942   11.7487  -13.1193 C   0  0  0  0  0  0  0  0  0  0  0  0
   -7.8312   10.0057  -11.7538 C   0  0  0  0  0  0  0  0  0  0  0  0
   -7.2443   10.6021  -10.6070 C   0  0  0  0  0  0  0  0  0  0  0  0
   -7.6167    9.7449   -9.5151 C   0  0  0  0  0  0  0  0  0  0  0  0
   -8.2961    8.7374   -9.9786 N   0  0  0  0  0  0  0  0  0  0  0  0
   -8.4404    8.8724  -11.2937 N   0  0  0  0  0  0  0  0  0  0  0  0
   -7.3318    9.8946   -8.0252 C   0  0  0  0  0  0  0  0  0  0  0  0
   -5.5478   13.5112  -12.1572 C   0  0  0  0  0  0  0  0  0  0  0  0
   -5.9707   10.4870   -7.7351 C   0  0  0  0  0  0  0  0  0  0  0  0
   -5.8642   11.7588   -7.1694 C   0  0  0  0  0  0  0  0  0  0  0  0
   -4.6019   12.3141   -6.9186 C   0  0  0  0  0  0  0  0  0  0  0  0
   -3.4503   11.5963   -7.2357 C   0  0  0  0  0  0  0  0  0  0  0  0
   -3.5604   10.3220   -7.8000 C   0  0  0  0  0  0  0  0  0  0  0  0
   -4.8213    9.7719   -8.0443 C   0  0  0  0  0  0  0  0  0  0  0  0
   -2.0996   12.1710   -6.9757 C   0  0  0  0  0  0  0  0  0  0  0  0
   -1.7487   13.4240   -6.4767 C   0  0  0  0  0  0  0  0  0  0  0  0
   -0.4123   13.4674   -6.4260 N   0  0  0  0  0  0  0  0  0  0  0  0
    0.1713   12.3664   -6.8217 N   0  0  0  0  0  0  0  0  0  0  0  0
   -0.8093   11.5624   -7.1930 C   0  0  0  0  0  0  0  0  0  0  0  0
    0.4224   14.5657   -5.9816 C   0  0  0  0  0  0  0  0  0  0  0  0
   -5.6966   14.2423  -13.2612 N   0  0  0  0  0  0  0  0  0  0  0  0
   -4.9506   15.3153  -13.5405 C   0  0  0  0  0  0  0  0  0  0  0  0
   -3.9383   15.6899  -12.6782 C   0  0  0  0  0  0  0  0  0  0  0  0
   -3.7261   14.9536  -11.5366 C   0  0  0  0  0  0  0  0  0  0  0  0
   -4.5508   13.8769  -11.2437 C   0  0  0  0  0  0  0  0  0  0  0  0
   -2.6976   15.2614  -10.7139 N   0  0  0  0  0  0  0  0  0  0  0  0
   -6.0464   12.2223   -9.8797 H   0  0  0  0  0  0  0  0  0  0  0  0
   -8.1826   10.1089  -13.8914 H   0  0  0  0  0  0  0  0  0  0  0  0
   -6.9001   12.2325  -14.0803 H   0  0  0  0  0  0  0  0  0  0  0  0
   -8.0313    9.6067   -7.2544 H   0  0  0  0  0  0  0  0  0  0  0  0
   -6.7563   12.3160   -6.9245 H   0  0  0  0  0  0  0  0  0  0  0  0
   -4.5218   13.2977   -6.4798 H   0  0  0  0  0  0  0  0  0  0  0  0
   -3.4477   12.0425   -8.2411 H   0  0  0  0  0  0  0  0  0  0  0  0
   -2.6703    9.7625   -8.0472 H   0  0  0  0  0  0  0  0  0  0  0  0
   -4.9024    8.7852   -8.4759 H   0  0  0  0  0  0  0  0  0  0  0  0
   -2.4277   14.2118   -6.1857 H   0  0  0  0  0  0  0  0  0  0  0  0
   -0.6637   10.5754   -7.6065 H   0  0  0  0  0  0  0  0  0  0  0  0
    1.4809   14.2752   -6.0543 H   0  0  0  0  0  0  0  0  0  0  0  0
    0.2393   15.4453   -6.6162 H   0  0  0  0  0  0  0  0  0  0  0  0
    0.1804   14.8105   -4.9369 H   0  0  0  0  0  0  0  0  0  0  0  0
   -5.1384   15.8875  -14.4370 H   0  0  0  0  0  0  0  0  0  0  0  0
   -3.3221   16.5493  -12.8978 H   0  0  0  0  0  0  0  0  0  0  0  0
   -5.0546   14.1072  -10.2933 H   0  0  0  0  0  0  0  0  0  0  0  0
   -3.8997   13.0003  -11.1106 H   0  0  0  0  0  0  0  0  0  0  0  0
   -2.6901   14.6302   -9.9383 H   0  0  0  0  0  0  0  0  0  0  0  0
   -1.8356   15.1840  -11.2148 H   0  0  0  0  0  0  0  0  0  0  0  0
  1  2  1  0  0  0  0
  1  4  1  0  0  0  0
  1 11  2  0  0  0  0
  2  6  2  0  0  0  0
  3  4  2  0  0  0  0
  3  5  1  0  0  0  0
  5  6  1  0  0  0  0
  5  9  2  0  0  0  0
  6  7  1  0  0  0  0
  7  8  2  0  0  0  0
  7 10  1  0  0  0  0
  8  9  1  0  0  0  0
 10 12  2  0  0  0  0
 11 24  1  0  0  0  0
 11 28  1  0  0  0  0
 12 13  1  0  0  0  0
 12 17  1  0  0  0  0
 13 14  2  0  0  0  0
 14 15  1  0  0  0  0
 15 16  1  0  0  0  0
 15 18  1  0  0  0  0
 16 17  2  0  0  0  0
 18 19  2  0  0  0  0
 18 22  1  0  0  0  0
 19 20  1  0  0  0  0
 20 21  1  0  0  0  0
 20 23  1  0  0  0  0
 21 22  2  0  0  0  0
 24 25  2  0  0  0  0
 25 26  1  0  0  0  0
 26 27  2  0  0  0  0
 27 28  1  0  0  0  0
 27 29  1  0  0  0  0
  2 30  1  0  0  0  0
  3 31  1  0  0  0  0
  4 32  1  0  0  0  0
 10 33  1  0  0  0  0
 13 34  1  0  0  0  0
 14 35  1  0  0  0  0
 15 36  1  0  0  0  0
 16 37  1  0  0  0  0
 17 38  1  0  0  0  0
 19 39  1  0  0  0  0
 22 40  1  0  0  0  0
 23 41  1  0  0  0  0
 23 42  1  0  0  0  0
 23 43  1  0  0  0  0
 25 44  1  0  0  0  0
 26 45  1  0  0  0  0
 28 46  1  0  0  0  0
 28 47  1  0  0  0  0
 29 48  1  0  0  0  0
 29 49  1  0  0  0  0
M  END
> <Name>
23

> <IC50[uM]>
0.27

$$$$
23
  -OEChem-05192314333D
 Structure written by MMmdl.
 49 53  0     0  0  0  0  0  0999 V2000
   -6.3775   12.3296  -12.0018 C   0  0  0  0  0  0  0  0  0  0  0  0
   -6.5098   11.7629  -10.7403 C   0  0  0  0  0  0  0  0  0  0  0  0
   -7.7247   10.5660  -13.0266 C   0  0  0  0  0  0  0  0  0  0  0  0
   -6.9942   11.7487  -13.1193 C   0  0  0  0  0  0  0  0  0  0  0  0
   -7.8312   10.0057  -11.7538 C   0  0  0  0  0  0  0  0  0  0  0  0
   -7.2443   10.6021  -10.6070 C   0  0  0  0  0  0  0  0  0  0  0  0
   -7.6167    9.7449   -9.5151 C   0  0  0  0  0  0  0  0  0  0  0  0
   -8.2961    8.7374   -9.9786 N   0  0  0  0  0  0  0  0  0  0  0  0
   -8.4404    8.8724  -11.2937 N   0  0  0  0  0  0  0  0  0  0  0  0
   -7.3318    9.8946   -8.0252 C   0  0  0  0  0  0  0  0  0  0  0  0
   -5.5478   13.5112  -12.1572 C   0  0  0  0  0  0  0  0  0  0  0  0
   -5.9707   10.4870   -7.7351 C   0  0  0  0  0  0  0  0  0  0  0  0
   -5.8642   11.7588   -7.1694 C   0  0  0  0  0  0  0  0  0  0  0  0
   -4.6019   12.3141   -6.9186 C   0  0  0  0  0  0  0  0  0  0  0  0
   -3.4503   11.5963   -7.2357 C   0  0  0  0  0  0  0  0  0  0  0  0
   -3.5604   10.3220   -7.8000 C   0  0  0  0  0  0  0  0  0  0  0  0
   -4.8213    9.7719   -8.0443 C   0  0  0  0  0  0  0  0  0  0  0  0
   -2.0996   12.1710   -6.9757 C   0  0  0  0  0  0  0  0  0  0  0  0
   -1.7487   13.4240   -6.4767 C   0  0  0  0  0  0  0  0  0  0  0  0
   -0.4123   13.4674   -6.4260 N   0  0  0  0  0  0  0  0  0  0  0  0
    0.1713   12.3664   -6.8217 N   0  0  0  0  0  0  0  0  0  0  0  0
   -0.8093   11.5624   -7.1930 C   0  0  0  0  0  0  0  0  0  0  0  0
    0.4224   14.5657   -5.9816 C   0  0  0  0  0  0  0  0  0  0  0  0
   -5.6966   14.2423  -13.2612 N   0  0  0  0  0  0  0  0  0  0  0  0
   -4.9506   15.3153  -13.5405 C   0  0  0  0  0  0  0  0  0  0  0  0
   -3.9383   15.6899  -12.6782 C   0  0  0  0  0  0  0  0  0  0  0  0
   -3.7261   14.9536  -11.5366 C   0  0  0  0  0  0  0  0  0  0  0  0
   -4.5508   13.8769  -11.2437 C   0  0  0  0  0  0  0  0  0  0  0  0
   -2.6976   15.2614  -10.7139 N   0  0  0  0  0  0  0  0  0  0  0  0
   -6.0464   12.2223   -9.8797 H   0  0  0  0  0  0  0  0  0  0  0  0
   -8.1826   10.1089  -13.8914 H   0  0  0  0  0  0  0  0  0  0  0  0
   -6.9001   12.2325  -14.0803 H   0  0  0  0  0  0  0  0  0  0  0  0
   -8.0313    9.6067   -7.2544 H   0  0  0  0  0  0  0  0  0  0  0  0
   -6.7563   12.3160   -6.9245 H   0  0  0  0  0  0  0  0  0  0  0  0
   -4.5218   13.2977   -6.4798 H   0  0  0  0  0  0  0  0  0  0  0  0
   -3.4477   12.0425   -8.2411 H   0  0  0  0  0  0  0  0  0  0  0  0
   -2.6703    9.7625   -8.0472 H   0  0  0  0  0  0  0  0  0  0  0  0
   -4.9024    8.7852   -8.4759 H   0  0  0  0  0  0  0  0  0  0  0  0
   -2.4277   14.2118   -6.1857 H   0  0  0  0  0  0  0  0  0  0  0  0
   -0.6637   10.5754   -7.6065 H   0  0  0  0  0  0  0  0  0  0  0  0
    1.4809   14.2752   -6.0543 H   0  0  0  0  0  0  0  0  0  0  0  0
    0.2393   15.4453   -6.6162 H   0  0  0  0  0  0  0  0  0  0  0  0
    0.1804   14.8105   -4.9369 H   0  0  0  0  0  0  0  0  0  0  0  0
   -6.4038   13.9739  -13.9153 H   0  0  0  0  0  0  0  0  0  0  0  0
   -5.1384   15.8875  -14.4370 H   0  0  0  0  0  0  0  0  0  0  0  0
   -3.3221   16.5493  -12.8978 H   0  0  0  0  0  0  0  0  0  0  0  0
   -5.0546   14.1072  -10.2933 H   0  0  0  0  0  0  0  0  0  0  0  0
   -3.8997   13.0003  -11.1106 H   0  0  0  0  0  0  0  0  0  0  0  0
   -2.6419   14.6376   -9.9343 H   0  0  0  0  0  0  0  0  0  0  0  0
  1  2  1  0  0  0  0
  1  4  1  0  0  0  0
  1 11  2  0  0  0  0
  2  6  2  0  0  0  0
  3  4  2  0  0  0  0
  3  5  1  0  0  0  0
  5  6  1  0  0  0  0
  5  9  2  0  0  0  0
  6  7  1  0  0  0  0
  7  8  2  0  0  0  0
  7 10  1  0  0  0  0
  8  9  1  0  0  0  0
 10 12  2  0  0  0  0
 11 24  1  0  0  0  0
 11 28  1  0  0  0  0
 12 13  1  0  0  0  0
 12 17  1  0  0  0  0
 13 14  2  0  0  0  0
 14 15  1  0  0  0  0
 15 16  1  0  0  0  0
 15 18  1  0  0  0  0
 16 17  2  0  0  0  0
 18 19  2  0  0  0  0
 18 22  1  0  0  0  0
 19 20  1  0  0  0  0
 20 21  1  0  0  0  0
 20 23  1  0  0  0  0
 21 22  2  0  0  0  0
 24 25  1  0  0  0  0
 25 26  2  0  0  0  0
 26 27  1  0  0  0  0
 27 28  1  0  0  0  0
 27 29  2  0  0  0  0
  2 30  1  0  0  0  0
  3 31  1  0  0  0  0
  4 32  1  0  0  0  0
 10 33  1  0  0  0  0
 13 34  1  0  0  0  0
 14 35  1  0  0  0  0
 15 36  1  0  0  0  0
 16 37  1  0  0  0  0
 17 38  1  0  0  0  0
 19 39  1  0  0  0  0
 22 40  1  0  0  0  0
 23 41  1  0  0  0  0
 23 42  1  0  0  0  0
 23 43  1  0  0  0  0
 24 44  1  0  0  0  0
 25 45  1  0  0  0  0
 26 46  1  0  0  0  0
 28 47  1  0  0  0  0
 28 48  1  0  0  0  0
 29 49  1  0  0  0  0
M  END
> <Name>
23

> <IC50[uM]>
0.27

$$$$
23
  -OEChem-05192314333D
 Structure written by MMmdl.
 49 53  0     0  0  0  0  0  0999 V2000
   -6.3775   12.3296  -12.0018 C   0  0  0  0  0  0  0  0  0  0  0  0
   -6.5098   11.7629  -10.7403 C   0  0  0  0  0  0  0  0  0  0  0  0
   -7.7247   10.5660  -13.0266 C   0  0  0  0  0  0  0  0  0  0  0  0
   -6.9942   11.7487  -13.1193 C   0  0  0  0  0  0  0  0  0  0  0  0
   -7.8312   10.0057  -11.7538 C   0  0  0  0  0  0  0  0  0  0  0  0
   -7.2443   10.6021  -10.6070 C   0  0  0  0  0  0  0  0  0  0  0  0
   -7.6167    9.7449   -9.5151 C   0  0  0  0  0  0  0  0  0  0  0  0
   -8.2961    8.7374   -9.9786 N   0  0  0  0  0  0  0  0  0  0  0  0
   -8.4404    8.8724  -11.2937 N   0  0  0  0  0  0  0  0  0  0  0  0
   -7.3318    9.8946   -8.0252 C   0  0  0  0  0  0  0  0  0  0  0  0
   -5.5478   13.5112  -12.1572 C   0  0  0  0  0  0  0  0  0  0  0  0
   -5.9707   10.4870   -7.7351 C   0  0  0  0  0  0  0  0  0  0  0  0
   -5.8642   11.7588   -7.1694 C   0  0  0  0  0  0  0  0  0  0  0  0
   -4.6019   12.3141   -6.9186 C   0  0  0  0  0  0  0  0  0  0  0  0
   -3.4503   11.5963   -7.2357 C   0  0  0  0  0  0  0  0  0  0  0  0
   -3.5604   10.3220   -7.8000 C   0  0  0  0  0  0  0  0  0  0  0  0
   -4.8213    9.7719   -8.0443 C   0  0  0  0  0  0  0  0  0  0  0  0
   -2.0996   12.1710   -6.9757 C   0  0  0  0  0  0  0  0  0  0  0  0
   -1.7487   13.4240   -6.4767 C   0  0  0  0  0  0  0  0  0  0  0  0
   -0.4123   13.4674   -6.4260 N   0  0  0  0  0  0  0  0  0  0  0  0
    0.1713   12.3664   -6.8217 N   0  0  0  0  0  0  0  0  0  0  0  0
   -0.8093   11.5624   -7.1930 C   0  0  0  0  0  0  0  0  0  0  0  0
    0.4224   14.5657   -5.9816 C   0  0  0  0  0  0  0  0  0  0  0  0
   -5.6966   14.2423  -13.2612 N   0  0  0  0  0  0  0  0  0  0  0  0
   -4.9506   15.3153  -13.5405 C   0  0  0  0  0  0  0  0  0  0  0  0
   -3.9383   15.6899  -12.6782 C   0  0  0  0  0  0  0  0  0  0  0  0
   -3.7261   14.9536  -11.5366 C   0  0  0  0  0  0  0  0  0  0  0  0
   -4.5508   13.8769  -11.2437 C   0  0  0  0  0  0  0  0  0  0  0  0
   -2.6976   15.2614  -10.7139 N   0  0  0  0  0  0  0  0  0  0  0  0
   -6.0464   12.2223   -9.8797 H   0  0  0  0  0  0  0  0  0  0  0  0
   -8.1826   10.1089  -13.8914 H   0  0  0  0  0  0  0  0  0  0  0  0
   -6.9001   12.2325  -14.0803 H   0  0  0  0  0  0  0  0  0  0  0  0
   -8.0313    9.6067   -7.2544 H   0  0  0  0  0  0  0  0  0  0  0  0
   -6.7563   12.3160   -6.9245 H   0  0  0  0  0  0  0  0  0  0  0  0
   -4.5218   13.2977   -6.4798 H   0  0  0  0  0  0  0  0  0  0  0  0
   -2.6703    9.7625   -8.0472 H   0  0  0  0  0  0  0  0  0  0  0  0
   -4.8715    8.8319   -7.4752 H   0  0  0  0  0  0  0  0  0  0  0  0
   -4.8665    9.5515   -9.1210 H   0  0  0  0  0  0  0  0  0  0  0  0
   -2.4277   14.2118   -6.1857 H   0  0  0  0  0  0  0  0  0  0  0  0
   -0.6637   10.5754   -7.6065 H   0  0  0  0  0  0  0  0  0  0  0  0
    1.4809   14.2752   -6.0543 H   0  0  0  0  0  0  0  0  0  0  0  0
    0.2393   15.4453   -6.6162 H   0  0  0  0  0  0  0  0  0  0  0  0
    0.1804   14.8105   -4.9369 H   0  0  0  0  0  0  0  0  0  0  0  0
   -5.1384   15.8875  -14.4370 H   0  0  0  0  0  0  0  0  0  0  0  0
   -3.3221   16.5493  -12.8978 H   0  0  0  0  0  0  0  0  0  0  0  0
   -5.0546   14.1072  -10.2933 H   0  0  0  0  0  0  0  0  0  0  0  0
   -3.8997   13.0003  -11.1106 H   0  0  0  0  0  0  0  0  0  0  0  0
   -2.6901   14.6302   -9.9383 H   0  0  0  0  0  0  0  0  0  0  0  0
   -1.8356   15.1840  -11.2148 H   0  0  0  0  0  0  0  0  0  0  0  0
  1  2  1  0  0  0  0
  1  4  1  0  0  0  0
  1 11  2  0  0  0  0
  2  6  2  0  0  0  0
  3  4  2  0  0  0  0
  3  5  1  0  0  0  0
  5  6  1  0  0  0  0
  5  9  2  0  0  0  0
  6  7  1  0  0  0  0
  7  8  2  0  0  0  0
  7 10  1  0  0  0  0
  8  9  1  0  0  0  0
 10 12  2  3  0  0  0
 11 24  1  0  0  0  0
 11 28  1  0  0  0  0
 12 13  1  0  0  0  0
 12 17  1  0  0  0  0
 13 14  2  0  0  0  0
 14 15  1  0  0  0  0
 15 16  2  0  0  0  0
 15 18  1  0  0  0  0
 16 17  1  0  0  0  0
 18 19  2  0  0  0  0
 18 22  1  0  0  0  0
 19 20  1  0  0  0  0
 20 21  1  0  0  0  0
 20 23  1  0  0  0  0
 21 22  2  0  0  0  0
 24 25  2  0  0  0  0
 25 26  1  0  0  0  0
 26 27  2  0  0  0  0
 27 28  1  0  0  0  0
 27 29  1  0  0  0  0
  2 30  1  0  0  0  0
  3 31  1  0  0  0  0
  4 32  1  0  0  0  0
 10 33  1  0  0  0  0
 13 34  1  0  0  0  0
 14 35  1  0  0  0  0
 16 36  1  0  0  0  0
 17 37  1  0  0  0  0
 17 38  1  0  0  0  0
 19 39  1  0  0  0  0
 22 40  1  0  0  0  0
 23 41  1  0  0  0  0
 23 42  1  0  0  0  0
 23 43  1  0  0  0  0
 25 44  1  0  0  0  0
 26 45  1  0  0  0  0
 28 46  1  0  0  0  0
 28 47  1  0  0  0  0
 29 48  1  0  0  0  0
 29 49  1  0  0  0  0
M  END
> <Name>
23

> <IC50[uM]>
0.27

$$$$
23
  -OEChem-05192314333D
 Structure written by MMmdl.
 49 53  0     0  0  0  0  0  0999 V2000
   -6.3775   12.3296  -12.0018 C   0  0  0  0  0  0  0  0  0  0  0  0
   -6.5098   11.7629  -10.7403 C   0  0  0  0  0  0  0  0  0  0  0  0
   -7.7247   10.5660  -13.0266 C   0  0  0  0  0  0  0  0  0  0  0  0
   -6.9942   11.7487  -13.1193 C   0  0  0  0  0  0  0  0  0  0  0  0
   -7.8312   10.0057  -11.7538 C   0  0  0  0  0  0  0  0  0  0  0  0
   -7.2443   10.6021  -10.6070 C   0  0  0  0  0  0  0  0  0  0  0  0
   -7.6167    9.7449   -9.5151 C   0  0  0  0  0  0  0  0  0  0  0  0
   -8.2961    8.7374   -9.9786 N   0  0  0  0  0  0  0  0  0  0  0  0
   -8.4404    8.8724  -11.2937 N   0  0  0  0  0  0  0  0  0  0  0  0
   -7.3318    9.8946   -8.0252 C   0  0  0  0  0  0  0  0  0  0  0  0
   -5.5478   13.5112  -12.1572 C   0  0  0  0  0  0  0  0  0  0  0  0
   -5.9707   10.4870   -7.7351 C   0  0  0  0  0  0  0  0  0  0  0  0
   -5.8642   11.7588   -7.1694 C   0  0  0  0  0  0  0  0  0  0  0  0
   -4.6019   12.3141   -6.9186 C   0  0  0  0  0  0  0  0  0  0  0  0
   -3.4503   11.5963   -7.2357 C   0  0  0  0  0  0  0  0  0  0  0  0
   -3.5604   10.3220   -7.8000 C   0  0  0  0  0  0  0  0  0  0  0  0
   -4.8213    9.7719   -8.0443 C   0  0  0  0  0  0  0  0  0  0  0  0
   -2.0996   12.1710   -6.9757 C   0  0  0  0  0  0  0  0  0  0  0  0
   -1.7487   13.4240   -6.4767 C   0  0  0  0  0  0  0  0  0  0  0  0
   -0.4123   13.4674   -6.4260 N   0  0  0  0  0  0  0  0  0  0  0  0
    0.1713   12.3664   -6.8217 N   0  0  0  0  0  0  0  0  0  0  0  0
   -0.8093   11.5624   -7.1930 C   0  0  0  0  0  0  0  0  0  0  0  0
    0.4224   14.5657   -5.9816 C   0  0  0  0  0  0  0  0  0  0  0  0
   -5.6966   14.2423  -13.2612 N   0  0  0  0  0  0  0  0  0  0  0  0
   -4.9506   15.3153  -13.5405 C   0  0  0  0  0  0  0  0  0  0  0  0
   -3.9383   15.6899  -12.6782 C   0  0  0  0  0  0  0  0  0  0  0  0
   -3.7261   14.9536  -11.5366 C   0  0  0  0  0  0  0  0  0  0  0  0
   -4.5508   13.8769  -11.2437 C   0  0  0  0  0  0  0  0  0  0  0  0
   -2.6976   15.2614  -10.7139 N   0  0  0  0  0  0  0  0  0  0  0  0
   -6.0464   12.2223   -9.8797 H   0  0  0  0  0  0  0  0  0  0  0  0
   -8.1826   10.1089  -13.8914 H   0  0  0  0  0  0  0  0  0  0  0  0
   -6.9001   12.2325  -14.0803 H   0  0  0  0  0  0  0  0  0  0  0  0
   -8.0313    9.6067   -7.2544 H   0  0  0  0  0  0  0  0  0  0  0  0
   -6.7563   12.3160   -6.9245 H   0  0  0  0  0  0  0  0  0  0  0  0
   -4.5218   13.2977   -6.4798 H   0  0  0  0  0  0  0  0  0  0  0  0
   -2.6703    9.7625   -8.0472 H   0  0  0  0  0  0  0  0  0  0  0  0
   -4.8715    8.8319   -7.4752 H   0  0  0  0  0  0  0  0  0  0  0  0
   -4.8665    9.5515   -9.1210 H   0  0  0  0  0  0  0  0  0  0  0  0
   -2.4277   14.2118   -6.1857 H   0  0  0  0  0  0  0  0  0  0  0  0
   -0.6637   10.5754   -7.6065 H   0  0  0  0  0  0  0  0  0  0  0  0
    1.4809   14.2752   -6.0543 H   0  0  0  0  0  0  0  0  0  0  0  0
    0.2393   15.4453   -6.6162 H   0  0  0  0  0  0  0  0  0  0  0  0
    0.1804   14.8105   -4.9369 H   0  0  0  0  0  0  0  0  0  0  0  0
   -6.4038   13.9739  -13.9153 H   0  0  0  0  0  0  0  0  0  0  0  0
   -5.1384   15.8875  -14.4370 H   0  0  0  0  0  0  0  0  0  0  0  0
   -3.3221   16.5493  -12.8978 H   0  0  0  0  0  0  0  0  0  0  0  0
   -5.0546   14.1072  -10.2933 H   0  0  0  0  0  0  0  0  0  0  0  0
   -3.8997   13.0003  -11.1106 H   0  0  0  0  0  0  0  0  0  0  0  0
   -2.6419   14.6376   -9.9343 H   0  0  0  0  0  0  0  0  0  0  0  0
  1  2  1  0  0  0  0
  1  4  1  0  0  0  0
  1 11  2  0  0  0  0
  2  6  2  0  0  0  0
  3  4  2  0  0  0  0
  3  5  1  0  0  0  0
  5  6  1  0  0  0  0
  5  9  2  0  0  0  0
  6  7  1  0  0  0  0
  7  8  2  0  0  0  0
  7 10  1  0  0  0  0
  8  9  1  0  0  0  0
 10 12  2  3  0  0  0
 11 24  1  0  0  0  0
 11 28  1  0  0  0  0
 12 13  1  0  0  0  0
 12 17  1  0  0  0  0
 13 14  2  0  0  0  0
 14 15  1  0  0  0  0
 15 16  2  0  0  0  0
 15 18  1  0  0  0  0
 16 17  1  0  0  0  0
 18 19  2  0  0  0  0
 18 22  1  0  0  0  0
 19 20  1  0  0  0  0
 20 21  1  0  0  0  0
 20 23  1  0  0  0  0
 21 22  2  0  0  0  0
 24 25  1  0  0  0  0
 25 26  2  0  0  0  0
 26 27  1  0  0  0  0
 27 28  1  0  0  0  0
 27 29  2  0  0  0  0
  2 30  1  0  0  0  0
  3 31  1  0  0  0  0
  4 32  1  0  0  0  0
 10 33  1  0  0  0  0
 13 34  1  0  0  0  0
 14 35  1  0  0  0  0
 16 36  1  0  0  0  0
 17 37  1  0  0  0  0
 17 38  1  0  0  0  0
 19 39  1  0  0  0  0
 22 40  1  0  0  0  0
 23 41  1  0  0  0  0
 23 42  1  0  0  0  0
 23 43  1  0  0  0  0
 24 44  1  0  0  0  0
 25 45  1  0  0  0  0
 26 46  1  0  0  0  0
 28 47  1  0  0  0  0
 28 48  1  0  0  0  0
 29 49  1  0  0  0  0
M  END
> <Name>
23

> <IC50[uM]>
0.27

$$$$
23
  -OEChem-05192314333D
 Structure written by MMmdl.
 49 53  0     0  0  0  0  0  0999 V2000
   -6.3775   12.3296  -12.0018 C   0  0  0  0  0  0  0  0  0  0  0  0
   -6.5098   11.7629  -10.7403 C   0  0  0  0  0  0  0  0  0  0  0  0
   -7.7247   10.5660  -13.0266 C   0  0  0  0  0  0  0  0  0  0  0  0
   -6.9942   11.7487  -13.1193 C   0  0  0  0  0  0  0  0  0  0  0  0
   -7.8312   10.0057  -11.7538 C   0  0  0  0  0  0  0  0  0  0  0  0
   -7.2443   10.6021  -10.6070 C   0  0  0  0  0  0  0  0  0  0  0  0
   -7.6167    9.7449   -9.5151 C   0  0  0  0  0  0  0  0  0  0  0  0
   -8.2961    8.7374   -9.9786 N   0  0  0  0  0  0  0  0  0  0  0  0
   -8.4404    8.8724  -11.2937 N   0  0  0  0  0  0  0  0  0  0  0  0
   -7.3318    9.8946   -8.0252 C   0  0  0  0  0  0  0  0  0  0  0  0
   -5.5478   13.5112  -12.1572 C   0  0  0  0  0  0  0  0  0  0  0  0
   -5.9707   10.4870   -7.7351 C   0  0  0  0  0  0  0  0  0  0  0  0
   -5.8642   11.7588   -7.1694 C   0  0  0  0  0  0  0  0  0  0  0  0
   -4.6019   12.3141   -6.9186 C   0  0  0  0  0  0  0  0  0  0  0  0
   -3.4503   11.5963   -7.2357 C   0  0  0  0  0  0  0  0  0  0  0  0
   -3.5604   10.3220   -7.8000 C   0  0  0  0  0  0  0  0  0  0  0  0
   -4.8213    9.7719   -8.0443 C   0  0  0  0  0  0  0  0  0  0  0  0
   -2.0996   12.1710   -6.9757 C   0  0  0  0  0  0  0  0  0  0  0  0
   -1.7487   13.4240   -6.4767 C   0  0  0  0  0  0  0  0  0  0  0  0
   -0.4123   13.4674   -6.4260 N   0  0  0  0  0  0  0  0  0  0  0  0
    0.1713   12.3664   -6.8217 N   0  0  0  0  0  0  0  0  0  0  0  0
   -0.8093   11.5624   -7.1930 C   0  0  0  0  0  0  0  0  0  0  0  0
    0.4224   14.5657   -5.9816 C   0  0  0  0  0  0  0  0  0  0  0  0
   -5.6966   14.2423  -13.2612 N   0  0  0  0  0  0  0  0  0  0  0  0
   -4.9506   15.3153  -13.5405 C   0  0  0  0  0  0  0  0  0  0  0  0
   -3.9383   15.6899  -12.6782 C   0  0  0  0  0  0  0  0  0  0  0  0
   -3.7261   14.9536  -11.5366 C   0  0  0  0  0  0  0  0  0  0  0  0
   -4.5508   13.8769  -11.2437 C   0  0  0  0  0  0  0  0  0  0  0  0
   -2.6976   15.2614  -10.7139 N   0  0  0  0  0  0  0  0  0  0  0  0
   -6.0464   12.2223   -9.8797 H   0  0  0  0  0  0  0  0  0  0  0  0
   -8.1826   10.1089  -13.8914 H   0  0  0  0  0  0  0  0  0  0  0  0
   -6.9001   12.2325  -14.0803 H   0  0  0  0  0  0  0  0  0  0  0  0
   -8.0313    9.6067   -7.2544 H   0  0  0  0  0  0  0  0  0  0  0  0
   -6.7563   12.3160   -6.9245 H   0  0  0  0  0  0  0  0  0  0  0  0
   -4.5218   13.2977   -6.4798 H   0  0  0  0  0  0  0  0  0  0  0  0
   -3.4477   12.0425   -8.2411 H   0  0  0  0  0  0  0  0  0  0  0  0
   -2.6703    9.7625   -8.0472 H   0  0  0  0  0  0  0  0  0  0  0  0
   -4.9024    8.7852   -8.4759 H   0  0  0  0  0  0  0  0  0  0  0  0
   -2.4277   14.2118   -6.1857 H   0  0  0  0  0  0  0  0  0  0  0  0
   -0.6637   10.5754   -7.6065 H   0  0  0  0  0  0  0  0  0  0  0  0
    1.4809   14.2752   -6.0543 H   0  0  0  0  0  0  0  0  0  0  0  0
    0.2393   15.4453   -6.6162 H   0  0  0  0  0  0  0  0  0  0  0  0
    0.1804   14.8105   -4.9369 H   0  0  0  0  0  0  0  0  0  0  0  0
   -6.4038   13.9739  -13.9153 H   0  0  0  0  0  0  0  0  0  0  0  0
   -5.1384   15.8875  -14.4370 H   0  0  0  0  0  0  0  0  0  0  0  0
   -3.3221   16.5493  -12.8978 H   0  0  0  0  0  0  0  0  0  0  0  0
   -4.4255   13.3274  -10.3224 H   0  0  0  0  0  0  0  0  0  0  0  0
   -2.6901   14.6302   -9.9383 H   0  0  0  0  0  0  0  0  0  0  0  0
   -1.8356   15.1840  -11.2148 H   0  0  0  0  0  0  0  0  0  0  0  0
  1  2  1  0  0  0  0
  1  4  1  0  0  0  0
  1 11  2  0  0  0  0
  2  6  2  0  0  0  0
  3  4  2  0  0  0  0
  3  5  1  0  0  0  0
  5  6  1  0  0  0  0
  5  9  2  0  0  0  0
  6  7  1  0  0  0  0
  7  8  2  0  0  0  0
  7 10  1  0  0  0  0
  8  9  1  0  0  0  0
 10 12  2  0  0  0  0
 11 24  1  0  0  0  0
 11 28  1  0  0  0  0
 12 13  1  0  0  0  0
 12 17  1  0  0  0  0
 13 14  2  0  0  0  0
 14 15  1  0  0  0  0
 15 16  1  0  0  0  0
 15 18  1  0  0  0  0
 16 17  2  0  0  0  0
 18 19  2  0  0  0  0
 18 22  1  0  0  0  0
 19 20  1  0  0  0  0
 20 21  1  0  0  0  0
 20 23  1  0  0  0  0
 21 22  2  0  0  0  0
 24 25  1  0  0  0  0
 25 26  2  0  0  0  0
 26 27  1  0  0  0  0
 27 28  2  0  0  0  0
 27 29  1  0  0  0  0
  2 30  1  0  0  0  0
  3 31  1  0  0  0  0
  4 32  1  0  0  0  0
 10 33  1  0  0  0  0
 13 34  1  0  0  0  0
 14 35  1  0  0  0  0
 15 36  1  0  0  0  0
 16 37  1  0  0  0  0
 17 38  1  0  0  0  0
 19 39  1  0  0  0  0
 22 40  1  0  0  0  0
 23 41  1  0  0  0  0
 23 42  1  0  0  0  0
 23 43  1  0  0  0  0
 24 44  1  0  0  0  0
 25 45  1  0  0  0  0
 26 46  1  0  0  0  0
 28 47  1  0  0  0  0
 29 48  1  0  0  0  0
 29 49  1  0  0  0  0
M  END
> <Name>
23

> <IC50[uM]>
0.27

$$$$
23
  -OEChem-05192314333D
 Structure written by MMmdl.
 49 53  0     0  0  0  0  0  0999 V2000
   -6.3775   12.3296  -12.0018 C   0  0  0  0  0  0  0  0  0  0  0  0
   -6.5098   11.7629  -10.7403 C   0  0  0  0  0  0  0  0  0  0  0  0
   -7.7247   10.5660  -13.0266 C   0  0  0  0  0  0  0  0  0  0  0  0
   -6.9942   11.7487  -13.1193 C   0  0  0  0  0  0  0  0  0  0  0  0
   -7.8312   10.0057  -11.7538 C   0  0  0  0  0  0  0  0  0  0  0  0
   -7.2443   10.6021  -10.6070 C   0  0  0  0  0  0  0  0  0  0  0  0
   -7.6167    9.7449   -9.5151 C   0  0  0  0  0  0  0  0  0  0  0  0
   -8.2961    8.7374   -9.9786 N   0  0  0  0  0  0  0  0  0  0  0  0
   -8.4404    8.8724  -11.2937 N   0  0  0  0  0  0  0  0  0  0  0  0
   -7.3318    9.8946   -8.0252 C   0  0  0  0  0  0  0  0  0  0  0  0
   -5.5478   13.5112  -12.1572 C   0  0  0  0  0  0  0  0  0  0  0  0
   -5.9707   10.4870   -7.7351 C   0  0  0  0  0  0  0  0  0  0  0  0
   -5.8642   11.7588   -7.1694 C   0  0  0  0  0  0  0  0  0  0  0  0
   -4.6019   12.3141   -6.9186 C   0  0  0  0  0  0  0  0  0  0  0  0
   -3.4503   11.5963   -7.2357 C   0  0  0  0  0  0  0  0  0  0  0  0
   -3.5604   10.3220   -7.8000 C   0  0  0  0  0  0  0  0  0  0  0  0
   -4.8213    9.7719   -8.0443 C   0  0  0  0  0  0  0  0  0  0  0  0
   -2.0996   12.1710   -6.9757 C   0  0  0  0  0  0  0  0  0  0  0  0
   -1.7487   13.4240   -6.4767 C   0  0  0  0  0  0  0  0  0  0  0  0
   -0.4123   13.4674   -6.4260 N   0  0  0  0  0  0  0  0  0  0  0  0
    0.1713   12.3664   -6.8217 N   0  0  0  0  0  0  0  0  0  0  0  0
   -0.8093   11.5624   -7.1930 C   0  0  0  0  0  0  0  0  0  0  0  0
    0.4224   14.5657   -5.9816 C   0  0  0  0  0  0  0  0  0  0  0  0
   -5.6966   14.2423  -13.2612 N   0  0  0  0  0  0  0  0  0  0  0  0
   -4.9506   15.3153  -13.5405 C   0  0  0  0  0  0  0  0  0  0  0  0
   -3.9383   15.6899  -12.6782 C   0  0  0  0  0  0  0  0  0  0  0  0
   -3.7261   14.9536  -11.5366 C   0  0  0  0  0  0  0  0  0  0  0  0
   -4.5508   13.8769  -11.2437 C   0  0  0  0  0  0  0  0  0  0  0  0
   -2.6976   15.2614  -10.7139 N   0  0  0  0  0  0  0  0  0  0  0  0
   -6.0464   12.2223   -9.8797 H   0  0  0  0  0  0  0  0  0  0  0  0
   -8.1826   10.1089  -13.8914 H   0  0  0  0  0  0  0  0  0  0  0  0
   -6.9001   12.2325  -14.0803 H   0  0  0  0  0  0  0  0  0  0  0  0
   -8.0313    9.6067   -7.2544 H   0  0  0  0  0  0  0  0  0  0  0  0
   -6.7563   12.3160   -6.9245 H   0  0  0  0  0  0  0  0  0  0  0  0
   -4.5218   13.2977   -6.4798 H   0  0  0  0  0  0  0  0  0  0  0  0
   -2.6703    9.7625   -8.0472 H   0  0  0  0  0  0  0  0  0  0  0  0
   -4.8715    8.8319   -7.4752 H   0  0  0  0  0  0  0  0  0  0  0  0
   -4.8665    9.5515   -9.1210 H   0  0  0  0  0  0  0  0  0  0  0  0
   -2.4277   14.2118   -6.1857 H   0  0  0  0  0  0  0  0  0  0  0  0
   -0.6637   10.5754   -7.6065 H   0  0  0  0  0  0  0  0  0  0  0  0
    1.4809   14.2752   -6.0543 H   0  0  0  0  0  0  0  0  0  0  0  0
    0.2393   15.4453   -6.6162 H   0  0  0  0  0  0  0  0  0  0  0  0
    0.1804   14.8105   -4.9369 H   0  0  0  0  0  0  0  0  0  0  0  0
   -6.4038   13.9739  -13.9153 H   0  0  0  0  0  0  0  0  0  0  0  0
   -5.1384   15.8875  -14.4370 H   0  0  0  0  0  0  0  0  0  0  0  0
   -3.3221   16.5493  -12.8978 H   0  0  0  0  0  0  0  0  0  0  0  0
   -4.4255   13.3274  -10.3224 H   0  0  0  0  0  0  0  0  0  0  0  0
   -2.6901   14.6302   -9.9383 H   0  0  0  0  0  0  0  0  0  0  0  0
   -1.8356   15.1840  -11.2148 H   0  0  0  0  0  0  0  0  0  0  0  0
  1  2  1  0  0  0  0
  1  4  1  0  0  0  0
  1 11  2  0  0  0  0
  2  6  2  0  0  0  0
  3  4  2  0  0  0  0
  3  5  1  0  0  0  0
  5  6  1  0  0  0  0
  5  9  2  0  0  0  0
  6  7  1  0  0  0  0
  7  8  2  0  0  0  0
  7 10  1  0  0  0  0
  8  9  1  0  0  0  0
 10 12  2  3  0  0  0
 11 24  1  0  0  0  0
 11 28  1  0  0  0  0
 12 13  1  0  0  0  0
 12 17  1  0  0  0  0
 13 14  2  0  0  0  0
 14 15  1  0  0  0  0
 15 16  2  0  0  0  0
 15 18  1  0  0  0  0
 16 17  1  0  0  0  0
 18 19  2  0  0  0  0
 18 22  1  0  0  0  0
 19 20  1  0  0  0  0
 20 21  1  0  0  0  0
 20 23  1  0  0  0  0
 21 22  2  0  0  0  0
 24 25  1  0  0  0  0
 25 26  2  0  0  0  0
 26 27  1  0  0  0  0
 27 28  2  0  0  0  0
 27 29  1  0  0  0  0
  2 30  1  0  0  0  0
  3 31  1  0  0  0  0
  4 32  1  0  0  0  0
 10 33  1  0  0  0  0
 13 34  1  0  0  0  0
 14 35  1  0  0  0  0
 16 36  1  0  0  0  0
 17 37  1  0  0  0  0
 17 38  1  0  0  0  0
 19 39  1  0  0  0  0
 22 40  1  0  0  0  0
 23 41  1  0  0  0  0
 23 42  1  0  0  0  0
 23 43  1  0  0  0  0
 24 44  1  0  0  0  0
 25 45  1  0  0  0  0
 26 46  1  0  0  0  0
 28 47  1  0  0  0  0
 29 48  1  0  0  0  0
 29 49  1  0  0  0  0
M  END
> <Name>
23

> <IC50[uM]>
0.27

$$$$
23
  -OEChem-05192314333D
 Structure written by MMmdl.
 49 53  0     1  0  0  0  0  0999 V2000
   -6.3775   12.3296  -12.0018 C   0  0  3  0  0  0  0  0  0  0  0  0
   -6.5098   11.7629  -10.7403 C   0  0  0  0  0  0  0  0  0  0  0  0
   -7.7247   10.5660  -13.0266 C   0  0  0  0  0  0  0  0  0  0  0  0
   -6.9942   11.7487  -13.1193 C   0  0  0  0  0  0  0  0  0  0  0  0
   -7.8312   10.0057  -11.7538 C   0  0  0  0  0  0  0  0  0  0  0  0
   -7.2443   10.6021  -10.6070 C   0  0  0  0  0  0  0  0  0  0  0  0
   -7.6167    9.7449   -9.5151 C   0  0  0  0  0  0  0  0  0  0  0  0
   -8.2961    8.7374   -9.9786 N   0  0  0  0  0  0  0  0  0  0  0  0
   -8.4404    8.8724  -11.2937 N   0  0  0  0  0  0  0  0  0  0  0  0
   -7.3318    9.8946   -8.0252 C   0  0  0  0  0  0  0  0  0  0  0  0
   -5.5478   13.5112  -12.1572 C   0  0  0  0  0  0  0  0  0  0  0  0
   -5.9707   10.4870   -7.7351 C   0  0  0  0  0  0  0  0  0  0  0  0
   -5.8642   11.7588   -7.1694 C   0  0  0  0  0  0  0  0  0  0  0  0
   -4.6019   12.3141   -6.9186 C   0  0  0  0  0  0  0  0  0  0  0  0
   -3.4503   11.5963   -7.2357 C   0  0  0  0  0  0  0  0  0  0  0  0
   -3.5604   10.3220   -7.8000 C   0  0  0  0  0  0  0  0  0  0  0  0
   -4.8213    9.7719   -8.0443 C   0  0  0  0  0  0  0  0  0  0  0  0
   -2.0996   12.1710   -6.9757 C   0  0  0  0  0  0  0  0  0  0  0  0
   -1.7487   13.4240   -6.4767 C   0  0  0  0  0  0  0  0  0  0  0  0
   -0.4123   13.4674   -6.4260 N   0  0  0  0  0  0  0  0  0  0  0  0
    0.1713   12.3664   -6.8217 N   0  0  0  0  0  0  0  0  0  0  0  0
   -0.8093   11.5624   -7.1930 C   0  0  0  0  0  0  0  0  0  0  0  0
    0.4224   14.5657   -5.9816 C   0  0  0  0  0  0  0  0  0  0  0  0
   -5.6966   14.2423  -13.2612 N   0  0  0  0  0  0  0  0  0  0  0  0
   -4.9506   15.3153  -13.5405 C   0  0  0  0  0  0  0  0  0  0  0  0
   -3.9383   15.6899  -12.6782 C   0  0  0  0  0  0  0  0  0  0  0  0
   -3.7261   14.9536  -11.5366 C   0  0  0  0  0  0  0  0  0  0  0  0
   -4.5508   13.8769  -11.2437 C   0  0  0  0  0  0  0  0  0  0  0  0
   -2.6976   15.2614  -10.7139 N   0  0  0  0  0  0  0  0  0  0  0  0
   -7.2621   12.9592  -11.8254 H   0  0  0  0  0  0  0  0  0  0  0  0
   -6.0464   12.2223   -9.8797 H   0  0  0  0  0  0  0  0  0  0  0  0
   -8.1826   10.1089  -13.8914 H   0  0  0  0  0  0  0  0  0  0  0  0
   -6.9001   12.2325  -14.0803 H   0  0  0  0  0  0  0  0  0  0  0  0
   -8.0313    9.6067   -7.2544 H   0  0  0  0  0  0  0  0  0  0  0  0
   -6.7563   12.3160   -6.9245 H   0  0  0  0  0  0  0  0  0  0  0  0
   -4.5218   13.2977   -6.4798 H   0  0  0  0  0  0  0  0  0  0  0  0
   -3.4477   12.0425   -8.2411 H   0  0  0  0  0  0  0  0  0  0  0  0
   -2.6703    9.7625   -8.0472 H   0  0  0  0  0  0  0  0  0  0  0  0
   -4.9024    8.7852   -8.4759 H   0  0  0  0  0  0  0  0  0  0  0  0
   -2.4277   14.2118   -6.1857 H   0  0  0  0  0  0  0  0  0  0  0  0
   -0.6637   10.5754   -7.6065 H   0  0  0  0  0  0  0  0  0  0  0  0
    1.4809   14.2752   -6.0543 H   0  0  0  0  0  0  0  0  0  0  0  0
    0.2393   15.4453   -6.6162 H   0  0  0  0  0  0  0  0  0  0  0  0
    0.1804   14.8105   -4.9369 H   0  0  0  0  0  0  0  0  0  0  0  0
   -5.1384   15.8875  -14.4370 H   0  0  0  0  0  0  0  0  0  0  0  0
   -3.3221   16.5493  -12.8978 H   0  0  0  0  0  0  0  0  0  0  0  0
   -4.4255   13.3274  -10.3224 H   0  0  0  0  0  0  0  0  0  0  0  0
   -2.6901   14.6302   -9.9383 H   0  0  0  0  0  0  0  0  0  0  0  0
   -1.8356   15.1840  -11.2148 H   0  0  0  0  0  0  0  0  0  0  0  0
  1  2  1  0  0  0  0
  1  4  1  0  0  0  0
  1 11  1  0  0  0  0
  2  6  2  0  0  0  0
  3  4  2  0  0  0  0
  3  5  1  0  0  0  0
  5  6  1  0  0  0  0
  5  9  2  0  0  0  0
  6  7  1  0  0  0  0
  7  8  2  0  0  0  0
  7 10  1  0  0  0  0
  8  9  1  0  0  0  0
 10 12  2  0  0  0  0
 11 24  2  0  0  0  0
 11 28  1  0  0  0  0
 12 13  1  0  0  0  0
 12 17  1  0  0  0  0
 13 14  2  0  0  0  0
 14 15  1  0  0  0  0
 15 16  1  0  0  0  0
 15 18  1  0  0  0  0
 16 17  2  0  0  0  0
 18 19  2  0  0  0  0
 18 22  1  0  0  0  0
 19 20  1  0  0  0  0
 20 21  1  0  0  0  0
 20 23  1  0  0  0  0
 21 22  2  0  0  0  0
 24 25  1  0  0  0  0
 25 26  2  0  0  0  0
 26 27  1  0  0  0  0
 27 28  2  0  0  0  0
 27 29  1  0  0  0  0
  1 30  1  0  0  0  0
  2 31  1  0  0  0  0
  3 32  1  0  0  0  0
  4 33  1  0  0  0  0
 10 34  1  0  0  0  0
 13 35  1  0  0  0  0
 14 36  1  0  0  0  0
 15 37  1  0  0  0  0
 16 38  1  0  0  0  0
 17 39  1  0  0  0  0
 19 40  1  0  0  0  0
 22 41  1  0  0  0  0
 23 42  1  0  0  0  0
 23 43  1  0  0  0  0
 23 44  1  0  0  0  0
 25 45  1  0  0  0  0
 26 46  1  0  0  0  0
 28 47  1  0  0  0  0
 29 48  1  0  0  0  0
 29 49  1  0  0  0  0
M  END
> <Name>
23

> <IC50[uM]>
0.27

$$$$
23
  -OEChem-05192314333D
 Structure written by MMmdl.
 49 53  0     1  0  0  0  0  0999 V2000
   -6.3775   12.3296  -12.0018 C   0  0  0  0  0  0  0  0  0  0  0  0
   -6.5098   11.7629  -10.7403 C   0  0  0  0  0  0  0  0  0  0  0  0
   -7.7247   10.5660  -13.0266 C   0  0  0  0  0  0  0  0  0  0  0  0
   -6.9942   11.7487  -13.1193 C   0  0  0  0  0  0  0  0  0  0  0  0
   -7.8312   10.0057  -11.7538 C   0  0  0  0  0  0  0  0  0  0  0  0
   -7.2443   10.6021  -10.6070 C   0  0  3  0  0  0  0  0  0  0  0  0
   -7.6167    9.7449   -9.5151 C   0  0  0  0  0  0  0  0  0  0  0  0
   -8.2961    8.7374   -9.9786 N   0  0  0  0  0  0  0  0  0  0  0  0
   -8.4404    8.8724  -11.2937 N   0  0  0  0  0  0  0  0  0  0  0  0
   -7.3318    9.8946   -8.0252 C   0  0  0  0  0  0  0  0  0  0  0  0
   -5.5478   13.5112  -12.1572 C   0  0  0  0  0  0  0  0  0  0  0  0
   -5.9707   10.4870   -7.7351 C   0  0  0  0  0  0  0  0  0  0  0  0
   -5.8642   11.7588   -7.1694 C   0  0  0  0  0  0  0  0  0  0  0  0
   -4.6019   12.3141   -6.9186 C   0  0  0  0  0  0  0  0  0  0  0  0
   -3.4503   11.5963   -7.2357 C   0  0  0  0  0  0  0  0  0  0  0  0
   -3.5604   10.3220   -7.8000 C   0  0  0  0  0  0  0  0  0  0  0  0
   -4.8213    9.7719   -8.0443 C   0  0  0  0  0  0  0  0  0  0  0  0
   -2.0996   12.1710   -6.9757 C   0  0  0  0  0  0  0  0  0  0  0  0
   -1.7487   13.4240   -6.4767 C   0  0  0  0  0  0  0  0  0  0  0  0
   -0.4123   13.4674   -6.4260 N   0  0  0  0  0  0  0  0  0  0  0  0
    0.1713   12.3664   -6.8217 N   0  0  0  0  0  0  0  0  0  0  0  0
   -0.8093   11.5624   -7.1930 C   0  0  0  0  0  0  0  0  0  0  0  0
    0.4224   14.5657   -5.9816 C   0  0  0  0  0  0  0  0  0  0  0  0
   -5.6966   14.2423  -13.2612 N   0  0  0  0  0  0  0  0  0  0  0  0
   -4.9506   15.3153  -13.5405 C   0  0  0  0  0  0  0  0  0  0  0  0
   -3.9383   15.6899  -12.6782 C   0  0  0  0  0  0  0  0  0  0  0  0
   -3.7261   14.9536  -11.5366 C   0  0  0  0  0  0  0  0  0  0  0  0
   -4.5508   13.8769  -11.2437 C   0  0  0  0  0  0  0  0  0  0  0  0
   -2.6976   15.2614  -10.7139 N   0  0  0  0  0  0  0  0  0  0  0  0
   -6.0464   12.2223   -9.8797 H   0  0  0  0  0  0  0  0  0  0  0  0
   -8.1826   10.1089  -13.8914 H   0  0  0  0  0  0  0  0  0  0  0  0
   -6.9001   12.2325  -14.0803 H   0  0  0  0  0  0  0  0  0  0  0  0
   -6.3326   10.0069  -10.7637 H   0  0  0  0  0  0  0  0  0  0  0  0
   -8.0313    9.6067   -7.2544 H   0  0  0  0  0  0  0  0  0  0  0  0
   -6.7563   12.3160   -6.9245 H   0  0  0  0  0  0  0  0  0  0  0  0
   -4.5218   13.2977   -6.4798 H   0  0  0  0  0  0  0  0  0  0  0  0
   -3.4477   12.0425   -8.2411 H   0  0  0  0  0  0  0  0  0  0  0  0
   -2.6703    9.7625   -8.0472 H   0  0  0  0  0  0  0  0  0  0  0  0
   -4.9024    8.7852   -8.4759 H   0  0  0  0  0  0  0  0  0  0  0  0
   -2.4277   14.2118   -6.1857 H   0  0  0  0  0  0  0  0  0  0  0  0
   -0.6637   10.5754   -7.6065 H   0  0  0  0  0  0  0  0  0  0  0  0
    1.4809   14.2752   -6.0543 H   0  0  0  0  0  0  0  0  0  0  0  0
    0.2393   15.4453   -6.6162 H   0  0  0  0  0  0  0  0  0  0  0  0
    0.1804   14.8105   -4.9369 H   0  0  0  0  0  0  0  0  0  0  0  0
   -5.1384   15.8875  -14.4370 H   0  0  0  0  0  0  0  0  0  0  0  0
   -3.3221   16.5493  -12.8978 H   0  0  0  0  0  0  0  0  0  0  0  0
   -4.4255   13.3274  -10.3224 H   0  0  0  0  0  0  0  0  0  0  0  0
   -2.6901   14.6302   -9.9383 H   0  0  0  0  0  0  0  0  0  0  0  0
   -1.8356   15.1840  -11.2148 H   0  0  0  0  0  0  0  0  0  0  0  0
  1  2  2  0  0  0  0
  1  4  1  0  0  0  0
  1 11  1  0  0  0  0
  2  6  1  0  0  0  0
  3  4  2  0  0  0  0
  3  5  1  0  0  0  0
  5  6  1  0  0  0  0
  5  9  2  0  0  0  0
  6  7  1  0  0  0  0
  7  8  2  0  0  0  0
  7 10  1  0  0  0  0
  8  9  1  0  0  0  0
 10 12  2  0  0  0  0
 11 24  2  0  0  0  0
 11 28  1  0  0  0  0
 12 13  1  0  0  0  0
 12 17  1  0  0  0  0
 13 14  2  0  0  0  0
 14 15  1  0  0  0  0
 15 16  1  0  0  0  0
 15 18  1  0  0  0  0
 16 17  2  0  0  0  0
 18 19  2  0  0  0  0
 18 22  1  0  0  0  0
 19 20  1  0  0  0  0
 20 21  1  0  0  0  0
 20 23  1  0  0  0  0
 21 22  2  0  0  0  0
 24 25  1  0  0  0  0
 25 26  2  0  0  0  0
 26 27  1  0  0  0  0
 27 28  2  0  0  0  0
 27 29  1  0  0  0  0
  2 30  1  0  0  0  0
  3 31  1  0  0  0  0
  4 32  1  0  0  0  0
  6 33  1  0  0  0  0
 10 34  1  0  0  0  0
 13 35  1  0  0  0  0
 14 36  1  0  0  0  0
 15 37  1  0  0  0  0
 16 38  1  0  0  0  0
 17 39  1  0  0  0  0
 19 40  1  0  0  0  0
 22 41  1  0  0  0  0
 23 42  1  0  0  0  0
 23 43  1  0  0  0  0
 23 44  1  0  0  0  0
 25 45  1  0  0  0  0
 26 46  1  0  0  0  0
 28 47  1  0  0  0  0
 29 48  1  0  0  0  0
 29 49  1  0  0  0  0
M  END
> <Name>
23

> <IC50[uM]>
0.27

$$$$
23
  -OEChem-05192314333D
 Structure written by MMmdl.
 49 53  0     0  0  0  0  0  0999 V2000
   -6.3775   12.3296  -12.0018 C   0  0  0  0  0  0  0  0  0  0  0  0
   -6.5098   11.7629  -10.7403 C   0  0  0  0  0  0  0  0  0  0  0  0
   -7.7247   10.5660  -13.0266 C   0  0  0  0  0  0  0  0  0  0  0  0
   -6.9942   11.7487  -13.1193 C   0  0  0  0  0  0  0  0  0  0  0  0
   -7.8312   10.0057  -11.7538 C   0  0  0  0  0  0  0  0  0  0  0  0
   -7.2443   10.6021  -10.6070 C   0  0  0  0  0  0  0  0  0  0  0  0
   -7.6167    9.7449   -9.5151 C   0  0  0  0  0  0  0  0  0  0  0  0
   -8.2961    8.7374   -9.9786 N   0  0  0  0  0  0  0  0  0  0  0  0
   -8.4404    8.8724  -11.2937 N   0  0  0  0  0  0  0  0  0  0  0  0
   -7.3318    9.8946   -8.0252 C   0  0  0  0  0  0  0  0  0  0  0  0
   -5.5478   13.5112  -12.1572 C   0  0  0  0  0  0  0  0  0  0  0  0
   -5.9707   10.4870   -7.7351 C   0  0  0  0  0  0  0  0  0  0  0  0
   -5.8642   11.7588   -7.1694 C   0  0  0  0  0  0  0  0  0  0  0  0
   -4.6019   12.3141   -6.9186 C   0  0  0  0  0  0  0  0  0  0  0  0
   -3.4503   11.5963   -7.2357 C   0  0  0  0  0  0  0  0  0  0  0  0
   -3.5604   10.3220   -7.8000 C   0  0  0  0  0  0  0  0  0  0  0  0
   -4.8213    9.7719   -8.0443 C   0  0  0  0  0  0  0  0  0  0  0  0
   -2.0996   12.1710   -6.9757 C   0  0  0  0  0  0  0  0  0  0  0  0
   -1.7487   13.4240   -6.4767 C   0  0  0  0  0  0  0  0  0  0  0  0
   -0.4123   13.4674   -6.4260 N   0  0  0  0  0  0  0  0  0  0  0  0
    0.1713   12.3664   -6.8217 N   0  0  0  0  0  0  0  0  0  0  0  0
   -0.8093   11.5624   -7.1930 C   0  0  0  0  0  0  0  0  0  0  0  0
    0.4224   14.5657   -5.9816 C   0  0  0  0  0  0  0  0  0  0  0  0
   -5.6966   14.2423  -13.2612 N   0  0  0  0  0  0  0  0  0  0  0  0
   -4.9506   15.3153  -13.5405 C   0  0  0  0  0  0  0  0  0  0  0  0
   -3.9383   15.6899  -12.6782 C   0  0  0  0  0  0  0  0  0  0  0  0
   -3.7261   14.9536  -11.5366 C   0  0  0  0  0  0  0  0  0  0  0  0
   -4.5508   13.8769  -11.2437 C   0  0  0  0  0  0  0  0  0  0  0  0
   -2.6976   15.2614  -10.7139 N   0  0  0  0  0  0  0  0  0  0  0  0
   -6.0464   12.2223   -9.8797 H   0  0  0  0  0  0  0  0  0  0  0  0
   -8.7428   10.7712  -13.3891 H   0  0  0  0  0  0  0  0  0  0  0  0
   -7.2451    9.8233  -13.6811 H   0  0  0  0  0  0  0  0  0  0  0  0
   -6.9001   12.2325  -14.0803 H   0  0  0  0  0  0  0  0  0  0  0  0
   -8.0313    9.6067   -7.2544 H   0  0  0  0  0  0  0  0  0  0  0  0
   -6.7563   12.3160   -6.9245 H   0  0  0  0  0  0  0  0  0  0  0  0
   -4.5218   13.2977   -6.4798 H   0  0  0  0  0  0  0  0  0  0  0  0
   -3.4477   12.0425   -8.2411 H   0  0  0  0  0  0  0  0  0  0  0  0
   -2.6703    9.7625   -8.0472 H   0  0  0  0  0  0  0  0  0  0  0  0
   -4.9024    8.7852   -8.4759 H   0  0  0  0  0  0  0  0  0  0  0  0
   -2.4277   14.2118   -6.1857 H   0  0  0  0  0  0  0  0  0  0  0  0
   -0.6637   10.5754   -7.6065 H   0  0  0  0  0  0  0  0  0  0  0  0
    1.4809   14.2752   -6.0543 H   0  0  0  0  0  0  0  0  0  0  0  0
    0.2393   15.4453   -6.6162 H   0  0  0  0  0  0  0  0  0  0  0  0
    0.1804   14.8105   -4.9369 H   0  0  0  0  0  0  0  0  0  0  0  0
   -5.1384   15.8875  -14.4370 H   0  0  0  0  0  0  0  0  0  0  0  0
   -3.3221   16.5493  -12.8978 H   0  0  0  0  0  0  0  0  0  0  0  0
   -4.4255   13.3274  -10.3224 H   0  0  0  0  0  0  0  0  0  0  0  0
   -2.6901   14.6302   -9.9383 H   0  0  0  0  0  0  0  0  0  0  0  0
   -1.8356   15.1840  -11.2148 H   0  0  0  0  0  0  0  0  0  0  0  0
  1  2  1  0  0  0  0
  1  4  2  0  0  0  0
  1 11  1  0  0  0  0
  2  6  2  0  0  0  0
  3  4  1  0  0  0  0
  3  5  1  0  0  0  0
  5  6  1  0  0  0  0
  5  9  2  0  0  0  0
  6  7  1  0  0  0  0
  7  8  2  0  0  0  0
  7 10  1  0  0  0  0
  8  9  1  0  0  0  0
 10 12  2  0  0  0  0
 11 24  2  0  0  0  0
 11 28  1  0  0  0  0
 12 13  1  0  0  0  0
 12 17  1  0  0  0  0
 13 14  2  0  0  0  0
 14 15  1  0  0  0  0
 15 16  1  0  0  0  0
 15 18  1  0  0  0  0
 16 17  2  0  0  0  0
 18 19  2  0  0  0  0
 18 22  1  0  0  0  0
 19 20  1  0  0  0  0
 20 21  1  0  0  0  0
 20 23  1  0  0  0  0
 21 22  2  0  0  0  0
 24 25  1  0  0  0  0
 25 26  2  0  0  0  0
 26 27  1  0  0  0  0
 27 28  2  0  0  0  0
 27 29  1  0  0  0  0
  2 30  1  0  0  0  0
  3 31  1  0  0  0  0
  3 32  1  0  0  0  0
  4 33  1  0  0  0  0
 10 34  1  0  0  0  0
 13 35  1  0  0  0  0
 14 36  1  0  0  0  0
 15 37  1  0  0  0  0
 16 38  1  0  0  0  0
 17 39  1  0  0  0  0
 19 40  1  0  0  0  0
 22 41  1  0  0  0  0
 23 42  1  0  0  0  0
 23 43  1  0  0  0  0
 23 44  1  0  0  0  0
 25 45  1  0  0  0  0
 26 46  1  0  0  0  0
 28 47  1  0  0  0  0
 29 48  1  0  0  0  0
 29 49  1  0  0  0  0
M  END
> <Name>
23

> <IC50[uM]>
0.27

$$$$
23
  -OEChem-05192314333D
 Structure written by MMmdl.
 49 53  0     1  0  0  0  0  0999 V2000
   -6.3775   12.3296  -12.0018 C   0  0  3  0  0  0  0  0  0  0  0  0
   -6.5098   11.7629  -10.7403 C   0  0  0  0  0  0  0  0  0  0  0  0
   -7.7247   10.5660  -13.0266 C   0  0  0  0  0  0  0  0  0  0  0  0
   -6.9942   11.7487  -13.1193 C   0  0  0  0  0  0  0  0  0  0  0  0
   -7.8312   10.0057  -11.7538 C   0  0  0  0  0  0  0  0  0  0  0  0
   -7.2443   10.6021  -10.6070 C   0  0  0  0  0  0  0  0  0  0  0  0
   -7.6167    9.7449   -9.5151 C   0  0  0  0  0  0  0  0  0  0  0  0
   -8.2961    8.7374   -9.9786 N   0  0  0  0  0  0  0  0  0  0  0  0
   -8.4404    8.8724  -11.2937 N   0  0  0  0  0  0  0  0  0  0  0  0
   -7.3318    9.8946   -8.0252 C   0  0  0  0  0  0  0  0  0  0  0  0
   -5.5478   13.5112  -12.1572 C   0  0  0  0  0  0  0  0  0  0  0  0
   -5.9707   10.4870   -7.7351 C   0  0  0  0  0  0  0  0  0  0  0  0
   -5.8642   11.7588   -7.1694 C   0  0  0  0  0  0  0  0  0  0  0  0
   -4.6019   12.3141   -6.9186 C   0  0  0  0  0  0  0  0  0  0  0  0
   -3.4503   11.5963   -7.2357 C   0  0  0  0  0  0  0  0  0  0  0  0
   -3.5604   10.3220   -7.8000 C   0  0  0  0  0  0  0  0  0  0  0  0
   -4.8213    9.7719   -8.0443 C   0  0  0  0  0  0  0  0  0  0  0  0
   -2.0996   12.1710   -6.9757 C   0  0  0  0  0  0  0  0  0  0  0  0
   -1.7487   13.4240   -6.4767 C   0  0  0  0  0  0  0  0  0  0  0  0
   -0.4123   13.4674   -6.4260 N   0  0  0  0  0  0  0  0  0  0  0  0
    0.1713   12.3664   -6.8217 N   0  0  0  0  0  0  0  0  0  0  0  0
   -0.8093   11.5624   -7.1930 C   0  0  0  0  0  0  0  0  0  0  0  0
    0.4224   14.5657   -5.9816 C   0  0  0  0  0  0  0  0  0  0  0  0
   -5.6966   14.2423  -13.2612 N   0  0  0  0  0  0  0  0  0  0  0  0
   -4.9506   15.3153  -13.5405 C   0  0  0  0  0  0  0  0  0  0  0  0
   -3.9383   15.6899  -12.6782 C   0  0  0  0  0  0  0  0  0  0  0  0
   -3.7261   14.9536  -11.5366 C   0  0  0  0  0  0  0  0  0  0  0  0
   -4.5508   13.8769  -11.2437 C   0  0  0  0  0  0  0  0  0  0  0  0
   -2.6976   15.2614  -10.7139 N   0  0  0  0  0  0  0  0  0  0  0  0
   -7.2621   12.9592  -11.8254 H   0  0  0  0  0  0  0  0  0  0  0  0
   -6.0464   12.2223   -9.8797 H   0  0  0  0  0  0  0  0  0  0  0  0
   -8.1826   10.1089  -13.8914 H   0  0  0  0  0  0  0  0  0  0  0  0
   -6.9001   12.2325  -14.0803 H   0  0  0  0  0  0  0  0  0  0  0  0
   -8.0313    9.6067   -7.2544 H   0  0  0  0  0  0  0  0  0  0  0  0
   -6.7563   12.3160   -6.9245 H   0  0  0  0  0  0  0  0  0  0  0  0
   -4.5218   13.2977   -6.4798 H   0  0  0  0  0  0  0  0  0  0  0  0
   -2.6703    9.7625   -8.0472 H   0  0  0  0  0  0  0  0  0  0  0  0
   -4.8715    8.8319   -7.4752 H   0  0  0  0  0  0  0  0  0  0  0  0
   -4.8665    9.5515   -9.1210 H   0  0  0  0  0  0  0  0  0  0  0  0
   -2.4277   14.2118   -6.1857 H   0  0  0  0  0  0  0  0  0  0  0  0
   -0.6637   10.5754   -7.6065 H   0  0  0  0  0  0  0  0  0  0  0  0
    1.4809   14.2752   -6.0543 H   0  0  0  0  0  0  0  0  0  0  0  0
    0.2393   15.4453   -6.6162 H   0  0  0  0  0  0  0  0  0  0  0  0
    0.1804   14.8105   -4.9369 H   0  0  0  0  0  0  0  0  0  0  0  0
   -5.1384   15.8875  -14.4370 H   0  0  0  0  0  0  0  0  0  0  0  0
   -3.3221   16.5493  -12.8978 H   0  0  0  0  0  0  0  0  0  0  0  0
   -4.4255   13.3274  -10.3224 H   0  0  0  0  0  0  0  0  0  0  0  0
   -2.6901   14.6302   -9.9383 H   0  0  0  0  0  0  0  0  0  0  0  0
   -1.8356   15.1840  -11.2148 H   0  0  0  0  0  0  0  0  0  0  0  0
  1  2  1  0  0  0  0
  1  4  1  0  0  0  0
  1 11  1  0  0  0  0
  2  6  2  0  0  0  0
  3  4  2  0  0  0  0
  3  5  1  0  0  0  0
  5  6  1  0  0  0  0
  5  9  2  0  0  0  0
  6  7  1  0  0  0  0
  7  8  2  0  0  0  0
  7 10  1  0  0  0  0
  8  9  1  0  0  0  0
 10 12  2  3  0  0  0
 11 24  2  0  0  0  0
 11 28  1  0  0  0  0
 12 13  1  0  0  0  0
 12 17  1  0  0  0  0
 13 14  2  0  0  0  0
 14 15  1  0  0  0  0
 15 16  2  0  0  0  0
 15 18  1  0  0  0  0
 16 17  1  0  0  0  0
 18 19  2  0  0  0  0
 18 22  1  0  0  0  0
 19 20  1  0  0  0  0
 20 21  1  0  0  0  0
 20 23  1  0  0  0  0
 21 22  2  0  0  0  0
 24 25  1  0  0  0  0
 25 26  2  0  0  0  0
 26 27  1  0  0  0  0
 27 28  2  0  0  0  0
 27 29  1  0  0  0  0
  1 30  1  0  0  0  0
  2 31  1  0  0  0  0
  3 32  1  0  0  0  0
  4 33  1  0  0  0  0
 10 34  1  0  0  0  0
 13 35  1  0  0  0  0
 14 36  1  0  0  0  0
 16 37  1  0  0  0  0
 17 38  1  0  0  0  0
 17 39  1  0  0  0  0
 19 40  1  0  0  0  0
 22 41  1  0  0  0  0
 23 42  1  0  0  0  0
 23 43  1  0  0  0  0
 23 44  1  0  0  0  0
 25 45  1  0  0  0  0
 26 46  1  0  0  0  0
 28 47  1  0  0  0  0
 29 48  1  0  0  0  0
 29 49  1  0  0  0  0
M  END
> <Name>
23

> <IC50[uM]>
0.27

$$$$
23
  -OEChem-05192314333D
 Structure written by MMmdl.
 49 53  0     1  0  0  0  0  0999 V2000
   -6.3775   12.3296  -12.0018 C   0  0  0  0  0  0  0  0  0  0  0  0
   -6.5098   11.7629  -10.7403 C   0  0  0  0  0  0  0  0  0  0  0  0
   -7.7247   10.5660  -13.0266 C   0  0  0  0  0  0  0  0  0  0  0  0
   -6.9942   11.7487  -13.1193 C   0  0  0  0  0  0  0  0  0  0  0  0
   -7.8312   10.0057  -11.7538 C   0  0  0  0  0  0  0  0  0  0  0  0
   -7.2443   10.6021  -10.6070 C   0  0  3  0  0  0  0  0  0  0  0  0
   -7.6167    9.7449   -9.5151 C   0  0  0  0  0  0  0  0  0  0  0  0
   -8.2961    8.7374   -9.9786 N   0  0  0  0  0  0  0  0  0  0  0  0
   -8.4404    8.8724  -11.2937 N   0  0  0  0  0  0  0  0  0  0  0  0
   -7.3318    9.8946   -8.0252 C   0  0  0  0  0  0  0  0  0  0  0  0
   -5.5478   13.5112  -12.1572 C   0  0  0  0  0  0  0  0  0  0  0  0
   -5.9707   10.4870   -7.7351 C   0  0  0  0  0  0  0  0  0  0  0  0
   -5.8642   11.7588   -7.1694 C   0  0  0  0  0  0  0  0  0  0  0  0
   -4.6019   12.3141   -6.9186 C   0  0  0  0  0  0  0  0  0  0  0  0
   -3.4503   11.5963   -7.2357 C   0  0  0  0  0  0  0  0  0  0  0  0
   -3.5604   10.3220   -7.8000 C   0  0  0  0  0  0  0  0  0  0  0  0
   -4.8213    9.7719   -8.0443 C   0  0  0  0  0  0  0  0  0  0  0  0
   -2.0996   12.1710   -6.9757 C   0  0  0  0  0  0  0  0  0  0  0  0
   -1.7487   13.4240   -6.4767 C   0  0  0  0  0  0  0  0  0  0  0  0
   -0.4123   13.4674   -6.4260 N   0  0  0  0  0  0  0  0  0  0  0  0
    0.1713   12.3664   -6.8217 N   0  0  0  0  0  0  0  0  0  0  0  0
   -0.8093   11.5624   -7.1930 C   0  0  0  0  0  0  0  0  0  0  0  0
    0.4224   14.5657   -5.9816 C   0  0  0  0  0  0  0  0  0  0  0  0
   -5.6966   14.2423  -13.2612 N   0  0  0  0  0  0  0  0  0  0  0  0
   -4.9506   15.3153  -13.5405 C   0  0  0  0  0  0  0  0  0  0  0  0
   -3.9383   15.6899  -12.6782 C   0  0  0  0  0  0  0  0  0  0  0  0
   -3.7261   14.9536  -11.5366 C   0  0  0  0  0  0  0  0  0  0  0  0
   -4.5508   13.8769  -11.2437 C   0  0  0  0  0  0  0  0  0  0  0  0
   -2.6976   15.2614  -10.7139 N   0  0  0  0  0  0  0  0  0  0  0  0
   -6.0464   12.2223   -9.8797 H   0  0  0  0  0  0  0  0  0  0  0  0
   -8.1826   10.1089  -13.8914 H   0  0  0  0  0  0  0  0  0  0  0  0
   -6.9001   12.2325  -14.0803 H   0  0  0  0  0  0  0  0  0  0  0  0
   -6.3326   10.0069  -10.7637 H   0  0  0  0  0  0  0  0  0  0  0  0
   -8.0313    9.6067   -7.2544 H   0  0  0  0  0  0  0  0  0  0  0  0
   -6.7563   12.3160   -6.9245 H   0  0  0  0  0  0  0  0  0  0  0  0
   -4.5218   13.2977   -6.4798 H   0  0  0  0  0  0  0  0  0  0  0  0
   -2.6703    9.7625   -8.0472 H   0  0  0  0  0  0  0  0  0  0  0  0
   -4.8715    8.8319   -7.4752 H   0  0  0  0  0  0  0  0  0  0  0  0
   -4.8665    9.5515   -9.1210 H   0  0  0  0  0  0  0  0  0  0  0  0
   -2.4277   14.2118   -6.1857 H   0  0  0  0  0  0  0  0  0  0  0  0
   -0.6637   10.5754   -7.6065 H   0  0  0  0  0  0  0  0  0  0  0  0
    1.4809   14.2752   -6.0543 H   0  0  0  0  0  0  0  0  0  0  0  0
    0.2393   15.4453   -6.6162 H   0  0  0  0  0  0  0  0  0  0  0  0
    0.1804   14.8105   -4.9369 H   0  0  0  0  0  0  0  0  0  0  0  0
   -5.1384   15.8875  -14.4370 H   0  0  0  0  0  0  0  0  0  0  0  0
   -3.3221   16.5493  -12.8978 H   0  0  0  0  0  0  0  0  0  0  0  0
   -4.4255   13.3274  -10.3224 H   0  0  0  0  0  0  0  0  0  0  0  0
   -2.6901   14.6302   -9.9383 H   0  0  0  0  0  0  0  0  0  0  0  0
   -1.8356   15.1840  -11.2148 H   0  0  0  0  0  0  0  0  0  0  0  0
  1  2  2  0  0  0  0
  1  4  1  0  0  0  0
  1 11  1  0  0  0  0
  2  6  1  0  0  0  0
  3  4  2  0  0  0  0
  3  5  1  0  0  0  0
  5  6  1  0  0  0  0
  5  9  2  0  0  0  0
  6  7  1  0  0  0  0
  7  8  2  0  0  0  0
  7 10  1  0  0  0  0
  8  9  1  0  0  0  0
 10 12  2  3  0  0  0
 11 24  2  0  0  0  0
 11 28  1  0  0  0  0
 12 13  1  0  0  0  0
 12 17  1  0  0  0  0
 13 14  2  0  0  0  0
 14 15  1  0  0  0  0
 15 16  2  0  0  0  0
 15 18  1  0  0  0  0
 16 17  1  0  0  0  0
 18 19  2  0  0  0  0
 18 22  1  0  0  0  0
 19 20  1  0  0  0  0
 20 21  1  0  0  0  0
 20 23  1  0  0  0  0
 21 22  2  0  0  0  0
 24 25  1  0  0  0  0
 25 26  2  0  0  0  0
 26 27  1  0  0  0  0
 27 28  2  0  0  0  0
 27 29  1  0  0  0  0
  2 30  1  0  0  0  0
  3 31  1  0  0  0  0
  4 32  1  0  0  0  0
  6 33  1  0  0  0  0
 10 34  1  0  0  0  0
 13 35  1  0  0  0  0
 14 36  1  0  0  0  0
 16 37  1  0  0  0  0
 17 38  1  0  0  0  0
 17 39  1  0  0  0  0
 19 40  1  0  0  0  0
 22 41  1  0  0  0  0
 23 42  1  0  0  0  0
 23 43  1  0  0  0  0
 23 44  1  0  0  0  0
 25 45  1  0  0  0  0
 26 46  1  0  0  0  0
 28 47  1  0  0  0  0
 29 48  1  0  0  0  0
 29 49  1  0  0  0  0
M  END
> <Name>
23

> <IC50[uM]>
0.27

$$$$
23
  -OEChem-05192314333D
 Structure written by MMmdl.
 49 53  0     0  0  0  0  0  0999 V2000
   -6.3775   12.3296  -12.0018 C   0  0  0  0  0  0  0  0  0  0  0  0
   -6.5098   11.7629  -10.7403 C   0  0  0  0  0  0  0  0  0  0  0  0
   -7.7247   10.5660  -13.0266 C   0  0  0  0  0  0  0  0  0  0  0  0
   -6.9942   11.7487  -13.1193 C   0  0  0  0  0  0  0  0  0  0  0  0
   -7.8312   10.0057  -11.7538 C   0  0  0  0  0  0  0  0  0  0  0  0
   -7.2443   10.6021  -10.6070 C   0  0  0  0  0  0  0  0  0  0  0  0
   -7.6167    9.7449   -9.5151 C   0  0  0  0  0  0  0  0  0  0  0  0
   -8.2961    8.7374   -9.9786 N   0  0  0  0  0  0  0  0  0  0  0  0
   -8.4404    8.8724  -11.2937 N   0  0  0  0  0  0  0  0  0  0  0  0
   -7.3318    9.8946   -8.0252 C   0  0  0  0  0  0  0  0  0  0  0  0
   -5.5478   13.5112  -12.1572 C   0  0  0  0  0  0  0  0  0  0  0  0
   -5.9707   10.4870   -7.7351 C   0  0  0  0  0  0  0  0  0  0  0  0
   -5.8642   11.7588   -7.1694 C   0  0  0  0  0  0  0  0  0  0  0  0
   -4.6019   12.3141   -6.9186 C   0  0  0  0  0  0  0  0  0  0  0  0
   -3.4503   11.5963   -7.2357 C   0  0  0  0  0  0  0  0  0  0  0  0
   -3.5604   10.3220   -7.8000 C   0  0  0  0  0  0  0  0  0  0  0  0
   -4.8213    9.7719   -8.0443 C   0  0  0  0  0  0  0  0  0  0  0  0
   -2.0996   12.1710   -6.9757 C   0  0  0  0  0  0  0  0  0  0  0  0
   -1.7487   13.4240   -6.4767 C   0  0  0  0  0  0  0  0  0  0  0  0
   -0.4123   13.4674   -6.4260 N   0  0  0  0  0  0  0  0  0  0  0  0
    0.1713   12.3664   -6.8217 N   0  0  0  0  0  0  0  0  0  0  0  0
   -0.8093   11.5624   -7.1930 C   0  0  0  0  0  0  0  0  0  0  0  0
    0.4224   14.5657   -5.9816 C   0  0  0  0  0  0  0  0  0  0  0  0
   -5.6966   14.2423  -13.2612 N   0  0  0  0  0  0  0  0  0  0  0  0
   -4.9506   15.3153  -13.5405 C   0  0  0  0  0  0  0  0  0  0  0  0
   -3.9383   15.6899  -12.6782 C   0  0  0  0  0  0  0  0  0  0  0  0
   -3.7261   14.9536  -11.5366 C   0  0  0  0  0  0  0  0  0  0  0  0
   -4.5508   13.8769  -11.2437 C   0  0  0  0  0  0  0  0  0  0  0  0
   -2.6976   15.2614  -10.7139 N   0  0  0  0  0  0  0  0  0  0  0  0
   -6.0464   12.2223   -9.8797 H   0  0  0  0  0  0  0  0  0  0  0  0
   -8.7428   10.7712  -13.3891 H   0  0  0  0  0  0  0  0  0  0  0  0
   -7.2451    9.8233  -13.6811 H   0  0  0  0  0  0  0  0  0  0  0  0
   -6.9001   12.2325  -14.0803 H   0  0  0  0  0  0  0  0  0  0  0  0
   -8.0313    9.6067   -7.2544 H   0  0  0  0  0  0  0  0  0  0  0  0
   -6.7563   12.3160   -6.9245 H   0  0  0  0  0  0  0  0  0  0  0  0
   -4.5218   13.2977   -6.4798 H   0  0  0  0  0  0  0  0  0  0  0  0
   -2.6703    9.7625   -8.0472 H   0  0  0  0  0  0  0  0  0  0  0  0
   -4.8715    8.8319   -7.4752 H   0  0  0  0  0  0  0  0  0  0  0  0
   -4.8665    9.5515   -9.1210 H   0  0  0  0  0  0  0  0  0  0  0  0
   -2.4277   14.2118   -6.1857 H   0  0  0  0  0  0  0  0  0  0  0  0
   -0.6637   10.5754   -7.6065 H   0  0  0  0  0  0  0  0  0  0  0  0
    1.4809   14.2752   -6.0543 H   0  0  0  0  0  0  0  0  0  0  0  0
    0.2393   15.4453   -6.6162 H   0  0  0  0  0  0  0  0  0  0  0  0
    0.1804   14.8105   -4.9369 H   0  0  0  0  0  0  0  0  0  0  0  0
   -5.1384   15.8875  -14.4370 H   0  0  0  0  0  0  0  0  0  0  0  0
   -3.3221   16.5493  -12.8978 H   0  0  0  0  0  0  0  0  0  0  0  0
   -4.4255   13.3274  -10.3224 H   0  0  0  0  0  0  0  0  0  0  0  0
   -2.6901   14.6302   -9.9383 H   0  0  0  0  0  0  0  0  0  0  0  0
   -1.8356   15.1840  -11.2148 H   0  0  0  0  0  0  0  0  0  0  0  0
  1  2  1  0  0  0  0
  1  4  2  0  0  0  0
  1 11  1  0  0  0  0
  2  6  2  0  0  0  0
  3  4  1  0  0  0  0
  3  5  1  0  0  0  0
  5  6  1  0  0  0  0
  5  9  2  0  0  0  0
  6  7  1  0  0  0  0
  7  8  2  0  0  0  0
  7 10  1  0  0  0  0
  8  9  1  0  0  0  0
 10 12  2  3  0  0  0
 11 24  2  0  0  0  0
 11 28  1  0  0  0  0
 12 13  1  0  0  0  0
 12 17  1  0  0  0  0
 13 14  2  0  0  0  0
 14 15  1  0  0  0  0
 15 16  2  0  0  0  0
 15 18  1  0  0  0  0
 16 17  1  0  0  0  0
 18 19  2  0  0  0  0
 18 22  1  0  0  0  0
 19 20  1  0  0  0  0
 20 21  1  0  0  0  0
 20 23  1  0  0  0  0
 21 22  2  0  0  0  0
 24 25  1  0  0  0  0
 25 26  2  0  0  0  0
 26 27  1  0  0  0  0
 27 28  2  0  0  0  0
 27 29  1  0  0  0  0
  2 30  1  0  0  0  0
  3 31  1  0  0  0  0
  3 32  1  0  0  0  0
  4 33  1  0  0  0  0
 10 34  1  0  0  0  0
 13 35  1  0  0  0  0
 14 36  1  0  0  0  0
 16 37  1  0  0  0  0
 17 38  1  0  0  0  0
 17 39  1  0  0  0  0
 19 40  1  0  0  0  0
 22 41  1  0  0  0  0
 23 42  1  0  0  0  0
 23 43  1  0  0  0  0
 23 44  1  0  0  0  0
 25 45  1  0  0  0  0
 26 46  1  0  0  0  0
 28 47  1  0  0  0  0
 29 48  1  0  0  0  0
 29 49  1  0  0  0  0
M  END
> <Name>
23

> <IC50[uM]>
0.27

$$$$
23
  -OEChem-05192314333D
 Structure written by MMmdl.
 49 53  0     1  0  0  0  0  0999 V2000
   -6.3775   12.3296  -12.0018 C   0  0  0  0  0  0  0  0  0  0  0  0
   -6.5098   11.7629  -10.7403 C   0  0  0  0  0  0  0  0  0  0  0  0
   -7.7247   10.5660  -13.0266 C   0  0  0  0  0  0  0  0  0  0  0  0
   -6.9942   11.7487  -13.1193 C   0  0  0  0  0  0  0  0  0  0  0  0
   -7.8312   10.0057  -11.7538 C   0  0  3  0  0  0  0  0  0  0  0  0
   -7.2443   10.6021  -10.6070 C   0  0  0  0  0  0  0  0  0  0  0  0
   -7.6167    9.7449   -9.5151 C   0  0  0  0  0  0  0  0  0  0  0  0
   -8.2961    8.7374   -9.9786 N   0  0  0  0  0  0  0  0  0  0  0  0
   -8.4404    8.8724  -11.2937 N   0  0  0  0  0  0  0  0  0  0  0  0
   -7.3318    9.8946   -8.0252 C   0  0  0  0  0  0  0  0  0  0  0  0
   -5.5478   13.5112  -12.1572 C   0  0  0  0  0  0  0  0  0  0  0  0
   -5.9707   10.4870   -7.7351 C   0  0  0  0  0  0  0  0  0  0  0  0
   -5.8642   11.7588   -7.1694 C   0  0  0  0  0  0  0  0  0  0  0  0
   -4.6019   12.3141   -6.9186 C   0  0  0  0  0  0  0  0  0  0  0  0
   -3.4503   11.5963   -7.2357 C   0  0  0  0  0  0  0  0  0  0  0  0
   -3.5604   10.3220   -7.8000 C   0  0  0  0  0  0  0  0  0  0  0  0
   -4.8213    9.7719   -8.0443 C   0  0  0  0  0  0  0  0  0  0  0  0
   -2.0996   12.1710   -6.9757 C   0  0  0  0  0  0  0  0  0  0  0  0
   -1.7487   13.4240   -6.4767 C   0  0  0  0  0  0  0  0  0  0  0  0
   -0.4123   13.4674   -6.4260 N   0  0  0  0  0  0  0  0  0  0  0  0
    0.1713   12.3664   -6.8217 N   0  0  0  0  0  0  0  0  0  0  0  0
   -0.8093   11.5624   -7.1930 C   0  0  0  0  0  0  0  0  0  0  0  0
    0.4224   14.5657   -5.9816 C   0  0  0  0  0  0  0  0  0  0  0  0
   -5.6966   14.2423  -13.2612 N   0  0  0  0  0  0  0  0  0  0  0  0
   -4.9506   15.3153  -13.5405 C   0  0  0  0  0  0  0  0  0  0  0  0
   -3.9383   15.6899  -12.6782 C   0  0  0  0  0  0  0  0  0  0  0  0
   -3.7261   14.9536  -11.5366 C   0  0  0  0  0  0  0  0  0  0  0  0
   -4.5508   13.8769  -11.2437 C   0  0  0  0  0  0  0  0  0  0  0  0
   -2.6976   15.2614  -10.7139 N   0  0  0  0  0  0  0  0  0  0  0  0
   -6.0464   12.2223   -9.8797 H   0  0  0  0  0  0  0  0  0  0  0  0
   -8.1826   10.1089  -13.8914 H   0  0  0  0  0  0  0  0  0  0  0  0
   -6.9001   12.2325  -14.0803 H   0  0  0  0  0  0  0  0  0  0  0  0
   -8.7557   10.5755  -11.5787 H   0  0  0  0  0  0  0  0  0  0  0  0
   -8.0313    9.6067   -7.2544 H   0  0  0  0  0  0  0  0  0  0  0  0
   -6.7563   12.3160   -6.9245 H   0  0  0  0  0  0  0  0  0  0  0  0
   -4.5218   13.2977   -6.4798 H   0  0  0  0  0  0  0  0  0  0  0  0
   -3.4477   12.0425   -8.2411 H   0  0  0  0  0  0  0  0  0  0  0  0
   -2.6703    9.7625   -8.0472 H   0  0  0  0  0  0  0  0  0  0  0  0
   -4.9024    8.7852   -8.4759 H   0  0  0  0  0  0  0  0  0  0  0  0
   -2.4277   14.2118   -6.1857 H   0  0  0  0  0  0  0  0  0  0  0  0
   -0.6637   10.5754   -7.6065 H   0  0  0  0  0  0  0  0  0  0  0  0
    1.4809   14.2752   -6.0543 H   0  0  0  0  0  0  0  0  0  0  0  0
    0.2393   15.4453   -6.6162 H   0  0  0  0  0  0  0  0  0  0  0  0
    0.1804   14.8105   -4.9369 H   0  0  0  0  0  0  0  0  0  0  0  0
   -5.1384   15.8875  -14.4370 H   0  0  0  0  0  0  0  0  0  0  0  0
   -3.3221   16.5493  -12.8978 H   0  0  0  0  0  0  0  0  0  0  0  0
   -4.4255   13.3274  -10.3224 H   0  0  0  0  0  0  0  0  0  0  0  0
   -2.6901   14.6302   -9.9383 H   0  0  0  0  0  0  0  0  0  0  0  0
   -1.8356   15.1840  -11.2148 H   0  0  0  0  0  0  0  0  0  0  0  0
  1  2  2  0  0  0  0
  1  4  1  0  0  0  0
  1 11  1  0  0  0  0
  2  6  1  0  0  0  0
  3  4  2  0  0  0  0
  3  5  1  0  0  0  0
  5  6  1  0  0  0  0
  5  9  1  0  0  0  0
  6  7  2  0  0  0  0
  7  8  1  0  0  0  0
  7 10  1  0  0  0  0
  8  9  2  0  0  0  0
 10 12  2  0  0  0  0
 11 24  2  0  0  0  0
 11 28  1  0  0  0  0
 12 13  1  0  0  0  0
 12 17  1  0  0  0  0
 13 14  2  0  0  0  0
 14 15  1  0  0  0  0
 15 16  1  0  0  0  0
 15 18  1  0  0  0  0
 16 17  2  0  0  0  0
 18 19  2  0  0  0  0
 18 22  1  0  0  0  0
 19 20  1  0  0  0  0
 20 21  1  0  0  0  0
 20 23  1  0  0  0  0
 21 22  2  0  0  0  0
 24 25  1  0  0  0  0
 25 26  2  0  0  0  0
 26 27  1  0  0  0  0
 27 28  2  0  0  0  0
 27 29  1  0  0  0  0
  2 30  1  0  0  0  0
  3 31  1  0  0  0  0
  4 32  1  0  0  0  0
  5 33  1  0  0  0  0
 10 34  1  0  0  0  0
 13 35  1  0  0  0  0
 14 36  1  0  0  0  0
 15 37  1  0  0  0  0
 16 38  1  0  0  0  0
 17 39  1  0  0  0  0
 19 40  1  0  0  0  0
 22 41  1  0  0  0  0
 23 42  1  0  0  0  0
 23 43  1  0  0  0  0
 23 44  1  0  0  0  0
 25 45  1  0  0  0  0
 26 46  1  0  0  0  0
 28 47  1  0  0  0  0
 29 48  1  0  0  0  0
 29 49  1  0  0  0  0
M  END
> <Name>
23

> <IC50[uM]>
0.27

$$$$
23
  -OEChem-05192314333D
 Structure written by MMmdl.
 49 53  0     0  0  0  0  0  0999 V2000
   -6.3775   12.3296  -12.0018 C   0  0  0  0  0  0  0  0  0  0  0  0
   -6.5098   11.7629  -10.7403 C   0  0  0  0  0  0  0  0  0  0  0  0
   -7.7247   10.5660  -13.0266 C   0  0  0  0  0  0  0  0  0  0  0  0
   -6.9942   11.7487  -13.1193 C   0  0  0  0  0  0  0  0  0  0  0  0
   -7.8312   10.0057  -11.7538 C   0  0  0  0  0  0  0  0  0  0  0  0
   -7.2443   10.6021  -10.6070 C   0  0  0  0  0  0  0  0  0  0  0  0
   -7.6167    9.7449   -9.5151 C   0  0  0  0  0  0  0  0  0  0  0  0
   -8.2961    8.7374   -9.9786 N   0  0  0  0  0  0  0  0  0  0  0  0
   -8.4404    8.8724  -11.2937 N   0  0  0  0  0  0  0  0  0  0  0  0
   -7.3318    9.8946   -8.0252 C   0  0  0  0  0  0  0  0  0  0  0  0
   -5.5478   13.5112  -12.1572 C   0  0  0  0  0  0  0  0  0  0  0  0
   -5.9707   10.4870   -7.7351 C   0  0  0  0  0  0  0  0  0  0  0  0
   -5.8642   11.7588   -7.1694 C   0  0  0  0  0  0  0  0  0  0  0  0
   -4.6019   12.3141   -6.9186 C   0  0  0  0  0  0  0  0  0  0  0  0
   -3.4503   11.5963   -7.2357 C   0  0  0  0  0  0  0  0  0  0  0  0
   -3.5604   10.3220   -7.8000 C   0  0  0  0  0  0  0  0  0  0  0  0
   -4.8213    9.7719   -8.0443 C   0  0  0  0  0  0  0  0  0  0  0  0
   -2.0996   12.1710   -6.9757 C   0  0  0  0  0  0  0  0  0  0  0  0
   -1.7487   13.4240   -6.4767 C   0  0  0  0  0  0  0  0  0  0  0  0
   -0.4123   13.4674   -6.4260 N   0  0  0  0  0  0  0  0  0  0  0  0
    0.1713   12.3664   -6.8217 N   0  0  0  0  0  0  0  0  0  0  0  0
   -0.8093   11.5624   -7.1930 C   0  0  0  0  0  0  0  0  0  0  0  0
    0.4224   14.5657   -5.9816 C   0  0  0  0  0  0  0  0  0  0  0  0
   -5.6966   14.2423  -13.2612 N   0  0  0  0  0  0  0  0  0  0  0  0
   -4.9506   15.3153  -13.5405 C   0  0  0  0  0  0  0  0  0  0  0  0
   -3.9383   15.6899  -12.6782 C   0  0  0  0  0  0  0  0  0  0  0  0
   -3.7261   14.9536  -11.5366 C   0  0  0  0  0  0  0  0  0  0  0  0
   -4.5508   13.8769  -11.2437 C   0  0  0  0  0  0  0  0  0  0  0  0
   -2.6976   15.2614  -10.7139 N   0  0  0  0  0  0  0  0  0  0  0  0
   -6.0464   12.2223   -9.8797 H   0  0  0  0  0  0  0  0  0  0  0  0
   -8.1826   10.1089  -13.8914 H   0  0  0  0  0  0  0  0  0  0  0  0
   -7.6841   12.5064  -13.5191 H   0  0  0  0  0  0  0  0  0  0  0  0
   -6.1936   11.5599  -13.8497 H   0  0  0  0  0  0  0  0  0  0  0  0
   -8.0313    9.6067   -7.2544 H   0  0  0  0  0  0  0  0  0  0  0  0
   -6.7563   12.3160   -6.9245 H   0  0  0  0  0  0  0  0  0  0  0  0
   -4.5218   13.2977   -6.4798 H   0  0  0  0  0  0  0  0  0  0  0  0
   -3.4477   12.0425   -8.2411 H   0  0  0  0  0  0  0  0  0  0  0  0
   -2.6703    9.7625   -8.0472 H   0  0  0  0  0  0  0  0  0  0  0  0
   -4.9024    8.7852   -8.4759 H   0  0  0  0  0  0  0  0  0  0  0  0
   -2.4277   14.2118   -6.1857 H   0  0  0  0  0  0  0  0  0  0  0  0
   -0.6637   10.5754   -7.6065 H   0  0  0  0  0  0  0  0  0  0  0  0
    1.4809   14.2752   -6.0543 H   0  0  0  0  0  0  0  0  0  0  0  0
    0.2393   15.4453   -6.6162 H   0  0  0  0  0  0  0  0  0  0  0  0
    0.1804   14.8105   -4.9369 H   0  0  0  0  0  0  0  0  0  0  0  0
   -5.1384   15.8875  -14.4370 H   0  0  0  0  0  0  0  0  0  0  0  0
   -3.3221   16.5493  -12.8978 H   0  0  0  0  0  0  0  0  0  0  0  0
   -4.4255   13.3274  -10.3224 H   0  0  0  0  0  0  0  0  0  0  0  0
   -2.6901   14.6302   -9.9383 H   0  0  0  0  0  0  0  0  0  0  0  0
   -1.8356   15.1840  -11.2148 H   0  0  0  0  0  0  0  0  0  0  0  0
  1  2  2  0  0  0  0
  1  4  1  0  0  0  0
  1 11  1  0  0  0  0
  2  6  1  0  0  0  0
  3  4  1  0  0  0  0
  3  5  2  0  0  0  0
  5  6  1  0  0  0  0
  5  9  1  0  0  0  0
  6  7  2  0  0  0  0
  7  8  1  0  0  0  0
  7 10  1  0  0  0  0
  8  9  2  0  0  0  0
 10 12  2  0  0  0  0
 11 24  2  0  0  0  0
 11 28  1  0  0  0  0
 12 13  1  0  0  0  0
 12 17  1  0  0  0  0
 13 14  2  0  0  0  0
 14 15  1  0  0  0  0
 15 16  1  0  0  0  0
 15 18  1  0  0  0  0
 16 17  2  0  0  0  0
 18 19  2  0  0  0  0
 18 22  1  0  0  0  0
 19 20  1  0  0  0  0
 20 21  1  0  0  0  0
 20 23  1  0  0  0  0
 21 22  2  0  0  0  0
 24 25  1  0  0  0  0
 25 26  2  0  0  0  0
 26 27  1  0  0  0  0
 27 28  2  0  0  0  0
 27 29  1  0  0  0  0
  2 30  1  0  0  0  0
  3 31  1  0  0  0  0
  4 32  1  0  0  0  0
  4 33  1  0  0  0  0
 10 34  1  0  0  0  0
 13 35  1  0  0  0  0
 14 36  1  0  0  0  0
 15 37  1  0  0  0  0
 16 38  1  0  0  0  0
 17 39  1  0  0  0  0
 19 40  1  0  0  0  0
 22 41  1  0  0  0  0
 23 42  1  0  0  0  0
 23 43  1  0  0  0  0
 23 44  1  0  0  0  0
 25 45  1  0  0  0  0
 26 46  1  0  0  0  0
 28 47  1  0  0  0  0
 29 48  1  0  0  0  0
 29 49  1  0  0  0  0
M  END
> <Name>
23

> <IC50[uM]>
0.27

$$$$
23
  -OEChem-05192314333D
 Structure written by MMmdl.
 49 53  0     1  0  0  0  0  0999 V2000
   -6.3775   12.3296  -12.0018 C   0  0  0  0  0  0  0  0  0  0  0  0
   -6.5098   11.7629  -10.7403 C   0  0  0  0  0  0  0  0  0  0  0  0
   -7.7247   10.5660  -13.0266 C   0  0  0  0  0  0  0  0  0  0  0  0
   -6.9942   11.7487  -13.1193 C   0  0  0  0  0  0  0  0  0  0  0  0
   -7.8312   10.0057  -11.7538 C   0  0  3  0  0  0  0  0  0  0  0  0
   -7.2443   10.6021  -10.6070 C   0  0  0  0  0  0  0  0  0  0  0  0
   -7.6167    9.7449   -9.5151 C   0  0  0  0  0  0  0  0  0  0  0  0
   -8.2961    8.7374   -9.9786 N   0  0  0  0  0  0  0  0  0  0  0  0
   -8.4404    8.8724  -11.2937 N   0  0  0  0  0  0  0  0  0  0  0  0
   -7.3318    9.8946   -8.0252 C   0  0  0  0  0  0  0  0  0  0  0  0
   -5.5478   13.5112  -12.1572 C   0  0  0  0  0  0  0  0  0  0  0  0
   -5.9707   10.4870   -7.7351 C   0  0  0  0  0  0  0  0  0  0  0  0
   -5.8642   11.7588   -7.1694 C   0  0  0  0  0  0  0  0  0  0  0  0
   -4.6019   12.3141   -6.9186 C   0  0  0  0  0  0  0  0  0  0  0  0
   -3.4503   11.5963   -7.2357 C   0  0  0  0  0  0  0  0  0  0  0  0
   -3.5604   10.3220   -7.8000 C   0  0  0  0  0  0  0  0  0  0  0  0
   -4.8213    9.7719   -8.0443 C   0  0  0  0  0  0  0  0  0  0  0  0
   -2.0996   12.1710   -6.9757 C   0  0  0  0  0  0  0  0  0  0  0  0
   -1.7487   13.4240   -6.4767 C   0  0  0  0  0  0  0  0  0  0  0  0
   -0.4123   13.4674   -6.4260 N   0  0  0  0  0  0  0  0  0  0  0  0
    0.1713   12.3664   -6.8217 N   0  0  0  0  0  0  0  0  0  0  0  0
   -0.8093   11.5624   -7.1930 C   0  0  0  0  0  0  0  0  0  0  0  0
    0.4224   14.5657   -5.9816 C   0  0  0  0  0  0  0  0  0  0  0  0
   -5.6966   14.2423  -13.2612 N   0  0  0  0  0  0  0  0  0  0  0  0
   -4.9506   15.3153  -13.5405 C   0  0  0  0  0  0  0  0  0  0  0  0
   -3.9383   15.6899  -12.6782 C   0  0  0  0  0  0  0  0  0  0  0  0
   -3.7261   14.9536  -11.5366 C   0  0  0  0  0  0  0  0  0  0  0  0
   -4.5508   13.8769  -11.2437 C   0  0  0  0  0  0  0  0  0  0  0  0
   -2.6976   15.2614  -10.7139 N   0  0  0  0  0  0  0  0  0  0  0  0
   -6.0464   12.2223   -9.8797 H   0  0  0  0  0  0  0  0  0  0  0  0
   -8.1826   10.1089  -13.8914 H   0  0  0  0  0  0  0  0  0  0  0  0
   -6.9001   12.2325  -14.0803 H   0  0  0  0  0  0  0  0  0  0  0  0
   -8.7557   10.5755  -11.5787 H   0  0  0  0  0  0  0  0  0  0  0  0
   -8.0313    9.6067   -7.2544 H   0  0  0  0  0  0  0  0  0  0  0  0
   -6.7563   12.3160   -6.9245 H   0  0  0  0  0  0  0  0  0  0  0  0
   -4.5218   13.2977   -6.4798 H   0  0  0  0  0  0  0  0  0  0  0  0
   -2.6703    9.7625   -8.0472 H   0  0  0  0  0  0  0  0  0  0  0  0
   -4.8715    8.8319   -7.4752 H   0  0  0  0  0  0  0  0  0  0  0  0
   -4.8665    9.5515   -9.1210 H   0  0  0  0  0  0  0  0  0  0  0  0
   -2.4277   14.2118   -6.1857 H   0  0  0  0  0  0  0  0  0  0  0  0
   -0.6637   10.5754   -7.6065 H   0  0  0  0  0  0  0  0  0  0  0  0
    1.4809   14.2752   -6.0543 H   0  0  0  0  0  0  0  0  0  0  0  0
    0.2393   15.4453   -6.6162 H   0  0  0  0  0  0  0  0  0  0  0  0
    0.1804   14.8105   -4.9369 H   0  0  0  0  0  0  0  0  0  0  0  0
   -5.1384   15.8875  -14.4370 H   0  0  0  0  0  0  0  0  0  0  0  0
   -3.3221   16.5493  -12.8978 H   0  0  0  0  0  0  0  0  0  0  0  0
   -4.4255   13.3274  -10.3224 H   0  0  0  0  0  0  0  0  0  0  0  0
   -2.6901   14.6302   -9.9383 H   0  0  0  0  0  0  0  0  0  0  0  0
   -1.8356   15.1840  -11.2148 H   0  0  0  0  0  0  0  0  0  0  0  0
  1  2  2  0  0  0  0
  1  4  1  0  0  0  0
  1 11  1  0  0  0  0
  2  6  1  0  0  0  0
  3  4  2  0  0  0  0
  3  5  1  0  0  0  0
  5  6  1  0  0  0  0
  5  9  1  0  0  0  0
  6  7  2  0  0  0  0
  7  8  1  0  0  0  0
  7 10  1  0  0  0  0
  8  9  2  0  0  0  0
 10 12  2  3  0  0  0
 11 24  2  0  0  0  0
 11 28  1  0  0  0  0
 12 13  1  0  0  0  0
 12 17  1  0  0  0  0
 13 14  2  0  0  0  0
 14 15  1  0  0  0  0
 15 16  2  0  0  0  0
 15 18  1  0  0  0  0
 16 17  1  0  0  0  0
 18 19  2  0  0  0  0
 18 22  1  0  0  0  0
 19 20  1  0  0  0  0
 20 21  1  0  0  0  0
 20 23  1  0  0  0  0
 21 22  2  0  0  0  0
 24 25  1  0  0  0  0
 25 26  2  0  0  0  0
 26 27  1  0  0  0  0
 27 28  2  0  0  0  0
 27 29  1  0  0  0  0
  2 30  1  0  0  0  0
  3 31  1  0  0  0  0
  4 32  1  0  0  0  0
  5 33  1  0  0  0  0
 10 34  1  0  0  0  0
 13 35  1  0  0  0  0
 14 36  1  0  0  0  0
 16 37  1  0  0  0  0
 17 38  1  0  0  0  0
 17 39  1  0  0  0  0
 19 40  1  0  0  0  0
 22 41  1  0  0  0  0
 23 42  1  0  0  0  0
 23 43  1  0  0  0  0
 23 44  1  0  0  0  0
 25 45  1  0  0  0  0
 26 46  1  0  0  0  0
 28 47  1  0  0  0  0
 29 48  1  0  0  0  0
 29 49  1  0  0  0  0
M  END
> <Name>
23

> <IC50[uM]>
0.27

$$$$
23
  -OEChem-05192314333D
 Structure written by MMmdl.
 49 53  0     0  0  0  0  0  0999 V2000
   -6.3775   12.3296  -12.0018 C   0  0  0  0  0  0  0  0  0  0  0  0
   -6.5098   11.7629  -10.7403 C   0  0  0  0  0  0  0  0  0  0  0  0
   -7.7247   10.5660  -13.0266 C   0  0  0  0  0  0  0  0  0  0  0  0
   -6.9942   11.7487  -13.1193 C   0  0  0  0  0  0  0  0  0  0  0  0
   -7.8312   10.0057  -11.7538 C   0  0  0  0  0  0  0  0  0  0  0  0
   -7.2443   10.6021  -10.6070 C   0  0  0  0  0  0  0  0  0  0  0  0
   -7.6167    9.7449   -9.5151 C   0  0  0  0  0  0  0  0  0  0  0  0
   -8.2961    8.7374   -9.9786 N   0  0  0  0  0  0  0  0  0  0  0  0
   -8.4404    8.8724  -11.2937 N   0  0  0  0  0  0  0  0  0  0  0  0
   -7.3318    9.8946   -8.0252 C   0  0  0  0  0  0  0  0  0  0  0  0
   -5.5478   13.5112  -12.1572 C   0  0  0  0  0  0  0  0  0  0  0  0
   -5.9707   10.4870   -7.7351 C   0  0  0  0  0  0  0  0  0  0  0  0
   -5.8642   11.7588   -7.1694 C   0  0  0  0  0  0  0  0  0  0  0  0
   -4.6019   12.3141   -6.9186 C   0  0  0  0  0  0  0  0  0  0  0  0
   -3.4503   11.5963   -7.2357 C   0  0  0  0  0  0  0  0  0  0  0  0
   -3.5604   10.3220   -7.8000 C   0  0  0  0  0  0  0  0  0  0  0  0
   -4.8213    9.7719   -8.0443 C   0  0  0  0  0  0  0  0  0  0  0  0
   -2.0996   12.1710   -6.9757 C   0  0  0  0  0  0  0  0  0  0  0  0
   -1.7487   13.4240   -6.4767 C   0  0  0  0  0  0  0  0  0  0  0  0
   -0.4123   13.4674   -6.4260 N   0  0  0  0  0  0  0  0  0  0  0  0
    0.1713   12.3664   -6.8217 N   0  0  0  0  0  0  0  0  0  0  0  0
   -0.8093   11.5624   -7.1930 C   0  0  0  0  0  0  0  0  0  0  0  0
    0.4224   14.5657   -5.9816 C   0  0  0  0  0  0  0  0  0  0  0  0
   -5.6966   14.2423  -13.2612 N   0  0  0  0  0  0  0  0  0  0  0  0
   -4.9506   15.3153  -13.5405 C   0  0  0  0  0  0  0  0  0  0  0  0
   -3.9383   15.6899  -12.6782 C   0  0  0  0  0  0  0  0  0  0  0  0
   -3.7261   14.9536  -11.5366 C   0  0  0  0  0  0  0  0  0  0  0  0
   -4.5508   13.8769  -11.2437 C   0  0  0  0  0  0  0  0  0  0  0  0
   -2.6976   15.2614  -10.7139 N   0  0  0  0  0  0  0  0  0  0  0  0
   -6.0464   12.2223   -9.8797 H   0  0  0  0  0  0  0  0  0  0  0  0
   -8.1826   10.1089  -13.8914 H   0  0  0  0  0  0  0  0  0  0  0  0
   -7.6841   12.5064  -13.5191 H   0  0  0  0  0  0  0  0  0  0  0  0
   -6.1936   11.5599  -13.8497 H   0  0  0  0  0  0  0  0  0  0  0  0
   -8.0313    9.6067   -7.2544 H   0  0  0  0  0  0  0  0  0  0  0  0
   -6.7563   12.3160   -6.9245 H   0  0  0  0  0  0  0  0  0  0  0  0
   -4.5218   13.2977   -6.4798 H   0  0  0  0  0  0  0  0  0  0  0  0
   -2.6703    9.7625   -8.0472 H   0  0  0  0  0  0  0  0  0  0  0  0
   -4.8715    8.8319   -7.4752 H   0  0  0  0  0  0  0  0  0  0  0  0
   -4.8665    9.5515   -9.1210 H   0  0  0  0  0  0  0  0  0  0  0  0
   -2.4277   14.2118   -6.1857 H   0  0  0  0  0  0  0  0  0  0  0  0
   -0.6637   10.5754   -7.6065 H   0  0  0  0  0  0  0  0  0  0  0  0
    1.4809   14.2752   -6.0543 H   0  0  0  0  0  0  0  0  0  0  0  0
    0.2393   15.4453   -6.6162 H   0  0  0  0  0  0  0  0  0  0  0  0
    0.1804   14.8105   -4.9369 H   0  0  0  0  0  0  0  0  0  0  0  0
   -5.1384   15.8875  -14.4370 H   0  0  0  0  0  0  0  0  0  0  0  0
   -3.3221   16.5493  -12.8978 H   0  0  0  0  0  0  0  0  0  0  0  0
   -4.4255   13.3274  -10.3224 H   0  0  0  0  0  0  0  0  0  0  0  0
   -2.6901   14.6302   -9.9383 H   0  0  0  0  0  0  0  0  0  0  0  0
   -1.8356   15.1840  -11.2148 H   0  0  0  0  0  0  0  0  0  0  0  0
  1  2  2  0  0  0  0
  1  4  1  0  0  0  0
  1 11  1  0  0  0  0
  2  6  1  0  0  0  0
  3  4  1  0  0  0  0
  3  5  2  0  0  0  0
  5  6  1  0  0  0  0
  5  9  1  0  0  0  0
  6  7  2  0  0  0  0
  7  8  1  0  0  0  0
  7 10  1  0  0  0  0
  8  9  2  0  0  0  0
 10 12  2  3  0  0  0
 11 24  2  0  0  0  0
 11 28  1  0  0  0  0
 12 13  1  0  0  0  0
 12 17  1  0  0  0  0
 13 14  2  0  0  0  0
 14 15  1  0  0  0  0
 15 16  2  0  0  0  0
 15 18  1  0  0  0  0
 16 17  1  0  0  0  0
 18 19  2  0  0  0  0
 18 22  1  0  0  0  0
 19 20  1  0  0  0  0
 20 21  1  0  0  0  0
 20 23  1  0  0  0  0
 21 22  2  0  0  0  0
 24 25  1  0  0  0  0
 25 26  2  0  0  0  0
 26 27  1  0  0  0  0
 27 28  2  0  0  0  0
 27 29  1  0  0  0  0
  2 30  1  0  0  0  0
  3 31  1  0  0  0  0
  4 32  1  0  0  0  0
  4 33  1  0  0  0  0
 10 34  1  0  0  0  0
 13 35  1  0  0  0  0
 14 36  1  0  0  0  0
 16 37  1  0  0  0  0
 17 38  1  0  0  0  0
 17 39  1  0  0  0  0
 19 40  1  0  0  0  0
 22 41  1  0  0  0  0
 23 42  1  0  0  0  0
 23 43  1  0  0  0  0
 23 44  1  0  0  0  0
 25 45  1  0  0  0  0
 26 46  1  0  0  0  0
 28 47  1  0  0  0  0
 29 48  1  0  0  0  0
 29 49  1  0  0  0  0
M  END
> <Name>
23

> <IC50[uM]>
0.27

$$$$
23
  -OEChem-05192314333D
 Structure written by MMmdl.
 49 53  0     0  0  0  0  0  0999 V2000
   -6.3775   12.3296  -12.0018 C   0  0  0  0  0  0  0  0  0  0  0  0
   -6.5098   11.7629  -10.7403 C   0  0  0  0  0  0  0  0  0  0  0  0
   -7.7247   10.5660  -13.0266 C   0  0  0  0  0  0  0  0  0  0  0  0
   -6.9942   11.7487  -13.1193 C   0  0  0  0  0  0  0  0  0  0  0  0
   -7.8312   10.0057  -11.7538 C   0  0  0  0  0  0  0  0  0  0  0  0
   -7.2443   10.6021  -10.6070 C   0  0  0  0  0  0  0  0  0  0  0  0
   -7.6167    9.7449   -9.5151 C   0  0  0  0  0  0  0  0  0  0  0  0
   -8.2961    8.7374   -9.9786 N   0  0  0  0  0  0  0  0  0  0  0  0
   -8.4404    8.8724  -11.2937 N   0  0  0  0  0  0  0  0  0  0  0  0
   -7.3318    9.8946   -8.0252 C   0  0  0  0  0  0  0  0  0  0  0  0
   -5.5478   13.5112  -12.1572 C   0  0  0  0  0  0  0  0  0  0  0  0
   -5.9707   10.4870   -7.7351 C   0  0  0  0  0  0  0  0  0  0  0  0
   -5.8642   11.7588   -7.1694 C   0  0  0  0  0  0  0  0  0  0  0  0
   -4.6019   12.3141   -6.9186 C   0  0  0  0  0  0  0  0  0  0  0  0
   -3.4503   11.5963   -7.2357 C   0  0  0  0  0  0  0  0  0  0  0  0
   -3.5604   10.3220   -7.8000 C   0  0  0  0  0  0  0  0  0  0  0  0
   -4.8213    9.7719   -8.0443 C   0  0  0  0  0  0  0  0  0  0  0  0
   -2.0996   12.1710   -6.9757 C   0  0  0  0  0  0  0  0  0  0  0  0
   -1.7487   13.4240   -6.4767 C   0  0  0  0  0  0  0  0  0  0  0  0
   -0.4123   13.4674   -6.4260 N   0  0  0  0  0  0  0  0  0  0  0  0
    0.1713   12.3664   -6.8217 N   0  0  0  0  0  0  0  0  0  0  0  0
   -0.8093   11.5624   -7.1930 C   0  0  0  0  0  0  0  0  0  0  0  0
    0.4224   14.5657   -5.9816 C   0  0  0  0  0  0  0  0  0  0  0  0
   -5.6966   14.2423  -13.2612 N   0  0  0  0  0  0  0  0  0  0  0  0
   -4.9506   15.3153  -13.5405 C   0  0  0  0  0  0  0  0  0  0  0  0
   -3.9383   15.6899  -12.6782 C   0  0  0  0  0  0  0  0  0  0  0  0
   -3.7261   14.9536  -11.5366 C   0  0  0  0  0  0  0  0  0  0  0  0
   -4.5508   13.8769  -11.2437 C   0  0  0  0  0  0  0  0  0  0  0  0
   -2.6976   15.2614  -10.7139 N   0  0  0  0  0  0  0  0  0  0  0  0
   -5.4950   11.5473  -10.3746 H   0  0  0  0  0  0  0  0  0  0  0  0
   -6.9796   12.5188  -10.0939 H   0  0  0  0  0  0  0  0  0  0  0  0
   -8.1826   10.1089  -13.8914 H   0  0  0  0  0  0  0  0  0  0  0  0
   -6.9001   12.2325  -14.0803 H   0  0  0  0  0  0  0  0  0  0  0  0
   -8.0313    9.6067   -7.2544 H   0  0  0  0  0  0  0  0  0  0  0  0
   -6.7563   12.3160   -6.9245 H   0  0  0  0  0  0  0  0  0  0  0  0
   -4.5218   13.2977   -6.4798 H   0  0  0  0  0  0  0  0  0  0  0  0
   -3.4477   12.0425   -8.2411 H   0  0  0  0  0  0  0  0  0  0  0  0
   -2.6703    9.7625   -8.0472 H   0  0  0  0  0  0  0  0  0  0  0  0
   -4.9024    8.7852   -8.4759 H   0  0  0  0  0  0  0  0  0  0  0  0
   -2.4277   14.2118   -6.1857 H   0  0  0  0  0  0  0  0  0  0  0  0
   -0.6637   10.5754   -7.6065 H   0  0  0  0  0  0  0  0  0  0  0  0
    1.4809   14.2752   -6.0543 H   0  0  0  0  0  0  0  0  0  0  0  0
    0.2393   15.4453   -6.6162 H   0  0  0  0  0  0  0  0  0  0  0  0
    0.1804   14.8105   -4.9369 H   0  0  0  0  0  0  0  0  0  0  0  0
   -5.1384   15.8875  -14.4370 H   0  0  0  0  0  0  0  0  0  0  0  0
   -3.3221   16.5493  -12.8978 H   0  0  0  0  0  0  0  0  0  0  0  0
   -4.4255   13.3274  -10.3224 H   0  0  0  0  0  0  0  0  0  0  0  0
   -2.6901   14.6302   -9.9383 H   0  0  0  0  0  0  0  0  0  0  0  0
   -1.8356   15.1840  -11.2148 H   0  0  0  0  0  0  0  0  0  0  0  0
  1  2  1  0  0  0  0
  1  4  2  0  0  0  0
  1 11  1  0  0  0  0
  2  6  1  0  0  0  0
  3  4  1  0  0  0  0
  3  5  2  0  0  0  0
  5  6  1  0  0  0  0
  5  9  1  0  0  0  0
  6  7  2  0  0  0  0
  7  8  1  0  0  0  0
  7 10  1  0  0  0  0
  8  9  2  0  0  0  0
 10 12  2  0  0  0  0
 11 24  2  0  0  0  0
 11 28  1  0  0  0  0
 12 13  1  0  0  0  0
 12 17  1  0  0  0  0
 13 14  2  0  0  0  0
 14 15  1  0  0  0  0
 15 16  1  0  0  0  0
 15 18  1  0  0  0  0
 16 17  2  0  0  0  0
 18 19  2  0  0  0  0
 18 22  1  0  0  0  0
 19 20  1  0  0  0  0
 20 21  1  0  0  0  0
 20 23  1  0  0  0  0
 21 22  2  0  0  0  0
 24 25  1  0  0  0  0
 25 26  2  0  0  0  0
 26 27  1  0  0  0  0
 27 28  2  0  0  0  0
 27 29  1  0  0  0  0
  2 30  1  0  0  0  0
  2 31  1  0  0  0  0
  3 32  1  0  0  0  0
  4 33  1  0  0  0  0
 10 34  1  0  0  0  0
 13 35  1  0  0  0  0
 14 36  1  0  0  0  0
 15 37  1  0  0  0  0
 16 38  1  0  0  0  0
 17 39  1  0  0  0  0
 19 40  1  0  0  0  0
 22 41  1  0  0  0  0
 23 42  1  0  0  0  0
 23 43  1  0  0  0  0
 23 44  1  0  0  0  0
 25 45  1  0  0  0  0
 26 46  1  0  0  0  0
 28 47  1  0  0  0  0
 29 48  1  0  0  0  0
 29 49  1  0  0  0  0
M  END
> <Name>
23

> <IC50[uM]>
0.27

$$$$
23
  -OEChem-05192314333D
 Structure written by MMmdl.
 49 53  0     0  0  0  0  0  0999 V2000
   -6.3775   12.3296  -12.0018 C   0  0  0  0  0  0  0  0  0  0  0  0
   -6.5098   11.7629  -10.7403 C   0  0  0  0  0  0  0  0  0  0  0  0
   -7.7247   10.5660  -13.0266 C   0  0  0  0  0  0  0  0  0  0  0  0
   -6.9942   11.7487  -13.1193 C   0  0  0  0  0  0  0  0  0  0  0  0
   -7.8312   10.0057  -11.7538 C   0  0  0  0  0  0  0  0  0  0  0  0
   -7.2443   10.6021  -10.6070 C   0  0  0  0  0  0  0  0  0  0  0  0
   -7.6167    9.7449   -9.5151 C   0  0  0  0  0  0  0  0  0  0  0  0
   -8.2961    8.7374   -9.9786 N   0  0  0  0  0  0  0  0  0  0  0  0
   -8.4404    8.8724  -11.2937 N   0  0  0  0  0  0  0  0  0  0  0  0
   -7.3318    9.8946   -8.0252 C   0  0  0  0  0  0  0  0  0  0  0  0
   -5.5478   13.5112  -12.1572 C   0  0  0  0  0  0  0  0  0  0  0  0
   -5.9707   10.4870   -7.7351 C   0  0  0  0  0  0  0  0  0  0  0  0
   -5.8642   11.7588   -7.1694 C   0  0  0  0  0  0  0  0  0  0  0  0
   -4.6019   12.3141   -6.9186 C   0  0  0  0  0  0  0  0  0  0  0  0
   -3.4503   11.5963   -7.2357 C   0  0  0  0  0  0  0  0  0  0  0  0
   -3.5604   10.3220   -7.8000 C   0  0  0  0  0  0  0  0  0  0  0  0
   -4.8213    9.7719   -8.0443 C   0  0  0  0  0  0  0  0  0  0  0  0
   -2.0996   12.1710   -6.9757 C   0  0  0  0  0  0  0  0  0  0  0  0
   -1.7487   13.4240   -6.4767 C   0  0  0  0  0  0  0  0  0  0  0  0
   -0.4123   13.4674   -6.4260 N   0  0  0  0  0  0  0  0  0  0  0  0
    0.1713   12.3664   -6.8217 N   0  0  0  0  0  0  0  0  0  0  0  0
   -0.8093   11.5624   -7.1930 C   0  0  0  0  0  0  0  0  0  0  0  0
    0.4224   14.5657   -5.9816 C   0  0  0  0  0  0  0  0  0  0  0  0
   -5.6966   14.2423  -13.2612 N   0  0  0  0  0  0  0  0  0  0  0  0
   -4.9506   15.3153  -13.5405 C   0  0  0  0  0  0  0  0  0  0  0  0
   -3.9383   15.6899  -12.6782 C   0  0  0  0  0  0  0  0  0  0  0  0
   -3.7261   14.9536  -11.5366 C   0  0  0  0  0  0  0  0  0  0  0  0
   -4.5508   13.8769  -11.2437 C   0  0  0  0  0  0  0  0  0  0  0  0
   -2.6976   15.2614  -10.7139 N   0  0  0  0  0  0  0  0  0  0  0  0
   -5.4950   11.5473  -10.3746 H   0  0  0  0  0  0  0  0  0  0  0  0
   -6.9796   12.5188  -10.0939 H   0  0  0  0  0  0  0  0  0  0  0  0
   -8.1826   10.1089  -13.8914 H   0  0  0  0  0  0  0  0  0  0  0  0
   -6.9001   12.2325  -14.0803 H   0  0  0  0  0  0  0  0  0  0  0  0
   -8.0313    9.6067   -7.2544 H   0  0  0  0  0  0  0  0  0  0  0  0
   -6.7563   12.3160   -6.9245 H   0  0  0  0  0  0  0  0  0  0  0  0
   -4.5218   13.2977   -6.4798 H   0  0  0  0  0  0  0  0  0  0  0  0
   -2.6703    9.7625   -8.0472 H   0  0  0  0  0  0  0  0  0  0  0  0
   -4.8715    8.8319   -7.4752 H   0  0  0  0  0  0  0  0  0  0  0  0
   -4.8665    9.5515   -9.1210 H   0  0  0  0  0  0  0  0  0  0  0  0
   -2.4277   14.2118   -6.1857 H   0  0  0  0  0  0  0  0  0  0  0  0
   -0.6637   10.5754   -7.6065 H   0  0  0  0  0  0  0  0  0  0  0  0
    1.4809   14.2752   -6.0543 H   0  0  0  0  0  0  0  0  0  0  0  0
    0.2393   15.4453   -6.6162 H   0  0  0  0  0  0  0  0  0  0  0  0
    0.1804   14.8105   -4.9369 H   0  0  0  0  0  0  0  0  0  0  0  0
   -5.1384   15.8875  -14.4370 H   0  0  0  0  0  0  0  0  0  0  0  0
   -3.3221   16.5493  -12.8978 H   0  0  0  0  0  0  0  0  0  0  0  0
   -4.4255   13.3274  -10.3224 H   0  0  0  0  0  0  0  0  0  0  0  0
   -2.6901   14.6302   -9.9383 H   0  0  0  0  0  0  0  0  0  0  0  0
   -1.8356   15.1840  -11.2148 H   0  0  0  0  0  0  0  0  0  0  0  0
  1  2  1  0  0  0  0
  1  4  2  0  0  0  0
  1 11  1  0  0  0  0
  2  6  1  0  0  0  0
  3  4  1  0  0  0  0
  3  5  2  0  0  0  0
  5  6  1  0  0  0  0
  5  9  1  0  0  0  0
  6  7  2  0  0  0  0
  7  8  1  0  0  0  0
  7 10  1  0  0  0  0
  8  9  2  0  0  0  0
 10 12  2  3  0  0  0
 11 24  2  0  0  0  0
 11 28  1  0  0  0  0
 12 13  1  0  0  0  0
 12 17  1  0  0  0  0
 13 14  2  0  0  0  0
 14 15  1  0  0  0  0
 15 16  2  0  0  0  0
 15 18  1  0  0  0  0
 16 17  1  0  0  0  0
 18 19  2  0  0  0  0
 18 22  1  0  0  0  0
 19 20  1  0  0  0  0
 20 21  1  0  0  0  0
 20 23  1  0  0  0  0
 21 22  2  0  0  0  0
 24 25  1  0  0  0  0
 25 26  2  0  0  0  0
 26 27  1  0  0  0  0
 27 28  2  0  0  0  0
 27 29  1  0  0  0  0
  2 30  1  0  0  0  0
  2 31  1  0  0  0  0
  3 32  1  0  0  0  0
  4 33  1  0  0  0  0
 10 34  1  0  0  0  0
 13 35  1  0  0  0  0
 14 36  1  0  0  0  0
 16 37  1  0  0  0  0
 17 38  1  0  0  0  0
 17 39  1  0  0  0  0
 19 40  1  0  0  0  0
 22 41  1  0  0  0  0
 23 42  1  0  0  0  0
 23 43  1  0  0  0  0
 23 44  1  0  0  0  0
 25 45  1  0  0  0  0
 26 46  1  0  0  0  0
 28 47  1  0  0  0  0
 29 48  1  0  0  0  0
 29 49  1  0  0  0  0
M  END
> <Name>
23

> <IC50[uM]>
0.27

$$$$
23
  -OEChem-05192314333D
 Structure written by MMmdl.
 49 53  0     1  0  0  0  0  0999 V2000
   -6.3775   12.3296  -12.0018 C   0  0  3  0  0  0  0  0  0  0  0  0
   -6.5098   11.7629  -10.7403 C   0  0  0  0  0  0  0  0  0  0  0  0
   -7.7247   10.5660  -13.0266 C   0  0  0  0  0  0  0  0  0  0  0  0
   -6.9942   11.7487  -13.1193 C   0  0  0  0  0  0  0  0  0  0  0  0
   -7.8312   10.0057  -11.7538 C   0  0  0  0  0  0  0  0  0  0  0  0
   -7.2443   10.6021  -10.6070 C   0  0  0  0  0  0  0  0  0  0  0  0
   -7.6167    9.7449   -9.5151 C   0  0  0  0  0  0  0  0  0  0  0  0
   -8.2961    8.7374   -9.9786 N   0  0  0  0  0  0  0  0  0  0  0  0
   -8.4404    8.8724  -11.2937 N   0  0  0  0  0  0  0  0  0  0  0  0
   -7.3318    9.8946   -8.0252 C   0  0  0  0  0  0  0  0  0  0  0  0
   -5.5478   13.5112  -12.1572 C   0  0  0  0  0  0  0  0  0  0  0  0
   -5.9707   10.4870   -7.7351 C   0  0  0  0  0  0  0  0  0  0  0  0
   -5.8642   11.7588   -7.1694 C   0  0  0  0  0  0  0  0  0  0  0  0
   -4.6019   12.3141   -6.9186 C   0  0  0  0  0  0  0  0  0  0  0  0
   -3.4503   11.5963   -7.2357 C   0  0  0  0  0  0  0  0  0  0  0  0
   -3.5604   10.3220   -7.8000 C   0  0  0  0  0  0  0  0  0  0  0  0
   -4.8213    9.7719   -8.0443 C   0  0  0  0  0  0  0  0  0  0  0  0
   -2.0996   12.1710   -6.9757 C   0  0  0  0  0  0  0  0  0  0  0  0
   -1.7487   13.4240   -6.4767 C   0  0  0  0  0  0  0  0  0  0  0  0
   -0.4123   13.4674   -6.4260 N   0  0  0  0  0  0  0  0  0  0  0  0
    0.1713   12.3664   -6.8217 N   0  0  0  0  0  0  0  0  0  0  0  0
   -0.8093   11.5624   -7.1930 C   0  0  0  0  0  0  0  0  0  0  0  0
    0.4224   14.5657   -5.9816 C   0  0  0  0  0  0  0  0  0  0  0  0
   -5.6966   14.2423  -13.2612 N   0  0  0  0  0  0  0  0  0  0  0  0
   -4.9506   15.3153  -13.5405 C   0  0  0  0  0  0  0  0  0  0  0  0
   -3.9383   15.6899  -12.6782 C   0  0  0  0  0  0  0  0  0  0  0  0
   -3.7261   14.9536  -11.5366 C   0  0  0  0  0  0  0  0  0  0  0  0
   -4.5508   13.8769  -11.2437 C   0  0  0  0  0  0  0  0  0  0  0  0
   -2.6976   15.2614  -10.7139 N   0  0  0  0  0  0  0  0  0  0  0  0
   -7.2621   12.9592  -11.8254 H   0  0  0  0  0  0  0  0  0  0  0  0
   -6.0464   12.2223   -9.8797 H   0  0  0  0  0  0  0  0  0  0  0  0
   -8.1826   10.1089  -13.8914 H   0  0  0  0  0  0  0  0  0  0  0  0
   -6.9001   12.2325  -14.0803 H   0  0  0  0  0  0  0  0  0  0  0  0
   -8.0313    9.6067   -7.2544 H   0  0  0  0  0  0  0  0  0  0  0  0
   -6.7563   12.3160   -6.9245 H   0  0  0  0  0  0  0  0  0  0  0  0
   -4.5218   13.2977   -6.4798 H   0  0  0  0  0  0  0  0  0  0  0  0
   -3.4477   12.0425   -8.2411 H   0  0  0  0  0  0  0  0  0  0  0  0
   -2.6703    9.7625   -8.0472 H   0  0  0  0  0  0  0  0  0  0  0  0
   -4.9024    8.7852   -8.4759 H   0  0  0  0  0  0  0  0  0  0  0  0
   -2.4277   14.2118   -6.1857 H   0  0  0  0  0  0  0  0  0  0  0  0
   -0.6637   10.5754   -7.6065 H   0  0  0  0  0  0  0  0  0  0  0  0
    1.4809   14.2752   -6.0543 H   0  0  0  0  0  0  0  0  0  0  0  0
    0.2393   15.4453   -6.6162 H   0  0  0  0  0  0  0  0  0  0  0  0
    0.1804   14.8105   -4.9369 H   0  0  0  0  0  0  0  0  0  0  0  0
   -6.4038   13.9739  -13.9153 H   0  0  0  0  0  0  0  0  0  0  0  0
   -5.1384   15.8875  -14.4370 H   0  0  0  0  0  0  0  0  0  0  0  0
   -3.3221   16.5493  -12.8978 H   0  0  0  0  0  0  0  0  0  0  0  0
   -4.4255   13.3274  -10.3224 H   0  0  0  0  0  0  0  0  0  0  0  0
   -2.6419   14.6376   -9.9343 H   0  0  0  0  0  0  0  0  0  0  0  0
  1  2  1  0  0  0  0
  1  4  1  0  0  0  0
  1 11  1  0  0  0  0
  2  6  2  0  0  0  0
  3  4  2  0  0  0  0
  3  5  1  0  0  0  0
  5  6  1  0  0  0  0
  5  9  2  0  0  0  0
  6  7  1  0  0  0  0
  7  8  2  0  0  0  0
  7 10  1  0  0  0  0
  8  9  1  0  0  0  0
 10 12  2  0  0  0  0
 11 24  1  0  0  0  0
 11 28  2  0  0  0  0
 12 13  1  0  0  0  0
 12 17  1  0  0  0  0
 13 14  2  0  0  0  0
 14 15  1  0  0  0  0
 15 16  1  0  0  0  0
 15 18  1  0  0  0  0
 16 17  2  0  0  0  0
 18 19  2  0  0  0  0
 18 22  1  0  0  0  0
 19 20  1  0  0  0  0
 20 21  1  0  0  0  0
 20 23  1  0  0  0  0
 21 22  2  0  0  0  0
 24 25  1  0  0  0  0
 25 26  2  0  0  0  0
 26 27  1  0  0  0  0
 27 28  1  0  0  0  0
 27 29  2  0  0  0  0
  1 30  1  0  0  0  0
  2 31  1  0  0  0  0
  3 32  1  0  0  0  0
  4 33  1  0  0  0  0
 10 34  1  0  0  0  0
 13 35  1  0  0  0  0
 14 36  1  0  0  0  0
 15 37  1  0  0  0  0
 16 38  1  0  0  0  0
 17 39  1  0  0  0  0
 19 40  1  0  0  0  0
 22 41  1  0  0  0  0
 23 42  1  0  0  0  0
 23 43  1  0  0  0  0
 23 44  1  0  0  0  0
 24 45  1  0  0  0  0
 25 46  1  0  0  0  0
 26 47  1  0  0  0  0
 28 48  1  0  0  0  0
 29 49  1  0  0  0  0
M  END
> <Name>
23

> <IC50[uM]>
0.27

$$$$
23
  -OEChem-05192314333D
 Structure written by MMmdl.
 49 53  0     1  0  0  0  0  0999 V2000
   -6.3775   12.3296  -12.0018 C   0  0  0  0  0  0  0  0  0  0  0  0
   -6.5098   11.7629  -10.7403 C   0  0  0  0  0  0  0  0  0  0  0  0
   -7.7247   10.5660  -13.0266 C   0  0  0  0  0  0  0  0  0  0  0  0
   -6.9942   11.7487  -13.1193 C   0  0  0  0  0  0  0  0  0  0  0  0
   -7.8312   10.0057  -11.7538 C   0  0  0  0  0  0  0  0  0  0  0  0
   -7.2443   10.6021  -10.6070 C   0  0  3  0  0  0  0  0  0  0  0  0
   -7.6167    9.7449   -9.5151 C   0  0  0  0  0  0  0  0  0  0  0  0
   -8.2961    8.7374   -9.9786 N   0  0  0  0  0  0  0  0  0  0  0  0
   -8.4404    8.8724  -11.2937 N   0  0  0  0  0  0  0  0  0  0  0  0
   -7.3318    9.8946   -8.0252 C   0  0  0  0  0  0  0  0  0  0  0  0
   -5.5478   13.5112  -12.1572 C   0  0  0  0  0  0  0  0  0  0  0  0
   -5.9707   10.4870   -7.7351 C   0  0  0  0  0  0  0  0  0  0  0  0
   -5.8642   11.7588   -7.1694 C   0  0  0  0  0  0  0  0  0  0  0  0
   -4.6019   12.3141   -6.9186 C   0  0  0  0  0  0  0  0  0  0  0  0
   -3.4503   11.5963   -7.2357 C   0  0  0  0  0  0  0  0  0  0  0  0
   -3.5604   10.3220   -7.8000 C   0  0  0  0  0  0  0  0  0  0  0  0
   -4.8213    9.7719   -8.0443 C   0  0  0  0  0  0  0  0  0  0  0  0
   -2.0996   12.1710   -6.9757 C   0  0  0  0  0  0  0  0  0  0  0  0
   -1.7487   13.4240   -6.4767 C   0  0  0  0  0  0  0  0  0  0  0  0
   -0.4123   13.4674   -6.4260 N   0  0  0  0  0  0  0  0  0  0  0  0
    0.1713   12.3664   -6.8217 N   0  0  0  0  0  0  0  0  0  0  0  0
   -0.8093   11.5624   -7.1930 C   0  0  0  0  0  0  0  0  0  0  0  0
    0.4224   14.5657   -5.9816 C   0  0  0  0  0  0  0  0  0  0  0  0
   -5.6966   14.2423  -13.2612 N   0  0  0  0  0  0  0  0  0  0  0  0
   -4.9506   15.3153  -13.5405 C   0  0  0  0  0  0  0  0  0  0  0  0
   -3.9383   15.6899  -12.6782 C   0  0  0  0  0  0  0  0  0  0  0  0
   -3.7261   14.9536  -11.5366 C   0  0  0  0  0  0  0  0  0  0  0  0
   -4.5508   13.8769  -11.2437 C   0  0  0  0  0  0  0  0  0  0  0  0
   -2.6976   15.2614  -10.7139 N   0  0  0  0  0  0  0  0  0  0  0  0
   -6.0464   12.2223   -9.8797 H   0  0  0  0  0  0  0  0  0  0  0  0
   -8.1826   10.1089  -13.8914 H   0  0  0  0  0  0  0  0  0  0  0  0
   -6.9001   12.2325  -14.0803 H   0  0  0  0  0  0  0  0  0  0  0  0
   -6.3326   10.0069  -10.7637 H   0  0  0  0  0  0  0  0  0  0  0  0
   -8.0313    9.6067   -7.2544 H   0  0  0  0  0  0  0  0  0  0  0  0
   -6.7563   12.3160   -6.9245 H   0  0  0  0  0  0  0  0  0  0  0  0
   -4.5218   13.2977   -6.4798 H   0  0  0  0  0  0  0  0  0  0  0  0
   -3.4477   12.0425   -8.2411 H   0  0  0  0  0  0  0  0  0  0  0  0
   -2.6703    9.7625   -8.0472 H   0  0  0  0  0  0  0  0  0  0  0  0
   -4.9024    8.7852   -8.4759 H   0  0  0  0  0  0  0  0  0  0  0  0
   -2.4277   14.2118   -6.1857 H   0  0  0  0  0  0  0  0  0  0  0  0
   -0.6637   10.5754   -7.6065 H   0  0  0  0  0  0  0  0  0  0  0  0
    1.4809   14.2752   -6.0543 H   0  0  0  0  0  0  0  0  0  0  0  0
    0.2393   15.4453   -6.6162 H   0  0  0  0  0  0  0  0  0  0  0  0
    0.1804   14.8105   -4.9369 H   0  0  0  0  0  0  0  0  0  0  0  0
   -6.4038   13.9739  -13.9153 H   0  0  0  0  0  0  0  0  0  0  0  0
   -5.1384   15.8875  -14.4370 H   0  0  0  0  0  0  0  0  0  0  0  0
   -3.3221   16.5493  -12.8978 H   0  0  0  0  0  0  0  0  0  0  0  0
   -4.4255   13.3274  -10.3224 H   0  0  0  0  0  0  0  0  0  0  0  0
   -2.6419   14.6376   -9.9343 H   0  0  0  0  0  0  0  0  0  0  0  0
  1  2  2  0  0  0  0
  1  4  1  0  0  0  0
  1 11  1  0  0  0  0
  2  6  1  0  0  0  0
  3  4  2  0  0  0  0
  3  5  1  0  0  0  0
  5  6  1  0  0  0  0
  5  9  2  0  0  0  0
  6  7  1  0  0  0  0
  7  8  2  0  0  0  0
  7 10  1  0  0  0  0
  8  9  1  0  0  0  0
 10 12  2  0  0  0  0
 11 24  1  0  0  0  0
 11 28  2  0  0  0  0
 12 13  1  0  0  0  0
 12 17  1  0  0  0  0
 13 14  2  0  0  0  0
 14 15  1  0  0  0  0
 15 16  1  0  0  0  0
 15 18  1  0  0  0  0
 16 17  2  0  0  0  0
 18 19  2  0  0  0  0
 18 22  1  0  0  0  0
 19 20  1  0  0  0  0
 20 21  1  0  0  0  0
 20 23  1  0  0  0  0
 21 22  2  0  0  0  0
 24 25  1  0  0  0  0
 25 26  2  0  0  0  0
 26 27  1  0  0  0  0
 27 28  1  0  0  0  0
 27 29  2  0  0  0  0
  2 30  1  0  0  0  0
  3 31  1  0  0  0  0
  4 32  1  0  0  0  0
  6 33  1  0  0  0  0
 10 34  1  0  0  0  0
 13 35  1  0  0  0  0
 14 36  1  0  0  0  0
 15 37  1  0  0  0  0
 16 38  1  0  0  0  0
 17 39  1  0  0  0  0
 19 40  1  0  0  0  0
 22 41  1  0  0  0  0
 23 42  1  0  0  0  0
 23 43  1  0  0  0  0
 23 44  1  0  0  0  0
 24 45  1  0  0  0  0
 25 46  1  0  0  0  0
 26 47  1  0  0  0  0
 28 48  1  0  0  0  0
 29 49  1  0  0  0  0
M  END
> <Name>
23

> <IC50[uM]>
0.27

$$$$
23
  -OEChem-05192314333D
 Structure written by MMmdl.
 49 53  0     0  0  0  0  0  0999 V2000
   -6.3775   12.3296  -12.0018 C   0  0  0  0  0  0  0  0  0  0  0  0
   -6.5098   11.7629  -10.7403 C   0  0  0  0  0  0  0  0  0  0  0  0
   -7.7247   10.5660  -13.0266 C   0  0  0  0  0  0  0  0  0  0  0  0
   -6.9942   11.7487  -13.1193 C   0  0  0  0  0  0  0  0  0  0  0  0
   -7.8312   10.0057  -11.7538 C   0  0  0  0  0  0  0  0  0  0  0  0
   -7.2443   10.6021  -10.6070 C   0  0  0  0  0  0  0  0  0  0  0  0
   -7.6167    9.7449   -9.5151 C   0  0  0  0  0  0  0  0  0  0  0  0
   -8.2961    8.7374   -9.9786 N   0  0  0  0  0  0  0  0  0  0  0  0
   -8.4404    8.8724  -11.2937 N   0  0  0  0  0  0  0  0  0  0  0  0
   -7.3318    9.8946   -8.0252 C   0  0  0  0  0  0  0  0  0  0  0  0
   -5.5478   13.5112  -12.1572 C   0  0  0  0  0  0  0  0  0  0  0  0
   -5.9707   10.4870   -7.7351 C   0  0  0  0  0  0  0  0  0  0  0  0
   -5.8642   11.7588   -7.1694 C   0  0  0  0  0  0  0  0  0  0  0  0
   -4.6019   12.3141   -6.9186 C   0  0  0  0  0  0  0  0  0  0  0  0
   -3.4503   11.5963   -7.2357 C   0  0  0  0  0  0  0  0  0  0  0  0
   -3.5604   10.3220   -7.8000 C   0  0  0  0  0  0  0  0  0  0  0  0
   -4.8213    9.7719   -8.0443 C   0  0  0  0  0  0  0  0  0  0  0  0
   -2.0996   12.1710   -6.9757 C   0  0  0  0  0  0  0  0  0  0  0  0
   -1.7487   13.4240   -6.4767 C   0  0  0  0  0  0  0  0  0  0  0  0
   -0.4123   13.4674   -6.4260 N   0  0  0  0  0  0  0  0  0  0  0  0
    0.1713   12.3664   -6.8217 N   0  0  0  0  0  0  0  0  0  0  0  0
   -0.8093   11.5624   -7.1930 C   0  0  0  0  0  0  0  0  0  0  0  0
    0.4224   14.5657   -5.9816 C   0  0  0  0  0  0  0  0  0  0  0  0
   -5.6966   14.2423  -13.2612 N   0  0  0  0  0  0  0  0  0  0  0  0
   -4.9506   15.3153  -13.5405 C   0  0  0  0  0  0  0  0  0  0  0  0
   -3.9383   15.6899  -12.6782 C   0  0  0  0  0  0  0  0  0  0  0  0
   -3.7261   14.9536  -11.5366 C   0  0  0  0  0  0  0  0  0  0  0  0
   -4.5508   13.8769  -11.2437 C   0  0  0  0  0  0  0  0  0  0  0  0
   -2.6976   15.2614  -10.7139 N   0  0  0  0  0  0  0  0  0  0  0  0
   -6.0464   12.2223   -9.8797 H   0  0  0  0  0  0  0  0  0  0  0  0
   -8.7428   10.7712  -13.3891 H   0  0  0  0  0  0  0  0  0  0  0  0
   -7.2451    9.8233  -13.6811 H   0  0  0  0  0  0  0  0  0  0  0  0
   -6.9001   12.2325  -14.0803 H   0  0  0  0  0  0  0  0  0  0  0  0
   -8.0313    9.6067   -7.2544 H   0  0  0  0  0  0  0  0  0  0  0  0
   -6.7563   12.3160   -6.9245 H   0  0  0  0  0  0  0  0  0  0  0  0
   -4.5218   13.2977   -6.4798 H   0  0  0  0  0  0  0  0  0  0  0  0
   -3.4477   12.0425   -8.2411 H   0  0  0  0  0  0  0  0  0  0  0  0
   -2.6703    9.7625   -8.0472 H   0  0  0  0  0  0  0  0  0  0  0  0
   -4.9024    8.7852   -8.4759 H   0  0  0  0  0  0  0  0  0  0  0  0
   -2.4277   14.2118   -6.1857 H   0  0  0  0  0  0  0  0  0  0  0  0
   -0.6637   10.5754   -7.6065 H   0  0  0  0  0  0  0  0  0  0  0  0
    1.4809   14.2752   -6.0543 H   0  0  0  0  0  0  0  0  0  0  0  0
    0.2393   15.4453   -6.6162 H   0  0  0  0  0  0  0  0  0  0  0  0
    0.1804   14.8105   -4.9369 H   0  0  0  0  0  0  0  0  0  0  0  0
   -6.4038   13.9739  -13.9153 H   0  0  0  0  0  0  0  0  0  0  0  0
   -5.1384   15.8875  -14.4370 H   0  0  0  0  0  0  0  0  0  0  0  0
   -3.3221   16.5493  -12.8978 H   0  0  0  0  0  0  0  0  0  0  0  0
   -4.4255   13.3274  -10.3224 H   0  0  0  0  0  0  0  0  0  0  0  0
   -2.6419   14.6376   -9.9343 H   0  0  0  0  0  0  0  0  0  0  0  0
  1  2  1  0  0  0  0
  1  4  2  0  0  0  0
  1 11  1  0  0  0  0
  2  6  2  0  0  0  0
  3  4  1  0  0  0  0
  3  5  1  0  0  0  0
  5  6  1  0  0  0  0
  5  9  2  0  0  0  0
  6  7  1  0  0  0  0
  7  8  2  0  0  0  0
  7 10  1  0  0  0  0
  8  9  1  0  0  0  0
 10 12  2  0  0  0  0
 11 24  1  0  0  0  0
 11 28  2  0  0  0  0
 12 13  1  0  0  0  0
 12 17  1  0  0  0  0
 13 14  2  0  0  0  0
 14 15  1  0  0  0  0
 15 16  1  0  0  0  0
 15 18  1  0  0  0  0
 16 17  2  0  0  0  0
 18 19  2  0  0  0  0
 18 22  1  0  0  0  0
 19 20  1  0  0  0  0
 20 21  1  0  0  0  0
 20 23  1  0  0  0  0
 21 22  2  0  0  0  0
 24 25  1  0  0  0  0
 25 26  2  0  0  0  0
 26 27  1  0  0  0  0
 27 28  1  0  0  0  0
 27 29  2  0  0  0  0
  2 30  1  0  0  0  0
  3 31  1  0  0  0  0
  3 32  1  0  0  0  0
  4 33  1  0  0  0  0
 10 34  1  0  0  0  0
 13 35  1  0  0  0  0
 14 36  1  0  0  0  0
 15 37  1  0  0  0  0
 16 38  1  0  0  0  0
 17 39  1  0  0  0  0
 19 40  1  0  0  0  0
 22 41  1  0  0  0  0
 23 42  1  0  0  0  0
 23 43  1  0  0  0  0
 23 44  1  0  0  0  0
 24 45  1  0  0  0  0
 25 46  1  0  0  0  0
 26 47  1  0  0  0  0
 28 48  1  0  0  0  0
 29 49  1  0  0  0  0
M  END
> <Name>
23

> <IC50[uM]>
0.27

$$$$
23
  -OEChem-05192314333D
 Structure written by MMmdl.
 49 53  0     1  0  0  0  0  0999 V2000
   -6.3775   12.3296  -12.0018 C   0  0  3  0  0  0  0  0  0  0  0  0
   -6.5098   11.7629  -10.7403 C   0  0  0  0  0  0  0  0  0  0  0  0
   -7.7247   10.5660  -13.0266 C   0  0  0  0  0  0  0  0  0  0  0  0
   -6.9942   11.7487  -13.1193 C   0  0  0  0  0  0  0  0  0  0  0  0
   -7.8312   10.0057  -11.7538 C   0  0  0  0  0  0  0  0  0  0  0  0
   -7.2443   10.6021  -10.6070 C   0  0  0  0  0  0  0  0  0  0  0  0
   -7.6167    9.7449   -9.5151 C   0  0  0  0  0  0  0  0  0  0  0  0
   -8.2961    8.7374   -9.9786 N   0  0  0  0  0  0  0  0  0  0  0  0
   -8.4404    8.8724  -11.2937 N   0  0  0  0  0  0  0  0  0  0  0  0
   -7.3318    9.8946   -8.0252 C   0  0  0  0  0  0  0  0  0  0  0  0
   -5.5478   13.5112  -12.1572 C   0  0  0  0  0  0  0  0  0  0  0  0
   -5.9707   10.4870   -7.7351 C   0  0  0  0  0  0  0  0  0  0  0  0
   -5.8642   11.7588   -7.1694 C   0  0  0  0  0  0  0  0  0  0  0  0
   -4.6019   12.3141   -6.9186 C   0  0  0  0  0  0  0  0  0  0  0  0
   -3.4503   11.5963   -7.2357 C   0  0  0  0  0  0  0  0  0  0  0  0
   -3.5604   10.3220   -7.8000 C   0  0  0  0  0  0  0  0  0  0  0  0
   -4.8213    9.7719   -8.0443 C   0  0  0  0  0  0  0  0  0  0  0  0
   -2.0996   12.1710   -6.9757 C   0  0  0  0  0  0  0  0  0  0  0  0
   -1.7487   13.4240   -6.4767 C   0  0  0  0  0  0  0  0  0  0  0  0
   -0.4123   13.4674   -6.4260 N   0  0  0  0  0  0  0  0  0  0  0  0
    0.1713   12.3664   -6.8217 N   0  0  0  0  0  0  0  0  0  0  0  0
   -0.8093   11.5624   -7.1930 C   0  0  0  0  0  0  0  0  0  0  0  0
    0.4224   14.5657   -5.9816 C   0  0  0  0  0  0  0  0  0  0  0  0
   -5.6966   14.2423  -13.2612 N   0  0  0  0  0  0  0  0  0  0  0  0
   -4.9506   15.3153  -13.5405 C   0  0  0  0  0  0  0  0  0  0  0  0
   -3.9383   15.6899  -12.6782 C   0  0  0  0  0  0  0  0  0  0  0  0
   -3.7261   14.9536  -11.5366 C   0  0  0  0  0  0  0  0  0  0  0  0
   -4.5508   13.8769  -11.2437 C   0  0  0  0  0  0  0  0  0  0  0  0
   -2.6976   15.2614  -10.7139 N   0  0  0  0  0  0  0  0  0  0  0  0
   -7.2621   12.9592  -11.8254 H   0  0  0  0  0  0  0  0  0  0  0  0
   -6.0464   12.2223   -9.8797 H   0  0  0  0  0  0  0  0  0  0  0  0
   -8.1826   10.1089  -13.8914 H   0  0  0  0  0  0  0  0  0  0  0  0
   -6.9001   12.2325  -14.0803 H   0  0  0  0  0  0  0  0  0  0  0  0
   -8.0313    9.6067   -7.2544 H   0  0  0  0  0  0  0  0  0  0  0  0
   -6.7563   12.3160   -6.9245 H   0  0  0  0  0  0  0  0  0  0  0  0
   -4.5218   13.2977   -6.4798 H   0  0  0  0  0  0  0  0  0  0  0  0
   -2.6703    9.7625   -8.0472 H   0  0  0  0  0  0  0  0  0  0  0  0
   -4.8715    8.8319   -7.4752 H   0  0  0  0  0  0  0  0  0  0  0  0
   -4.8665    9.5515   -9.1210 H   0  0  0  0  0  0  0  0  0  0  0  0
   -2.4277   14.2118   -6.1857 H   0  0  0  0  0  0  0  0  0  0  0  0
   -0.6637   10.5754   -7.6065 H   0  0  0  0  0  0  0  0  0  0  0  0
    1.4809   14.2752   -6.0543 H   0  0  0  0  0  0  0  0  0  0  0  0
    0.2393   15.4453   -6.6162 H   0  0  0  0  0  0  0  0  0  0  0  0
    0.1804   14.8105   -4.9369 H   0  0  0  0  0  0  0  0  0  0  0  0
   -6.4038   13.9739  -13.9153 H   0  0  0  0  0  0  0  0  0  0  0  0
   -5.1384   15.8875  -14.4370 H   0  0  0  0  0  0  0  0  0  0  0  0
   -3.3221   16.5493  -12.8978 H   0  0  0  0  0  0  0  0  0  0  0  0
   -4.4255   13.3274  -10.3224 H   0  0  0  0  0  0  0  0  0  0  0  0
   -2.6419   14.6376   -9.9343 H   0  0  0  0  0  0  0  0  0  0  0  0
  1  2  1  0  0  0  0
  1  4  1  0  0  0  0
  1 11  1  0  0  0  0
  2  6  2  0  0  0  0
  3  4  2  0  0  0  0
  3  5  1  0  0  0  0
  5  6  1  0  0  0  0
  5  9  2  0  0  0  0
  6  7  1  0  0  0  0
  7  8  2  0  0  0  0
  7 10  1  0  0  0  0
  8  9  1  0  0  0  0
 10 12  2  3  0  0  0
 11 24  1  0  0  0  0
 11 28  2  0  0  0  0
 12 13  1  0  0  0  0
 12 17  1  0  0  0  0
 13 14  2  0  0  0  0
 14 15  1  0  0  0  0
 15 16  2  0  0  0  0
 15 18  1  0  0  0  0
 16 17  1  0  0  0  0
 18 19  2  0  0  0  0
 18 22  1  0  0  0  0
 19 20  1  0  0  0  0
 20 21  1  0  0  0  0
 20 23  1  0  0  0  0
 21 22  2  0  0  0  0
 24 25  1  0  0  0  0
 25 26  2  0  0  0  0
 26 27  1  0  0  0  0
 27 28  1  0  0  0  0
 27 29  2  0  0  0  0
  1 30  1  0  0  0  0
  2 31  1  0  0  0  0
  3 32  1  0  0  0  0
  4 33  1  0  0  0  0
 10 34  1  0  0  0  0
 13 35  1  0  0  0  0
 14 36  1  0  0  0  0
 16 37  1  0  0  0  0
 17 38  1  0  0  0  0
 17 39  1  0  0  0  0
 19 40  1  0  0  0  0
 22 41  1  0  0  0  0
 23 42  1  0  0  0  0
 23 43  1  0  0  0  0
 23 44  1  0  0  0  0
 24 45  1  0  0  0  0
 25 46  1  0  0  0  0
 26 47  1  0  0  0  0
 28 48  1  0  0  0  0
 29 49  1  0  0  0  0
M  END
> <Name>
23

> <IC50[uM]>
0.27

$$$$
23
  -OEChem-05192314333D
 Structure written by MMmdl.
 49 53  0     1  0  0  0  0  0999 V2000
   -6.3775   12.3296  -12.0018 C   0  0  0  0  0  0  0  0  0  0  0  0
   -6.5098   11.7629  -10.7403 C   0  0  0  0  0  0  0  0  0  0  0  0
   -7.7247   10.5660  -13.0266 C   0  0  0  0  0  0  0  0  0  0  0  0
   -6.9942   11.7487  -13.1193 C   0  0  0  0  0  0  0  0  0  0  0  0
   -7.8312   10.0057  -11.7538 C   0  0  0  0  0  0  0  0  0  0  0  0
   -7.2443   10.6021  -10.6070 C   0  0  3  0  0  0  0  0  0  0  0  0
   -7.6167    9.7449   -9.5151 C   0  0  0  0  0  0  0  0  0  0  0  0
   -8.2961    8.7374   -9.9786 N   0  0  0  0  0  0  0  0  0  0  0  0
   -8.4404    8.8724  -11.2937 N   0  0  0  0  0  0  0  0  0  0  0  0
   -7.3318    9.8946   -8.0252 C   0  0  0  0  0  0  0  0  0  0  0  0
   -5.5478   13.5112  -12.1572 C   0  0  0  0  0  0  0  0  0  0  0  0
   -5.9707   10.4870   -7.7351 C   0  0  0  0  0  0  0  0  0  0  0  0
   -5.8642   11.7588   -7.1694 C   0  0  0  0  0  0  0  0  0  0  0  0
   -4.6019   12.3141   -6.9186 C   0  0  0  0  0  0  0  0  0  0  0  0
   -3.4503   11.5963   -7.2357 C   0  0  0  0  0  0  0  0  0  0  0  0
   -3.5604   10.3220   -7.8000 C   0  0  0  0  0  0  0  0  0  0  0  0
   -4.8213    9.7719   -8.0443 C   0  0  0  0  0  0  0  0  0  0  0  0
   -2.0996   12.1710   -6.9757 C   0  0  0  0  0  0  0  0  0  0  0  0
   -1.7487   13.4240   -6.4767 C   0  0  0  0  0  0  0  0  0  0  0  0
   -0.4123   13.4674   -6.4260 N   0  0  0  0  0  0  0  0  0  0  0  0
    0.1713   12.3664   -6.8217 N   0  0  0  0  0  0  0  0  0  0  0  0
   -0.8093   11.5624   -7.1930 C   0  0  0  0  0  0  0  0  0  0  0  0
    0.4224   14.5657   -5.9816 C   0  0  0  0  0  0  0  0  0  0  0  0
   -5.6966   14.2423  -13.2612 N   0  0  0  0  0  0  0  0  0  0  0  0
   -4.9506   15.3153  -13.5405 C   0  0  0  0  0  0  0  0  0  0  0  0
   -3.9383   15.6899  -12.6782 C   0  0  0  0  0  0  0  0  0  0  0  0
   -3.7261   14.9536  -11.5366 C   0  0  0  0  0  0  0  0  0  0  0  0
   -4.5508   13.8769  -11.2437 C   0  0  0  0  0  0  0  0  0  0  0  0
   -2.6976   15.2614  -10.7139 N   0  0  0  0  0  0  0  0  0  0  0  0
   -6.0464   12.2223   -9.8797 H   0  0  0  0  0  0  0  0  0  0  0  0
   -8.1826   10.1089  -13.8914 H   0  0  0  0  0  0  0  0  0  0  0  0
   -6.9001   12.2325  -14.0803 H   0  0  0  0  0  0  0  0  0  0  0  0
   -6.3326   10.0069  -10.7637 H   0  0  0  0  0  0  0  0  0  0  0  0
   -8.0313    9.6067   -7.2544 H   0  0  0  0  0  0  0  0  0  0  0  0
   -6.7563   12.3160   -6.9245 H   0  0  0  0  0  0  0  0  0  0  0  0
   -4.5218   13.2977   -6.4798 H   0  0  0  0  0  0  0  0  0  0  0  0
   -2.6703    9.7625   -8.0472 H   0  0  0  0  0  0  0  0  0  0  0  0
   -4.8715    8.8319   -7.4752 H   0  0  0  0  0  0  0  0  0  0  0  0
   -4.8665    9.5515   -9.1210 H   0  0  0  0  0  0  0  0  0  0  0  0
   -2.4277   14.2118   -6.1857 H   0  0  0  0  0  0  0  0  0  0  0  0
   -0.6637   10.5754   -7.6065 H   0  0  0  0  0  0  0  0  0  0  0  0
    1.4809   14.2752   -6.0543 H   0  0  0  0  0  0  0  0  0  0  0  0
    0.2393   15.4453   -6.6162 H   0  0  0  0  0  0  0  0  0  0  0  0
    0.1804   14.8105   -4.9369 H   0  0  0  0  0  0  0  0  0  0  0  0
   -6.4038   13.9739  -13.9153 H   0  0  0  0  0  0  0  0  0  0  0  0
   -5.1384   15.8875  -14.4370 H   0  0  0  0  0  0  0  0  0  0  0  0
   -3.3221   16.5493  -12.8978 H   0  0  0  0  0  0  0  0  0  0  0  0
   -4.4255   13.3274  -10.3224 H   0  0  0  0  0  0  0  0  0  0  0  0
   -2.6419   14.6376   -9.9343 H   0  0  0  0  0  0  0  0  0  0  0  0
  1  2  2  0  0  0  0
  1  4  1  0  0  0  0
  1 11  1  0  0  0  0
  2  6  1  0  0  0  0
  3  4  2  0  0  0  0
  3  5  1  0  0  0  0
  5  6  1  0  0  0  0
  5  9  2  0  0  0  0
  6  7  1  0  0  0  0
  7  8  2  0  0  0  0
  7 10  1  0  0  0  0
  8  9  1  0  0  0  0
 10 12  2  3  0  0  0
 11 24  1  0  0  0  0
 11 28  2  0  0  0  0
 12 13  1  0  0  0  0
 12 17  1  0  0  0  0
 13 14  2  0  0  0  0
 14 15  1  0  0  0  0
 15 16  2  0  0  0  0
 15 18  1  0  0  0  0
 16 17  1  0  0  0  0
 18 19  2  0  0  0  0
 18 22  1  0  0  0  0
 19 20  1  0  0  0  0
 20 21  1  0  0  0  0
 20 23  1  0  0  0  0
 21 22  2  0  0  0  0
 24 25  1  0  0  0  0
 25 26  2  0  0  0  0
 26 27  1  0  0  0  0
 27 28  1  0  0  0  0
 27 29  2  0  0  0  0
  2 30  1  0  0  0  0
  3 31  1  0  0  0  0
  4 32  1  0  0  0  0
  6 33  1  0  0  0  0
 10 34  1  0  0  0  0
 13 35  1  0  0  0  0
 14 36  1  0  0  0  0
 16 37  1  0  0  0  0
 17 38  1  0  0  0  0
 17 39  1  0  0  0  0
 19 40  1  0  0  0  0
 22 41  1  0  0  0  0
 23 42  1  0  0  0  0
 23 43  1  0  0  0  0
 23 44  1  0  0  0  0
 24 45  1  0  0  0  0
 25 46  1  0  0  0  0
 26 47  1  0  0  0  0
 28 48  1  0  0  0  0
 29 49  1  0  0  0  0
M  END
> <Name>
23

> <IC50[uM]>
0.27

$$$$
23
  -OEChem-05192314333D
 Structure written by MMmdl.
 49 53  0     0  0  0  0  0  0999 V2000
   -6.3775   12.3296  -12.0018 C   0  0  0  0  0  0  0  0  0  0  0  0
   -6.5098   11.7629  -10.7403 C   0  0  0  0  0  0  0  0  0  0  0  0
   -7.7247   10.5660  -13.0266 C   0  0  0  0  0  0  0  0  0  0  0  0
   -6.9942   11.7487  -13.1193 C   0  0  0  0  0  0  0  0  0  0  0  0
   -7.8312   10.0057  -11.7538 C   0  0  0  0  0  0  0  0  0  0  0  0
   -7.2443   10.6021  -10.6070 C   0  0  0  0  0  0  0  0  0  0  0  0
   -7.6167    9.7449   -9.5151 C   0  0  0  0  0  0  0  0  0  0  0  0
   -8.2961    8.7374   -9.9786 N   0  0  0  0  0  0  0  0  0  0  0  0
   -8.4404    8.8724  -11.2937 N   0  0  0  0  0  0  0  0  0  0  0  0
   -7.3318    9.8946   -8.0252 C   0  0  0  0  0  0  0  0  0  0  0  0
   -5.5478   13.5112  -12.1572 C   0  0  0  0  0  0  0  0  0  0  0  0
   -5.9707   10.4870   -7.7351 C   0  0  0  0  0  0  0  0  0  0  0  0
   -5.8642   11.7588   -7.1694 C   0  0  0  0  0  0  0  0  0  0  0  0
   -4.6019   12.3141   -6.9186 C   0  0  0  0  0  0  0  0  0  0  0  0
   -3.4503   11.5963   -7.2357 C   0  0  0  0  0  0  0  0  0  0  0  0
   -3.5604   10.3220   -7.8000 C   0  0  0  0  0  0  0  0  0  0  0  0
   -4.8213    9.7719   -8.0443 C   0  0  0  0  0  0  0  0  0  0  0  0
   -2.0996   12.1710   -6.9757 C   0  0  0  0  0  0  0  0  0  0  0  0
   -1.7487   13.4240   -6.4767 C   0  0  0  0  0  0  0  0  0  0  0  0
   -0.4123   13.4674   -6.4260 N   0  0  0  0  0  0  0  0  0  0  0  0
    0.1713   12.3664   -6.8217 N   0  0  0  0  0  0  0  0  0  0  0  0
   -0.8093   11.5624   -7.1930 C   0  0  0  0  0  0  0  0  0  0  0  0
    0.4224   14.5657   -5.9816 C   0  0  0  0  0  0  0  0  0  0  0  0
   -5.6966   14.2423  -13.2612 N   0  0  0  0  0  0  0  0  0  0  0  0
   -4.9506   15.3153  -13.5405 C   0  0  0  0  0  0  0  0  0  0  0  0
   -3.9383   15.6899  -12.6782 C   0  0  0  0  0  0  0  0  0  0  0  0
   -3.7261   14.9536  -11.5366 C   0  0  0  0  0  0  0  0  0  0  0  0
   -4.5508   13.8769  -11.2437 C   0  0  0  0  0  0  0  0  0  0  0  0
   -2.6976   15.2614  -10.7139 N   0  0  0  0  0  0  0  0  0  0  0  0
   -6.0464   12.2223   -9.8797 H   0  0  0  0  0  0  0  0  0  0  0  0
   -8.7428   10.7712  -13.3891 H   0  0  0  0  0  0  0  0  0  0  0  0
   -7.2451    9.8233  -13.6811 H   0  0  0  0  0  0  0  0  0  0  0  0
   -6.9001   12.2325  -14.0803 H   0  0  0  0  0  0  0  0  0  0  0  0
   -8.0313    9.6067   -7.2544 H   0  0  0  0  0  0  0  0  0  0  0  0
   -6.7563   12.3160   -6.9245 H   0  0  0  0  0  0  0  0  0  0  0  0
   -4.5218   13.2977   -6.4798 H   0  0  0  0  0  0  0  0  0  0  0  0
   -2.6703    9.7625   -8.0472 H   0  0  0  0  0  0  0  0  0  0  0  0
   -4.8715    8.8319   -7.4752 H   0  0  0  0  0  0  0  0  0  0  0  0
   -4.8665    9.5515   -9.1210 H   0  0  0  0  0  0  0  0  0  0  0  0
   -2.4277   14.2118   -6.1857 H   0  0  0  0  0  0  0  0  0  0  0  0
   -0.6637   10.5754   -7.6065 H   0  0  0  0  0  0  0  0  0  0  0  0
    1.4809   14.2752   -6.0543 H   0  0  0  0  0  0  0  0  0  0  0  0
    0.2393   15.4453   -6.6162 H   0  0  0  0  0  0  0  0  0  0  0  0
    0.1804   14.8105   -4.9369 H   0  0  0  0  0  0  0  0  0  0  0  0
   -6.4038   13.9739  -13.9153 H   0  0  0  0  0  0  0  0  0  0  0  0
   -5.1384   15.8875  -14.4370 H   0  0  0  0  0  0  0  0  0  0  0  0
   -3.3221   16.5493  -12.8978 H   0  0  0  0  0  0  0  0  0  0  0  0
   -4.4255   13.3274  -10.3224 H   0  0  0  0  0  0  0  0  0  0  0  0
   -2.6419   14.6376   -9.9343 H   0  0  0  0  0  0  0  0  0  0  0  0
  1  2  1  0  0  0  0
  1  4  2  0  0  0  0
  1 11  1  0  0  0  0
  2  6  2  0  0  0  0
  3  4  1  0  0  0  0
  3  5  1  0  0  0  0
  5  6  1  0  0  0  0
  5  9  2  0  0  0  0
  6  7  1  0  0  0  0
  7  8  2  0  0  0  0
  7 10  1  0  0  0  0
  8  9  1  0  0  0  0
 10 12  2  3  0  0  0
 11 24  1  0  0  0  0
 11 28  2  0  0  0  0
 12 13  1  0  0  0  0
 12 17  1  0  0  0  0
 13 14  2  0  0  0  0
 14 15  1  0  0  0  0
 15 16  2  0  0  0  0
 15 18  1  0  0  0  0
 16 17  1  0  0  0  0
 18 19  2  0  0  0  0
 18 22  1  0  0  0  0
 19 20  1  0  0  0  0
 20 21  1  0  0  0  0
 20 23  1  0  0  0  0
 21 22  2  0  0  0  0
 24 25  1  0  0  0  0
 25 26  2  0  0  0  0
 26 27  1  0  0  0  0
 27 28  1  0  0  0  0
 27 29  2  0  0  0  0
  2 30  1  0  0  0  0
  3 31  1  0  0  0  0
  3 32  1  0  0  0  0
  4 33  1  0  0  0  0
 10 34  1  0  0  0  0
 13 35  1  0  0  0  0
 14 36  1  0  0  0  0
 16 37  1  0  0  0  0
 17 38  1  0  0  0  0
 17 39  1  0  0  0  0
 19 40  1  0  0  0  0
 22 41  1  0  0  0  0
 23 42  1  0  0  0  0
 23 43  1  0  0  0  0
 23 44  1  0  0  0  0
 24 45  1  0  0  0  0
 25 46  1  0  0  0  0
 26 47  1  0  0  0  0
 28 48  1  0  0  0  0
 29 49  1  0  0  0  0
M  END
> <Name>
23

> <IC50[uM]>
0.27

$$$$
23
  -OEChem-05192314333D
 Structure written by MMmdl.
 49 53  0     1  0  0  0  0  0999 V2000
   -6.3775   12.3296  -12.0018 C   0  0  0  0  0  0  0  0  0  0  0  0
   -6.5098   11.7629  -10.7403 C   0  0  0  0  0  0  0  0  0  0  0  0
   -7.7247   10.5660  -13.0266 C   0  0  0  0  0  0  0  0  0  0  0  0
   -6.9942   11.7487  -13.1193 C   0  0  0  0  0  0  0  0  0  0  0  0
   -7.8312   10.0057  -11.7538 C   0  0  3  0  0  0  0  0  0  0  0  0
   -7.2443   10.6021  -10.6070 C   0  0  0  0  0  0  0  0  0  0  0  0
   -7.6167    9.7449   -9.5151 C   0  0  0  0  0  0  0  0  0  0  0  0
   -8.2961    8.7374   -9.9786 N   0  0  0  0  0  0  0  0  0  0  0  0
   -8.4404    8.8724  -11.2937 N   0  0  0  0  0  0  0  0  0  0  0  0
   -7.3318    9.8946   -8.0252 C   0  0  0  0  0  0  0  0  0  0  0  0
   -5.5478   13.5112  -12.1572 C   0  0  0  0  0  0  0  0  0  0  0  0
   -5.9707   10.4870   -7.7351 C   0  0  0  0  0  0  0  0  0  0  0  0
   -5.8642   11.7588   -7.1694 C   0  0  0  0  0  0  0  0  0  0  0  0
   -4.6019   12.3141   -6.9186 C   0  0  0  0  0  0  0  0  0  0  0  0
   -3.4503   11.5963   -7.2357 C   0  0  0  0  0  0  0  0  0  0  0  0
   -3.5604   10.3220   -7.8000 C   0  0  0  0  0  0  0  0  0  0  0  0
   -4.8213    9.7719   -8.0443 C   0  0  0  0  0  0  0  0  0  0  0  0
   -2.0996   12.1710   -6.9757 C   0  0  0  0  0  0  0  0  0  0  0  0
   -1.7487   13.4240   -6.4767 C   0  0  0  0  0  0  0  0  0  0  0  0
   -0.4123   13.4674   -6.4260 N   0  0  0  0  0  0  0  0  0  0  0  0
    0.1713   12.3664   -6.8217 N   0  0  0  0  0  0  0  0  0  0  0  0
   -0.8093   11.5624   -7.1930 C   0  0  0  0  0  0  0  0  0  0  0  0
    0.4224   14.5657   -5.9816 C   0  0  0  0  0  0  0  0  0  0  0  0
   -5.6966   14.2423  -13.2612 N   0  0  0  0  0  0  0  0  0  0  0  0
   -4.9506   15.3153  -13.5405 C   0  0  0  0  0  0  0  0  0  0  0  0
   -3.9383   15.6899  -12.6782 C   0  0  0  0  0  0  0  0  0  0  0  0
   -3.7261   14.9536  -11.5366 C   0  0  0  0  0  0  0  0  0  0  0  0
   -4.5508   13.8769  -11.2437 C   0  0  0  0  0  0  0  0  0  0  0  0
   -2.6976   15.2614  -10.7139 N   0  0  0  0  0  0  0  0  0  0  0  0
   -6.0464   12.2223   -9.8797 H   0  0  0  0  0  0  0  0  0  0  0  0
   -8.1826   10.1089  -13.8914 H   0  0  0  0  0  0  0  0  0  0  0  0
   -6.9001   12.2325  -14.0803 H   0  0  0  0  0  0  0  0  0  0  0  0
   -8.7557   10.5755  -11.5787 H   0  0  0  0  0  0  0  0  0  0  0  0
   -8.0313    9.6067   -7.2544 H   0  0  0  0  0  0  0  0  0  0  0  0
   -6.7563   12.3160   -6.9245 H   0  0  0  0  0  0  0  0  0  0  0  0
   -4.5218   13.2977   -6.4798 H   0  0  0  0  0  0  0  0  0  0  0  0
   -3.4477   12.0425   -8.2411 H   0  0  0  0  0  0  0  0  0  0  0  0
   -2.6703    9.7625   -8.0472 H   0  0  0  0  0  0  0  0  0  0  0  0
   -4.9024    8.7852   -8.4759 H   0  0  0  0  0  0  0  0  0  0  0  0
   -2.4277   14.2118   -6.1857 H   0  0  0  0  0  0  0  0  0  0  0  0
   -0.6637   10.5754   -7.6065 H   0  0  0  0  0  0  0  0  0  0  0  0
    1.4809   14.2752   -6.0543 H   0  0  0  0  0  0  0  0  0  0  0  0
    0.2393   15.4453   -6.6162 H   0  0  0  0  0  0  0  0  0  0  0  0
    0.1804   14.8105   -4.9369 H   0  0  0  0  0  0  0  0  0  0  0  0
   -6.4038   13.9739  -13.9153 H   0  0  0  0  0  0  0  0  0  0  0  0
   -5.1384   15.8875  -14.4370 H   0  0  0  0  0  0  0  0  0  0  0  0
   -3.3221   16.5493  -12.8978 H   0  0  0  0  0  0  0  0  0  0  0  0
   -4.4255   13.3274  -10.3224 H   0  0  0  0  0  0  0  0  0  0  0  0
   -2.6419   14.6376   -9.9343 H   0  0  0  0  0  0  0  0  0  0  0  0
  1  2  2  0  0  0  0
  1  4  1  0  0  0  0
  1 11  1  0  0  0  0
  2  6  1  0  0  0  0
  3  4  2  0  0  0  0
  3  5  1  0  0  0  0
  5  6  1  0  0  0  0
  5  9  1  0  0  0  0
  6  7  2  0  0  0  0
  7  8  1  0  0  0  0
  7 10  1  0  0  0  0
  8  9  2  0  0  0  0
 10 12  2  0  0  0  0
 11 24  1  0  0  0  0
 11 28  2  0  0  0  0
 12 13  1  0  0  0  0
 12 17  1  0  0  0  0
 13 14  2  0  0  0  0
 14 15  1  0  0  0  0
 15 16  1  0  0  0  0
 15 18  1  0  0  0  0
 16 17  2  0  0  0  0
 18 19  2  0  0  0  0
 18 22  1  0  0  0  0
 19 20  1  0  0  0  0
 20 21  1  0  0  0  0
 20 23  1  0  0  0  0
 21 22  2  0  0  0  0
 24 25  1  0  0  0  0
 25 26  2  0  0  0  0
 26 27  1  0  0  0  0
 27 28  1  0  0  0  0
 27 29  2  0  0  0  0
  2 30  1  0  0  0  0
  3 31  1  0  0  0  0
  4 32  1  0  0  0  0
  5 33  1  0  0  0  0
 10 34  1  0  0  0  0
 13 35  1  0  0  0  0
 14 36  1  0  0  0  0
 15 37  1  0  0  0  0
 16 38  1  0  0  0  0
 17 39  1  0  0  0  0
 19 40  1  0  0  0  0
 22 41  1  0  0  0  0
 23 42  1  0  0  0  0
 23 43  1  0  0  0  0
 23 44  1  0  0  0  0
 24 45  1  0  0  0  0
 25 46  1  0  0  0  0
 26 47  1  0  0  0  0
 28 48  1  0  0  0  0
 29 49  1  0  0  0  0
M  END
> <Name>
23

> <IC50[uM]>
0.27

$$$$
23
  -OEChem-05192314333D
 Structure written by MMmdl.
 49 53  0     0  0  0  0  0  0999 V2000
   -6.3775   12.3296  -12.0018 C   0  0  0  0  0  0  0  0  0  0  0  0
   -6.5098   11.7629  -10.7403 C   0  0  0  0  0  0  0  0  0  0  0  0
   -7.7247   10.5660  -13.0266 C   0  0  0  0  0  0  0  0  0  0  0  0
   -6.9942   11.7487  -13.1193 C   0  0  0  0  0  0  0  0  0  0  0  0
   -7.8312   10.0057  -11.7538 C   0  0  0  0  0  0  0  0  0  0  0  0
   -7.2443   10.6021  -10.6070 C   0  0  0  0  0  0  0  0  0  0  0  0
   -7.6167    9.7449   -9.5151 C   0  0  0  0  0  0  0  0  0  0  0  0
   -8.2961    8.7374   -9.9786 N   0  0  0  0  0  0  0  0  0  0  0  0
   -8.4404    8.8724  -11.2937 N   0  0  0  0  0  0  0  0  0  0  0  0
   -7.3318    9.8946   -8.0252 C   0  0  0  0  0  0  0  0  0  0  0  0
   -5.5478   13.5112  -12.1572 C   0  0  0  0  0  0  0  0  0  0  0  0
   -5.9707   10.4870   -7.7351 C   0  0  0  0  0  0  0  0  0  0  0  0
   -5.8642   11.7588   -7.1694 C   0  0  0  0  0  0  0  0  0  0  0  0
   -4.6019   12.3141   -6.9186 C   0  0  0  0  0  0  0  0  0  0  0  0
   -3.4503   11.5963   -7.2357 C   0  0  0  0  0  0  0  0  0  0  0  0
   -3.5604   10.3220   -7.8000 C   0  0  0  0  0  0  0  0  0  0  0  0
   -4.8213    9.7719   -8.0443 C   0  0  0  0  0  0  0  0  0  0  0  0
   -2.0996   12.1710   -6.9757 C   0  0  0  0  0  0  0  0  0  0  0  0
   -1.7487   13.4240   -6.4767 C   0  0  0  0  0  0  0  0  0  0  0  0
   -0.4123   13.4674   -6.4260 N   0  0  0  0  0  0  0  0  0  0  0  0
    0.1713   12.3664   -6.8217 N   0  0  0  0  0  0  0  0  0  0  0  0
   -0.8093   11.5624   -7.1930 C   0  0  0  0  0  0  0  0  0  0  0  0
    0.4224   14.5657   -5.9816 C   0  0  0  0  0  0  0  0  0  0  0  0
   -5.6966   14.2423  -13.2612 N   0  0  0  0  0  0  0  0  0  0  0  0
   -4.9506   15.3153  -13.5405 C   0  0  0  0  0  0  0  0  0  0  0  0
   -3.9383   15.6899  -12.6782 C   0  0  0  0  0  0  0  0  0  0  0  0
   -3.7261   14.9536  -11.5366 C   0  0  0  0  0  0  0  0  0  0  0  0
   -4.5508   13.8769  -11.2437 C   0  0  0  0  0  0  0  0  0  0  0  0
   -2.6976   15.2614  -10.7139 N   0  0  0  0  0  0  0  0  0  0  0  0
   -6.0464   12.2223   -9.8797 H   0  0  0  0  0  0  0  0  0  0  0  0
   -8.1826   10.1089  -13.8914 H   0  0  0  0  0  0  0  0  0  0  0  0
   -7.6841   12.5064  -13.5191 H   0  0  0  0  0  0  0  0  0  0  0  0
   -6.1936   11.5599  -13.8497 H   0  0  0  0  0  0  0  0  0  0  0  0
   -8.0313    9.6067   -7.2544 H   0  0  0  0  0  0  0  0  0  0  0  0
   -6.7563   12.3160   -6.9245 H   0  0  0  0  0  0  0  0  0  0  0  0
   -4.5218   13.2977   -6.4798 H   0  0  0  0  0  0  0  0  0  0  0  0
   -3.4477   12.0425   -8.2411 H   0  0  0  0  0  0  0  0  0  0  0  0
   -2.6703    9.7625   -8.0472 H   0  0  0  0  0  0  0  0  0  0  0  0
   -4.9024    8.7852   -8.4759 H   0  0  0  0  0  0  0  0  0  0  0  0
   -2.4277   14.2118   -6.1857 H   0  0  0  0  0  0  0  0  0  0  0  0
   -0.6637   10.5754   -7.6065 H   0  0  0  0  0  0  0  0  0  0  0  0
    1.4809   14.2752   -6.0543 H   0  0  0  0  0  0  0  0  0  0  0  0
    0.2393   15.4453   -6.6162 H   0  0  0  0  0  0  0  0  0  0  0  0
    0.1804   14.8105   -4.9369 H   0  0  0  0  0  0  0  0  0  0  0  0
   -6.4038   13.9739  -13.9153 H   0  0  0  0  0  0  0  0  0  0  0  0
   -5.1384   15.8875  -14.4370 H   0  0  0  0  0  0  0  0  0  0  0  0
   -3.3221   16.5493  -12.8978 H   0  0  0  0  0  0  0  0  0  0  0  0
   -4.4255   13.3274  -10.3224 H   0  0  0  0  0  0  0  0  0  0  0  0
   -2.6419   14.6376   -9.9343 H   0  0  0  0  0  0  0  0  0  0  0  0
  1  2  2  0  0  0  0
  1  4  1  0  0  0  0
  1 11  1  0  0  0  0
  2  6  1  0  0  0  0
  3  4  1  0  0  0  0
  3  5  2  0  0  0  0
  5  6  1  0  0  0  0
  5  9  1  0  0  0  0
  6  7  2  0  0  0  0
  7  8  1  0  0  0  0
  7 10  1  0  0  0  0
  8  9  2  0  0  0  0
 10 12  2  0  0  0  0
 11 24  1  0  0  0  0
 11 28  2  0  0  0  0
 12 13  1  0  0  0  0
 12 17  1  0  0  0  0
 13 14  2  0  0  0  0
 14 15  1  0  0  0  0
 15 16  1  0  0  0  0
 15 18  1  0  0  0  0
 16 17  2  0  0  0  0
 18 19  2  0  0  0  0
 18 22  1  0  0  0  0
 19 20  1  0  0  0  0
 20 21  1  0  0  0  0
 20 23  1  0  0  0  0
 21 22  2  0  0  0  0
 24 25  1  0  0  0  0
 25 26  2  0  0  0  0
 26 27  1  0  0  0  0
 27 28  1  0  0  0  0
 27 29  2  0  0  0  0
  2 30  1  0  0  0  0
  3 31  1  0  0  0  0
  4 32  1  0  0  0  0
  4 33  1  0  0  0  0
 10 34  1  0  0  0  0
 13 35  1  0  0  0  0
 14 36  1  0  0  0  0
 15 37  1  0  0  0  0
 16 38  1  0  0  0  0
 17 39  1  0  0  0  0
 19 40  1  0  0  0  0
 22 41  1  0  0  0  0
 23 42  1  0  0  0  0
 23 43  1  0  0  0  0
 23 44  1  0  0  0  0
 24 45  1  0  0  0  0
 25 46  1  0  0  0  0
 26 47  1  0  0  0  0
 28 48  1  0  0  0  0
 29 49  1  0  0  0  0
M  END
> <Name>
23

> <IC50[uM]>
0.27

$$$$
23
  -OEChem-05192314333D
 Structure written by MMmdl.
 49 53  0     1  0  0  0  0  0999 V2000
   -6.3775   12.3296  -12.0018 C   0  0  0  0  0  0  0  0  0  0  0  0
   -6.5098   11.7629  -10.7403 C   0  0  0  0  0  0  0  0  0  0  0  0
   -7.7247   10.5660  -13.0266 C   0  0  0  0  0  0  0  0  0  0  0  0
   -6.9942   11.7487  -13.1193 C   0  0  0  0  0  0  0  0  0  0  0  0
   -7.8312   10.0057  -11.7538 C   0  0  3  0  0  0  0  0  0  0  0  0
   -7.2443   10.6021  -10.6070 C   0  0  0  0  0  0  0  0  0  0  0  0
   -7.6167    9.7449   -9.5151 C   0  0  0  0  0  0  0  0  0  0  0  0
   -8.2961    8.7374   -9.9786 N   0  0  0  0  0  0  0  0  0  0  0  0
   -8.4404    8.8724  -11.2937 N   0  0  0  0  0  0  0  0  0  0  0  0
   -7.3318    9.8946   -8.0252 C   0  0  0  0  0  0  0  0  0  0  0  0
   -5.5478   13.5112  -12.1572 C   0  0  0  0  0  0  0  0  0  0  0  0
   -5.9707   10.4870   -7.7351 C   0  0  0  0  0  0  0  0  0  0  0  0
   -5.8642   11.7588   -7.1694 C   0  0  0  0  0  0  0  0  0  0  0  0
   -4.6019   12.3141   -6.9186 C   0  0  0  0  0  0  0  0  0  0  0  0
   -3.4503   11.5963   -7.2357 C   0  0  0  0  0  0  0  0  0  0  0  0
   -3.5604   10.3220   -7.8000 C   0  0  0  0  0  0  0  0  0  0  0  0
   -4.8213    9.7719   -8.0443 C   0  0  0  0  0  0  0  0  0  0  0  0
   -2.0996   12.1710   -6.9757 C   0  0  0  0  0  0  0  0  0  0  0  0
   -1.7487   13.4240   -6.4767 C   0  0  0  0  0  0  0  0  0  0  0  0
   -0.4123   13.4674   -6.4260 N   0  0  0  0  0  0  0  0  0  0  0  0
    0.1713   12.3664   -6.8217 N   0  0  0  0  0  0  0  0  0  0  0  0
   -0.8093   11.5624   -7.1930 C   0  0  0  0  0  0  0  0  0  0  0  0
    0.4224   14.5657   -5.9816 C   0  0  0  0  0  0  0  0  0  0  0  0
   -5.6966   14.2423  -13.2612 N   0  0  0  0  0  0  0  0  0  0  0  0
   -4.9506   15.3153  -13.5405 C   0  0  0  0  0  0  0  0  0  0  0  0
   -3.9383   15.6899  -12.6782 C   0  0  0  0  0  0  0  0  0  0  0  0
   -3.7261   14.9536  -11.5366 C   0  0  0  0  0  0  0  0  0  0  0  0
   -4.5508   13.8769  -11.2437 C   0  0  0  0  0  0  0  0  0  0  0  0
   -2.6976   15.2614  -10.7139 N   0  0  0  0  0  0  0  0  0  0  0  0
   -6.0464   12.2223   -9.8797 H   0  0  0  0  0  0  0  0  0  0  0  0
   -8.1826   10.1089  -13.8914 H   0  0  0  0  0  0  0  0  0  0  0  0
   -6.9001   12.2325  -14.0803 H   0  0  0  0  0  0  0  0  0  0  0  0
   -8.7557   10.5755  -11.5787 H   0  0  0  0  0  0  0  0  0  0  0  0
   -8.0313    9.6067   -7.2544 H   0  0  0  0  0  0  0  0  0  0  0  0
   -6.7563   12.3160   -6.9245 H   0  0  0  0  0  0  0  0  0  0  0  0
   -4.5218   13.2977   -6.4798 H   0  0  0  0  0  0  0  0  0  0  0  0
   -2.6703    9.7625   -8.0472 H   0  0  0  0  0  0  0  0  0  0  0  0
   -4.8715    8.8319   -7.4752 H   0  0  0  0  0  0  0  0  0  0  0  0
   -4.8665    9.5515   -9.1210 H   0  0  0  0  0  0  0  0  0  0  0  0
   -2.4277   14.2118   -6.1857 H   0  0  0  0  0  0  0  0  0  0  0  0
   -0.6637   10.5754   -7.6065 H   0  0  0  0  0  0  0  0  0  0  0  0
    1.4809   14.2752   -6.0543 H   0  0  0  0  0  0  0  0  0  0  0  0
    0.2393   15.4453   -6.6162 H   0  0  0  0  0  0  0  0  0  0  0  0
    0.1804   14.8105   -4.9369 H   0  0  0  0  0  0  0  0  0  0  0  0
   -6.4038   13.9739  -13.9153 H   0  0  0  0  0  0  0  0  0  0  0  0
   -5.1384   15.8875  -14.4370 H   0  0  0  0  0  0  0  0  0  0  0  0
   -3.3221   16.5493  -12.8978 H   0  0  0  0  0  0  0  0  0  0  0  0
   -4.4255   13.3274  -10.3224 H   0  0  0  0  0  0  0  0  0  0  0  0
   -2.6419   14.6376   -9.9343 H   0  0  0  0  0  0  0  0  0  0  0  0
  1  2  2  0  0  0  0
  1  4  1  0  0  0  0
  1 11  1  0  0  0  0
  2  6  1  0  0  0  0
  3  4  2  0  0  0  0
  3  5  1  0  0  0  0
  5  6  1  0  0  0  0
  5  9  1  0  0  0  0
  6  7  2  0  0  0  0
  7  8  1  0  0  0  0
  7 10  1  0  0  0  0
  8  9  2  0  0  0  0
 10 12  2  3  0  0  0
 11 24  1  0  0  0  0
 11 28  2  0  0  0  0
 12 13  1  0  0  0  0
 12 17  1  0  0  0  0
 13 14  2  0  0  0  0
 14 15  1  0  0  0  0
 15 16  2  0  0  0  0
 15 18  1  0  0  0  0
 16 17  1  0  0  0  0
 18 19  2  0  0  0  0
 18 22  1  0  0  0  0
 19 20  1  0  0  0  0
 20 21  1  0  0  0  0
 20 23  1  0  0  0  0
 21 22  2  0  0  0  0
 24 25  1  0  0  0  0
 25 26  2  0  0  0  0
 26 27  1  0  0  0  0
 27 28  1  0  0  0  0
 27 29  2  0  0  0  0
  2 30  1  0  0  0  0
  3 31  1  0  0  0  0
  4 32  1  0  0  0  0
  5 33  1  0  0  0  0
 10 34  1  0  0  0  0
 13 35  1  0  0  0  0
 14 36  1  0  0  0  0
 16 37  1  0  0  0  0
 17 38  1  0  0  0  0
 17 39  1  0  0  0  0
 19 40  1  0  0  0  0
 22 41  1  0  0  0  0
 23 42  1  0  0  0  0
 23 43  1  0  0  0  0
 23 44  1  0  0  0  0
 24 45  1  0  0  0  0
 25 46  1  0  0  0  0
 26 47  1  0  0  0  0
 28 48  1  0  0  0  0
 29 49  1  0  0  0  0
M  END
> <Name>
23

> <IC50[uM]>
0.27

$$$$
23
  -OEChem-05192314333D
 Structure written by MMmdl.
 49 53  0     0  0  0  0  0  0999 V2000
   -6.3775   12.3296  -12.0018 C   0  0  0  0  0  0  0  0  0  0  0  0
   -6.5098   11.7629  -10.7403 C   0  0  0  0  0  0  0  0  0  0  0  0
   -7.7247   10.5660  -13.0266 C   0  0  0  0  0  0  0  0  0  0  0  0
   -6.9942   11.7487  -13.1193 C   0  0  0  0  0  0  0  0  0  0  0  0
   -7.8312   10.0057  -11.7538 C   0  0  0  0  0  0  0  0  0  0  0  0
   -7.2443   10.6021  -10.6070 C   0  0  0  0  0  0  0  0  0  0  0  0
   -7.6167    9.7449   -9.5151 C   0  0  0  0  0  0  0  0  0  0  0  0
   -8.2961    8.7374   -9.9786 N   0  0  0  0  0  0  0  0  0  0  0  0
   -8.4404    8.8724  -11.2937 N   0  0  0  0  0  0  0  0  0  0  0  0
   -7.3318    9.8946   -8.0252 C   0  0  0  0  0  0  0  0  0  0  0  0
   -5.5478   13.5112  -12.1572 C   0  0  0  0  0  0  0  0  0  0  0  0
   -5.9707   10.4870   -7.7351 C   0  0  0  0  0  0  0  0  0  0  0  0
   -5.8642   11.7588   -7.1694 C   0  0  0  0  0  0  0  0  0  0  0  0
   -4.6019   12.3141   -6.9186 C   0  0  0  0  0  0  0  0  0  0  0  0
   -3.4503   11.5963   -7.2357 C   0  0  0  0  0  0  0  0  0  0  0  0
   -3.5604   10.3220   -7.8000 C   0  0  0  0  0  0  0  0  0  0  0  0
   -4.8213    9.7719   -8.0443 C   0  0  0  0  0  0  0  0  0  0  0  0
   -2.0996   12.1710   -6.9757 C   0  0  0  0  0  0  0  0  0  0  0  0
   -1.7487   13.4240   -6.4767 C   0  0  0  0  0  0  0  0  0  0  0  0
   -0.4123   13.4674   -6.4260 N   0  0  0  0  0  0  0  0  0  0  0  0
    0.1713   12.3664   -6.8217 N   0  0  0  0  0  0  0  0  0  0  0  0
   -0.8093   11.5624   -7.1930 C   0  0  0  0  0  0  0  0  0  0  0  0
    0.4224   14.5657   -5.9816 C   0  0  0  0  0  0  0  0  0  0  0  0
   -5.6966   14.2423  -13.2612 N   0  0  0  0  0  0  0  0  0  0  0  0
   -4.9506   15.3153  -13.5405 C   0  0  0  0  0  0  0  0  0  0  0  0
   -3.9383   15.6899  -12.6782 C   0  0  0  0  0  0  0  0  0  0  0  0
   -3.7261   14.9536  -11.5366 C   0  0  0  0  0  0  0  0  0  0  0  0
   -4.5508   13.8769  -11.2437 C   0  0  0  0  0  0  0  0  0  0  0  0
   -2.6976   15.2614  -10.7139 N   0  0  0  0  0  0  0  0  0  0  0  0
   -6.0464   12.2223   -9.8797 H   0  0  0  0  0  0  0  0  0  0  0  0
   -8.1826   10.1089  -13.8914 H   0  0  0  0  0  0  0  0  0  0  0  0
   -7.6841   12.5064  -13.5191 H   0  0  0  0  0  0  0  0  0  0  0  0
   -6.1936   11.5599  -13.8497 H   0  0  0  0  0  0  0  0  0  0  0  0
   -8.0313    9.6067   -7.2544 H   0  0  0  0  0  0  0  0  0  0  0  0
   -6.7563   12.3160   -6.9245 H   0  0  0  0  0  0  0  0  0  0  0  0
   -4.5218   13.2977   -6.4798 H   0  0  0  0  0  0  0  0  0  0  0  0
   -2.6703    9.7625   -8.0472 H   0  0  0  0  0  0  0  0  0  0  0  0
   -4.8715    8.8319   -7.4752 H   0  0  0  0  0  0  0  0  0  0  0  0
   -4.8665    9.5515   -9.1210 H   0  0  0  0  0  0  0  0  0  0  0  0
   -2.4277   14.2118   -6.1857 H   0  0  0  0  0  0  0  0  0  0  0  0
   -0.6637   10.5754   -7.6065 H   0  0  0  0  0  0  0  0  0  0  0  0
    1.4809   14.2752   -6.0543 H   0  0  0  0  0  0  0  0  0  0  0  0
    0.2393   15.4453   -6.6162 H   0  0  0  0  0  0  0  0  0  0  0  0
    0.1804   14.8105   -4.9369 H   0  0  0  0  0  0  0  0  0  0  0  0
   -6.4038   13.9739  -13.9153 H   0  0  0  0  0  0  0  0  0  0  0  0
   -5.1384   15.8875  -14.4370 H   0  0  0  0  0  0  0  0  0  0  0  0
   -3.3221   16.5493  -12.8978 H   0  0  0  0  0  0  0  0  0  0  0  0
   -4.4255   13.3274  -10.3224 H   0  0  0  0  0  0  0  0  0  0  0  0
   -2.6419   14.6376   -9.9343 H   0  0  0  0  0  0  0  0  0  0  0  0
  1  2  2  0  0  0  0
  1  4  1  0  0  0  0
  1 11  1  0  0  0  0
  2  6  1  0  0  0  0
  3  4  1  0  0  0  0
  3  5  2  0  0  0  0
  5  6  1  0  0  0  0
  5  9  1  0  0  0  0
  6  7  2  0  0  0  0
  7  8  1  0  0  0  0
  7 10  1  0  0  0  0
  8  9  2  0  0  0  0
 10 12  2  3  0  0  0
 11 24  1  0  0  0  0
 11 28  2  0  0  0  0
 12 13  1  0  0  0  0
 12 17  1  0  0  0  0
 13 14  2  0  0  0  0
 14 15  1  0  0  0  0
 15 16  2  0  0  0  0
 15 18  1  0  0  0  0
 16 17  1  0  0  0  0
 18 19  2  0  0  0  0
 18 22  1  0  0  0  0
 19 20  1  0  0  0  0
 20 21  1  0  0  0  0
 20 23  1  0  0  0  0
 21 22  2  0  0  0  0
 24 25  1  0  0  0  0
 25 26  2  0  0  0  0
 26 27  1  0  0  0  0
 27 28  1  0  0  0  0
 27 29  2  0  0  0  0
  2 30  1  0  0  0  0
  3 31  1  0  0  0  0
  4 32  1  0  0  0  0
  4 33  1  0  0  0  0
 10 34  1  0  0  0  0
 13 35  1  0  0  0  0
 14 36  1  0  0  0  0
 16 37  1  0  0  0  0
 17 38  1  0  0  0  0
 17 39  1  0  0  0  0
 19 40  1  0  0  0  0
 22 41  1  0  0  0  0
 23 42  1  0  0  0  0
 23 43  1  0  0  0  0
 23 44  1  0  0  0  0
 24 45  1  0  0  0  0
 25 46  1  0  0  0  0
 26 47  1  0  0  0  0
 28 48  1  0  0  0  0
 29 49  1  0  0  0  0
M  END
> <Name>
23

> <IC50[uM]>
0.27

$$$$
23
  -OEChem-05192314333D
 Structure written by MMmdl.
 49 53  0     0  0  0  0  0  0999 V2000
   -6.3775   12.3296  -12.0018 C   0  0  0  0  0  0  0  0  0  0  0  0
   -6.5098   11.7629  -10.7403 C   0  0  0  0  0  0  0  0  0  0  0  0
   -7.7247   10.5660  -13.0266 C   0  0  0  0  0  0  0  0  0  0  0  0
   -6.9942   11.7487  -13.1193 C   0  0  0  0  0  0  0  0  0  0  0  0
   -7.8312   10.0057  -11.7538 C   0  0  0  0  0  0  0  0  0  0  0  0
   -7.2443   10.6021  -10.6070 C   0  0  0  0  0  0  0  0  0  0  0  0
   -7.6167    9.7449   -9.5151 C   0  0  0  0  0  0  0  0  0  0  0  0
   -8.2961    8.7374   -9.9786 N   0  0  0  0  0  0  0  0  0  0  0  0
   -8.4404    8.8724  -11.2937 N   0  0  0  0  0  0  0  0  0  0  0  0
   -7.3318    9.8946   -8.0252 C   0  0  0  0  0  0  0  0  0  0  0  0
   -5.5478   13.5112  -12.1572 C   0  0  0  0  0  0  0  0  0  0  0  0
   -5.9707   10.4870   -7.7351 C   0  0  0  0  0  0  0  0  0  0  0  0
   -5.8642   11.7588   -7.1694 C   0  0  0  0  0  0  0  0  0  0  0  0
   -4.6019   12.3141   -6.9186 C   0  0  0  0  0  0  0  0  0  0  0  0
   -3.4503   11.5963   -7.2357 C   0  0  0  0  0  0  0  0  0  0  0  0
   -3.5604   10.3220   -7.8000 C   0  0  0  0  0  0  0  0  0  0  0  0
   -4.8213    9.7719   -8.0443 C   0  0  0  0  0  0  0  0  0  0  0  0
   -2.0996   12.1710   -6.9757 C   0  0  0  0  0  0  0  0  0  0  0  0
   -1.7487   13.4240   -6.4767 C   0  0  0  0  0  0  0  0  0  0  0  0
   -0.4123   13.4674   -6.4260 N   0  0  0  0  0  0  0  0  0  0  0  0
    0.1713   12.3664   -6.8217 N   0  0  0  0  0  0  0  0  0  0  0  0
   -0.8093   11.5624   -7.1930 C   0  0  0  0  0  0  0  0  0  0  0  0
    0.4224   14.5657   -5.9816 C   0  0  0  0  0  0  0  0  0  0  0  0
   -5.6966   14.2423  -13.2612 N   0  0  0  0  0  0  0  0  0  0  0  0
   -4.9506   15.3153  -13.5405 C   0  0  0  0  0  0  0  0  0  0  0  0
   -3.9383   15.6899  -12.6782 C   0  0  0  0  0  0  0  0  0  0  0  0
   -3.7261   14.9536  -11.5366 C   0  0  0  0  0  0  0  0  0  0  0  0
   -4.5508   13.8769  -11.2437 C   0  0  0  0  0  0  0  0  0  0  0  0
   -2.6976   15.2614  -10.7139 N   0  0  0  0  0  0  0  0  0  0  0  0
   -5.4950   11.5473  -10.3746 H   0  0  0  0  0  0  0  0  0  0  0  0
   -6.9796   12.5188  -10.0939 H   0  0  0  0  0  0  0  0  0  0  0  0
   -8.1826   10.1089  -13.8914 H   0  0  0  0  0  0  0  0  0  0  0  0
   -6.9001   12.2325  -14.0803 H   0  0  0  0  0  0  0  0  0  0  0  0
   -8.0313    9.6067   -7.2544 H   0  0  0  0  0  0  0  0  0  0  0  0
   -6.7563   12.3160   -6.9245 H   0  0  0  0  0  0  0  0  0  0  0  0
   -4.5218   13.2977   -6.4798 H   0  0  0  0  0  0  0  0  0  0  0  0
   -3.4477   12.0425   -8.2411 H   0  0  0  0  0  0  0  0  0  0  0  0
   -2.6703    9.7625   -8.0472 H   0  0  0  0  0  0  0  0  0  0  0  0
   -4.9024    8.7852   -8.4759 H   0  0  0  0  0  0  0  0  0  0  0  0
   -2.4277   14.2118   -6.1857 H   0  0  0  0  0  0  0  0  0  0  0  0
   -0.6637   10.5754   -7.6065 H   0  0  0  0  0  0  0  0  0  0  0  0
    1.4809   14.2752   -6.0543 H   0  0  0  0  0  0  0  0  0  0  0  0
    0.2393   15.4453   -6.6162 H   0  0  0  0  0  0  0  0  0  0  0  0
    0.1804   14.8105   -4.9369 H   0  0  0  0  0  0  0  0  0  0  0  0
   -6.4038   13.9739  -13.9153 H   0  0  0  0  0  0  0  0  0  0  0  0
   -5.1384   15.8875  -14.4370 H   0  0  0  0  0  0  0  0  0  0  0  0
   -3.3221   16.5493  -12.8978 H   0  0  0  0  0  0  0  0  0  0  0  0
   -4.4255   13.3274  -10.3224 H   0  0  0  0  0  0  0  0  0  0  0  0
   -2.6419   14.6376   -9.9343 H   0  0  0  0  0  0  0  0  0  0  0  0
  1  2  1  0  0  0  0
  1  4  2  0  0  0  0
  1 11  1  0  0  0  0
  2  6  1  0  0  0  0
  3  4  1  0  0  0  0
  3  5  2  0  0  0  0
  5  6  1  0  0  0  0
  5  9  1  0  0  0  0
  6  7  2  0  0  0  0
  7  8  1  0  0  0  0
  7 10  1  0  0  0  0
  8  9  2  0  0  0  0
 10 12  2  0  0  0  0
 11 24  1  0  0  0  0
 11 28  2  0  0  0  0
 12 13  1  0  0  0  0
 12 17  1  0  0  0  0
 13 14  2  0  0  0  0
 14 15  1  0  0  0  0
 15 16  1  0  0  0  0
 15 18  1  0  0  0  0
 16 17  2  0  0  0  0
 18 19  2  0  0  0  0
 18 22  1  0  0  0  0
 19 20  1  0  0  0  0
 20 21  1  0  0  0  0
 20 23  1  0  0  0  0
 21 22  2  0  0  0  0
 24 25  1  0  0  0  0
 25 26  2  0  0  0  0
 26 27  1  0  0  0  0
 27 28  1  0  0  0  0
 27 29  2  0  0  0  0
  2 30  1  0  0  0  0
  2 31  1  0  0  0  0
  3 32  1  0  0  0  0
  4 33  1  0  0  0  0
 10 34  1  0  0  0  0
 13 35  1  0  0  0  0
 14 36  1  0  0  0  0
 15 37  1  0  0  0  0
 16 38  1  0  0  0  0
 17 39  1  0  0  0  0
 19 40  1  0  0  0  0
 22 41  1  0  0  0  0
 23 42  1  0  0  0  0
 23 43  1  0  0  0  0
 23 44  1  0  0  0  0
 24 45  1  0  0  0  0
 25 46  1  0  0  0  0
 26 47  1  0  0  0  0
 28 48  1  0  0  0  0
 29 49  1  0  0  0  0
M  END
> <Name>
23

> <IC50[uM]>
0.27

$$$$
23
  -OEChem-05192314333D
 Structure written by MMmdl.
 49 53  0     0  0  0  0  0  0999 V2000
   -6.3775   12.3296  -12.0018 C   0  0  0  0  0  0  0  0  0  0  0  0
   -6.5098   11.7629  -10.7403 C   0  0  0  0  0  0  0  0  0  0  0  0
   -7.7247   10.5660  -13.0266 C   0  0  0  0  0  0  0  0  0  0  0  0
   -6.9942   11.7487  -13.1193 C   0  0  0  0  0  0  0  0  0  0  0  0
   -7.8312   10.0057  -11.7538 C   0  0  0  0  0  0  0  0  0  0  0  0
   -7.2443   10.6021  -10.6070 C   0  0  0  0  0  0  0  0  0  0  0  0
   -7.6167    9.7449   -9.5151 C   0  0  0  0  0  0  0  0  0  0  0  0
   -8.2961    8.7374   -9.9786 N   0  0  0  0  0  0  0  0  0  0  0  0
   -8.4404    8.8724  -11.2937 N   0  0  0  0  0  0  0  0  0  0  0  0
   -7.3318    9.8946   -8.0252 C   0  0  0  0  0  0  0  0  0  0  0  0
   -5.5478   13.5112  -12.1572 C   0  0  0  0  0  0  0  0  0  0  0  0
   -5.9707   10.4870   -7.7351 C   0  0  0  0  0  0  0  0  0  0  0  0
   -5.8642   11.7588   -7.1694 C   0  0  0  0  0  0  0  0  0  0  0  0
   -4.6019   12.3141   -6.9186 C   0  0  0  0  0  0  0  0  0  0  0  0
   -3.4503   11.5963   -7.2357 C   0  0  0  0  0  0  0  0  0  0  0  0
   -3.5604   10.3220   -7.8000 C   0  0  0  0  0  0  0  0  0  0  0  0
   -4.8213    9.7719   -8.0443 C   0  0  0  0  0  0  0  0  0  0  0  0
   -2.0996   12.1710   -6.9757 C   0  0  0  0  0  0  0  0  0  0  0  0
   -1.7487   13.4240   -6.4767 C   0  0  0  0  0  0  0  0  0  0  0  0
   -0.4123   13.4674   -6.4260 N   0  0  0  0  0  0  0  0  0  0  0  0
    0.1713   12.3664   -6.8217 N   0  0  0  0  0  0  0  0  0  0  0  0
   -0.8093   11.5624   -7.1930 C   0  0  0  0  0  0  0  0  0  0  0  0
    0.4224   14.5657   -5.9816 C   0  0  0  0  0  0  0  0  0  0  0  0
   -5.6966   14.2423  -13.2612 N   0  0  0  0  0  0  0  0  0  0  0  0
   -4.9506   15.3153  -13.5405 C   0  0  0  0  0  0  0  0  0  0  0  0
   -3.9383   15.6899  -12.6782 C   0  0  0  0  0  0  0  0  0  0  0  0
   -3.7261   14.9536  -11.5366 C   0  0  0  0  0  0  0  0  0  0  0  0
   -4.5508   13.8769  -11.2437 C   0  0  0  0  0  0  0  0  0  0  0  0
   -2.6976   15.2614  -10.7139 N   0  0  0  0  0  0  0  0  0  0  0  0
   -5.4950   11.5473  -10.3746 H   0  0  0  0  0  0  0  0  0  0  0  0
   -6.9796   12.5188  -10.0939 H   0  0  0  0  0  0  0  0  0  0  0  0
   -8.1826   10.1089  -13.8914 H   0  0  0  0  0  0  0  0  0  0  0  0
   -6.9001   12.2325  -14.0803 H   0  0  0  0  0  0  0  0  0  0  0  0
   -8.0313    9.6067   -7.2544 H   0  0  0  0  0  0  0  0  0  0  0  0
   -6.7563   12.3160   -6.9245 H   0  0  0  0  0  0  0  0  0  0  0  0
   -4.5218   13.2977   -6.4798 H   0  0  0  0  0  0  0  0  0  0  0  0
   -2.6703    9.7625   -8.0472 H   0  0  0  0  0  0  0  0  0  0  0  0
   -4.8715    8.8319   -7.4752 H   0  0  0  0  0  0  0  0  0  0  0  0
   -4.8665    9.5515   -9.1210 H   0  0  0  0  0  0  0  0  0  0  0  0
   -2.4277   14.2118   -6.1857 H   0  0  0  0  0  0  0  0  0  0  0  0
   -0.6637   10.5754   -7.6065 H   0  0  0  0  0  0  0  0  0  0  0  0
    1.4809   14.2752   -6.0543 H   0  0  0  0  0  0  0  0  0  0  0  0
    0.2393   15.4453   -6.6162 H   0  0  0  0  0  0  0  0  0  0  0  0
    0.1804   14.8105   -4.9369 H   0  0  0  0  0  0  0  0  0  0  0  0
   -6.4038   13.9739  -13.9153 H   0  0  0  0  0  0  0  0  0  0  0  0
   -5.1384   15.8875  -14.4370 H   0  0  0  0  0  0  0  0  0  0  0  0
   -3.3221   16.5493  -12.8978 H   0  0  0  0  0  0  0  0  0  0  0  0
   -4.4255   13.3274  -10.3224 H   0  0  0  0  0  0  0  0  0  0  0  0
   -2.6419   14.6376   -9.9343 H   0  0  0  0  0  0  0  0  0  0  0  0
  1  2  1  0  0  0  0
  1  4  2  0  0  0  0
  1 11  1  0  0  0  0
  2  6  1  0  0  0  0
  3  4  1  0  0  0  0
  3  5  2  0  0  0  0
  5  6  1  0  0  0  0
  5  9  1  0  0  0  0
  6  7  2  0  0  0  0
  7  8  1  0  0  0  0
  7 10  1  0  0  0  0
  8  9  2  0  0  0  0
 10 12  2  3  0  0  0
 11 24  1  0  0  0  0
 11 28  2  0  0  0  0
 12 13  1  0  0  0  0
 12 17  1  0  0  0  0
 13 14  2  0  0  0  0
 14 15  1  0  0  0  0
 15 16  2  0  0  0  0
 15 18  1  0  0  0  0
 16 17  1  0  0  0  0
 18 19  2  0  0  0  0
 18 22  1  0  0  0  0
 19 20  1  0  0  0  0
 20 21  1  0  0  0  0
 20 23  1  0  0  0  0
 21 22  2  0  0  0  0
 24 25  1  0  0  0  0
 25 26  2  0  0  0  0
 26 27  1  0  0  0  0
 27 28  1  0  0  0  0
 27 29  2  0  0  0  0
  2 30  1  0  0  0  0
  2 31  1  0  0  0  0
  3 32  1  0  0  0  0
  4 33  1  0  0  0  0
 10 34  1  0  0  0  0
 13 35  1  0  0  0  0
 14 36  1  0  0  0  0
 16 37  1  0  0  0  0
 17 38  1  0  0  0  0
 17 39  1  0  0  0  0
 19 40  1  0  0  0  0
 22 41  1  0  0  0  0
 23 42  1  0  0  0  0
 23 43  1  0  0  0  0
 23 44  1  0  0  0  0
 24 45  1  0  0  0  0
 25 46  1  0  0  0  0
 26 47  1  0  0  0  0
 28 48  1  0  0  0  0
 29 49  1  0  0  0  0
M  END
> <Name>
23

> <IC50[uM]>
0.27

$$$$
23
  -OEChem-05192314333D
 Structure written by MMmdl.
 49 53  0     1  0  0  0  0  0999 V2000
   -6.3775   12.3296  -12.0018 C   0  0  0  0  0  0  0  0  0  0  0  0
   -6.5098   11.7629  -10.7403 C   0  0  0  0  0  0  0  0  0  0  0  0
   -7.7247   10.5660  -13.0266 C   0  0  0  0  0  0  0  0  0  0  0  0
   -6.9942   11.7487  -13.1193 C   0  0  0  0  0  0  0  0  0  0  0  0
   -7.8312   10.0057  -11.7538 C   0  0  0  0  0  0  0  0  0  0  0  0
   -7.2443   10.6021  -10.6070 C   0  0  0  0  0  0  0  0  0  0  0  0
   -7.6167    9.7449   -9.5151 C   0  0  0  0  0  0  0  0  0  0  0  0
   -8.2961    8.7374   -9.9786 N   0  0  0  0  0  0  0  0  0  0  0  0
   -8.4404    8.8724  -11.2937 N   0  0  0  0  0  0  0  0  0  0  0  0
   -7.3318    9.8946   -8.0252 C   0  0  0  0  0  0  0  0  0  0  0  0
   -5.5478   13.5112  -12.1572 C   0  0  0  0  0  0  0  0  0  0  0  0
   -5.9707   10.4870   -7.7351 C   0  0  0  0  0  0  0  0  0  0  0  0
   -5.8642   11.7588   -7.1694 C   0  0  0  0  0  0  0  0  0  0  0  0
   -4.6019   12.3141   -6.9186 C   0  0  0  0  0  0  0  0  0  0  0  0
   -3.4503   11.5963   -7.2357 C   0  0  0  0  0  0  0  0  0  0  0  0
   -3.5604   10.3220   -7.8000 C   0  0  0  0  0  0  0  0  0  0  0  0
   -4.8213    9.7719   -8.0443 C   0  0  0  0  0  0  0  0  0  0  0  0
   -2.0996   12.1710   -6.9757 C   0  0  0  0  0  0  0  0  0  0  0  0
   -1.7487   13.4240   -6.4767 C   0  0  0  0  0  0  0  0  0  0  0  0
   -0.4123   13.4674   -6.4260 N   0  0  3  0  0  0  0  0  0  0  0  0
    0.1713   12.3664   -6.8217 N   0  0  0  0  0  0  0  0  0  0  0  0
   -0.8093   11.5624   -7.1930 C   0  0  0  0  0  0  0  0  0  0  0  0
    0.4224   14.5657   -5.9816 C   0  0  0  0  0  0  0  0  0  0  0  0
   -5.6966   14.2423  -13.2612 N   0  0  0  0  0  0  0  0  0  0  0  0
   -4.9506   15.3153  -13.5405 C   0  0  0  0  0  0  0  0  0  0  0  0
   -3.9383   15.6899  -12.6782 C   0  0  0  0  0  0  0  0  0  0  0  0
   -3.7261   14.9536  -11.5366 C   0  0  0  0  0  0  0  0  0  0  0  0
   -4.5508   13.8769  -11.2437 C   0  0  0  0  0  0  0  0  0  0  0  0
   -2.6976   15.2614  -10.7139 N   0  0  0  0  0  0  0  0  0  0  0  0
   -6.0464   12.2223   -9.8797 H   0  0  0  0  0  0  0  0  0  0  0  0
   -8.1826   10.1089  -13.8914 H   0  0  0  0  0  0  0  0  0  0  0  0
   -6.9001   12.2325  -14.0803 H   0  0  0  0  0  0  0  0  0  0  0  0
   -8.0313    9.6067   -7.2544 H   0  0  0  0  0  0  0  0  0  0  0  0
   -5.9850   10.0375   -6.7313 H   0  0  0  0  0  0  0  0  0  0  0  0
   -6.7563   12.3160   -6.9245 H   0  0  0  0  0  0  0  0  0  0  0  0
   -4.5218   13.2977   -6.4798 H   0  0  0  0  0  0  0  0  0  0  0  0
   -2.6703    9.7625   -8.0472 H   0  0  0  0  0  0  0  0  0  0  0  0
   -4.9024    8.7852   -8.4759 H   0  0  0  0  0  0  0  0  0  0  0  0
   -2.1269   14.2144   -7.1418 H   0  0  0  0  0  0  0  0  0  0  0  0
   -2.1691   13.5602   -5.4694 H   0  0  0  0  0  0  0  0  0  0  0  0
   -0.6637   10.5754   -7.6065 H   0  0  0  0  0  0  0  0  0  0  0  0
    1.4809   14.2752   -6.0543 H   0  0  0  0  0  0  0  0  0  0  0  0
    0.2393   15.4453   -6.6162 H   0  0  0  0  0  0  0  0  0  0  0  0
    0.1804   14.8105   -4.9369 H   0  0  0  0  0  0  0  0  0  0  0  0
   -5.1384   15.8875  -14.4370 H   0  0  0  0  0  0  0  0  0  0  0  0
   -3.0010   15.6690  -13.2536 H   0  0  0  0  0  0  0  0  0  0  0  0
   -4.1509   16.7215  -12.3610 H   0  0  0  0  0  0  0  0  0  0  0  0
   -4.4255   13.3274  -10.3224 H   0  0  0  0  0  0  0  0  0  0  0  0
   -2.6419   14.6376   -9.9343 H   0  0  0  0  0  0  0  0  0  0  0  0
  1  2  2  0  0  0  0
  1  4  1  0  0  0  0
  1 11  1  0  0  0  0
  2  6  1  0  0  0  0
  3  4  2  0  0  0  0
  3  5  1  0  0  0  0
  5  6  2  0  0  0  0
  5  9  1  0  0  0  0
  6  7  1  0  0  0  0
  7  8  1  0  0  0  0
  7 10  2  3  0  0  0
  8  9  2  0  0  0  0
 10 12  1  0  0  0  0
 11 24  1  0  0  0  0
 11 28  2  0  0  0  0
 12 13  1  0  0  0  0
 12 17  1  0  0  0  0
 13 14  2  0  0  0  0
 14 15  1  0  0  0  0
 15 16  1  0  0  0  0
 15 18  2  0  0  0  0
 16 17  2  0  0  0  0
 18 19  1  0  0  0  0
 18 22  1  0  0  0  0
 19 20  1  0  0  0  0
 20 21  1  0  0  0  0
 20 23  1  0  0  0  0
 21 22  2  0  0  0  0
 24 25  2  0  0  0  0
 25 26  1  0  0  0  0
 26 27  1  0  0  0  0
 27 28  1  0  0  0  0
 27 29  2  0  0  0  0
  2 30  1  0  0  0  0
  3 31  1  0  0  0  0
  4 32  1  0  0  0  0
 10 33  1  0  0  0  0
 12 34  1  0  0  0  0
 13 35  1  0  0  0  0
 14 36  1  0  0  0  0
 16 37  1  0  0  0  0
 17 38  1  0  0  0  0
 19 39  1  0  0  0  0
 19 40  1  0  0  0  0
 22 41  1  0  0  0  0
 23 42  1  0  0  0  0
 23 43  1  0  0  0  0
 23 44  1  0  0  0  0
 25 45  1  0  0  0  0
 26 46  1  0  0  0  0
 26 47  1  0  0  0  0
 28 48  1  0  0  0  0
 29 49  1  0  0  0  0
M  END
> <Name>
23

> <IC50[uM]>
0.27

$$$$
23
  -OEChem-05192314333D
 Structure written by MMmdl.
 49 53  0     1  0  0  0  0  0999 V2000
   -6.3775   12.3296  -12.0018 C   0  0  0  0  0  0  0  0  0  0  0  0
   -6.5098   11.7629  -10.7403 C   0  0  0  0  0  0  0  0  0  0  0  0
   -7.7247   10.5660  -13.0266 C   0  0  0  0  0  0  0  0  0  0  0  0
   -6.9942   11.7487  -13.1193 C   0  0  0  0  0  0  0  0  0  0  0  0
   -7.8312   10.0057  -11.7538 C   0  0  0  0  0  0  0  0  0  0  0  0
   -7.2443   10.6021  -10.6070 C   0  0  0  0  0  0  0  0  0  0  0  0
   -7.6167    9.7449   -9.5151 C   0  0  0  0  0  0  0  0  0  0  0  0
   -8.2961    8.7374   -9.9786 N   0  0  0  0  0  0  0  0  0  0  0  0
   -8.4404    8.8724  -11.2937 N   0  0  0  0  0  0  0  0  0  0  0  0
   -7.3318    9.8946   -8.0252 C   0  0  0  0  0  0  0  0  0  0  0  0
   -5.5478   13.5112  -12.1572 C   0  0  0  0  0  0  0  0  0  0  0  0
   -5.9707   10.4870   -7.7351 C   0  0  0  0  0  0  0  0  0  0  0  0
   -5.8642   11.7588   -7.1694 C   0  0  0  0  0  0  0  0  0  0  0  0
   -4.6019   12.3141   -6.9186 C   0  0  0  0  0  0  0  0  0  0  0  0
   -3.4503   11.5963   -7.2357 C   0  0  0  0  0  0  0  0  0  0  0  0
   -3.5604   10.3220   -7.8000 C   0  0  0  0  0  0  0  0  0  0  0  0
   -4.8213    9.7719   -8.0443 C   0  0  0  0  0  0  0  0  0  0  0  0
   -2.0996   12.1710   -6.9757 C   0  0  0  0  0  0  0  0  0  0  0  0
   -1.7487   13.4240   -6.4767 C   0  0  0  0  0  0  0  0  0  0  0  0
   -0.4123   13.4674   -6.4260 N   0  0  3  0  0  0  0  0  0  0  0  0
    0.1713   12.3664   -6.8217 N   0  0  0  0  0  0  0  0  0  0  0  0
   -0.8093   11.5624   -7.1930 C   0  0  0  0  0  0  0  0  0  0  0  0
    0.4224   14.5657   -5.9816 C   0  0  0  0  0  0  0  0  0  0  0  0
   -5.6966   14.2423  -13.2612 N   0  0  0  0  0  0  0  0  0  0  0  0
   -4.9506   15.3153  -13.5405 C   0  0  0  0  0  0  0  0  0  0  0  0
   -3.9383   15.6899  -12.6782 C   0  0  0  0  0  0  0  0  0  0  0  0
   -3.7261   14.9536  -11.5366 C   0  0  0  0  0  0  0  0  0  0  0  0
   -4.5508   13.8769  -11.2437 C   0  0  0  0  0  0  0  0  0  0  0  0
   -2.6976   15.2614  -10.7139 N   0  0  0  0  0  0  0  0  0  0  0  0
   -6.0464   12.2223   -9.8797 H   0  0  0  0  0  0  0  0  0  0  0  0
   -8.1826   10.1089  -13.8914 H   0  0  0  0  0  0  0  0  0  0  0  0
   -6.9001   12.2325  -14.0803 H   0  0  0  0  0  0  0  0  0  0  0  0
   -8.0313    9.6067   -7.2544 H   0  0  0  0  0  0  0  0  0  0  0  0
   -6.7563   12.3160   -6.9245 H   0  0  0  0  0  0  0  0  0  0  0  0
   -4.5527   13.2582   -7.4809 H   0  0  0  0  0  0  0  0  0  0  0  0
   -4.5569   12.5268   -5.8403 H   0  0  0  0  0  0  0  0  0  0  0  0
   -2.6703    9.7625   -8.0472 H   0  0  0  0  0  0  0  0  0  0  0  0
   -4.9024    8.7852   -8.4759 H   0  0  0  0  0  0  0  0  0  0  0  0
   -2.1269   14.2144   -7.1418 H   0  0  0  0  0  0  0  0  0  0  0  0
   -2.1691   13.5602   -5.4694 H   0  0  0  0  0  0  0  0  0  0  0  0
   -0.6637   10.5754   -7.6065 H   0  0  0  0  0  0  0  0  0  0  0  0
    1.4809   14.2752   -6.0543 H   0  0  0  0  0  0  0  0  0  0  0  0
    0.2393   15.4453   -6.6162 H   0  0  0  0  0  0  0  0  0  0  0  0
    0.1804   14.8105   -4.9369 H   0  0  0  0  0  0  0  0  0  0  0  0
   -5.1384   15.8875  -14.4370 H   0  0  0  0  0  0  0  0  0  0  0  0
   -3.0010   15.6690  -13.2536 H   0  0  0  0  0  0  0  0  0  0  0  0
   -4.1509   16.7215  -12.3610 H   0  0  0  0  0  0  0  0  0  0  0  0
   -4.4255   13.3274  -10.3224 H   0  0  0  0  0  0  0  0  0  0  0  0
   -2.6419   14.6376   -9.9343 H   0  0  0  0  0  0  0  0  0  0  0  0
  1  2  2  0  0  0  0
  1  4  1  0  0  0  0
  1 11  1  0  0  0  0
  2  6  1  0  0  0  0
  3  4  2  0  0  0  0
  3  5  1  0  0  0  0
  5  6  2  0  0  0  0
  5  9  1  0  0  0  0
  6  7  1  0  0  0  0
  7  8  1  0  0  0  0
  7 10  2  3  0  0  0
  8  9  2  0  0  0  0
 10 12  1  0  0  0  0
 11 24  1  0  0  0  0
 11 28  2  0  0  0  0
 12 13  2  0  0  0  0
 12 17  1  0  0  0  0
 13 14  1  0  0  0  0
 14 15  1  0  0  0  0
 15 16  1  0  0  0  0
 15 18  2  0  0  0  0
 16 17  2  0  0  0  0
 18 19  1  0  0  0  0
 18 22  1  0  0  0  0
 19 20  1  0  0  0  0
 20 21  1  0  0  0  0
 20 23  1  0  0  0  0
 21 22  2  0  0  0  0
 24 25  2  0  0  0  0
 25 26  1  0  0  0  0
 26 27  1  0  0  0  0
 27 28  1  0  0  0  0
 27 29  2  0  0  0  0
  2 30  1  0  0  0  0
  3 31  1  0  0  0  0
  4 32  1  0  0  0  0
 10 33  1  0  0  0  0
 13 34  1  0  0  0  0
 14 35  1  0  0  0  0
 14 36  1  0  0  0  0
 16 37  1  0  0  0  0
 17 38  1  0  0  0  0
 19 39  1  0  0  0  0
 19 40  1  0  0  0  0
 22 41  1  0  0  0  0
 23 42  1  0  0  0  0
 23 43  1  0  0  0  0
 23 44  1  0  0  0  0
 25 45  1  0  0  0  0
 26 46  1  0  0  0  0
 26 47  1  0  0  0  0
 28 48  1  0  0  0  0
 29 49  1  0  0  0  0
M  END
> <Name>
23

> <IC50[uM]>
0.27

$$$$
23
  -OEChem-05192314333D
 Structure written by MMmdl.
 49 53  0     1  0  0  0  0  0999 V2000
   -6.3775   12.3296  -12.0018 C   0  0  0  0  0  0  0  0  0  0  0  0
   -6.5098   11.7629  -10.7403 C   0  0  0  0  0  0  0  0  0  0  0  0
   -7.7247   10.5660  -13.0266 C   0  0  0  0  0  0  0  0  0  0  0  0
   -6.9942   11.7487  -13.1193 C   0  0  0  0  0  0  0  0  0  0  0  0
   -7.8312   10.0057  -11.7538 C   0  0  0  0  0  0  0  0  0  0  0  0
   -7.2443   10.6021  -10.6070 C   0  0  0  0  0  0  0  0  0  0  0  0
   -7.6167    9.7449   -9.5151 C   0  0  0  0  0  0  0  0  0  0  0  0
   -8.2961    8.7374   -9.9786 N   0  0  0  0  0  0  0  0  0  0  0  0
   -8.4404    8.8724  -11.2937 N   0  0  0  0  0  0  0  0  0  0  0  0
   -7.3318    9.8946   -8.0252 C   0  0  0  0  0  0  0  0  0  0  0  0
   -5.5478   13.5112  -12.1572 C   0  0  0  0  0  0  0  0  0  0  0  0
   -5.9707   10.4870   -7.7351 C   0  0  0  0  0  0  0  0  0  0  0  0
   -5.8642   11.7588   -7.1694 C   0  0  0  0  0  0  0  0  0  0  0  0
   -4.6019   12.3141   -6.9186 C   0  0  0  0  0  0  0  0  0  0  0  0
   -3.4503   11.5963   -7.2357 C   0  0  0  0  0  0  0  0  0  0  0  0
   -3.5604   10.3220   -7.8000 C   0  0  0  0  0  0  0  0  0  0  0  0
   -4.8213    9.7719   -8.0443 C   0  0  0  0  0  0  0  0  0  0  0  0
   -2.0996   12.1710   -6.9757 C   0  0  0  0  0  0  0  0  0  0  0  0
   -1.7487   13.4240   -6.4767 C   0  0  0  0  0  0  0  0  0  0  0  0
   -0.4123   13.4674   -6.4260 N   0  0  3  0  0  0  0  0  0  0  0  0
    0.1713   12.3664   -6.8217 N   0  0  0  0  0  0  0  0  0  0  0  0
   -0.8093   11.5624   -7.1930 C   0  0  0  0  0  0  0  0  0  0  0  0
    0.4224   14.5657   -5.9816 C   0  0  0  0  0  0  0  0  0  0  0  0
   -5.6966   14.2423  -13.2612 N   0  0  0  0  0  0  0  0  0  0  0  0
   -4.9506   15.3153  -13.5405 C   0  0  0  0  0  0  0  0  0  0  0  0
   -3.9383   15.6899  -12.6782 C   0  0  0  0  0  0  0  0  0  0  0  0
   -3.7261   14.9536  -11.5366 C   0  0  0  0  0  0  0  0  0  0  0  0
   -4.5508   13.8769  -11.2437 C   0  0  0  0  0  0  0  0  0  0  0  0
   -2.6976   15.2614  -10.7139 N   0  0  0  0  0  0  0  0  0  0  0  0
   -6.0464   12.2223   -9.8797 H   0  0  0  0  0  0  0  0  0  0  0  0
   -8.1826   10.1089  -13.8914 H   0  0  0  0  0  0  0  0  0  0  0  0
   -6.9001   12.2325  -14.0803 H   0  0  0  0  0  0  0  0  0  0  0  0
   -8.0313    9.6067   -7.2544 H   0  0  0  0  0  0  0  0  0  0  0  0
   -5.9850   10.0375   -6.7313 H   0  0  0  0  0  0  0  0  0  0  0  0
   -6.7563   12.3160   -6.9245 H   0  0  0  0  0  0  0  0  0  0  0  0
   -4.5218   13.2977   -6.4798 H   0  0  0  0  0  0  0  0  0  0  0  0
   -2.6703    9.7625   -8.0472 H   0  0  0  0  0  0  0  0  0  0  0  0
   -4.9024    8.7852   -8.4759 H   0  0  0  0  0  0  0  0  0  0  0  0
   -2.1269   14.2144   -7.1418 H   0  0  0  0  0  0  0  0  0  0  0  0
   -2.1691   13.5602   -5.4694 H   0  0  0  0  0  0  0  0  0  0  0  0
   -0.6637   10.5754   -7.6065 H   0  0  0  0  0  0  0  0  0  0  0  0
    1.4809   14.2752   -6.0543 H   0  0  0  0  0  0  0  0  0  0  0  0
    0.2393   15.4453   -6.6162 H   0  0  0  0  0  0  0  0  0  0  0  0
    0.1804   14.8105   -4.9369 H   0  0  0  0  0  0  0  0  0  0  0  0
   -5.1384   15.8875  -14.4370 H   0  0  0  0  0  0  0  0  0  0  0  0
   -3.3221   16.5493  -12.8978 H   0  0  0  0  0  0  0  0  0  0  0  0
   -5.0546   14.1072  -10.2933 H   0  0  0  0  0  0  0  0  0  0  0  0
   -3.8997   13.0003  -11.1106 H   0  0  0  0  0  0  0  0  0  0  0  0
   -2.6419   14.6376   -9.9343 H   0  0  0  0  0  0  0  0  0  0  0  0
  1  2  2  0  0  0  0
  1  4  1  0  0  0  0
  1 11  1  0  0  0  0
  2  6  1  0  0  0  0
  3  4  2  0  0  0  0
  3  5  1  0  0  0  0
  5  6  2  0  0  0  0
  5  9  1  0  0  0  0
  6  7  1  0  0  0  0
  7  8  1  0  0  0  0
  7 10  2  3  0  0  0
  8  9  2  0  0  0  0
 10 12  1  0  0  0  0
 11 24  2  0  0  0  0
 11 28  1  0  0  0  0
 12 13  1  0  0  0  0
 12 17  1  0  0  0  0
 13 14  2  0  0  0  0
 14 15  1  0  0  0  0
 15 16  1  0  0  0  0
 15 18  2  0  0  0  0
 16 17  2  0  0  0  0
 18 19  1  0  0  0  0
 18 22  1  0  0  0  0
 19 20  1  0  0  0  0
 20 21  1  0  0  0  0
 20 23  1  0  0  0  0
 21 22  2  0  0  0  0
 24 25  1  0  0  0  0
 25 26  2  0  0  0  0
 26 27  1  0  0  0  0
 27 28  1  0  0  0  0
 27 29  2  0  0  0  0
  2 30  1  0  0  0  0
  3 31  1  0  0  0  0
  4 32  1  0  0  0  0
 10 33  1  0  0  0  0
 12 34  1  0  0  0  0
 13 35  1  0  0  0  0
 14 36  1  0  0  0  0
 16 37  1  0  0  0  0
 17 38  1  0  0  0  0
 19 39  1  0  0  0  0
 19 40  1  0  0  0  0
 22 41  1  0  0  0  0
 23 42  1  0  0  0  0
 23 43  1  0  0  0  0
 23 44  1  0  0  0  0
 25 45  1  0  0  0  0
 26 46  1  0  0  0  0
 28 47  1  0  0  0  0
 28 48  1  0  0  0  0
 29 49  1  0  0  0  0
M  END
> <Name>
23

> <IC50[uM]>
0.27

$$$$
23
  -OEChem-05192314333D
 Structure written by MMmdl.
 49 53  0     1  0  0  0  0  0999 V2000
   -6.3775   12.3296  -12.0018 C   0  0  0  0  0  0  0  0  0  0  0  0
   -6.5098   11.7629  -10.7403 C   0  0  0  0  0  0  0  0  0  0  0  0
   -7.7247   10.5660  -13.0266 C   0  0  0  0  0  0  0  0  0  0  0  0
   -6.9942   11.7487  -13.1193 C   0  0  0  0  0  0  0  0  0  0  0  0
   -7.8312   10.0057  -11.7538 C   0  0  0  0  0  0  0  0  0  0  0  0
   -7.2443   10.6021  -10.6070 C   0  0  0  0  0  0  0  0  0  0  0  0
   -7.6167    9.7449   -9.5151 C   0  0  0  0  0  0  0  0  0  0  0  0
   -8.2961    8.7374   -9.9786 N   0  0  0  0  0  0  0  0  0  0  0  0
   -8.4404    8.8724  -11.2937 N   0  0  0  0  0  0  0  0  0  0  0  0
   -7.3318    9.8946   -8.0252 C   0  0  0  0  0  0  0  0  0  0  0  0
   -5.5478   13.5112  -12.1572 C   0  0  0  0  0  0  0  0  0  0  0  0
   -5.9707   10.4870   -7.7351 C   0  0  0  0  0  0  0  0  0  0  0  0
   -5.8642   11.7588   -7.1694 C   0  0  0  0  0  0  0  0  0  0  0  0
   -4.6019   12.3141   -6.9186 C   0  0  0  0  0  0  0  0  0  0  0  0
   -3.4503   11.5963   -7.2357 C   0  0  0  0  0  0  0  0  0  0  0  0
   -3.5604   10.3220   -7.8000 C   0  0  0  0  0  0  0  0  0  0  0  0
   -4.8213    9.7719   -8.0443 C   0  0  0  0  0  0  0  0  0  0  0  0
   -2.0996   12.1710   -6.9757 C   0  0  0  0  0  0  0  0  0  0  0  0
   -1.7487   13.4240   -6.4767 C   0  0  0  0  0  0  0  0  0  0  0  0
   -0.4123   13.4674   -6.4260 N   0  0  3  0  0  0  0  0  0  0  0  0
    0.1713   12.3664   -6.8217 N   0  0  0  0  0  0  0  0  0  0  0  0
   -0.8093   11.5624   -7.1930 C   0  0  0  0  0  0  0  0  0  0  0  0
    0.4224   14.5657   -5.9816 C   0  0  0  0  0  0  0  0  0  0  0  0
   -5.6966   14.2423  -13.2612 N   0  0  0  0  0  0  0  0  0  0  0  0
   -4.9506   15.3153  -13.5405 C   0  0  0  0  0  0  0  0  0  0  0  0
   -3.9383   15.6899  -12.6782 C   0  0  0  0  0  0  0  0  0  0  0  0
   -3.7261   14.9536  -11.5366 C   0  0  0  0  0  0  0  0  0  0  0  0
   -4.5508   13.8769  -11.2437 C   0  0  0  0  0  0  0  0  0  0  0  0
   -2.6976   15.2614  -10.7139 N   0  0  0  0  0  0  0  0  0  0  0  0
   -6.0464   12.2223   -9.8797 H   0  0  0  0  0  0  0  0  0  0  0  0
   -8.1826   10.1089  -13.8914 H   0  0  0  0  0  0  0  0  0  0  0  0
   -6.9001   12.2325  -14.0803 H   0  0  0  0  0  0  0  0  0  0  0  0
   -8.0313    9.6067   -7.2544 H   0  0  0  0  0  0  0  0  0  0  0  0
   -6.7563   12.3160   -6.9245 H   0  0  0  0  0  0  0  0  0  0  0  0
   -4.5527   13.2582   -7.4809 H   0  0  0  0  0  0  0  0  0  0  0  0
   -4.5569   12.5268   -5.8403 H   0  0  0  0  0  0  0  0  0  0  0  0
   -2.6703    9.7625   -8.0472 H   0  0  0  0  0  0  0  0  0  0  0  0
   -4.9024    8.7852   -8.4759 H   0  0  0  0  0  0  0  0  0  0  0  0
   -2.1269   14.2144   -7.1418 H   0  0  0  0  0  0  0  0  0  0  0  0
   -2.1691   13.5602   -5.4694 H   0  0  0  0  0  0  0  0  0  0  0  0
   -0.6637   10.5754   -7.6065 H   0  0  0  0  0  0  0  0  0  0  0  0
    1.4809   14.2752   -6.0543 H   0  0  0  0  0  0  0  0  0  0  0  0
    0.2393   15.4453   -6.6162 H   0  0  0  0  0  0  0  0  0  0  0  0
    0.1804   14.8105   -4.9369 H   0  0  0  0  0  0  0  0  0  0  0  0
   -5.1384   15.8875  -14.4370 H   0  0  0  0  0  0  0  0  0  0  0  0
   -3.3221   16.5493  -12.8978 H   0  0  0  0  0  0  0  0  0  0  0  0
   -5.0546   14.1072  -10.2933 H   0  0  0  0  0  0  0  0  0  0  0  0
   -3.8997   13.0003  -11.1106 H   0  0  0  0  0  0  0  0  0  0  0  0
   -2.6419   14.6376   -9.9343 H   0  0  0  0  0  0  0  0  0  0  0  0
  1  2  2  0  0  0  0
  1  4  1  0  0  0  0
  1 11  1  0  0  0  0
  2  6  1  0  0  0  0
  3  4  2  0  0  0  0
  3  5  1  0  0  0  0
  5  6  2  0  0  0  0
  5  9  1  0  0  0  0
  6  7  1  0  0  0  0
  7  8  1  0  0  0  0
  7 10  2  3  0  0  0
  8  9  2  0  0  0  0
 10 12  1  0  0  0  0
 11 24  2  0  0  0  0
 11 28  1  0  0  0  0
 12 13  2  0  0  0  0
 12 17  1  0  0  0  0
 13 14  1  0  0  0  0
 14 15  1  0  0  0  0
 15 16  1  0  0  0  0
 15 18  2  0  0  0  0
 16 17  2  0  0  0  0
 18 19  1  0  0  0  0
 18 22  1  0  0  0  0
 19 20  1  0  0  0  0
 20 21  1  0  0  0  0
 20 23  1  0  0  0  0
 21 22  2  0  0  0  0
 24 25  1  0  0  0  0
 25 26  2  0  0  0  0
 26 27  1  0  0  0  0
 27 28  1  0  0  0  0
 27 29  2  0  0  0  0
  2 30  1  0  0  0  0
  3 31  1  0  0  0  0
  4 32  1  0  0  0  0
 10 33  1  0  0  0  0
 13 34  1  0  0  0  0
 14 35  1  0  0  0  0
 14 36  1  0  0  0  0
 16 37  1  0  0  0  0
 17 38  1  0  0  0  0
 19 39  1  0  0  0  0
 19 40  1  0  0  0  0
 22 41  1  0  0  0  0
 23 42  1  0  0  0  0
 23 43  1  0  0  0  0
 23 44  1  0  0  0  0
 25 45  1  0  0  0  0
 26 46  1  0  0  0  0
 28 47  1  0  0  0  0
 28 48  1  0  0  0  0
 29 49  1  0  0  0  0
M  END
> <Name>
23

> <IC50[uM]>
0.27

$$$$
23
  -OEChem-05192314333D
 Structure written by MMmdl.
 49 53  0     1  0  0  0  0  0999 V2000
   -6.3775   12.3296  -12.0018 C   0  0  3  0  0  0  0  0  0  0  0  0
   -6.5098   11.7629  -10.7403 C   0  0  0  0  0  0  0  0  0  0  0  0
   -7.7247   10.5660  -13.0266 C   0  0  0  0  0  0  0  0  0  0  0  0
   -6.9942   11.7487  -13.1193 C   0  0  0  0  0  0  0  0  0  0  0  0
   -7.8312   10.0057  -11.7538 C   0  0  0  0  0  0  0  0  0  0  0  0
   -7.2443   10.6021  -10.6070 C   0  0  0  0  0  0  0  0  0  0  0  0
   -7.6167    9.7449   -9.5151 C   0  0  0  0  0  0  0  0  0  0  0  0
   -8.2961    8.7374   -9.9786 N   0  0  0  0  0  0  0  0  0  0  0  0
   -8.4404    8.8724  -11.2937 N   0  0  0  0  0  0  0  0  0  0  0  0
   -7.3318    9.8946   -8.0252 C   0  0  0  0  0  0  0  0  0  0  0  0
   -5.5478   13.5112  -12.1572 C   0  0  0  0  0  0  0  0  0  0  0  0
   -5.9707   10.4870   -7.7351 C   0  0  0  0  0  0  0  0  0  0  0  0
   -5.8642   11.7588   -7.1694 C   0  0  0  0  0  0  0  0  0  0  0  0
   -4.6019   12.3141   -6.9186 C   0  0  0  0  0  0  0  0  0  0  0  0
   -3.4503   11.5963   -7.2357 C   0  0  0  0  0  0  0  0  0  0  0  0
   -3.5604   10.3220   -7.8000 C   0  0  0  0  0  0  0  0  0  0  0  0
   -4.8213    9.7719   -8.0443 C   0  0  0  0  0  0  0  0  0  0  0  0
   -2.0996   12.1710   -6.9757 C   0  0  0  0  0  0  0  0  0  0  0  0
   -1.7487   13.4240   -6.4767 C   0  0  0  0  0  0  0  0  0  0  0  0
   -0.4123   13.4674   -6.4260 N   0  0  3  0  0  0  0  0  0  0  0  0
    0.1713   12.3664   -6.8217 N   0  0  0  0  0  0  0  0  0  0  0  0
   -0.8093   11.5624   -7.1930 C   0  0  0  0  0  0  0  0  0  0  0  0
    0.4224   14.5657   -5.9816 C   0  0  0  0  0  0  0  0  0  0  0  0
   -5.6966   14.2423  -13.2612 N   0  0  0  0  0  0  0  0  0  0  0  0
   -4.9506   15.3153  -13.5405 C   0  0  0  0  0  0  0  0  0  0  0  0
   -3.9383   15.6899  -12.6782 C   0  0  0  0  0  0  0  0  0  0  0  0
   -3.7261   14.9536  -11.5366 C   0  0  0  0  0  0  0  0  0  0  0  0
   -4.5508   13.8769  -11.2437 C   0  0  0  0  0  0  0  0  0  0  0  0
   -2.6976   15.2614  -10.7139 N   0  0  0  0  0  0  0  0  0  0  0  0
   -7.2621   12.9592  -11.8254 H   0  0  0  0  0  0  0  0  0  0  0  0
   -6.0464   12.2223   -9.8797 H   0  0  0  0  0  0  0  0  0  0  0  0
   -8.1826   10.1089  -13.8914 H   0  0  0  0  0  0  0  0  0  0  0  0
   -6.9001   12.2325  -14.0803 H   0  0  0  0  0  0  0  0  0  0  0  0
   -8.0313    9.6067   -7.2544 H   0  0  0  0  0  0  0  0  0  0  0  0
   -6.7563   12.3160   -6.9245 H   0  0  0  0  0  0  0  0  0  0  0  0
   -4.5218   13.2977   -6.4798 H   0  0  0  0  0  0  0  0  0  0  0  0
   -2.6703    9.7625   -8.0472 H   0  0  0  0  0  0  0  0  0  0  0  0
   -4.9024    8.7852   -8.4759 H   0  0  0  0  0  0  0  0  0  0  0  0
   -2.1269   14.2144   -7.1418 H   0  0  0  0  0  0  0  0  0  0  0  0
   -2.1691   13.5602   -5.4694 H   0  0  0  0  0  0  0  0  0  0  0  0
   -0.6637   10.5754   -7.6065 H   0  0  0  0  0  0  0  0  0  0  0  0
    1.4809   14.2752   -6.0543 H   0  0  0  0  0  0  0  0  0  0  0  0
    0.2393   15.4453   -6.6162 H   0  0  0  0  0  0  0  0  0  0  0  0
    0.1804   14.8105   -4.9369 H   0  0  0  0  0  0  0  0  0  0  0  0
   -5.1384   15.8875  -14.4370 H   0  0  0  0  0  0  0  0  0  0  0  0
   -3.0010   15.6690  -13.2536 H   0  0  0  0  0  0  0  0  0  0  0  0
   -4.1509   16.7215  -12.3610 H   0  0  0  0  0  0  0  0  0  0  0  0
   -4.4255   13.3274  -10.3224 H   0  0  0  0  0  0  0  0  0  0  0  0
   -2.6419   14.6376   -9.9343 H   0  0  0  0  0  0  0  0  0  0  0  0
  1  2  1  0  0  0  0
  1  4  1  0  0  0  0
  1 11  1  0  0  0  0
  2  6  2  0  0  0  0
  3  4  2  0  0  0  0
  3  5  1  0  0  0  0
  5  6  1  0  0  0  0
  5  9  2  0  0  0  0
  6  7  1  0  0  0  0
  7  8  2  0  0  0  0
  7 10  1  0  0  0  0
  8  9  1  0  0  0  0
 10 12  2  0  0  0  0
 11 24  1  0  0  0  0
 11 28  2  0  0  0  0
 12 13  1  0  0  0  0
 12 17  1  0  0  0  0
 13 14  2  0  0  0  0
 14 15  1  0  0  0  0
 15 16  1  0  0  0  0
 15 18  2  0  0  0  0
 16 17  2  0  0  0  0
 18 19  1  0  0  0  0
 18 22  1  0  0  0  0
 19 20  1  0  0  0  0
 20 21  1  0  0  0  0
 20 23  1  0  0  0  0
 21 22  2  0  0  0  0
 24 25  2  0  0  0  0
 25 26  1  0  0  0  0
 26 27  1  0  0  0  0
 27 28  1  0  0  0  0
 27 29  2  0  0  0  0
  1 30  1  0  0  0  0
  2 31  1  0  0  0  0
  3 32  1  0  0  0  0
  4 33  1  0  0  0  0
 10 34  1  0  0  0  0
 13 35  1  0  0  0  0
 14 36  1  0  0  0  0
 16 37  1  0  0  0  0
 17 38  1  0  0  0  0
 19 39  1  0  0  0  0
 19 40  1  0  0  0  0
 22 41  1  0  0  0  0
 23 42  1  0  0  0  0
 23 43  1  0  0  0  0
 23 44  1  0  0  0  0
 25 45  1  0  0  0  0
 26 46  1  0  0  0  0
 26 47  1  0  0  0  0
 28 48  1  0  0  0  0
 29 49  1  0  0  0  0
M  END
> <Name>
23

> <IC50[uM]>
0.27

$$$$
23
  -OEChem-05192314333D
 Structure written by MMmdl.
 49 53  0     1  0  0  0  0  0999 V2000
   -6.3775   12.3296  -12.0018 C   0  0  0  0  0  0  0  0  0  0  0  0
   -6.5098   11.7629  -10.7403 C   0  0  0  0  0  0  0  0  0  0  0  0
   -7.7247   10.5660  -13.0266 C   0  0  0  0  0  0  0  0  0  0  0  0
   -6.9942   11.7487  -13.1193 C   0  0  0  0  0  0  0  0  0  0  0  0
   -7.8312   10.0057  -11.7538 C   0  0  0  0  0  0  0  0  0  0  0  0
   -7.2443   10.6021  -10.6070 C   0  0  3  0  0  0  0  0  0  0  0  0
   -7.6167    9.7449   -9.5151 C   0  0  0  0  0  0  0  0  0  0  0  0
   -8.2961    8.7374   -9.9786 N   0  0  0  0  0  0  0  0  0  0  0  0
   -8.4404    8.8724  -11.2937 N   0  0  0  0  0  0  0  0  0  0  0  0
   -7.3318    9.8946   -8.0252 C   0  0  0  0  0  0  0  0  0  0  0  0
   -5.5478   13.5112  -12.1572 C   0  0  0  0  0  0  0  0  0  0  0  0
   -5.9707   10.4870   -7.7351 C   0  0  0  0  0  0  0  0  0  0  0  0
   -5.8642   11.7588   -7.1694 C   0  0  0  0  0  0  0  0  0  0  0  0
   -4.6019   12.3141   -6.9186 C   0  0  0  0  0  0  0  0  0  0  0  0
   -3.4503   11.5963   -7.2357 C   0  0  0  0  0  0  0  0  0  0  0  0
   -3.5604   10.3220   -7.8000 C   0  0  0  0  0  0  0  0  0  0  0  0
   -4.8213    9.7719   -8.0443 C   0  0  0  0  0  0  0  0  0  0  0  0
   -2.0996   12.1710   -6.9757 C   0  0  0  0  0  0  0  0  0  0  0  0
   -1.7487   13.4240   -6.4767 C   0  0  0  0  0  0  0  0  0  0  0  0
   -0.4123   13.4674   -6.4260 N   0  0  3  0  0  0  0  0  0  0  0  0
    0.1713   12.3664   -6.8217 N   0  0  0  0  0  0  0  0  0  0  0  0
   -0.8093   11.5624   -7.1930 C   0  0  0  0  0  0  0  0  0  0  0  0
    0.4224   14.5657   -5.9816 C   0  0  0  0  0  0  0  0  0  0  0  0
   -5.6966   14.2423  -13.2612 N   0  0  0  0  0  0  0  0  0  0  0  0
   -4.9506   15.3153  -13.5405 C   0  0  0  0  0  0  0  0  0  0  0  0
   -3.9383   15.6899  -12.6782 C   0  0  0  0  0  0  0  0  0  0  0  0
   -3.7261   14.9536  -11.5366 C   0  0  0  0  0  0  0  0  0  0  0  0
   -4.5508   13.8769  -11.2437 C   0  0  0  0  0  0  0  0  0  0  0  0
   -2.6976   15.2614  -10.7139 N   0  0  0  0  0  0  0  0  0  0  0  0
   -6.0464   12.2223   -9.8797 H   0  0  0  0  0  0  0  0  0  0  0  0
   -8.1826   10.1089  -13.8914 H   0  0  0  0  0  0  0  0  0  0  0  0
   -6.9001   12.2325  -14.0803 H   0  0  0  0  0  0  0  0  0  0  0  0
   -6.3326   10.0069  -10.7637 H   0  0  0  0  0  0  0  0  0  0  0  0
   -8.0313    9.6067   -7.2544 H   0  0  0  0  0  0  0  0  0  0  0  0
   -6.7563   12.3160   -6.9245 H   0  0  0  0  0  0  0  0  0  0  0  0
   -4.5218   13.2977   -6.4798 H   0  0  0  0  0  0  0  0  0  0  0  0
   -2.6703    9.7625   -8.0472 H   0  0  0  0  0  0  0  0  0  0  0  0
   -4.9024    8.7852   -8.4759 H   0  0  0  0  0  0  0  0  0  0  0  0
   -2.1269   14.2144   -7.1418 H   0  0  0  0  0  0  0  0  0  0  0  0
   -2.1691   13.5602   -5.4694 H   0  0  0  0  0  0  0  0  0  0  0  0
   -0.6637   10.5754   -7.6065 H   0  0  0  0  0  0  0  0  0  0  0  0
    1.4809   14.2752   -6.0543 H   0  0  0  0  0  0  0  0  0  0  0  0
    0.2393   15.4453   -6.6162 H   0  0  0  0  0  0  0  0  0  0  0  0
    0.1804   14.8105   -4.9369 H   0  0  0  0  0  0  0  0  0  0  0  0
   -5.1384   15.8875  -14.4370 H   0  0  0  0  0  0  0  0  0  0  0  0
   -3.0010   15.6690  -13.2536 H   0  0  0  0  0  0  0  0  0  0  0  0
   -4.1509   16.7215  -12.3610 H   0  0  0  0  0  0  0  0  0  0  0  0
   -4.4255   13.3274  -10.3224 H   0  0  0  0  0  0  0  0  0  0  0  0
   -2.6419   14.6376   -9.9343 H   0  0  0  0  0  0  0  0  0  0  0  0
  1  2  2  0  0  0  0
  1  4  1  0  0  0  0
  1 11  1  0  0  0  0
  2  6  1  0  0  0  0
  3  4  2  0  0  0  0
  3  5  1  0  0  0  0
  5  6  1  0  0  0  0
  5  9  2  0  0  0  0
  6  7  1  0  0  0  0
  7  8  2  0  0  0  0
  7 10  1  0  0  0  0
  8  9  1  0  0  0  0
 10 12  2  0  0  0  0
 11 24  1  0  0  0  0
 11 28  2  0  0  0  0
 12 13  1  0  0  0  0
 12 17  1  0  0  0  0
 13 14  2  0  0  0  0
 14 15  1  0  0  0  0
 15 16  1  0  0  0  0
 15 18  2  0  0  0  0
 16 17  2  0  0  0  0
 18 19  1  0  0  0  0
 18 22  1  0  0  0  0
 19 20  1  0  0  0  0
 20 21  1  0  0  0  0
 20 23  1  0  0  0  0
 21 22  2  0  0  0  0
 24 25  2  0  0  0  0
 25 26  1  0  0  0  0
 26 27  1  0  0  0  0
 27 28  1  0  0  0  0
 27 29  2  0  0  0  0
  2 30  1  0  0  0  0
  3 31  1  0  0  0  0
  4 32  1  0  0  0  0
  6 33  1  0  0  0  0
 10 34  1  0  0  0  0
 13 35  1  0  0  0  0
 14 36  1  0  0  0  0
 16 37  1  0  0  0  0
 17 38  1  0  0  0  0
 19 39  1  0  0  0  0
 19 40  1  0  0  0  0
 22 41  1  0  0  0  0
 23 42  1  0  0  0  0
 23 43  1  0  0  0  0
 23 44  1  0  0  0  0
 25 45  1  0  0  0  0
 26 46  1  0  0  0  0
 26 47  1  0  0  0  0
 28 48  1  0  0  0  0
 29 49  1  0  0  0  0
M  END
> <Name>
23

> <IC50[uM]>
0.27

$$$$
23
  -OEChem-05192314333D
 Structure written by MMmdl.
 49 53  0     1  0  0  0  0  0999 V2000
   -6.3775   12.3296  -12.0018 C   0  0  0  0  0  0  0  0  0  0  0  0
   -6.5098   11.7629  -10.7403 C   0  0  0  0  0  0  0  0  0  0  0  0
   -7.7247   10.5660  -13.0266 C   0  0  0  0  0  0  0  0  0  0  0  0
   -6.9942   11.7487  -13.1193 C   0  0  0  0  0  0  0  0  0  0  0  0
   -7.8312   10.0057  -11.7538 C   0  0  0  0  0  0  0  0  0  0  0  0
   -7.2443   10.6021  -10.6070 C   0  0  0  0  0  0  0  0  0  0  0  0
   -7.6167    9.7449   -9.5151 C   0  0  0  0  0  0  0  0  0  0  0  0
   -8.2961    8.7374   -9.9786 N   0  0  0  0  0  0  0  0  0  0  0  0
   -8.4404    8.8724  -11.2937 N   0  0  0  0  0  0  0  0  0  0  0  0
   -7.3318    9.8946   -8.0252 C   0  0  0  0  0  0  0  0  0  0  0  0
   -5.5478   13.5112  -12.1572 C   0  0  0  0  0  0  0  0  0  0  0  0
   -5.9707   10.4870   -7.7351 C   0  0  0  0  0  0  0  0  0  0  0  0
   -5.8642   11.7588   -7.1694 C   0  0  0  0  0  0  0  0  0  0  0  0
   -4.6019   12.3141   -6.9186 C   0  0  0  0  0  0  0  0  0  0  0  0
   -3.4503   11.5963   -7.2357 C   0  0  0  0  0  0  0  0  0  0  0  0
   -3.5604   10.3220   -7.8000 C   0  0  0  0  0  0  0  0  0  0  0  0
   -4.8213    9.7719   -8.0443 C   0  0  0  0  0  0  0  0  0  0  0  0
   -2.0996   12.1710   -6.9757 C   0  0  0  0  0  0  0  0  0  0  0  0
   -1.7487   13.4240   -6.4767 C   0  0  0  0  0  0  0  0  0  0  0  0
   -0.4123   13.4674   -6.4260 N   0  0  3  0  0  0  0  0  0  0  0  0
    0.1713   12.3664   -6.8217 N   0  0  0  0  0  0  0  0  0  0  0  0
   -0.8093   11.5624   -7.1930 C   0  0  0  0  0  0  0  0  0  0  0  0
    0.4224   14.5657   -5.9816 C   0  0  0  0  0  0  0  0  0  0  0  0
   -5.6966   14.2423  -13.2612 N   0  0  0  0  0  0  0  0  0  0  0  0
   -4.9506   15.3153  -13.5405 C   0  0  0  0  0  0  0  0  0  0  0  0
   -3.9383   15.6899  -12.6782 C   0  0  0  0  0  0  0  0  0  0  0  0
   -3.7261   14.9536  -11.5366 C   0  0  0  0  0  0  0  0  0  0  0  0
   -4.5508   13.8769  -11.2437 C   0  0  0  0  0  0  0  0  0  0  0  0
   -2.6976   15.2614  -10.7139 N   0  0  0  0  0  0  0  0  0  0  0  0
   -6.0464   12.2223   -9.8797 H   0  0  0  0  0  0  0  0  0  0  0  0
   -8.7428   10.7712  -13.3891 H   0  0  0  0  0  0  0  0  0  0  0  0
   -7.2451    9.8233  -13.6811 H   0  0  0  0  0  0  0  0  0  0  0  0
   -6.9001   12.2325  -14.0803 H   0  0  0  0  0  0  0  0  0  0  0  0
   -8.0313    9.6067   -7.2544 H   0  0  0  0  0  0  0  0  0  0  0  0
   -6.7563   12.3160   -6.9245 H   0  0  0  0  0  0  0  0  0  0  0  0
   -4.5218   13.2977   -6.4798 H   0  0  0  0  0  0  0  0  0  0  0  0
   -2.6703    9.7625   -8.0472 H   0  0  0  0  0  0  0  0  0  0  0  0
   -4.9024    8.7852   -8.4759 H   0  0  0  0  0  0  0  0  0  0  0  0
   -2.1269   14.2144   -7.1418 H   0  0  0  0  0  0  0  0  0  0  0  0
   -2.1691   13.5602   -5.4694 H   0  0  0  0  0  0  0  0  0  0  0  0
   -0.6637   10.5754   -7.6065 H   0  0  0  0  0  0  0  0  0  0  0  0
    1.4809   14.2752   -6.0543 H   0  0  0  0  0  0  0  0  0  0  0  0
    0.2393   15.4453   -6.6162 H   0  0  0  0  0  0  0  0  0  0  0  0
    0.1804   14.8105   -4.9369 H   0  0  0  0  0  0  0  0  0  0  0  0
   -5.1384   15.8875  -14.4370 H   0  0  0  0  0  0  0  0  0  0  0  0
   -3.0010   15.6690  -13.2536 H   0  0  0  0  0  0  0  0  0  0  0  0
   -4.1509   16.7215  -12.3610 H   0  0  0  0  0  0  0  0  0  0  0  0
   -4.4255   13.3274  -10.3224 H   0  0  0  0  0  0  0  0  0  0  0  0
   -2.6419   14.6376   -9.9343 H   0  0  0  0  0  0  0  0  0  0  0  0
  1  2  1  0  0  0  0
  1  4  2  0  0  0  0
  1 11  1  0  0  0  0
  2  6  2  0  0  0  0
  3  4  1  0  0  0  0
  3  5  1  0  0  0  0
  5  6  1  0  0  0  0
  5  9  2  0  0  0  0
  6  7  1  0  0  0  0
  7  8  2  0  0  0  0
  7 10  1  0  0  0  0
  8  9  1  0  0  0  0
 10 12  2  0  0  0  0
 11 24  1  0  0  0  0
 11 28  2  0  0  0  0
 12 13  1  0  0  0  0
 12 17  1  0  0  0  0
 13 14  2  0  0  0  0
 14 15  1  0  0  0  0
 15 16  1  0  0  0  0
 15 18  2  0  0  0  0
 16 17  2  0  0  0  0
 18 19  1  0  0  0  0
 18 22  1  0  0  0  0
 19 20  1  0  0  0  0
 20 21  1  0  0  0  0
 20 23  1  0  0  0  0
 21 22  2  0  0  0  0
 24 25  2  0  0  0  0
 25 26  1  0  0  0  0
 26 27  1  0  0  0  0
 27 28  1  0  0  0  0
 27 29  2  0  0  0  0
  2 30  1  0  0  0  0
  3 31  1  0  0  0  0
  3 32  1  0  0  0  0
  4 33  1  0  0  0  0
 10 34  1  0  0  0  0
 13 35  1  0  0  0  0
 14 36  1  0  0  0  0
 16 37  1  0  0  0  0
 17 38  1  0  0  0  0
 19 39  1  0  0  0  0
 19 40  1  0  0  0  0
 22 41  1  0  0  0  0
 23 42  1  0  0  0  0
 23 43  1  0  0  0  0
 23 44  1  0  0  0  0
 25 45  1  0  0  0  0
 26 46  1  0  0  0  0
 26 47  1  0  0  0  0
 28 48  1  0  0  0  0
 29 49  1  0  0  0  0
M  END
> <Name>
23

> <IC50[uM]>
0.27

$$$$
