38
  -OEChem-05192314333D
 Structure written by MMmdl.
 52 56  0     0  0  0  0  0  0999 V2000
   -6.3676   12.3632  -12.0183 C   0  0  0  0  0  0  0  0  0  0  0  0
   -6.5148   11.8066  -10.7373 C   0  0  0  0  0  0  0  0  0  0  0  0
   -7.7147   10.5754  -13.0306 C   0  0  0  0  0  0  0  0  0  0  0  0
   -6.9819   11.7689  -13.1253 C   0  0  0  0  0  0  0  0  0  0  0  0
   -7.8143   10.0109  -11.7564 C   0  0  0  0  0  0  0  0  0  0  0  0
   -7.2414   10.6177  -10.6023 C   0  0  0  0  0  0  0  0  0  0  0  0
   -7.6126    9.7466   -9.5122 C   0  0  0  0  0  0  0  0  0  0  0  0
   -8.2846    8.7319   -9.9810 N   0  0  0  0  0  0  0  0  0  0  0  0
   -8.4146    8.8618  -11.2972 N   0  0  0  0  0  0  0  0  0  0  0  0
   -7.3363    9.8918   -8.0268 C   0  0  0  0  0  0  0  0  0  0  0  0
   -4.3648   13.7196  -11.5032 N   0  0  0  0  0  0  0  0  0  0  0  0
   -5.5453   13.6325  -12.1937 C   0  0  0  0  0  0  0  0  0  0  0  0
   -5.9402   14.5231  -12.9481 O   0  0  0  0  0  0  0  0  0  0  0  0
   -5.9634   10.4852   -7.7356 C   0  0  0  0  0  0  0  0  0  0  0  0
   -4.8111    9.7655   -8.0524 C   0  0  0  0  0  0  0  0  0  0  0  0
   -3.5521   10.3143   -7.8018 C   0  0  0  0  0  0  0  0  0  0  0  0
   -3.4442   11.5871   -7.2318 C   0  0  0  0  0  0  0  0  0  0  0  0
   -4.5964   12.3037   -6.9134 C   0  0  0  0  0  0  0  0  0  0  0  0
   -5.8531   11.7536   -7.1622 C   0  0  0  0  0  0  0  0  0  0  0  0
   -2.1000   12.1772   -6.9659 C   0  0  0  0  0  0  0  0  0  0  0  0
   -1.7711   13.4213   -6.4318 C   0  0  0  0  0  0  0  0  0  0  0  0
   -0.4319   13.4866   -6.3915 N   0  0  0  0  0  0  0  0  0  0  0  0
    0.1707   12.4146   -6.8487 N   0  0  0  0  0  0  0  0  0  0  0  0
   -0.8042   11.5996   -7.2054 C   0  0  0  0  0  0  0  0  0  0  0  0
    0.3852   14.5927   -5.9060 C   0  0  0  0  0  0  0  0  0  0  0  0
   -3.7189   12.5724  -10.8441 C   0  0  0  0  0  0  0  0  0  0  0  0
   -2.2354   12.9457  -10.9732 C   0  0  0  0  0  0  0  0  0  0  0  0
   -2.1905   14.4637  -10.9533 C   0  0  0  0  0  0  0  0  0  0  0  0
   -3.5123   14.9092  -11.5998 C   0  0  0  0  0  0  0  0  0  0  0  0
   -1.7098   12.4700  -12.1164 F   0  0  0  0  0  0  0  0  0  0  0  0
   -1.5166   12.4356   -9.9564 F   0  0  0  0  0  0  0  0  0  0  0  0
   -6.0766   12.2858   -9.8743 H   0  0  0  0  0  0  0  0  0  0  0  0
   -8.1756   10.1191  -13.8942 H   0  0  0  0  0  0  0  0  0  0  0  0
   -6.8889   12.2463  -14.0896 H   0  0  0  0  0  0  0  0  0  0  0  0
   -8.6453    7.9752   -9.4358 H   0  0  0  0  0  0  0  0  0  0  0  0
   -8.1027   10.5486   -7.5895 H   0  0  0  0  0  0  0  0  0  0  0  0
   -7.3955    8.8977   -7.5597 H   0  0  0  0  0  0  0  0  0  0  0  0
   -4.8931    8.7825   -8.4921 H   0  0  0  0  0  0  0  0  0  0  0  0
   -2.6611    9.7559   -8.0481 H   0  0  0  0  0  0  0  0  0  0  0  0
   -4.5156   13.2866   -6.4733 H   0  0  0  0  0  0  0  0  0  0  0  0
   -6.7439   12.3101   -6.9107 H   0  0  0  0  0  0  0  0  0  0  0  0
   -2.4623   14.1868   -6.1115 H   0  0  0  0  0  0  0  0  0  0  0  0
   -0.6481   10.6174   -7.6264 H   0  0  0  0  0  0  0  0  0  0  0  0
    1.4497   14.3348   -6.0072 H   0  0  0  0  0  0  0  0  0  0  0  0
    0.1689   15.4951   -6.4967 H   0  0  0  0  0  0  0  0  0  0  0  0
    0.1531   14.7829   -4.8477 H   0  0  0  0  0  0  0  0  0  0  0  0
   -4.0230   12.4902   -9.7902 H   0  0  0  0  0  0  0  0  0  0  0  0
   -3.9436   11.6300  -11.3651 H   0  0  0  0  0  0  0  0  0  0  0  0
   -2.1210   14.8350   -9.9202 H   0  0  0  0  0  0  0  0  0  0  0  0
   -1.3323   14.8328  -11.5341 H   0  0  0  0  0  0  0  0  0  0  0  0
   -3.3578   15.1968  -12.6502 H   0  0  0  0  0  0  0  0  0  0  0  0
   -3.9532   15.7535  -11.0495 H   0  0  0  0  0  0  0  0  0  0  0  0
  1  2  2  0  0  0  0
  1  4  1  0  0  0  0
  1 12  1  0  0  0  0
  2  6  1  0  0  0  0
  3  4  2  0  0  0  0
  3  5  1  0  0  0  0
  5  6  1  0  0  0  0
  5  9  2  0  0  0  0
  6  7  2  0  0  0  0
  7  8  1  0  0  0  0
  7 10  1  0  0  0  0
  8  9  1  0  0  0  0
 10 14  1  0  0  0  0
 11 12  1  0  0  0  0
 11 26  1  0  0  0  0
 11 29  1  0  0  0  0
 12 13  2  0  0  0  0
 14 15  2  0  0  0  0
 14 19  1  0  0  0  0
 15 16  1  0  0  0  0
 16 17  2  0  0  0  0
 17 18  1  0  0  0  0
 17 20  1  0  0  0  0
 18 19  2  0  0  0  0
 20 21  2  0  0  0  0
 20 24  1  0  0  0  0
 21 22  1  0  0  0  0
 22 23  1  0  0  0  0
 22 25  1  0  0  0  0
 23 24  2  0  0  0  0
 26 27  1  0  0  0  0
 27 28  1  0  0  0  0
 27 30  1  0  0  0  0
 27 31  1  0  0  0  0
 28 29  1  0  0  0  0
  2 32  1  0  0  0  0
  3 33  1  0  0  0  0
  4 34  1  0  0  0  0
  8 35  1  0  0  0  0
 10 36  1  0  0  0  0
 10 37  1  0  0  0  0
 15 38  1  0  0  0  0
 16 39  1  0  0  0  0
 18 40  1  0  0  0  0
 19 41  1  0  0  0  0
 21 42  1  0  0  0  0
 24 43  1  0  0  0  0
 25 44  1  0  0  0  0
 25 45  1  0  0  0  0
 25 46  1  0  0  0  0
 26 47  1  0  0  0  0
 26 48  1  0  0  0  0
 28 49  1  0  0  0  0
 28 50  1  0  0  0  0
 29 51  1  0  0  0  0
 29 52  1  0  0  0  0
M  END
> <Name>
38

> <IC50[uM]>
0.005

$$$$
38
  -OEChem-05192314333D
 Structure written by MMmdl.
 52 56  0     0  0  0  0  0  0999 V2000
   -6.3676   12.3632  -12.0183 C   0  0  0  0  0  0  0  0  0  0  0  0
   -6.5148   11.8066  -10.7373 C   0  0  0  0  0  0  0  0  0  0  0  0
   -7.7147   10.5754  -13.0306 C   0  0  0  0  0  0  0  0  0  0  0  0
   -6.9819   11.7689  -13.1253 C   0  0  0  0  0  0  0  0  0  0  0  0
   -7.8143   10.0109  -11.7564 C   0  0  0  0  0  0  0  0  0  0  0  0
   -7.2414   10.6177  -10.6023 C   0  0  0  0  0  0  0  0  0  0  0  0
   -7.6126    9.7466   -9.5122 C   0  0  0  0  0  0  0  0  0  0  0  0
   -8.2846    8.7319   -9.9810 N   0  0  0  0  0  0  0  0  0  0  0  0
   -8.4146    8.8618  -11.2972 N   0  0  0  0  0  0  0  0  0  0  0  0
   -7.3363    9.8918   -8.0268 C   0  0  0  0  0  0  0  0  0  0  0  0
   -4.3648   13.7196  -11.5032 N   0  0  0  0  0  0  0  0  0  0  0  0
   -5.5453   13.6325  -12.1937 C   0  0  0  0  0  0  0  0  0  0  0  0
   -5.9402   14.5231  -12.9481 O   0  0  0  0  0  0  0  0  0  0  0  0
   -5.9634   10.4852   -7.7356 C   0  0  0  0  0  0  0  0  0  0  0  0
   -4.8111    9.7655   -8.0524 C   0  0  0  0  0  0  0  0  0  0  0  0
   -3.5521   10.3143   -7.8018 C   0  0  0  0  0  0  0  0  0  0  0  0
   -3.4442   11.5871   -7.2318 C   0  0  0  0  0  0  0  0  0  0  0  0
   -4.5964   12.3037   -6.9134 C   0  0  0  0  0  0  0  0  0  0  0  0
   -5.8531   11.7536   -7.1622 C   0  0  0  0  0  0  0  0  0  0  0  0
   -2.1000   12.1772   -6.9659 C   0  0  0  0  0  0  0  0  0  0  0  0
   -1.7711   13.4213   -6.4318 C   0  0  0  0  0  0  0  0  0  0  0  0
   -0.4319   13.4866   -6.3915 N   0  0  0  0  0  0  0  0  0  0  0  0
    0.1707   12.4146   -6.8487 N   0  0  0  0  0  0  0  0  0  0  0  0
   -0.8042   11.5996   -7.2054 C   0  0  0  0  0  0  0  0  0  0  0  0
    0.3852   14.5927   -5.9060 C   0  0  0  0  0  0  0  0  0  0  0  0
   -3.7189   12.5724  -10.8441 C   0  0  0  0  0  0  0  0  0  0  0  0
   -2.2354   12.9457  -10.9732 C   0  0  0  0  0  0  0  0  0  0  0  0
   -2.1905   14.4637  -10.9533 C   0  0  0  0  0  0  0  0  0  0  0  0
   -3.5123   14.9092  -11.5998 C   0  0  0  0  0  0  0  0  0  0  0  0
   -1.7098   12.4700  -12.1164 F   0  0  0  0  0  0  0  0  0  0  0  0
   -1.5166   12.4356   -9.9564 F   0  0  0  0  0  0  0  0  0  0  0  0
   -6.0766   12.2858   -9.8743 H   0  0  0  0  0  0  0  0  0  0  0  0
   -8.1756   10.1191  -13.8942 H   0  0  0  0  0  0  0  0  0  0  0  0
   -6.8889   12.2463  -14.0896 H   0  0  0  0  0  0  0  0  0  0  0  0
   -8.8904    8.2048  -11.8819 H   0  0  0  0  0  0  0  0  0  0  0  0
   -8.1027   10.5486   -7.5895 H   0  0  0  0  0  0  0  0  0  0  0  0
   -7.3955    8.8977   -7.5597 H   0  0  0  0  0  0  0  0  0  0  0  0
   -4.8931    8.7825   -8.4921 H   0  0  0  0  0  0  0  0  0  0  0  0
   -2.6611    9.7559   -8.0481 H   0  0  0  0  0  0  0  0  0  0  0  0
   -4.5156   13.2866   -6.4733 H   0  0  0  0  0  0  0  0  0  0  0  0
   -6.7439   12.3101   -6.9107 H   0  0  0  0  0  0  0  0  0  0  0  0
   -2.4623   14.1868   -6.1115 H   0  0  0  0  0  0  0  0  0  0  0  0
   -0.6481   10.6174   -7.6264 H   0  0  0  0  0  0  0  0  0  0  0  0
    1.4497   14.3348   -6.0072 H   0  0  0  0  0  0  0  0  0  0  0  0
    0.1689   15.4951   -6.4967 H   0  0  0  0  0  0  0  0  0  0  0  0
    0.1531   14.7829   -4.8477 H   0  0  0  0  0  0  0  0  0  0  0  0
   -4.0230   12.4902   -9.7902 H   0  0  0  0  0  0  0  0  0  0  0  0
   -3.9436   11.6300  -11.3651 H   0  0  0  0  0  0  0  0  0  0  0  0
   -2.1210   14.8350   -9.9202 H   0  0  0  0  0  0  0  0  0  0  0  0
   -1.3323   14.8328  -11.5341 H   0  0  0  0  0  0  0  0  0  0  0  0
   -3.3578   15.1968  -12.6502 H   0  0  0  0  0  0  0  0  0  0  0  0
   -3.9532   15.7535  -11.0495 H   0  0  0  0  0  0  0  0  0  0  0  0
  1  2  2  0  0  0  0
  1  4  1  0  0  0  0
  1 12  1  0  0  0  0
  2  6  1  0  0  0  0
  3  4  2  0  0  0  0
  3  5  1  0  0  0  0
  5  6  2  0  0  0  0
  5  9  1  0  0  0  0
  6  7  1  0  0  0  0
  7  8  2  0  0  0  0
  7 10  1  0  0  0  0
  8  9  1  0  0  0  0
 10 14  1  0  0  0  0
 11 12  1  0  0  0  0
 11 26  1  0  0  0  0
 11 29  1  0  0  0  0
 12 13  2  0  0  0  0
 14 15  2  0  0  0  0
 14 19  1  0  0  0  0
 15 16  1  0  0  0  0
 16 17  2  0  0  0  0
 17 18  1  0  0  0  0
 17 20  1  0  0  0  0
 18 19  2  0  0  0  0
 20 21  2  0  0  0  0
 20 24  1  0  0  0  0
 21 22  1  0  0  0  0
 22 23  1  0  0  0  0
 22 25  1  0  0  0  0
 23 24  2  0  0  0  0
 26 27  1  0  0  0  0
 27 28  1  0  0  0  0
 27 30  1  0  0  0  0
 27 31  1  0  0  0  0
 28 29  1  0  0  0  0
  2 32  1  0  0  0  0
  3 33  1  0  0  0  0
  4 34  1  0  0  0  0
  9 35  1  0  0  0  0
 10 36  1  0  0  0  0
 10 37  1  0  0  0  0
 15 38  1  0  0  0  0
 16 39  1  0  0  0  0
 18 40  1  0  0  0  0
 19 41  1  0  0  0  0
 21 42  1  0  0  0  0
 24 43  1  0  0  0  0
 25 44  1  0  0  0  0
 25 45  1  0  0  0  0
 25 46  1  0  0  0  0
 26 47  1  0  0  0  0
 26 48  1  0  0  0  0
 28 49  1  0  0  0  0
 28 50  1  0  0  0  0
 29 51  1  0  0  0  0
 29 52  1  0  0  0  0
M  END
> <Name>
38

> <IC50[uM]>
0.005

$$$$
38
  -OEChem-05192314333D
 Structure written by MMmdl.
 52 56  0     1  0  0  0  0  0999 V2000
   -6.3676   12.3632  -12.0183 C   0  0  0  0  0  0  0  0  0  0  0  0
   -6.5148   11.8066  -10.7373 C   0  0  0  0  0  0  0  0  0  0  0  0
   -7.7147   10.5754  -13.0306 C   0  0  0  0  0  0  0  0  0  0  0  0
   -6.9819   11.7689  -13.1253 C   0  0  0  0  0  0  0  0  0  0  0  0
   -7.8143   10.0109  -11.7564 C   0  0  0  0  0  0  0  0  0  0  0  0
   -7.2414   10.6177  -10.6023 C   0  0  0  0  0  0  0  0  0  0  0  0
   -7.6126    9.7466   -9.5122 C   0  0  3  0  0  0  0  0  0  0  0  0
   -8.2846    8.7319   -9.9810 N   0  0  0  0  0  0  0  0  0  0  0  0
   -8.4146    8.8618  -11.2972 N   0  0  0  0  0  0  0  0  0  0  0  0
   -7.3363    9.8918   -8.0268 C   0  0  0  0  0  0  0  0  0  0  0  0
   -4.3648   13.7196  -11.5032 N   0  0  0  0  0  0  0  0  0  0  0  0
   -5.5453   13.6325  -12.1937 C   0  0  0  0  0  0  0  0  0  0  0  0
   -5.9402   14.5231  -12.9481 O   0  0  0  0  0  0  0  0  0  0  0  0
   -5.9634   10.4852   -7.7356 C   0  0  0  0  0  0  0  0  0  0  0  0
   -4.8111    9.7655   -8.0524 C   0  0  0  0  0  0  0  0  0  0  0  0
   -3.5521   10.3143   -7.8018 C   0  0  0  0  0  0  0  0  0  0  0  0
   -3.4442   11.5871   -7.2318 C   0  0  0  0  0  0  0  0  0  0  0  0
   -4.5964   12.3037   -6.9134 C   0  0  0  0  0  0  0  0  0  0  0  0
   -5.8531   11.7536   -7.1622 C   0  0  0  0  0  0  0  0  0  0  0  0
   -2.1000   12.1772   -6.9659 C   0  0  0  0  0  0  0  0  0  0  0  0
   -1.7711   13.4213   -6.4318 C   0  0  0  0  0  0  0  0  0  0  0  0
   -0.4319   13.4866   -6.3915 N   0  0  0  0  0  0  0  0  0  0  0  0
    0.1707   12.4146   -6.8487 N   0  0  0  0  0  0  0  0  0  0  0  0
   -0.8042   11.5996   -7.2054 C   0  0  0  0  0  0  0  0  0  0  0  0
    0.3852   14.5927   -5.9060 C   0  0  0  0  0  0  0  0  0  0  0  0
   -3.7189   12.5724  -10.8441 C   0  0  0  0  0  0  0  0  0  0  0  0
   -2.2354   12.9457  -10.9732 C   0  0  0  0  0  0  0  0  0  0  0  0
   -2.1905   14.4637  -10.9533 C   0  0  0  0  0  0  0  0  0  0  0  0
   -3.5123   14.9092  -11.5998 C   0  0  0  0  0  0  0  0  0  0  0  0
   -1.7098   12.4700  -12.1164 F   0  0  0  0  0  0  0  0  0  0  0  0
   -1.5166   12.4356   -9.9564 F   0  0  0  0  0  0  0  0  0  0  0  0
   -6.0766   12.2858   -9.8743 H   0  0  0  0  0  0  0  0  0  0  0  0
   -8.1756   10.1191  -13.8942 H   0  0  0  0  0  0  0  0  0  0  0  0
   -6.8889   12.2463  -14.0896 H   0  0  0  0  0  0  0  0  0  0  0  0
   -6.6738    9.1867   -9.6354 H   0  0  0  0  0  0  0  0  0  0  0  0
   -8.1027   10.5486   -7.5895 H   0  0  0  0  0  0  0  0  0  0  0  0
   -7.3955    8.8977   -7.5597 H   0  0  0  0  0  0  0  0  0  0  0  0
   -4.8931    8.7825   -8.4921 H   0  0  0  0  0  0  0  0  0  0  0  0
   -2.6611    9.7559   -8.0481 H   0  0  0  0  0  0  0  0  0  0  0  0
   -4.5156   13.2866   -6.4733 H   0  0  0  0  0  0  0  0  0  0  0  0
   -6.7439   12.3101   -6.9107 H   0  0  0  0  0  0  0  0  0  0  0  0
   -2.4623   14.1868   -6.1115 H   0  0  0  0  0  0  0  0  0  0  0  0
   -0.6481   10.6174   -7.6264 H   0  0  0  0  0  0  0  0  0  0  0  0
    1.4497   14.3348   -6.0072 H   0  0  0  0  0  0  0  0  0  0  0  0
    0.1689   15.4951   -6.4967 H   0  0  0  0  0  0  0  0  0  0  0  0
    0.1531   14.7829   -4.8477 H   0  0  0  0  0  0  0  0  0  0  0  0
   -4.0230   12.4902   -9.7902 H   0  0  0  0  0  0  0  0  0  0  0  0
   -3.9436   11.6300  -11.3651 H   0  0  0  0  0  0  0  0  0  0  0  0
   -2.1210   14.8350   -9.9202 H   0  0  0  0  0  0  0  0  0  0  0  0
   -1.3323   14.8328  -11.5341 H   0  0  0  0  0  0  0  0  0  0  0  0
   -3.3578   15.1968  -12.6502 H   0  0  0  0  0  0  0  0  0  0  0  0
   -3.9532   15.7535  -11.0495 H   0  0  0  0  0  0  0  0  0  0  0  0
  1  2  2  0  0  0  0
  1  4  1  0  0  0  0
  1 12  1  0  0  0  0
  2  6  1  0  0  0  0
  3  4  2  0  0  0  0
  3  5  1  0  0  0  0
  5  6  2  0  0  0  0
  5  9  1  0  0  0  0
  6  7  1  0  0  0  0
  7  8  1  0  0  0  0
  7 10  1  0  0  0  0
  8  9  2  0  0  0  0
 10 14  1  0  0  0  0
 11 12  1  0  0  0  0
 11 26  1  0  0  0  0
 11 29  1  0  0  0  0
 12 13  2  0  0  0  0
 14 15  2  0  0  0  0
 14 19  1  0  0  0  0
 15 16  1  0  0  0  0
 16 17  2  0  0  0  0
 17 18  1  0  0  0  0
 17 20  1  0  0  0  0
 18 19  2  0  0  0  0
 20 21  2  0  0  0  0
 20 24  1  0  0  0  0
 21 22  1  0  0  0  0
 22 23  1  0  0  0  0
 22 25  1  0  0  0  0
 23 24  2  0  0  0  0
 26 27  1  0  0  0  0
 27 28  1  0  0  0  0
 27 30  1  0  0  0  0
 27 31  1  0  0  0  0
 28 29  1  0  0  0  0
  2 32  1  0  0  0  0
  3 33  1  0  0  0  0
  4 34  1  0  0  0  0
  7 35  1  0  0  0  0
 10 36  1  0  0  0  0
 10 37  1  0  0  0  0
 15 38  1  0  0  0  0
 16 39  1  0  0  0  0
 18 40  1  0  0  0  0
 19 41  1  0  0  0  0
 21 42  1  0  0  0  0
 24 43  1  0  0  0  0
 25 44  1  0  0  0  0
 25 45  1  0  0  0  0
 25 46  1  0  0  0  0
 26 47  1  0  0  0  0
 26 48  1  0  0  0  0
 28 49  1  0  0  0  0
 28 50  1  0  0  0  0
 29 51  1  0  0  0  0
 29 52  1  0  0  0  0
M  END
> <Name>
38

> <IC50[uM]>
0.005

$$$$
38
  -OEChem-05192314333D
 Structure written by MMmdl.
 52 56  0     0  0  0  0  0  0999 V2000
   -6.3676   12.3632  -12.0183 C   0  0  0  0  0  0  0  0  0  0  0  0
   -6.5148   11.8066  -10.7373 C   0  0  0  0  0  0  0  0  0  0  0  0
   -7.7147   10.5754  -13.0306 C   0  0  0  0  0  0  0  0  0  0  0  0
   -6.9819   11.7689  -13.1253 C   0  0  0  0  0  0  0  0  0  0  0  0
   -7.8143   10.0109  -11.7564 C   0  0  0  0  0  0  0  0  0  0  0  0
   -7.2414   10.6177  -10.6023 C   0  0  0  0  0  0  0  0  0  0  0  0
   -7.6126    9.7466   -9.5122 C   0  0  0  0  0  0  0  0  0  0  0  0
   -8.2846    8.7319   -9.9810 N   0  0  0  0  0  0  0  0  0  0  0  0
   -8.4146    8.8618  -11.2972 N   0  0  0  0  0  0  0  0  0  0  0  0
   -7.3363    9.8918   -8.0268 C   0  0  0  0  0  0  0  0  0  0  0  0
   -4.3648   13.7196  -11.5032 N   0  0  0  0  0  0  0  0  0  0  0  0
   -5.5453   13.6325  -12.1937 C   0  0  0  0  0  0  0  0  0  0  0  0
   -5.9402   14.5231  -12.9481 O   0  0  0  0  0  0  0  0  0  0  0  0
   -5.9634   10.4852   -7.7356 C   0  0  0  0  0  0  0  0  0  0  0  0
   -4.8111    9.7655   -8.0524 C   0  0  0  0  0  0  0  0  0  0  0  0
   -3.5521   10.3143   -7.8018 C   0  0  0  0  0  0  0  0  0  0  0  0
   -3.4442   11.5871   -7.2318 C   0  0  0  0  0  0  0  0  0  0  0  0
   -4.5964   12.3037   -6.9134 C   0  0  0  0  0  0  0  0  0  0  0  0
   -5.8531   11.7536   -7.1622 C   0  0  0  0  0  0  0  0  0  0  0  0
   -2.1000   12.1772   -6.9659 C   0  0  0  0  0  0  0  0  0  0  0  0
   -1.7711   13.4213   -6.4318 C   0  0  0  0  0  0  0  0  0  0  0  0
   -0.4319   13.4866   -6.3915 N   0  0  0  0  0  0  0  0  0  0  0  0
    0.1707   12.4146   -6.8487 N   0  0  0  0  0  0  0  0  0  0  0  0
   -0.8042   11.5996   -7.2054 C   0  0  0  0  0  0  0  0  0  0  0  0
    0.3852   14.5927   -5.9060 C   0  0  0  0  0  0  0  0  0  0  0  0
   -3.7189   12.5724  -10.8441 C   0  0  0  0  0  0  0  0  0  0  0  0
   -2.2354   12.9457  -10.9732 C   0  0  0  0  0  0  0  0  0  0  0  0
   -2.1905   14.4637  -10.9533 C   0  0  0  0  0  0  0  0  0  0  0  0
   -3.5123   14.9092  -11.5998 C   0  0  0  0  0  0  0  0  0  0  0  0
   -1.7098   12.4700  -12.1164 F   0  0  0  0  0  0  0  0  0  0  0  0
   -1.5166   12.4356   -9.9564 F   0  0  0  0  0  0  0  0  0  0  0  0
   -6.0766   12.2858   -9.8743 H   0  0  0  0  0  0  0  0  0  0  0  0
   -8.1756   10.1191  -13.8942 H   0  0  0  0  0  0  0  0  0  0  0  0
   -6.8889   12.2463  -14.0896 H   0  0  0  0  0  0  0  0  0  0  0  0
   -7.7959    7.8840   -9.7756 H   0  0  0  0  0  0  0  0  0  0  0  0
   -9.3878    8.8910  -11.5255 H   0  0  0  0  0  0  0  0  0  0  0  0
   -8.0383    9.6050   -7.2579 H   0  0  0  0  0  0  0  0  0  0  0  0
   -4.8931    8.7825   -8.4921 H   0  0  0  0  0  0  0  0  0  0  0  0
   -2.6611    9.7559   -8.0481 H   0  0  0  0  0  0  0  0  0  0  0  0
   -4.5156   13.2866   -6.4733 H   0  0  0  0  0  0  0  0  0  0  0  0
   -6.7439   12.3101   -6.9107 H   0  0  0  0  0  0  0  0  0  0  0  0
   -2.4623   14.1868   -6.1115 H   0  0  0  0  0  0  0  0  0  0  0  0
   -0.6481   10.6174   -7.6264 H   0  0  0  0  0  0  0  0  0  0  0  0
    1.4497   14.3348   -6.0072 H   0  0  0  0  0  0  0  0  0  0  0  0
    0.1689   15.4951   -6.4967 H   0  0  0  0  0  0  0  0  0  0  0  0
    0.1531   14.7829   -4.8477 H   0  0  0  0  0  0  0  0  0  0  0  0
   -4.0230   12.4902   -9.7902 H   0  0  0  0  0  0  0  0  0  0  0  0
   -3.9436   11.6300  -11.3651 H   0  0  0  0  0  0  0  0  0  0  0  0
   -2.1210   14.8350   -9.9202 H   0  0  0  0  0  0  0  0  0  0  0  0
   -1.3323   14.8328  -11.5341 H   0  0  0  0  0  0  0  0  0  0  0  0
   -3.3578   15.1968  -12.6502 H   0  0  0  0  0  0  0  0  0  0  0  0
   -3.9532   15.7535  -11.0495 H   0  0  0  0  0  0  0  0  0  0  0  0
  1  2  2  0  0  0  0
  1  4  1  0  0  0  0
  1 12  1  0  0  0  0
  2  6  1  0  0  0  0
  3  4  2  0  0  0  0
  3  5  1  0  0  0  0
  5  6  2  0  0  0  0
  5  9  1  0  0  0  0
  6  7  1  0  0  0  0
  7  8  1  0  0  0  0
  7 10  2  3  0  0  0
  8  9  1  0  0  0  0
 10 14  1  0  0  0  0
 11 12  1  0  0  0  0
 11 26  1  0  0  0  0
 11 29  1  0  0  0  0
 12 13  2  0  0  0  0
 14 15  2  0  0  0  0
 14 19  1  0  0  0  0
 15 16  1  0  0  0  0
 16 17  2  0  0  0  0
 17 18  1  0  0  0  0
 17 20  1  0  0  0  0
 18 19  2  0  0  0  0
 20 21  2  0  0  0  0
 20 24  1  0  0  0  0
 21 22  1  0  0  0  0
 22 23  1  0  0  0  0
 22 25  1  0  0  0  0
 23 24  2  0  0  0  0
 26 27  1  0  0  0  0
 27 28  1  0  0  0  0
 27 30  1  0  0  0  0
 27 31  1  0  0  0  0
 28 29  1  0  0  0  0
  2 32  1  0  0  0  0
  3 33  1  0  0  0  0
  4 34  1  0  0  0  0
  8 35  1  0  0  0  0
  9 36  1  0  0  0  0
 10 37  1  0  0  0  0
 15 38  1  0  0  0  0
 16 39  1  0  0  0  0
 18 40  1  0  0  0  0
 19 41  1  0  0  0  0
 21 42  1  0  0  0  0
 24 43  1  0  0  0  0
 25 44  1  0  0  0  0
 25 45  1  0  0  0  0
 25 46  1  0  0  0  0
 26 47  1  0  0  0  0
 26 48  1  0  0  0  0
 28 49  1  0  0  0  0
 28 50  1  0  0  0  0
 29 51  1  0  0  0  0
 29 52  1  0  0  0  0
M  END
> <Name>
38

> <IC50[uM]>
0.005

$$$$
38
  -OEChem-05192314333D
 Structure written by MMmdl.
 52 56  0     1  0  0  0  0  0999 V2000
   -6.3676   12.3632  -12.0183 C   0  0  3  0  0  0  0  0  0  0  0  0
   -6.5148   11.8066  -10.7373 C   0  0  0  0  0  0  0  0  0  0  0  0
   -7.7147   10.5754  -13.0306 C   0  0  0  0  0  0  0  0  0  0  0  0
   -6.9819   11.7689  -13.1253 C   0  0  0  0  0  0  0  0  0  0  0  0
   -7.8143   10.0109  -11.7564 C   0  0  0  0  0  0  0  0  0  0  0  0
   -7.2414   10.6177  -10.6023 C   0  0  0  0  0  0  0  0  0  0  0  0
   -7.6126    9.7466   -9.5122 C   0  0  0  0  0  0  0  0  0  0  0  0
   -8.2846    8.7319   -9.9810 N   0  0  0  0  0  0  0  0  0  0  0  0
   -8.4146    8.8618  -11.2972 N   0  0  0  0  0  0  0  0  0  0  0  0
   -7.3363    9.8918   -8.0268 C   0  0  0  0  0  0  0  0  0  0  0  0
   -4.3648   13.7196  -11.5032 N   0  0  0  0  0  0  0  0  0  0  0  0
   -5.5453   13.6325  -12.1937 C   0  0  0  0  0  0  0  0  0  0  0  0
   -5.9402   14.5231  -12.9481 O   0  0  0  0  0  0  0  0  0  0  0  0
   -5.9634   10.4852   -7.7356 C   0  0  0  0  0  0  0  0  0  0  0  0
   -4.8111    9.7655   -8.0524 C   0  0  0  0  0  0  0  0  0  0  0  0
   -3.5521   10.3143   -7.8018 C   0  0  0  0  0  0  0  0  0  0  0  0
   -3.4442   11.5871   -7.2318 C   0  0  0  0  0  0  0  0  0  0  0  0
   -4.5964   12.3037   -6.9134 C   0  0  0  0  0  0  0  0  0  0  0  0
   -5.8531   11.7536   -7.1622 C   0  0  0  0  0  0  0  0  0  0  0  0
   -2.1000   12.1772   -6.9659 C   0  0  0  0  0  0  0  0  0  0  0  0
   -1.7711   13.4213   -6.4318 C   0  0  0  0  0  0  0  0  0  0  0  0
   -0.4319   13.4866   -6.3915 N   0  0  0  0  0  0  0  0  0  0  0  0
    0.1707   12.4146   -6.8487 N   0  0  0  0  0  0  0  0  0  0  0  0
   -0.8042   11.5996   -7.2054 C   0  0  0  0  0  0  0  0  0  0  0  0
    0.3852   14.5927   -5.9060 C   0  0  0  0  0  0  0  0  0  0  0  0
   -3.7189   12.5724  -10.8441 C   0  0  0  0  0  0  0  0  0  0  0  0
   -2.2354   12.9457  -10.9732 C   0  0  0  0  0  0  0  0  0  0  0  0
   -2.1905   14.4637  -10.9533 C   0  0  0  0  0  0  0  0  0  0  0  0
   -3.5123   14.9092  -11.5998 C   0  0  0  0  0  0  0  0  0  0  0  0
   -1.7098   12.4700  -12.1164 F   0  0  0  0  0  0  0  0  0  0  0  0
   -1.5166   12.4356   -9.9564 F   0  0  0  0  0  0  0  0  0  0  0  0
   -5.4678   11.7527  -12.1847 H   0  0  0  0  0  0  0  0  0  0  0  0
   -6.0766   12.2858   -9.8743 H   0  0  0  0  0  0  0  0  0  0  0  0
   -8.1756   10.1191  -13.8942 H   0  0  0  0  0  0  0  0  0  0  0  0
   -6.8889   12.2463  -14.0896 H   0  0  0  0  0  0  0  0  0  0  0  0
   -8.6453    7.9752   -9.4358 H   0  0  0  0  0  0  0  0  0  0  0  0
   -8.0383    9.6050   -7.2579 H   0  0  0  0  0  0  0  0  0  0  0  0
   -4.8931    8.7825   -8.4921 H   0  0  0  0  0  0  0  0  0  0  0  0
   -2.6611    9.7559   -8.0481 H   0  0  0  0  0  0  0  0  0  0  0  0
   -4.5156   13.2866   -6.4733 H   0  0  0  0  0  0  0  0  0  0  0  0
   -6.7439   12.3101   -6.9107 H   0  0  0  0  0  0  0  0  0  0  0  0
   -2.4623   14.1868   -6.1115 H   0  0  0  0  0  0  0  0  0  0  0  0
   -0.6481   10.6174   -7.6264 H   0  0  0  0  0  0  0  0  0  0  0  0
    1.4497   14.3348   -6.0072 H   0  0  0  0  0  0  0  0  0  0  0  0
    0.1689   15.4951   -6.4967 H   0  0  0  0  0  0  0  0  0  0  0  0
    0.1531   14.7829   -4.8477 H   0  0  0  0  0  0  0  0  0  0  0  0
   -4.0230   12.4902   -9.7902 H   0  0  0  0  0  0  0  0  0  0  0  0
   -3.9436   11.6300  -11.3651 H   0  0  0  0  0  0  0  0  0  0  0  0
   -2.1210   14.8350   -9.9202 H   0  0  0  0  0  0  0  0  0  0  0  0
   -1.3323   14.8328  -11.5341 H   0  0  0  0  0  0  0  0  0  0  0  0
   -3.3578   15.1968  -12.6502 H   0  0  0  0  0  0  0  0  0  0  0  0
   -3.9532   15.7535  -11.0495 H   0  0  0  0  0  0  0  0  0  0  0  0
  1  2  1  0  0  0  0
  1  4  1  0  0  0  0
  1 12  1  0  0  0  0
  2  6  2  0  0  0  0
  3  4  2  0  0  0  0
  3  5  1  0  0  0  0
  5  6  1  0  0  0  0
  5  9  2  0  0  0  0
  6  7  1  0  0  0  0
  7  8  1  0  0  0  0
  7 10  2  3  0  0  0
  8  9  1  0  0  0  0
 10 14  1  0  0  0  0
 11 12  1  0  0  0  0
 11 26  1  0  0  0  0
 11 29  1  0  0  0  0
 12 13  2  0  0  0  0
 14 15  2  0  0  0  0
 14 19  1  0  0  0  0
 15 16  1  0  0  0  0
 16 17  2  0  0  0  0
 17 18  1  0  0  0  0
 17 20  1  0  0  0  0
 18 19  2  0  0  0  0
 20 21  2  0  0  0  0
 20 24  1  0  0  0  0
 21 22  1  0  0  0  0
 22 23  1  0  0  0  0
 22 25  1  0  0  0  0
 23 24  2  0  0  0  0
 26 27  1  0  0  0  0
 27 28  1  0  0  0  0
 27 30  1  0  0  0  0
 27 31  1  0  0  0  0
 28 29  1  0  0  0  0
  1 32  1  0  0  0  0
  2 33  1  0  0  0  0
  3 34  1  0  0  0  0
  4 35  1  0  0  0  0
  8 36  1  0  0  0  0
 10 37  1  0  0  0  0
 15 38  1  0  0  0  0
 16 39  1  0  0  0  0
 18 40  1  0  0  0  0
 19 41  1  0  0  0  0
 21 42  1  0  0  0  0
 24 43  1  0  0  0  0
 25 44  1  0  0  0  0
 25 45  1  0  0  0  0
 25 46  1  0  0  0  0
 26 47  1  0  0  0  0
 26 48  1  0  0  0  0
 28 49  1  0  0  0  0
 28 50  1  0  0  0  0
 29 51  1  0  0  0  0
 29 52  1  0  0  0  0
M  END
> <Name>
38

> <IC50[uM]>
0.005

$$$$
38
  -OEChem-05192314333D
 Structure written by MMmdl.
 52 56  0     0  0  0  0  0  0999 V2000
   -6.3676   12.3632  -12.0183 C   0  0  0  0  0  0  0  0  0  0  0  0
   -6.5148   11.8066  -10.7373 C   0  0  0  0  0  0  0  0  0  0  0  0
   -7.7147   10.5754  -13.0306 C   0  0  0  0  0  0  0  0  0  0  0  0
   -6.9819   11.7689  -13.1253 C   0  0  0  0  0  0  0  0  0  0  0  0
   -7.8143   10.0109  -11.7564 C   0  0  0  0  0  0  0  0  0  0  0  0
   -7.2414   10.6177  -10.6023 C   0  0  0  0  0  0  0  0  0  0  0  0
   -7.6126    9.7466   -9.5122 C   0  0  0  0  0  0  0  0  0  0  0  0
   -8.2846    8.7319   -9.9810 N   0  0  0  0  0  0  0  0  0  0  0  0
   -8.4146    8.8618  -11.2972 N   0  0  0  0  0  0  0  0  0  0  0  0
   -7.3363    9.8918   -8.0268 C   0  0  0  0  0  0  0  0  0  0  0  0
   -4.3648   13.7196  -11.5032 N   0  0  0  0  0  0  0  0  0  0  0  0
   -5.5453   13.6325  -12.1937 C   0  0  0  0  0  0  0  0  0  0  0  0
   -5.9402   14.5231  -12.9481 O   0  0  0  0  0  0  0  0  0  0  0  0
   -5.9634   10.4852   -7.7356 C   0  0  0  0  0  0  0  0  0  0  0  0
   -4.8111    9.7655   -8.0524 C   0  0  0  0  0  0  0  0  0  0  0  0
   -3.5521   10.3143   -7.8018 C   0  0  0  0  0  0  0  0  0  0  0  0
   -3.4442   11.5871   -7.2318 C   0  0  0  0  0  0  0  0  0  0  0  0
   -4.5964   12.3037   -6.9134 C   0  0  0  0  0  0  0  0  0  0  0  0
   -5.8531   11.7536   -7.1622 C   0  0  0  0  0  0  0  0  0  0  0  0
   -2.1000   12.1772   -6.9659 C   0  0  0  0  0  0  0  0  0  0  0  0
   -1.7711   13.4213   -6.4318 C   0  0  0  0  0  0  0  0  0  0  0  0
   -0.4319   13.4866   -6.3915 N   0  0  0  0  0  0  0  0  0  0  0  0
    0.1707   12.4146   -6.8487 N   0  0  0  0  0  0  0  0  0  0  0  0
   -0.8042   11.5996   -7.2054 C   0  0  0  0  0  0  0  0  0  0  0  0
    0.3852   14.5927   -5.9060 C   0  0  0  0  0  0  0  0  0  0  0  0
   -3.7189   12.5724  -10.8441 C   0  0  0  0  0  0  0  0  0  0  0  0
   -2.2354   12.9457  -10.9732 C   0  0  0  0  0  0  0  0  0  0  0  0
   -2.1905   14.4637  -10.9533 C   0  0  0  0  0  0  0  0  0  0  0  0
   -3.5123   14.9092  -11.5998 C   0  0  0  0  0  0  0  0  0  0  0  0
   -1.7098   12.4700  -12.1164 F   0  0  0  0  0  0  0  0  0  0  0  0
   -1.5166   12.4356   -9.9564 F   0  0  0  0  0  0  0  0  0  0  0  0
   -6.0766   12.2858   -9.8743 H   0  0  0  0  0  0  0  0  0  0  0  0
   -8.7349   10.7790  -13.3879 H   0  0  0  0  0  0  0  0  0  0  0  0
   -7.2366    9.8351  -13.6889 H   0  0  0  0  0  0  0  0  0  0  0  0
   -6.8889   12.2463  -14.0896 H   0  0  0  0  0  0  0  0  0  0  0  0
   -8.6453    7.9752   -9.4358 H   0  0  0  0  0  0  0  0  0  0  0  0
   -8.0383    9.6050   -7.2579 H   0  0  0  0  0  0  0  0  0  0  0  0
   -4.8931    8.7825   -8.4921 H   0  0  0  0  0  0  0  0  0  0  0  0
   -2.6611    9.7559   -8.0481 H   0  0  0  0  0  0  0  0  0  0  0  0
   -4.5156   13.2866   -6.4733 H   0  0  0  0  0  0  0  0  0  0  0  0
   -6.7439   12.3101   -6.9107 H   0  0  0  0  0  0  0  0  0  0  0  0
   -2.4623   14.1868   -6.1115 H   0  0  0  0  0  0  0  0  0  0  0  0
   -0.6481   10.6174   -7.6264 H   0  0  0  0  0  0  0  0  0  0  0  0
    1.4497   14.3348   -6.0072 H   0  0  0  0  0  0  0  0  0  0  0  0
    0.1689   15.4951   -6.4967 H   0  0  0  0  0  0  0  0  0  0  0  0
    0.1531   14.7829   -4.8477 H   0  0  0  0  0  0  0  0  0  0  0  0
   -4.0230   12.4902   -9.7902 H   0  0  0  0  0  0  0  0  0  0  0  0
   -3.9436   11.6300  -11.3651 H   0  0  0  0  0  0  0  0  0  0  0  0
   -2.1210   14.8350   -9.9202 H   0  0  0  0  0  0  0  0  0  0  0  0
   -1.3323   14.8328  -11.5341 H   0  0  0  0  0  0  0  0  0  0  0  0
   -3.3578   15.1968  -12.6502 H   0  0  0  0  0  0  0  0  0  0  0  0
   -3.9532   15.7535  -11.0495 H   0  0  0  0  0  0  0  0  0  0  0  0
  1  2  1  0  0  0  0
  1  4  2  0  0  0  0
  1 12  1  0  0  0  0
  2  6  2  0  0  0  0
  3  4  1  0  0  0  0
  3  5  1  0  0  0  0
  5  6  1  0  0  0  0
  5  9  2  0  0  0  0
  6  7  1  0  0  0  0
  7  8  1  0  0  0  0
  7 10  2  3  0  0  0
  8  9  1  0  0  0  0
 10 14  1  0  0  0  0
 11 12  1  0  0  0  0
 11 26  1  0  0  0  0
 11 29  1  0  0  0  0
 12 13  2  0  0  0  0
 14 15  2  0  0  0  0
 14 19  1  0  0  0  0
 15 16  1  0  0  0  0
 16 17  2  0  0  0  0
 17 18  1  0  0  0  0
 17 20  1  0  0  0  0
 18 19  2  0  0  0  0
 20 21  2  0  0  0  0
 20 24  1  0  0  0  0
 21 22  1  0  0  0  0
 22 23  1  0  0  0  0
 22 25  1  0  0  0  0
 23 24  2  0  0  0  0
 26 27  1  0  0  0  0
 27 28  1  0  0  0  0
 27 30  1  0  0  0  0
 27 31  1  0  0  0  0
 28 29  1  0  0  0  0
  2 32  1  0  0  0  0
  3 33  1  0  0  0  0
  3 34  1  0  0  0  0
  4 35  1  0  0  0  0
  8 36  1  0  0  0  0
 10 37  1  0  0  0  0
 15 38  1  0  0  0  0
 16 39  1  0  0  0  0
 18 40  1  0  0  0  0
 19 41  1  0  0  0  0
 21 42  1  0  0  0  0
 24 43  1  0  0  0  0
 25 44  1  0  0  0  0
 25 45  1  0  0  0  0
 25 46  1  0  0  0  0
 26 47  1  0  0  0  0
 26 48  1  0  0  0  0
 28 49  1  0  0  0  0
 28 50  1  0  0  0  0
 29 51  1  0  0  0  0
 29 52  1  0  0  0  0
M  END
> <Name>
38

> <IC50[uM]>
0.005

$$$$
38
  -OEChem-05192314333D
 Structure written by MMmdl.
 52 56  0     1  0  0  0  0  0999 V2000
   -6.3676   12.3632  -12.0183 C   0  0  0  0  0  0  0  0  0  0  0  0
   -6.5148   11.8066  -10.7373 C   0  0  0  0  0  0  0  0  0  0  0  0
   -7.7147   10.5754  -13.0306 C   0  0  0  0  0  0  0  0  0  0  0  0
   -6.9819   11.7689  -13.1253 C   0  0  0  0  0  0  0  0  0  0  0  0
   -7.8143   10.0109  -11.7564 C   0  0  0  0  0  0  0  0  0  0  0  0
   -7.2414   10.6177  -10.6023 C   0  0  0  0  0  0  0  0  0  0  0  0
   -7.6126    9.7466   -9.5122 C   0  0  0  0  0  0  0  0  0  0  0  0
   -8.2846    8.7319   -9.9810 N   0  0  0  0  0  0  0  0  0  0  0  0
   -8.4146    8.8618  -11.2972 N   0  0  0  0  0  0  0  0  0  0  0  0
   -7.3363    9.8918   -8.0268 C   0  0  0  0  0  0  0  0  0  0  0  0
   -4.3648   13.7196  -11.5032 N   0  0  0  0  0  0  0  0  0  0  0  0
   -5.5453   13.6325  -12.1937 C   0  0  0  0  0  0  0  0  0  0  0  0
   -5.9402   14.5231  -12.9481 O   0  0  0  0  0  0  0  0  0  0  0  0
   -5.9634   10.4852   -7.7356 C   0  0  0  0  0  0  0  0  0  0  0  0
   -4.8111    9.7655   -8.0524 C   0  0  0  0  0  0  0  0  0  0  0  0
   -3.5521   10.3143   -7.8018 C   0  0  0  0  0  0  0  0  0  0  0  0
   -3.4442   11.5871   -7.2318 C   0  0  0  0  0  0  0  0  0  0  0  0
   -4.5964   12.3037   -6.9134 C   0  0  0  0  0  0  0  0  0  0  0  0
   -5.8531   11.7536   -7.1622 C   0  0  0  0  0  0  0  0  0  0  0  0
   -2.1000   12.1772   -6.9659 C   0  0  0  0  0  0  0  0  0  0  0  0
   -1.7711   13.4213   -6.4318 C   0  0  0  0  0  0  0  0  0  0  0  0
   -0.4319   13.4866   -6.3915 N   0  0  3  0  0  0  0  0  0  0  0  0
    0.1707   12.4146   -6.8487 N   0  0  0  0  0  0  0  0  0  0  0  0
   -0.8042   11.5996   -7.2054 C   0  0  0  0  0  0  0  0  0  0  0  0
    0.3852   14.5927   -5.9060 C   0  0  0  0  0  0  0  0  0  0  0  0
   -3.7189   12.5724  -10.8441 C   0  0  0  0  0  0  0  0  0  0  0  0
   -2.2354   12.9457  -10.9732 C   0  0  0  0  0  0  0  0  0  0  0  0
   -2.1905   14.4637  -10.9533 C   0  0  0  0  0  0  0  0  0  0  0  0
   -3.5123   14.9092  -11.5998 C   0  0  0  0  0  0  0  0  0  0  0  0
   -1.7098   12.4700  -12.1164 F   0  0  0  0  0  0  0  0  0  0  0  0
   -1.5166   12.4356   -9.9564 F   0  0  0  0  0  0  0  0  0  0  0  0
   -6.0766   12.2858   -9.8743 H   0  0  0  0  0  0  0  0  0  0  0  0
   -8.1756   10.1191  -13.8942 H   0  0  0  0  0  0  0  0  0  0  0  0
   -6.8889   12.2463  -14.0896 H   0  0  0  0  0  0  0  0  0  0  0  0
   -8.6453    7.9752   -9.4358 H   0  0  0  0  0  0  0  0  0  0  0  0
   -8.0383    9.6050   -7.2579 H   0  0  0  0  0  0  0  0  0  0  0  0
   -4.8931    8.7825   -8.4921 H   0  0  0  0  0  0  0  0  0  0  0  0
   -2.6611    9.7559   -8.0481 H   0  0  0  0  0  0  0  0  0  0  0  0
   -4.5156   13.2866   -6.4733 H   0  0  0  0  0  0  0  0  0  0  0  0
   -6.7439   12.3101   -6.9107 H   0  0  0  0  0  0  0  0  0  0  0  0
   -2.1699   14.2240   -7.0694 H   0  0  0  0  0  0  0  0  0  0  0  0
   -2.1852   13.5189   -5.4174 H   0  0  0  0  0  0  0  0  0  0  0  0
   -0.6481   10.6174   -7.6264 H   0  0  0  0  0  0  0  0  0  0  0  0
    1.4497   14.3348   -6.0072 H   0  0  0  0  0  0  0  0  0  0  0  0
    0.1689   15.4951   -6.4967 H   0  0  0  0  0  0  0  0  0  0  0  0
    0.1531   14.7829   -4.8477 H   0  0  0  0  0  0  0  0  0  0  0  0
   -4.0230   12.4902   -9.7902 H   0  0  0  0  0  0  0  0  0  0  0  0
   -3.9436   11.6300  -11.3651 H   0  0  0  0  0  0  0  0  0  0  0  0
   -2.1210   14.8350   -9.9202 H   0  0  0  0  0  0  0  0  0  0  0  0
   -1.3323   14.8328  -11.5341 H   0  0  0  0  0  0  0  0  0  0  0  0
   -3.3578   15.1968  -12.6502 H   0  0  0  0  0  0  0  0  0  0  0  0
   -3.9532   15.7535  -11.0495 H   0  0  0  0  0  0  0  0  0  0  0  0
  1  2  2  0  0  0  0
  1  4  1  0  0  0  0
  1 12  1  0  0  0  0
  2  6  1  0  0  0  0
  3  4  2  0  0  0  0
  3  5  1  0  0  0  0
  5  6  1  0  0  0  0
  5  9  2  0  0  0  0
  6  7  2  0  0  0  0
  7  8  1  0  0  0  0
  7 10  1  0  0  0  0
  8  9  1  0  0  0  0
 10 14  2  0  0  0  0
 11 12  1  0  0  0  0
 11 26  1  0  0  0  0
 11 29  1  0  0  0  0
 12 13  2  0  0  0  0
 14 15  1  0  0  0  0
 14 19  1  0  0  0  0
 15 16  2  0  0  0  0
 16 17  1  0  0  0  0
 17 18  1  0  0  0  0
 17 20  2  0  0  0  0
 18 19  2  0  0  0  0
 20 21  1  0  0  0  0
 20 24  1  0  0  0  0
 21 22  1  0  0  0  0
 22 23  1  0  0  0  0
 22 25  1  0  0  0  0
 23 24  2  0  0  0  0
 26 27  1  0  0  0  0
 27 28  1  0  0  0  0
 27 30  1  0  0  0  0
 27 31  1  0  0  0  0
 28 29  1  0  0  0  0
  2 32  1  0  0  0  0
  3 33  1  0  0  0  0
  4 34  1  0  0  0  0
  8 35  1  0  0  0  0
 10 36  1  0  0  0  0
 15 37  1  0  0  0  0
 16 38  1  0  0  0  0
 18 39  1  0  0  0  0
 19 40  1  0  0  0  0
 21 41  1  0  0  0  0
 21 42  1  0  0  0  0
 24 43  1  0  0  0  0
 25 44  1  0  0  0  0
 25 45  1  0  0  0  0
 25 46  1  0  0  0  0
 26 47  1  0  0  0  0
 26 48  1  0  0  0  0
 28 49  1  0  0  0  0
 28 50  1  0  0  0  0
 29 51  1  0  0  0  0
 29 52  1  0  0  0  0
M  END
> <Name>
38

> <IC50[uM]>
0.005

$$$$
38
  -OEChem-05192314333D
 Structure written by MMmdl.
 52 56  0     1  0  0  0  0  0999 V2000
   -6.3676   12.3632  -12.0183 C   0  0  0  0  0  0  0  0  0  0  0  0
   -6.5148   11.8066  -10.7373 C   0  0  0  0  0  0  0  0  0  0  0  0
   -7.7147   10.5754  -13.0306 C   0  0  0  0  0  0  0  0  0  0  0  0
   -6.9819   11.7689  -13.1253 C   0  0  0  0  0  0  0  0  0  0  0  0
   -7.8143   10.0109  -11.7564 C   0  0  0  0  0  0  0  0  0  0  0  0
   -7.2414   10.6177  -10.6023 C   0  0  0  0  0  0  0  0  0  0  0  0
   -7.6126    9.7466   -9.5122 C   0  0  0  0  0  0  0  0  0  0  0  0
   -8.2846    8.7319   -9.9810 N   0  0  0  0  0  0  0  0  0  0  0  0
   -8.4146    8.8618  -11.2972 N   0  0  0  0  0  0  0  0  0  0  0  0
   -7.3363    9.8918   -8.0268 C   0  0  0  0  0  0  0  0  0  0  0  0
   -4.3648   13.7196  -11.5032 N   0  0  0  0  0  0  0  0  0  0  0  0
   -5.5453   13.6325  -12.1937 C   0  0  0  0  0  0  0  0  0  0  0  0
   -5.9402   14.5231  -12.9481 O   0  0  0  0  0  0  0  0  0  0  0  0
   -5.9634   10.4852   -7.7356 C   0  0  0  0  0  0  0  0  0  0  0  0
   -4.8111    9.7655   -8.0524 C   0  0  0  0  0  0  0  0  0  0  0  0
   -3.5521   10.3143   -7.8018 C   0  0  0  0  0  0  0  0  0  0  0  0
   -3.4442   11.5871   -7.2318 C   0  0  0  0  0  0  0  0  0  0  0  0
   -4.5964   12.3037   -6.9134 C   0  0  0  0  0  0  0  0  0  0  0  0
   -5.8531   11.7536   -7.1622 C   0  0  0  0  0  0  0  0  0  0  0  0
   -2.1000   12.1772   -6.9659 C   0  0  0  0  0  0  0  0  0  0  0  0
   -1.7711   13.4213   -6.4318 C   0  0  0  0  0  0  0  0  0  0  0  0
   -0.4319   13.4866   -6.3915 N   0  0  3  0  0  0  0  0  0  0  0  0
    0.1707   12.4146   -6.8487 N   0  0  0  0  0  0  0  0  0  0  0  0
   -0.8042   11.5996   -7.2054 C   0  0  0  0  0  0  0  0  0  0  0  0
    0.3852   14.5927   -5.9060 C   0  0  0  0  0  0  0  0  0  0  0  0
   -3.7189   12.5724  -10.8441 C   0  0  0  0  0  0  0  0  0  0  0  0
   -2.2354   12.9457  -10.9732 C   0  0  0  0  0  0  0  0  0  0  0  0
   -2.1905   14.4637  -10.9533 C   0  0  0  0  0  0  0  0  0  0  0  0
   -3.5123   14.9092  -11.5998 C   0  0  0  0  0  0  0  0  0  0  0  0
   -1.7098   12.4700  -12.1164 F   0  0  0  0  0  0  0  0  0  0  0  0
   -1.5166   12.4356   -9.9564 F   0  0  0  0  0  0  0  0  0  0  0  0
   -6.0766   12.2858   -9.8743 H   0  0  0  0  0  0  0  0  0  0  0  0
   -8.1756   10.1191  -13.8942 H   0  0  0  0  0  0  0  0  0  0  0  0
   -6.8889   12.2463  -14.0896 H   0  0  0  0  0  0  0  0  0  0  0  0
   -8.8904    8.2048  -11.8819 H   0  0  0  0  0  0  0  0  0  0  0  0
   -8.0383    9.6050   -7.2579 H   0  0  0  0  0  0  0  0  0  0  0  0
   -4.8931    8.7825   -8.4921 H   0  0  0  0  0  0  0  0  0  0  0  0
   -2.6611    9.7559   -8.0481 H   0  0  0  0  0  0  0  0  0  0  0  0
   -4.5156   13.2866   -6.4733 H   0  0  0  0  0  0  0  0  0  0  0  0
   -6.7439   12.3101   -6.9107 H   0  0  0  0  0  0  0  0  0  0  0  0
   -2.1699   14.2240   -7.0694 H   0  0  0  0  0  0  0  0  0  0  0  0
   -2.1852   13.5189   -5.4174 H   0  0  0  0  0  0  0  0  0  0  0  0
   -0.6481   10.6174   -7.6264 H   0  0  0  0  0  0  0  0  0  0  0  0
    1.4497   14.3348   -6.0072 H   0  0  0  0  0  0  0  0  0  0  0  0
    0.1689   15.4951   -6.4967 H   0  0  0  0  0  0  0  0  0  0  0  0
    0.1531   14.7829   -4.8477 H   0  0  0  0  0  0  0  0  0  0  0  0
   -4.0230   12.4902   -9.7902 H   0  0  0  0  0  0  0  0  0  0  0  0
   -3.9436   11.6300  -11.3651 H   0  0  0  0  0  0  0  0  0  0  0  0
   -2.1210   14.8350   -9.9202 H   0  0  0  0  0  0  0  0  0  0  0  0
   -1.3323   14.8328  -11.5341 H   0  0  0  0  0  0  0  0  0  0  0  0
   -3.3578   15.1968  -12.6502 H   0  0  0  0  0  0  0  0  0  0  0  0
   -3.9532   15.7535  -11.0495 H   0  0  0  0  0  0  0  0  0  0  0  0
  1  2  2  0  0  0  0
  1  4  1  0  0  0  0
  1 12  1  0  0  0  0
  2  6  1  0  0  0  0
  3  4  2  0  0  0  0
  3  5  1  0  0  0  0
  5  6  2  0  0  0  0
  5  9  1  0  0  0  0
  6  7  1  0  0  0  0
  7  8  2  0  0  0  0
  7 10  1  0  0  0  0
  8  9  1  0  0  0  0
 10 14  2  0  0  0  0
 11 12  1  0  0  0  0
 11 26  1  0  0  0  0
 11 29  1  0  0  0  0
 12 13  2  0  0  0  0
 14 15  1  0  0  0  0
 14 19  1  0  0  0  0
 15 16  2  0  0  0  0
 16 17  1  0  0  0  0
 17 18  1  0  0  0  0
 17 20  2  0  0  0  0
 18 19  2  0  0  0  0
 20 21  1  0  0  0  0
 20 24  1  0  0  0  0
 21 22  1  0  0  0  0
 22 23  1  0  0  0  0
 22 25  1  0  0  0  0
 23 24  2  0  0  0  0
 26 27  1  0  0  0  0
 27 28  1  0  0  0  0
 27 30  1  0  0  0  0
 27 31  1  0  0  0  0
 28 29  1  0  0  0  0
  2 32  1  0  0  0  0
  3 33  1  0  0  0  0
  4 34  1  0  0  0  0
  9 35  1  0  0  0  0
 10 36  1  0  0  0  0
 15 37  1  0  0  0  0
 16 38  1  0  0  0  0
 18 39  1  0  0  0  0
 19 40  1  0  0  0  0
 21 41  1  0  0  0  0
 21 42  1  0  0  0  0
 24 43  1  0  0  0  0
 25 44  1  0  0  0  0
 25 45  1  0  0  0  0
 25 46  1  0  0  0  0
 26 47  1  0  0  0  0
 26 48  1  0  0  0  0
 28 49  1  0  0  0  0
 28 50  1  0  0  0  0
 29 51  1  0  0  0  0
 29 52  1  0  0  0  0
M  END
> <Name>
38

> <IC50[uM]>
0.005

$$$$
38
  -OEChem-05192314333D
 Structure written by MMmdl.
 52 56  0     0  0  0  0  0  0999 V2000
   -6.3676   12.3632  -12.0183 C   0  0  0  0  0  0  0  0  0  0  0  0
   -6.5148   11.8066  -10.7373 C   0  0  0  0  0  0  0  0  0  0  0  0
   -7.7147   10.5754  -13.0306 C   0  0  0  0  0  0  0  0  0  0  0  0
   -6.9819   11.7689  -13.1253 C   0  0  0  0  0  0  0  0  0  0  0  0
   -7.8143   10.0109  -11.7564 C   0  0  0  0  0  0  0  0  0  0  0  0
   -7.2414   10.6177  -10.6023 C   0  0  0  0  0  0  0  0  0  0  0  0
   -7.6126    9.7466   -9.5122 C   0  0  0  0  0  0  0  0  0  0  0  0
   -8.2846    8.7319   -9.9810 N   0  0  0  0  0  0  0  0  0  0  0  0
   -8.4146    8.8618  -11.2972 N   0  0  0  0  0  0  0  0  0  0  0  0
   -7.3363    9.8918   -8.0268 C   0  0  0  0  0  0  0  0  0  0  0  0
   -4.3648   13.7196  -11.5032 N   0  0  0  0  0  0  0  0  0  0  0  0
   -5.5453   13.6325  -12.1937 C   0  0  0  0  0  0  0  0  0  0  0  0
   -5.9402   14.5231  -12.9481 O   0  0  0  0  0  0  0  0  0  0  0  0
   -5.9634   10.4852   -7.7356 C   0  0  0  0  0  0  0  0  0  0  0  0
   -4.8111    9.7655   -8.0524 C   0  0  0  0  0  0  0  0  0  0  0  0
   -3.5521   10.3143   -7.8018 C   0  0  0  0  0  0  0  0  0  0  0  0
   -3.4442   11.5871   -7.2318 C   0  0  0  0  0  0  0  0  0  0  0  0
   -4.5964   12.3037   -6.9134 C   0  0  0  0  0  0  0  0  0  0  0  0
   -5.8531   11.7536   -7.1622 C   0  0  0  0  0  0  0  0  0  0  0  0
   -2.1000   12.1772   -6.9659 C   0  0  0  0  0  0  0  0  0  0  0  0
   -1.7711   13.4213   -6.4318 C   0  0  0  0  0  0  0  0  0  0  0  0
   -0.4319   13.4866   -6.3915 N   0  0  0  0  0  0  0  0  0  0  0  0
    0.1707   12.4146   -6.8487 N   0  0  0  0  0  0  0  0  0  0  0  0
   -0.8042   11.5996   -7.2054 C   0  0  0  0  0  0  0  0  0  0  0  0
    0.3852   14.5927   -5.9060 C   0  0  0  0  0  0  0  0  0  0  0  0
   -3.7189   12.5724  -10.8441 C   0  0  0  0  0  0  0  0  0  0  0  0
   -2.2354   12.9457  -10.9732 C   0  0  0  0  0  0  0  0  0  0  0  0
   -2.1905   14.4637  -10.9533 C   0  0  0  0  0  0  0  0  0  0  0  0
   -3.5123   14.9092  -11.5998 C   0  0  0  0  0  0  0  0  0  0  0  0
   -1.7098   12.4700  -12.1164 F   0  0  0  0  0  0  0  0  0  0  0  0
   -1.5166   12.4356   -9.9564 F   0  0  0  0  0  0  0  0  0  0  0  0
   -6.0766   12.2858   -9.8743 H   0  0  0  0  0  0  0  0  0  0  0  0
   -8.1756   10.1191  -13.8942 H   0  0  0  0  0  0  0  0  0  0  0  0
   -6.8889   12.2463  -14.0896 H   0  0  0  0  0  0  0  0  0  0  0  0
   -8.6453    7.9752   -9.4358 H   0  0  0  0  0  0  0  0  0  0  0  0
   -8.0383    9.6050   -7.2579 H   0  0  0  0  0  0  0  0  0  0  0  0
   -4.8931    8.7825   -8.4921 H   0  0  0  0  0  0  0  0  0  0  0  0
   -2.6611    9.7559   -8.0481 H   0  0  0  0  0  0  0  0  0  0  0  0
   -3.4458   11.1378   -6.2277 H   0  0  0  0  0  0  0  0  0  0  0  0
   -4.5156   13.2866   -6.4733 H   0  0  0  0  0  0  0  0  0  0  0  0
   -6.7439   12.3101   -6.9107 H   0  0  0  0  0  0  0  0  0  0  0  0
   -2.4623   14.1868   -6.1115 H   0  0  0  0  0  0  0  0  0  0  0  0
   -0.6481   10.6174   -7.6264 H   0  0  0  0  0  0  0  0  0  0  0  0
    1.4497   14.3348   -6.0072 H   0  0  0  0  0  0  0  0  0  0  0  0
    0.1689   15.4951   -6.4967 H   0  0  0  0  0  0  0  0  0  0  0  0
    0.1531   14.7829   -4.8477 H   0  0  0  0  0  0  0  0  0  0  0  0
   -4.0230   12.4902   -9.7902 H   0  0  0  0  0  0  0  0  0  0  0  0
   -3.9436   11.6300  -11.3651 H   0  0  0  0  0  0  0  0  0  0  0  0
   -2.1210   14.8350   -9.9202 H   0  0  0  0  0  0  0  0  0  0  0  0
   -1.3323   14.8328  -11.5341 H   0  0  0  0  0  0  0  0  0  0  0  0
   -3.3578   15.1968  -12.6502 H   0  0  0  0  0  0  0  0  0  0  0  0
   -3.9532   15.7535  -11.0495 H   0  0  0  0  0  0  0  0  0  0  0  0
  1  2  2  0  0  0  0
  1  4  1  0  0  0  0
  1 12  1  0  0  0  0
  2  6  1  0  0  0  0
  3  4  2  0  0  0  0
  3  5  1  0  0  0  0
  5  6  1  0  0  0  0
  5  9  2  0  0  0  0
  6  7  2  0  0  0  0
  7  8  1  0  0  0  0
  7 10  1  0  0  0  0
  8  9  1  0  0  0  0
 10 14  2  0  0  0  0
 11 12  1  0  0  0  0
 11 26  1  0  0  0  0
 11 29  1  0  0  0  0
 12 13  2  0  0  0  0
 14 15  1  0  0  0  0
 14 19  1  0  0  0  0
 15 16  2  0  0  0  0
 16 17  1  0  0  0  0
 17 18  1  0  0  0  0
 17 20  1  0  0  0  0
 18 19  2  0  0  0  0
 20 21  2  0  0  0  0
 20 24  1  0  0  0  0
 21 22  1  0  0  0  0
 22 23  1  0  0  0  0
 22 25  1  0  0  0  0
 23 24  2  0  0  0  0
 26 27  1  0  0  0  0
 27 28  1  0  0  0  0
 27 30  1  0  0  0  0
 27 31  1  0  0  0  0
 28 29  1  0  0  0  0
  2 32  1  0  0  0  0
  3 33  1  0  0  0  0
  4 34  1  0  0  0  0
  8 35  1  0  0  0  0
 10 36  1  0  0  0  0
 15 37  1  0  0  0  0
 16 38  1  0  0  0  0
 17 39  1  0  0  0  0
 18 40  1  0  0  0  0
 19 41  1  0  0  0  0
 21 42  1  0  0  0  0
 24 43  1  0  0  0  0
 25 44  1  0  0  0  0
 25 45  1  0  0  0  0
 25 46  1  0  0  0  0
 26 47  1  0  0  0  0
 26 48  1  0  0  0  0
 28 49  1  0  0  0  0
 28 50  1  0  0  0  0
 29 51  1  0  0  0  0
 29 52  1  0  0  0  0
M  END
> <Name>
38

> <IC50[uM]>
0.005

$$$$
38
  -OEChem-05192314333D
 Structure written by MMmdl.
 52 56  0     0  0  0  0  0  0999 V2000
   -6.3676   12.3632  -12.0183 C   0  0  0  0  0  0  0  0  0  0  0  0
   -6.5148   11.8066  -10.7373 C   0  0  0  0  0  0  0  0  0  0  0  0
   -7.7147   10.5754  -13.0306 C   0  0  0  0  0  0  0  0  0  0  0  0
   -6.9819   11.7689  -13.1253 C   0  0  0  0  0  0  0  0  0  0  0  0
   -7.8143   10.0109  -11.7564 C   0  0  0  0  0  0  0  0  0  0  0  0
   -7.2414   10.6177  -10.6023 C   0  0  0  0  0  0  0  0  0  0  0  0
   -7.6126    9.7466   -9.5122 C   0  0  0  0  0  0  0  0  0  0  0  0
   -8.2846    8.7319   -9.9810 N   0  0  0  0  0  0  0  0  0  0  0  0
   -8.4146    8.8618  -11.2972 N   0  0  0  0  0  0  0  0  0  0  0  0
   -7.3363    9.8918   -8.0268 C   0  0  0  0  0  0  0  0  0  0  0  0
   -4.3648   13.7196  -11.5032 N   0  0  0  0  0  0  0  0  0  0  0  0
   -5.5453   13.6325  -12.1937 C   0  0  0  0  0  0  0  0  0  0  0  0
   -5.9402   14.5231  -12.9481 O   0  0  0  0  0  0  0  0  0  0  0  0
   -5.9634   10.4852   -7.7356 C   0  0  0  0  0  0  0  0  0  0  0  0
   -4.8111    9.7655   -8.0524 C   0  0  0  0  0  0  0  0  0  0  0  0
   -3.5521   10.3143   -7.8018 C   0  0  0  0  0  0  0  0  0  0  0  0
   -3.4442   11.5871   -7.2318 C   0  0  0  0  0  0  0  0  0  0  0  0
   -4.5964   12.3037   -6.9134 C   0  0  0  0  0  0  0  0  0  0  0  0
   -5.8531   11.7536   -7.1622 C   0  0  0  0  0  0  0  0  0  0  0  0
   -2.1000   12.1772   -6.9659 C   0  0  0  0  0  0  0  0  0  0  0  0
   -1.7711   13.4213   -6.4318 C   0  0  0  0  0  0  0  0  0  0  0  0
   -0.4319   13.4866   -6.3915 N   0  0  0  0  0  0  0  0  0  0  0  0
    0.1707   12.4146   -6.8487 N   0  0  0  0  0  0  0  0  0  0  0  0
   -0.8042   11.5996   -7.2054 C   0  0  0  0  0  0  0  0  0  0  0  0
    0.3852   14.5927   -5.9060 C   0  0  0  0  0  0  0  0  0  0  0  0
   -3.7189   12.5724  -10.8441 C   0  0  0  0  0  0  0  0  0  0  0  0
   -2.2354   12.9457  -10.9732 C   0  0  0  0  0  0  0  0  0  0  0  0
   -2.1905   14.4637  -10.9533 C   0  0  0  0  0  0  0  0  0  0  0  0
   -3.5123   14.9092  -11.5998 C   0  0  0  0  0  0  0  0  0  0  0  0
   -1.7098   12.4700  -12.1164 F   0  0  0  0  0  0  0  0  0  0  0  0
   -1.5166   12.4356   -9.9564 F   0  0  0  0  0  0  0  0  0  0  0  0
   -6.0766   12.2858   -9.8743 H   0  0  0  0  0  0  0  0  0  0  0  0
   -8.1756   10.1191  -13.8942 H   0  0  0  0  0  0  0  0  0  0  0  0
   -6.8889   12.2463  -14.0896 H   0  0  0  0  0  0  0  0  0  0  0  0
   -8.8904    8.2048  -11.8819 H   0  0  0  0  0  0  0  0  0  0  0  0
   -8.0383    9.6050   -7.2579 H   0  0  0  0  0  0  0  0  0  0  0  0
   -4.8931    8.7825   -8.4921 H   0  0  0  0  0  0  0  0  0  0  0  0
   -2.6611    9.7559   -8.0481 H   0  0  0  0  0  0  0  0  0  0  0  0
   -3.4458   11.1378   -6.2277 H   0  0  0  0  0  0  0  0  0  0  0  0
   -4.5156   13.2866   -6.4733 H   0  0  0  0  0  0  0  0  0  0  0  0
   -6.7439   12.3101   -6.9107 H   0  0  0  0  0  0  0  0  0  0  0  0
   -2.4623   14.1868   -6.1115 H   0  0  0  0  0  0  0  0  0  0  0  0
   -0.6481   10.6174   -7.6264 H   0  0  0  0  0  0  0  0  0  0  0  0
    1.4497   14.3348   -6.0072 H   0  0  0  0  0  0  0  0  0  0  0  0
    0.1689   15.4951   -6.4967 H   0  0  0  0  0  0  0  0  0  0  0  0
    0.1531   14.7829   -4.8477 H   0  0  0  0  0  0  0  0  0  0  0  0
   -4.0230   12.4902   -9.7902 H   0  0  0  0  0  0  0  0  0  0  0  0
   -3.9436   11.6300  -11.3651 H   0  0  0  0  0  0  0  0  0  0  0  0
   -2.1210   14.8350   -9.9202 H   0  0  0  0  0  0  0  0  0  0  0  0
   -1.3323   14.8328  -11.5341 H   0  0  0  0  0  0  0  0  0  0  0  0
   -3.3578   15.1968  -12.6502 H   0  0  0  0  0  0  0  0  0  0  0  0
   -3.9532   15.7535  -11.0495 H   0  0  0  0  0  0  0  0  0  0  0  0
  1  2  2  0  0  0  0
  1  4  1  0  0  0  0
  1 12  1  0  0  0  0
  2  6  1  0  0  0  0
  3  4  2  0  0  0  0
  3  5  1  0  0  0  0
  5  6  2  0  0  0  0
  5  9  1  0  0  0  0
  6  7  1  0  0  0  0
  7  8  2  0  0  0  0
  7 10  1  0  0  0  0
  8  9  1  0  0  0  0
 10 14  2  0  0  0  0
 11 12  1  0  0  0  0
 11 26  1  0  0  0  0
 11 29  1  0  0  0  0
 12 13  2  0  0  0  0
 14 15  1  0  0  0  0
 14 19  1  0  0  0  0
 15 16  2  0  0  0  0
 16 17  1  0  0  0  0
 17 18  1  0  0  0  0
 17 20  1  0  0  0  0
 18 19  2  0  0  0  0
 20 21  2  0  0  0  0
 20 24  1  0  0  0  0
 21 22  1  0  0  0  0
 22 23  1  0  0  0  0
 22 25  1  0  0  0  0
 23 24  2  0  0  0  0
 26 27  1  0  0  0  0
 27 28  1  0  0  0  0
 27 30  1  0  0  0  0
 27 31  1  0  0  0  0
 28 29  1  0  0  0  0
  2 32  1  0  0  0  0
  3 33  1  0  0  0  0
  4 34  1  0  0  0  0
  9 35  1  0  0  0  0
 10 36  1  0  0  0  0
 15 37  1  0  0  0  0
 16 38  1  0  0  0  0
 17 39  1  0  0  0  0
 18 40  1  0  0  0  0
 19 41  1  0  0  0  0
 21 42  1  0  0  0  0
 24 43  1  0  0  0  0
 25 44  1  0  0  0  0
 25 45  1  0  0  0  0
 25 46  1  0  0  0  0
 26 47  1  0  0  0  0
 26 48  1  0  0  0  0
 28 49  1  0  0  0  0
 28 50  1  0  0  0  0
 29 51  1  0  0  0  0
 29 52  1  0  0  0  0
M  END
> <Name>
38

> <IC50[uM]>
0.005

$$$$
38
  -OEChem-05192314333D
 Structure written by MMmdl.
 52 56  0     0  0  0  0  0  0999 V2000
   -6.3676   12.3632  -12.0183 C   0  0  0  0  0  0  0  0  0  0  0  0
   -6.5148   11.8066  -10.7373 C   0  0  0  0  0  0  0  0  0  0  0  0
   -7.7147   10.5754  -13.0306 C   0  0  0  0  0  0  0  0  0  0  0  0
   -6.9819   11.7689  -13.1253 C   0  0  0  0  0  0  0  0  0  0  0  0
   -7.8143   10.0109  -11.7564 C   0  0  0  0  0  0  0  0  0  0  0  0
   -7.2414   10.6177  -10.6023 C   0  0  0  0  0  0  0  0  0  0  0  0
   -7.6126    9.7466   -9.5122 C   0  0  0  0  0  0  0  0  0  0  0  0
   -8.2846    8.7319   -9.9810 N   0  0  0  0  0  0  0  0  0  0  0  0
   -8.4146    8.8618  -11.2972 N   0  0  0  0  0  0  0  0  0  0  0  0
   -7.3363    9.8918   -8.0268 C   0  0  0  0  0  0  0  0  0  0  0  0
   -4.3648   13.7196  -11.5032 N   0  0  0  0  0  0  0  0  0  0  0  0
   -5.5453   13.6325  -12.1937 C   0  0  0  0  0  0  0  0  0  0  0  0
   -5.9402   14.5231  -12.9481 O   0  0  0  0  0  0  0  0  0  0  0  0
   -5.9634   10.4852   -7.7356 C   0  0  0  0  0  0  0  0  0  0  0  0
   -4.8111    9.7655   -8.0524 C   0  0  0  0  0  0  0  0  0  0  0  0
   -3.5521   10.3143   -7.8018 C   0  0  0  0  0  0  0  0  0  0  0  0
   -3.4442   11.5871   -7.2318 C   0  0  0  0  0  0  0  0  0  0  0  0
   -4.5964   12.3037   -6.9134 C   0  0  0  0  0  0  0  0  0  0  0  0
   -5.8531   11.7536   -7.1622 C   0  0  0  0  0  0  0  0  0  0  0  0
   -2.1000   12.1772   -6.9659 C   0  0  0  0  0  0  0  0  0  0  0  0
   -1.7711   13.4213   -6.4318 C   0  0  0  0  0  0  0  0  0  0  0  0
   -0.4319   13.4866   -6.3915 N   0  0  0  0  0  0  0  0  0  0  0  0
    0.1707   12.4146   -6.8487 N   0  0  0  0  0  0  0  0  0  0  0  0
   -0.8042   11.5996   -7.2054 C   0  0  0  0  0  0  0  0  0  0  0  0
    0.3852   14.5927   -5.9060 C   0  0  0  0  0  0  0  0  0  0  0  0
   -3.7189   12.5724  -10.8441 C   0  0  0  0  0  0  0  0  0  0  0  0
   -2.2354   12.9457  -10.9732 C   0  0  0  0  0  0  0  0  0  0  0  0
   -2.1905   14.4637  -10.9533 C   0  0  0  0  0  0  0  0  0  0  0  0
   -3.5123   14.9092  -11.5998 C   0  0  0  0  0  0  0  0  0  0  0  0
   -1.7098   12.4700  -12.1164 F   0  0  0  0  0  0  0  0  0  0  0  0
   -1.5166   12.4356   -9.9564 F   0  0  0  0  0  0  0  0  0  0  0  0
   -6.0766   12.2858   -9.8743 H   0  0  0  0  0  0  0  0  0  0  0  0
   -8.1756   10.1191  -13.8942 H   0  0  0  0  0  0  0  0  0  0  0  0
   -6.8889   12.2463  -14.0896 H   0  0  0  0  0  0  0  0  0  0  0  0
   -8.6453    7.9752   -9.4358 H   0  0  0  0  0  0  0  0  0  0  0  0
   -8.0383    9.6050   -7.2579 H   0  0  0  0  0  0  0  0  0  0  0  0
   -4.8931    8.7825   -8.4921 H   0  0  0  0  0  0  0  0  0  0  0  0
   -2.6611    9.7559   -8.0481 H   0  0  0  0  0  0  0  0  0  0  0  0
   -4.5156   13.2866   -6.4733 H   0  0  0  0  0  0  0  0  0  0  0  0
   -6.3768   12.4508   -7.8327 H   0  0  0  0  0  0  0  0  0  0  0  0
   -6.3770   11.7109   -6.1959 H   0  0  0  0  0  0  0  0  0  0  0  0
   -2.4623   14.1868   -6.1115 H   0  0  0  0  0  0  0  0  0  0  0  0
   -0.6481   10.6174   -7.6264 H   0  0  0  0  0  0  0  0  0  0  0  0
    1.4497   14.3348   -6.0072 H   0  0  0  0  0  0  0  0  0  0  0  0
    0.1689   15.4951   -6.4967 H   0  0  0  0  0  0  0  0  0  0  0  0
    0.1531   14.7829   -4.8477 H   0  0  0  0  0  0  0  0  0  0  0  0
   -4.0230   12.4902   -9.7902 H   0  0  0  0  0  0  0  0  0  0  0  0
   -3.9436   11.6300  -11.3651 H   0  0  0  0  0  0  0  0  0  0  0  0
   -2.1210   14.8350   -9.9202 H   0  0  0  0  0  0  0  0  0  0  0  0
   -1.3323   14.8328  -11.5341 H   0  0  0  0  0  0  0  0  0  0  0  0
   -3.3578   15.1968  -12.6502 H   0  0  0  0  0  0  0  0  0  0  0  0
   -3.9532   15.7535  -11.0495 H   0  0  0  0  0  0  0  0  0  0  0  0
  1  2  2  0  0  0  0
  1  4  1  0  0  0  0
  1 12  1  0  0  0  0
  2  6  1  0  0  0  0
  3  4  2  0  0  0  0
  3  5  1  0  0  0  0
  5  6  1  0  0  0  0
  5  9  2  0  0  0  0
  6  7  2  0  0  0  0
  7  8  1  0  0  0  0
  7 10  1  0  0  0  0
  8  9  1  0  0  0  0
 10 14  2  3  0  0  0
 11 12  1  0  0  0  0
 11 26  1  0  0  0  0
 11 29  1  0  0  0  0
 12 13  2  0  0  0  0
 14 15  1  0  0  0  0
 14 19  1  0  0  0  0
 15 16  2  0  0  0  0
 16 17  1  0  0  0  0
 17 18  2  0  0  0  0
 17 20  1  0  0  0  0
 18 19  1  0  0  0  0
 20 21  2  0  0  0  0
 20 24  1  0  0  0  0
 21 22  1  0  0  0  0
 22 23  1  0  0  0  0
 22 25  1  0  0  0  0
 23 24  2  0  0  0  0
 26 27  1  0  0  0  0
 27 28  1  0  0  0  0
 27 30  1  0  0  0  0
 27 31  1  0  0  0  0
 28 29  1  0  0  0  0
  2 32  1  0  0  0  0
  3 33  1  0  0  0  0
  4 34  1  0  0  0  0
  8 35  1  0  0  0  0
 10 36  1  0  0  0  0
 15 37  1  0  0  0  0
 16 38  1  0  0  0  0
 18 39  1  0  0  0  0
 19 40  1  0  0  0  0
 19 41  1  0  0  0  0
 21 42  1  0  0  0  0
 24 43  1  0  0  0  0
 25 44  1  0  0  0  0
 25 45  1  0  0  0  0
 25 46  1  0  0  0  0
 26 47  1  0  0  0  0
 26 48  1  0  0  0  0
 28 49  1  0  0  0  0
 28 50  1  0  0  0  0
 29 51  1  0  0  0  0
 29 52  1  0  0  0  0
M  END
> <Name>
38

> <IC50[uM]>
0.005

$$$$
38
  -OEChem-05192314333D
 Structure written by MMmdl.
 52 56  0     0  0  0  0  0  0999 V2000
   -6.3676   12.3632  -12.0183 C   0  0  0  0  0  0  0  0  0  0  0  0
   -6.5148   11.8066  -10.7373 C   0  0  0  0  0  0  0  0  0  0  0  0
   -7.7147   10.5754  -13.0306 C   0  0  0  0  0  0  0  0  0  0  0  0
   -6.9819   11.7689  -13.1253 C   0  0  0  0  0  0  0  0  0  0  0  0
   -7.8143   10.0109  -11.7564 C   0  0  0  0  0  0  0  0  0  0  0  0
   -7.2414   10.6177  -10.6023 C   0  0  0  0  0  0  0  0  0  0  0  0
   -7.6126    9.7466   -9.5122 C   0  0  0  0  0  0  0  0  0  0  0  0
   -8.2846    8.7319   -9.9810 N   0  0  0  0  0  0  0  0  0  0  0  0
   -8.4146    8.8618  -11.2972 N   0  0  0  0  0  0  0  0  0  0  0  0
   -7.3363    9.8918   -8.0268 C   0  0  0  0  0  0  0  0  0  0  0  0
   -4.3648   13.7196  -11.5032 N   0  0  0  0  0  0  0  0  0  0  0  0
   -5.5453   13.6325  -12.1937 C   0  0  0  0  0  0  0  0  0  0  0  0
   -5.9402   14.5231  -12.9481 O   0  0  0  0  0  0  0  0  0  0  0  0
   -5.9634   10.4852   -7.7356 C   0  0  0  0  0  0  0  0  0  0  0  0
   -4.8111    9.7655   -8.0524 C   0  0  0  0  0  0  0  0  0  0  0  0
   -3.5521   10.3143   -7.8018 C   0  0  0  0  0  0  0  0  0  0  0  0
   -3.4442   11.5871   -7.2318 C   0  0  0  0  0  0  0  0  0  0  0  0
   -4.5964   12.3037   -6.9134 C   0  0  0  0  0  0  0  0  0  0  0  0
   -5.8531   11.7536   -7.1622 C   0  0  0  0  0  0  0  0  0  0  0  0
   -2.1000   12.1772   -6.9659 C   0  0  0  0  0  0  0  0  0  0  0  0
   -1.7711   13.4213   -6.4318 C   0  0  0  0  0  0  0  0  0  0  0  0
   -0.4319   13.4866   -6.3915 N   0  0  0  0  0  0  0  0  0  0  0  0
    0.1707   12.4146   -6.8487 N   0  0  0  0  0  0  0  0  0  0  0  0
   -0.8042   11.5996   -7.2054 C   0  0  0  0  0  0  0  0  0  0  0  0
    0.3852   14.5927   -5.9060 C   0  0  0  0  0  0  0  0  0  0  0  0
   -3.7189   12.5724  -10.8441 C   0  0  0  0  0  0  0  0  0  0  0  0
   -2.2354   12.9457  -10.9732 C   0  0  0  0  0  0  0  0  0  0  0  0
   -2.1905   14.4637  -10.9533 C   0  0  0  0  0  0  0  0  0  0  0  0
   -3.5123   14.9092  -11.5998 C   0  0  0  0  0  0  0  0  0  0  0  0
   -1.7098   12.4700  -12.1164 F   0  0  0  0  0  0  0  0  0  0  0  0
   -1.5166   12.4356   -9.9564 F   0  0  0  0  0  0  0  0  0  0  0  0
   -6.0766   12.2858   -9.8743 H   0  0  0  0  0  0  0  0  0  0  0  0
   -8.1756   10.1191  -13.8942 H   0  0  0  0  0  0  0  0  0  0  0  0
   -6.8889   12.2463  -14.0896 H   0  0  0  0  0  0  0  0  0  0  0  0
   -8.8904    8.2048  -11.8819 H   0  0  0  0  0  0  0  0  0  0  0  0
   -8.0383    9.6050   -7.2579 H   0  0  0  0  0  0  0  0  0  0  0  0
   -4.8931    8.7825   -8.4921 H   0  0  0  0  0  0  0  0  0  0  0  0
   -2.6611    9.7559   -8.0481 H   0  0  0  0  0  0  0  0  0  0  0  0
   -4.5156   13.2866   -6.4733 H   0  0  0  0  0  0  0  0  0  0  0  0
   -6.3768   12.4508   -7.8327 H   0  0  0  0  0  0  0  0  0  0  0  0
   -6.3770   11.7109   -6.1959 H   0  0  0  0  0  0  0  0  0  0  0  0
   -2.4623   14.1868   -6.1115 H   0  0  0  0  0  0  0  0  0  0  0  0
   -0.6481   10.6174   -7.6264 H   0  0  0  0  0  0  0  0  0  0  0  0
    1.4497   14.3348   -6.0072 H   0  0  0  0  0  0  0  0  0  0  0  0
    0.1689   15.4951   -6.4967 H   0  0  0  0  0  0  0  0  0  0  0  0
    0.1531   14.7829   -4.8477 H   0  0  0  0  0  0  0  0  0  0  0  0
   -4.0230   12.4902   -9.7902 H   0  0  0  0  0  0  0  0  0  0  0  0
   -3.9436   11.6300  -11.3651 H   0  0  0  0  0  0  0  0  0  0  0  0
   -2.1210   14.8350   -9.9202 H   0  0  0  0  0  0  0  0  0  0  0  0
   -1.3323   14.8328  -11.5341 H   0  0  0  0  0  0  0  0  0  0  0  0
   -3.3578   15.1968  -12.6502 H   0  0  0  0  0  0  0  0  0  0  0  0
   -3.9532   15.7535  -11.0495 H   0  0  0  0  0  0  0  0  0  0  0  0
  1  2  2  0  0  0  0
  1  4  1  0  0  0  0
  1 12  1  0  0  0  0
  2  6  1  0  0  0  0
  3  4  2  0  0  0  0
  3  5  1  0  0  0  0
  5  6  2  0  0  0  0
  5  9  1  0  0  0  0
  6  7  1  0  0  0  0
  7  8  2  0  0  0  0
  7 10  1  0  0  0  0
  8  9  1  0  0  0  0
 10 14  2  3  0  0  0
 11 12  1  0  0  0  0
 11 26  1  0  0  0  0
 11 29  1  0  0  0  0
 12 13  2  0  0  0  0
 14 15  1  0  0  0  0
 14 19  1  0  0  0  0
 15 16  2  0  0  0  0
 16 17  1  0  0  0  0
 17 18  2  0  0  0  0
 17 20  1  0  0  0  0
 18 19  1  0  0  0  0
 20 21  2  0  0  0  0
 20 24  1  0  0  0  0
 21 22  1  0  0  0  0
 22 23  1  0  0  0  0
 22 25  1  0  0  0  0
 23 24  2  0  0  0  0
 26 27  1  0  0  0  0
 27 28  1  0  0  0  0
 27 30  1  0  0  0  0
 27 31  1  0  0  0  0
 28 29  1  0  0  0  0
  2 32  1  0  0  0  0
  3 33  1  0  0  0  0
  4 34  1  0  0  0  0
  9 35  1  0  0  0  0
 10 36  1  0  0  0  0
 15 37  1  0  0  0  0
 16 38  1  0  0  0  0
 18 39  1  0  0  0  0
 19 40  1  0  0  0  0
 19 41  1  0  0  0  0
 21 42  1  0  0  0  0
 24 43  1  0  0  0  0
 25 44  1  0  0  0  0
 25 45  1  0  0  0  0
 25 46  1  0  0  0  0
 26 47  1  0  0  0  0
 26 48  1  0  0  0  0
 28 49  1  0  0  0  0
 28 50  1  0  0  0  0
 29 51  1  0  0  0  0
 29 52  1  0  0  0  0
M  END
> <Name>
38

> <IC50[uM]>
0.005

$$$$
38
  -OEChem-05192314333D
 Structure written by MMmdl.
 52 56  0     1  0  0  0  0  0999 V2000
   -6.3676   12.3632  -12.0183 C   0  0  0  0  0  0  0  0  0  0  0  0
   -6.5148   11.8066  -10.7373 C   0  0  0  0  0  0  0  0  0  0  0  0
   -7.7147   10.5754  -13.0306 C   0  0  0  0  0  0  0  0  0  0  0  0
   -6.9819   11.7689  -13.1253 C   0  0  0  0  0  0  0  0  0  0  0  0
   -7.8143   10.0109  -11.7564 C   0  0  0  0  0  0  0  0  0  0  0  0
   -7.2414   10.6177  -10.6023 C   0  0  0  0  0  0  0  0  0  0  0  0
   -7.6126    9.7466   -9.5122 C   0  0  0  0  0  0  0  0  0  0  0  0
   -8.2846    8.7319   -9.9810 N   0  0  0  0  0  0  0  0  0  0  0  0
   -8.4146    8.8618  -11.2972 N   0  0  0  0  0  0  0  0  0  0  0  0
   -7.3363    9.8918   -8.0268 C   0  0  0  0  0  0  0  0  0  0  0  0
   -4.3648   13.7196  -11.5032 N   0  0  0  0  0  0  0  0  0  0  0  0
   -5.5453   13.6325  -12.1937 C   0  0  0  0  0  0  0  0  0  0  0  0
   -5.9402   14.5231  -12.9481 O   0  0  0  0  0  0  0  0  0  0  0  0
   -5.9634   10.4852   -7.7356 C   0  0  0  0  0  0  0  0  0  0  0  0
   -4.8111    9.7655   -8.0524 C   0  0  0  0  0  0  0  0  0  0  0  0
   -3.5521   10.3143   -7.8018 C   0  0  0  0  0  0  0  0  0  0  0  0
   -3.4442   11.5871   -7.2318 C   0  0  0  0  0  0  0  0  0  0  0  0
   -4.5964   12.3037   -6.9134 C   0  0  0  0  0  0  0  0  0  0  0  0
   -5.8531   11.7536   -7.1622 C   0  0  0  0  0  0  0  0  0  0  0  0
   -2.1000   12.1772   -6.9659 C   0  0  3  0  0  0  0  0  0  0  0  0
   -1.7711   13.4213   -6.4318 C   0  0  0  0  0  0  0  0  0  0  0  0
   -0.4319   13.4866   -6.3915 N   0  0  3  0  0  0  0  0  0  0  0  0
    0.1707   12.4146   -6.8487 N   0  0  0  0  0  0  0  0  0  0  0  0
   -0.8042   11.5996   -7.2054 C   0  0  0  0  0  0  0  0  0  0  0  0
    0.3852   14.5927   -5.9060 C   0  0  0  0  0  0  0  0  0  0  0  0
   -3.7189   12.5724  -10.8441 C   0  0  0  0  0  0  0  0  0  0  0  0
   -2.2354   12.9457  -10.9732 C   0  0  0  0  0  0  0  0  0  0  0  0
   -2.1905   14.4637  -10.9533 C   0  0  0  0  0  0  0  0  0  0  0  0
   -3.5123   14.9092  -11.5998 C   0  0  0  0  0  0  0  0  0  0  0  0
   -1.7098   12.4700  -12.1164 F   0  0  0  0  0  0  0  0  0  0  0  0
   -1.5166   12.4356   -9.9564 F   0  0  0  0  0  0  0  0  0  0  0  0
   -6.0766   12.2858   -9.8743 H   0  0  0  0  0  0  0  0  0  0  0  0
   -8.1756   10.1191  -13.8942 H   0  0  0  0  0  0  0  0  0  0  0  0
   -6.8889   12.2463  -14.0896 H   0  0  0  0  0  0  0  0  0  0  0  0
   -8.0383    9.6050   -7.2579 H   0  0  0  0  0  0  0  0  0  0  0  0
   -4.8931    8.7825   -8.4921 H   0  0  0  0  0  0  0  0  0  0  0  0
   -2.6611    9.7559   -8.0481 H   0  0  0  0  0  0  0  0  0  0  0  0
   -4.5156   13.2866   -6.4733 H   0  0  0  0  0  0  0  0  0  0  0  0
   -6.7439   12.3101   -6.9107 H   0  0  0  0  0  0  0  0  0  0  0  0
   -2.1081   11.7436   -5.9550 H   0  0  0  0  0  0  0  0  0  0  0  0
   -2.1699   14.2240   -7.0694 H   0  0  0  0  0  0  0  0  0  0  0  0
   -2.1852   13.5189   -5.4174 H   0  0  0  0  0  0  0  0  0  0  0  0
   -0.6481   10.6174   -7.6264 H   0  0  0  0  0  0  0  0  0  0  0  0
    1.4497   14.3348   -6.0072 H   0  0  0  0  0  0  0  0  0  0  0  0
    0.1689   15.4951   -6.4967 H   0  0  0  0  0  0  0  0  0  0  0  0
    0.1531   14.7829   -4.8477 H   0  0  0  0  0  0  0  0  0  0  0  0
   -4.0230   12.4902   -9.7902 H   0  0  0  0  0  0  0  0  0  0  0  0
   -3.9436   11.6300  -11.3651 H   0  0  0  0  0  0  0  0  0  0  0  0
   -2.1210   14.8350   -9.9202 H   0  0  0  0  0  0  0  0  0  0  0  0
   -1.3323   14.8328  -11.5341 H   0  0  0  0  0  0  0  0  0  0  0  0
   -3.3578   15.1968  -12.6502 H   0  0  0  0  0  0  0  0  0  0  0  0
   -3.9532   15.7535  -11.0495 H   0  0  0  0  0  0  0  0  0  0  0  0
  1  2  2  0  0  0  0
  1  4  1  0  0  0  0
  1 12  1  0  0  0  0
  2  6  1  0  0  0  0
  3  4  2  0  0  0  0
  3  5  1  0  0  0  0
  5  6  2  0  0  0  0
  5  9  1  0  0  0  0
  6  7  1  0  0  0  0
  7  8  1  0  0  0  0
  7 10  2  3  0  0  0
  8  9  2  0  0  0  0
 10 14  1  0  0  0  0
 11 12  1  0  0  0  0
 11 26  1  0  0  0  0
 11 29  1  0  0  0  0
 12 13  2  0  0  0  0
 14 15  2  0  0  0  0
 14 19  1  0  0  0  0
 15 16  1  0  0  0  0
 16 17  2  0  0  0  0
 17 18  1  0  0  0  0
 17 20  1  0  0  0  0
 18 19  2  0  0  0  0
 20 21  1  0  0  0  0
 20 24  1  0  0  0  0
 21 22  1  0  0  0  0
 22 23  1  0  0  0  0
 22 25  1  0  0  0  0
 23 24  2  0  0  0  0
 26 27  1  0  0  0  0
 27 28  1  0  0  0  0
 27 30  1  0  0  0  0
 27 31  1  0  0  0  0
 28 29  1  0  0  0  0
  2 32  1  0  0  0  0
  3 33  1  0  0  0  0
  4 34  1  0  0  0  0
 10 35  1  0  0  0  0
 15 36  1  0  0  0  0
 16 37  1  0  0  0  0
 18 38  1  0  0  0  0
 19 39  1  0  0  0  0
 20 40  1  0  0  0  0
 21 41  1  0  0  0  0
 21 42  1  0  0  0  0
 24 43  1  0  0  0  0
 25 44  1  0  0  0  0
 25 45  1  0  0  0  0
 25 46  1  0  0  0  0
 26 47  1  0  0  0  0
 26 48  1  0  0  0  0
 28 49  1  0  0  0  0
 28 50  1  0  0  0  0
 29 51  1  0  0  0  0
 29 52  1  0  0  0  0
M  END
> <Name>
38

> <IC50[uM]>
0.005

$$$$
38
  -OEChem-05192314333D
 Structure written by MMmdl.
 52 56  0     1  0  0  0  0  0999 V2000
   -6.3676   12.3632  -12.0183 C   0  0  0  0  0  0  0  0  0  0  0  0
   -6.5148   11.8066  -10.7373 C   0  0  0  0  0  0  0  0  0  0  0  0
   -7.7147   10.5754  -13.0306 C   0  0  0  0  0  0  0  0  0  0  0  0
   -6.9819   11.7689  -13.1253 C   0  0  0  0  0  0  0  0  0  0  0  0
   -7.8143   10.0109  -11.7564 C   0  0  0  0  0  0  0  0  0  0  0  0
   -7.2414   10.6177  -10.6023 C   0  0  0  0  0  0  0  0  0  0  0  0
   -7.6126    9.7466   -9.5122 C   0  0  0  0  0  0  0  0  0  0  0  0
   -8.2846    8.7319   -9.9810 N   0  0  0  0  0  0  0  0  0  0  0  0
   -8.4146    8.8618  -11.2972 N   0  0  0  0  0  0  0  0  0  0  0  0
   -7.3363    9.8918   -8.0268 C   0  0  0  0  0  0  0  0  0  0  0  0
   -4.3648   13.7196  -11.5032 N   0  0  0  0  0  0  0  0  0  0  0  0
   -5.5453   13.6325  -12.1937 C   0  0  0  0  0  0  0  0  0  0  0  0
   -5.9402   14.5231  -12.9481 O   0  0  0  0  0  0  0  0  0  0  0  0
   -5.9634   10.4852   -7.7356 C   0  0  0  0  0  0  0  0  0  0  0  0
   -4.8111    9.7655   -8.0524 C   0  0  0  0  0  0  0  0  0  0  0  0
   -3.5521   10.3143   -7.8018 C   0  0  0  0  0  0  0  0  0  0  0  0
   -3.4442   11.5871   -7.2318 C   0  0  0  0  0  0  0  0  0  0  0  0
   -4.5964   12.3037   -6.9134 C   0  0  0  0  0  0  0  0  0  0  0  0
   -5.8531   11.7536   -7.1622 C   0  0  0  0  0  0  0  0  0  0  0  0
   -2.1000   12.1772   -6.9659 C   0  0  0  0  0  0  0  0  0  0  0  0
   -1.7711   13.4213   -6.4318 C   0  0  0  0  0  0  0  0  0  0  0  0
   -0.4319   13.4866   -6.3915 N   0  0  3  0  0  0  0  0  0  0  0  0
    0.1707   12.4146   -6.8487 N   0  0  0  0  0  0  0  0  0  0  0  0
   -0.8042   11.5996   -7.2054 C   0  0  0  0  0  0  0  0  0  0  0  0
    0.3852   14.5927   -5.9060 C   0  0  0  0  0  0  0  0  0  0  0  0
   -3.7189   12.5724  -10.8441 C   0  0  0  0  0  0  0  0  0  0  0  0
   -2.2354   12.9457  -10.9732 C   0  0  0  0  0  0  0  0  0  0  0  0
   -2.1905   14.4637  -10.9533 C   0  0  0  0  0  0  0  0  0  0  0  0
   -3.5123   14.9092  -11.5998 C   0  0  0  0  0  0  0  0  0  0  0  0
   -1.7098   12.4700  -12.1164 F   0  0  0  0  0  0  0  0  0  0  0  0
   -1.5166   12.4356   -9.9564 F   0  0  0  0  0  0  0  0  0  0  0  0
   -6.0766   12.2858   -9.8743 H   0  0  0  0  0  0  0  0  0  0  0  0
   -8.1756   10.1191  -13.8942 H   0  0  0  0  0  0  0  0  0  0  0  0
   -6.8889   12.2463  -14.0896 H   0  0  0  0  0  0  0  0  0  0  0  0
   -8.0383    9.6050   -7.2579 H   0  0  0  0  0  0  0  0  0  0  0  0
   -4.8931    8.7825   -8.4921 H   0  0  0  0  0  0  0  0  0  0  0  0
   -2.6611    9.7559   -8.0481 H   0  0  0  0  0  0  0  0  0  0  0  0
   -4.5156   13.2866   -6.4733 H   0  0  0  0  0  0  0  0  0  0  0  0
   -6.7439   12.3101   -6.9107 H   0  0  0  0  0  0  0  0  0  0  0  0
   -2.4623   14.1868   -6.1115 H   0  0  0  0  0  0  0  0  0  0  0  0
    0.7438   12.6425   -7.6359 H   0  0  0  0  0  0  0  0  0  0  0  0
   -0.7179   10.6675   -6.6278 H   0  0  0  0  0  0  0  0  0  0  0  0
   -0.7069   11.3766   -8.2781 H   0  0  0  0  0  0  0  0  0  0  0  0
    1.4498   14.3351   -6.0078 H   0  0  0  0  0  0  0  0  0  0  0  0
    0.1684   15.4952   -6.4963 H   0  0  0  0  0  0  0  0  0  0  0  0
    0.1536   14.7825   -4.8475 H   0  0  0  0  0  0  0  0  0  0  0  0
   -4.0230   12.4902   -9.7902 H   0  0  0  0  0  0  0  0  0  0  0  0
   -3.9436   11.6300  -11.3651 H   0  0  0  0  0  0  0  0  0  0  0  0
   -2.1210   14.8350   -9.9202 H   0  0  0  0  0  0  0  0  0  0  0  0
   -1.3323   14.8328  -11.5341 H   0  0  0  0  0  0  0  0  0  0  0  0
   -3.3578   15.1968  -12.6502 H   0  0  0  0  0  0  0  0  0  0  0  0
   -3.9532   15.7535  -11.0495 H   0  0  0  0  0  0  0  0  0  0  0  0
  1  2  2  0  0  0  0
  1  4  1  0  0  0  0
  1 12  1  0  0  0  0
  2  6  1  0  0  0  0
  3  4  2  0  0  0  0
  3  5  1  0  0  0  0
  5  6  2  0  0  0  0
  5  9  1  0  0  0  0
  6  7  1  0  0  0  0
  7  8  1  0  0  0  0
  7 10  2  3  0  0  0
  8  9  2  0  0  0  0
 10 14  1  0  0  0  0
 11 12  1  0  0  0  0
 11 26  1  0  0  0  0
 11 29  1  0  0  0  0
 12 13  2  0  0  0  0
 14 15  2  0  0  0  0
 14 19  1  0  0  0  0
 15 16  1  0  0  0  0
 16 17  2  0  0  0  0
 17 18  1  0  0  0  0
 17 20  1  0  0  0  0
 18 19  2  0  0  0  0
 20 21  2  0  0  0  0
 20 24  1  0  0  0  0
 21 22  1  0  0  0  0
 22 23  1  0  0  0  0
 22 25  1  0  0  0  0
 23 24  1  0  0  0  0
 26 27  1  0  0  0  0
 27 28  1  0  0  0  0
 27 30  1  0  0  0  0
 27 31  1  0  0  0  0
 28 29  1  0  0  0  0
  2 32  1  0  0  0  0
  3 33  1  0  0  0  0
  4 34  1  0  0  0  0
 10 35  1  0  0  0  0
 15 36  1  0  0  0  0
 16 37  1  0  0  0  0
 18 38  1  0  0  0  0
 19 39  1  0  0  0  0
 21 40  1  0  0  0  0
 23 41  1  0  0  0  0
 24 42  1  0  0  0  0
 24 43  1  0  0  0  0
 25 44  1  0  0  0  0
 25 45  1  0  0  0  0
 25 46  1  0  0  0  0
 26 47  1  0  0  0  0
 26 48  1  0  0  0  0
 28 49  1  0  0  0  0
 28 50  1  0  0  0  0
 29 51  1  0  0  0  0
 29 52  1  0  0  0  0
M  END
> <Name>
38

> <IC50[uM]>
0.005

$$$$
38
  -OEChem-05192314333D
 Structure written by MMmdl.
 52 56  0     1  0  0  0  0  0999 V2000
   -6.3676   12.3632  -12.0183 C   0  0  0  0  0  0  0  0  0  0  0  0
   -6.5148   11.8066  -10.7373 C   0  0  0  0  0  0  0  0  0  0  0  0
   -7.7147   10.5754  -13.0306 C   0  0  0  0  0  0  0  0  0  0  0  0
   -6.9819   11.7689  -13.1253 C   0  0  0  0  0  0  0  0  0  0  0  0
   -7.8143   10.0109  -11.7564 C   0  0  0  0  0  0  0  0  0  0  0  0
   -7.2414   10.6177  -10.6023 C   0  0  0  0  0  0  0  0  0  0  0  0
   -7.6126    9.7466   -9.5122 C   0  0  0  0  0  0  0  0  0  0  0  0
   -8.2846    8.7319   -9.9810 N   0  0  0  0  0  0  0  0  0  0  0  0
   -8.4146    8.8618  -11.2972 N   0  0  0  0  0  0  0  0  0  0  0  0
   -7.3363    9.8918   -8.0268 C   0  0  0  0  0  0  0  0  0  0  0  0
   -4.3648   13.7196  -11.5032 N   0  0  0  0  0  0  0  0  0  0  0  0
   -5.5453   13.6325  -12.1937 C   0  0  0  0  0  0  0  0  0  0  0  0
   -5.9402   14.5231  -12.9481 O   0  0  0  0  0  0  0  0  0  0  0  0
   -5.9634   10.4852   -7.7356 C   0  0  0  0  0  0  0  0  0  0  0  0
   -4.8111    9.7655   -8.0524 C   0  0  0  0  0  0  0  0  0  0  0  0
   -3.5521   10.3143   -7.8018 C   0  0  0  0  0  0  0  0  0  0  0  0
   -3.4442   11.5871   -7.2318 C   0  0  0  0  0  0  0  0  0  0  0  0
   -4.5964   12.3037   -6.9134 C   0  0  0  0  0  0  0  0  0  0  0  0
   -5.8531   11.7536   -7.1622 C   0  0  0  0  0  0  0  0  0  0  0  0
   -2.1000   12.1772   -6.9659 C   0  0  0  0  0  0  0  0  0  0  0  0
   -1.7711   13.4213   -6.4318 C   0  0  0  0  0  0  0  0  0  0  0  0
   -0.4319   13.4866   -6.3915 N   0  0  3  0  0  0  0  0  0  0  0  0
    0.1707   12.4146   -6.8487 N   0  0  0  0  0  0  0  0  0  0  0  0
   -0.8042   11.5996   -7.2054 C   0  0  0  0  0  0  0  0  0  0  0  0
    0.3852   14.5927   -5.9060 C   0  0  0  0  0  0  0  0  0  0  0  0
   -3.7189   12.5724  -10.8441 C   0  0  0  0  0  0  0  0  0  0  0  0
   -2.2354   12.9457  -10.9732 C   0  0  0  0  0  0  0  0  0  0  0  0
   -2.1905   14.4637  -10.9533 C   0  0  0  0  0  0  0  0  0  0  0  0
   -3.5123   14.9092  -11.5998 C   0  0  0  0  0  0  0  0  0  0  0  0
   -1.7098   12.4700  -12.1164 F   0  0  0  0  0  0  0  0  0  0  0  0
   -1.5166   12.4356   -9.9564 F   0  0  0  0  0  0  0  0  0  0  0  0
   -6.0766   12.2858   -9.8743 H   0  0  0  0  0  0  0  0  0  0  0  0
   -8.1756   10.1191  -13.8942 H   0  0  0  0  0  0  0  0  0  0  0  0
   -6.8889   12.2463  -14.0896 H   0  0  0  0  0  0  0  0  0  0  0  0
   -8.0383    9.6050   -7.2579 H   0  0  0  0  0  0  0  0  0  0  0  0
   -4.8931    8.7825   -8.4921 H   0  0  0  0  0  0  0  0  0  0  0  0
   -2.6611    9.7559   -8.0481 H   0  0  0  0  0  0  0  0  0  0  0  0
   -4.5156   13.2866   -6.4733 H   0  0  0  0  0  0  0  0  0  0  0  0
   -6.7439   12.3101   -6.9107 H   0  0  0  0  0  0  0  0  0  0  0  0
   -2.1699   14.2240   -7.0694 H   0  0  0  0  0  0  0  0  0  0  0  0
   -2.1852   13.5189   -5.4174 H   0  0  0  0  0  0  0  0  0  0  0  0
    0.7438   12.6425   -7.6359 H   0  0  0  0  0  0  0  0  0  0  0  0
   -0.6481   10.6174   -7.6264 H   0  0  0  0  0  0  0  0  0  0  0  0
    1.4498   14.3351   -6.0078 H   0  0  0  0  0  0  0  0  0  0  0  0
    0.1684   15.4952   -6.4963 H   0  0  0  0  0  0  0  0  0  0  0  0
    0.1536   14.7825   -4.8475 H   0  0  0  0  0  0  0  0  0  0  0  0
   -4.0230   12.4902   -9.7902 H   0  0  0  0  0  0  0  0  0  0  0  0
   -3.9436   11.6300  -11.3651 H   0  0  0  0  0  0  0  0  0  0  0  0
   -2.1210   14.8350   -9.9202 H   0  0  0  0  0  0  0  0  0  0  0  0
   -1.3323   14.8328  -11.5341 H   0  0  0  0  0  0  0  0  0  0  0  0
   -3.3578   15.1968  -12.6502 H   0  0  0  0  0  0  0  0  0  0  0  0
   -3.9532   15.7535  -11.0495 H   0  0  0  0  0  0  0  0  0  0  0  0
  1  2  2  0  0  0  0
  1  4  1  0  0  0  0
  1 12  1  0  0  0  0
  2  6  1  0  0  0  0
  3  4  2  0  0  0  0
  3  5  1  0  0  0  0
  5  6  2  0  0  0  0
  5  9  1  0  0  0  0
  6  7  1  0  0  0  0
  7  8  1  0  0  0  0
  7 10  2  3  0  0  0
  8  9  2  0  0  0  0
 10 14  1  0  0  0  0
 11 12  1  0  0  0  0
 11 26  1  0  0  0  0
 11 29  1  0  0  0  0
 12 13  2  0  0  0  0
 14 15  2  0  0  0  0
 14 19  1  0  0  0  0
 15 16  1  0  0  0  0
 16 17  2  0  0  0  0
 17 18  1  0  0  0  0
 17 20  1  0  0  0  0
 18 19  2  0  0  0  0
 20 21  1  0  0  0  0
 20 24  2  0  0  0  0
 21 22  1  0  0  0  0
 22 23  1  0  0  0  0
 22 25  1  0  0  0  0
 23 24  1  0  0  0  0
 26 27  1  0  0  0  0
 27 28  1  0  0  0  0
 27 30  1  0  0  0  0
 27 31  1  0  0  0  0
 28 29  1  0  0  0  0
  2 32  1  0  0  0  0
  3 33  1  0  0  0  0
  4 34  1  0  0  0  0
 10 35  1  0  0  0  0
 15 36  1  0  0  0  0
 16 37  1  0  0  0  0
 18 38  1  0  0  0  0
 19 39  1  0  0  0  0
 21 40  1  0  0  0  0
 21 41  1  0  0  0  0
 23 42  1  0  0  0  0
 24 43  1  0  0  0  0
 25 44  1  0  0  0  0
 25 45  1  0  0  0  0
 25 46  1  0  0  0  0
 26 47  1  0  0  0  0
 26 48  1  0  0  0  0
 28 49  1  0  0  0  0
 28 50  1  0  0  0  0
 29 51  1  0  0  0  0
 29 52  1  0  0  0  0
M  END
> <Name>
38

> <IC50[uM]>
0.005

$$$$
38
  -OEChem-05192314333D
 Structure written by MMmdl.
 52 56  0     1  0  0  0  0  0999 V2000
   -6.3676   12.3632  -12.0183 C   0  0  0  0  0  0  0  0  0  0  0  0
   -6.5148   11.8066  -10.7373 C   0  0  0  0  0  0  0  0  0  0  0  0
   -7.7147   10.5754  -13.0306 C   0  0  0  0  0  0  0  0  0  0  0  0
   -6.9819   11.7689  -13.1253 C   0  0  0  0  0  0  0  0  0  0  0  0
   -7.8143   10.0109  -11.7564 C   0  0  0  0  0  0  0  0  0  0  0  0
   -7.2414   10.6177  -10.6023 C   0  0  0  0  0  0  0  0  0  0  0  0
   -7.6126    9.7466   -9.5122 C   0  0  3  0  0  0  0  0  0  0  0  0
   -8.2846    8.7319   -9.9810 N   0  0  0  0  0  0  0  0  0  0  0  0
   -8.4146    8.8618  -11.2972 N   0  0  0  0  0  0  0  0  0  0  0  0
   -7.3363    9.8918   -8.0268 C   0  0  0  0  0  0  0  0  0  0  0  0
   -4.3648   13.7196  -11.5032 N   0  0  0  0  0  0  0  0  0  0  0  0
   -5.5453   13.6325  -12.1937 C   0  0  0  0  0  0  0  0  0  0  0  0
   -5.9402   14.5231  -12.9481 O   0  0  0  0  0  0  0  0  0  0  0  0
   -5.9634   10.4852   -7.7356 C   0  0  0  0  0  0  0  0  0  0  0  0
   -4.8111    9.7655   -8.0524 C   0  0  0  0  0  0  0  0  0  0  0  0
   -3.5521   10.3143   -7.8018 C   0  0  0  0  0  0  0  0  0  0  0  0
   -3.4442   11.5871   -7.2318 C   0  0  0  0  0  0  0  0  0  0  0  0
   -4.5964   12.3037   -6.9134 C   0  0  0  0  0  0  0  0  0  0  0  0
   -5.8531   11.7536   -7.1622 C   0  0  0  0  0  0  0  0  0  0  0  0
   -2.1000   12.1772   -6.9659 C   0  0  0  0  0  0  0  0  0  0  0  0
   -1.7711   13.4213   -6.4318 C   0  0  0  0  0  0  0  0  0  0  0  0
   -0.4319   13.4866   -6.3915 N   0  0  3  0  0  0  0  0  0  0  0  0
    0.1707   12.4146   -6.8487 N   0  0  0  0  0  0  0  0  0  0  0  0
   -0.8042   11.5996   -7.2054 C   0  0  0  0  0  0  0  0  0  0  0  0
    0.3852   14.5927   -5.9060 C   0  0  0  0  0  0  0  0  0  0  0  0
   -3.7189   12.5724  -10.8441 C   0  0  0  0  0  0  0  0  0  0  0  0
   -2.2354   12.9457  -10.9732 C   0  0  0  0  0  0  0  0  0  0  0  0
   -2.1905   14.4637  -10.9533 C   0  0  0  0  0  0  0  0  0  0  0  0
   -3.5123   14.9092  -11.5998 C   0  0  0  0  0  0  0  0  0  0  0  0
   -1.7098   12.4700  -12.1164 F   0  0  0  0  0  0  0  0  0  0  0  0
   -1.5166   12.4356   -9.9564 F   0  0  0  0  0  0  0  0  0  0  0  0
   -6.0766   12.2858   -9.8743 H   0  0  0  0  0  0  0  0  0  0  0  0
   -8.1756   10.1191  -13.8942 H   0  0  0  0  0  0  0  0  0  0  0  0
   -6.8889   12.2463  -14.0896 H   0  0  0  0  0  0  0  0  0  0  0  0
   -6.6738    9.1867   -9.6354 H   0  0  0  0  0  0  0  0  0  0  0  0
   -8.0383    9.6050   -7.2579 H   0  0  0  0  0  0  0  0  0  0  0  0
   -4.8931    8.7825   -8.4921 H   0  0  0  0  0  0  0  0  0  0  0  0
   -2.6611    9.7559   -8.0481 H   0  0  0  0  0  0  0  0  0  0  0  0
   -4.5156   13.2866   -6.4733 H   0  0  0  0  0  0  0  0  0  0  0  0
   -6.7439   12.3101   -6.9107 H   0  0  0  0  0  0  0  0  0  0  0  0
   -2.1699   14.2240   -7.0694 H   0  0  0  0  0  0  0  0  0  0  0  0
   -2.1852   13.5189   -5.4174 H   0  0  0  0  0  0  0  0  0  0  0  0
   -0.6481   10.6174   -7.6264 H   0  0  0  0  0  0  0  0  0  0  0  0
    1.4497   14.3348   -6.0072 H   0  0  0  0  0  0  0  0  0  0  0  0
    0.1689   15.4951   -6.4967 H   0  0  0  0  0  0  0  0  0  0  0  0
    0.1531   14.7829   -4.8477 H   0  0  0  0  0  0  0  0  0  0  0  0
   -4.0230   12.4902   -9.7902 H   0  0  0  0  0  0  0  0  0  0  0  0
   -3.9436   11.6300  -11.3651 H   0  0  0  0  0  0  0  0  0  0  0  0
   -2.1210   14.8350   -9.9202 H   0  0  0  0  0  0  0  0  0  0  0  0
   -1.3323   14.8328  -11.5341 H   0  0  0  0  0  0  0  0  0  0  0  0
   -3.3578   15.1968  -12.6502 H   0  0  0  0  0  0  0  0  0  0  0  0
   -3.9532   15.7535  -11.0495 H   0  0  0  0  0  0  0  0  0  0  0  0
  1  2  2  0  0  0  0
  1  4  1  0  0  0  0
  1 12  1  0  0  0  0
  2  6  1  0  0  0  0
  3  4  2  0  0  0  0
  3  5  1  0  0  0  0
  5  6  2  0  0  0  0
  5  9  1  0  0  0  0
  6  7  1  0  0  0  0
  7  8  1  0  0  0  0
  7 10  1  0  0  0  0
  8  9  2  0  0  0  0
 10 14  2  0  0  0  0
 11 12  1  0  0  0  0
 11 26  1  0  0  0  0
 11 29  1  0  0  0  0
 12 13  2  0  0  0  0
 14 15  1  0  0  0  0
 14 19  1  0  0  0  0
 15 16  2  0  0  0  0
 16 17  1  0  0  0  0
 17 18  1  0  0  0  0
 17 20  2  0  0  0  0
 18 19  2  0  0  0  0
 20 21  1  0  0  0  0
 20 24  1  0  0  0  0
 21 22  1  0  0  0  0
 22 23  1  0  0  0  0
 22 25  1  0  0  0  0
 23 24  2  0  0  0  0
 26 27  1  0  0  0  0
 27 28  1  0  0  0  0
 27 30  1  0  0  0  0
 27 31  1  0  0  0  0
 28 29  1  0  0  0  0
  2 32  1  0  0  0  0
  3 33  1  0  0  0  0
  4 34  1  0  0  0  0
  7 35  1  0  0  0  0
 10 36  1  0  0  0  0
 15 37  1  0  0  0  0
 16 38  1  0  0  0  0
 18 39  1  0  0  0  0
 19 40  1  0  0  0  0
 21 41  1  0  0  0  0
 21 42  1  0  0  0  0
 24 43  1  0  0  0  0
 25 44  1  0  0  0  0
 25 45  1  0  0  0  0
 25 46  1  0  0  0  0
 26 47  1  0  0  0  0
 26 48  1  0  0  0  0
 28 49  1  0  0  0  0
 28 50  1  0  0  0  0
 29 51  1  0  0  0  0
 29 52  1  0  0  0  0
M  END
> <Name>
38

> <IC50[uM]>
0.005

$$$$
38
  -OEChem-05192314333D
 Structure written by MMmdl.
 52 56  0     1  0  0  0  0  0999 V2000
   -6.3676   12.3632  -12.0183 C   0  0  3  0  0  0  0  0  0  0  0  0
   -6.5148   11.8066  -10.7373 C   0  0  0  0  0  0  0  0  0  0  0  0
   -7.7147   10.5754  -13.0306 C   0  0  0  0  0  0  0  0  0  0  0  0
   -6.9819   11.7689  -13.1253 C   0  0  0  0  0  0  0  0  0  0  0  0
   -7.8143   10.0109  -11.7564 C   0  0  0  0  0  0  0  0  0  0  0  0
   -7.2414   10.6177  -10.6023 C   0  0  0  0  0  0  0  0  0  0  0  0
   -7.6126    9.7466   -9.5122 C   0  0  0  0  0  0  0  0  0  0  0  0
   -8.2846    8.7319   -9.9810 N   0  0  0  0  0  0  0  0  0  0  0  0
   -8.4146    8.8618  -11.2972 N   0  0  0  0  0  0  0  0  0  0  0  0
   -7.3363    9.8918   -8.0268 C   0  0  0  0  0  0  0  0  0  0  0  0
   -4.3648   13.7196  -11.5032 N   0  0  0  0  0  0  0  0  0  0  0  0
   -5.5453   13.6325  -12.1937 C   0  0  0  0  0  0  0  0  0  0  0  0
   -5.9402   14.5231  -12.9481 O   0  0  0  0  0  0  0  0  0  0  0  0
   -5.9634   10.4852   -7.7356 C   0  0  0  0  0  0  0  0  0  0  0  0
   -4.8111    9.7655   -8.0524 C   0  0  0  0  0  0  0  0  0  0  0  0
   -3.5521   10.3143   -7.8018 C   0  0  0  0  0  0  0  0  0  0  0  0
   -3.4442   11.5871   -7.2318 C   0  0  0  0  0  0  0  0  0  0  0  0
   -4.5964   12.3037   -6.9134 C   0  0  0  0  0  0  0  0  0  0  0  0
   -5.8531   11.7536   -7.1622 C   0  0  0  0  0  0  0  0  0  0  0  0
   -2.1000   12.1772   -6.9659 C   0  0  0  0  0  0  0  0  0  0  0  0
   -1.7711   13.4213   -6.4318 C   0  0  0  0  0  0  0  0  0  0  0  0
   -0.4319   13.4866   -6.3915 N   0  0  0  0  0  0  0  0  0  0  0  0
    0.1707   12.4146   -6.8487 N   0  0  0  0  0  0  0  0  0  0  0  0
   -0.8042   11.5996   -7.2054 C   0  0  0  0  0  0  0  0  0  0  0  0
    0.3852   14.5927   -5.9060 C   0  0  0  0  0  0  0  0  0  0  0  0
   -3.7189   12.5724  -10.8441 C   0  0  0  0  0  0  0  0  0  0  0  0
   -2.2354   12.9457  -10.9732 C   0  0  0  0  0  0  0  0  0  0  0  0
   -2.1905   14.4637  -10.9533 C   0  0  0  0  0  0  0  0  0  0  0  0
   -3.5123   14.9092  -11.5998 C   0  0  0  0  0  0  0  0  0  0  0  0
   -1.7098   12.4700  -12.1164 F   0  0  0  0  0  0  0  0  0  0  0  0
   -1.5166   12.4356   -9.9564 F   0  0  0  0  0  0  0  0  0  0  0  0
   -5.4678   11.7527  -12.1847 H   0  0  0  0  0  0  0  0  0  0  0  0
   -6.0766   12.2858   -9.8743 H   0  0  0  0  0  0  0  0  0  0  0  0
   -8.1756   10.1191  -13.8942 H   0  0  0  0  0  0  0  0  0  0  0  0
   -6.8889   12.2463  -14.0896 H   0  0  0  0  0  0  0  0  0  0  0  0
   -8.1027   10.5486   -7.5895 H   0  0  0  0  0  0  0  0  0  0  0  0
   -7.3955    8.8977   -7.5597 H   0  0  0  0  0  0  0  0  0  0  0  0
   -4.8931    8.7825   -8.4921 H   0  0  0  0  0  0  0  0  0  0  0  0
   -2.6611    9.7559   -8.0481 H   0  0  0  0  0  0  0  0  0  0  0  0
   -4.5156   13.2866   -6.4733 H   0  0  0  0  0  0  0  0  0  0  0  0
   -6.7439   12.3101   -6.9107 H   0  0  0  0  0  0  0  0  0  0  0  0
   -2.4623   14.1868   -6.1115 H   0  0  0  0  0  0  0  0  0  0  0  0
   -0.6481   10.6174   -7.6264 H   0  0  0  0  0  0  0  0  0  0  0  0
    1.4497   14.3348   -6.0072 H   0  0  0  0  0  0  0  0  0  0  0  0
    0.1689   15.4951   -6.4967 H   0  0  0  0  0  0  0  0  0  0  0  0
    0.1531   14.7829   -4.8477 H   0  0  0  0  0  0  0  0  0  0  0  0
   -4.0230   12.4902   -9.7902 H   0  0  0  0  0  0  0  0  0  0  0  0
   -3.9436   11.6300  -11.3651 H   0  0  0  0  0  0  0  0  0  0  0  0
   -2.1210   14.8350   -9.9202 H   0  0  0  0  0  0  0  0  0  0  0  0
   -1.3323   14.8328  -11.5341 H   0  0  0  0  0  0  0  0  0  0  0  0
   -3.3578   15.1968  -12.6502 H   0  0  0  0  0  0  0  0  0  0  0  0
   -3.9532   15.7535  -11.0495 H   0  0  0  0  0  0  0  0  0  0  0  0
  1  2  1  0  0  0  0
  1  4  1  0  0  0  0
  1 12  1  0  0  0  0
  2  6  2  0  0  0  0
  3  4  2  0  0  0  0
  3  5  1  0  0  0  0
  5  6  1  0  0  0  0
  5  9  2  0  0  0  0
  6  7  1  0  0  0  0
  7  8  2  0  0  0  0
  7 10  1  0  0  0  0
  8  9  1  0  0  0  0
 10 14  1  0  0  0  0
 11 12  1  0  0  0  0
 11 26  1  0  0  0  0
 11 29  1  0  0  0  0
 12 13  2  0  0  0  0
 14 15  2  0  0  0  0
 14 19  1  0  0  0  0
 15 16  1  0  0  0  0
 16 17  2  0  0  0  0
 17 18  1  0  0  0  0
 17 20  1  0  0  0  0
 18 19  2  0  0  0  0
 20 21  2  0  0  0  0
 20 24  1  0  0  0  0
 21 22  1  0  0  0  0
 22 23  1  0  0  0  0
 22 25  1  0  0  0  0
 23 24  2  0  0  0  0
 26 27  1  0  0  0  0
 27 28  1  0  0  0  0
 27 30  1  0  0  0  0
 27 31  1  0  0  0  0
 28 29  1  0  0  0  0
  1 32  1  0  0  0  0
  2 33  1  0  0  0  0
  3 34  1  0  0  0  0
  4 35  1  0  0  0  0
 10 36  1  0  0  0  0
 10 37  1  0  0  0  0
 15 38  1  0  0  0  0
 16 39  1  0  0  0  0
 18 40  1  0  0  0  0
 19 41  1  0  0  0  0
 21 42  1  0  0  0  0
 24 43  1  0  0  0  0
 25 44  1  0  0  0  0
 25 45  1  0  0  0  0
 25 46  1  0  0  0  0
 26 47  1  0  0  0  0
 26 48  1  0  0  0  0
 28 49  1  0  0  0  0
 28 50  1  0  0  0  0
 29 51  1  0  0  0  0
 29 52  1  0  0  0  0
M  END
> <Name>
38

> <IC50[uM]>
0.005

$$$$
38
  -OEChem-05192314333D
 Structure written by MMmdl.
 52 56  0     1  0  0  0  0  0999 V2000
   -6.3676   12.3632  -12.0183 C   0  0  0  0  0  0  0  0  0  0  0  0
   -6.5148   11.8066  -10.7373 C   0  0  0  0  0  0  0  0  0  0  0  0
   -7.7147   10.5754  -13.0306 C   0  0  0  0  0  0  0  0  0  0  0  0
   -6.9819   11.7689  -13.1253 C   0  0  0  0  0  0  0  0  0  0  0  0
   -7.8143   10.0109  -11.7564 C   0  0  0  0  0  0  0  0  0  0  0  0
   -7.2414   10.6177  -10.6023 C   0  0  3  0  0  0  0  0  0  0  0  0
   -7.6126    9.7466   -9.5122 C   0  0  0  0  0  0  0  0  0  0  0  0
   -8.2846    8.7319   -9.9810 N   0  0  0  0  0  0  0  0  0  0  0  0
   -8.4146    8.8618  -11.2972 N   0  0  0  0  0  0  0  0  0  0  0  0
   -7.3363    9.8918   -8.0268 C   0  0  0  0  0  0  0  0  0  0  0  0
   -4.3648   13.7196  -11.5032 N   0  0  0  0  0  0  0  0  0  0  0  0
   -5.5453   13.6325  -12.1937 C   0  0  0  0  0  0  0  0  0  0  0  0
   -5.9402   14.5231  -12.9481 O   0  0  0  0  0  0  0  0  0  0  0  0
   -5.9634   10.4852   -7.7356 C   0  0  0  0  0  0  0  0  0  0  0  0
   -4.8111    9.7655   -8.0524 C   0  0  0  0  0  0  0  0  0  0  0  0
   -3.5521   10.3143   -7.8018 C   0  0  0  0  0  0  0  0  0  0  0  0
   -3.4442   11.5871   -7.2318 C   0  0  0  0  0  0  0  0  0  0  0  0
   -4.5964   12.3037   -6.9134 C   0  0  0  0  0  0  0  0  0  0  0  0
   -5.8531   11.7536   -7.1622 C   0  0  0  0  0  0  0  0  0  0  0  0
   -2.1000   12.1772   -6.9659 C   0  0  0  0  0  0  0  0  0  0  0  0
   -1.7711   13.4213   -6.4318 C   0  0  0  0  0  0  0  0  0  0  0  0
   -0.4319   13.4866   -6.3915 N   0  0  0  0  0  0  0  0  0  0  0  0
    0.1707   12.4146   -6.8487 N   0  0  0  0  0  0  0  0  0  0  0  0
   -0.8042   11.5996   -7.2054 C   0  0  0  0  0  0  0  0  0  0  0  0
    0.3852   14.5927   -5.9060 C   0  0  0  0  0  0  0  0  0  0  0  0
   -3.7189   12.5724  -10.8441 C   0  0  0  0  0  0  0  0  0  0  0  0
   -2.2354   12.9457  -10.9732 C   0  0  0  0  0  0  0  0  0  0  0  0
   -2.1905   14.4637  -10.9533 C   0  0  0  0  0  0  0  0  0  0  0  0
   -3.5123   14.9092  -11.5998 C   0  0  0  0  0  0  0  0  0  0  0  0
   -1.7098   12.4700  -12.1164 F   0  0  0  0  0  0  0  0  0  0  0  0
   -1.5166   12.4356   -9.9564 F   0  0  0  0  0  0  0  0  0  0  0  0
   -6.0766   12.2858   -9.8743 H   0  0  0  0  0  0  0  0  0  0  0  0
   -8.1756   10.1191  -13.8942 H   0  0  0  0  0  0  0  0  0  0  0  0
   -6.8889   12.2463  -14.0896 H   0  0  0  0  0  0  0  0  0  0  0  0
   -6.3198   10.0366  -10.7536 H   0  0  0  0  0  0  0  0  0  0  0  0
   -8.1027   10.5486   -7.5895 H   0  0  0  0  0  0  0  0  0  0  0  0
   -7.3955    8.8977   -7.5597 H   0  0  0  0  0  0  0  0  0  0  0  0
   -4.8931    8.7825   -8.4921 H   0  0  0  0  0  0  0  0  0  0  0  0
   -2.6611    9.7559   -8.0481 H   0  0  0  0  0  0  0  0  0  0  0  0
   -4.5156   13.2866   -6.4733 H   0  0  0  0  0  0  0  0  0  0  0  0
   -6.7439   12.3101   -6.9107 H   0  0  0  0  0  0  0  0  0  0  0  0
   -2.4623   14.1868   -6.1115 H   0  0  0  0  0  0  0  0  0  0  0  0
   -0.6481   10.6174   -7.6264 H   0  0  0  0  0  0  0  0  0  0  0  0
    1.4497   14.3348   -6.0072 H   0  0  0  0  0  0  0  0  0  0  0  0
    0.1689   15.4951   -6.4967 H   0  0  0  0  0  0  0  0  0  0  0  0
    0.1531   14.7829   -4.8477 H   0  0  0  0  0  0  0  0  0  0  0  0
   -4.0230   12.4902   -9.7902 H   0  0  0  0  0  0  0  0  0  0  0  0
   -3.9436   11.6300  -11.3651 H   0  0  0  0  0  0  0  0  0  0  0  0
   -2.1210   14.8350   -9.9202 H   0  0  0  0  0  0  0  0  0  0  0  0
   -1.3323   14.8328  -11.5341 H   0  0  0  0  0  0  0  0  0  0  0  0
   -3.3578   15.1968  -12.6502 H   0  0  0  0  0  0  0  0  0  0  0  0
   -3.9532   15.7535  -11.0495 H   0  0  0  0  0  0  0  0  0  0  0  0
  1  2  2  0  0  0  0
  1  4  1  0  0  0  0
  1 12  1  0  0  0  0
  2  6  1  0  0  0  0
  3  4  2  0  0  0  0
  3  5  1  0  0  0  0
  5  6  1  0  0  0  0
  5  9  2  0  0  0  0
  6  7  1  0  0  0  0
  7  8  2  0  0  0  0
  7 10  1  0  0  0  0
  8  9  1  0  0  0  0
 10 14  1  0  0  0  0
 11 12  1  0  0  0  0
 11 26  1  0  0  0  0
 11 29  1  0  0  0  0
 12 13  2  0  0  0  0
 14 15  2  0  0  0  0
 14 19  1  0  0  0  0
 15 16  1  0  0  0  0
 16 17  2  0  0  0  0
 17 18  1  0  0  0  0
 17 20  1  0  0  0  0
 18 19  2  0  0  0  0
 20 21  2  0  0  0  0
 20 24  1  0  0  0  0
 21 22  1  0  0  0  0
 22 23  1  0  0  0  0
 22 25  1  0  0  0  0
 23 24  2  0  0  0  0
 26 27  1  0  0  0  0
 27 28  1  0  0  0  0
 27 30  1  0  0  0  0
 27 31  1  0  0  0  0
 28 29  1  0  0  0  0
  2 32  1  0  0  0  0
  3 33  1  0  0  0  0
  4 34  1  0  0  0  0
  6 35  1  0  0  0  0
 10 36  1  0  0  0  0
 10 37  1  0  0  0  0
 15 38  1  0  0  0  0
 16 39  1  0  0  0  0
 18 40  1  0  0  0  0
 19 41  1  0  0  0  0
 21 42  1  0  0  0  0
 24 43  1  0  0  0  0
 25 44  1  0  0  0  0
 25 45  1  0  0  0  0
 25 46  1  0  0  0  0
 26 47  1  0  0  0  0
 26 48  1  0  0  0  0
 28 49  1  0  0  0  0
 28 50  1  0  0  0  0
 29 51  1  0  0  0  0
 29 52  1  0  0  0  0
M  END
> <Name>
38

> <IC50[uM]>
0.005

$$$$
38
  -OEChem-05192314333D
 Structure written by MMmdl.
 52 56  0     0  0  0  0  0  0999 V2000
   -6.3676   12.3632  -12.0183 C   0  0  0  0  0  0  0  0  0  0  0  0
   -6.5148   11.8066  -10.7373 C   0  0  0  0  0  0  0  0  0  0  0  0
   -7.7147   10.5754  -13.0306 C   0  0  0  0  0  0  0  0  0  0  0  0
   -6.9819   11.7689  -13.1253 C   0  0  0  0  0  0  0  0  0  0  0  0
   -7.8143   10.0109  -11.7564 C   0  0  0  0  0  0  0  0  0  0  0  0
   -7.2414   10.6177  -10.6023 C   0  0  0  0  0  0  0  0  0  0  0  0
   -7.6126    9.7466   -9.5122 C   0  0  0  0  0  0  0  0  0  0  0  0
   -8.2846    8.7319   -9.9810 N   0  0  0  0  0  0  0  0  0  0  0  0
   -8.4146    8.8618  -11.2972 N   0  0  0  0  0  0  0  0  0  0  0  0
   -7.3363    9.8918   -8.0268 C   0  0  0  0  0  0  0  0  0  0  0  0
   -4.3648   13.7196  -11.5032 N   0  0  0  0  0  0  0  0  0  0  0  0
   -5.5453   13.6325  -12.1937 C   0  0  0  0  0  0  0  0  0  0  0  0
   -5.9402   14.5231  -12.9481 O   0  0  0  0  0  0  0  0  0  0  0  0
   -5.9634   10.4852   -7.7356 C   0  0  0  0  0  0  0  0  0  0  0  0
   -4.8111    9.7655   -8.0524 C   0  0  0  0  0  0  0  0  0  0  0  0
   -3.5521   10.3143   -7.8018 C   0  0  0  0  0  0  0  0  0  0  0  0
   -3.4442   11.5871   -7.2318 C   0  0  0  0  0  0  0  0  0  0  0  0
   -4.5964   12.3037   -6.9134 C   0  0  0  0  0  0  0  0  0  0  0  0
   -5.8531   11.7536   -7.1622 C   0  0  0  0  0  0  0  0  0  0  0  0
   -2.1000   12.1772   -6.9659 C   0  0  0  0  0  0  0  0  0  0  0  0
   -1.7711   13.4213   -6.4318 C   0  0  0  0  0  0  0  0  0  0  0  0
   -0.4319   13.4866   -6.3915 N   0  0  0  0  0  0  0  0  0  0  0  0
    0.1707   12.4146   -6.8487 N   0  0  0  0  0  0  0  0  0  0  0  0
   -0.8042   11.5996   -7.2054 C   0  0  0  0  0  0  0  0  0  0  0  0
    0.3852   14.5927   -5.9060 C   0  0  0  0  0  0  0  0  0  0  0  0
   -3.7189   12.5724  -10.8441 C   0  0  0  0  0  0  0  0  0  0  0  0
   -2.2354   12.9457  -10.9732 C   0  0  0  0  0  0  0  0  0  0  0  0
   -2.1905   14.4637  -10.9533 C   0  0  0  0  0  0  0  0  0  0  0  0
   -3.5123   14.9092  -11.5998 C   0  0  0  0  0  0  0  0  0  0  0  0
   -1.7098   12.4700  -12.1164 F   0  0  0  0  0  0  0  0  0  0  0  0
   -1.5166   12.4356   -9.9564 F   0  0  0  0  0  0  0  0  0  0  0  0
   -6.0766   12.2858   -9.8743 H   0  0  0  0  0  0  0  0  0  0  0  0
   -8.7349   10.7790  -13.3879 H   0  0  0  0  0  0  0  0  0  0  0  0
   -7.2366    9.8351  -13.6889 H   0  0  0  0  0  0  0  0  0  0  0  0
   -6.8889   12.2463  -14.0896 H   0  0  0  0  0  0  0  0  0  0  0  0
   -8.1027   10.5486   -7.5895 H   0  0  0  0  0  0  0  0  0  0  0  0
   -7.3955    8.8977   -7.5597 H   0  0  0  0  0  0  0  0  0  0  0  0
   -4.8931    8.7825   -8.4921 H   0  0  0  0  0  0  0  0  0  0  0  0
   -2.6611    9.7559   -8.0481 H   0  0  0  0  0  0  0  0  0  0  0  0
   -4.5156   13.2866   -6.4733 H   0  0  0  0  0  0  0  0  0  0  0  0
   -6.7439   12.3101   -6.9107 H   0  0  0  0  0  0  0  0  0  0  0  0
   -2.4623   14.1868   -6.1115 H   0  0  0  0  0  0  0  0  0  0  0  0
   -0.6481   10.6174   -7.6264 H   0  0  0  0  0  0  0  0  0  0  0  0
    1.4497   14.3348   -6.0072 H   0  0  0  0  0  0  0  0  0  0  0  0
    0.1689   15.4951   -6.4967 H   0  0  0  0  0  0  0  0  0  0  0  0
    0.1531   14.7829   -4.8477 H   0  0  0  0  0  0  0  0  0  0  0  0
   -4.0230   12.4902   -9.7902 H   0  0  0  0  0  0  0  0  0  0  0  0
   -3.9436   11.6300  -11.3651 H   0  0  0  0  0  0  0  0  0  0  0  0
   -2.1210   14.8350   -9.9202 H   0  0  0  0  0  0  0  0  0  0  0  0
   -1.3323   14.8328  -11.5341 H   0  0  0  0  0  0  0  0  0  0  0  0
   -3.3578   15.1968  -12.6502 H   0  0  0  0  0  0  0  0  0  0  0  0
   -3.9532   15.7535  -11.0495 H   0  0  0  0  0  0  0  0  0  0  0  0
  1  2  1  0  0  0  0
  1  4  2  0  0  0  0
  1 12  1  0  0  0  0
  2  6  2  0  0  0  0
  3  4  1  0  0  0  0
  3  5  1  0  0  0  0
  5  6  1  0  0  0  0
  5  9  2  0  0  0  0
  6  7  1  0  0  0  0
  7  8  2  0  0  0  0
  7 10  1  0  0  0  0
  8  9  1  0  0  0  0
 10 14  1  0  0  0  0
 11 12  1  0  0  0  0
 11 26  1  0  0  0  0
 11 29  1  0  0  0  0
 12 13  2  0  0  0  0
 14 15  2  0  0  0  0
 14 19  1  0  0  0  0
 15 16  1  0  0  0  0
 16 17  2  0  0  0  0
 17 18  1  0  0  0  0
 17 20  1  0  0  0  0
 18 19  2  0  0  0  0
 20 21  2  0  0  0  0
 20 24  1  0  0  0  0
 21 22  1  0  0  0  0
 22 23  1  0  0  0  0
 22 25  1  0  0  0  0
 23 24  2  0  0  0  0
 26 27  1  0  0  0  0
 27 28  1  0  0  0  0
 27 30  1  0  0  0  0
 27 31  1  0  0  0  0
 28 29  1  0  0  0  0
  2 32  1  0  0  0  0
  3 33  1  0  0  0  0
  3 34  1  0  0  0  0
  4 35  1  0  0  0  0
 10 36  1  0  0  0  0
 10 37  1  0  0  0  0
 15 38  1  0  0  0  0
 16 39  1  0  0  0  0
 18 40  1  0  0  0  0
 19 41  1  0  0  0  0
 21 42  1  0  0  0  0
 24 43  1  0  0  0  0
 25 44  1  0  0  0  0
 25 45  1  0  0  0  0
 25 46  1  0  0  0  0
 26 47  1  0  0  0  0
 26 48  1  0  0  0  0
 28 49  1  0  0  0  0
 28 50  1  0  0  0  0
 29 51  1  0  0  0  0
 29 52  1  0  0  0  0
M  END
> <Name>
38

> <IC50[uM]>
0.005

$$$$
38
  -OEChem-05192314333D
 Structure written by MMmdl.
 52 56  0     0  0  0  0  0  0999 V2000
   -6.3676   12.3632  -12.0183 C   0  0  0  0  0  0  0  0  0  0  0  0
   -6.5148   11.8066  -10.7373 C   0  0  0  0  0  0  0  0  0  0  0  0
   -7.7147   10.5754  -13.0306 C   0  0  0  0  0  0  0  0  0  0  0  0
   -6.9819   11.7689  -13.1253 C   0  0  0  0  0  0  0  0  0  0  0  0
   -7.8143   10.0109  -11.7564 C   0  0  0  0  0  0  0  0  0  0  0  0
   -7.2414   10.6177  -10.6023 C   0  0  0  0  0  0  0  0  0  0  0  0
   -7.6126    9.7466   -9.5122 C   0  0  0  0  0  0  0  0  0  0  0  0
   -8.2846    8.7319   -9.9810 N   0  0  0  0  0  0  0  0  0  0  0  0
   -8.4146    8.8618  -11.2972 N   0  0  0  0  0  0  0  0  0  0  0  0
   -7.3363    9.8918   -8.0268 C   0  0  0  0  0  0  0  0  0  0  0  0
   -4.3648   13.7196  -11.5032 N   0  0  0  0  0  0  0  0  0  0  0  0
   -5.5453   13.6325  -12.1937 C   0  0  0  0  0  0  0  0  0  0  0  0
   -5.9402   14.5231  -12.9481 O   0  0  0  0  0  0  0  0  0  0  0  0
   -5.9634   10.4852   -7.7356 C   0  0  0  0  0  0  0  0  0  0  0  0
   -4.8111    9.7655   -8.0524 C   0  0  0  0  0  0  0  0  0  0  0  0
   -3.5521   10.3143   -7.8018 C   0  0  0  0  0  0  0  0  0  0  0  0
   -3.4442   11.5871   -7.2318 C   0  0  0  0  0  0  0  0  0  0  0  0
   -4.5964   12.3037   -6.9134 C   0  0  0  0  0  0  0  0  0  0  0  0
   -5.8531   11.7536   -7.1622 C   0  0  0  0  0  0  0  0  0  0  0  0
   -2.1000   12.1772   -6.9659 C   0  0  0  0  0  0  0  0  0  0  0  0
   -1.7711   13.4213   -6.4318 C   0  0  0  0  0  0  0  0  0  0  0  0
   -0.4319   13.4866   -6.3915 N   0  0  0  0  0  0  0  0  0  0  0  0
    0.1707   12.4146   -6.8487 N   0  0  0  0  0  0  0  0  0  0  0  0
   -0.8042   11.5996   -7.2054 C   0  0  0  0  0  0  0  0  0  0  0  0
    0.3852   14.5927   -5.9060 C   0  0  0  0  0  0  0  0  0  0  0  0
   -3.7189   12.5724  -10.8441 C   0  0  0  0  0  0  0  0  0  0  0  0
   -2.2354   12.9457  -10.9732 C   0  0  0  0  0  0  0  0  0  0  0  0
   -2.1905   14.4637  -10.9533 C   0  0  0  0  0  0  0  0  0  0  0  0
   -3.5123   14.9092  -11.5998 C   0  0  0  0  0  0  0  0  0  0  0  0
   -1.7098   12.4700  -12.1164 F   0  0  0  0  0  0  0  0  0  0  0  0
   -1.5166   12.4356   -9.9564 F   0  0  0  0  0  0  0  0  0  0  0  0
   -6.0766   12.2858   -9.8743 H   0  0  0  0  0  0  0  0  0  0  0  0
   -8.1756   10.1191  -13.8942 H   0  0  0  0  0  0  0  0  0  0  0  0
   -6.8889   12.2463  -14.0896 H   0  0  0  0  0  0  0  0  0  0  0  0
   -8.0383    9.6050   -7.2579 H   0  0  0  0  0  0  0  0  0  0  0  0
   -5.9760   10.0302   -6.7342 H   0  0  0  0  0  0  0  0  0  0  0  0
   -4.8931    8.7825   -8.4921 H   0  0  0  0  0  0  0  0  0  0  0  0
   -2.6611    9.7559   -8.0481 H   0  0  0  0  0  0  0  0  0  0  0  0
   -3.4458   11.1378   -6.2277 H   0  0  0  0  0  0  0  0  0  0  0  0
   -4.5156   13.2866   -6.4733 H   0  0  0  0  0  0  0  0  0  0  0  0
   -6.7439   12.3101   -6.9107 H   0  0  0  0  0  0  0  0  0  0  0  0
   -2.4623   14.1868   -6.1115 H   0  0  0  0  0  0  0  0  0  0  0  0
   -0.6481   10.6174   -7.6264 H   0  0  0  0  0  0  0  0  0  0  0  0
    1.4497   14.3348   -6.0072 H   0  0  0  0  0  0  0  0  0  0  0  0
    0.1689   15.4951   -6.4967 H   0  0  0  0  0  0  0  0  0  0  0  0
    0.1531   14.7829   -4.8477 H   0  0  0  0  0  0  0  0  0  0  0  0
   -4.0230   12.4902   -9.7902 H   0  0  0  0  0  0  0  0  0  0  0  0
   -3.9436   11.6300  -11.3651 H   0  0  0  0  0  0  0  0  0  0  0  0
   -2.1210   14.8350   -9.9202 H   0  0  0  0  0  0  0  0  0  0  0  0
   -1.3323   14.8328  -11.5341 H   0  0  0  0  0  0  0  0  0  0  0  0
   -3.3578   15.1968  -12.6502 H   0  0  0  0  0  0  0  0  0  0  0  0
   -3.9532   15.7535  -11.0495 H   0  0  0  0  0  0  0  0  0  0  0  0
  1  2  2  0  0  0  0
  1  4  1  0  0  0  0
  1 12  1  0  0  0  0
  2  6  1  0  0  0  0
  3  4  2  0  0  0  0
  3  5  1  0  0  0  0
  5  6  2  0  0  0  0
  5  9  1  0  0  0  0
  6  7  1  0  0  0  0
  7  8  1  0  0  0  0
  7 10  2  3  0  0  0
  8  9  2  0  0  0  0
 10 14  1  0  0  0  0
 11 12  1  0  0  0  0
 11 26  1  0  0  0  0
 11 29  1  0  0  0  0
 12 13  2  0  0  0  0
 14 15  1  0  0  0  0
 14 19  1  0  0  0  0
 15 16  2  0  0  0  0
 16 17  1  0  0  0  0
 17 18  1  0  0  0  0
 17 20  1  0  0  0  0
 18 19  2  0  0  0  0
 20 21  2  0  0  0  0
 20 24  1  0  0  0  0
 21 22  1  0  0  0  0
 22 23  1  0  0  0  0
 22 25  1  0  0  0  0
 23 24  2  0  0  0  0
 26 27  1  0  0  0  0
 27 28  1  0  0  0  0
 27 30  1  0  0  0  0
 27 31  1  0  0  0  0
 28 29  1  0  0  0  0
  2 32  1  0  0  0  0
  3 33  1  0  0  0  0
  4 34  1  0  0  0  0
 10 35  1  0  0  0  0
 14 36  1  0  0  0  0
 15 37  1  0  0  0  0
 16 38  1  0  0  0  0
 17 39  1  0  0  0  0
 18 40  1  0  0  0  0
 19 41  1  0  0  0  0
 21 42  1  0  0  0  0
 24 43  1  0  0  0  0
 25 44  1  0  0  0  0
 25 45  1  0  0  0  0
 25 46  1  0  0  0  0
 26 47  1  0  0  0  0
 26 48  1  0  0  0  0
 28 49  1  0  0  0  0
 28 50  1  0  0  0  0
 29 51  1  0  0  0  0
 29 52  1  0  0  0  0
M  END
> <Name>
38

> <IC50[uM]>
0.005

$$$$
38
  -OEChem-05192314333D
 Structure written by MMmdl.
 52 56  0     1  0  0  0  0  0999 V2000
   -6.3676   12.3632  -12.0183 C   0  0  0  0  0  0  0  0  0  0  0  0
   -6.5148   11.8066  -10.7373 C   0  0  0  0  0  0  0  0  0  0  0  0
   -7.7147   10.5754  -13.0306 C   0  0  0  0  0  0  0  0  0  0  0  0
   -6.9819   11.7689  -13.1253 C   0  0  0  0  0  0  0  0  0  0  0  0
   -7.8143   10.0109  -11.7564 C   0  0  0  0  0  0  0  0  0  0  0  0
   -7.2414   10.6177  -10.6023 C   0  0  0  0  0  0  0  0  0  0  0  0
   -7.6126    9.7466   -9.5122 C   0  0  3  0  0  0  0  0  0  0  0  0
   -8.2846    8.7319   -9.9810 N   0  0  0  0  0  0  0  0  0  0  0  0
   -8.4146    8.8618  -11.2972 N   0  0  0  0  0  0  0  0  0  0  0  0
   -7.3363    9.8918   -8.0268 C   0  0  0  0  0  0  0  0  0  0  0  0
   -4.3648   13.7196  -11.5032 N   0  0  0  0  0  0  0  0  0  0  0  0
   -5.5453   13.6325  -12.1937 C   0  0  0  0  0  0  0  0  0  0  0  0
   -5.9402   14.5231  -12.9481 O   0  0  0  0  0  0  0  0  0  0  0  0
   -5.9634   10.4852   -7.7356 C   0  0  0  0  0  0  0  0  0  0  0  0
   -4.8111    9.7655   -8.0524 C   0  0  0  0  0  0  0  0  0  0  0  0
   -3.5521   10.3143   -7.8018 C   0  0  0  0  0  0  0  0  0  0  0  0
   -3.4442   11.5871   -7.2318 C   0  0  0  0  0  0  0  0  0  0  0  0
   -4.5964   12.3037   -6.9134 C   0  0  0  0  0  0  0  0  0  0  0  0
   -5.8531   11.7536   -7.1622 C   0  0  0  0  0  0  0  0  0  0  0  0
   -2.1000   12.1772   -6.9659 C   0  0  0  0  0  0  0  0  0  0  0  0
   -1.7711   13.4213   -6.4318 C   0  0  0  0  0  0  0  0  0  0  0  0
   -0.4319   13.4866   -6.3915 N   0  0  0  0  0  0  0  0  0  0  0  0
    0.1707   12.4146   -6.8487 N   0  0  0  0  0  0  0  0  0  0  0  0
   -0.8042   11.5996   -7.2054 C   0  0  0  0  0  0  0  0  0  0  0  0
    0.3852   14.5927   -5.9060 C   0  0  0  0  0  0  0  0  0  0  0  0
   -3.7189   12.5724  -10.8441 C   0  0  0  0  0  0  0  0  0  0  0  0
   -2.2354   12.9457  -10.9732 C   0  0  0  0  0  0  0  0  0  0  0  0
   -2.1905   14.4637  -10.9533 C   0  0  0  0  0  0  0  0  0  0  0  0
   -3.5123   14.9092  -11.5998 C   0  0  0  0  0  0  0  0  0  0  0  0
   -1.7098   12.4700  -12.1164 F   0  0  0  0  0  0  0  0  0  0  0  0
   -1.5166   12.4356   -9.9564 F   0  0  0  0  0  0  0  0  0  0  0  0
   -6.0766   12.2858   -9.8743 H   0  0  0  0  0  0  0  0  0  0  0  0
   -8.1756   10.1191  -13.8942 H   0  0  0  0  0  0  0  0  0  0  0  0
   -6.8889   12.2463  -14.0896 H   0  0  0  0  0  0  0  0  0  0  0  0
   -6.6738    9.1867   -9.6354 H   0  0  0  0  0  0  0  0  0  0  0  0
   -8.0383    9.6050   -7.2579 H   0  0  0  0  0  0  0  0  0  0  0  0
   -4.8931    8.7825   -8.4921 H   0  0  0  0  0  0  0  0  0  0  0  0
   -2.6611    9.7559   -8.0481 H   0  0  0  0  0  0  0  0  0  0  0  0
   -3.4458   11.1378   -6.2277 H   0  0  0  0  0  0  0  0  0  0  0  0
   -4.5156   13.2866   -6.4733 H   0  0  0  0  0  0  0  0  0  0  0  0
   -6.7439   12.3101   -6.9107 H   0  0  0  0  0  0  0  0  0  0  0  0
   -2.4623   14.1868   -6.1115 H   0  0  0  0  0  0  0  0  0  0  0  0
   -0.6481   10.6174   -7.6264 H   0  0  0  0  0  0  0  0  0  0  0  0
    1.4497   14.3348   -6.0072 H   0  0  0  0  0  0  0  0  0  0  0  0
    0.1689   15.4951   -6.4967 H   0  0  0  0  0  0  0  0  0  0  0  0
    0.1531   14.7829   -4.8477 H   0  0  0  0  0  0  0  0  0  0  0  0
   -4.0230   12.4902   -9.7902 H   0  0  0  0  0  0  0  0  0  0  0  0
   -3.9436   11.6300  -11.3651 H   0  0  0  0  0  0  0  0  0  0  0  0
   -2.1210   14.8350   -9.9202 H   0  0  0  0  0  0  0  0  0  0  0  0
   -1.3323   14.8328  -11.5341 H   0  0  0  0  0  0  0  0  0  0  0  0
   -3.3578   15.1968  -12.6502 H   0  0  0  0  0  0  0  0  0  0  0  0
   -3.9532   15.7535  -11.0495 H   0  0  0  0  0  0  0  0  0  0  0  0
  1  2  2  0  0  0  0
  1  4  1  0  0  0  0
  1 12  1  0  0  0  0
  2  6  1  0  0  0  0
  3  4  2  0  0  0  0
  3  5  1  0  0  0  0
  5  6  2  0  0  0  0
  5  9  1  0  0  0  0
  6  7  1  0  0  0  0
  7  8  1  0  0  0  0
  7 10  1  0  0  0  0
  8  9  2  0  0  0  0
 10 14  2  0  0  0  0
 11 12  1  0  0  0  0
 11 26  1  0  0  0  0
 11 29  1  0  0  0  0
 12 13  2  0  0  0  0
 14 15  1  0  0  0  0
 14 19  1  0  0  0  0
 15 16  2  0  0  0  0
 16 17  1  0  0  0  0
 17 18  1  0  0  0  0
 17 20  1  0  0  0  0
 18 19  2  0  0  0  0
 20 21  2  0  0  0  0
 20 24  1  0  0  0  0
 21 22  1  0  0  0  0
 22 23  1  0  0  0  0
 22 25  1  0  0  0  0
 23 24  2  0  0  0  0
 26 27  1  0  0  0  0
 27 28  1  0  0  0  0
 27 30  1  0  0  0  0
 27 31  1  0  0  0  0
 28 29  1  0  0  0  0
  2 32  1  0  0  0  0
  3 33  1  0  0  0  0
  4 34  1  0  0  0  0
  7 35  1  0  0  0  0
 10 36  1  0  0  0  0
 15 37  1  0  0  0  0
 16 38  1  0  0  0  0
 17 39  1  0  0  0  0
 18 40  1  0  0  0  0
 19 41  1  0  0  0  0
 21 42  1  0  0  0  0
 24 43  1  0  0  0  0
 25 44  1  0  0  0  0
 25 45  1  0  0  0  0
 25 46  1  0  0  0  0
 26 47  1  0  0  0  0
 26 48  1  0  0  0  0
 28 49  1  0  0  0  0
 28 50  1  0  0  0  0
 29 51  1  0  0  0  0
 29 52  1  0  0  0  0
M  END
> <Name>
38

> <IC50[uM]>
0.005

$$$$
38
  -OEChem-05192314333D
 Structure written by MMmdl.
 52 56  0     1  0  0  0  0  0999 V2000
   -6.3676   12.3632  -12.0183 C   0  0  3  0  0  0  0  0  0  0  0  0
   -6.5148   11.8066  -10.7373 C   0  0  0  0  0  0  0  0  0  0  0  0
   -7.7147   10.5754  -13.0306 C   0  0  0  0  0  0  0  0  0  0  0  0
   -6.9819   11.7689  -13.1253 C   0  0  0  0  0  0  0  0  0  0  0  0
   -7.8143   10.0109  -11.7564 C   0  0  3  0  0  0  0  0  0  0  0  0
   -7.2414   10.6177  -10.6023 C   0  0  0  0  0  0  0  0  0  0  0  0
   -7.6126    9.7466   -9.5122 C   0  0  0  0  0  0  0  0  0  0  0  0
   -8.2846    8.7319   -9.9810 N   0  0  0  0  0  0  0  0  0  0  0  0
   -8.4146    8.8618  -11.2972 N   0  0  0  0  0  0  0  0  0  0  0  0
   -7.3363    9.8918   -8.0268 C   0  0  0  0  0  0  0  0  0  0  0  0
   -4.3648   13.7196  -11.5032 N   0  0  0  0  0  0  0  0  0  0  0  0
   -5.5453   13.6325  -12.1937 C   0  0  0  0  0  0  0  0  0  0  0  0
   -5.9402   14.5231  -12.9481 O   0  0  0  0  0  0  0  0  0  0  0  0
   -5.9634   10.4852   -7.7356 C   0  0  0  0  0  0  0  0  0  0  0  0
   -4.8111    9.7655   -8.0524 C   0  0  0  0  0  0  0  0  0  0  0  0
   -3.5521   10.3143   -7.8018 C   0  0  0  0  0  0  0  0  0  0  0  0
   -3.4442   11.5871   -7.2318 C   0  0  0  0  0  0  0  0  0  0  0  0
   -4.5964   12.3037   -6.9134 C   0  0  0  0  0  0  0  0  0  0  0  0
   -5.8531   11.7536   -7.1622 C   0  0  0  0  0  0  0  0  0  0  0  0
   -2.1000   12.1772   -6.9659 C   0  0  0  0  0  0  0  0  0  0  0  0
   -1.7711   13.4213   -6.4318 C   0  0  0  0  0  0  0  0  0  0  0  0
   -0.4319   13.4866   -6.3915 N   0  0  0  0  0  0  0  0  0  0  0  0
    0.1707   12.4146   -6.8487 N   0  0  0  0  0  0  0  0  0  0  0  0
   -0.8042   11.5996   -7.2054 C   0  0  0  0  0  0  0  0  0  0  0  0
    0.3852   14.5927   -5.9060 C   0  0  0  0  0  0  0  0  0  0  0  0
   -3.7189   12.5724  -10.8441 C   0  0  0  0  0  0  0  0  0  0  0  0
   -2.2354   12.9457  -10.9732 C   0  0  0  0  0  0  0  0  0  0  0  0
   -2.1905   14.4637  -10.9533 C   0  0  0  0  0  0  0  0  0  0  0  0
   -3.5123   14.9092  -11.5998 C   0  0  0  0  0  0  0  0  0  0  0  0
   -1.7098   12.4700  -12.1164 F   0  0  0  0  0  0  0  0  0  0  0  0
   -1.5166   12.4356   -9.9564 F   0  0  0  0  0  0  0  0  0  0  0  0
   -5.4678   11.7527  -12.1847 H   0  0  0  0  0  0  0  0  0  0  0  0
   -6.0766   12.2858   -9.8743 H   0  0  0  0  0  0  0  0  0  0  0  0
   -8.1756   10.1191  -13.8942 H   0  0  0  0  0  0  0  0  0  0  0  0
   -6.8889   12.2463  -14.0896 H   0  0  0  0  0  0  0  0  0  0  0  0
   -6.8807    9.4553  -11.9287 H   0  0  0  0  0  0  0  0  0  0  0  0
   -8.0383    9.6050   -7.2579 H   0  0  0  0  0  0  0  0  0  0  0  0
   -4.8931    8.7825   -8.4921 H   0  0  0  0  0  0  0  0  0  0  0  0
   -2.6611    9.7559   -8.0481 H   0  0  0  0  0  0  0  0  0  0  0  0
   -4.5156   13.2866   -6.4733 H   0  0  0  0  0  0  0  0  0  0  0  0
   -6.7439   12.3101   -6.9107 H   0  0  0  0  0  0  0  0  0  0  0  0
   -2.4623   14.1868   -6.1115 H   0  0  0  0  0  0  0  0  0  0  0  0
   -0.6481   10.6174   -7.6264 H   0  0  0  0  0  0  0  0  0  0  0  0
    1.4497   14.3348   -6.0072 H   0  0  0  0  0  0  0  0  0  0  0  0
    0.1689   15.4951   -6.4967 H   0  0  0  0  0  0  0  0  0  0  0  0
    0.1531   14.7829   -4.8477 H   0  0  0  0  0  0  0  0  0  0  0  0
   -4.0230   12.4902   -9.7902 H   0  0  0  0  0  0  0  0  0  0  0  0
   -3.9436   11.6300  -11.3651 H   0  0  0  0  0  0  0  0  0  0  0  0
   -2.1210   14.8350   -9.9202 H   0  0  0  0  0  0  0  0  0  0  0  0
   -1.3323   14.8328  -11.5341 H   0  0  0  0  0  0  0  0  0  0  0  0
   -3.3578   15.1968  -12.6502 H   0  0  0  0  0  0  0  0  0  0  0  0
   -3.9532   15.7535  -11.0495 H   0  0  0  0  0  0  0  0  0  0  0  0
  1  2  1  0  0  0  0
  1  4  1  0  0  0  0
  1 12  1  0  0  0  0
  2  6  2  0  0  0  0
  3  4  2  0  0  0  0
  3  5  1  0  0  0  0
  5  6  1  0  0  0  0
  5  9  1  0  0  0  0
  6  7  1  0  0  0  0
  7  8  1  0  0  0  0
  7 10  2  3  0  0  0
  8  9  2  0  0  0  0
 10 14  1  0  0  0  0
 11 12  1  0  0  0  0
 11 26  1  0  0  0  0
 11 29  1  0  0  0  0
 12 13  2  0  0  0  0
 14 15  2  0  0  0  0
 14 19  1  0  0  0  0
 15 16  1  0  0  0  0
 16 17  2  0  0  0  0
 17 18  1  0  0  0  0
 17 20  1  0  0  0  0
 18 19  2  0  0  0  0
 20 21  2  0  0  0  0
 20 24  1  0  0  0  0
 21 22  1  0  0  0  0
 22 23  1  0  0  0  0
 22 25  1  0  0  0  0
 23 24  2  0  0  0  0
 26 27  1  0  0  0  0
 27 28  1  0  0  0  0
 27 30  1  0  0  0  0
 27 31  1  0  0  0  0
 28 29  1  0  0  0  0
  1 32  1  0  0  0  0
  2 33  1  0  0  0  0
  3 34  1  0  0  0  0
  4 35  1  0  0  0  0
  5 36  1  0  0  0  0
 10 37  1  0  0  0  0
 15 38  1  0  0  0  0
 16 39  1  0  0  0  0
 18 40  1  0  0  0  0
 19 41  1  0  0  0  0
 21 42  1  0  0  0  0
 24 43  1  0  0  0  0
 25 44  1  0  0  0  0
 25 45  1  0  0  0  0
 25 46  1  0  0  0  0
 26 47  1  0  0  0  0
 26 48  1  0  0  0  0
 28 49  1  0  0  0  0
 28 50  1  0  0  0  0
 29 51  1  0  0  0  0
 29 52  1  0  0  0  0
M  END
> <Name>
38

> <IC50[uM]>
0.005

$$$$
38
  -OEChem-05192314333D
 Structure written by MMmdl.
 52 56  0     1  0  0  0  0  0999 V2000
   -6.3676   12.3632  -12.0183 C   0  0  0  0  0  0  0  0  0  0  0  0
   -6.5148   11.8066  -10.7373 C   0  0  0  0  0  0  0  0  0  0  0  0
   -7.7147   10.5754  -13.0306 C   0  0  0  0  0  0  0  0  0  0  0  0
   -6.9819   11.7689  -13.1253 C   0  0  0  0  0  0  0  0  0  0  0  0
   -7.8143   10.0109  -11.7564 C   0  0  3  0  0  0  0  0  0  0  0  0
   -7.2414   10.6177  -10.6023 C   0  0  3  0  0  0  0  0  0  0  0  0
   -7.6126    9.7466   -9.5122 C   0  0  0  0  0  0  0  0  0  0  0  0
   -8.2846    8.7319   -9.9810 N   0  0  0  0  0  0  0  0  0  0  0  0
   -8.4146    8.8618  -11.2972 N   0  0  0  0  0  0  0  0  0  0  0  0
   -7.3363    9.8918   -8.0268 C   0  0  0  0  0  0  0  0  0  0  0  0
   -4.3648   13.7196  -11.5032 N   0  0  0  0  0  0  0  0  0  0  0  0
   -5.5453   13.6325  -12.1937 C   0  0  0  0  0  0  0  0  0  0  0  0
   -5.9402   14.5231  -12.9481 O   0  0  0  0  0  0  0  0  0  0  0  0
   -5.9634   10.4852   -7.7356 C   0  0  0  0  0  0  0  0  0  0  0  0
   -4.8111    9.7655   -8.0524 C   0  0  0  0  0  0  0  0  0  0  0  0
   -3.5521   10.3143   -7.8018 C   0  0  0  0  0  0  0  0  0  0  0  0
   -3.4442   11.5871   -7.2318 C   0  0  0  0  0  0  0  0  0  0  0  0
   -4.5964   12.3037   -6.9134 C   0  0  0  0  0  0  0  0  0  0  0  0
   -5.8531   11.7536   -7.1622 C   0  0  0  0  0  0  0  0  0  0  0  0
   -2.1000   12.1772   -6.9659 C   0  0  0  0  0  0  0  0  0  0  0  0
   -1.7711   13.4213   -6.4318 C   0  0  0  0  0  0  0  0  0  0  0  0
   -0.4319   13.4866   -6.3915 N   0  0  0  0  0  0  0  0  0  0  0  0
    0.1707   12.4146   -6.8487 N   0  0  0  0  0  0  0  0  0  0  0  0
   -0.8042   11.5996   -7.2054 C   0  0  0  0  0  0  0  0  0  0  0  0
    0.3852   14.5927   -5.9060 C   0  0  0  0  0  0  0  0  0  0  0  0
   -3.7189   12.5724  -10.8441 C   0  0  0  0  0  0  0  0  0  0  0  0
   -2.2354   12.9457  -10.9732 C   0  0  0  0  0  0  0  0  0  0  0  0
   -2.1905   14.4637  -10.9533 C   0  0  0  0  0  0  0  0  0  0  0  0
   -3.5123   14.9092  -11.5998 C   0  0  0  0  0  0  0  0  0  0  0  0
   -1.7098   12.4700  -12.1164 F   0  0  0  0  0  0  0  0  0  0  0  0
   -1.5166   12.4356   -9.9564 F   0  0  0  0  0  0  0  0  0  0  0  0
   -6.0766   12.2858   -9.8743 H   0  0  0  0  0  0  0  0  0  0  0  0
   -8.1756   10.1191  -13.8942 H   0  0  0  0  0  0  0  0  0  0  0  0
   -6.8889   12.2463  -14.0896 H   0  0  0  0  0  0  0  0  0  0  0  0
   -6.8807    9.4553  -11.9287 H   0  0  0  0  0  0  0  0  0  0  0  0
   -6.3198   10.0366  -10.7536 H   0  0  0  0  0  0  0  0  0  0  0  0
   -8.0383    9.6050   -7.2579 H   0  0  0  0  0  0  0  0  0  0  0  0
   -4.8931    8.7825   -8.4921 H   0  0  0  0  0  0  0  0  0  0  0  0
   -2.6611    9.7559   -8.0481 H   0  0  0  0  0  0  0  0  0  0  0  0
   -4.5156   13.2866   -6.4733 H   0  0  0  0  0  0  0  0  0  0  0  0
   -6.7439   12.3101   -6.9107 H   0  0  0  0  0  0  0  0  0  0  0  0
   -2.4623   14.1868   -6.1115 H   0  0  0  0  0  0  0  0  0  0  0  0
   -0.6481   10.6174   -7.6264 H   0  0  0  0  0  0  0  0  0  0  0  0
    1.4497   14.3348   -6.0072 H   0  0  0  0  0  0  0  0  0  0  0  0
    0.1689   15.4951   -6.4967 H   0  0  0  0  0  0  0  0  0  0  0  0
    0.1531   14.7829   -4.8477 H   0  0  0  0  0  0  0  0  0  0  0  0
   -4.0230   12.4902   -9.7902 H   0  0  0  0  0  0  0  0  0  0  0  0
   -3.9436   11.6300  -11.3651 H   0  0  0  0  0  0  0  0  0  0  0  0
   -2.1210   14.8350   -9.9202 H   0  0  0  0  0  0  0  0  0  0  0  0
   -1.3323   14.8328  -11.5341 H   0  0  0  0  0  0  0  0  0  0  0  0
   -3.3578   15.1968  -12.6502 H   0  0  0  0  0  0  0  0  0  0  0  0
   -3.9532   15.7535  -11.0495 H   0  0  0  0  0  0  0  0  0  0  0  0
  1  2  2  0  0  0  0
  1  4  1  0  0  0  0
  1 12  1  0  0  0  0
  2  6  1  0  0  0  0
  3  4  2  0  0  0  0
  3  5  1  0  0  0  0
  5  6  1  0  0  0  0
  5  9  1  0  0  0  0
  6  7  1  0  0  0  0
  7  8  1  0  0  0  0
  7 10  2  3  0  0  0
  8  9  2  0  0  0  0
 10 14  1  0  0  0  0
 11 12  1  0  0  0  0
 11 26  1  0  0  0  0
 11 29  1  0  0  0  0
 12 13  2  0  0  0  0
 14 15  2  0  0  0  0
 14 19  1  0  0  0  0
 15 16  1  0  0  0  0
 16 17  2  0  0  0  0
 17 18  1  0  0  0  0
 17 20  1  0  0  0  0
 18 19  2  0  0  0  0
 20 21  2  0  0  0  0
 20 24  1  0  0  0  0
 21 22  1  0  0  0  0
 22 23  1  0  0  0  0
 22 25  1  0  0  0  0
 23 24  2  0  0  0  0
 26 27  1  0  0  0  0
 27 28  1  0  0  0  0
 27 30  1  0  0  0  0
 27 31  1  0  0  0  0
 28 29  1  0  0  0  0
  2 32  1  0  0  0  0
  3 33  1  0  0  0  0
  4 34  1  0  0  0  0
  5 35  1  0  0  0  0
  6 36  1  0  0  0  0
 10 37  1  0  0  0  0
 15 38  1  0  0  0  0
 16 39  1  0  0  0  0
 18 40  1  0  0  0  0
 19 41  1  0  0  0  0
 21 42  1  0  0  0  0
 24 43  1  0  0  0  0
 25 44  1  0  0  0  0
 25 45  1  0  0  0  0
 25 46  1  0  0  0  0
 26 47  1  0  0  0  0
 26 48  1  0  0  0  0
 28 49  1  0  0  0  0
 28 50  1  0  0  0  0
 29 51  1  0  0  0  0
 29 52  1  0  0  0  0
M  END
> <Name>
38

> <IC50[uM]>
0.005

$$$$
38
  -OEChem-05192314333D
 Structure written by MMmdl.
 52 56  0     1  0  0  0  0  0999 V2000
   -6.3676   12.3632  -12.0183 C   0  0  0  0  0  0  0  0  0  0  0  0
   -6.5148   11.8066  -10.7373 C   0  0  0  0  0  0  0  0  0  0  0  0
   -7.7147   10.5754  -13.0306 C   0  0  0  0  0  0  0  0  0  0  0  0
   -6.9819   11.7689  -13.1253 C   0  0  0  0  0  0  0  0  0  0  0  0
   -7.8143   10.0109  -11.7564 C   0  0  3  0  0  0  0  0  0  0  0  0
   -7.2414   10.6177  -10.6023 C   0  0  0  0  0  0  0  0  0  0  0  0
   -7.6126    9.7466   -9.5122 C   0  0  0  0  0  0  0  0  0  0  0  0
   -8.2846    8.7319   -9.9810 N   0  0  0  0  0  0  0  0  0  0  0  0
   -8.4146    8.8618  -11.2972 N   0  0  0  0  0  0  0  0  0  0  0  0
   -7.3363    9.8918   -8.0268 C   0  0  0  0  0  0  0  0  0  0  0  0
   -4.3648   13.7196  -11.5032 N   0  0  0  0  0  0  0  0  0  0  0  0
   -5.5453   13.6325  -12.1937 C   0  0  0  0  0  0  0  0  0  0  0  0
   -5.9402   14.5231  -12.9481 O   0  0  0  0  0  0  0  0  0  0  0  0
   -5.9634   10.4852   -7.7356 C   0  0  0  0  0  0  0  0  0  0  0  0
   -4.8111    9.7655   -8.0524 C   0  0  0  0  0  0  0  0  0  0  0  0
   -3.5521   10.3143   -7.8018 C   0  0  0  0  0  0  0  0  0  0  0  0
   -3.4442   11.5871   -7.2318 C   0  0  0  0  0  0  0  0  0  0  0  0
   -4.5964   12.3037   -6.9134 C   0  0  0  0  0  0  0  0  0  0  0  0
   -5.8531   11.7536   -7.1622 C   0  0  0  0  0  0  0  0  0  0  0  0
   -2.1000   12.1772   -6.9659 C   0  0  0  0  0  0  0  0  0  0  0  0
   -1.7711   13.4213   -6.4318 C   0  0  0  0  0  0  0  0  0  0  0  0
   -0.4319   13.4866   -6.3915 N   0  0  0  0  0  0  0  0  0  0  0  0
    0.1707   12.4146   -6.8487 N   0  0  0  0  0  0  0  0  0  0  0  0
   -0.8042   11.5996   -7.2054 C   0  0  0  0  0  0  0  0  0  0  0  0
    0.3852   14.5927   -5.9060 C   0  0  0  0  0  0  0  0  0  0  0  0
   -3.7189   12.5724  -10.8441 C   0  0  0  0  0  0  0  0  0  0  0  0
   -2.2354   12.9457  -10.9732 C   0  0  0  0  0  0  0  0  0  0  0  0
   -2.1905   14.4637  -10.9533 C   0  0  0  0  0  0  0  0  0  0  0  0
   -3.5123   14.9092  -11.5998 C   0  0  0  0  0  0  0  0  0  0  0  0
   -1.7098   12.4700  -12.1164 F   0  0  0  0  0  0  0  0  0  0  0  0
   -1.5166   12.4356   -9.9564 F   0  0  0  0  0  0  0  0  0  0  0  0
   -6.0766   12.2858   -9.8743 H   0  0  0  0  0  0  0  0  0  0  0  0
   -8.7349   10.7790  -13.3879 H   0  0  0  0  0  0  0  0  0  0  0  0
   -7.2366    9.8351  -13.6889 H   0  0  0  0  0  0  0  0  0  0  0  0
   -6.8889   12.2463  -14.0896 H   0  0  0  0  0  0  0  0  0  0  0  0
   -6.8807    9.4553  -11.9287 H   0  0  0  0  0  0  0  0  0  0  0  0
   -8.0383    9.6050   -7.2579 H   0  0  0  0  0  0  0  0  0  0  0  0
   -4.8931    8.7825   -8.4921 H   0  0  0  0  0  0  0  0  0  0  0  0
   -2.6611    9.7559   -8.0481 H   0  0  0  0  0  0  0  0  0  0  0  0
   -4.5156   13.2866   -6.4733 H   0  0  0  0  0  0  0  0  0  0  0  0
   -6.7439   12.3101   -6.9107 H   0  0  0  0  0  0  0  0  0  0  0  0
   -2.4623   14.1868   -6.1115 H   0  0  0  0  0  0  0  0  0  0  0  0
   -0.6481   10.6174   -7.6264 H   0  0  0  0  0  0  0  0  0  0  0  0
    1.4497   14.3348   -6.0072 H   0  0  0  0  0  0  0  0  0  0  0  0
    0.1689   15.4951   -6.4967 H   0  0  0  0  0  0  0  0  0  0  0  0
    0.1531   14.7829   -4.8477 H   0  0  0  0  0  0  0  0  0  0  0  0
   -4.0230   12.4902   -9.7902 H   0  0  0  0  0  0  0  0  0  0  0  0
   -3.9436   11.6300  -11.3651 H   0  0  0  0  0  0  0  0  0  0  0  0
   -2.1210   14.8350   -9.9202 H   0  0  0  0  0  0  0  0  0  0  0  0
   -1.3323   14.8328  -11.5341 H   0  0  0  0  0  0  0  0  0  0  0  0
   -3.3578   15.1968  -12.6502 H   0  0  0  0  0  0  0  0  0  0  0  0
   -3.9532   15.7535  -11.0495 H   0  0  0  0  0  0  0  0  0  0  0  0
  1  2  1  0  0  0  0
  1  4  2  0  0  0  0
  1 12  1  0  0  0  0
  2  6  2  0  0  0  0
  3  4  1  0  0  0  0
  3  5  1  0  0  0  0
  5  6  1  0  0  0  0
  5  9  1  0  0  0  0
  6  7  1  0  0  0  0
  7  8  1  0  0  0  0
  7 10  2  3  0  0  0
  8  9  2  0  0  0  0
 10 14  1  0  0  0  0
 11 12  1  0  0  0  0
 11 26  1  0  0  0  0
 11 29  1  0  0  0  0
 12 13  2  0  0  0  0
 14 15  2  0  0  0  0
 14 19  1  0  0  0  0
 15 16  1  0  0  0  0
 16 17  2  0  0  0  0
 17 18  1  0  0  0  0
 17 20  1  0  0  0  0
 18 19  2  0  0  0  0
 20 21  2  0  0  0  0
 20 24  1  0  0  0  0
 21 22  1  0  0  0  0
 22 23  1  0  0  0  0
 22 25  1  0  0  0  0
 23 24  2  0  0  0  0
 26 27  1  0  0  0  0
 27 28  1  0  0  0  0
 27 30  1  0  0  0  0
 27 31  1  0  0  0  0
 28 29  1  0  0  0  0
  2 32  1  0  0  0  0
  3 33  1  0  0  0  0
  3 34  1  0  0  0  0
  4 35  1  0  0  0  0
  5 36  1  0  0  0  0
 10 37  1  0  0  0  0
 15 38  1  0  0  0  0
 16 39  1  0  0  0  0
 18 40  1  0  0  0  0
 19 41  1  0  0  0  0
 21 42  1  0  0  0  0
 24 43  1  0  0  0  0
 25 44  1  0  0  0  0
 25 45  1  0  0  0  0
 25 46  1  0  0  0  0
 26 47  1  0  0  0  0
 26 48  1  0  0  0  0
 28 49  1  0  0  0  0
 28 50  1  0  0  0  0
 29 51  1  0  0  0  0
 29 52  1  0  0  0  0
M  END
> <Name>
38

> <IC50[uM]>
0.005

$$$$
38
  -OEChem-05192314333D
 Structure written by MMmdl.
 52 56  0     1  0  0  0  0  0999 V2000
   -6.3676   12.3632  -12.0183 C   0  0  0  0  0  0  0  0  0  0  0  0
   -6.5148   11.8066  -10.7373 C   0  0  0  0  0  0  0  0  0  0  0  0
   -7.7147   10.5754  -13.0306 C   0  0  0  0  0  0  0  0  0  0  0  0
   -6.9819   11.7689  -13.1253 C   0  0  0  0  0  0  0  0  0  0  0  0
   -7.8143   10.0109  -11.7564 C   0  0  0  0  0  0  0  0  0  0  0  0
   -7.2414   10.6177  -10.6023 C   0  0  0  0  0  0  0  0  0  0  0  0
   -7.6126    9.7466   -9.5122 C   0  0  0  0  0  0  0  0  0  0  0  0
   -8.2846    8.7319   -9.9810 N   0  0  0  0  0  0  0  0  0  0  0  0
   -8.4146    8.8618  -11.2972 N   0  0  0  0  0  0  0  0  0  0  0  0
   -7.3363    9.8918   -8.0268 C   0  0  0  0  0  0  0  0  0  0  0  0
   -4.3648   13.7196  -11.5032 N   0  0  0  0  0  0  0  0  0  0  0  0
   -5.5453   13.6325  -12.1937 C   0  0  0  0  0  0  0  0  0  0  0  0
   -5.9402   14.5231  -12.9481 O   0  0  0  0  0  0  0  0  0  0  0  0
   -5.9634   10.4852   -7.7356 C   0  0  0  0  0  0  0  0  0  0  0  0
   -4.8111    9.7655   -8.0524 C   0  0  0  0  0  0  0  0  0  0  0  0
   -3.5521   10.3143   -7.8018 C   0  0  0  0  0  0  0  0  0  0  0  0
   -3.4442   11.5871   -7.2318 C   0  0  3  0  0  0  0  0  0  0  0  0
   -4.5964   12.3037   -6.9134 C   0  0  0  0  0  0  0  0  0  0  0  0
   -5.8531   11.7536   -7.1622 C   0  0  0  0  0  0  0  0  0  0  0  0
   -2.1000   12.1772   -6.9659 C   0  0  0  0  0  0  0  0  0  0  0  0
   -1.7711   13.4213   -6.4318 C   0  0  0  0  0  0  0  0  0  0  0  0
   -0.4319   13.4866   -6.3915 N   0  0  0  0  0  0  0  0  0  0  0  0
    0.1707   12.4146   -6.8487 N   0  0  0  0  0  0  0  0  0  0  0  0
   -0.8042   11.5996   -7.2054 C   0  0  0  0  0  0  0  0  0  0  0  0
    0.3852   14.5927   -5.9060 C   0  0  0  0  0  0  0  0  0  0  0  0
   -3.7189   12.5724  -10.8441 C   0  0  0  0  0  0  0  0  0  0  0  0
   -2.2354   12.9457  -10.9732 C   0  0  0  0  0  0  0  0  0  0  0  0
   -2.1905   14.4637  -10.9533 C   0  0  0  0  0  0  0  0  0  0  0  0
   -3.5123   14.9092  -11.5998 C   0  0  0  0  0  0  0  0  0  0  0  0
   -1.7098   12.4700  -12.1164 F   0  0  0  0  0  0  0  0  0  0  0  0
   -1.5166   12.4356   -9.9564 F   0  0  0  0  0  0  0  0  0  0  0  0
   -6.0766   12.2858   -9.8743 H   0  0  0  0  0  0  0  0  0  0  0  0
   -8.1756   10.1191  -13.8942 H   0  0  0  0  0  0  0  0  0  0  0  0
   -6.8889   12.2463  -14.0896 H   0  0  0  0  0  0  0  0  0  0  0  0
   -8.0383    9.6050   -7.2579 H   0  0  0  0  0  0  0  0  0  0  0  0
   -4.8931    8.7825   -8.4921 H   0  0  0  0  0  0  0  0  0  0  0  0
   -3.0314    9.6191   -7.1269 H   0  0  0  0  0  0  0  0  0  0  0  0
   -3.0249   10.3528   -8.7665 H   0  0  0  0  0  0  0  0  0  0  0  0
   -3.4458   11.1378   -6.2277 H   0  0  0  0  0  0  0  0  0  0  0  0
   -4.5156   13.2866   -6.4733 H   0  0  0  0  0  0  0  0  0  0  0  0
   -6.7439   12.3101   -6.9107 H   0  0  0  0  0  0  0  0  0  0  0  0
   -2.4623   14.1868   -6.1115 H   0  0  0  0  0  0  0  0  0  0  0  0
   -0.6481   10.6174   -7.6264 H   0  0  0  0  0  0  0  0  0  0  0  0
    1.4497   14.3348   -6.0072 H   0  0  0  0  0  0  0  0  0  0  0  0
    0.1689   15.4951   -6.4967 H   0  0  0  0  0  0  0  0  0  0  0  0
    0.1531   14.7829   -4.8477 H   0  0  0  0  0  0  0  0  0  0  0  0
   -4.0230   12.4902   -9.7902 H   0  0  0  0  0  0  0  0  0  0  0  0
   -3.9436   11.6300  -11.3651 H   0  0  0  0  0  0  0  0  0  0  0  0
   -2.1210   14.8350   -9.9202 H   0  0  0  0  0  0  0  0  0  0  0  0
   -1.3323   14.8328  -11.5341 H   0  0  0  0  0  0  0  0  0  0  0  0
   -3.3578   15.1968  -12.6502 H   0  0  0  0  0  0  0  0  0  0  0  0
   -3.9532   15.7535  -11.0495 H   0  0  0  0  0  0  0  0  0  0  0  0
  1  2  2  0  0  0  0
  1  4  1  0  0  0  0
  1 12  1  0  0  0  0
  2  6  1  0  0  0  0
  3  4  2  0  0  0  0
  3  5  1  0  0  0  0
  5  6  2  0  0  0  0
  5  9  1  0  0  0  0
  6  7  1  0  0  0  0
  7  8  1  0  0  0  0
  7 10  2  3  0  0  0
  8  9  2  0  0  0  0
 10 14  1  0  0  0  0
 11 12  1  0  0  0  0
 11 26  1  0  0  0  0
 11 29  1  0  0  0  0
 12 13  2  0  0  0  0
 14 15  2  0  0  0  0
 14 19  1  0  0  0  0
 15 16  1  0  0  0  0
 16 17  1  0  0  0  0
 17 18  1  0  0  0  0
 17 20  1  0  0  0  0
 18 19  2  0  0  0  0
 20 21  2  0  0  0  0
 20 24  1  0  0  0  0
 21 22  1  0  0  0  0
 22 23  1  0  0  0  0
 22 25  1  0  0  0  0
 23 24  2  0  0  0  0
 26 27  1  0  0  0  0
 27 28  1  0  0  0  0
 27 30  1  0  0  0  0
 27 31  1  0  0  0  0
 28 29  1  0  0  0  0
  2 32  1  0  0  0  0
  3 33  1  0  0  0  0
  4 34  1  0  0  0  0
 10 35  1  0  0  0  0
 15 36  1  0  0  0  0
 16 37  1  0  0  0  0
 16 38  1  0  0  0  0
 17 39  1  0  0  0  0
 18 40  1  0  0  0  0
 19 41  1  0  0  0  0
 21 42  1  0  0  0  0
 24 43  1  0  0  0  0
 25 44  1  0  0  0  0
 25 45  1  0  0  0  0
 25 46  1  0  0  0  0
 26 47  1  0  0  0  0
 26 48  1  0  0  0  0
 28 49  1  0  0  0  0
 28 50  1  0  0  0  0
 29 51  1  0  0  0  0
 29 52  1  0  0  0  0
M  END
> <Name>
38

> <IC50[uM]>
0.005

$$$$
38
  -OEChem-05192314333D
 Structure written by MMmdl.
 52 56  0     1  0  0  0  0  0999 V2000
   -6.3676   12.3632  -12.0183 C   0  0  3  0  0  0  0  0  0  0  0  0
   -6.5148   11.8066  -10.7373 C   0  0  0  0  0  0  0  0  0  0  0  0
   -7.7147   10.5754  -13.0306 C   0  0  0  0  0  0  0  0  0  0  0  0
   -6.9819   11.7689  -13.1253 C   0  0  0  0  0  0  0  0  0  0  0  0
   -7.8143   10.0109  -11.7564 C   0  0  0  0  0  0  0  0  0  0  0  0
   -7.2414   10.6177  -10.6023 C   0  0  0  0  0  0  0  0  0  0  0  0
   -7.6126    9.7466   -9.5122 C   0  0  0  0  0  0  0  0  0  0  0  0
   -8.2846    8.7319   -9.9810 N   0  0  0  0  0  0  0  0  0  0  0  0
   -8.4146    8.8618  -11.2972 N   0  0  0  0  0  0  0  0  0  0  0  0
   -7.3363    9.8918   -8.0268 C   0  0  0  0  0  0  0  0  0  0  0  0
   -4.3648   13.7196  -11.5032 N   0  0  0  0  0  0  0  0  0  0  0  0
   -5.5453   13.6325  -12.1937 C   0  0  0  0  0  0  0  0  0  0  0  0
   -5.9402   14.5231  -12.9481 O   0  0  0  0  0  0  0  0  0  0  0  0
   -5.9634   10.4852   -7.7356 C   0  0  0  0  0  0  0  0  0  0  0  0
   -4.8111    9.7655   -8.0524 C   0  0  0  0  0  0  0  0  0  0  0  0
   -3.5521   10.3143   -7.8018 C   0  0  0  0  0  0  0  0  0  0  0  0
   -3.4442   11.5871   -7.2318 C   0  0  0  0  0  0  0  0  0  0  0  0
   -4.5964   12.3037   -6.9134 C   0  0  0  0  0  0  0  0  0  0  0  0
   -5.8531   11.7536   -7.1622 C   0  0  0  0  0  0  0  0  0  0  0  0
   -2.1000   12.1772   -6.9659 C   0  0  0  0  0  0  0  0  0  0  0  0
   -1.7711   13.4213   -6.4318 C   0  0  0  0  0  0  0  0  0  0  0  0
   -0.4319   13.4866   -6.3915 N   0  0  0  0  0  0  0  0  0  0  0  0
    0.1707   12.4146   -6.8487 N   0  0  0  0  0  0  0  0  0  0  0  0
   -0.8042   11.5996   -7.2054 C   0  0  0  0  0  0  0  0  0  0  0  0
    0.3852   14.5927   -5.9060 C   0  0  0  0  0  0  0  0  0  0  0  0
   -3.7189   12.5724  -10.8441 C   0  0  0  0  0  0  0  0  0  0  0  0
   -2.2354   12.9457  -10.9732 C   0  0  0  0  0  0  0  0  0  0  0  0
   -2.1905   14.4637  -10.9533 C   0  0  0  0  0  0  0  0  0  0  0  0
   -3.5123   14.9092  -11.5998 C   0  0  0  0  0  0  0  0  0  0  0  0
   -1.7098   12.4700  -12.1164 F   0  0  0  0  0  0  0  0  0  0  0  0
   -1.5166   12.4356   -9.9564 F   0  0  0  0  0  0  0  0  0  0  0  0
   -5.4678   11.7527  -12.1847 H   0  0  0  0  0  0  0  0  0  0  0  0
   -6.0766   12.2858   -9.8743 H   0  0  0  0  0  0  0  0  0  0  0  0
   -8.1756   10.1191  -13.8942 H   0  0  0  0  0  0  0  0  0  0  0  0
   -7.6744   12.5212  -13.5309 H   0  0  0  0  0  0  0  0  0  0  0  0
   -6.1801   11.5781  -13.8538 H   0  0  0  0  0  0  0  0  0  0  0  0
   -8.0383    9.6050   -7.2579 H   0  0  0  0  0  0  0  0  0  0  0  0
   -4.8931    8.7825   -8.4921 H   0  0  0  0  0  0  0  0  0  0  0  0
   -2.6611    9.7559   -8.0481 H   0  0  0  0  0  0  0  0  0  0  0  0
   -4.5156   13.2866   -6.4733 H   0  0  0  0  0  0  0  0  0  0  0  0
   -6.7439   12.3101   -6.9107 H   0  0  0  0  0  0  0  0  0  0  0  0
   -2.4623   14.1868   -6.1115 H   0  0  0  0  0  0  0  0  0  0  0  0
   -0.6481   10.6174   -7.6264 H   0  0  0  0  0  0  0  0  0  0  0  0
    1.4497   14.3348   -6.0072 H   0  0  0  0  0  0  0  0  0  0  0  0
    0.1689   15.4951   -6.4967 H   0  0  0  0  0  0  0  0  0  0  0  0
    0.1531   14.7829   -4.8477 H   0  0  0  0  0  0  0  0  0  0  0  0
   -4.0230   12.4902   -9.7902 H   0  0  0  0  0  0  0  0  0  0  0  0
   -3.9436   11.6300  -11.3651 H   0  0  0  0  0  0  0  0  0  0  0  0
   -2.1210   14.8350   -9.9202 H   0  0  0  0  0  0  0  0  0  0  0  0
   -1.3323   14.8328  -11.5341 H   0  0  0  0  0  0  0  0  0  0  0  0
   -3.3578   15.1968  -12.6502 H   0  0  0  0  0  0  0  0  0  0  0  0
   -3.9532   15.7535  -11.0495 H   0  0  0  0  0  0  0  0  0  0  0  0
  1  2  1  0  0  0  0
  1  4  1  0  0  0  0
  1 12  1  0  0  0  0
  2  6  2  0  0  0  0
  3  4  1  0  0  0  0
  3  5  2  0  0  0  0
  5  6  1  0  0  0  0
  5  9  1  0  0  0  0
  6  7  1  0  0  0  0
  7  8  1  0  0  0  0
  7 10  2  3  0  0  0
  8  9  2  0  0  0  0
 10 14  1  0  0  0  0
 11 12  1  0  0  0  0
 11 26  1  0  0  0  0
 11 29  1  0  0  0  0
 12 13  2  0  0  0  0
 14 15  2  0  0  0  0
 14 19  1  0  0  0  0
 15 16  1  0  0  0  0
 16 17  2  0  0  0  0
 17 18  1  0  0  0  0
 17 20  1  0  0  0  0
 18 19  2  0  0  0  0
 20 21  2  0  0  0  0
 20 24  1  0  0  0  0
 21 22  1  0  0  0  0
 22 23  1  0  0  0  0
 22 25  1  0  0  0  0
 23 24  2  0  0  0  0
 26 27  1  0  0  0  0
 27 28  1  0  0  0  0
 27 30  1  0  0  0  0
 27 31  1  0  0  0  0
 28 29  1  0  0  0  0
  1 32  1  0  0  0  0
  2 33  1  0  0  0  0
  3 34  1  0  0  0  0
  4 35  1  0  0  0  0
  4 36  1  0  0  0  0
 10 37  1  0  0  0  0
 15 38  1  0  0  0  0
 16 39  1  0  0  0  0
 18 40  1  0  0  0  0
 19 41  1  0  0  0  0
 21 42  1  0  0  0  0
 24 43  1  0  0  0  0
 25 44  1  0  0  0  0
 25 45  1  0  0  0  0
 25 46  1  0  0  0  0
 26 47  1  0  0  0  0
 26 48  1  0  0  0  0
 28 49  1  0  0  0  0
 28 50  1  0  0  0  0
 29 51  1  0  0  0  0
 29 52  1  0  0  0  0
M  END
> <Name>
38

> <IC50[uM]>
0.005

$$$$
38
  -OEChem-05192314333D
 Structure written by MMmdl.
 52 56  0     1  0  0  0  0  0999 V2000
   -6.3676   12.3632  -12.0183 C   0  0  0  0  0  0  0  0  0  0  0  0
   -6.5148   11.8066  -10.7373 C   0  0  0  0  0  0  0  0  0  0  0  0
   -7.7147   10.5754  -13.0306 C   0  0  0  0  0  0  0  0  0  0  0  0
   -6.9819   11.7689  -13.1253 C   0  0  0  0  0  0  0  0  0  0  0  0
   -7.8143   10.0109  -11.7564 C   0  0  0  0  0  0  0  0  0  0  0  0
   -7.2414   10.6177  -10.6023 C   0  0  3  0  0  0  0  0  0  0  0  0
   -7.6126    9.7466   -9.5122 C   0  0  0  0  0  0  0  0  0  0  0  0
   -8.2846    8.7319   -9.9810 N   0  0  0  0  0  0  0  0  0  0  0  0
   -8.4146    8.8618  -11.2972 N   0  0  0  0  0  0  0  0  0  0  0  0
   -7.3363    9.8918   -8.0268 C   0  0  0  0  0  0  0  0  0  0  0  0
   -4.3648   13.7196  -11.5032 N   0  0  0  0  0  0  0  0  0  0  0  0
   -5.5453   13.6325  -12.1937 C   0  0  0  0  0  0  0  0  0  0  0  0
   -5.9402   14.5231  -12.9481 O   0  0  0  0  0  0  0  0  0  0  0  0
   -5.9634   10.4852   -7.7356 C   0  0  0  0  0  0  0  0  0  0  0  0
   -4.8111    9.7655   -8.0524 C   0  0  0  0  0  0  0  0  0  0  0  0
   -3.5521   10.3143   -7.8018 C   0  0  0  0  0  0  0  0  0  0  0  0
   -3.4442   11.5871   -7.2318 C   0  0  0  0  0  0  0  0  0  0  0  0
   -4.5964   12.3037   -6.9134 C   0  0  0  0  0  0  0  0  0  0  0  0
   -5.8531   11.7536   -7.1622 C   0  0  0  0  0  0  0  0  0  0  0  0
   -2.1000   12.1772   -6.9659 C   0  0  0  0  0  0  0  0  0  0  0  0
   -1.7711   13.4213   -6.4318 C   0  0  0  0  0  0  0  0  0  0  0  0
   -0.4319   13.4866   -6.3915 N   0  0  0  0  0  0  0  0  0  0  0  0
    0.1707   12.4146   -6.8487 N   0  0  0  0  0  0  0  0  0  0  0  0
   -0.8042   11.5996   -7.2054 C   0  0  0  0  0  0  0  0  0  0  0  0
    0.3852   14.5927   -5.9060 C   0  0  0  0  0  0  0  0  0  0  0  0
   -3.7189   12.5724  -10.8441 C   0  0  0  0  0  0  0  0  0  0  0  0
   -2.2354   12.9457  -10.9732 C   0  0  0  0  0  0  0  0  0  0  0  0
   -2.1905   14.4637  -10.9533 C   0  0  0  0  0  0  0  0  0  0  0  0
   -3.5123   14.9092  -11.5998 C   0  0  0  0  0  0  0  0  0  0  0  0
   -1.7098   12.4700  -12.1164 F   0  0  0  0  0  0  0  0  0  0  0  0
   -1.5166   12.4356   -9.9564 F   0  0  0  0  0  0  0  0  0  0  0  0
   -6.0766   12.2858   -9.8743 H   0  0  0  0  0  0  0  0  0  0  0  0
   -8.1756   10.1191  -13.8942 H   0  0  0  0  0  0  0  0  0  0  0  0
   -7.6744   12.5212  -13.5309 H   0  0  0  0  0  0  0  0  0  0  0  0
   -6.1801   11.5781  -13.8538 H   0  0  0  0  0  0  0  0  0  0  0  0
   -6.3198   10.0366  -10.7536 H   0  0  0  0  0  0  0  0  0  0  0  0
   -8.0383    9.6050   -7.2579 H   0  0  0  0  0  0  0  0  0  0  0  0
   -4.8931    8.7825   -8.4921 H   0  0  0  0  0  0  0  0  0  0  0  0
   -2.6611    9.7559   -8.0481 H   0  0  0  0  0  0  0  0  0  0  0  0
   -4.5156   13.2866   -6.4733 H   0  0  0  0  0  0  0  0  0  0  0  0
   -6.7439   12.3101   -6.9107 H   0  0  0  0  0  0  0  0  0  0  0  0
   -2.4623   14.1868   -6.1115 H   0  0  0  0  0  0  0  0  0  0  0  0
   -0.6481   10.6174   -7.6264 H   0  0  0  0  0  0  0  0  0  0  0  0
    1.4497   14.3348   -6.0072 H   0  0  0  0  0  0  0  0  0  0  0  0
    0.1689   15.4951   -6.4967 H   0  0  0  0  0  0  0  0  0  0  0  0
    0.1531   14.7829   -4.8477 H   0  0  0  0  0  0  0  0  0  0  0  0
   -4.0230   12.4902   -9.7902 H   0  0  0  0  0  0  0  0  0  0  0  0
   -3.9436   11.6300  -11.3651 H   0  0  0  0  0  0  0  0  0  0  0  0
   -2.1210   14.8350   -9.9202 H   0  0  0  0  0  0  0  0  0  0  0  0
   -1.3323   14.8328  -11.5341 H   0  0  0  0  0  0  0  0  0  0  0  0
   -3.3578   15.1968  -12.6502 H   0  0  0  0  0  0  0  0  0  0  0  0
   -3.9532   15.7535  -11.0495 H   0  0  0  0  0  0  0  0  0  0  0  0
  1  2  2  0  0  0  0
  1  4  1  0  0  0  0
  1 12  1  0  0  0  0
  2  6  1  0  0  0  0
  3  4  1  0  0  0  0
  3  5  2  0  0  0  0
  5  6  1  0  0  0  0
  5  9  1  0  0  0  0
  6  7  1  0  0  0  0
  7  8  1  0  0  0  0
  7 10  2  3  0  0  0
  8  9  2  0  0  0  0
 10 14  1  0  0  0  0
 11 12  1  0  0  0  0
 11 26  1  0  0  0  0
 11 29  1  0  0  0  0
 12 13  2  0  0  0  0
 14 15  2  0  0  0  0
 14 19  1  0  0  0  0
 15 16  1  0  0  0  0
 16 17  2  0  0  0  0
 17 18  1  0  0  0  0
 17 20  1  0  0  0  0
 18 19  2  0  0  0  0
 20 21  2  0  0  0  0
 20 24  1  0  0  0  0
 21 22  1  0  0  0  0
 22 23  1  0  0  0  0
 22 25  1  0  0  0  0
 23 24  2  0  0  0  0
 26 27  1  0  0  0  0
 27 28  1  0  0  0  0
 27 30  1  0  0  0  0
 27 31  1  0  0  0  0
 28 29  1  0  0  0  0
  2 32  1  0  0  0  0
  3 33  1  0  0  0  0
  4 34  1  0  0  0  0
  4 35  1  0  0  0  0
  6 36  1  0  0  0  0
 10 37  1  0  0  0  0
 15 38  1  0  0  0  0
 16 39  1  0  0  0  0
 18 40  1  0  0  0  0
 19 41  1  0  0  0  0
 21 42  1  0  0  0  0
 24 43  1  0  0  0  0
 25 44  1  0  0  0  0
 25 45  1  0  0  0  0
 25 46  1  0  0  0  0
 26 47  1  0  0  0  0
 26 48  1  0  0  0  0
 28 49  1  0  0  0  0
 28 50  1  0  0  0  0
 29 51  1  0  0  0  0
 29 52  1  0  0  0  0
M  END
> <Name>
38

> <IC50[uM]>
0.005

$$$$
38
  -OEChem-05192314333D
 Structure written by MMmdl.
 52 56  0     0  0  0  0  0  0999 V2000
   -6.3676   12.3632  -12.0183 C   0  0  0  0  0  0  0  0  0  0  0  0
   -6.5148   11.8066  -10.7373 C   0  0  0  0  0  0  0  0  0  0  0  0
   -7.7147   10.5754  -13.0306 C   0  0  0  0  0  0  0  0  0  0  0  0
   -6.9819   11.7689  -13.1253 C   0  0  0  0  0  0  0  0  0  0  0  0
   -7.8143   10.0109  -11.7564 C   0  0  0  0  0  0  0  0  0  0  0  0
   -7.2414   10.6177  -10.6023 C   0  0  0  0  0  0  0  0  0  0  0  0
   -7.6126    9.7466   -9.5122 C   0  0  0  0  0  0  0  0  0  0  0  0
   -8.2846    8.7319   -9.9810 N   0  0  0  0  0  0  0  0  0  0  0  0
   -8.4146    8.8618  -11.2972 N   0  0  0  0  0  0  0  0  0  0  0  0
   -7.3363    9.8918   -8.0268 C   0  0  0  0  0  0  0  0  0  0  0  0
   -4.3648   13.7196  -11.5032 N   0  0  0  0  0  0  0  0  0  0  0  0
   -5.5453   13.6325  -12.1937 C   0  0  0  0  0  0  0  0  0  0  0  0
   -5.9402   14.5231  -12.9481 O   0  0  0  0  0  0  0  0  0  0  0  0
   -5.9634   10.4852   -7.7356 C   0  0  0  0  0  0  0  0  0  0  0  0
   -4.8111    9.7655   -8.0524 C   0  0  0  0  0  0  0  0  0  0  0  0
   -3.5521   10.3143   -7.8018 C   0  0  0  0  0  0  0  0  0  0  0  0
   -3.4442   11.5871   -7.2318 C   0  0  0  0  0  0  0  0  0  0  0  0
   -4.5964   12.3037   -6.9134 C   0  0  0  0  0  0  0  0  0  0  0  0
   -5.8531   11.7536   -7.1622 C   0  0  0  0  0  0  0  0  0  0  0  0
   -2.1000   12.1772   -6.9659 C   0  0  0  0  0  0  0  0  0  0  0  0
   -1.7711   13.4213   -6.4318 C   0  0  0  0  0  0  0  0  0  0  0  0
   -0.4319   13.4866   -6.3915 N   0  0  0  0  0  0  0  0  0  0  0  0
    0.1707   12.4146   -6.8487 N   0  0  0  0  0  0  0  0  0  0  0  0
   -0.8042   11.5996   -7.2054 C   0  0  0  0  0  0  0  0  0  0  0  0
    0.3852   14.5927   -5.9060 C   0  0  0  0  0  0  0  0  0  0  0  0
   -3.7189   12.5724  -10.8441 C   0  0  0  0  0  0  0  0  0  0  0  0
   -2.2354   12.9457  -10.9732 C   0  0  0  0  0  0  0  0  0  0  0  0
   -2.1905   14.4637  -10.9533 C   0  0  0  0  0  0  0  0  0  0  0  0
   -3.5123   14.9092  -11.5998 C   0  0  0  0  0  0  0  0  0  0  0  0
   -1.7098   12.4700  -12.1164 F   0  0  0  0  0  0  0  0  0  0  0  0
   -1.5166   12.4356   -9.9564 F   0  0  0  0  0  0  0  0  0  0  0  0
   -6.0766   12.2858   -9.8743 H   0  0  0  0  0  0  0  0  0  0  0  0
   -8.7349   10.7790  -13.3879 H   0  0  0  0  0  0  0  0  0  0  0  0
   -7.2366    9.8351  -13.6889 H   0  0  0  0  0  0  0  0  0  0  0  0
   -7.6744   12.5212  -13.5309 H   0  0  0  0  0  0  0  0  0  0  0  0
   -6.1801   11.5781  -13.8538 H   0  0  0  0  0  0  0  0  0  0  0  0
   -8.0383    9.6050   -7.2579 H   0  0  0  0  0  0  0  0  0  0  0  0
   -4.8931    8.7825   -8.4921 H   0  0  0  0  0  0  0  0  0  0  0  0
   -2.6611    9.7559   -8.0481 H   0  0  0  0  0  0  0  0  0  0  0  0
   -4.5156   13.2866   -6.4733 H   0  0  0  0  0  0  0  0  0  0  0  0
   -6.7439   12.3101   -6.9107 H   0  0  0  0  0  0  0  0  0  0  0  0
   -2.4623   14.1868   -6.1115 H   0  0  0  0  0  0  0  0  0  0  0  0
   -0.6481   10.6174   -7.6264 H   0  0  0  0  0  0  0  0  0  0  0  0
    1.4497   14.3348   -6.0072 H   0  0  0  0  0  0  0  0  0  0  0  0
    0.1689   15.4951   -6.4967 H   0  0  0  0  0  0  0  0  0  0  0  0
    0.1531   14.7829   -4.8477 H   0  0  0  0  0  0  0  0  0  0  0  0
   -4.0230   12.4902   -9.7902 H   0  0  0  0  0  0  0  0  0  0  0  0
   -3.9436   11.6300  -11.3651 H   0  0  0  0  0  0  0  0  0  0  0  0
   -2.1210   14.8350   -9.9202 H   0  0  0  0  0  0  0  0  0  0  0  0
   -1.3323   14.8328  -11.5341 H   0  0  0  0  0  0  0  0  0  0  0  0
   -3.3578   15.1968  -12.6502 H   0  0  0  0  0  0  0  0  0  0  0  0
   -3.9532   15.7535  -11.0495 H   0  0  0  0  0  0  0  0  0  0  0  0
  1  2  2  0  0  0  0
  1  4  1  0  0  0  0
  1 12  1  0  0  0  0
  2  6  1  0  0  0  0
  3  4  1  0  0  0  0
  3  5  1  0  0  0  0
  5  6  2  0  0  0  0
  5  9  1  0  0  0  0
  6  7  1  0  0  0  0
  7  8  1  0  0  0  0
  7 10  2  3  0  0  0
  8  9  2  0  0  0  0
 10 14  1  0  0  0  0
 11 12  1  0  0  0  0
 11 26  1  0  0  0  0
 11 29  1  0  0  0  0
 12 13  2  0  0  0  0
 14 15  2  0  0  0  0
 14 19  1  0  0  0  0
 15 16  1  0  0  0  0
 16 17  2  0  0  0  0
 17 18  1  0  0  0  0
 17 20  1  0  0  0  0
 18 19  2  0  0  0  0
 20 21  2  0  0  0  0
 20 24  1  0  0  0  0
 21 22  1  0  0  0  0
 22 23  1  0  0  0  0
 22 25  1  0  0  0  0
 23 24  2  0  0  0  0
 26 27  1  0  0  0  0
 27 28  1  0  0  0  0
 27 30  1  0  0  0  0
 27 31  1  0  0  0  0
 28 29  1  0  0  0  0
  2 32  1  0  0  0  0
  3 33  1  0  0  0  0
  3 34  1  0  0  0  0
  4 35  1  0  0  0  0
  4 36  1  0  0  0  0
 10 37  1  0  0  0  0
 15 38  1  0  0  0  0
 16 39  1  0  0  0  0
 18 40  1  0  0  0  0
 19 41  1  0  0  0  0
 21 42  1  0  0  0  0
 24 43  1  0  0  0  0
 25 44  1  0  0  0  0
 25 45  1  0  0  0  0
 25 46  1  0  0  0  0
 26 47  1  0  0  0  0
 26 48  1  0  0  0  0
 28 49  1  0  0  0  0
 28 50  1  0  0  0  0
 29 51  1  0  0  0  0
 29 52  1  0  0  0  0
M  END
> <Name>
38

> <IC50[uM]>
0.005

$$$$
38
  -OEChem-05192314333D
 Structure written by MMmdl.
 52 56  0     1  0  0  0  0  0999 V2000
   -6.3676   12.3632  -12.0183 C   0  0  0  0  0  0  0  0  0  0  0  0
   -6.5148   11.8066  -10.7373 C   0  0  0  0  0  0  0  0  0  0  0  0
   -7.7147   10.5754  -13.0306 C   0  0  0  0  0  0  0  0  0  0  0  0
   -6.9819   11.7689  -13.1253 C   0  0  0  0  0  0  0  0  0  0  0  0
   -7.8143   10.0109  -11.7564 C   0  0  0  0  0  0  0  0  0  0  0  0
   -7.2414   10.6177  -10.6023 C   0  0  0  0  0  0  0  0  0  0  0  0
   -7.6126    9.7466   -9.5122 C   0  0  0  0  0  0  0  0  0  0  0  0
   -8.2846    8.7319   -9.9810 N   0  0  0  0  0  0  0  0  0  0  0  0
   -8.4146    8.8618  -11.2972 N   0  0  0  0  0  0  0  0  0  0  0  0
   -7.3363    9.8918   -8.0268 C   0  0  0  0  0  0  0  0  0  0  0  0
   -4.3648   13.7196  -11.5032 N   0  0  0  0  0  0  0  0  0  0  0  0
   -5.5453   13.6325  -12.1937 C   0  0  0  0  0  0  0  0  0  0  0  0
   -5.9402   14.5231  -12.9481 O   0  0  0  0  0  0  0  0  0  0  0  0
   -5.9634   10.4852   -7.7356 C   0  0  3  0  0  0  0  0  0  0  0  0
   -4.8111    9.7655   -8.0524 C   0  0  0  0  0  0  0  0  0  0  0  0
   -3.5521   10.3143   -7.8018 C   0  0  0  0  0  0  0  0  0  0  0  0
   -3.4442   11.5871   -7.2318 C   0  0  0  0  0  0  0  0  0  0  0  0
   -4.5964   12.3037   -6.9134 C   0  0  0  0  0  0  0  0  0  0  0  0
   -5.8531   11.7536   -7.1622 C   0  0  0  0  0  0  0  0  0  0  0  0
   -2.1000   12.1772   -6.9659 C   0  0  0  0  0  0  0  0  0  0  0  0
   -1.7711   13.4213   -6.4318 C   0  0  0  0  0  0  0  0  0  0  0  0
   -0.4319   13.4866   -6.3915 N   0  0  0  0  0  0  0  0  0  0  0  0
    0.1707   12.4146   -6.8487 N   0  0  0  0  0  0  0  0  0  0  0  0
   -0.8042   11.5996   -7.2054 C   0  0  0  0  0  0  0  0  0  0  0  0
    0.3852   14.5927   -5.9060 C   0  0  0  0  0  0  0  0  0  0  0  0
   -3.7189   12.5724  -10.8441 C   0  0  0  0  0  0  0  0  0  0  0  0
   -2.2354   12.9457  -10.9732 C   0  0  0  0  0  0  0  0  0  0  0  0
   -2.1905   14.4637  -10.9533 C   0  0  0  0  0  0  0  0  0  0  0  0
   -3.5123   14.9092  -11.5998 C   0  0  0  0  0  0  0  0  0  0  0  0
   -1.7098   12.4700  -12.1164 F   0  0  0  0  0  0  0  0  0  0  0  0
   -1.5166   12.4356   -9.9564 F   0  0  0  0  0  0  0  0  0  0  0  0
   -6.0766   12.2858   -9.8743 H   0  0  0  0  0  0  0  0  0  0  0  0
   -8.1756   10.1191  -13.8942 H   0  0  0  0  0  0  0  0  0  0  0  0
   -6.8889   12.2463  -14.0896 H   0  0  0  0  0  0  0  0  0  0  0  0
   -8.0383    9.6050   -7.2579 H   0  0  0  0  0  0  0  0  0  0  0  0
   -5.9760   10.0302   -6.7342 H   0  0  0  0  0  0  0  0  0  0  0  0
   -4.8931    8.7825   -8.4921 H   0  0  0  0  0  0  0  0  0  0  0  0
   -2.6611    9.7559   -8.0481 H   0  0  0  0  0  0  0  0  0  0  0  0
   -4.5156   13.2866   -6.4733 H   0  0  0  0  0  0  0  0  0  0  0  0
   -6.3768   12.4508   -7.8327 H   0  0  0  0  0  0  0  0  0  0  0  0
   -6.3770   11.7109   -6.1959 H   0  0  0  0  0  0  0  0  0  0  0  0
   -2.4623   14.1868   -6.1115 H   0  0  0  0  0  0  0  0  0  0  0  0
   -0.6481   10.6174   -7.6264 H   0  0  0  0  0  0  0  0  0  0  0  0
    1.4497   14.3348   -6.0072 H   0  0  0  0  0  0  0  0  0  0  0  0
    0.1689   15.4951   -6.4967 H   0  0  0  0  0  0  0  0  0  0  0  0
    0.1531   14.7829   -4.8477 H   0  0  0  0  0  0  0  0  0  0  0  0
   -4.0230   12.4902   -9.7902 H   0  0  0  0  0  0  0  0  0  0  0  0
   -3.9436   11.6300  -11.3651 H   0  0  0  0  0  0  0  0  0  0  0  0
   -2.1210   14.8350   -9.9202 H   0  0  0  0  0  0  0  0  0  0  0  0
   -1.3323   14.8328  -11.5341 H   0  0  0  0  0  0  0  0  0  0  0  0
   -3.3578   15.1968  -12.6502 H   0  0  0  0  0  0  0  0  0  0  0  0
   -3.9532   15.7535  -11.0495 H   0  0  0  0  0  0  0  0  0  0  0  0
  1  2  2  0  0  0  0
  1  4  1  0  0  0  0
  1 12  1  0  0  0  0
  2  6  1  0  0  0  0
  3  4  2  0  0  0  0
  3  5  1  0  0  0  0
  5  6  2  0  0  0  0
  5  9  1  0  0  0  0
  6  7  1  0  0  0  0
  7  8  1  0  0  0  0
  7 10  2  3  0  0  0
  8  9  2  0  0  0  0
 10 14  1  0  0  0  0
 11 12  1  0  0  0  0
 11 26  1  0  0  0  0
 11 29  1  0  0  0  0
 12 13  2  0  0  0  0
 14 15  1  0  0  0  0
 14 19  1  0  0  0  0
 15 16  2  0  0  0  0
 16 17  1  0  0  0  0
 17 18  2  0  0  0  0
 17 20  1  0  0  0  0
 18 19  1  0  0  0  0
 20 21  2  0  0  0  0
 20 24  1  0  0  0  0
 21 22  1  0  0  0  0
 22 23  1  0  0  0  0
 22 25  1  0  0  0  0
 23 24  2  0  0  0  0
 26 27  1  0  0  0  0
 27 28  1  0  0  0  0
 27 30  1  0  0  0  0
 27 31  1  0  0  0  0
 28 29  1  0  0  0  0
  2 32  1  0  0  0  0
  3 33  1  0  0  0  0
  4 34  1  0  0  0  0
 10 35  1  0  0  0  0
 14 36  1  0  0  0  0
 15 37  1  0  0  0  0
 16 38  1  0  0  0  0
 18 39  1  0  0  0  0
 19 40  1  0  0  0  0
 19 41  1  0  0  0  0
 21 42  1  0  0  0  0
 24 43  1  0  0  0  0
 25 44  1  0  0  0  0
 25 45  1  0  0  0  0
 25 46  1  0  0  0  0
 26 47  1  0  0  0  0
 26 48  1  0  0  0  0
 28 49  1  0  0  0  0
 28 50  1  0  0  0  0
 29 51  1  0  0  0  0
 29 52  1  0  0  0  0
M  END
> <Name>
38

> <IC50[uM]>
0.005

$$$$
38
  -OEChem-05192314333D
 Structure written by MMmdl.
 52 56  0     1  0  0  0  0  0999 V2000
   -6.3676   12.3632  -12.0183 C   0  0  0  0  0  0  0  0  0  0  0  0
   -6.5148   11.8066  -10.7373 C   0  0  0  0  0  0  0  0  0  0  0  0
   -7.7147   10.5754  -13.0306 C   0  0  0  0  0  0  0  0  0  0  0  0
   -6.9819   11.7689  -13.1253 C   0  0  0  0  0  0  0  0  0  0  0  0
   -7.8143   10.0109  -11.7564 C   0  0  0  0  0  0  0  0  0  0  0  0
   -7.2414   10.6177  -10.6023 C   0  0  0  0  0  0  0  0  0  0  0  0
   -7.6126    9.7466   -9.5122 C   0  0  3  0  0  0  0  0  0  0  0  0
   -8.2846    8.7319   -9.9810 N   0  0  0  0  0  0  0  0  0  0  0  0
   -8.4146    8.8618  -11.2972 N   0  0  0  0  0  0  0  0  0  0  0  0
   -7.3363    9.8918   -8.0268 C   0  0  0  0  0  0  0  0  0  0  0  0
   -4.3648   13.7196  -11.5032 N   0  0  0  0  0  0  0  0  0  0  0  0
   -5.5453   13.6325  -12.1937 C   0  0  0  0  0  0  0  0  0  0  0  0
   -5.9402   14.5231  -12.9481 O   0  0  0  0  0  0  0  0  0  0  0  0
   -5.9634   10.4852   -7.7356 C   0  0  0  0  0  0  0  0  0  0  0  0
   -4.8111    9.7655   -8.0524 C   0  0  0  0  0  0  0  0  0  0  0  0
   -3.5521   10.3143   -7.8018 C   0  0  0  0  0  0  0  0  0  0  0  0
   -3.4442   11.5871   -7.2318 C   0  0  0  0  0  0  0  0  0  0  0  0
   -4.5964   12.3037   -6.9134 C   0  0  0  0  0  0  0  0  0  0  0  0
   -5.8531   11.7536   -7.1622 C   0  0  0  0  0  0  0  0  0  0  0  0
   -2.1000   12.1772   -6.9659 C   0  0  0  0  0  0  0  0  0  0  0  0
   -1.7711   13.4213   -6.4318 C   0  0  0  0  0  0  0  0  0  0  0  0
   -0.4319   13.4866   -6.3915 N   0  0  0  0  0  0  0  0  0  0  0  0
    0.1707   12.4146   -6.8487 N   0  0  0  0  0  0  0  0  0  0  0  0
   -0.8042   11.5996   -7.2054 C   0  0  0  0  0  0  0  0  0  0  0  0
    0.3852   14.5927   -5.9060 C   0  0  0  0  0  0  0  0  0  0  0  0
   -3.7189   12.5724  -10.8441 C   0  0  0  0  0  0  0  0  0  0  0  0
   -2.2354   12.9457  -10.9732 C   0  0  0  0  0  0  0  0  0  0  0  0
   -2.1905   14.4637  -10.9533 C   0  0  0  0  0  0  0  0  0  0  0  0
   -3.5123   14.9092  -11.5998 C   0  0  0  0  0  0  0  0  0  0  0  0
   -1.7098   12.4700  -12.1164 F   0  0  0  0  0  0  0  0  0  0  0  0
   -1.5166   12.4356   -9.9564 F   0  0  0  0  0  0  0  0  0  0  0  0
   -6.0766   12.2858   -9.8743 H   0  0  0  0  0  0  0  0  0  0  0  0
   -8.1756   10.1191  -13.8942 H   0  0  0  0  0  0  0  0  0  0  0  0
   -6.8889   12.2463  -14.0896 H   0  0  0  0  0  0  0  0  0  0  0  0
   -6.6738    9.1867   -9.6354 H   0  0  0  0  0  0  0  0  0  0  0  0
   -8.0383    9.6050   -7.2579 H   0  0  0  0  0  0  0  0  0  0  0  0
   -4.8931    8.7825   -8.4921 H   0  0  0  0  0  0  0  0  0  0  0  0
   -2.6611    9.7559   -8.0481 H   0  0  0  0  0  0  0  0  0  0  0  0
   -4.5156   13.2866   -6.4733 H   0  0  0  0  0  0  0  0  0  0  0  0
   -6.3768   12.4508   -7.8327 H   0  0  0  0  0  0  0  0  0  0  0  0
   -6.3770   11.7109   -6.1959 H   0  0  0  0  0  0  0  0  0  0  0  0
   -2.4623   14.1868   -6.1115 H   0  0  0  0  0  0  0  0  0  0  0  0
   -0.6481   10.6174   -7.6264 H   0  0  0  0  0  0  0  0  0  0  0  0
    1.4497   14.3348   -6.0072 H   0  0  0  0  0  0  0  0  0  0  0  0
    0.1689   15.4951   -6.4967 H   0  0  0  0  0  0  0  0  0  0  0  0
    0.1531   14.7829   -4.8477 H   0  0  0  0  0  0  0  0  0  0  0  0
   -4.0230   12.4902   -9.7902 H   0  0  0  0  0  0  0  0  0  0  0  0
   -3.9436   11.6300  -11.3651 H   0  0  0  0  0  0  0  0  0  0  0  0
   -2.1210   14.8350   -9.9202 H   0  0  0  0  0  0  0  0  0  0  0  0
   -1.3323   14.8328  -11.5341 H   0  0  0  0  0  0  0  0  0  0  0  0
   -3.3578   15.1968  -12.6502 H   0  0  0  0  0  0  0  0  0  0  0  0
   -3.9532   15.7535  -11.0495 H   0  0  0  0  0  0  0  0  0  0  0  0
  1  2  2  0  0  0  0
  1  4  1  0  0  0  0
  1 12  1  0  0  0  0
  2  6  1  0  0  0  0
  3  4  2  0  0  0  0
  3  5  1  0  0  0  0
  5  6  2  0  0  0  0
  5  9  1  0  0  0  0
  6  7  1  0  0  0  0
  7  8  1  0  0  0  0
  7 10  1  0  0  0  0
  8  9  2  0  0  0  0
 10 14  2  3  0  0  0
 11 12  1  0  0  0  0
 11 26  1  0  0  0  0
 11 29  1  0  0  0  0
 12 13  2  0  0  0  0
 14 15  1  0  0  0  0
 14 19  1  0  0  0  0
 15 16  2  0  0  0  0
 16 17  1  0  0  0  0
 17 18  2  0  0  0  0
 17 20  1  0  0  0  0
 18 19  1  0  0  0  0
 20 21  2  0  0  0  0
 20 24  1  0  0  0  0
 21 22  1  0  0  0  0
 22 23  1  0  0  0  0
 22 25  1  0  0  0  0
 23 24  2  0  0  0  0
 26 27  1  0  0  0  0
 27 28  1  0  0  0  0
 27 30  1  0  0  0  0
 27 31  1  0  0  0  0
 28 29  1  0  0  0  0
  2 32  1  0  0  0  0
  3 33  1  0  0  0  0
  4 34  1  0  0  0  0
  7 35  1  0  0  0  0
 10 36  1  0  0  0  0
 15 37  1  0  0  0  0
 16 38  1  0  0  0  0
 18 39  1  0  0  0  0
 19 40  1  0  0  0  0
 19 41  1  0  0  0  0
 21 42  1  0  0  0  0
 24 43  1  0  0  0  0
 25 44  1  0  0  0  0
 25 45  1  0  0  0  0
 25 46  1  0  0  0  0
 26 47  1  0  0  0  0
 26 48  1  0  0  0  0
 28 49  1  0  0  0  0
 28 50  1  0  0  0  0
 29 51  1  0  0  0  0
 29 52  1  0  0  0  0
M  END
> <Name>
38

> <IC50[uM]>
0.005

$$$$
38
  -OEChem-05192314333D
 Structure written by MMmdl.
 52 56  0     0  0  0  0  0  0999 V2000
   -6.3676   12.3632  -12.0183 C   0  0  0  0  0  0  0  0  0  0  0  0
   -6.5148   11.8066  -10.7373 C   0  0  0  0  0  0  0  0  0  0  0  0
   -7.7147   10.5754  -13.0306 C   0  0  0  0  0  0  0  0  0  0  0  0
   -6.9819   11.7689  -13.1253 C   0  0  0  0  0  0  0  0  0  0  0  0
   -7.8143   10.0109  -11.7564 C   0  0  0  0  0  0  0  0  0  0  0  0
   -7.2414   10.6177  -10.6023 C   0  0  0  0  0  0  0  0  0  0  0  0
   -7.6126    9.7466   -9.5122 C   0  0  0  0  0  0  0  0  0  0  0  0
   -8.2846    8.7319   -9.9810 N   0  0  0  0  0  0  0  0  0  0  0  0
   -8.4146    8.8618  -11.2972 N   0  0  0  0  0  0  0  0  0  0  0  0
   -7.3363    9.8918   -8.0268 C   0  0  0  0  0  0  0  0  0  0  0  0
   -4.3648   13.7196  -11.5032 N   0  0  0  0  0  0  0  0  0  0  0  0
   -5.5453   13.6325  -12.1937 C   0  0  0  0  0  0  0  0  0  0  0  0
   -5.9402   14.5231  -12.9481 O   0  0  0  0  0  0  0  0  0  0  0  0
   -5.9634   10.4852   -7.7356 C   0  0  0  0  0  0  0  0  0  0  0  0
   -4.8111    9.7655   -8.0524 C   0  0  0  0  0  0  0  0  0  0  0  0
   -3.5521   10.3143   -7.8018 C   0  0  0  0  0  0  0  0  0  0  0  0
   -3.4442   11.5871   -7.2318 C   0  0  0  0  0  0  0  0  0  0  0  0
   -4.5964   12.3037   -6.9134 C   0  0  0  0  0  0  0  0  0  0  0  0
   -5.8531   11.7536   -7.1622 C   0  0  0  0  0  0  0  0  0  0  0  0
   -2.1000   12.1772   -6.9659 C   0  0  0  0  0  0  0  0  0  0  0  0
   -1.7711   13.4213   -6.4318 C   0  0  0  0  0  0  0  0  0  0  0  0
   -0.4319   13.4866   -6.3915 N   0  0  0  0  0  0  0  0  0  0  0  0
    0.1707   12.4146   -6.8487 N   0  0  0  0  0  0  0  0  0  0  0  0
   -0.8042   11.5996   -7.2054 C   0  0  0  0  0  0  0  0  0  0  0  0
    0.3852   14.5927   -5.9060 C   0  0  0  0  0  0  0  0  0  0  0  0
   -3.7189   12.5724  -10.8441 C   0  0  0  0  0  0  0  0  0  0  0  0
   -2.2354   12.9457  -10.9732 C   0  0  0  0  0  0  0  0  0  0  0  0
   -2.1905   14.4637  -10.9533 C   0  0  0  0  0  0  0  0  0  0  0  0
   -3.5123   14.9092  -11.5998 C   0  0  0  0  0  0  0  0  0  0  0  0
   -1.7098   12.4700  -12.1164 F   0  0  0  0  0  0  0  0  0  0  0  0
   -1.5166   12.4356   -9.9564 F   0  0  0  0  0  0  0  0  0  0  0  0
   -6.0766   12.2858   -9.8743 H   0  0  0  0  0  0  0  0  0  0  0  0
   -8.1756   10.1191  -13.8942 H   0  0  0  0  0  0  0  0  0  0  0  0
   -6.8889   12.2463  -14.0896 H   0  0  0  0  0  0  0  0  0  0  0  0
   -8.0383    9.6050   -7.2579 H   0  0  0  0  0  0  0  0  0  0  0  0
   -4.8931    8.7825   -8.4921 H   0  0  0  0  0  0  0  0  0  0  0  0
   -3.0314    9.6191   -7.1269 H   0  0  0  0  0  0  0  0  0  0  0  0
   -3.0249   10.3528   -8.7665 H   0  0  0  0  0  0  0  0  0  0  0  0
   -4.5156   13.2866   -6.4733 H   0  0  0  0  0  0  0  0  0  0  0  0
   -6.3768   12.4508   -7.8327 H   0  0  0  0  0  0  0  0  0  0  0  0
   -6.3770   11.7109   -6.1959 H   0  0  0  0  0  0  0  0  0  0  0  0
   -2.4623   14.1868   -6.1115 H   0  0  0  0  0  0  0  0  0  0  0  0
   -0.6481   10.6174   -7.6264 H   0  0  0  0  0  0  0  0  0  0  0  0
    1.4497   14.3348   -6.0072 H   0  0  0  0  0  0  0  0  0  0  0  0
    0.1689   15.4951   -6.4967 H   0  0  0  0  0  0  0  0  0  0  0  0
    0.1531   14.7829   -4.8477 H   0  0  0  0  0  0  0  0  0  0  0  0
   -4.0230   12.4902   -9.7902 H   0  0  0  0  0  0  0  0  0  0  0  0
   -3.9436   11.6300  -11.3651 H   0  0  0  0  0  0  0  0  0  0  0  0
   -2.1210   14.8350   -9.9202 H   0  0  0  0  0  0  0  0  0  0  0  0
   -1.3323   14.8328  -11.5341 H   0  0  0  0  0  0  0  0  0  0  0  0
   -3.3578   15.1968  -12.6502 H   0  0  0  0  0  0  0  0  0  0  0  0
   -3.9532   15.7535  -11.0495 H   0  0  0  0  0  0  0  0  0  0  0  0
  1  2  2  0  0  0  0
  1  4  1  0  0  0  0
  1 12  1  0  0  0  0
  2  6  1  0  0  0  0
  3  4  2  0  0  0  0
  3  5  1  0  0  0  0
  5  6  2  0  0  0  0
  5  9  1  0  0  0  0
  6  7  1  0  0  0  0
  7  8  1  0  0  0  0
  7 10  2  3  0  0  0
  8  9  2  0  0  0  0
 10 14  1  0  0  0  0
 11 12  1  0  0  0  0
 11 26  1  0  0  0  0
 11 29  1  0  0  0  0
 12 13  2  0  0  0  0
 14 15  2  0  0  0  0
 14 19  1  0  0  0  0
 15 16  1  0  0  0  0
 16 17  1  0  0  0  0
 17 18  2  0  0  0  0
 17 20  1  0  0  0  0
 18 19  1  0  0  0  0
 20 21  2  0  0  0  0
 20 24  1  0  0  0  0
 21 22  1  0  0  0  0
 22 23  1  0  0  0  0
 22 25  1  0  0  0  0
 23 24  2  0  0  0  0
 26 27  1  0  0  0  0
 27 28  1  0  0  0  0
 27 30  1  0  0  0  0
 27 31  1  0  0  0  0
 28 29  1  0  0  0  0
  2 32  1  0  0  0  0
  3 33  1  0  0  0  0
  4 34  1  0  0  0  0
 10 35  1  0  0  0  0
 15 36  1  0  0  0  0
 16 37  1  0  0  0  0
 16 38  1  0  0  0  0
 18 39  1  0  0  0  0
 19 40  1  0  0  0  0
 19 41  1  0  0  0  0
 21 42  1  0  0  0  0
 24 43  1  0  0  0  0
 25 44  1  0  0  0  0
 25 45  1  0  0  0  0
 25 46  1  0  0  0  0
 26 47  1  0  0  0  0
 26 48  1  0  0  0  0
 28 49  1  0  0  0  0
 28 50  1  0  0  0  0
 29 51  1  0  0  0  0
 29 52  1  0  0  0  0
M  END
> <Name>
38

> <IC50[uM]>
0.005

$$$$
38
  -OEChem-05192314333D
 Structure written by MMmdl.
 52 56  0     0  0  0  0  0  0999 V2000
   -6.3676   12.3632  -12.0183 C   0  0  0  0  0  0  0  0  0  0  0  0
   -6.5148   11.8066  -10.7373 C   0  0  0  0  0  0  0  0  0  0  0  0
   -7.7147   10.5754  -13.0306 C   0  0  0  0  0  0  0  0  0  0  0  0
   -6.9819   11.7689  -13.1253 C   0  0  0  0  0  0  0  0  0  0  0  0
   -7.8143   10.0109  -11.7564 C   0  0  0  0  0  0  0  0  0  0  0  0
   -7.2414   10.6177  -10.6023 C   0  0  0  0  0  0  0  0  0  0  0  0
   -7.6126    9.7466   -9.5122 C   0  0  0  0  0  0  0  0  0  0  0  0
   -8.2846    8.7319   -9.9810 N   0  0  0  0  0  0  0  0  0  0  0  0
   -8.4146    8.8618  -11.2972 N   0  0  0  0  0  0  0  0  0  0  0  0
   -7.3363    9.8918   -8.0268 C   0  0  0  0  0  0  0  0  0  0  0  0
   -4.3648   13.7196  -11.5032 N   0  0  0  0  0  0  0  0  0  0  0  0
   -5.5453   13.6325  -12.1937 C   0  0  0  0  0  0  0  0  0  0  0  0
   -5.9402   14.5231  -12.9481 O   0  0  0  0  0  0  0  0  0  0  0  0
   -5.9634   10.4852   -7.7356 C   0  0  0  0  0  0  0  0  0  0  0  0
   -4.8111    9.7655   -8.0524 C   0  0  0  0  0  0  0  0  0  0  0  0
   -3.5521   10.3143   -7.8018 C   0  0  0  0  0  0  0  0  0  0  0  0
   -3.4442   11.5871   -7.2318 C   0  0  0  0  0  0  0  0  0  0  0  0
   -4.5964   12.3037   -6.9134 C   0  0  0  0  0  0  0  0  0  0  0  0
   -5.8531   11.7536   -7.1622 C   0  0  0  0  0  0  0  0  0  0  0  0
   -2.1000   12.1772   -6.9659 C   0  0  0  0  0  0  0  0  0  0  0  0
   -1.7711   13.4213   -6.4318 C   0  0  0  0  0  0  0  0  0  0  0  0
   -0.4319   13.4866   -6.3915 N   0  0  0  0  0  0  0  0  0  0  0  0
    0.1707   12.4146   -6.8487 N   0  0  0  0  0  0  0  0  0  0  0  0
   -0.8042   11.5996   -7.2054 C   0  0  0  0  0  0  0  0  0  0  0  0
    0.3852   14.5927   -5.9060 C   0  0  0  0  0  0  0  0  0  0  0  0
   -3.7189   12.5724  -10.8441 C   0  0  0  0  0  0  0  0  0  0  0  0
   -2.2354   12.9457  -10.9732 C   0  0  0  0  0  0  0  0  0  0  0  0
   -2.1905   14.4637  -10.9533 C   0  0  0  0  0  0  0  0  0  0  0  0
   -3.5123   14.9092  -11.5998 C   0  0  0  0  0  0  0  0  0  0  0  0
   -1.7098   12.4700  -12.1164 F   0  0  0  0  0  0  0  0  0  0  0  0
   -1.5166   12.4356   -9.9564 F   0  0  0  0  0  0  0  0  0  0  0  0
   -6.0766   12.2858   -9.8743 H   0  0  0  0  0  0  0  0  0  0  0  0
   -8.1756   10.1191  -13.8942 H   0  0  0  0  0  0  0  0  0  0  0  0
   -6.8889   12.2463  -14.0896 H   0  0  0  0  0  0  0  0  0  0  0  0
   -8.0383    9.6050   -7.2579 H   0  0  0  0  0  0  0  0  0  0  0  0
   -4.8931    8.7825   -8.4921 H   0  0  0  0  0  0  0  0  0  0  0  0
   -2.6611    9.7559   -8.0481 H   0  0  0  0  0  0  0  0  0  0  0  0
   -4.5506   12.5148   -5.8348 H   0  0  0  0  0  0  0  0  0  0  0  0
   -4.5472   13.2486   -7.4744 H   0  0  0  0  0  0  0  0  0  0  0  0
   -6.3768   12.4508   -7.8327 H   0  0  0  0  0  0  0  0  0  0  0  0
   -6.3770   11.7109   -6.1959 H   0  0  0  0  0  0  0  0  0  0  0  0
   -2.4623   14.1868   -6.1115 H   0  0  0  0  0  0  0  0  0  0  0  0
   -0.6481   10.6174   -7.6264 H   0  0  0  0  0  0  0  0  0  0  0  0
    1.4497   14.3348   -6.0072 H   0  0  0  0  0  0  0  0  0  0  0  0
    0.1689   15.4951   -6.4967 H   0  0  0  0  0  0  0  0  0  0  0  0
    0.1531   14.7829   -4.8477 H   0  0  0  0  0  0  0  0  0  0  0  0
   -4.0230   12.4902   -9.7902 H   0  0  0  0  0  0  0  0  0  0  0  0
   -3.9436   11.6300  -11.3651 H   0  0  0  0  0  0  0  0  0  0  0  0
   -2.1210   14.8350   -9.9202 H   0  0  0  0  0  0  0  0  0  0  0  0
   -1.3323   14.8328  -11.5341 H   0  0  0  0  0  0  0  0  0  0  0  0
   -3.3578   15.1968  -12.6502 H   0  0  0  0  0  0  0  0  0  0  0  0
   -3.9532   15.7535  -11.0495 H   0  0  0  0  0  0  0  0  0  0  0  0
  1  2  2  0  0  0  0
  1  4  1  0  0  0  0
  1 12  1  0  0  0  0
  2  6  1  0  0  0  0
  3  4  2  0  0  0  0
  3  5  1  0  0  0  0
  5  6  2  0  0  0  0
  5  9  1  0  0  0  0
  6  7  1  0  0  0  0
  7  8  1  0  0  0  0
  7 10  2  3  0  0  0
  8  9  2  0  0  0  0
 10 14  1  0  0  0  0
 11 12  1  0  0  0  0
 11 26  1  0  0  0  0
 11 29  1  0  0  0  0
 12 13  2  0  0  0  0
 14 15  2  0  0  0  0
 14 19  1  0  0  0  0
 15 16  1  0  0  0  0
 16 17  2  0  0  0  0
 17 18  1  0  0  0  0
 17 20  1  0  0  0  0
 18 19  1  0  0  0  0
 20 21  2  0  0  0  0
 20 24  1  0  0  0  0
 21 22  1  0  0  0  0
 22 23  1  0  0  0  0
 22 25  1  0  0  0  0
 23 24  2  0  0  0  0
 26 27  1  0  0  0  0
 27 28  1  0  0  0  0
 27 30  1  0  0  0  0
 27 31  1  0  0  0  0
 28 29  1  0  0  0  0
  2 32  1  0  0  0  0
  3 33  1  0  0  0  0
  4 34  1  0  0  0  0
 10 35  1  0  0  0  0
 15 36  1  0  0  0  0
 16 37  1  0  0  0  0
 18 38  1  0  0  0  0
 18 39  1  0  0  0  0
 19 40  1  0  0  0  0
 19 41  1  0  0  0  0
 21 42  1  0  0  0  0
 24 43  1  0  0  0  0
 25 44  1  0  0  0  0
 25 45  1  0  0  0  0
 25 46  1  0  0  0  0
 26 47  1  0  0  0  0
 26 48  1  0  0  0  0
 28 49  1  0  0  0  0
 28 50  1  0  0  0  0
 29 51  1  0  0  0  0
 29 52  1  0  0  0  0
M  END
> <Name>
38

> <IC50[uM]>
0.005

$$$$
38
  -OEChem-05192314333D
 Structure written by MMmdl.
 52 56  0     1  0  0  0  0  0999 V2000
   -6.3676   12.3632  -12.0183 C   0  0  3  0  0  0  0  0  0  0  0  0
   -6.5148   11.8066  -10.7373 C   0  0  0  0  0  0  0  0  0  0  0  0
   -7.7147   10.5754  -13.0306 C   0  0  0  0  0  0  0  0  0  0  0  0
   -6.9819   11.7689  -13.1253 C   0  0  0  0  0  0  0  0  0  0  0  0
   -7.8143   10.0109  -11.7564 C   0  0  0  0  0  0  0  0  0  0  0  0
   -7.2414   10.6177  -10.6023 C   0  0  0  0  0  0  0  0  0  0  0  0
   -7.6126    9.7466   -9.5122 C   0  0  0  0  0  0  0  0  0  0  0  0
   -8.2846    8.7319   -9.9810 N   0  0  0  0  0  0  0  0  0  0  0  0
   -8.4146    8.8618  -11.2972 N   0  0  0  0  0  0  0  0  0  0  0  0
   -7.3363    9.8918   -8.0268 C   0  0  0  0  0  0  0  0  0  0  0  0
   -4.3648   13.7196  -11.5032 N   0  0  0  0  0  0  0  0  0  0  0  0
   -5.5453   13.6325  -12.1937 C   0  0  0  0  0  0  0  0  0  0  0  0
   -5.9402   14.5231  -12.9481 O   0  0  0  0  0  0  0  0  0  0  0  0
   -5.9634   10.4852   -7.7356 C   0  0  0  0  0  0  0  0  0  0  0  0
   -4.8111    9.7655   -8.0524 C   0  0  0  0  0  0  0  0  0  0  0  0
   -3.5521   10.3143   -7.8018 C   0  0  0  0  0  0  0  0  0  0  0  0
   -3.4442   11.5871   -7.2318 C   0  0  0  0  0  0  0  0  0  0  0  0
   -4.5964   12.3037   -6.9134 C   0  0  0  0  0  0  0  0  0  0  0  0
   -5.8531   11.7536   -7.1622 C   0  0  0  0  0  0  0  0  0  0  0  0
   -2.1000   12.1772   -6.9659 C   0  0  0  0  0  0  0  0  0  0  0  0
   -1.7711   13.4213   -6.4318 C   0  0  0  0  0  0  0  0  0  0  0  0
   -0.4319   13.4866   -6.3915 N   0  0  0  0  0  0  0  0  0  0  0  0
    0.1707   12.4146   -6.8487 N   0  0  0  0  0  0  0  0  0  0  0  0
   -0.8042   11.5996   -7.2054 C   0  0  0  0  0  0  0  0  0  0  0  0
    0.3852   14.5927   -5.9060 C   0  0  0  0  0  0  0  0  0  0  0  0
   -3.7189   12.5724  -10.8441 C   0  0  0  0  0  0  0  0  0  0  0  0
   -2.2354   12.9457  -10.9732 C   0  0  0  0  0  0  0  0  0  0  0  0
   -2.1905   14.4637  -10.9533 C   0  0  0  0  0  0  0  0  0  0  0  0
   -3.5123   14.9092  -11.5998 C   0  0  0  0  0  0  0  0  0  0  0  0
   -1.7098   12.4700  -12.1164 F   0  0  0  0  0  0  0  0  0  0  0  0
   -1.5166   12.4356   -9.9564 F   0  0  0  0  0  0  0  0  0  0  0  0
   -5.4678   11.7527  -12.1847 H   0  0  0  0  0  0  0  0  0  0  0  0
   -5.5036   11.6144  -10.3492 H   0  0  0  0  0  0  0  0  0  0  0  0
   -7.0106   12.5624  -10.1105 H   0  0  0  0  0  0  0  0  0  0  0  0
   -8.1756   10.1191  -13.8942 H   0  0  0  0  0  0  0  0  0  0  0  0
   -6.8889   12.2463  -14.0896 H   0  0  0  0  0  0  0  0  0  0  0  0
   -8.0383    9.6050   -7.2579 H   0  0  0  0  0  0  0  0  0  0  0  0
   -4.8931    8.7825   -8.4921 H   0  0  0  0  0  0  0  0  0  0  0  0
   -2.6611    9.7559   -8.0481 H   0  0  0  0  0  0  0  0  0  0  0  0
   -4.5156   13.2866   -6.4733 H   0  0  0  0  0  0  0  0  0  0  0  0
   -6.7439   12.3101   -6.9107 H   0  0  0  0  0  0  0  0  0  0  0  0
   -2.4623   14.1868   -6.1115 H   0  0  0  0  0  0  0  0  0  0  0  0
   -0.6481   10.6174   -7.6264 H   0  0  0  0  0  0  0  0  0  0  0  0
    1.4497   14.3348   -6.0072 H   0  0  0  0  0  0  0  0  0  0  0  0
    0.1689   15.4951   -6.4967 H   0  0  0  0  0  0  0  0  0  0  0  0
    0.1531   14.7829   -4.8477 H   0  0  0  0  0  0  0  0  0  0  0  0
   -4.0230   12.4902   -9.7902 H   0  0  0  0  0  0  0  0  0  0  0  0
   -3.9436   11.6300  -11.3651 H   0  0  0  0  0  0  0  0  0  0  0  0
   -2.1210   14.8350   -9.9202 H   0  0  0  0  0  0  0  0  0  0  0  0
   -1.3323   14.8328  -11.5341 H   0  0  0  0  0  0  0  0  0  0  0  0
   -3.3578   15.1968  -12.6502 H   0  0  0  0  0  0  0  0  0  0  0  0
   -3.9532   15.7535  -11.0495 H   0  0  0  0  0  0  0  0  0  0  0  0
  1  2  1  0  0  0  0
  1  4  1  0  0  0  0
  1 12  1  0  0  0  0
  2  6  1  0  0  0  0
  3  4  2  0  0  0  0
  3  5  1  0  0  0  0
  5  6  2  0  0  0  0
  5  9  1  0  0  0  0
  6  7  1  0  0  0  0
  7  8  1  0  0  0  0
  7 10  2  3  0  0  0
  8  9  2  0  0  0  0
 10 14  1  0  0  0  0
 11 12  1  0  0  0  0
 11 26  1  0  0  0  0
 11 29  1  0  0  0  0
 12 13  2  0  0  0  0
 14 15  2  0  0  0  0
 14 19  1  0  0  0  0
 15 16  1  0  0  0  0
 16 17  2  0  0  0  0
 17 18  1  0  0  0  0
 17 20  1  0  0  0  0
 18 19  2  0  0  0  0
 20 21  2  0  0  0  0
 20 24  1  0  0  0  0
 21 22  1  0  0  0  0
 22 23  1  0  0  0  0
 22 25  1  0  0  0  0
 23 24  2  0  0  0  0
 26 27  1  0  0  0  0
 27 28  1  0  0  0  0
 27 30  1  0  0  0  0
 27 31  1  0  0  0  0
 28 29  1  0  0  0  0
  1 32  1  0  0  0  0
  2 33  1  0  0  0  0
  2 34  1  0  0  0  0
  3 35  1  0  0  0  0
  4 36  1  0  0  0  0
 10 37  1  0  0  0  0
 15 38  1  0  0  0  0
 16 39  1  0  0  0  0
 18 40  1  0  0  0  0
 19 41  1  0  0  0  0
 21 42  1  0  0  0  0
 24 43  1  0  0  0  0
 25 44  1  0  0  0  0
 25 45  1  0  0  0  0
 25 46  1  0  0  0  0
 26 47  1  0  0  0  0
 26 48  1  0  0  0  0
 28 49  1  0  0  0  0
 28 50  1  0  0  0  0
 29 51  1  0  0  0  0
 29 52  1  0  0  0  0
M  END
> <Name>
38

> <IC50[uM]>
0.005

$$$$
38
  -OEChem-05192314333D
 Structure written by MMmdl.
 52 56  0     1  0  0  0  0  0999 V2000
   -6.3676   12.3632  -12.0183 C   0  0  0  0  0  0  0  0  0  0  0  0
   -6.5148   11.8066  -10.7373 C   0  0  0  0  0  0  0  0  0  0  0  0
   -7.7147   10.5754  -13.0306 C   0  0  0  0  0  0  0  0  0  0  0  0
   -6.9819   11.7689  -13.1253 C   0  0  0  0  0  0  0  0  0  0  0  0
   -7.8143   10.0109  -11.7564 C   0  0  0  0  0  0  0  0  0  0  0  0
   -7.2414   10.6177  -10.6023 C   0  0  3  0  0  0  0  0  0  0  0  0
   -7.6126    9.7466   -9.5122 C   0  0  0  0  0  0  0  0  0  0  0  0
   -8.2846    8.7319   -9.9810 N   0  0  0  0  0  0  0  0  0  0  0  0
   -8.4146    8.8618  -11.2972 N   0  0  0  0  0  0  0  0  0  0  0  0
   -7.3363    9.8918   -8.0268 C   0  0  0  0  0  0  0  0  0  0  0  0
   -4.3648   13.7196  -11.5032 N   0  0  0  0  0  0  0  0  0  0  0  0
   -5.5453   13.6325  -12.1937 C   0  0  0  0  0  0  0  0  0  0  0  0
   -5.9402   14.5231  -12.9481 O   0  0  0  0  0  0  0  0  0  0  0  0
   -5.9634   10.4852   -7.7356 C   0  0  0  0  0  0  0  0  0  0  0  0
   -4.8111    9.7655   -8.0524 C   0  0  0  0  0  0  0  0  0  0  0  0
   -3.5521   10.3143   -7.8018 C   0  0  0  0  0  0  0  0  0  0  0  0
   -3.4442   11.5871   -7.2318 C   0  0  0  0  0  0  0  0  0  0  0  0
   -4.5964   12.3037   -6.9134 C   0  0  0  0  0  0  0  0  0  0  0  0
   -5.8531   11.7536   -7.1622 C   0  0  0  0  0  0  0  0  0  0  0  0
   -2.1000   12.1772   -6.9659 C   0  0  0  0  0  0  0  0  0  0  0  0
   -1.7711   13.4213   -6.4318 C   0  0  0  0  0  0  0  0  0  0  0  0
   -0.4319   13.4866   -6.3915 N   0  0  0  0  0  0  0  0  0  0  0  0
    0.1707   12.4146   -6.8487 N   0  0  0  0  0  0  0  0  0  0  0  0
   -0.8042   11.5996   -7.2054 C   0  0  0  0  0  0  0  0  0  0  0  0
    0.3852   14.5927   -5.9060 C   0  0  0  0  0  0  0  0  0  0  0  0
   -3.7189   12.5724  -10.8441 C   0  0  0  0  0  0  0  0  0  0  0  0
   -2.2354   12.9457  -10.9732 C   0  0  0  0  0  0  0  0  0  0  0  0
   -2.1905   14.4637  -10.9533 C   0  0  0  0  0  0  0  0  0  0  0  0
   -3.5123   14.9092  -11.5998 C   0  0  0  0  0  0  0  0  0  0  0  0
   -1.7098   12.4700  -12.1164 F   0  0  0  0  0  0  0  0  0  0  0  0
   -1.5166   12.4356   -9.9564 F   0  0  0  0  0  0  0  0  0  0  0  0
   -5.5036   11.6144  -10.3492 H   0  0  0  0  0  0  0  0  0  0  0  0
   -7.0106   12.5624  -10.1105 H   0  0  0  0  0  0  0  0  0  0  0  0
   -8.1756   10.1191  -13.8942 H   0  0  0  0  0  0  0  0  0  0  0  0
   -6.8889   12.2463  -14.0896 H   0  0  0  0  0  0  0  0  0  0  0  0
   -6.3198   10.0366  -10.7536 H   0  0  0  0  0  0  0  0  0  0  0  0
   -8.0383    9.6050   -7.2579 H   0  0  0  0  0  0  0  0  0  0  0  0
   -4.8931    8.7825   -8.4921 H   0  0  0  0  0  0  0  0  0  0  0  0
   -2.6611    9.7559   -8.0481 H   0  0  0  0  0  0  0  0  0  0  0  0
   -4.5156   13.2866   -6.4733 H   0  0  0  0  0  0  0  0  0  0  0  0
   -6.7439   12.3101   -6.9107 H   0  0  0  0  0  0  0  0  0  0  0  0
   -2.4623   14.1868   -6.1115 H   0  0  0  0  0  0  0  0  0  0  0  0
   -0.6481   10.6174   -7.6264 H   0  0  0  0  0  0  0  0  0  0  0  0
    1.4497   14.3348   -6.0072 H   0  0  0  0  0  0  0  0  0  0  0  0
    0.1689   15.4951   -6.4967 H   0  0  0  0  0  0  0  0  0  0  0  0
    0.1531   14.7829   -4.8477 H   0  0  0  0  0  0  0  0  0  0  0  0
   -4.0230   12.4902   -9.7902 H   0  0  0  0  0  0  0  0  0  0  0  0
   -3.9436   11.6300  -11.3651 H   0  0  0  0  0  0  0  0  0  0  0  0
   -2.1210   14.8350   -9.9202 H   0  0  0  0  0  0  0  0  0  0  0  0
   -1.3323   14.8328  -11.5341 H   0  0  0  0  0  0  0  0  0  0  0  0
   -3.3578   15.1968  -12.6502 H   0  0  0  0  0  0  0  0  0  0  0  0
   -3.9532   15.7535  -11.0495 H   0  0  0  0  0  0  0  0  0  0  0  0
  1  2  1  0  0  0  0
  1  4  2  0  0  0  0
  1 12  1  0  0  0  0
  2  6  1  0  0  0  0
  3  4  1  0  0  0  0
  3  5  2  0  0  0  0
  5  6  1  0  0  0  0
  5  9  1  0  0  0  0
  6  7  1  0  0  0  0
  7  8  1  0  0  0  0
  7 10  2  3  0  0  0
  8  9  2  0  0  0  0
 10 14  1  0  0  0  0
 11 12  1  0  0  0  0
 11 26  1  0  0  0  0
 11 29  1  0  0  0  0
 12 13  2  0  0  0  0
 14 15  2  0  0  0  0
 14 19  1  0  0  0  0
 15 16  1  0  0  0  0
 16 17  2  0  0  0  0
 17 18  1  0  0  0  0
 17 20  1  0  0  0  0
 18 19  2  0  0  0  0
 20 21  2  0  0  0  0
 20 24  1  0  0  0  0
 21 22  1  0  0  0  0
 22 23  1  0  0  0  0
 22 25  1  0  0  0  0
 23 24  2  0  0  0  0
 26 27  1  0  0  0  0
 27 28  1  0  0  0  0
 27 30  1  0  0  0  0
 27 31  1  0  0  0  0
 28 29  1  0  0  0  0
  2 32  1  0  0  0  0
  2 33  1  0  0  0  0
  3 34  1  0  0  0  0
  4 35  1  0  0  0  0
  6 36  1  0  0  0  0
 10 37  1  0  0  0  0
 15 38  1  0  0  0  0
 16 39  1  0  0  0  0
 18 40  1  0  0  0  0
 19 41  1  0  0  0  0
 21 42  1  0  0  0  0
 24 43  1  0  0  0  0
 25 44  1  0  0  0  0
 25 45  1  0  0  0  0
 25 46  1  0  0  0  0
 26 47  1  0  0  0  0
 26 48  1  0  0  0  0
 28 49  1  0  0  0  0
 28 50  1  0  0  0  0
 29 51  1  0  0  0  0
 29 52  1  0  0  0  0
M  END
> <Name>
38

> <IC50[uM]>
0.005

$$$$
38
  -OEChem-05192314333D
 Structure written by MMmdl.
 52 56  0     0  0  0  0  0  0999 V2000
   -6.3676   12.3632  -12.0183 C   0  0  0  0  0  0  0  0  0  0  0  0
   -6.5148   11.8066  -10.7373 C   0  0  0  0  0  0  0  0  0  0  0  0
   -7.7147   10.5754  -13.0306 C   0  0  0  0  0  0  0  0  0  0  0  0
   -6.9819   11.7689  -13.1253 C   0  0  0  0  0  0  0  0  0  0  0  0
   -7.8143   10.0109  -11.7564 C   0  0  0  0  0  0  0  0  0  0  0  0
   -7.2414   10.6177  -10.6023 C   0  0  0  0  0  0  0  0  0  0  0  0
   -7.6126    9.7466   -9.5122 C   0  0  0  0  0  0  0  0  0  0  0  0
   -8.2846    8.7319   -9.9810 N   0  0  0  0  0  0  0  0  0  0  0  0
   -8.4146    8.8618  -11.2972 N   0  0  0  0  0  0  0  0  0  0  0  0
   -7.3363    9.8918   -8.0268 C   0  0  0  0  0  0  0  0  0  0  0  0
   -4.3648   13.7196  -11.5032 N   0  0  0  0  0  0  0  0  0  0  0  0
   -5.5453   13.6325  -12.1937 C   0  0  0  0  0  0  0  0  0  0  0  0
   -5.9402   14.5231  -12.9481 O   0  0  0  0  0  0  0  0  0  0  0  0
   -5.9634   10.4852   -7.7356 C   0  0  0  0  0  0  0  0  0  0  0  0
   -4.8111    9.7655   -8.0524 C   0  0  0  0  0  0  0  0  0  0  0  0
   -3.5521   10.3143   -7.8018 C   0  0  0  0  0  0  0  0  0  0  0  0
   -3.4442   11.5871   -7.2318 C   0  0  0  0  0  0  0  0  0  0  0  0
   -4.5964   12.3037   -6.9134 C   0  0  0  0  0  0  0  0  0  0  0  0
   -5.8531   11.7536   -7.1622 C   0  0  0  0  0  0  0  0  0  0  0  0
   -2.1000   12.1772   -6.9659 C   0  0  0  0  0  0  0  0  0  0  0  0
   -1.7711   13.4213   -6.4318 C   0  0  0  0  0  0  0  0  0  0  0  0
   -0.4319   13.4866   -6.3915 N   0  0  0  0  0  0  0  0  0  0  0  0
    0.1707   12.4146   -6.8487 N   0  0  0  0  0  0  0  0  0  0  0  0
   -0.8042   11.5996   -7.2054 C   0  0  0  0  0  0  0  0  0  0  0  0
    0.3852   14.5927   -5.9060 C   0  0  0  0  0  0  0  0  0  0  0  0
   -3.7189   12.5724  -10.8441 C   0  0  0  0  0  0  0  0  0  0  0  0
   -2.2354   12.9457  -10.9732 C   0  0  0  0  0  0  0  0  0  0  0  0
   -2.1905   14.4637  -10.9533 C   0  0  0  0  0  0  0  0  0  0  0  0
   -3.5123   14.9092  -11.5998 C   0  0  0  0  0  0  0  0  0  0  0  0
   -1.7098   12.4700  -12.1164 F   0  0  0  0  0  0  0  0  0  0  0  0
   -1.5166   12.4356   -9.9564 F   0  0  0  0  0  0  0  0  0  0  0  0
   -5.5036   11.6144  -10.3492 H   0  0  0  0  0  0  0  0  0  0  0  0
   -7.0106   12.5624  -10.1105 H   0  0  0  0  0  0  0  0  0  0  0  0
   -8.7349   10.7790  -13.3879 H   0  0  0  0  0  0  0  0  0  0  0  0
   -7.2366    9.8351  -13.6889 H   0  0  0  0  0  0  0  0  0  0  0  0
   -6.8889   12.2463  -14.0896 H   0  0  0  0  0  0  0  0  0  0  0  0
   -8.0383    9.6050   -7.2579 H   0  0  0  0  0  0  0  0  0  0  0  0
   -4.8931    8.7825   -8.4921 H   0  0  0  0  0  0  0  0  0  0  0  0
   -2.6611    9.7559   -8.0481 H   0  0  0  0  0  0  0  0  0  0  0  0
   -4.5156   13.2866   -6.4733 H   0  0  0  0  0  0  0  0  0  0  0  0
   -6.7439   12.3101   -6.9107 H   0  0  0  0  0  0  0  0  0  0  0  0
   -2.4623   14.1868   -6.1115 H   0  0  0  0  0  0  0  0  0  0  0  0
   -0.6481   10.6174   -7.6264 H   0  0  0  0  0  0  0  0  0  0  0  0
    1.4497   14.3348   -6.0072 H   0  0  0  0  0  0  0  0  0  0  0  0
    0.1689   15.4951   -6.4967 H   0  0  0  0  0  0  0  0  0  0  0  0
    0.1531   14.7829   -4.8477 H   0  0  0  0  0  0  0  0  0  0  0  0
   -4.0230   12.4902   -9.7902 H   0  0  0  0  0  0  0  0  0  0  0  0
   -3.9436   11.6300  -11.3651 H   0  0  0  0  0  0  0  0  0  0  0  0
   -2.1210   14.8350   -9.9202 H   0  0  0  0  0  0  0  0  0  0  0  0
   -1.3323   14.8328  -11.5341 H   0  0  0  0  0  0  0  0  0  0  0  0
   -3.3578   15.1968  -12.6502 H   0  0  0  0  0  0  0  0  0  0  0  0
   -3.9532   15.7535  -11.0495 H   0  0  0  0  0  0  0  0  0  0  0  0
  1  2  1  0  0  0  0
  1  4  2  0  0  0  0
  1 12  1  0  0  0  0
  2  6  1  0  0  0  0
  3  4  1  0  0  0  0
  3  5  1  0  0  0  0
  5  6  2  0  0  0  0
  5  9  1  0  0  0  0
  6  7  1  0  0  0  0
  7  8  1  0  0  0  0
  7 10  2  3  0  0  0
  8  9  2  0  0  0  0
 10 14  1  0  0  0  0
 11 12  1  0  0  0  0
 11 26  1  0  0  0  0
 11 29  1  0  0  0  0
 12 13  2  0  0  0  0
 14 15  2  0  0  0  0
 14 19  1  0  0  0  0
 15 16  1  0  0  0  0
 16 17  2  0  0  0  0
 17 18  1  0  0  0  0
 17 20  1  0  0  0  0
 18 19  2  0  0  0  0
 20 21  2  0  0  0  0
 20 24  1  0  0  0  0
 21 22  1  0  0  0  0
 22 23  1  0  0  0  0
 22 25  1  0  0  0  0
 23 24  2  0  0  0  0
 26 27  1  0  0  0  0
 27 28  1  0  0  0  0
 27 30  1  0  0  0  0
 27 31  1  0  0  0  0
 28 29  1  0  0  0  0
  2 32  1  0  0  0  0
  2 33  1  0  0  0  0
  3 34  1  0  0  0  0
  3 35  1  0  0  0  0
  4 36  1  0  0  0  0
 10 37  1  0  0  0  0
 15 38  1  0  0  0  0
 16 39  1  0  0  0  0
 18 40  1  0  0  0  0
 19 41  1  0  0  0  0
 21 42  1  0  0  0  0
 24 43  1  0  0  0  0
 25 44  1  0  0  0  0
 25 45  1  0  0  0  0
 25 46  1  0  0  0  0
 26 47  1  0  0  0  0
 26 48  1  0  0  0  0
 28 49  1  0  0  0  0
 28 50  1  0  0  0  0
 29 51  1  0  0  0  0
 29 52  1  0  0  0  0
M  END
> <Name>
38

> <IC50[uM]>
0.005

$$$$
38
  -OEChem-05192314333D
 Structure written by MMmdl.
 52 56  0     1  0  0  0  0  0999 V2000
   -6.3676   12.3632  -12.0183 C   0  0  0  0  0  0  0  0  0  0  0  0
   -6.5148   11.8066  -10.7373 C   0  0  0  0  0  0  0  0  0  0  0  0
   -7.7147   10.5754  -13.0306 C   0  0  0  0  0  0  0  0  0  0  0  0
   -6.9819   11.7689  -13.1253 C   0  0  0  0  0  0  0  0  0  0  0  0
   -7.8143   10.0109  -11.7564 C   0  0  3  0  0  0  0  0  0  0  0  0
   -7.2414   10.6177  -10.6023 C   0  0  0  0  0  0  0  0  0  0  0  0
   -7.6126    9.7466   -9.5122 C   0  0  0  0  0  0  0  0  0  0  0  0
   -8.2846    8.7319   -9.9810 N   0  0  0  0  0  0  0  0  0  0  0  0
   -8.4146    8.8618  -11.2972 N   0  0  0  0  0  0  0  0  0  0  0  0
   -7.3363    9.8918   -8.0268 C   0  0  0  0  0  0  0  0  0  0  0  0
   -4.3648   13.7196  -11.5032 N   0  0  0  0  0  0  0  0  0  0  0  0
   -5.5453   13.6325  -12.1937 C   0  0  0  0  0  0  0  0  0  0  0  0
   -5.9402   14.5231  -12.9481 O   0  0  0  0  0  0  0  0  0  0  0  0
   -5.9634   10.4852   -7.7356 C   0  0  0  0  0  0  0  0  0  0  0  0
   -4.8111    9.7655   -8.0524 C   0  0  0  0  0  0  0  0  0  0  0  0
   -3.5521   10.3143   -7.8018 C   0  0  0  0  0  0  0  0  0  0  0  0
   -3.4442   11.5871   -7.2318 C   0  0  0  0  0  0  0  0  0  0  0  0
   -4.5964   12.3037   -6.9134 C   0  0  0  0  0  0  0  0  0  0  0  0
   -5.8531   11.7536   -7.1622 C   0  0  0  0  0  0  0  0  0  0  0  0
   -2.1000   12.1772   -6.9659 C   0  0  0  0  0  0  0  0  0  0  0  0
   -1.7711   13.4213   -6.4318 C   0  0  0  0  0  0  0  0  0  0  0  0
   -0.4319   13.4866   -6.3915 N   0  0  0  0  0  0  0  0  0  0  0  0
    0.1707   12.4146   -6.8487 N   0  0  0  0  0  0  0  0  0  0  0  0
   -0.8042   11.5996   -7.2054 C   0  0  0  0  0  0  0  0  0  0  0  0
    0.3852   14.5927   -5.9060 C   0  0  0  0  0  0  0  0  0  0  0  0
   -3.7189   12.5724  -10.8441 C   0  0  0  0  0  0  0  0  0  0  0  0
   -2.2354   12.9457  -10.9732 C   0  0  0  0  0  0  0  0  0  0  0  0
   -2.1905   14.4637  -10.9533 C   0  0  0  0  0  0  0  0  0  0  0  0
   -3.5123   14.9092  -11.5998 C   0  0  0  0  0  0  0  0  0  0  0  0
   -1.7098   12.4700  -12.1164 F   0  0  0  0  0  0  0  0  0  0  0  0
   -1.5166   12.4356   -9.9564 F   0  0  0  0  0  0  0  0  0  0  0  0
   -6.0766   12.2858   -9.8743 H   0  0  0  0  0  0  0  0  0  0  0  0
   -8.1756   10.1191  -13.8942 H   0  0  0  0  0  0  0  0  0  0  0  0
   -6.8889   12.2463  -14.0896 H   0  0  0  0  0  0  0  0  0  0  0  0
   -6.8807    9.4553  -11.9287 H   0  0  0  0  0  0  0  0  0  0  0  0
   -8.1027   10.5486   -7.5895 H   0  0  0  0  0  0  0  0  0  0  0  0
   -7.3955    8.8977   -7.5597 H   0  0  0  0  0  0  0  0  0  0  0  0
   -4.8931    8.7825   -8.4921 H   0  0  0  0  0  0  0  0  0  0  0  0
   -2.6611    9.7559   -8.0481 H   0  0  0  0  0  0  0  0  0  0  0  0
   -4.5156   13.2866   -6.4733 H   0  0  0  0  0  0  0  0  0  0  0  0
   -6.7439   12.3101   -6.9107 H   0  0  0  0  0  0  0  0  0  0  0  0
   -2.4623   14.1868   -6.1115 H   0  0  0  0  0  0  0  0  0  0  0  0
   -0.6481   10.6174   -7.6264 H   0  0  0  0  0  0  0  0  0  0  0  0
    1.4497   14.3348   -6.0072 H   0  0  0  0  0  0  0  0  0  0  0  0
    0.1689   15.4951   -6.4967 H   0  0  0  0  0  0  0  0  0  0  0  0
    0.1531   14.7829   -4.8477 H   0  0  0  0  0  0  0  0  0  0  0  0
   -4.0230   12.4902   -9.7902 H   0  0  0  0  0  0  0  0  0  0  0  0
   -3.9436   11.6300  -11.3651 H   0  0  0  0  0  0  0  0  0  0  0  0
   -2.1210   14.8350   -9.9202 H   0  0  0  0  0  0  0  0  0  0  0  0
   -1.3323   14.8328  -11.5341 H   0  0  0  0  0  0  0  0  0  0  0  0
   -3.3578   15.1968  -12.6502 H   0  0  0  0  0  0  0  0  0  0  0  0
   -3.9532   15.7535  -11.0495 H   0  0  0  0  0  0  0  0  0  0  0  0
  1  2  2  0  0  0  0
  1  4  1  0  0  0  0
  1 12  1  0  0  0  0
  2  6  1  0  0  0  0
  3  4  2  0  0  0  0
  3  5  1  0  0  0  0
  5  6  1  0  0  0  0
  5  9  1  0  0  0  0
  6  7  2  0  0  0  0
  7  8  1  0  0  0  0
  7 10  1  0  0  0  0
  8  9  2  0  0  0  0
 10 14  1  0  0  0  0
 11 12  1  0  0  0  0
 11 26  1  0  0  0  0
 11 29  1  0  0  0  0
 12 13  2  0  0  0  0
 14 15  2  0  0  0  0
 14 19  1  0  0  0  0
 15 16  1  0  0  0  0
 16 17  2  0  0  0  0
 17 18  1  0  0  0  0
 17 20  1  0  0  0  0
 18 19  2  0  0  0  0
 20 21  2  0  0  0  0
 20 24  1  0  0  0  0
 21 22  1  0  0  0  0
 22 23  1  0  0  0  0
 22 25  1  0  0  0  0
 23 24  2  0  0  0  0
 26 27  1  0  0  0  0
 27 28  1  0  0  0  0
 27 30  1  0  0  0  0
 27 31  1  0  0  0  0
 28 29  1  0  0  0  0
  2 32  1  0  0  0  0
  3 33  1  0  0  0  0
  4 34  1  0  0  0  0
  5 35  1  0  0  0  0
 10 36  1  0  0  0  0
 10 37  1  0  0  0  0
 15 38  1  0  0  0  0
 16 39  1  0  0  0  0
 18 40  1  0  0  0  0
 19 41  1  0  0  0  0
 21 42  1  0  0  0  0
 24 43  1  0  0  0  0
 25 44  1  0  0  0  0
 25 45  1  0  0  0  0
 25 46  1  0  0  0  0
 26 47  1  0  0  0  0
 26 48  1  0  0  0  0
 28 49  1  0  0  0  0
 28 50  1  0  0  0  0
 29 51  1  0  0  0  0
 29 52  1  0  0  0  0
M  END
> <Name>
38

> <IC50[uM]>
0.005

$$$$
38
  -OEChem-05192314333D
 Structure written by MMmdl.
 52 56  0     0  0  0  0  0  0999 V2000
   -6.3676   12.3632  -12.0183 C   0  0  0  0  0  0  0  0  0  0  0  0
   -6.5148   11.8066  -10.7373 C   0  0  0  0  0  0  0  0  0  0  0  0
   -7.7147   10.5754  -13.0306 C   0  0  0  0  0  0  0  0  0  0  0  0
   -6.9819   11.7689  -13.1253 C   0  0  0  0  0  0  0  0  0  0  0  0
   -7.8143   10.0109  -11.7564 C   0  0  0  0  0  0  0  0  0  0  0  0
   -7.2414   10.6177  -10.6023 C   0  0  0  0  0  0  0  0  0  0  0  0
   -7.6126    9.7466   -9.5122 C   0  0  0  0  0  0  0  0  0  0  0  0
   -8.2846    8.7319   -9.9810 N   0  0  0  0  0  0  0  0  0  0  0  0
   -8.4146    8.8618  -11.2972 N   0  0  0  0  0  0  0  0  0  0  0  0
   -7.3363    9.8918   -8.0268 C   0  0  0  0  0  0  0  0  0  0  0  0
   -4.3648   13.7196  -11.5032 N   0  0  0  0  0  0  0  0  0  0  0  0
   -5.5453   13.6325  -12.1937 C   0  0  0  0  0  0  0  0  0  0  0  0
   -5.9402   14.5231  -12.9481 O   0  0  0  0  0  0  0  0  0  0  0  0
   -5.9634   10.4852   -7.7356 C   0  0  0  0  0  0  0  0  0  0  0  0
   -4.8111    9.7655   -8.0524 C   0  0  0  0  0  0  0  0  0  0  0  0
   -3.5521   10.3143   -7.8018 C   0  0  0  0  0  0  0  0  0  0  0  0
   -3.4442   11.5871   -7.2318 C   0  0  0  0  0  0  0  0  0  0  0  0
   -4.5964   12.3037   -6.9134 C   0  0  0  0  0  0  0  0  0  0  0  0
   -5.8531   11.7536   -7.1622 C   0  0  0  0  0  0  0  0  0  0  0  0
   -2.1000   12.1772   -6.9659 C   0  0  0  0  0  0  0  0  0  0  0  0
   -1.7711   13.4213   -6.4318 C   0  0  0  0  0  0  0  0  0  0  0  0
   -0.4319   13.4866   -6.3915 N   0  0  0  0  0  0  0  0  0  0  0  0
    0.1707   12.4146   -6.8487 N   0  0  0  0  0  0  0  0  0  0  0  0
   -0.8042   11.5996   -7.2054 C   0  0  0  0  0  0  0  0  0  0  0  0
    0.3852   14.5927   -5.9060 C   0  0  0  0  0  0  0  0  0  0  0  0
   -3.7189   12.5724  -10.8441 C   0  0  0  0  0  0  0  0  0  0  0  0
   -2.2354   12.9457  -10.9732 C   0  0  0  0  0  0  0  0  0  0  0  0
   -2.1905   14.4637  -10.9533 C   0  0  0  0  0  0  0  0  0  0  0  0
   -3.5123   14.9092  -11.5998 C   0  0  0  0  0  0  0  0  0  0  0  0
   -1.7098   12.4700  -12.1164 F   0  0  0  0  0  0  0  0  0  0  0  0
   -1.5166   12.4356   -9.9564 F   0  0  0  0  0  0  0  0  0  0  0  0
   -6.0766   12.2858   -9.8743 H   0  0  0  0  0  0  0  0  0  0  0  0
   -8.1756   10.1191  -13.8942 H   0  0  0  0  0  0  0  0  0  0  0  0
   -7.6744   12.5212  -13.5309 H   0  0  0  0  0  0  0  0  0  0  0  0
   -6.1801   11.5781  -13.8538 H   0  0  0  0  0  0  0  0  0  0  0  0
   -8.1027   10.5486   -7.5895 H   0  0  0  0  0  0  0  0  0  0  0  0
   -7.3955    8.8977   -7.5597 H   0  0  0  0  0  0  0  0  0  0  0  0
   -4.8931    8.7825   -8.4921 H   0  0  0  0  0  0  0  0  0  0  0  0
   -2.6611    9.7559   -8.0481 H   0  0  0  0  0  0  0  0  0  0  0  0
   -4.5156   13.2866   -6.4733 H   0  0  0  0  0  0  0  0  0  0  0  0
   -6.7439   12.3101   -6.9107 H   0  0  0  0  0  0  0  0  0  0  0  0
   -2.4623   14.1868   -6.1115 H   0  0  0  0  0  0  0  0  0  0  0  0
   -0.6481   10.6174   -7.6264 H   0  0  0  0  0  0  0  0  0  0  0  0
    1.4497   14.3348   -6.0072 H   0  0  0  0  0  0  0  0  0  0  0  0
    0.1689   15.4951   -6.4967 H   0  0  0  0  0  0  0  0  0  0  0  0
    0.1531   14.7829   -4.8477 H   0  0  0  0  0  0  0  0  0  0  0  0
   -4.0230   12.4902   -9.7902 H   0  0  0  0  0  0  0  0  0  0  0  0
   -3.9436   11.6300  -11.3651 H   0  0  0  0  0  0  0  0  0  0  0  0
   -2.1210   14.8350   -9.9202 H   0  0  0  0  0  0  0  0  0  0  0  0
   -1.3323   14.8328  -11.5341 H   0  0  0  0  0  0  0  0  0  0  0  0
   -3.3578   15.1968  -12.6502 H   0  0  0  0  0  0  0  0  0  0  0  0
   -3.9532   15.7535  -11.0495 H   0  0  0  0  0  0  0  0  0  0  0  0
  1  2  2  0  0  0  0
  1  4  1  0  0  0  0
  1 12  1  0  0  0  0
  2  6  1  0  0  0  0
  3  4  1  0  0  0  0
  3  5  2  0  0  0  0
  5  6  1  0  0  0  0
  5  9  1  0  0  0  0
  6  7  2  0  0  0  0
  7  8  1  0  0  0  0
  7 10  1  0  0  0  0
  8  9  2  0  0  0  0
 10 14  1  0  0  0  0
 11 12  1  0  0  0  0
 11 26  1  0  0  0  0
 11 29  1  0  0  0  0
 12 13  2  0  0  0  0
 14 15  2  0  0  0  0
 14 19  1  0  0  0  0
 15 16  1  0  0  0  0
 16 17  2  0  0  0  0
 17 18  1  0  0  0  0
 17 20  1  0  0  0  0
 18 19  2  0  0  0  0
 20 21  2  0  0  0  0
 20 24  1  0  0  0  0
 21 22  1  0  0  0  0
 22 23  1  0  0  0  0
 22 25  1  0  0  0  0
 23 24  2  0  0  0  0
 26 27  1  0  0  0  0
 27 28  1  0  0  0  0
 27 30  1  0  0  0  0
 27 31  1  0  0  0  0
 28 29  1  0  0  0  0
  2 32  1  0  0  0  0
  3 33  1  0  0  0  0
  4 34  1  0  0  0  0
  4 35  1  0  0  0  0
 10 36  1  0  0  0  0
 10 37  1  0  0  0  0
 15 38  1  0  0  0  0
 16 39  1  0  0  0  0
 18 40  1  0  0  0  0
 19 41  1  0  0  0  0
 21 42  1  0  0  0  0
 24 43  1  0  0  0  0
 25 44  1  0  0  0  0
 25 45  1  0  0  0  0
 25 46  1  0  0  0  0
 26 47  1  0  0  0  0
 26 48  1  0  0  0  0
 28 49  1  0  0  0  0
 28 50  1  0  0  0  0
 29 51  1  0  0  0  0
 29 52  1  0  0  0  0
M  END
> <Name>
38

> <IC50[uM]>
0.005

$$$$
38
  -OEChem-05192314333D
 Structure written by MMmdl.
 52 56  0     0  0  0  0  0  0999 V2000
   -6.3676   12.3632  -12.0183 C   0  0  0  0  0  0  0  0  0  0  0  0
   -6.5148   11.8066  -10.7373 C   0  0  0  0  0  0  0  0  0  0  0  0
   -7.7147   10.5754  -13.0306 C   0  0  0  0  0  0  0  0  0  0  0  0
   -6.9819   11.7689  -13.1253 C   0  0  0  0  0  0  0  0  0  0  0  0
   -7.8143   10.0109  -11.7564 C   0  0  0  0  0  0  0  0  0  0  0  0
   -7.2414   10.6177  -10.6023 C   0  0  0  0  0  0  0  0  0  0  0  0
   -7.6126    9.7466   -9.5122 C   0  0  0  0  0  0  0  0  0  0  0  0
   -8.2846    8.7319   -9.9810 N   0  0  0  0  0  0  0  0  0  0  0  0
   -8.4146    8.8618  -11.2972 N   0  0  0  0  0  0  0  0  0  0  0  0
   -7.3363    9.8918   -8.0268 C   0  0  0  0  0  0  0  0  0  0  0  0
   -4.3648   13.7196  -11.5032 N   0  0  0  0  0  0  0  0  0  0  0  0
   -5.5453   13.6325  -12.1937 C   0  0  0  0  0  0  0  0  0  0  0  0
   -5.9402   14.5231  -12.9481 O   0  0  0  0  0  0  0  0  0  0  0  0
   -5.9634   10.4852   -7.7356 C   0  0  0  0  0  0  0  0  0  0  0  0
   -4.8111    9.7655   -8.0524 C   0  0  0  0  0  0  0  0  0  0  0  0
   -3.5521   10.3143   -7.8018 C   0  0  0  0  0  0  0  0  0  0  0  0
   -3.4442   11.5871   -7.2318 C   0  0  0  0  0  0  0  0  0  0  0  0
   -4.5964   12.3037   -6.9134 C   0  0  0  0  0  0  0  0  0  0  0  0
   -5.8531   11.7536   -7.1622 C   0  0  0  0  0  0  0  0  0  0  0  0
   -2.1000   12.1772   -6.9659 C   0  0  0  0  0  0  0  0  0  0  0  0
   -1.7711   13.4213   -6.4318 C   0  0  0  0  0  0  0  0  0  0  0  0
   -0.4319   13.4866   -6.3915 N   0  0  0  0  0  0  0  0  0  0  0  0
    0.1707   12.4146   -6.8487 N   0  0  0  0  0  0  0  0  0  0  0  0
   -0.8042   11.5996   -7.2054 C   0  0  0  0  0  0  0  0  0  0  0  0
    0.3852   14.5927   -5.9060 C   0  0  0  0  0  0  0  0  0  0  0  0
   -3.7189   12.5724  -10.8441 C   0  0  0  0  0  0  0  0  0  0  0  0
   -2.2354   12.9457  -10.9732 C   0  0  0  0  0  0  0  0  0  0  0  0
   -2.1905   14.4637  -10.9533 C   0  0  0  0  0  0  0  0  0  0  0  0
   -3.5123   14.9092  -11.5998 C   0  0  0  0  0  0  0  0  0  0  0  0
   -1.7098   12.4700  -12.1164 F   0  0  0  0  0  0  0  0  0  0  0  0
   -1.5166   12.4356   -9.9564 F   0  0  0  0  0  0  0  0  0  0  0  0
   -5.5036   11.6144  -10.3492 H   0  0  0  0  0  0  0  0  0  0  0  0
   -7.0106   12.5624  -10.1105 H   0  0  0  0  0  0  0  0  0  0  0  0
   -8.1756   10.1191  -13.8942 H   0  0  0  0  0  0  0  0  0  0  0  0
   -6.8889   12.2463  -14.0896 H   0  0  0  0  0  0  0  0  0  0  0  0
   -8.1027   10.5486   -7.5895 H   0  0  0  0  0  0  0  0  0  0  0  0
   -7.3955    8.8977   -7.5597 H   0  0  0  0  0  0  0  0  0  0  0  0
   -4.8931    8.7825   -8.4921 H   0  0  0  0  0  0  0  0  0  0  0  0
   -2.6611    9.7559   -8.0481 H   0  0  0  0  0  0  0  0  0  0  0  0
   -4.5156   13.2866   -6.4733 H   0  0  0  0  0  0  0  0  0  0  0  0
   -6.7439   12.3101   -6.9107 H   0  0  0  0  0  0  0  0  0  0  0  0
   -2.4623   14.1868   -6.1115 H   0  0  0  0  0  0  0  0  0  0  0  0
   -0.6481   10.6174   -7.6264 H   0  0  0  0  0  0  0  0  0  0  0  0
    1.4497   14.3348   -6.0072 H   0  0  0  0  0  0  0  0  0  0  0  0
    0.1689   15.4951   -6.4967 H   0  0  0  0  0  0  0  0  0  0  0  0
    0.1531   14.7829   -4.8477 H   0  0  0  0  0  0  0  0  0  0  0  0
   -4.0230   12.4902   -9.7902 H   0  0  0  0  0  0  0  0  0  0  0  0
   -3.9436   11.6300  -11.3651 H   0  0  0  0  0  0  0  0  0  0  0  0
   -2.1210   14.8350   -9.9202 H   0  0  0  0  0  0  0  0  0  0  0  0
   -1.3323   14.8328  -11.5341 H   0  0  0  0  0  0  0  0  0  0  0  0
   -3.3578   15.1968  -12.6502 H   0  0  0  0  0  0  0  0  0  0  0  0
   -3.9532   15.7535  -11.0495 H   0  0  0  0  0  0  0  0  0  0  0  0
  1  2  1  0  0  0  0
  1  4  2  0  0  0  0
  1 12  1  0  0  0  0
  2  6  1  0  0  0  0
  3  4  1  0  0  0  0
  3  5  2  0  0  0  0
  5  6  1  0  0  0  0
  5  9  1  0  0  0  0
  6  7  2  0  0  0  0
  7  8  1  0  0  0  0
  7 10  1  0  0  0  0
  8  9  2  0  0  0  0
 10 14  1  0  0  0  0
 11 12  1  0  0  0  0
 11 26  1  0  0  0  0
 11 29  1  0  0  0  0
 12 13  2  0  0  0  0
 14 15  2  0  0  0  0
 14 19  1  0  0  0  0
 15 16  1  0  0  0  0
 16 17  2  0  0  0  0
 17 18  1  0  0  0  0
 17 20  1  0  0  0  0
 18 19  2  0  0  0  0
 20 21  2  0  0  0  0
 20 24  1  0  0  0  0
 21 22  1  0  0  0  0
 22 23  1  0  0  0  0
 22 25  1  0  0  0  0
 23 24  2  0  0  0  0
 26 27  1  0  0  0  0
 27 28  1  0  0  0  0
 27 30  1  0  0  0  0
 27 31  1  0  0  0  0
 28 29  1  0  0  0  0
  2 32  1  0  0  0  0
  2 33  1  0  0  0  0
  3 34  1  0  0  0  0
  4 35  1  0  0  0  0
 10 36  1  0  0  0  0
 10 37  1  0  0  0  0
 15 38  1  0  0  0  0
 16 39  1  0  0  0  0
 18 40  1  0  0  0  0
 19 41  1  0  0  0  0
 21 42  1  0  0  0  0
 24 43  1  0  0  0  0
 25 44  1  0  0  0  0
 25 45  1  0  0  0  0
 25 46  1  0  0  0  0
 26 47  1  0  0  0  0
 26 48  1  0  0  0  0
 28 49  1  0  0  0  0
 28 50  1  0  0  0  0
 29 51  1  0  0  0  0
 29 52  1  0  0  0  0
M  END
> <Name>
38

> <IC50[uM]>
0.005

$$$$
38
  -OEChem-05192314333D
 Structure written by MMmdl.
 52 56  0     1  0  0  0  0  0999 V2000
   -6.3676   12.3632  -12.0183 C   0  0  0  0  0  0  0  0  0  0  0  0
   -6.5148   11.8066  -10.7373 C   0  0  0  0  0  0  0  0  0  0  0  0
   -7.7147   10.5754  -13.0306 C   0  0  0  0  0  0  0  0  0  0  0  0
   -6.9819   11.7689  -13.1253 C   0  0  0  0  0  0  0  0  0  0  0  0
   -7.8143   10.0109  -11.7564 C   0  0  0  0  0  0  0  0  0  0  0  0
   -7.2414   10.6177  -10.6023 C   0  0  3  0  0  0  0  0  0  0  0  0
   -7.6126    9.7466   -9.5122 C   0  0  0  0  0  0  0  0  0  0  0  0
   -8.2846    8.7319   -9.9810 N   0  0  0  0  0  0  0  0  0  0  0  0
   -8.4146    8.8618  -11.2972 N   0  0  0  0  0  0  0  0  0  0  0  0
   -7.3363    9.8918   -8.0268 C   0  0  0  0  0  0  0  0  0  0  0  0
   -4.3648   13.7196  -11.5032 N   0  0  0  0  0  0  0  0  0  0  0  0
   -5.5453   13.6325  -12.1937 C   0  0  0  0  0  0  0  0  0  0  0  0
   -5.9402   14.5231  -12.9481 O   0  0  0  0  0  0  0  0  0  0  0  0
   -5.9634   10.4852   -7.7356 C   0  0  0  0  0  0  0  0  0  0  0  0
   -4.8111    9.7655   -8.0524 C   0  0  0  0  0  0  0  0  0  0  0  0
   -3.5521   10.3143   -7.8018 C   0  0  0  0  0  0  0  0  0  0  0  0
   -3.4442   11.5871   -7.2318 C   0  0  0  0  0  0  0  0  0  0  0  0
   -4.5964   12.3037   -6.9134 C   0  0  0  0  0  0  0  0  0  0  0  0
   -5.8531   11.7536   -7.1622 C   0  0  0  0  0  0  0  0  0  0  0  0
   -2.1000   12.1772   -6.9659 C   0  0  0  0  0  0  0  0  0  0  0  0
   -1.7711   13.4213   -6.4318 C   0  0  0  0  0  0  0  0  0  0  0  0
   -0.4319   13.4866   -6.3915 N   0  0  0  0  0  0  0  0  0  0  0  0
    0.1707   12.4146   -6.8487 N   0  0  0  0  0  0  0  0  0  0  0  0
   -0.8042   11.5996   -7.2054 C   0  0  0  0  0  0  0  0  0  0  0  0
    0.3852   14.5927   -5.9060 C   0  0  0  0  0  0  0  0  0  0  0  0
   -3.7189   12.5724  -10.8441 C   0  0  0  0  0  0  0  0  0  0  0  0
   -2.2354   12.9457  -10.9732 C   0  0  0  0  0  0  0  0  0  0  0  0
   -2.1905   14.4637  -10.9533 C   0  0  0  0  0  0  0  0  0  0  0  0
   -3.5123   14.9092  -11.5998 C   0  0  0  0  0  0  0  0  0  0  0  0
   -1.7098   12.4700  -12.1164 F   0  0  0  0  0  0  0  0  0  0  0  0
   -1.5166   12.4356   -9.9564 F   0  0  0  0  0  0  0  0  0  0  0  0
   -6.0766   12.2858   -9.8743 H   0  0  0  0  0  0  0  0  0  0  0  0
   -8.1756   10.1191  -13.8942 H   0  0  0  0  0  0  0  0  0  0  0  0
   -6.8889   12.2463  -14.0896 H   0  0  0  0  0  0  0  0  0  0  0  0
   -6.3198   10.0366  -10.7536 H   0  0  0  0  0  0  0  0  0  0  0  0
   -8.6453    7.9752   -9.4358 H   0  0  0  0  0  0  0  0  0  0  0  0
   -8.0383    9.6050   -7.2579 H   0  0  0  0  0  0  0  0  0  0  0  0
   -4.8931    8.7825   -8.4921 H   0  0  0  0  0  0  0  0  0  0  0  0
   -2.6611    9.7559   -8.0481 H   0  0  0  0  0  0  0  0  0  0  0  0
   -4.5156   13.2866   -6.4733 H   0  0  0  0  0  0  0  0  0  0  0  0
   -6.7439   12.3101   -6.9107 H   0  0  0  0  0  0  0  0  0  0  0  0
   -2.4623   14.1868   -6.1115 H   0  0  0  0  0  0  0  0  0  0  0  0
   -0.6481   10.6174   -7.6264 H   0  0  0  0  0  0  0  0  0  0  0  0
    1.4497   14.3348   -6.0072 H   0  0  0  0  0  0  0  0  0  0  0  0
    0.1689   15.4951   -6.4967 H   0  0  0  0  0  0  0  0  0  0  0  0
    0.1531   14.7829   -4.8477 H   0  0  0  0  0  0  0  0  0  0  0  0
   -4.0230   12.4902   -9.7902 H   0  0  0  0  0  0  0  0  0  0  0  0
   -3.9436   11.6300  -11.3651 H   0  0  0  0  0  0  0  0  0  0  0  0
   -2.1210   14.8350   -9.9202 H   0  0  0  0  0  0  0  0  0  0  0  0
   -1.3323   14.8328  -11.5341 H   0  0  0  0  0  0  0  0  0  0  0  0
   -3.3578   15.1968  -12.6502 H   0  0  0  0  0  0  0  0  0  0  0  0
   -3.9532   15.7535  -11.0495 H   0  0  0  0  0  0  0  0  0  0  0  0
  1  2  2  0  0  0  0
  1  4  1  0  0  0  0
  1 12  1  0  0  0  0
  2  6  1  0  0  0  0
  3  4  2  0  0  0  0
  3  5  1  0  0  0  0
  5  6  1  0  0  0  0
  5  9  2  0  0  0  0
  6  7  1  0  0  0  0
  7  8  1  0  0  0  0
  7 10  2  3  0  0  0
  8  9  1  0  0  0  0
 10 14  1  0  0  0  0
 11 12  1  0  0  0  0
 11 26  1  0  0  0  0
 11 29  1  0  0  0  0
 12 13  2  0  0  0  0
 14 15  2  0  0  0  0
 14 19  1  0  0  0  0
 15 16  1  0  0  0  0
 16 17  2  0  0  0  0
 17 18  1  0  0  0  0
 17 20  1  0  0  0  0
 18 19  2  0  0  0  0
 20 21  2  0  0  0  0
 20 24  1  0  0  0  0
 21 22  1  0  0  0  0
 22 23  1  0  0  0  0
 22 25  1  0  0  0  0
 23 24  2  0  0  0  0
 26 27  1  0  0  0  0
 27 28  1  0  0  0  0
 27 30  1  0  0  0  0
 27 31  1  0  0  0  0
 28 29  1  0  0  0  0
  2 32  1  0  0  0  0
  3 33  1  0  0  0  0
  4 34  1  0  0  0  0
  6 35  1  0  0  0  0
  8 36  1  0  0  0  0
 10 37  1  0  0  0  0
 15 38  1  0  0  0  0
 16 39  1  0  0  0  0
 18 40  1  0  0  0  0
 19 41  1  0  0  0  0
 21 42  1  0  0  0  0
 24 43  1  0  0  0  0
 25 44  1  0  0  0  0
 25 45  1  0  0  0  0
 25 46  1  0  0  0  0
 26 47  1  0  0  0  0
 26 48  1  0  0  0  0
 28 49  1  0  0  0  0
 28 50  1  0  0  0  0
 29 51  1  0  0  0  0
 29 52  1  0  0  0  0
M  END
> <Name>
38

> <IC50[uM]>
0.005

$$$$
38
  -OEChem-05192314333D
 Structure written by MMmdl.
 52 56  0     1  0  0  0  0  0999 V2000
   -6.3676   12.3632  -12.0183 C   0  0  0  0  0  0  0  0  0  0  0  0
   -6.5148   11.8066  -10.7373 C   0  0  0  0  0  0  0  0  0  0  0  0
   -7.7147   10.5754  -13.0306 C   0  0  0  0  0  0  0  0  0  0  0  0
   -6.9819   11.7689  -13.1253 C   0  0  0  0  0  0  0  0  0  0  0  0
   -7.8143   10.0109  -11.7564 C   0  0  0  0  0  0  0  0  0  0  0  0
   -7.2414   10.6177  -10.6023 C   0  0  0  0  0  0  0  0  0  0  0  0
   -7.6126    9.7466   -9.5122 C   0  0  0  0  0  0  0  0  0  0  0  0
   -8.2846    8.7319   -9.9810 N   0  0  0  0  0  0  0  0  0  0  0  0
   -8.4146    8.8618  -11.2972 N   0  0  0  0  0  0  0  0  0  0  0  0
   -7.3363    9.8918   -8.0268 C   0  0  0  0  0  0  0  0  0  0  0  0
   -4.3648   13.7196  -11.5032 N   0  0  0  0  0  0  0  0  0  0  0  0
   -5.5453   13.6325  -12.1937 C   0  0  0  0  0  0  0  0  0  0  0  0
   -5.9402   14.5231  -12.9481 O   0  0  0  0  0  0  0  0  0  0  0  0
   -5.9634   10.4852   -7.7356 C   0  0  0  0  0  0  0  0  0  0  0  0
   -4.8111    9.7655   -8.0524 C   0  0  0  0  0  0  0  0  0  0  0  0
   -3.5521   10.3143   -7.8018 C   0  0  0  0  0  0  0  0  0  0  0  0
   -3.4442   11.5871   -7.2318 C   0  0  0  0  0  0  0  0  0  0  0  0
   -4.5964   12.3037   -6.9134 C   0  0  0  0  0  0  0  0  0  0  0  0
   -5.8531   11.7536   -7.1622 C   0  0  0  0  0  0  0  0  0  0  0  0
   -2.1000   12.1772   -6.9659 C   0  0  0  0  0  0  0  0  0  0  0  0
   -1.7711   13.4213   -6.4318 C   0  0  0  0  0  0  0  0  0  0  0  0
   -0.4319   13.4866   -6.3915 N   0  0  3  0  0  0  0  0  0  0  0  0
    0.1707   12.4146   -6.8487 N   0  0  0  0  0  0  0  0  0  0  0  0
   -0.8042   11.5996   -7.2054 C   0  0  0  0  0  0  0  0  0  0  0  0
    0.3852   14.5927   -5.9060 C   0  0  0  0  0  0  0  0  0  0  0  0
   -3.7189   12.5724  -10.8441 C   0  0  0  0  0  0  0  0  0  0  0  0
   -2.2354   12.9457  -10.9732 C   0  0  0  0  0  0  0  0  0  0  0  0
   -2.1905   14.4637  -10.9533 C   0  0  0  0  0  0  0  0  0  0  0  0
   -3.5123   14.9092  -11.5998 C   0  0  0  0  0  0  0  0  0  0  0  0
   -1.7098   12.4700  -12.1164 F   0  0  0  0  0  0  0  0  0  0  0  0
   -1.5166   12.4356   -9.9564 F   0  0  0  0  0  0  0  0  0  0  0  0
   -6.0766   12.2858   -9.8743 H   0  0  0  0  0  0  0  0  0  0  0  0
   -8.1756   10.1191  -13.8942 H   0  0  0  0  0  0  0  0  0  0  0  0
   -6.8889   12.2463  -14.0896 H   0  0  0  0  0  0  0  0  0  0  0  0
   -8.0383    9.6050   -7.2579 H   0  0  0  0  0  0  0  0  0  0  0  0
   -5.9760   10.0302   -6.7342 H   0  0  0  0  0  0  0  0  0  0  0  0
   -4.8931    8.7825   -8.4921 H   0  0  0  0  0  0  0  0  0  0  0  0
   -2.6611    9.7559   -8.0481 H   0  0  0  0  0  0  0  0  0  0  0  0
   -4.5156   13.2866   -6.4733 H   0  0  0  0  0  0  0  0  0  0  0  0
   -6.7439   12.3101   -6.9107 H   0  0  0  0  0  0  0  0  0  0  0  0
   -2.1699   14.2240   -7.0694 H   0  0  0  0  0  0  0  0  0  0  0  0
   -2.1852   13.5189   -5.4174 H   0  0  0  0  0  0  0  0  0  0  0  0
   -0.6481   10.6174   -7.6264 H   0  0  0  0  0  0  0  0  0  0  0  0
    1.4497   14.3348   -6.0072 H   0  0  0  0  0  0  0  0  0  0  0  0
    0.1689   15.4951   -6.4967 H   0  0  0  0  0  0  0  0  0  0  0  0
    0.1531   14.7829   -4.8477 H   0  0  0  0  0  0  0  0  0  0  0  0
   -4.0230   12.4902   -9.7902 H   0  0  0  0  0  0  0  0  0  0  0  0
   -3.9436   11.6300  -11.3651 H   0  0  0  0  0  0  0  0  0  0  0  0
   -2.1210   14.8350   -9.9202 H   0  0  0  0  0  0  0  0  0  0  0  0
   -1.3323   14.8328  -11.5341 H   0  0  0  0  0  0  0  0  0  0  0  0
   -3.3578   15.1968  -12.6502 H   0  0  0  0  0  0  0  0  0  0  0  0
   -3.9532   15.7535  -11.0495 H   0  0  0  0  0  0  0  0  0  0  0  0
  1  2  2  0  0  0  0
  1  4  1  0  0  0  0
  1 12  1  0  0  0  0
  2  6  1  0  0  0  0
  3  4  2  0  0  0  0
  3  5  1  0  0  0  0
  5  6  2  0  0  0  0
  5  9  1  0  0  0  0
  6  7  1  0  0  0  0
  7  8  1  0  0  0  0
  7 10  2  3  0  0  0
  8  9  2  0  0  0  0
 10 14  1  0  0  0  0
 11 12  1  0  0  0  0
 11 26  1  0  0  0  0
 11 29  1  0  0  0  0
 12 13  2  0  0  0  0
 14 15  1  0  0  0  0
 14 19  1  0  0  0  0
 15 16  2  0  0  0  0
 16 17  1  0  0  0  0
 17 18  1  0  0  0  0
 17 20  2  0  0  0  0
 18 19  2  0  0  0  0
 20 21  1  0  0  0  0
 20 24  1  0  0  0  0
 21 22  1  0  0  0  0
 22 23  1  0  0  0  0
 22 25  1  0  0  0  0
 23 24  2  0  0  0  0
 26 27  1  0  0  0  0
 27 28  1  0  0  0  0
 27 30  1  0  0  0  0
 27 31  1  0  0  0  0
 28 29  1  0  0  0  0
  2 32  1  0  0  0  0
  3 33  1  0  0  0  0
  4 34  1  0  0  0  0
 10 35  1  0  0  0  0
 14 36  1  0  0  0  0
 15 37  1  0  0  0  0
 16 38  1  0  0  0  0
 18 39  1  0  0  0  0
 19 40  1  0  0  0  0
 21 41  1  0  0  0  0
 21 42  1  0  0  0  0
 24 43  1  0  0  0  0
 25 44  1  0  0  0  0
 25 45  1  0  0  0  0
 25 46  1  0  0  0  0
 26 47  1  0  0  0  0
 26 48  1  0  0  0  0
 28 49  1  0  0  0  0
 28 50  1  0  0  0  0
 29 51  1  0  0  0  0
 29 52  1  0  0  0  0
M  END
> <Name>
38

> <IC50[uM]>
0.005

$$$$
38
  -OEChem-05192314333D
 Structure written by MMmdl.
 52 56  0     1  0  0  0  0  0999 V2000
   -6.3676   12.3632  -12.0183 C   0  0  0  0  0  0  0  0  0  0  0  0
   -6.5148   11.8066  -10.7373 C   0  0  0  0  0  0  0  0  0  0  0  0
   -7.7147   10.5754  -13.0306 C   0  0  0  0  0  0  0  0  0  0  0  0
   -6.9819   11.7689  -13.1253 C   0  0  0  0  0  0  0  0  0  0  0  0
   -7.8143   10.0109  -11.7564 C   0  0  0  0  0  0  0  0  0  0  0  0
   -7.2414   10.6177  -10.6023 C   0  0  0  0  0  0  0  0  0  0  0  0
   -7.6126    9.7466   -9.5122 C   0  0  0  0  0  0  0  0  0  0  0  0
   -8.2846    8.7319   -9.9810 N   0  0  0  0  0  0  0  0  0  0  0  0
   -8.4146    8.8618  -11.2972 N   0  0  0  0  0  0  0  0  0  0  0  0
   -7.3363    9.8918   -8.0268 C   0  0  0  0  0  0  0  0  0  0  0  0
   -4.3648   13.7196  -11.5032 N   0  0  0  0  0  0  0  0  0  0  0  0
   -5.5453   13.6325  -12.1937 C   0  0  0  0  0  0  0  0  0  0  0  0
   -5.9402   14.5231  -12.9481 O   0  0  0  0  0  0  0  0  0  0  0  0
   -5.9634   10.4852   -7.7356 C   0  0  0  0  0  0  0  0  0  0  0  0
   -4.8111    9.7655   -8.0524 C   0  0  0  0  0  0  0  0  0  0  0  0
   -3.5521   10.3143   -7.8018 C   0  0  0  0  0  0  0  0  0  0  0  0
   -3.4442   11.5871   -7.2318 C   0  0  0  0  0  0  0  0  0  0  0  0
   -4.5964   12.3037   -6.9134 C   0  0  0  0  0  0  0  0  0  0  0  0
   -5.8531   11.7536   -7.1622 C   0  0  0  0  0  0  0  0  0  0  0  0
   -2.1000   12.1772   -6.9659 C   0  0  0  0  0  0  0  0  0  0  0  0
   -1.7711   13.4213   -6.4318 C   0  0  0  0  0  0  0  0  0  0  0  0
   -0.4319   13.4866   -6.3915 N   0  0  3  0  0  0  0  0  0  0  0  0
    0.1707   12.4146   -6.8487 N   0  0  0  0  0  0  0  0  0  0  0  0
   -0.8042   11.5996   -7.2054 C   0  0  0  0  0  0  0  0  0  0  0  0
    0.3852   14.5927   -5.9060 C   0  0  0  0  0  0  0  0  0  0  0  0
   -3.7189   12.5724  -10.8441 C   0  0  0  0  0  0  0  0  0  0  0  0
   -2.2354   12.9457  -10.9732 C   0  0  0  0  0  0  0  0  0  0  0  0
   -2.1905   14.4637  -10.9533 C   0  0  0  0  0  0  0  0  0  0  0  0
   -3.5123   14.9092  -11.5998 C   0  0  0  0  0  0  0  0  0  0  0  0
   -1.7098   12.4700  -12.1164 F   0  0  0  0  0  0  0  0  0  0  0  0
   -1.5166   12.4356   -9.9564 F   0  0  0  0  0  0  0  0  0  0  0  0
   -6.0766   12.2858   -9.8743 H   0  0  0  0  0  0  0  0  0  0  0  0
   -8.1756   10.1191  -13.8942 H   0  0  0  0  0  0  0  0  0  0  0  0
   -6.8889   12.2463  -14.0896 H   0  0  0  0  0  0  0  0  0  0  0  0
   -8.0383    9.6050   -7.2579 H   0  0  0  0  0  0  0  0  0  0  0  0
   -4.8931    8.7825   -8.4921 H   0  0  0  0  0  0  0  0  0  0  0  0
   -3.0314    9.6191   -7.1269 H   0  0  0  0  0  0  0  0  0  0  0  0
   -3.0249   10.3528   -8.7665 H   0  0  0  0  0  0  0  0  0  0  0  0
   -4.5156   13.2866   -6.4733 H   0  0  0  0  0  0  0  0  0  0  0  0
   -6.7439   12.3101   -6.9107 H   0  0  0  0  0  0  0  0  0  0  0  0
   -2.1699   14.2240   -7.0694 H   0  0  0  0  0  0  0  0  0  0  0  0
   -2.1852   13.5189   -5.4174 H   0  0  0  0  0  0  0  0  0  0  0  0
   -0.6481   10.6174   -7.6264 H   0  0  0  0  0  0  0  0  0  0  0  0
    1.4497   14.3348   -6.0072 H   0  0  0  0  0  0  0  0  0  0  0  0
    0.1689   15.4951   -6.4967 H   0  0  0  0  0  0  0  0  0  0  0  0
    0.1531   14.7829   -4.8477 H   0  0  0  0  0  0  0  0  0  0  0  0
   -4.0230   12.4902   -9.7902 H   0  0  0  0  0  0  0  0  0  0  0  0
   -3.9436   11.6300  -11.3651 H   0  0  0  0  0  0  0  0  0  0  0  0
   -2.1210   14.8350   -9.9202 H   0  0  0  0  0  0  0  0  0  0  0  0
   -1.3323   14.8328  -11.5341 H   0  0  0  0  0  0  0  0  0  0  0  0
   -3.3578   15.1968  -12.6502 H   0  0  0  0  0  0  0  0  0  0  0  0
   -3.9532   15.7535  -11.0495 H   0  0  0  0  0  0  0  0  0  0  0  0
  1  2  2  0  0  0  0
  1  4  1  0  0  0  0
  1 12  1  0  0  0  0
  2  6  1  0  0  0  0
  3  4  2  0  0  0  0
  3  5  1  0  0  0  0
  5  6  2  0  0  0  0
  5  9  1  0  0  0  0
  6  7  1  0  0  0  0
  7  8  1  0  0  0  0
  7 10  2  3  0  0  0
  8  9  2  0  0  0  0
 10 14  1  0  0  0  0
 11 12  1  0  0  0  0
 11 26  1  0  0  0  0
 11 29  1  0  0  0  0
 12 13  2  0  0  0  0
 14 15  2  0  0  0  0
 14 19  1  0  0  0  0
 15 16  1  0  0  0  0
 16 17  1  0  0  0  0
 17 18  1  0  0  0  0
 17 20  2  0  0  0  0
 18 19  2  0  0  0  0
 20 21  1  0  0  0  0
 20 24  1  0  0  0  0
 21 22  1  0  0  0  0
 22 23  1  0  0  0  0
 22 25  1  0  0  0  0
 23 24  2  0  0  0  0
 26 27  1  0  0  0  0
 27 28  1  0  0  0  0
 27 30  1  0  0  0  0
 27 31  1  0  0  0  0
 28 29  1  0  0  0  0
  2 32  1  0  0  0  0
  3 33  1  0  0  0  0
  4 34  1  0  0  0  0
 10 35  1  0  0  0  0
 15 36  1  0  0  0  0
 16 37  1  0  0  0  0
 16 38  1  0  0  0  0
 18 39  1  0  0  0  0
 19 40  1  0  0  0  0
 21 41  1  0  0  0  0
 21 42  1  0  0  0  0
 24 43  1  0  0  0  0
 25 44  1  0  0  0  0
 25 45  1  0  0  0  0
 25 46  1  0  0  0  0
 26 47  1  0  0  0  0
 26 48  1  0  0  0  0
 28 49  1  0  0  0  0
 28 50  1  0  0  0  0
 29 51  1  0  0  0  0
 29 52  1  0  0  0  0
M  END
> <Name>
38

> <IC50[uM]>
0.005

$$$$
38
  -OEChem-05192314333D
 Structure written by MMmdl.
 52 56  0     1  0  0  0  0  0999 V2000
   -6.3676   12.3632  -12.0183 C   0  0  3  0  0  0  0  0  0  0  0  0
   -6.5148   11.8066  -10.7373 C   0  0  0  0  0  0  0  0  0  0  0  0
   -7.7147   10.5754  -13.0306 C   0  0  0  0  0  0  0  0  0  0  0  0
   -6.9819   11.7689  -13.1253 C   0  0  0  0  0  0  0  0  0  0  0  0
   -7.8143   10.0109  -11.7564 C   0  0  0  0  0  0  0  0  0  0  0  0
   -7.2414   10.6177  -10.6023 C   0  0  0  0  0  0  0  0  0  0  0  0
   -7.6126    9.7466   -9.5122 C   0  0  0  0  0  0  0  0  0  0  0  0
   -8.2846    8.7319   -9.9810 N   0  0  0  0  0  0  0  0  0  0  0  0
   -8.4146    8.8618  -11.2972 N   0  0  0  0  0  0  0  0  0  0  0  0
   -7.3363    9.8918   -8.0268 C   0  0  0  0  0  0  0  0  0  0  0  0
   -4.3648   13.7196  -11.5032 N   0  0  0  0  0  0  0  0  0  0  0  0
   -5.5453   13.6325  -12.1937 C   0  0  0  0  0  0  0  0  0  0  0  0
   -5.9402   14.5231  -12.9481 O   0  0  0  0  0  0  0  0  0  0  0  0
   -5.9634   10.4852   -7.7356 C   0  0  0  0  0  0  0  0  0  0  0  0
   -4.8111    9.7655   -8.0524 C   0  0  0  0  0  0  0  0  0  0  0  0
   -3.5521   10.3143   -7.8018 C   0  0  0  0  0  0  0  0  0  0  0  0
   -3.4442   11.5871   -7.2318 C   0  0  0  0  0  0  0  0  0  0  0  0
   -4.5964   12.3037   -6.9134 C   0  0  0  0  0  0  0  0  0  0  0  0
   -5.8531   11.7536   -7.1622 C   0  0  0  0  0  0  0  0  0  0  0  0
   -2.1000   12.1772   -6.9659 C   0  0  0  0  0  0  0  0  0  0  0  0
   -1.7711   13.4213   -6.4318 C   0  0  0  0  0  0  0  0  0  0  0  0
   -0.4319   13.4866   -6.3915 N   0  0  3  0  0  0  0  0  0  0  0  0
    0.1707   12.4146   -6.8487 N   0  0  0  0  0  0  0  0  0  0  0  0
   -0.8042   11.5996   -7.2054 C   0  0  0  0  0  0  0  0  0  0  0  0
    0.3852   14.5927   -5.9060 C   0  0  0  0  0  0  0  0  0  0  0  0
   -3.7189   12.5724  -10.8441 C   0  0  0  0  0  0  0  0  0  0  0  0
   -2.2354   12.9457  -10.9732 C   0  0  0  0  0  0  0  0  0  0  0  0
   -2.1905   14.4637  -10.9533 C   0  0  0  0  0  0  0  0  0  0  0  0
   -3.5123   14.9092  -11.5998 C   0  0  0  0  0  0  0  0  0  0  0  0
   -1.7098   12.4700  -12.1164 F   0  0  0  0  0  0  0  0  0  0  0  0
   -1.5166   12.4356   -9.9564 F   0  0  0  0  0  0  0  0  0  0  0  0
   -5.4678   11.7527  -12.1847 H   0  0  0  0  0  0  0  0  0  0  0  0
   -6.0766   12.2858   -9.8743 H   0  0  0  0  0  0  0  0  0  0  0  0
   -8.1756   10.1191  -13.8942 H   0  0  0  0  0  0  0  0  0  0  0  0
   -6.8889   12.2463  -14.0896 H   0  0  0  0  0  0  0  0  0  0  0  0
   -8.0383    9.6050   -7.2579 H   0  0  0  0  0  0  0  0  0  0  0  0
   -4.8931    8.7825   -8.4921 H   0  0  0  0  0  0  0  0  0  0  0  0
   -2.6611    9.7559   -8.0481 H   0  0  0  0  0  0  0  0  0  0  0  0
   -4.5156   13.2866   -6.4733 H   0  0  0  0  0  0  0  0  0  0  0  0
   -6.7439   12.3101   -6.9107 H   0  0  0  0  0  0  0  0  0  0  0  0
   -2.1699   14.2240   -7.0694 H   0  0  0  0  0  0  0  0  0  0  0  0
   -2.1852   13.5189   -5.4174 H   0  0  0  0  0  0  0  0  0  0  0  0
   -0.6481   10.6174   -7.6264 H   0  0  0  0  0  0  0  0  0  0  0  0
    1.4497   14.3348   -6.0072 H   0  0  0  0  0  0  0  0  0  0  0  0
    0.1689   15.4951   -6.4967 H   0  0  0  0  0  0  0  0  0  0  0  0
    0.1531   14.7829   -4.8477 H   0  0  0  0  0  0  0  0  0  0  0  0
   -4.0230   12.4902   -9.7902 H   0  0  0  0  0  0  0  0  0  0  0  0
   -3.9436   11.6300  -11.3651 H   0  0  0  0  0  0  0  0  0  0  0  0
   -2.1210   14.8350   -9.9202 H   0  0  0  0  0  0  0  0  0  0  0  0
   -1.3323   14.8328  -11.5341 H   0  0  0  0  0  0  0  0  0  0  0  0
   -3.3578   15.1968  -12.6502 H   0  0  0  0  0  0  0  0  0  0  0  0
   -3.9532   15.7535  -11.0495 H   0  0  0  0  0  0  0  0  0  0  0  0
  1  2  1  0  0  0  0
  1  4  1  0  0  0  0
  1 12  1  0  0  0  0
  2  6  2  0  0  0  0
  3  4  2  0  0  0  0
  3  5  1  0  0  0  0
  5  6  1  0  0  0  0
  5  9  2  0  0  0  0
  6  7  1  0  0  0  0
  7  8  2  0  0  0  0
  7 10  1  0  0  0  0
  8  9  1  0  0  0  0
 10 14  2  0  0  0  0
 11 12  1  0  0  0  0
 11 26  1  0  0  0  0
 11 29  1  0  0  0  0
 12 13  2  0  0  0  0
 14 15  1  0  0  0  0
 14 19  1  0  0  0  0
 15 16  2  0  0  0  0
 16 17  1  0  0  0  0
 17 18  1  0  0  0  0
 17 20  2  0  0  0  0
 18 19  2  0  0  0  0
 20 21  1  0  0  0  0
 20 24  1  0  0  0  0
 21 22  1  0  0  0  0
 22 23  1  0  0  0  0
 22 25  1  0  0  0  0
 23 24  2  0  0  0  0
 26 27  1  0  0  0  0
 27 28  1  0  0  0  0
 27 30  1  0  0  0  0
 27 31  1  0  0  0  0
 28 29  1  0  0  0  0
  1 32  1  0  0  0  0
  2 33  1  0  0  0  0
  3 34  1  0  0  0  0
  4 35  1  0  0  0  0
 10 36  1  0  0  0  0
 15 37  1  0  0  0  0
 16 38  1  0  0  0  0
 18 39  1  0  0  0  0
 19 40  1  0  0  0  0
 21 41  1  0  0  0  0
 21 42  1  0  0  0  0
 24 43  1  0  0  0  0
 25 44  1  0  0  0  0
 25 45  1  0  0  0  0
 25 46  1  0  0  0  0
 26 47  1  0  0  0  0
 26 48  1  0  0  0  0
 28 49  1  0  0  0  0
 28 50  1  0  0  0  0
 29 51  1  0  0  0  0
 29 52  1  0  0  0  0
M  END
> <Name>
38

> <IC50[uM]>
0.005

$$$$
38
  -OEChem-05192314333D
 Structure written by MMmdl.
 52 56  0     1  0  0  0  0  0999 V2000
   -6.3676   12.3632  -12.0183 C   0  0  0  0  0  0  0  0  0  0  0  0
   -6.5148   11.8066  -10.7373 C   0  0  0  0  0  0  0  0  0  0  0  0
   -7.7147   10.5754  -13.0306 C   0  0  0  0  0  0  0  0  0  0  0  0
   -6.9819   11.7689  -13.1253 C   0  0  0  0  0  0  0  0  0  0  0  0
   -7.8143   10.0109  -11.7564 C   0  0  0  0  0  0  0  0  0  0  0  0
   -7.2414   10.6177  -10.6023 C   0  0  3  0  0  0  0  0  0  0  0  0
   -7.6126    9.7466   -9.5122 C   0  0  0  0  0  0  0  0  0  0  0  0
   -8.2846    8.7319   -9.9810 N   0  0  0  0  0  0  0  0  0  0  0  0
   -8.4146    8.8618  -11.2972 N   0  0  0  0  0  0  0  0  0  0  0  0
   -7.3363    9.8918   -8.0268 C   0  0  0  0  0  0  0  0  0  0  0  0
   -4.3648   13.7196  -11.5032 N   0  0  0  0  0  0  0  0  0  0  0  0
   -5.5453   13.6325  -12.1937 C   0  0  0  0  0  0  0  0  0  0  0  0
   -5.9402   14.5231  -12.9481 O   0  0  0  0  0  0  0  0  0  0  0  0
   -5.9634   10.4852   -7.7356 C   0  0  0  0  0  0  0  0  0  0  0  0
   -4.8111    9.7655   -8.0524 C   0  0  0  0  0  0  0  0  0  0  0  0
   -3.5521   10.3143   -7.8018 C   0  0  0  0  0  0  0  0  0  0  0  0
   -3.4442   11.5871   -7.2318 C   0  0  0  0  0  0  0  0  0  0  0  0
   -4.5964   12.3037   -6.9134 C   0  0  0  0  0  0  0  0  0  0  0  0
   -5.8531   11.7536   -7.1622 C   0  0  0  0  0  0  0  0  0  0  0  0
   -2.1000   12.1772   -6.9659 C   0  0  0  0  0  0  0  0  0  0  0  0
   -1.7711   13.4213   -6.4318 C   0  0  0  0  0  0  0  0  0  0  0  0
   -0.4319   13.4866   -6.3915 N   0  0  3  0  0  0  0  0  0  0  0  0
    0.1707   12.4146   -6.8487 N   0  0  0  0  0  0  0  0  0  0  0  0
   -0.8042   11.5996   -7.2054 C   0  0  0  0  0  0  0  0  0  0  0  0
    0.3852   14.5927   -5.9060 C   0  0  0  0  0  0  0  0  0  0  0  0
   -3.7189   12.5724  -10.8441 C   0  0  0  0  0  0  0  0  0  0  0  0
   -2.2354   12.9457  -10.9732 C   0  0  0  0  0  0  0  0  0  0  0  0
   -2.1905   14.4637  -10.9533 C   0  0  0  0  0  0  0  0  0  0  0  0
   -3.5123   14.9092  -11.5998 C   0  0  0  0  0  0  0  0  0  0  0  0
   -1.7098   12.4700  -12.1164 F   0  0  0  0  0  0  0  0  0  0  0  0
   -1.5166   12.4356   -9.9564 F   0  0  0  0  0  0  0  0  0  0  0  0
   -6.0766   12.2858   -9.8743 H   0  0  0  0  0  0  0  0  0  0  0  0
   -8.1756   10.1191  -13.8942 H   0  0  0  0  0  0  0  0  0  0  0  0
   -6.8889   12.2463  -14.0896 H   0  0  0  0  0  0  0  0  0  0  0  0
   -6.3198   10.0366  -10.7536 H   0  0  0  0  0  0  0  0  0  0  0  0
   -8.0383    9.6050   -7.2579 H   0  0  0  0  0  0  0  0  0  0  0  0
   -4.8931    8.7825   -8.4921 H   0  0  0  0  0  0  0  0  0  0  0  0
   -2.6611    9.7559   -8.0481 H   0  0  0  0  0  0  0  0  0  0  0  0
   -4.5156   13.2866   -6.4733 H   0  0  0  0  0  0  0  0  0  0  0  0
   -6.7439   12.3101   -6.9107 H   0  0  0  0  0  0  0  0  0  0  0  0
   -2.1699   14.2240   -7.0694 H   0  0  0  0  0  0  0  0  0  0  0  0
   -2.1852   13.5189   -5.4174 H   0  0  0  0  0  0  0  0  0  0  0  0
   -0.6481   10.6174   -7.6264 H   0  0  0  0  0  0  0  0  0  0  0  0
    1.4497   14.3348   -6.0072 H   0  0  0  0  0  0  0  0  0  0  0  0
    0.1689   15.4951   -6.4967 H   0  0  0  0  0  0  0  0  0  0  0  0
    0.1531   14.7829   -4.8477 H   0  0  0  0  0  0  0  0  0  0  0  0
   -4.0230   12.4902   -9.7902 H   0  0  0  0  0  0  0  0  0  0  0  0
   -3.9436   11.6300  -11.3651 H   0  0  0  0  0  0  0  0  0  0  0  0
   -2.1210   14.8350   -9.9202 H   0  0  0  0  0  0  0  0  0  0  0  0
   -1.3323   14.8328  -11.5341 H   0  0  0  0  0  0  0  0  0  0  0  0
   -3.3578   15.1968  -12.6502 H   0  0  0  0  0  0  0  0  0  0  0  0
   -3.9532   15.7535  -11.0495 H   0  0  0  0  0  0  0  0  0  0  0  0
  1  2  2  0  0  0  0
  1  4  1  0  0  0  0
  1 12  1  0  0  0  0
  2  6  1  0  0  0  0
  3  4  2  0  0  0  0
  3  5  1  0  0  0  0
  5  6  1  0  0  0  0
  5  9  2  0  0  0  0
  6  7  1  0  0  0  0
  7  8  2  0  0  0  0
  7 10  1  0  0  0  0
  8  9  1  0  0  0  0
 10 14  2  0  0  0  0
 11 12  1  0  0  0  0
 11 26  1  0  0  0  0
 11 29  1  0  0  0  0
 12 13  2  0  0  0  0
 14 15  1  0  0  0  0
 14 19  1  0  0  0  0
 15 16  2  0  0  0  0
 16 17  1  0  0  0  0
 17 18  1  0  0  0  0
 17 20  2  0  0  0  0
 18 19  2  0  0  0  0
 20 21  1  0  0  0  0
 20 24  1  0  0  0  0
 21 22  1  0  0  0  0
 22 23  1  0  0  0  0
 22 25  1  0  0  0  0
 23 24  2  0  0  0  0
 26 27  1  0  0  0  0
 27 28  1  0  0  0  0
 27 30  1  0  0  0  0
 27 31  1  0  0  0  0
 28 29  1  0  0  0  0
  2 32  1  0  0  0  0
  3 33  1  0  0  0  0
  4 34  1  0  0  0  0
  6 35  1  0  0  0  0
 10 36  1  0  0  0  0
 15 37  1  0  0  0  0
 16 38  1  0  0  0  0
 18 39  1  0  0  0  0
 19 40  1  0  0  0  0
 21 41  1  0  0  0  0
 21 42  1  0  0  0  0
 24 43  1  0  0  0  0
 25 44  1  0  0  0  0
 25 45  1  0  0  0  0
 25 46  1  0  0  0  0
 26 47  1  0  0  0  0
 26 48  1  0  0  0  0
 28 49  1  0  0  0  0
 28 50  1  0  0  0  0
 29 51  1  0  0  0  0
 29 52  1  0  0  0  0
M  END
> <Name>
38

> <IC50[uM]>
0.005

$$$$
38
  -OEChem-05192314333D
 Structure written by MMmdl.
 52 56  0     1  0  0  0  0  0999 V2000
   -6.3676   12.3632  -12.0183 C   0  0  0  0  0  0  0  0  0  0  0  0
   -6.5148   11.8066  -10.7373 C   0  0  0  0  0  0  0  0  0  0  0  0
   -7.7147   10.5754  -13.0306 C   0  0  0  0  0  0  0  0  0  0  0  0
   -6.9819   11.7689  -13.1253 C   0  0  0  0  0  0  0  0  0  0  0  0
   -7.8143   10.0109  -11.7564 C   0  0  0  0  0  0  0  0  0  0  0  0
   -7.2414   10.6177  -10.6023 C   0  0  0  0  0  0  0  0  0  0  0  0
   -7.6126    9.7466   -9.5122 C   0  0  0  0  0  0  0  0  0  0  0  0
   -8.2846    8.7319   -9.9810 N   0  0  0  0  0  0  0  0  0  0  0  0
   -8.4146    8.8618  -11.2972 N   0  0  0  0  0  0  0  0  0  0  0  0
   -7.3363    9.8918   -8.0268 C   0  0  0  0  0  0  0  0  0  0  0  0
   -4.3648   13.7196  -11.5032 N   0  0  0  0  0  0  0  0  0  0  0  0
   -5.5453   13.6325  -12.1937 C   0  0  0  0  0  0  0  0  0  0  0  0
   -5.9402   14.5231  -12.9481 O   0  0  0  0  0  0  0  0  0  0  0  0
   -5.9634   10.4852   -7.7356 C   0  0  0  0  0  0  0  0  0  0  0  0
   -4.8111    9.7655   -8.0524 C   0  0  0  0  0  0  0  0  0  0  0  0
   -3.5521   10.3143   -7.8018 C   0  0  0  0  0  0  0  0  0  0  0  0
   -3.4442   11.5871   -7.2318 C   0  0  0  0  0  0  0  0  0  0  0  0
   -4.5964   12.3037   -6.9134 C   0  0  0  0  0  0  0  0  0  0  0  0
   -5.8531   11.7536   -7.1622 C   0  0  0  0  0  0  0  0  0  0  0  0
   -2.1000   12.1772   -6.9659 C   0  0  0  0  0  0  0  0  0  0  0  0
   -1.7711   13.4213   -6.4318 C   0  0  0  0  0  0  0  0  0  0  0  0
   -0.4319   13.4866   -6.3915 N   0  0  3  0  0  0  0  0  0  0  0  0
    0.1707   12.4146   -6.8487 N   0  0  0  0  0  0  0  0  0  0  0  0
   -0.8042   11.5996   -7.2054 C   0  0  0  0  0  0  0  0  0  0  0  0
    0.3852   14.5927   -5.9060 C   0  0  0  0  0  0  0  0  0  0  0  0
   -3.7189   12.5724  -10.8441 C   0  0  0  0  0  0  0  0  0  0  0  0
   -2.2354   12.9457  -10.9732 C   0  0  0  0  0  0  0  0  0  0  0  0
   -2.1905   14.4637  -10.9533 C   0  0  0  0  0  0  0  0  0  0  0  0
   -3.5123   14.9092  -11.5998 C   0  0  0  0  0  0  0  0  0  0  0  0
   -1.7098   12.4700  -12.1164 F   0  0  0  0  0  0  0  0  0  0  0  0
   -1.5166   12.4356   -9.9564 F   0  0  0  0  0  0  0  0  0  0  0  0
   -6.0766   12.2858   -9.8743 H   0  0  0  0  0  0  0  0  0  0  0  0
   -8.7349   10.7790  -13.3879 H   0  0  0  0  0  0  0  0  0  0  0  0
   -7.2366    9.8351  -13.6889 H   0  0  0  0  0  0  0  0  0  0  0  0
   -6.8889   12.2463  -14.0896 H   0  0  0  0  0  0  0  0  0  0  0  0
   -8.0383    9.6050   -7.2579 H   0  0  0  0  0  0  0  0  0  0  0  0
   -4.8931    8.7825   -8.4921 H   0  0  0  0  0  0  0  0  0  0  0  0
   -2.6611    9.7559   -8.0481 H   0  0  0  0  0  0  0  0  0  0  0  0
   -4.5156   13.2866   -6.4733 H   0  0  0  0  0  0  0  0  0  0  0  0
   -6.7439   12.3101   -6.9107 H   0  0  0  0  0  0  0  0  0  0  0  0
   -2.1699   14.2240   -7.0694 H   0  0  0  0  0  0  0  0  0  0  0  0
   -2.1852   13.5189   -5.4174 H   0  0  0  0  0  0  0  0  0  0  0  0
   -0.6481   10.6174   -7.6264 H   0  0  0  0  0  0  0  0  0  0  0  0
    1.4497   14.3348   -6.0072 H   0  0  0  0  0  0  0  0  0  0  0  0
    0.1689   15.4951   -6.4967 H   0  0  0  0  0  0  0  0  0  0  0  0
    0.1531   14.7829   -4.8477 H   0  0  0  0  0  0  0  0  0  0  0  0
   -4.0230   12.4902   -9.7902 H   0  0  0  0  0  0  0  0  0  0  0  0
   -3.9436   11.6300  -11.3651 H   0  0  0  0  0  0  0  0  0  0  0  0
   -2.1210   14.8350   -9.9202 H   0  0  0  0  0  0  0  0  0  0  0  0
   -1.3323   14.8328  -11.5341 H   0  0  0  0  0  0  0  0  0  0  0  0
   -3.3578   15.1968  -12.6502 H   0  0  0  0  0  0  0  0  0  0  0  0
   -3.9532   15.7535  -11.0495 H   0  0  0  0  0  0  0  0  0  0  0  0
  1  2  1  0  0  0  0
  1  4  2  0  0  0  0
  1 12  1  0  0  0  0
  2  6  2  0  0  0  0
  3  4  1  0  0  0  0
  3  5  1  0  0  0  0
  5  6  1  0  0  0  0
  5  9  2  0  0  0  0
  6  7  1  0  0  0  0
  7  8  2  0  0  0  0
  7 10  1  0  0  0  0
  8  9  1  0  0  0  0
 10 14  2  0  0  0  0
 11 12  1  0  0  0  0
 11 26  1  0  0  0  0
 11 29  1  0  0  0  0
 12 13  2  0  0  0  0
 14 15  1  0  0  0  0
 14 19  1  0  0  0  0
 15 16  2  0  0  0  0
 16 17  1  0  0  0  0
 17 18  1  0  0  0  0
 17 20  2  0  0  0  0
 18 19  2  0  0  0  0
 20 21  1  0  0  0  0
 20 24  1  0  0  0  0
 21 22  1  0  0  0  0
 22 23  1  0  0  0  0
 22 25  1  0  0  0  0
 23 24  2  0  0  0  0
 26 27  1  0  0  0  0
 27 28  1  0  0  0  0
 27 30  1  0  0  0  0
 27 31  1  0  0  0  0
 28 29  1  0  0  0  0
  2 32  1  0  0  0  0
  3 33  1  0  0  0  0
  3 34  1  0  0  0  0
  4 35  1  0  0  0  0
 10 36  1  0  0  0  0
 15 37  1  0  0  0  0
 16 38  1  0  0  0  0
 18 39  1  0  0  0  0
 19 40  1  0  0  0  0
 21 41  1  0  0  0  0
 21 42  1  0  0  0  0
 24 43  1  0  0  0  0
 25 44  1  0  0  0  0
 25 45  1  0  0  0  0
 25 46  1  0  0  0  0
 26 47  1  0  0  0  0
 26 48  1  0  0  0  0
 28 49  1  0  0  0  0
 28 50  1  0  0  0  0
 29 51  1  0  0  0  0
 29 52  1  0  0  0  0
M  END
> <Name>
38

> <IC50[uM]>
0.005

$$$$
38
  -OEChem-05192314333D
 Structure written by MMmdl.
 52 56  0     1  0  0  0  0  0999 V2000
   -6.3676   12.3632  -12.0183 C   0  0  0  0  0  0  0  0  0  0  0  0
   -6.5148   11.8066  -10.7373 C   0  0  0  0  0  0  0  0  0  0  0  0
   -7.7147   10.5754  -13.0306 C   0  0  0  0  0  0  0  0  0  0  0  0
   -6.9819   11.7689  -13.1253 C   0  0  0  0  0  0  0  0  0  0  0  0
   -7.8143   10.0109  -11.7564 C   0  0  3  0  0  0  0  0  0  0  0  0
   -7.2414   10.6177  -10.6023 C   0  0  0  0  0  0  0  0  0  0  0  0
   -7.6126    9.7466   -9.5122 C   0  0  0  0  0  0  0  0  0  0  0  0
   -8.2846    8.7319   -9.9810 N   0  0  0  0  0  0  0  0  0  0  0  0
   -8.4146    8.8618  -11.2972 N   0  0  0  0  0  0  0  0  0  0  0  0
   -7.3363    9.8918   -8.0268 C   0  0  0  0  0  0  0  0  0  0  0  0
   -4.3648   13.7196  -11.5032 N   0  0  0  0  0  0  0  0  0  0  0  0
   -5.5453   13.6325  -12.1937 C   0  0  0  0  0  0  0  0  0  0  0  0
   -5.9402   14.5231  -12.9481 O   0  0  0  0  0  0  0  0  0  0  0  0
   -5.9634   10.4852   -7.7356 C   0  0  0  0  0  0  0  0  0  0  0  0
   -4.8111    9.7655   -8.0524 C   0  0  0  0  0  0  0  0  0  0  0  0
   -3.5521   10.3143   -7.8018 C   0  0  0  0  0  0  0  0  0  0  0  0
   -3.4442   11.5871   -7.2318 C   0  0  0  0  0  0  0  0  0  0  0  0
   -4.5964   12.3037   -6.9134 C   0  0  0  0  0  0  0  0  0  0  0  0
   -5.8531   11.7536   -7.1622 C   0  0  0  0  0  0  0  0  0  0  0  0
   -2.1000   12.1772   -6.9659 C   0  0  0  0  0  0  0  0  0  0  0  0
   -1.7711   13.4213   -6.4318 C   0  0  0  0  0  0  0  0  0  0  0  0
   -0.4319   13.4866   -6.3915 N   0  0  3  0  0  0  0  0  0  0  0  0
    0.1707   12.4146   -6.8487 N   0  0  0  0  0  0  0  0  0  0  0  0
   -0.8042   11.5996   -7.2054 C   0  0  0  0  0  0  0  0  0  0  0  0
    0.3852   14.5927   -5.9060 C   0  0  0  0  0  0  0  0  0  0  0  0
   -3.7189   12.5724  -10.8441 C   0  0  0  0  0  0  0  0  0  0  0  0
   -2.2354   12.9457  -10.9732 C   0  0  0  0  0  0  0  0  0  0  0  0
   -2.1905   14.4637  -10.9533 C   0  0  0  0  0  0  0  0  0  0  0  0
   -3.5123   14.9092  -11.5998 C   0  0  0  0  0  0  0  0  0  0  0  0
   -1.7098   12.4700  -12.1164 F   0  0  0  0  0  0  0  0  0  0  0  0
   -1.5166   12.4356   -9.9564 F   0  0  0  0  0  0  0  0  0  0  0  0
   -6.0766   12.2858   -9.8743 H   0  0  0  0  0  0  0  0  0  0  0  0
   -8.1756   10.1191  -13.8942 H   0  0  0  0  0  0  0  0  0  0  0  0
   -6.8889   12.2463  -14.0896 H   0  0  0  0  0  0  0  0  0  0  0  0
   -6.8807    9.4553  -11.9287 H   0  0  0  0  0  0  0  0  0  0  0  0
   -8.0383    9.6050   -7.2579 H   0  0  0  0  0  0  0  0  0  0  0  0
   -4.8931    8.7825   -8.4921 H   0  0  0  0  0  0  0  0  0  0  0  0
   -2.6611    9.7559   -8.0481 H   0  0  0  0  0  0  0  0  0  0  0  0
   -4.5156   13.2866   -6.4733 H   0  0  0  0  0  0  0  0  0  0  0  0
   -6.7439   12.3101   -6.9107 H   0  0  0  0  0  0  0  0  0  0  0  0
   -2.1699   14.2240   -7.0694 H   0  0  0  0  0  0  0  0  0  0  0  0
   -2.1852   13.5189   -5.4174 H   0  0  0  0  0  0  0  0  0  0  0  0
   -0.6481   10.6174   -7.6264 H   0  0  0  0  0  0  0  0  0  0  0  0
    1.4497   14.3348   -6.0072 H   0  0  0  0  0  0  0  0  0  0  0  0
    0.1689   15.4951   -6.4967 H   0  0  0  0  0  0  0  0  0  0  0  0
    0.1531   14.7829   -4.8477 H   0  0  0  0  0  0  0  0  0  0  0  0
   -4.0230   12.4902   -9.7902 H   0  0  0  0  0  0  0  0  0  0  0  0
   -3.9436   11.6300  -11.3651 H   0  0  0  0  0  0  0  0  0  0  0  0
   -2.1210   14.8350   -9.9202 H   0  0  0  0  0  0  0  0  0  0  0  0
   -1.3323   14.8328  -11.5341 H   0  0  0  0  0  0  0  0  0  0  0  0
   -3.3578   15.1968  -12.6502 H   0  0  0  0  0  0  0  0  0  0  0  0
   -3.9532   15.7535  -11.0495 H   0  0  0  0  0  0  0  0  0  0  0  0
  1  2  2  0  0  0  0
  1  4  1  0  0  0  0
  1 12  1  0  0  0  0
  2  6  1  0  0  0  0
  3  4  2  0  0  0  0
  3  5  1  0  0  0  0
  5  6  1  0  0  0  0
  5  9  1  0  0  0  0
  6  7  2  0  0  0  0
  7  8  1  0  0  0  0
  7 10  1  0  0  0  0
  8  9  2  0  0  0  0
 10 14  2  0  0  0  0
 11 12  1  0  0  0  0
 11 26  1  0  0  0  0
 11 29  1  0  0  0  0
 12 13  2  0  0  0  0
 14 15  1  0  0  0  0
 14 19  1  0  0  0  0
 15 16  2  0  0  0  0
 16 17  1  0  0  0  0
 17 18  1  0  0  0  0
 17 20  2  0  0  0  0
 18 19  2  0  0  0  0
 20 21  1  0  0  0  0
 20 24  1  0  0  0  0
 21 22  1  0  0  0  0
 22 23  1  0  0  0  0
 22 25  1  0  0  0  0
 23 24  2  0  0  0  0
 26 27  1  0  0  0  0
 27 28  1  0  0  0  0
 27 30  1  0  0  0  0
 27 31  1  0  0  0  0
 28 29  1  0  0  0  0
  2 32  1  0  0  0  0
  3 33  1  0  0  0  0
  4 34  1  0  0  0  0
  5 35  1  0  0  0  0
 10 36  1  0  0  0  0
 15 37  1  0  0  0  0
 16 38  1  0  0  0  0
 18 39  1  0  0  0  0
 19 40  1  0  0  0  0
 21 41  1  0  0  0  0
 21 42  1  0  0  0  0
 24 43  1  0  0  0  0
 25 44  1  0  0  0  0
 25 45  1  0  0  0  0
 25 46  1  0  0  0  0
 26 47  1  0  0  0  0
 26 48  1  0  0  0  0
 28 49  1  0  0  0  0
 28 50  1  0  0  0  0
 29 51  1  0  0  0  0
 29 52  1  0  0  0  0
M  END
> <Name>
38

> <IC50[uM]>
0.005

$$$$
38
  -OEChem-05192314333D
 Structure written by MMmdl.
 52 56  0     1  0  0  0  0  0999 V2000
   -6.3676   12.3632  -12.0183 C   0  0  0  0  0  0  0  0  0  0  0  0
   -6.5148   11.8066  -10.7373 C   0  0  0  0  0  0  0  0  0  0  0  0
   -7.7147   10.5754  -13.0306 C   0  0  0  0  0  0  0  0  0  0  0  0
   -6.9819   11.7689  -13.1253 C   0  0  0  0  0  0  0  0  0  0  0  0
   -7.8143   10.0109  -11.7564 C   0  0  0  0  0  0  0  0  0  0  0  0
   -7.2414   10.6177  -10.6023 C   0  0  0  0  0  0  0  0  0  0  0  0
   -7.6126    9.7466   -9.5122 C   0  0  0  0  0  0  0  0  0  0  0  0
   -8.2846    8.7319   -9.9810 N   0  0  0  0  0  0  0  0  0  0  0  0
   -8.4146    8.8618  -11.2972 N   0  0  0  0  0  0  0  0  0  0  0  0
   -7.3363    9.8918   -8.0268 C   0  0  0  0  0  0  0  0  0  0  0  0
   -4.3648   13.7196  -11.5032 N   0  0  0  0  0  0  0  0  0  0  0  0
   -5.5453   13.6325  -12.1937 C   0  0  0  0  0  0  0  0  0  0  0  0
   -5.9402   14.5231  -12.9481 O   0  0  0  0  0  0  0  0  0  0  0  0
   -5.9634   10.4852   -7.7356 C   0  0  0  0  0  0  0  0  0  0  0  0
   -4.8111    9.7655   -8.0524 C   0  0  0  0  0  0  0  0  0  0  0  0
   -3.5521   10.3143   -7.8018 C   0  0  0  0  0  0  0  0  0  0  0  0
   -3.4442   11.5871   -7.2318 C   0  0  0  0  0  0  0  0  0  0  0  0
   -4.5964   12.3037   -6.9134 C   0  0  0  0  0  0  0  0  0  0  0  0
   -5.8531   11.7536   -7.1622 C   0  0  0  0  0  0  0  0  0  0  0  0
   -2.1000   12.1772   -6.9659 C   0  0  0  0  0  0  0  0  0  0  0  0
   -1.7711   13.4213   -6.4318 C   0  0  0  0  0  0  0  0  0  0  0  0
   -0.4319   13.4866   -6.3915 N   0  0  3  0  0  0  0  0  0  0  0  0
    0.1707   12.4146   -6.8487 N   0  0  0  0  0  0  0  0  0  0  0  0
   -0.8042   11.5996   -7.2054 C   0  0  0  0  0  0  0  0  0  0  0  0
    0.3852   14.5927   -5.9060 C   0  0  0  0  0  0  0  0  0  0  0  0
   -3.7189   12.5724  -10.8441 C   0  0  0  0  0  0  0  0  0  0  0  0
   -2.2354   12.9457  -10.9732 C   0  0  0  0  0  0  0  0  0  0  0  0
   -2.1905   14.4637  -10.9533 C   0  0  0  0  0  0  0  0  0  0  0  0
   -3.5123   14.9092  -11.5998 C   0  0  0  0  0  0  0  0  0  0  0  0
   -1.7098   12.4700  -12.1164 F   0  0  0  0  0  0  0  0  0  0  0  0
   -1.5166   12.4356   -9.9564 F   0  0  0  0  0  0  0  0  0  0  0  0
   -6.0766   12.2858   -9.8743 H   0  0  0  0  0  0  0  0  0  0  0  0
   -8.1756   10.1191  -13.8942 H   0  0  0  0  0  0  0  0  0  0  0  0
   -7.6744   12.5212  -13.5309 H   0  0  0  0  0  0  0  0  0  0  0  0
   -6.1801   11.5781  -13.8538 H   0  0  0  0  0  0  0  0  0  0  0  0
   -8.0383    9.6050   -7.2579 H   0  0  0  0  0  0  0  0  0  0  0  0
   -4.8931    8.7825   -8.4921 H   0  0  0  0  0  0  0  0  0  0  0  0
   -2.6611    9.7559   -8.0481 H   0  0  0  0  0  0  0  0  0  0  0  0
   -4.5156   13.2866   -6.4733 H   0  0  0  0  0  0  0  0  0  0  0  0
   -6.7439   12.3101   -6.9107 H   0  0  0  0  0  0  0  0  0  0  0  0
   -2.1699   14.2240   -7.0694 H   0  0  0  0  0  0  0  0  0  0  0  0
   -2.1852   13.5189   -5.4174 H   0  0  0  0  0  0  0  0  0  0  0  0
   -0.6481   10.6174   -7.6264 H   0  0  0  0  0  0  0  0  0  0  0  0
    1.4497   14.3348   -6.0072 H   0  0  0  0  0  0  0  0  0  0  0  0
    0.1689   15.4951   -6.4967 H   0  0  0  0  0  0  0  0  0  0  0  0
    0.1531   14.7829   -4.8477 H   0  0  0  0  0  0  0  0  0  0  0  0
   -4.0230   12.4902   -9.7902 H   0  0  0  0  0  0  0  0  0  0  0  0
   -3.9436   11.6300  -11.3651 H   0  0  0  0  0  0  0  0  0  0  0  0
   -2.1210   14.8350   -9.9202 H   0  0  0  0  0  0  0  0  0  0  0  0
   -1.3323   14.8328  -11.5341 H   0  0  0  0  0  0  0  0  0  0  0  0
   -3.3578   15.1968  -12.6502 H   0  0  0  0  0  0  0  0  0  0  0  0
   -3.9532   15.7535  -11.0495 H   0  0  0  0  0  0  0  0  0  0  0  0
  1  2  2  0  0  0  0
  1  4  1  0  0  0  0
  1 12  1  0  0  0  0
  2  6  1  0  0  0  0
  3  4  1  0  0  0  0
  3  5  2  0  0  0  0
  5  6  1  0  0  0  0
  5  9  1  0  0  0  0
  6  7  2  0  0  0  0
  7  8  1  0  0  0  0
  7 10  1  0  0  0  0
  8  9  2  0  0  0  0
 10 14  2  0  0  0  0
 11 12  1  0  0  0  0
 11 26  1  0  0  0  0
 11 29  1  0  0  0  0
 12 13  2  0  0  0  0
 14 15  1  0  0  0  0
 14 19  1  0  0  0  0
 15 16  2  0  0  0  0
 16 17  1  0  0  0  0
 17 18  1  0  0  0  0
 17 20  2  0  0  0  0
 18 19  2  0  0  0  0
 20 21  1  0  0  0  0
 20 24  1  0  0  0  0
 21 22  1  0  0  0  0
 22 23  1  0  0  0  0
 22 25  1  0  0  0  0
 23 24  2  0  0  0  0
 26 27  1  0  0  0  0
 27 28  1  0  0  0  0
 27 30  1  0  0  0  0
 27 31  1  0  0  0  0
 28 29  1  0  0  0  0
  2 32  1  0  0  0  0
  3 33  1  0  0  0  0
  4 34  1  0  0  0  0
  4 35  1  0  0  0  0
 10 36  1  0  0  0  0
 15 37  1  0  0  0  0
 16 38  1  0  0  0  0
 18 39  1  0  0  0  0
 19 40  1  0  0  0  0
 21 41  1  0  0  0  0
 21 42  1  0  0  0  0
 24 43  1  0  0  0  0
 25 44  1  0  0  0  0
 25 45  1  0  0  0  0
 25 46  1  0  0  0  0
 26 47  1  0  0  0  0
 26 48  1  0  0  0  0
 28 49  1  0  0  0  0
 28 50  1  0  0  0  0
 29 51  1  0  0  0  0
 29 52  1  0  0  0  0
M  END
> <Name>
38

> <IC50[uM]>
0.005

$$$$
38
  -OEChem-05192314333D
 Structure written by MMmdl.
 52 56  0     1  0  0  0  0  0999 V2000
   -6.3676   12.3632  -12.0183 C   0  0  0  0  0  0  0  0  0  0  0  0
   -6.5148   11.8066  -10.7373 C   0  0  0  0  0  0  0  0  0  0  0  0
   -7.7147   10.5754  -13.0306 C   0  0  0  0  0  0  0  0  0  0  0  0
   -6.9819   11.7689  -13.1253 C   0  0  0  0  0  0  0  0  0  0  0  0
   -7.8143   10.0109  -11.7564 C   0  0  0  0  0  0  0  0  0  0  0  0
   -7.2414   10.6177  -10.6023 C   0  0  0  0  0  0  0  0  0  0  0  0
   -7.6126    9.7466   -9.5122 C   0  0  0  0  0  0  0  0  0  0  0  0
   -8.2846    8.7319   -9.9810 N   0  0  0  0  0  0  0  0  0  0  0  0
   -8.4146    8.8618  -11.2972 N   0  0  0  0  0  0  0  0  0  0  0  0
   -7.3363    9.8918   -8.0268 C   0  0  0  0  0  0  0  0  0  0  0  0
   -4.3648   13.7196  -11.5032 N   0  0  0  0  0  0  0  0  0  0  0  0
   -5.5453   13.6325  -12.1937 C   0  0  0  0  0  0  0  0  0  0  0  0
   -5.9402   14.5231  -12.9481 O   0  0  0  0  0  0  0  0  0  0  0  0
   -5.9634   10.4852   -7.7356 C   0  0  0  0  0  0  0  0  0  0  0  0
   -4.8111    9.7655   -8.0524 C   0  0  0  0  0  0  0  0  0  0  0  0
   -3.5521   10.3143   -7.8018 C   0  0  0  0  0  0  0  0  0  0  0  0
   -3.4442   11.5871   -7.2318 C   0  0  0  0  0  0  0  0  0  0  0  0
   -4.5964   12.3037   -6.9134 C   0  0  0  0  0  0  0  0  0  0  0  0
   -5.8531   11.7536   -7.1622 C   0  0  0  0  0  0  0  0  0  0  0  0
   -2.1000   12.1772   -6.9659 C   0  0  0  0  0  0  0  0  0  0  0  0
   -1.7711   13.4213   -6.4318 C   0  0  0  0  0  0  0  0  0  0  0  0
   -0.4319   13.4866   -6.3915 N   0  0  3  0  0  0  0  0  0  0  0  0
    0.1707   12.4146   -6.8487 N   0  0  0  0  0  0  0  0  0  0  0  0
   -0.8042   11.5996   -7.2054 C   0  0  0  0  0  0  0  0  0  0  0  0
    0.3852   14.5927   -5.9060 C   0  0  0  0  0  0  0  0  0  0  0  0
   -3.7189   12.5724  -10.8441 C   0  0  0  0  0  0  0  0  0  0  0  0
   -2.2354   12.9457  -10.9732 C   0  0  0  0  0  0  0  0  0  0  0  0
   -2.1905   14.4637  -10.9533 C   0  0  0  0  0  0  0  0  0  0  0  0
   -3.5123   14.9092  -11.5998 C   0  0  0  0  0  0  0  0  0  0  0  0
   -1.7098   12.4700  -12.1164 F   0  0  0  0  0  0  0  0  0  0  0  0
   -1.5166   12.4356   -9.9564 F   0  0  0  0  0  0  0  0  0  0  0  0
   -5.5036   11.6144  -10.3492 H   0  0  0  0  0  0  0  0  0  0  0  0
   -7.0106   12.5624  -10.1105 H   0  0  0  0  0  0  0  0  0  0  0  0
   -8.1756   10.1191  -13.8942 H   0  0  0  0  0  0  0  0  0  0  0  0
   -6.8889   12.2463  -14.0896 H   0  0  0  0  0  0  0  0  0  0  0  0
   -8.0383    9.6050   -7.2579 H   0  0  0  0  0  0  0  0  0  0  0  0
   -4.8931    8.7825   -8.4921 H   0  0  0  0  0  0  0  0  0  0  0  0
   -2.6611    9.7559   -8.0481 H   0  0  0  0  0  0  0  0  0  0  0  0
   -4.5156   13.2866   -6.4733 H   0  0  0  0  0  0  0  0  0  0  0  0
   -6.7439   12.3101   -6.9107 H   0  0  0  0  0  0  0  0  0  0  0  0
   -2.1699   14.2240   -7.0694 H   0  0  0  0  0  0  0  0  0  0  0  0
   -2.1852   13.5189   -5.4174 H   0  0  0  0  0  0  0  0  0  0  0  0
   -0.6481   10.6174   -7.6264 H   0  0  0  0  0  0  0  0  0  0  0  0
    1.4497   14.3348   -6.0072 H   0  0  0  0  0  0  0  0  0  0  0  0
    0.1689   15.4951   -6.4967 H   0  0  0  0  0  0  0  0  0  0  0  0
    0.1531   14.7829   -4.8477 H   0  0  0  0  0  0  0  0  0  0  0  0
   -4.0230   12.4902   -9.7902 H   0  0  0  0  0  0  0  0  0  0  0  0
   -3.9436   11.6300  -11.3651 H   0  0  0  0  0  0  0  0  0  0  0  0
   -2.1210   14.8350   -9.9202 H   0  0  0  0  0  0  0  0  0  0  0  0
   -1.3323   14.8328  -11.5341 H   0  0  0  0  0  0  0  0  0  0  0  0
   -3.3578   15.1968  -12.6502 H   0  0  0  0  0  0  0  0  0  0  0  0
   -3.9532   15.7535  -11.0495 H   0  0  0  0  0  0  0  0  0  0  0  0
  1  2  1  0  0  0  0
  1  4  2  0  0  0  0
  1 12  1  0  0  0  0
  2  6  1  0  0  0  0
  3  4  1  0  0  0  0
  3  5  2  0  0  0  0
  5  6  1  0  0  0  0
  5  9  1  0  0  0  0
  6  7  2  0  0  0  0
  7  8  1  0  0  0  0
  7 10  1  0  0  0  0
  8  9  2  0  0  0  0
 10 14  2  0  0  0  0
 11 12  1  0  0  0  0
 11 26  1  0  0  0  0
 11 29  1  0  0  0  0
 12 13  2  0  0  0  0
 14 15  1  0  0  0  0
 14 19  1  0  0  0  0
 15 16  2  0  0  0  0
 16 17  1  0  0  0  0
 17 18  1  0  0  0  0
 17 20  2  0  0  0  0
 18 19  2  0  0  0  0
 20 21  1  0  0  0  0
 20 24  1  0  0  0  0
 21 22  1  0  0  0  0
 22 23  1  0  0  0  0
 22 25  1  0  0  0  0
 23 24  2  0  0  0  0
 26 27  1  0  0  0  0
 27 28  1  0  0  0  0
 27 30  1  0  0  0  0
 27 31  1  0  0  0  0
 28 29  1  0  0  0  0
  2 32  1  0  0  0  0
  2 33  1  0  0  0  0
  3 34  1  0  0  0  0
  4 35  1  0  0  0  0
 10 36  1  0  0  0  0
 15 37  1  0  0  0  0
 16 38  1  0  0  0  0
 18 39  1  0  0  0  0
 19 40  1  0  0  0  0
 21 41  1  0  0  0  0
 21 42  1  0  0  0  0
 24 43  1  0  0  0  0
 25 44  1  0  0  0  0
 25 45  1  0  0  0  0
 25 46  1  0  0  0  0
 26 47  1  0  0  0  0
 26 48  1  0  0  0  0
 28 49  1  0  0  0  0
 28 50  1  0  0  0  0
 29 51  1  0  0  0  0
 29 52  1  0  0  0  0
M  END
> <Name>
38

> <IC50[uM]>
0.005

$$$$
38
  -OEChem-05192314333D
 Structure written by MMmdl.
 52 56  0     1  0  0  0  0  0999 V2000
   -6.3676   12.3632  -12.0183 C   0  0  3  0  0  0  0  0  0  0  0  0
   -6.5148   11.8066  -10.7373 C   0  0  0  0  0  0  0  0  0  0  0  0
   -7.7147   10.5754  -13.0306 C   0  0  0  0  0  0  0  0  0  0  0  0
   -6.9819   11.7689  -13.1253 C   0  0  0  0  0  0  0  0  0  0  0  0
   -7.8143   10.0109  -11.7564 C   0  0  0  0  0  0  0  0  0  0  0  0
   -7.2414   10.6177  -10.6023 C   0  0  0  0  0  0  0  0  0  0  0  0
   -7.6126    9.7466   -9.5122 C   0  0  0  0  0  0  0  0  0  0  0  0
   -8.2846    8.7319   -9.9810 N   0  0  0  0  0  0  0  0  0  0  0  0
   -8.4146    8.8618  -11.2972 N   0  0  0  0  0  0  0  0  0  0  0  0
   -7.3363    9.8918   -8.0268 C   0  0  0  0  0  0  0  0  0  0  0  0
   -4.3648   13.7196  -11.5032 N   0  0  0  0  0  0  0  0  0  0  0  0
   -5.5453   13.6325  -12.1937 C   0  0  0  0  0  0  0  0  0  0  0  0
   -5.9402   14.5231  -12.9481 O   0  0  0  0  0  0  0  0  0  0  0  0
   -5.9634   10.4852   -7.7356 C   0  0  0  0  0  0  0  0  0  0  0  0
   -4.8111    9.7655   -8.0524 C   0  0  0  0  0  0  0  0  0  0  0  0
   -3.5521   10.3143   -7.8018 C   0  0  0  0  0  0  0  0  0  0  0  0
   -3.4442   11.5871   -7.2318 C   0  0  0  0  0  0  0  0  0  0  0  0
   -4.5964   12.3037   -6.9134 C   0  0  0  0  0  0  0  0  0  0  0  0
   -5.8531   11.7536   -7.1622 C   0  0  0  0  0  0  0  0  0  0  0  0
   -2.1000   12.1772   -6.9659 C   0  0  0  0  0  0  0  0  0  0  0  0
   -1.7711   13.4213   -6.4318 C   0  0  0  0  0  0  0  0  0  0  0  0
   -0.4319   13.4866   -6.3915 N   0  0  0  0  0  0  0  0  0  0  0  0
    0.1707   12.4146   -6.8487 N   0  0  0  0  0  0  0  0  0  0  0  0
   -0.8042   11.5996   -7.2054 C   0  0  0  0  0  0  0  0  0  0  0  0
    0.3852   14.5927   -5.9060 C   0  0  0  0  0  0  0  0  0  0  0  0
   -3.7189   12.5724  -10.8441 C   0  0  0  0  0  0  0  0  0  0  0  0
   -2.2354   12.9457  -10.9732 C   0  0  0  0  0  0  0  0  0  0  0  0
   -2.1905   14.4637  -10.9533 C   0  0  0  0  0  0  0  0  0  0  0  0
   -3.5123   14.9092  -11.5998 C   0  0  0  0  0  0  0  0  0  0  0  0
   -1.7098   12.4700  -12.1164 F   0  0  0  0  0  0  0  0  0  0  0  0
   -1.5166   12.4356   -9.9564 F   0  0  0  0  0  0  0  0  0  0  0  0
   -5.4678   11.7527  -12.1847 H   0  0  0  0  0  0  0  0  0  0  0  0
   -6.0766   12.2858   -9.8743 H   0  0  0  0  0  0  0  0  0  0  0  0
   -8.1756   10.1191  -13.8942 H   0  0  0  0  0  0  0  0  0  0  0  0
   -6.8889   12.2463  -14.0896 H   0  0  0  0  0  0  0  0  0  0  0  0
   -8.0383    9.6050   -7.2579 H   0  0  0  0  0  0  0  0  0  0  0  0
   -4.8931    8.7825   -8.4921 H   0  0  0  0  0  0  0  0  0  0  0  0
   -2.6611    9.7559   -8.0481 H   0  0  0  0  0  0  0  0  0  0  0  0
   -3.4458   11.1378   -6.2277 H   0  0  0  0  0  0  0  0  0  0  0  0
   -4.5156   13.2866   -6.4733 H   0  0  0  0  0  0  0  0  0  0  0  0
   -6.7439   12.3101   -6.9107 H   0  0  0  0  0  0  0  0  0  0  0  0
   -2.4623   14.1868   -6.1115 H   0  0  0  0  0  0  0  0  0  0  0  0
   -0.6481   10.6174   -7.6264 H   0  0  0  0  0  0  0  0  0  0  0  0
    1.4497   14.3348   -6.0072 H   0  0  0  0  0  0  0  0  0  0  0  0
    0.1689   15.4951   -6.4967 H   0  0  0  0  0  0  0  0  0  0  0  0
    0.1531   14.7829   -4.8477 H   0  0  0  0  0  0  0  0  0  0  0  0
   -4.0230   12.4902   -9.7902 H   0  0  0  0  0  0  0  0  0  0  0  0
   -3.9436   11.6300  -11.3651 H   0  0  0  0  0  0  0  0  0  0  0  0
   -2.1210   14.8350   -9.9202 H   0  0  0  0  0  0  0  0  0  0  0  0
   -1.3323   14.8328  -11.5341 H   0  0  0  0  0  0  0  0  0  0  0  0
   -3.3578   15.1968  -12.6502 H   0  0  0  0  0  0  0  0  0  0  0  0
   -3.9532   15.7535  -11.0495 H   0  0  0  0  0  0  0  0  0  0  0  0
  1  2  1  0  0  0  0
  1  4  1  0  0  0  0
  1 12  1  0  0  0  0
  2  6  2  0  0  0  0
  3  4  2  0  0  0  0
  3  5  1  0  0  0  0
  5  6  1  0  0  0  0
  5  9  2  0  0  0  0
  6  7  1  0  0  0  0
  7  8  2  0  0  0  0
  7 10  1  0  0  0  0
  8  9  1  0  0  0  0
 10 14  2  0  0  0  0
 11 12  1  0  0  0  0
 11 26  1  0  0  0  0
 11 29  1  0  0  0  0
 12 13  2  0  0  0  0
 14 15  1  0  0  0  0
 14 19  1  0  0  0  0
 15 16  2  0  0  0  0
 16 17  1  0  0  0  0
 17 18  1  0  0  0  0
 17 20  1  0  0  0  0
 18 19  2  0  0  0  0
 20 21  2  0  0  0  0
 20 24  1  0  0  0  0
 21 22  1  0  0  0  0
 22 23  1  0  0  0  0
 22 25  1  0  0  0  0
 23 24  2  0  0  0  0
 26 27  1  0  0  0  0
 27 28  1  0  0  0  0
 27 30  1  0  0  0  0
 27 31  1  0  0  0  0
 28 29  1  0  0  0  0
  1 32  1  0  0  0  0
  2 33  1  0  0  0  0
  3 34  1  0  0  0  0
  4 35  1  0  0  0  0
 10 36  1  0  0  0  0
 15 37  1  0  0  0  0
 16 38  1  0  0  0  0
 17 39  1  0  0  0  0
 18 40  1  0  0  0  0
 19 41  1  0  0  0  0
 21 42  1  0  0  0  0
 24 43  1  0  0  0  0
 25 44  1  0  0  0  0
 25 45  1  0  0  0  0
 25 46  1  0  0  0  0
 26 47  1  0  0  0  0
 26 48  1  0  0  0  0
 28 49  1  0  0  0  0
 28 50  1  0  0  0  0
 29 51  1  0  0  0  0
 29 52  1  0  0  0  0
M  END
> <Name>
38

> <IC50[uM]>
0.005

$$$$
38
  -OEChem-05192314333D
 Structure written by MMmdl.
 52 56  0     1  0  0  0  0  0999 V2000
   -6.3676   12.3632  -12.0183 C   0  0  0  0  0  0  0  0  0  0  0  0
   -6.5148   11.8066  -10.7373 C   0  0  0  0  0  0  0  0  0  0  0  0
   -7.7147   10.5754  -13.0306 C   0  0  0  0  0  0  0  0  0  0  0  0
   -6.9819   11.7689  -13.1253 C   0  0  0  0  0  0  0  0  0  0  0  0
   -7.8143   10.0109  -11.7564 C   0  0  0  0  0  0  0  0  0  0  0  0
   -7.2414   10.6177  -10.6023 C   0  0  3  0  0  0  0  0  0  0  0  0
   -7.6126    9.7466   -9.5122 C   0  0  0  0  0  0  0  0  0  0  0  0
   -8.2846    8.7319   -9.9810 N   0  0  0  0  0  0  0  0  0  0  0  0
   -8.4146    8.8618  -11.2972 N   0  0  0  0  0  0  0  0  0  0  0  0
   -7.3363    9.8918   -8.0268 C   0  0  0  0  0  0  0  0  0  0  0  0
   -4.3648   13.7196  -11.5032 N   0  0  0  0  0  0  0  0  0  0  0  0
   -5.5453   13.6325  -12.1937 C   0  0  0  0  0  0  0  0  0  0  0  0
   -5.9402   14.5231  -12.9481 O   0  0  0  0  0  0  0  0  0  0  0  0
   -5.9634   10.4852   -7.7356 C   0  0  0  0  0  0  0  0  0  0  0  0
   -4.8111    9.7655   -8.0524 C   0  0  0  0  0  0  0  0  0  0  0  0
   -3.5521   10.3143   -7.8018 C   0  0  0  0  0  0  0  0  0  0  0  0
   -3.4442   11.5871   -7.2318 C   0  0  0  0  0  0  0  0  0  0  0  0
   -4.5964   12.3037   -6.9134 C   0  0  0  0  0  0  0  0  0  0  0  0
   -5.8531   11.7536   -7.1622 C   0  0  0  0  0  0  0  0  0  0  0  0
   -2.1000   12.1772   -6.9659 C   0  0  0  0  0  0  0  0  0  0  0  0
   -1.7711   13.4213   -6.4318 C   0  0  0  0  0  0  0  0  0  0  0  0
   -0.4319   13.4866   -6.3915 N   0  0  0  0  0  0  0  0  0  0  0  0
    0.1707   12.4146   -6.8487 N   0  0  0  0  0  0  0  0  0  0  0  0
   -0.8042   11.5996   -7.2054 C   0  0  0  0  0  0  0  0  0  0  0  0
    0.3852   14.5927   -5.9060 C   0  0  0  0  0  0  0  0  0  0  0  0
   -3.7189   12.5724  -10.8441 C   0  0  0  0  0  0  0  0  0  0  0  0
   -2.2354   12.9457  -10.9732 C   0  0  0  0  0  0  0  0  0  0  0  0
   -2.1905   14.4637  -10.9533 C   0  0  0  0  0  0  0  0  0  0  0  0
   -3.5123   14.9092  -11.5998 C   0  0  0  0  0  0  0  0  0  0  0  0
   -1.7098   12.4700  -12.1164 F   0  0  0  0  0  0  0  0  0  0  0  0
   -1.5166   12.4356   -9.9564 F   0  0  0  0  0  0  0  0  0  0  0  0
   -6.0766   12.2858   -9.8743 H   0  0  0  0  0  0  0  0  0  0  0  0
   -8.1756   10.1191  -13.8942 H   0  0  0  0  0  0  0  0  0  0  0  0
   -6.8889   12.2463  -14.0896 H   0  0  0  0  0  0  0  0  0  0  0  0
   -6.3198   10.0366  -10.7536 H   0  0  0  0  0  0  0  0  0  0  0  0
   -8.0383    9.6050   -7.2579 H   0  0  0  0  0  0  0  0  0  0  0  0
   -4.8931    8.7825   -8.4921 H   0  0  0  0  0  0  0  0  0  0  0  0
   -2.6611    9.7559   -8.0481 H   0  0  0  0  0  0  0  0  0  0  0  0
   -3.4458   11.1378   -6.2277 H   0  0  0  0  0  0  0  0  0  0  0  0
   -4.5156   13.2866   -6.4733 H   0  0  0  0  0  0  0  0  0  0  0  0
   -6.7439   12.3101   -6.9107 H   0  0  0  0  0  0  0  0  0  0  0  0
   -2.4623   14.1868   -6.1115 H   0  0  0  0  0  0  0  0  0  0  0  0
   -0.6481   10.6174   -7.6264 H   0  0  0  0  0  0  0  0  0  0  0  0
    1.4497   14.3348   -6.0072 H   0  0  0  0  0  0  0  0  0  0  0  0
    0.1689   15.4951   -6.4967 H   0  0  0  0  0  0  0  0  0  0  0  0
    0.1531   14.7829   -4.8477 H   0  0  0  0  0  0  0  0  0  0  0  0
   -4.0230   12.4902   -9.7902 H   0  0  0  0  0  0  0  0  0  0  0  0
   -3.9436   11.6300  -11.3651 H   0  0  0  0  0  0  0  0  0  0  0  0
   -2.1210   14.8350   -9.9202 H   0  0  0  0  0  0  0  0  0  0  0  0
   -1.3323   14.8328  -11.5341 H   0  0  0  0  0  0  0  0  0  0  0  0
   -3.3578   15.1968  -12.6502 H   0  0  0  0  0  0  0  0  0  0  0  0
   -3.9532   15.7535  -11.0495 H   0  0  0  0  0  0  0  0  0  0  0  0
  1  2  2  0  0  0  0
  1  4  1  0  0  0  0
  1 12  1  0  0  0  0
  2  6  1  0  0  0  0
  3  4  2  0  0  0  0
  3  5  1  0  0  0  0
  5  6  1  0  0  0  0
  5  9  2  0  0  0  0
  6  7  1  0  0  0  0
  7  8  2  0  0  0  0
  7 10  1  0  0  0  0
  8  9  1  0  0  0  0
 10 14  2  0  0  0  0
 11 12  1  0  0  0  0
 11 26  1  0  0  0  0
 11 29  1  0  0  0  0
 12 13  2  0  0  0  0
 14 15  1  0  0  0  0
 14 19  1  0  0  0  0
 15 16  2  0  0  0  0
 16 17  1  0  0  0  0
 17 18  1  0  0  0  0
 17 20  1  0  0  0  0
 18 19  2  0  0  0  0
 20 21  2  0  0  0  0
 20 24  1  0  0  0  0
 21 22  1  0  0  0  0
 22 23  1  0  0  0  0
 22 25  1  0  0  0  0
 23 24  2  0  0  0  0
 26 27  1  0  0  0  0
 27 28  1  0  0  0  0
 27 30  1  0  0  0  0
 27 31  1  0  0  0  0
 28 29  1  0  0  0  0
  2 32  1  0  0  0  0
  3 33  1  0  0  0  0
  4 34  1  0  0  0  0
  6 35  1  0  0  0  0
 10 36  1  0  0  0  0
 15 37  1  0  0  0  0
 16 38  1  0  0  0  0
 17 39  1  0  0  0  0
 18 40  1  0  0  0  0
 19 41  1  0  0  0  0
 21 42  1  0  0  0  0
 24 43  1  0  0  0  0
 25 44  1  0  0  0  0
 25 45  1  0  0  0  0
 25 46  1  0  0  0  0
 26 47  1  0  0  0  0
 26 48  1  0  0  0  0
 28 49  1  0  0  0  0
 28 50  1  0  0  0  0
 29 51  1  0  0  0  0
 29 52  1  0  0  0  0
M  END
> <Name>
38

> <IC50[uM]>
0.005

$$$$
38
  -OEChem-05192314333D
 Structure written by MMmdl.
 52 56  0     0  0  0  0  0  0999 V2000
   -6.3676   12.3632  -12.0183 C   0  0  0  0  0  0  0  0  0  0  0  0
   -6.5148   11.8066  -10.7373 C   0  0  0  0  0  0  0  0  0  0  0  0
   -7.7147   10.5754  -13.0306 C   0  0  0  0  0  0  0  0  0  0  0  0
   -6.9819   11.7689  -13.1253 C   0  0  0  0  0  0  0  0  0  0  0  0
   -7.8143   10.0109  -11.7564 C   0  0  0  0  0  0  0  0  0  0  0  0
   -7.2414   10.6177  -10.6023 C   0  0  0  0  0  0  0  0  0  0  0  0
   -7.6126    9.7466   -9.5122 C   0  0  0  0  0  0  0  0  0  0  0  0
   -8.2846    8.7319   -9.9810 N   0  0  0  0  0  0  0  0  0  0  0  0
   -8.4146    8.8618  -11.2972 N   0  0  0  0  0  0  0  0  0  0  0  0
   -7.3363    9.8918   -8.0268 C   0  0  0  0  0  0  0  0  0  0  0  0
   -4.3648   13.7196  -11.5032 N   0  0  0  0  0  0  0  0  0  0  0  0
   -5.5453   13.6325  -12.1937 C   0  0  0  0  0  0  0  0  0  0  0  0
   -5.9402   14.5231  -12.9481 O   0  0  0  0  0  0  0  0  0  0  0  0
   -5.9634   10.4852   -7.7356 C   0  0  0  0  0  0  0  0  0  0  0  0
   -4.8111    9.7655   -8.0524 C   0  0  0  0  0  0  0  0  0  0  0  0
   -3.5521   10.3143   -7.8018 C   0  0  0  0  0  0  0  0  0  0  0  0
   -3.4442   11.5871   -7.2318 C   0  0  0  0  0  0  0  0  0  0  0  0
   -4.5964   12.3037   -6.9134 C   0  0  0  0  0  0  0  0  0  0  0  0
   -5.8531   11.7536   -7.1622 C   0  0  0  0  0  0  0  0  0  0  0  0
   -2.1000   12.1772   -6.9659 C   0  0  0  0  0  0  0  0  0  0  0  0
   -1.7711   13.4213   -6.4318 C   0  0  0  0  0  0  0  0  0  0  0  0
   -0.4319   13.4866   -6.3915 N   0  0  0  0  0  0  0  0  0  0  0  0
    0.1707   12.4146   -6.8487 N   0  0  0  0  0  0  0  0  0  0  0  0
   -0.8042   11.5996   -7.2054 C   0  0  0  0  0  0  0  0  0  0  0  0
    0.3852   14.5927   -5.9060 C   0  0  0  0  0  0  0  0  0  0  0  0
   -3.7189   12.5724  -10.8441 C   0  0  0  0  0  0  0  0  0  0  0  0
   -2.2354   12.9457  -10.9732 C   0  0  0  0  0  0  0  0  0  0  0  0
   -2.1905   14.4637  -10.9533 C   0  0  0  0  0  0  0  0  0  0  0  0
   -3.5123   14.9092  -11.5998 C   0  0  0  0  0  0  0  0  0  0  0  0
   -1.7098   12.4700  -12.1164 F   0  0  0  0  0  0  0  0  0  0  0  0
   -1.5166   12.4356   -9.9564 F   0  0  0  0  0  0  0  0  0  0  0  0
   -6.0766   12.2858   -9.8743 H   0  0  0  0  0  0  0  0  0  0  0  0
   -8.7349   10.7790  -13.3879 H   0  0  0  0  0  0  0  0  0  0  0  0
   -7.2366    9.8351  -13.6889 H   0  0  0  0  0  0  0  0  0  0  0  0
   -6.8889   12.2463  -14.0896 H   0  0  0  0  0  0  0  0  0  0  0  0
   -8.0383    9.6050   -7.2579 H   0  0  0  0  0  0  0  0  0  0  0  0
   -4.8931    8.7825   -8.4921 H   0  0  0  0  0  0  0  0  0  0  0  0
   -2.6611    9.7559   -8.0481 H   0  0  0  0  0  0  0  0  0  0  0  0
   -3.4458   11.1378   -6.2277 H   0  0  0  0  0  0  0  0  0  0  0  0
   -4.5156   13.2866   -6.4733 H   0  0  0  0  0  0  0  0  0  0  0  0
   -6.7439   12.3101   -6.9107 H   0  0  0  0  0  0  0  0  0  0  0  0
   -2.4623   14.1868   -6.1115 H   0  0  0  0  0  0  0  0  0  0  0  0
   -0.6481   10.6174   -7.6264 H   0  0  0  0  0  0  0  0  0  0  0  0
    1.4497   14.3348   -6.0072 H   0  0  0  0  0  0  0  0  0  0  0  0
    0.1689   15.4951   -6.4967 H   0  0  0  0  0  0  0  0  0  0  0  0
    0.1531   14.7829   -4.8477 H   0  0  0  0  0  0  0  0  0  0  0  0
   -4.0230   12.4902   -9.7902 H   0  0  0  0  0  0  0  0  0  0  0  0
   -3.9436   11.6300  -11.3651 H   0  0  0  0  0  0  0  0  0  0  0  0
   -2.1210   14.8350   -9.9202 H   0  0  0  0  0  0  0  0  0  0  0  0
   -1.3323   14.8328  -11.5341 H   0  0  0  0  0  0  0  0  0  0  0  0
   -3.3578   15.1968  -12.6502 H   0  0  0  0  0  0  0  0  0  0  0  0
   -3.9532   15.7535  -11.0495 H   0  0  0  0  0  0  0  0  0  0  0  0
  1  2  1  0  0  0  0
  1  4  2  0  0  0  0
  1 12  1  0  0  0  0
  2  6  2  0  0  0  0
  3  4  1  0  0  0  0
  3  5  1  0  0  0  0
  5  6  1  0  0  0  0
  5  9  2  0  0  0  0
  6  7  1  0  0  0  0
  7  8  2  0  0  0  0
  7 10  1  0  0  0  0
  8  9  1  0  0  0  0
 10 14  2  0  0  0  0
 11 12  1  0  0  0  0
 11 26  1  0  0  0  0
 11 29  1  0  0  0  0
 12 13  2  0  0  0  0
 14 15  1  0  0  0  0
 14 19  1  0  0  0  0
 15 16  2  0  0  0  0
 16 17  1  0  0  0  0
 17 18  1  0  0  0  0
 17 20  1  0  0  0  0
 18 19  2  0  0  0  0
 20 21  2  0  0  0  0
 20 24  1  0  0  0  0
 21 22  1  0  0  0  0
 22 23  1  0  0  0  0
 22 25  1  0  0  0  0
 23 24  2  0  0  0  0
 26 27  1  0  0  0  0
 27 28  1  0  0  0  0
 27 30  1  0  0  0  0
 27 31  1  0  0  0  0
 28 29  1  0  0  0  0
  2 32  1  0  0  0  0
  3 33  1  0  0  0  0
  3 34  1  0  0  0  0
  4 35  1  0  0  0  0
 10 36  1  0  0  0  0
 15 37  1  0  0  0  0
 16 38  1  0  0  0  0
 17 39  1  0  0  0  0
 18 40  1  0  0  0  0
 19 41  1  0  0  0  0
 21 42  1  0  0  0  0
 24 43  1  0  0  0  0
 25 44  1  0  0  0  0
 25 45  1  0  0  0  0
 25 46  1  0  0  0  0
 26 47  1  0  0  0  0
 26 48  1  0  0  0  0
 28 49  1  0  0  0  0
 28 50  1  0  0  0  0
 29 51  1  0  0  0  0
 29 52  1  0  0  0  0
M  END
> <Name>
38

> <IC50[uM]>
0.005

$$$$
38
  -OEChem-05192314333D
 Structure written by MMmdl.
 52 56  0     1  0  0  0  0  0999 V2000
   -6.3676   12.3632  -12.0183 C   0  0  3  0  0  0  0  0  0  0  0  0
   -6.5148   11.8066  -10.7373 C   0  0  0  0  0  0  0  0  0  0  0  0
   -7.7147   10.5754  -13.0306 C   0  0  0  0  0  0  0  0  0  0  0  0
   -6.9819   11.7689  -13.1253 C   0  0  0  0  0  0  0  0  0  0  0  0
   -7.8143   10.0109  -11.7564 C   0  0  0  0  0  0  0  0  0  0  0  0
   -7.2414   10.6177  -10.6023 C   0  0  0  0  0  0  0  0  0  0  0  0
   -7.6126    9.7466   -9.5122 C   0  0  0  0  0  0  0  0  0  0  0  0
   -8.2846    8.7319   -9.9810 N   0  0  0  0  0  0  0  0  0  0  0  0
   -8.4146    8.8618  -11.2972 N   0  0  0  0  0  0  0  0  0  0  0  0
   -7.3363    9.8918   -8.0268 C   0  0  0  0  0  0  0  0  0  0  0  0
   -4.3648   13.7196  -11.5032 N   0  0  0  0  0  0  0  0  0  0  0  0
   -5.5453   13.6325  -12.1937 C   0  0  0  0  0  0  0  0  0  0  0  0
   -5.9402   14.5231  -12.9481 O   0  0  0  0  0  0  0  0  0  0  0  0
   -5.9634   10.4852   -7.7356 C   0  0  0  0  0  0  0  0  0  0  0  0
   -4.8111    9.7655   -8.0524 C   0  0  0  0  0  0  0  0  0  0  0  0
   -3.5521   10.3143   -7.8018 C   0  0  0  0  0  0  0  0  0  0  0  0
   -3.4442   11.5871   -7.2318 C   0  0  0  0  0  0  0  0  0  0  0  0
   -4.5964   12.3037   -6.9134 C   0  0  0  0  0  0  0  0  0  0  0  0
   -5.8531   11.7536   -7.1622 C   0  0  0  0  0  0  0  0  0  0  0  0
   -2.1000   12.1772   -6.9659 C   0  0  0  0  0  0  0  0  0  0  0  0
   -1.7711   13.4213   -6.4318 C   0  0  0  0  0  0  0  0  0  0  0  0
   -0.4319   13.4866   -6.3915 N   0  0  0  0  0  0  0  0  0  0  0  0
    0.1707   12.4146   -6.8487 N   0  0  0  0  0  0  0  0  0  0  0  0
   -0.8042   11.5996   -7.2054 C   0  0  0  0  0  0  0  0  0  0  0  0
    0.3852   14.5927   -5.9060 C   0  0  0  0  0  0  0  0  0  0  0  0
   -3.7189   12.5724  -10.8441 C   0  0  0  0  0  0  0  0  0  0  0  0
   -2.2354   12.9457  -10.9732 C   0  0  0  0  0  0  0  0  0  0  0  0
   -2.1905   14.4637  -10.9533 C   0  0  0  0  0  0  0  0  0  0  0  0
   -3.5123   14.9092  -11.5998 C   0  0  0  0  0  0  0  0  0  0  0  0
   -1.7098   12.4700  -12.1164 F   0  0  0  0  0  0  0  0  0  0  0  0
   -1.5166   12.4356   -9.9564 F   0  0  0  0  0  0  0  0  0  0  0  0
   -5.4678   11.7527  -12.1847 H   0  0  0  0  0  0  0  0  0  0  0  0
   -6.0766   12.2858   -9.8743 H   0  0  0  0  0  0  0  0  0  0  0  0
   -8.1756   10.1191  -13.8942 H   0  0  0  0  0  0  0  0  0  0  0  0
   -6.8889   12.2463  -14.0896 H   0  0  0  0  0  0  0  0  0  0  0  0
   -8.0383    9.6050   -7.2579 H   0  0  0  0  0  0  0  0  0  0  0  0
   -4.8931    8.7825   -8.4921 H   0  0  0  0  0  0  0  0  0  0  0  0
   -2.6611    9.7559   -8.0481 H   0  0  0  0  0  0  0  0  0  0  0  0
   -4.5156   13.2866   -6.4733 H   0  0  0  0  0  0  0  0  0  0  0  0
   -6.3768   12.4508   -7.8327 H   0  0  0  0  0  0  0  0  0  0  0  0
   -6.3770   11.7109   -6.1959 H   0  0  0  0  0  0  0  0  0  0  0  0
   -2.4623   14.1868   -6.1115 H   0  0  0  0  0  0  0  0  0  0  0  0
   -0.6481   10.6174   -7.6264 H   0  0  0  0  0  0  0  0  0  0  0  0
    1.4497   14.3348   -6.0072 H   0  0  0  0  0  0  0  0  0  0  0  0
    0.1689   15.4951   -6.4967 H   0  0  0  0  0  0  0  0  0  0  0  0
    0.1531   14.7829   -4.8477 H   0  0  0  0  0  0  0  0  0  0  0  0
   -4.0230   12.4902   -9.7902 H   0  0  0  0  0  0  0  0  0  0  0  0
   -3.9436   11.6300  -11.3651 H   0  0  0  0  0  0  0  0  0  0  0  0
   -2.1210   14.8350   -9.9202 H   0  0  0  0  0  0  0  0  0  0  0  0
   -1.3323   14.8328  -11.5341 H   0  0  0  0  0  0  0  0  0  0  0  0
   -3.3578   15.1968  -12.6502 H   0  0  0  0  0  0  0  0  0  0  0  0
   -3.9532   15.7535  -11.0495 H   0  0  0  0  0  0  0  0  0  0  0  0
  1  2  1  0  0  0  0
  1  4  1  0  0  0  0
  1 12  1  0  0  0  0
  2  6  2  0  0  0  0
  3  4  2  0  0  0  0
  3  5  1  0  0  0  0
  5  6  1  0  0  0  0
  5  9  2  0  0  0  0
  6  7  1  0  0  0  0
  7  8  2  0  0  0  0
  7 10  1  0  0  0  0
  8  9  1  0  0  0  0
 10 14  2  3  0  0  0
 11 12  1  0  0  0  0
 11 26  1  0  0  0  0
 11 29  1  0  0  0  0
 12 13  2  0  0  0  0
 14 15  1  0  0  0  0
 14 19  1  0  0  0  0
 15 16  2  0  0  0  0
 16 17  1  0  0  0  0
 17 18  2  0  0  0  0
 17 20  1  0  0  0  0
 18 19  1  0  0  0  0
 20 21  2  0  0  0  0
 20 24  1  0  0  0  0
 21 22  1  0  0  0  0
 22 23  1  0  0  0  0
 22 25  1  0  0  0  0
 23 24  2  0  0  0  0
 26 27  1  0  0  0  0
 27 28  1  0  0  0  0
 27 30  1  0  0  0  0
 27 31  1  0  0  0  0
 28 29  1  0  0  0  0
  1 32  1  0  0  0  0
  2 33  1  0  0  0  0
  3 34  1  0  0  0  0
  4 35  1  0  0  0  0
 10 36  1  0  0  0  0
 15 37  1  0  0  0  0
 16 38  1  0  0  0  0
 18 39  1  0  0  0  0
 19 40  1  0  0  0  0
 19 41  1  0  0  0  0
 21 42  1  0  0  0  0
 24 43  1  0  0  0  0
 25 44  1  0  0  0  0
 25 45  1  0  0  0  0
 25 46  1  0  0  0  0
 26 47  1  0  0  0  0
 26 48  1  0  0  0  0
 28 49  1  0  0  0  0
 28 50  1  0  0  0  0
 29 51  1  0  0  0  0
 29 52  1  0  0  0  0
M  END
> <Name>
38

> <IC50[uM]>
0.005

$$$$
38
  -OEChem-05192314333D
 Structure written by MMmdl.
 52 56  0     1  0  0  0  0  0999 V2000
   -6.3676   12.3632  -12.0183 C   0  0  0  0  0  0  0  0  0  0  0  0
   -6.5148   11.8066  -10.7373 C   0  0  0  0  0  0  0  0  0  0  0  0
   -7.7147   10.5754  -13.0306 C   0  0  0  0  0  0  0  0  0  0  0  0
   -6.9819   11.7689  -13.1253 C   0  0  0  0  0  0  0  0  0  0  0  0
   -7.8143   10.0109  -11.7564 C   0  0  0  0  0  0  0  0  0  0  0  0
   -7.2414   10.6177  -10.6023 C   0  0  3  0  0  0  0  0  0  0  0  0
   -7.6126    9.7466   -9.5122 C   0  0  0  0  0  0  0  0  0  0  0  0
   -8.2846    8.7319   -9.9810 N   0  0  0  0  0  0  0  0  0  0  0  0
   -8.4146    8.8618  -11.2972 N   0  0  0  0  0  0  0  0  0  0  0  0
   -7.3363    9.8918   -8.0268 C   0  0  0  0  0  0  0  0  0  0  0  0
   -4.3648   13.7196  -11.5032 N   0  0  0  0  0  0  0  0  0  0  0  0
   -5.5453   13.6325  -12.1937 C   0  0  0  0  0  0  0  0  0  0  0  0
   -5.9402   14.5231  -12.9481 O   0  0  0  0  0  0  0  0  0  0  0  0
   -5.9634   10.4852   -7.7356 C   0  0  0  0  0  0  0  0  0  0  0  0
   -4.8111    9.7655   -8.0524 C   0  0  0  0  0  0  0  0  0  0  0  0
   -3.5521   10.3143   -7.8018 C   0  0  0  0  0  0  0  0  0  0  0  0
   -3.4442   11.5871   -7.2318 C   0  0  0  0  0  0  0  0  0  0  0  0
   -4.5964   12.3037   -6.9134 C   0  0  0  0  0  0  0  0  0  0  0  0
   -5.8531   11.7536   -7.1622 C   0  0  0  0  0  0  0  0  0  0  0  0
   -2.1000   12.1772   -6.9659 C   0  0  0  0  0  0  0  0  0  0  0  0
   -1.7711   13.4213   -6.4318 C   0  0  0  0  0  0  0  0  0  0  0  0
   -0.4319   13.4866   -6.3915 N   0  0  0  0  0  0  0  0  0  0  0  0
    0.1707   12.4146   -6.8487 N   0  0  0  0  0  0  0  0  0  0  0  0
   -0.8042   11.5996   -7.2054 C   0  0  0  0  0  0  0  0  0  0  0  0
    0.3852   14.5927   -5.9060 C   0  0  0  0  0  0  0  0  0  0  0  0
   -3.7189   12.5724  -10.8441 C   0  0  0  0  0  0  0  0  0  0  0  0
   -2.2354   12.9457  -10.9732 C   0  0  0  0  0  0  0  0  0  0  0  0
   -2.1905   14.4637  -10.9533 C   0  0  0  0  0  0  0  0  0  0  0  0
   -3.5123   14.9092  -11.5998 C   0  0  0  0  0  0  0  0  0  0  0  0
   -1.7098   12.4700  -12.1164 F   0  0  0  0  0  0  0  0  0  0  0  0
   -1.5166   12.4356   -9.9564 F   0  0  0  0  0  0  0  0  0  0  0  0
   -6.0766   12.2858   -9.8743 H   0  0  0  0  0  0  0  0  0  0  0  0
   -8.1756   10.1191  -13.8942 H   0  0  0  0  0  0  0  0  0  0  0  0
   -6.8889   12.2463  -14.0896 H   0  0  0  0  0  0  0  0  0  0  0  0
   -6.3198   10.0366  -10.7536 H   0  0  0  0  0  0  0  0  0  0  0  0
   -8.0383    9.6050   -7.2579 H   0  0  0  0  0  0  0  0  0  0  0  0
   -4.8931    8.7825   -8.4921 H   0  0  0  0  0  0  0  0  0  0  0  0
   -2.6611    9.7559   -8.0481 H   0  0  0  0  0  0  0  0  0  0  0  0
   -4.5156   13.2866   -6.4733 H   0  0  0  0  0  0  0  0  0  0  0  0
   -6.3768   12.4508   -7.8327 H   0  0  0  0  0  0  0  0  0  0  0  0
   -6.3770   11.7109   -6.1959 H   0  0  0  0  0  0  0  0  0  0  0  0
   -2.4623   14.1868   -6.1115 H   0  0  0  0  0  0  0  0  0  0  0  0
   -0.6481   10.6174   -7.6264 H   0  0  0  0  0  0  0  0  0  0  0  0
    1.4497   14.3348   -6.0072 H   0  0  0  0  0  0  0  0  0  0  0  0
    0.1689   15.4951   -6.4967 H   0  0  0  0  0  0  0  0  0  0  0  0
    0.1531   14.7829   -4.8477 H   0  0  0  0  0  0  0  0  0  0  0  0
   -4.0230   12.4902   -9.7902 H   0  0  0  0  0  0  0  0  0  0  0  0
   -3.9436   11.6300  -11.3651 H   0  0  0  0  0  0  0  0  0  0  0  0
   -2.1210   14.8350   -9.9202 H   0  0  0  0  0  0  0  0  0  0  0  0
   -1.3323   14.8328  -11.5341 H   0  0  0  0  0  0  0  0  0  0  0  0
   -3.3578   15.1968  -12.6502 H   0  0  0  0  0  0  0  0  0  0  0  0
   -3.9532   15.7535  -11.0495 H   0  0  0  0  0  0  0  0  0  0  0  0
  1  2  2  0  0  0  0
  1  4  1  0  0  0  0
  1 12  1  0  0  0  0
  2  6  1  0  0  0  0
  3  4  2  0  0  0  0
  3  5  1  0  0  0  0
  5  6  1  0  0  0  0
  5  9  2  0  0  0  0
  6  7  1  0  0  0  0
  7  8  2  0  0  0  0
  7 10  1  0  0  0  0
  8  9  1  0  0  0  0
 10 14  2  3  0  0  0
 11 12  1  0  0  0  0
 11 26  1  0  0  0  0
 11 29  1  0  0  0  0
 12 13  2  0  0  0  0
 14 15  1  0  0  0  0
 14 19  1  0  0  0  0
 15 16  2  0  0  0  0
 16 17  1  0  0  0  0
 17 18  2  0  0  0  0
 17 20  1  0  0  0  0
 18 19  1  0  0  0  0
 20 21  2  0  0  0  0
 20 24  1  0  0  0  0
 21 22  1  0  0  0  0
 22 23  1  0  0  0  0
 22 25  1  0  0  0  0
 23 24  2  0  0  0  0
 26 27  1  0  0  0  0
 27 28  1  0  0  0  0
 27 30  1  0  0  0  0
 27 31  1  0  0  0  0
 28 29  1  0  0  0  0
  2 32  1  0  0  0  0
  3 33  1  0  0  0  0
  4 34  1  0  0  0  0
  6 35  1  0  0  0  0
 10 36  1  0  0  0  0
 15 37  1  0  0  0  0
 16 38  1  0  0  0  0
 18 39  1  0  0  0  0
 19 40  1  0  0  0  0
 19 41  1  0  0  0  0
 21 42  1  0  0  0  0
 24 43  1  0  0  0  0
 25 44  1  0  0  0  0
 25 45  1  0  0  0  0
 25 46  1  0  0  0  0
 26 47  1  0  0  0  0
 26 48  1  0  0  0  0
 28 49  1  0  0  0  0
 28 50  1  0  0  0  0
 29 51  1  0  0  0  0
 29 52  1  0  0  0  0
M  END
> <Name>
38

> <IC50[uM]>
0.005

$$$$
38
  -OEChem-05192314333D
 Structure written by MMmdl.
 52 56  0     0  0  0  0  0  0999 V2000
   -6.3676   12.3632  -12.0183 C   0  0  0  0  0  0  0  0  0  0  0  0
   -6.5148   11.8066  -10.7373 C   0  0  0  0  0  0  0  0  0  0  0  0
   -7.7147   10.5754  -13.0306 C   0  0  0  0  0  0  0  0  0  0  0  0
   -6.9819   11.7689  -13.1253 C   0  0  0  0  0  0  0  0  0  0  0  0
   -7.8143   10.0109  -11.7564 C   0  0  0  0  0  0  0  0  0  0  0  0
   -7.2414   10.6177  -10.6023 C   0  0  0  0  0  0  0  0  0  0  0  0
   -7.6126    9.7466   -9.5122 C   0  0  0  0  0  0  0  0  0  0  0  0
   -8.2846    8.7319   -9.9810 N   0  0  0  0  0  0  0  0  0  0  0  0
   -8.4146    8.8618  -11.2972 N   0  0  0  0  0  0  0  0  0  0  0  0
   -7.3363    9.8918   -8.0268 C   0  0  0  0  0  0  0  0  0  0  0  0
   -4.3648   13.7196  -11.5032 N   0  0  0  0  0  0  0  0  0  0  0  0
   -5.5453   13.6325  -12.1937 C   0  0  0  0  0  0  0  0  0  0  0  0
   -5.9402   14.5231  -12.9481 O   0  0  0  0  0  0  0  0  0  0  0  0
   -5.9634   10.4852   -7.7356 C   0  0  0  0  0  0  0  0  0  0  0  0
   -4.8111    9.7655   -8.0524 C   0  0  0  0  0  0  0  0  0  0  0  0
   -3.5521   10.3143   -7.8018 C   0  0  0  0  0  0  0  0  0  0  0  0
   -3.4442   11.5871   -7.2318 C   0  0  0  0  0  0  0  0  0  0  0  0
   -4.5964   12.3037   -6.9134 C   0  0  0  0  0  0  0  0  0  0  0  0
   -5.8531   11.7536   -7.1622 C   0  0  0  0  0  0  0  0  0  0  0  0
   -2.1000   12.1772   -6.9659 C   0  0  0  0  0  0  0  0  0  0  0  0
   -1.7711   13.4213   -6.4318 C   0  0  0  0  0  0  0  0  0  0  0  0
   -0.4319   13.4866   -6.3915 N   0  0  0  0  0  0  0  0  0  0  0  0
    0.1707   12.4146   -6.8487 N   0  0  0  0  0  0  0  0  0  0  0  0
   -0.8042   11.5996   -7.2054 C   0  0  0  0  0  0  0  0  0  0  0  0
    0.3852   14.5927   -5.9060 C   0  0  0  0  0  0  0  0  0  0  0  0
   -3.7189   12.5724  -10.8441 C   0  0  0  0  0  0  0  0  0  0  0  0
   -2.2354   12.9457  -10.9732 C   0  0  0  0  0  0  0  0  0  0  0  0
   -2.1905   14.4637  -10.9533 C   0  0  0  0  0  0  0  0  0  0  0  0
   -3.5123   14.9092  -11.5998 C   0  0  0  0  0  0  0  0  0  0  0  0
   -1.7098   12.4700  -12.1164 F   0  0  0  0  0  0  0  0  0  0  0  0
   -1.5166   12.4356   -9.9564 F   0  0  0  0  0  0  0  0  0  0  0  0
   -6.0766   12.2858   -9.8743 H   0  0  0  0  0  0  0  0  0  0  0  0
   -8.7349   10.7790  -13.3879 H   0  0  0  0  0  0  0  0  0  0  0  0
   -7.2366    9.8351  -13.6889 H   0  0  0  0  0  0  0  0  0  0  0  0
   -6.8889   12.2463  -14.0896 H   0  0  0  0  0  0  0  0  0  0  0  0
   -8.0383    9.6050   -7.2579 H   0  0  0  0  0  0  0  0  0  0  0  0
   -4.8931    8.7825   -8.4921 H   0  0  0  0  0  0  0  0  0  0  0  0
   -2.6611    9.7559   -8.0481 H   0  0  0  0  0  0  0  0  0  0  0  0
   -4.5156   13.2866   -6.4733 H   0  0  0  0  0  0  0  0  0  0  0  0
   -6.3768   12.4508   -7.8327 H   0  0  0  0  0  0  0  0  0  0  0  0
   -6.3770   11.7109   -6.1959 H   0  0  0  0  0  0  0  0  0  0  0  0
   -2.4623   14.1868   -6.1115 H   0  0  0  0  0  0  0  0  0  0  0  0
   -0.6481   10.6174   -7.6264 H   0  0  0  0  0  0  0  0  0  0  0  0
    1.4497   14.3348   -6.0072 H   0  0  0  0  0  0  0  0  0  0  0  0
    0.1689   15.4951   -6.4967 H   0  0  0  0  0  0  0  0  0  0  0  0
    0.1531   14.7829   -4.8477 H   0  0  0  0  0  0  0  0  0  0  0  0
   -4.0230   12.4902   -9.7902 H   0  0  0  0  0  0  0  0  0  0  0  0
   -3.9436   11.6300  -11.3651 H   0  0  0  0  0  0  0  0  0  0  0  0
   -2.1210   14.8350   -9.9202 H   0  0  0  0  0  0  0  0  0  0  0  0
   -1.3323   14.8328  -11.5341 H   0  0  0  0  0  0  0  0  0  0  0  0
   -3.3578   15.1968  -12.6502 H   0  0  0  0  0  0  0  0  0  0  0  0
   -3.9532   15.7535  -11.0495 H   0  0  0  0  0  0  0  0  0  0  0  0
  1  2  1  0  0  0  0
  1  4  2  0  0  0  0
  1 12  1  0  0  0  0
  2  6  2  0  0  0  0
  3  4  1  0  0  0  0
  3  5  1  0  0  0  0
  5  6  1  0  0  0  0
  5  9  2  0  0  0  0
  6  7  1  0  0  0  0
  7  8  2  0  0  0  0
  7 10  1  0  0  0  0
  8  9  1  0  0  0  0
 10 14  2  3  0  0  0
 11 12  1  0  0  0  0
 11 26  1  0  0  0  0
 11 29  1  0  0  0  0
 12 13  2  0  0  0  0
 14 15  1  0  0  0  0
 14 19  1  0  0  0  0
 15 16  2  0  0  0  0
 16 17  1  0  0  0  0
 17 18  2  0  0  0  0
 17 20  1  0  0  0  0
 18 19  1  0  0  0  0
 20 21  2  0  0  0  0
 20 24  1  0  0  0  0
 21 22  1  0  0  0  0
 22 23  1  0  0  0  0
 22 25  1  0  0  0  0
 23 24  2  0  0  0  0
 26 27  1  0  0  0  0
 27 28  1  0  0  0  0
 27 30  1  0  0  0  0
 27 31  1  0  0  0  0
 28 29  1  0  0  0  0
  2 32  1  0  0  0  0
  3 33  1  0  0  0  0
  3 34  1  0  0  0  0
  4 35  1  0  0  0  0
 10 36  1  0  0  0  0
 15 37  1  0  0  0  0
 16 38  1  0  0  0  0
 18 39  1  0  0  0  0
 19 40  1  0  0  0  0
 19 41  1  0  0  0  0
 21 42  1  0  0  0  0
 24 43  1  0  0  0  0
 25 44  1  0  0  0  0
 25 45  1  0  0  0  0
 25 46  1  0  0  0  0
 26 47  1  0  0  0  0
 26 48  1  0  0  0  0
 28 49  1  0  0  0  0
 28 50  1  0  0  0  0
 29 51  1  0  0  0  0
 29 52  1  0  0  0  0
M  END
> <Name>
38

> <IC50[uM]>
0.005

$$$$
38
  -OEChem-05192314333D
 Structure written by MMmdl.
 52 56  0     1  0  0  0  0  0999 V2000
   -6.3676   12.3632  -12.0183 C   0  0  0  0  0  0  0  0  0  0  0  0
   -6.5148   11.8066  -10.7373 C   0  0  0  0  0  0  0  0  0  0  0  0
   -7.7147   10.5754  -13.0306 C   0  0  0  0  0  0  0  0  0  0  0  0
   -6.9819   11.7689  -13.1253 C   0  0  0  0  0  0  0  0  0  0  0  0
   -7.8143   10.0109  -11.7564 C   0  0  3  0  0  0  0  0  0  0  0  0
   -7.2414   10.6177  -10.6023 C   0  0  0  0  0  0  0  0  0  0  0  0
   -7.6126    9.7466   -9.5122 C   0  0  0  0  0  0  0  0  0  0  0  0
   -8.2846    8.7319   -9.9810 N   0  0  0  0  0  0  0  0  0  0  0  0
   -8.4146    8.8618  -11.2972 N   0  0  0  0  0  0  0  0  0  0  0  0
   -7.3363    9.8918   -8.0268 C   0  0  0  0  0  0  0  0  0  0  0  0
   -4.3648   13.7196  -11.5032 N   0  0  0  0  0  0  0  0  0  0  0  0
   -5.5453   13.6325  -12.1937 C   0  0  0  0  0  0  0  0  0  0  0  0
   -5.9402   14.5231  -12.9481 O   0  0  0  0  0  0  0  0  0  0  0  0
   -5.9634   10.4852   -7.7356 C   0  0  0  0  0  0  0  0  0  0  0  0
   -4.8111    9.7655   -8.0524 C   0  0  0  0  0  0  0  0  0  0  0  0
   -3.5521   10.3143   -7.8018 C   0  0  0  0  0  0  0  0  0  0  0  0
   -3.4442   11.5871   -7.2318 C   0  0  0  0  0  0  0  0  0  0  0  0
   -4.5964   12.3037   -6.9134 C   0  0  0  0  0  0  0  0  0  0  0  0
   -5.8531   11.7536   -7.1622 C   0  0  0  0  0  0  0  0  0  0  0  0
   -2.1000   12.1772   -6.9659 C   0  0  0  0  0  0  0  0  0  0  0  0
   -1.7711   13.4213   -6.4318 C   0  0  0  0  0  0  0  0  0  0  0  0
   -0.4319   13.4866   -6.3915 N   0  0  0  0  0  0  0  0  0  0  0  0
    0.1707   12.4146   -6.8487 N   0  0  0  0  0  0  0  0  0  0  0  0
   -0.8042   11.5996   -7.2054 C   0  0  0  0  0  0  0  0  0  0  0  0
    0.3852   14.5927   -5.9060 C   0  0  0  0  0  0  0  0  0  0  0  0
   -3.7189   12.5724  -10.8441 C   0  0  0  0  0  0  0  0  0  0  0  0
   -2.2354   12.9457  -10.9732 C   0  0  0  0  0  0  0  0  0  0  0  0
   -2.1905   14.4637  -10.9533 C   0  0  0  0  0  0  0  0  0  0  0  0
   -3.5123   14.9092  -11.5998 C   0  0  0  0  0  0  0  0  0  0  0  0
   -1.7098   12.4700  -12.1164 F   0  0  0  0  0  0  0  0  0  0  0  0
   -1.5166   12.4356   -9.9564 F   0  0  0  0  0  0  0  0  0  0  0  0
   -6.0766   12.2858   -9.8743 H   0  0  0  0  0  0  0  0  0  0  0  0
   -8.1756   10.1191  -13.8942 H   0  0  0  0  0  0  0  0  0  0  0  0
   -6.8889   12.2463  -14.0896 H   0  0  0  0  0  0  0  0  0  0  0  0
   -6.8807    9.4553  -11.9287 H   0  0  0  0  0  0  0  0  0  0  0  0
   -8.0383    9.6050   -7.2579 H   0  0  0  0  0  0  0  0  0  0  0  0
   -4.8931    8.7825   -8.4921 H   0  0  0  0  0  0  0  0  0  0  0  0
   -2.6611    9.7559   -8.0481 H   0  0  0  0  0  0  0  0  0  0  0  0
   -3.4458   11.1378   -6.2277 H   0  0  0  0  0  0  0  0  0  0  0  0
   -4.5156   13.2866   -6.4733 H   0  0  0  0  0  0  0  0  0  0  0  0
   -6.7439   12.3101   -6.9107 H   0  0  0  0  0  0  0  0  0  0  0  0
   -2.4623   14.1868   -6.1115 H   0  0  0  0  0  0  0  0  0  0  0  0
   -0.6481   10.6174   -7.6264 H   0  0  0  0  0  0  0  0  0  0  0  0
    1.4497   14.3348   -6.0072 H   0  0  0  0  0  0  0  0  0  0  0  0
    0.1689   15.4951   -6.4967 H   0  0  0  0  0  0  0  0  0  0  0  0
    0.1531   14.7829   -4.8477 H   0  0  0  0  0  0  0  0  0  0  0  0
   -4.0230   12.4902   -9.7902 H   0  0  0  0  0  0  0  0  0  0  0  0
   -3.9436   11.6300  -11.3651 H   0  0  0  0  0  0  0  0  0  0  0  0
   -2.1210   14.8350   -9.9202 H   0  0  0  0  0  0  0  0  0  0  0  0
   -1.3323   14.8328  -11.5341 H   0  0  0  0  0  0  0  0  0  0  0  0
   -3.3578   15.1968  -12.6502 H   0  0  0  0  0  0  0  0  0  0  0  0
   -3.9532   15.7535  -11.0495 H   0  0  0  0  0  0  0  0  0  0  0  0
  1  2  2  0  0  0  0
  1  4  1  0  0  0  0
  1 12  1  0  0  0  0
  2  6  1  0  0  0  0
  3  4  2  0  0  0  0
  3  5  1  0  0  0  0
  5  6  1  0  0  0  0
  5  9  1  0  0  0  0
  6  7  2  0  0  0  0
  7  8  1  0  0  0  0
  7 10  1  0  0  0  0
  8  9  2  0  0  0  0
 10 14  2  0  0  0  0
 11 12  1  0  0  0  0
 11 26  1  0  0  0  0
 11 29  1  0  0  0  0
 12 13  2  0  0  0  0
 14 15  1  0  0  0  0
 14 19  1  0  0  0  0
 15 16  2  0  0  0  0
 16 17  1  0  0  0  0
 17 18  1  0  0  0  0
 17 20  1  0  0  0  0
 18 19  2  0  0  0  0
 20 21  2  0  0  0  0
 20 24  1  0  0  0  0
 21 22  1  0  0  0  0
 22 23  1  0  0  0  0
 22 25  1  0  0  0  0
 23 24  2  0  0  0  0
 26 27  1  0  0  0  0
 27 28  1  0  0  0  0
 27 30  1  0  0  0  0
 27 31  1  0  0  0  0
 28 29  1  0  0  0  0
  2 32  1  0  0  0  0
  3 33  1  0  0  0  0
  4 34  1  0  0  0  0
  5 35  1  0  0  0  0
 10 36  1  0  0  0  0
 15 37  1  0  0  0  0
 16 38  1  0  0  0  0
 17 39  1  0  0  0  0
 18 40  1  0  0  0  0
 19 41  1  0  0  0  0
 21 42  1  0  0  0  0
 24 43  1  0  0  0  0
 25 44  1  0  0  0  0
 25 45  1  0  0  0  0
 25 46  1  0  0  0  0
 26 47  1  0  0  0  0
 26 48  1  0  0  0  0
 28 49  1  0  0  0  0
 28 50  1  0  0  0  0
 29 51  1  0  0  0  0
 29 52  1  0  0  0  0
M  END
> <Name>
38

> <IC50[uM]>
0.005

$$$$
38
  -OEChem-05192314333D
 Structure written by MMmdl.
 52 56  0     0  0  0  0  0  0999 V2000
   -6.3676   12.3632  -12.0183 C   0  0  0  0  0  0  0  0  0  0  0  0
   -6.5148   11.8066  -10.7373 C   0  0  0  0  0  0  0  0  0  0  0  0
   -7.7147   10.5754  -13.0306 C   0  0  0  0  0  0  0  0  0  0  0  0
   -6.9819   11.7689  -13.1253 C   0  0  0  0  0  0  0  0  0  0  0  0
   -7.8143   10.0109  -11.7564 C   0  0  0  0  0  0  0  0  0  0  0  0
   -7.2414   10.6177  -10.6023 C   0  0  0  0  0  0  0  0  0  0  0  0
   -7.6126    9.7466   -9.5122 C   0  0  0  0  0  0  0  0  0  0  0  0
   -8.2846    8.7319   -9.9810 N   0  0  0  0  0  0  0  0  0  0  0  0
   -8.4146    8.8618  -11.2972 N   0  0  0  0  0  0  0  0  0  0  0  0
   -7.3363    9.8918   -8.0268 C   0  0  0  0  0  0  0  0  0  0  0  0
   -4.3648   13.7196  -11.5032 N   0  0  0  0  0  0  0  0  0  0  0  0
   -5.5453   13.6325  -12.1937 C   0  0  0  0  0  0  0  0  0  0  0  0
   -5.9402   14.5231  -12.9481 O   0  0  0  0  0  0  0  0  0  0  0  0
   -5.9634   10.4852   -7.7356 C   0  0  0  0  0  0  0  0  0  0  0  0
   -4.8111    9.7655   -8.0524 C   0  0  0  0  0  0  0  0  0  0  0  0
   -3.5521   10.3143   -7.8018 C   0  0  0  0  0  0  0  0  0  0  0  0
   -3.4442   11.5871   -7.2318 C   0  0  0  0  0  0  0  0  0  0  0  0
   -4.5964   12.3037   -6.9134 C   0  0  0  0  0  0  0  0  0  0  0  0
   -5.8531   11.7536   -7.1622 C   0  0  0  0  0  0  0  0  0  0  0  0
   -2.1000   12.1772   -6.9659 C   0  0  0  0  0  0  0  0  0  0  0  0
   -1.7711   13.4213   -6.4318 C   0  0  0  0  0  0  0  0  0  0  0  0
   -0.4319   13.4866   -6.3915 N   0  0  0  0  0  0  0  0  0  0  0  0
    0.1707   12.4146   -6.8487 N   0  0  0  0  0  0  0  0  0  0  0  0
   -0.8042   11.5996   -7.2054 C   0  0  0  0  0  0  0  0  0  0  0  0
    0.3852   14.5927   -5.9060 C   0  0  0  0  0  0  0  0  0  0  0  0
   -3.7189   12.5724  -10.8441 C   0  0  0  0  0  0  0  0  0  0  0  0
   -2.2354   12.9457  -10.9732 C   0  0  0  0  0  0  0  0  0  0  0  0
   -2.1905   14.4637  -10.9533 C   0  0  0  0  0  0  0  0  0  0  0  0
   -3.5123   14.9092  -11.5998 C   0  0  0  0  0  0  0  0  0  0  0  0
   -1.7098   12.4700  -12.1164 F   0  0  0  0  0  0  0  0  0  0  0  0
   -1.5166   12.4356   -9.9564 F   0  0  0  0  0  0  0  0  0  0  0  0
   -6.0766   12.2858   -9.8743 H   0  0  0  0  0  0  0  0  0  0  0  0
   -8.1756   10.1191  -13.8942 H   0  0  0  0  0  0  0  0  0  0  0  0
   -7.6744   12.5212  -13.5309 H   0  0  0  0  0  0  0  0  0  0  0  0
   -6.1801   11.5781  -13.8538 H   0  0  0  0  0  0  0  0  0  0  0  0
   -8.0383    9.6050   -7.2579 H   0  0  0  0  0  0  0  0  0  0  0  0
   -4.8931    8.7825   -8.4921 H   0  0  0  0  0  0  0  0  0  0  0  0
   -2.6611    9.7559   -8.0481 H   0  0  0  0  0  0  0  0  0  0  0  0
   -3.4458   11.1378   -6.2277 H   0  0  0  0  0  0  0  0  0  0  0  0
   -4.5156   13.2866   -6.4733 H   0  0  0  0  0  0  0  0  0  0  0  0
   -6.7439   12.3101   -6.9107 H   0  0  0  0  0  0  0  0  0  0  0  0
   -2.4623   14.1868   -6.1115 H   0  0  0  0  0  0  0  0  0  0  0  0
   -0.6481   10.6174   -7.6264 H   0  0  0  0  0  0  0  0  0  0  0  0
    1.4497   14.3348   -6.0072 H   0  0  0  0  0  0  0  0  0  0  0  0
    0.1689   15.4951   -6.4967 H   0  0  0  0  0  0  0  0  0  0  0  0
    0.1531   14.7829   -4.8477 H   0  0  0  0  0  0  0  0  0  0  0  0
   -4.0230   12.4902   -9.7902 H   0  0  0  0  0  0  0  0  0  0  0  0
   -3.9436   11.6300  -11.3651 H   0  0  0  0  0  0  0  0  0  0  0  0
   -2.1210   14.8350   -9.9202 H   0  0  0  0  0  0  0  0  0  0  0  0
   -1.3323   14.8328  -11.5341 H   0  0  0  0  0  0  0  0  0  0  0  0
   -3.3578   15.1968  -12.6502 H   0  0  0  0  0  0  0  0  0  0  0  0
   -3.9532   15.7535  -11.0495 H   0  0  0  0  0  0  0  0  0  0  0  0
  1  2  2  0  0  0  0
  1  4  1  0  0  0  0
  1 12  1  0  0  0  0
  2  6  1  0  0  0  0
  3  4  1  0  0  0  0
  3  5  2  0  0  0  0
  5  6  1  0  0  0  0
  5  9  1  0  0  0  0
  6  7  2  0  0  0  0
  7  8  1  0  0  0  0
  7 10  1  0  0  0  0
  8  9  2  0  0  0  0
 10 14  2  0  0  0  0
 11 12  1  0  0  0  0
 11 26  1  0  0  0  0
 11 29  1  0  0  0  0
 12 13  2  0  0  0  0
 14 15  1  0  0  0  0
 14 19  1  0  0  0  0
 15 16  2  0  0  0  0
 16 17  1  0  0  0  0
 17 18  1  0  0  0  0
 17 20  1  0  0  0  0
 18 19  2  0  0  0  0
 20 21  2  0  0  0  0
 20 24  1  0  0  0  0
 21 22  1  0  0  0  0
 22 23  1  0  0  0  0
 22 25  1  0  0  0  0
 23 24  2  0  0  0  0
 26 27  1  0  0  0  0
 27 28  1  0  0  0  0
 27 30  1  0  0  0  0
 27 31  1  0  0  0  0
 28 29  1  0  0  0  0
  2 32  1  0  0  0  0
  3 33  1  0  0  0  0
  4 34  1  0  0  0  0
  4 35  1  0  0  0  0
 10 36  1  0  0  0  0
 15 37  1  0  0  0  0
 16 38  1  0  0  0  0
 17 39  1  0  0  0  0
 18 40  1  0  0  0  0
 19 41  1  0  0  0  0
 21 42  1  0  0  0  0
 24 43  1  0  0  0  0
 25 44  1  0  0  0  0
 25 45  1  0  0  0  0
 25 46  1  0  0  0  0
 26 47  1  0  0  0  0
 26 48  1  0  0  0  0
 28 49  1  0  0  0  0
 28 50  1  0  0  0  0
 29 51  1  0  0  0  0
 29 52  1  0  0  0  0
M  END
> <Name>
38

> <IC50[uM]>
0.005

$$$$
38
  -OEChem-05192314333D
 Structure written by MMmdl.
 52 56  0     1  0  0  0  0  0999 V2000
   -6.3676   12.3632  -12.0183 C   0  0  0  0  0  0  0  0  0  0  0  0
   -6.5148   11.8066  -10.7373 C   0  0  0  0  0  0  0  0  0  0  0  0
   -7.7147   10.5754  -13.0306 C   0  0  0  0  0  0  0  0  0  0  0  0
   -6.9819   11.7689  -13.1253 C   0  0  0  0  0  0  0  0  0  0  0  0
   -7.8143   10.0109  -11.7564 C   0  0  3  0  0  0  0  0  0  0  0  0
   -7.2414   10.6177  -10.6023 C   0  0  0  0  0  0  0  0  0  0  0  0
   -7.6126    9.7466   -9.5122 C   0  0  0  0  0  0  0  0  0  0  0  0
   -8.2846    8.7319   -9.9810 N   0  0  0  0  0  0  0  0  0  0  0  0
   -8.4146    8.8618  -11.2972 N   0  0  0  0  0  0  0  0  0  0  0  0
   -7.3363    9.8918   -8.0268 C   0  0  0  0  0  0  0  0  0  0  0  0
   -4.3648   13.7196  -11.5032 N   0  0  0  0  0  0  0  0  0  0  0  0
   -5.5453   13.6325  -12.1937 C   0  0  0  0  0  0  0  0  0  0  0  0
   -5.9402   14.5231  -12.9481 O   0  0  0  0  0  0  0  0  0  0  0  0
   -5.9634   10.4852   -7.7356 C   0  0  0  0  0  0  0  0  0  0  0  0
   -4.8111    9.7655   -8.0524 C   0  0  0  0  0  0  0  0  0  0  0  0
   -3.5521   10.3143   -7.8018 C   0  0  0  0  0  0  0  0  0  0  0  0
   -3.4442   11.5871   -7.2318 C   0  0  0  0  0  0  0  0  0  0  0  0
   -4.5964   12.3037   -6.9134 C   0  0  0  0  0  0  0  0  0  0  0  0
   -5.8531   11.7536   -7.1622 C   0  0  0  0  0  0  0  0  0  0  0  0
   -2.1000   12.1772   -6.9659 C   0  0  0  0  0  0  0  0  0  0  0  0
   -1.7711   13.4213   -6.4318 C   0  0  0  0  0  0  0  0  0  0  0  0
   -0.4319   13.4866   -6.3915 N   0  0  0  0  0  0  0  0  0  0  0  0
    0.1707   12.4146   -6.8487 N   0  0  0  0  0  0  0  0  0  0  0  0
   -0.8042   11.5996   -7.2054 C   0  0  0  0  0  0  0  0  0  0  0  0
    0.3852   14.5927   -5.9060 C   0  0  0  0  0  0  0  0  0  0  0  0
   -3.7189   12.5724  -10.8441 C   0  0  0  0  0  0  0  0  0  0  0  0
   -2.2354   12.9457  -10.9732 C   0  0  0  0  0  0  0  0  0  0  0  0
   -2.1905   14.4637  -10.9533 C   0  0  0  0  0  0  0  0  0  0  0  0
   -3.5123   14.9092  -11.5998 C   0  0  0  0  0  0  0  0  0  0  0  0
   -1.7098   12.4700  -12.1164 F   0  0  0  0  0  0  0  0  0  0  0  0
   -1.5166   12.4356   -9.9564 F   0  0  0  0  0  0  0  0  0  0  0  0
   -6.0766   12.2858   -9.8743 H   0  0  0  0  0  0  0  0  0  0  0  0
   -8.1756   10.1191  -13.8942 H   0  0  0  0  0  0  0  0  0  0  0  0
   -6.8889   12.2463  -14.0896 H   0  0  0  0  0  0  0  0  0  0  0  0
   -6.8807    9.4553  -11.9287 H   0  0  0  0  0  0  0  0  0  0  0  0
   -8.0383    9.6050   -7.2579 H   0  0  0  0  0  0  0  0  0  0  0  0
   -4.8931    8.7825   -8.4921 H   0  0  0  0  0  0  0  0  0  0  0  0
   -2.6611    9.7559   -8.0481 H   0  0  0  0  0  0  0  0  0  0  0  0
   -4.5156   13.2866   -6.4733 H   0  0  0  0  0  0  0  0  0  0  0  0
   -6.3768   12.4508   -7.8327 H   0  0  0  0  0  0  0  0  0  0  0  0
   -6.3770   11.7109   -6.1959 H   0  0  0  0  0  0  0  0  0  0  0  0
   -2.4623   14.1868   -6.1115 H   0  0  0  0  0  0  0  0  0  0  0  0
   -0.6481   10.6174   -7.6264 H   0  0  0  0  0  0  0  0  0  0  0  0
    1.4497   14.3348   -6.0072 H   0  0  0  0  0  0  0  0  0  0  0  0
    0.1689   15.4951   -6.4967 H   0  0  0  0  0  0  0  0  0  0  0  0
    0.1531   14.7829   -4.8477 H   0  0  0  0  0  0  0  0  0  0  0  0
   -4.0230   12.4902   -9.7902 H   0  0  0  0  0  0  0  0  0  0  0  0
   -3.9436   11.6300  -11.3651 H   0  0  0  0  0  0  0  0  0  0  0  0
   -2.1210   14.8350   -9.9202 H   0  0  0  0  0  0  0  0  0  0  0  0
   -1.3323   14.8328  -11.5341 H   0  0  0  0  0  0  0  0  0  0  0  0
   -3.3578   15.1968  -12.6502 H   0  0  0  0  0  0  0  0  0  0  0  0
   -3.9532   15.7535  -11.0495 H   0  0  0  0  0  0  0  0  0  0  0  0
  1  2  2  0  0  0  0
  1  4  1  0  0  0  0
  1 12  1  0  0  0  0
  2  6  1  0  0  0  0
  3  4  2  0  0  0  0
  3  5  1  0  0  0  0
  5  6  1  0  0  0  0
  5  9  1  0  0  0  0
  6  7  2  0  0  0  0
  7  8  1  0  0  0  0
  7 10  1  0  0  0  0
  8  9  2  0  0  0  0
 10 14  2  3  0  0  0
 11 12  1  0  0  0  0
 11 26  1  0  0  0  0
 11 29  1  0  0  0  0
 12 13  2  0  0  0  0
 14 15  1  0  0  0  0
 14 19  1  0  0  0  0
 15 16  2  0  0  0  0
 16 17  1  0  0  0  0
 17 18  2  0  0  0  0
 17 20  1  0  0  0  0
 18 19  1  0  0  0  0
 20 21  2  0  0  0  0
 20 24  1  0  0  0  0
 21 22  1  0  0  0  0
 22 23  1  0  0  0  0
 22 25  1  0  0  0  0
 23 24  2  0  0  0  0
 26 27  1  0  0  0  0
 27 28  1  0  0  0  0
 27 30  1  0  0  0  0
 27 31  1  0  0  0  0
 28 29  1  0  0  0  0
  2 32  1  0  0  0  0
  3 33  1  0  0  0  0
  4 34  1  0  0  0  0
  5 35  1  0  0  0  0
 10 36  1  0  0  0  0
 15 37  1  0  0  0  0
 16 38  1  0  0  0  0
 18 39  1  0  0  0  0
 19 40  1  0  0  0  0
 19 41  1  0  0  0  0
 21 42  1  0  0  0  0
 24 43  1  0  0  0  0
 25 44  1  0  0  0  0
 25 45  1  0  0  0  0
 25 46  1  0  0  0  0
 26 47  1  0  0  0  0
 26 48  1  0  0  0  0
 28 49  1  0  0  0  0
 28 50  1  0  0  0  0
 29 51  1  0  0  0  0
 29 52  1  0  0  0  0
M  END
> <Name>
38

> <IC50[uM]>
0.005

$$$$
38
  -OEChem-05192314333D
 Structure written by MMmdl.
 52 56  0     0  0  0  0  0  0999 V2000
   -6.3676   12.3632  -12.0183 C   0  0  0  0  0  0  0  0  0  0  0  0
   -6.5148   11.8066  -10.7373 C   0  0  0  0  0  0  0  0  0  0  0  0
   -7.7147   10.5754  -13.0306 C   0  0  0  0  0  0  0  0  0  0  0  0
   -6.9819   11.7689  -13.1253 C   0  0  0  0  0  0  0  0  0  0  0  0
   -7.8143   10.0109  -11.7564 C   0  0  0  0  0  0  0  0  0  0  0  0
   -7.2414   10.6177  -10.6023 C   0  0  0  0  0  0  0  0  0  0  0  0
   -7.6126    9.7466   -9.5122 C   0  0  0  0  0  0  0  0  0  0  0  0
   -8.2846    8.7319   -9.9810 N   0  0  0  0  0  0  0  0  0  0  0  0
   -8.4146    8.8618  -11.2972 N   0  0  0  0  0  0  0  0  0  0  0  0
   -7.3363    9.8918   -8.0268 C   0  0  0  0  0  0  0  0  0  0  0  0
   -4.3648   13.7196  -11.5032 N   0  0  0  0  0  0  0  0  0  0  0  0
   -5.5453   13.6325  -12.1937 C   0  0  0  0  0  0  0  0  0  0  0  0
   -5.9402   14.5231  -12.9481 O   0  0  0  0  0  0  0  0  0  0  0  0
   -5.9634   10.4852   -7.7356 C   0  0  0  0  0  0  0  0  0  0  0  0
   -4.8111    9.7655   -8.0524 C   0  0  0  0  0  0  0  0  0  0  0  0
   -3.5521   10.3143   -7.8018 C   0  0  0  0  0  0  0  0  0  0  0  0
   -3.4442   11.5871   -7.2318 C   0  0  0  0  0  0  0  0  0  0  0  0
   -4.5964   12.3037   -6.9134 C   0  0  0  0  0  0  0  0  0  0  0  0
   -5.8531   11.7536   -7.1622 C   0  0  0  0  0  0  0  0  0  0  0  0
   -2.1000   12.1772   -6.9659 C   0  0  0  0  0  0  0  0  0  0  0  0
   -1.7711   13.4213   -6.4318 C   0  0  0  0  0  0  0  0  0  0  0  0
   -0.4319   13.4866   -6.3915 N   0  0  0  0  0  0  0  0  0  0  0  0
    0.1707   12.4146   -6.8487 N   0  0  0  0  0  0  0  0  0  0  0  0
   -0.8042   11.5996   -7.2054 C   0  0  0  0  0  0  0  0  0  0  0  0
    0.3852   14.5927   -5.9060 C   0  0  0  0  0  0  0  0  0  0  0  0
   -3.7189   12.5724  -10.8441 C   0  0  0  0  0  0  0  0  0  0  0  0
   -2.2354   12.9457  -10.9732 C   0  0  0  0  0  0  0  0  0  0  0  0
   -2.1905   14.4637  -10.9533 C   0  0  0  0  0  0  0  0  0  0  0  0
   -3.5123   14.9092  -11.5998 C   0  0  0  0  0  0  0  0  0  0  0  0
   -1.7098   12.4700  -12.1164 F   0  0  0  0  0  0  0  0  0  0  0  0
   -1.5166   12.4356   -9.9564 F   0  0  0  0  0  0  0  0  0  0  0  0
   -6.0766   12.2858   -9.8743 H   0  0  0  0  0  0  0  0  0  0  0  0
   -8.1756   10.1191  -13.8942 H   0  0  0  0  0  0  0  0  0  0  0  0
   -7.6744   12.5212  -13.5309 H   0  0  0  0  0  0  0  0  0  0  0  0
   -6.1801   11.5781  -13.8538 H   0  0  0  0  0  0  0  0  0  0  0  0
   -8.0383    9.6050   -7.2579 H   0  0  0  0  0  0  0  0  0  0  0  0
   -4.8931    8.7825   -8.4921 H   0  0  0  0  0  0  0  0  0  0  0  0
   -2.6611    9.7559   -8.0481 H   0  0  0  0  0  0  0  0  0  0  0  0
   -4.5156   13.2866   -6.4733 H   0  0  0  0  0  0  0  0  0  0  0  0
   -6.3768   12.4508   -7.8327 H   0  0  0  0  0  0  0  0  0  0  0  0
   -6.3770   11.7109   -6.1959 H   0  0  0  0  0  0  0  0  0  0  0  0
   -2.4623   14.1868   -6.1115 H   0  0  0  0  0  0  0  0  0  0  0  0
   -0.6481   10.6174   -7.6264 H   0  0  0  0  0  0  0  0  0  0  0  0
    1.4497   14.3348   -6.0072 H   0  0  0  0  0  0  0  0  0  0  0  0
    0.1689   15.4951   -6.4967 H   0  0  0  0  0  0  0  0  0  0  0  0
    0.1531   14.7829   -4.8477 H   0  0  0  0  0  0  0  0  0  0  0  0
   -4.0230   12.4902   -9.7902 H   0  0  0  0  0  0  0  0  0  0  0  0
   -3.9436   11.6300  -11.3651 H   0  0  0  0  0  0  0  0  0  0  0  0
   -2.1210   14.8350   -9.9202 H   0  0  0  0  0  0  0  0  0  0  0  0
   -1.3323   14.8328  -11.5341 H   0  0  0  0  0  0  0  0  0  0  0  0
   -3.3578   15.1968  -12.6502 H   0  0  0  0  0  0  0  0  0  0  0  0
   -3.9532   15.7535  -11.0495 H   0  0  0  0  0  0  0  0  0  0  0  0
  1  2  2  0  0  0  0
  1  4  1  0  0  0  0
  1 12  1  0  0  0  0
  2  6  1  0  0  0  0
  3  4  1  0  0  0  0
  3  5  2  0  0  0  0
  5  6  1  0  0  0  0
  5  9  1  0  0  0  0
  6  7  2  0  0  0  0
  7  8  1  0  0  0  0
  7 10  1  0  0  0  0
  8  9  2  0  0  0  0
 10 14  2  3  0  0  0
 11 12  1  0  0  0  0
 11 26  1  0  0  0  0
 11 29  1  0  0  0  0
 12 13  2  0  0  0  0
 14 15  1  0  0  0  0
 14 19  1  0  0  0  0
 15 16  2  0  0  0  0
 16 17  1  0  0  0  0
 17 18  2  0  0  0  0
 17 20  1  0  0  0  0
 18 19  1  0  0  0  0
 20 21  2  0  0  0  0
 20 24  1  0  0  0  0
 21 22  1  0  0  0  0
 22 23  1  0  0  0  0
 22 25  1  0  0  0  0
 23 24  2  0  0  0  0
 26 27  1  0  0  0  0
 27 28  1  0  0  0  0
 27 30  1  0  0  0  0
 27 31  1  0  0  0  0
 28 29  1  0  0  0  0
  2 32  1  0  0  0  0
  3 33  1  0  0  0  0
  4 34  1  0  0  0  0
  4 35  1  0  0  0  0
 10 36  1  0  0  0  0
 15 37  1  0  0  0  0
 16 38  1  0  0  0  0
 18 39  1  0  0  0  0
 19 40  1  0  0  0  0
 19 41  1  0  0  0  0
 21 42  1  0  0  0  0
 24 43  1  0  0  0  0
 25 44  1  0  0  0  0
 25 45  1  0  0  0  0
 25 46  1  0  0  0  0
 26 47  1  0  0  0  0
 26 48  1  0  0  0  0
 28 49  1  0  0  0  0
 28 50  1  0  0  0  0
 29 51  1  0  0  0  0
 29 52  1  0  0  0  0
M  END
> <Name>
38

> <IC50[uM]>
0.005

$$$$
38
  -OEChem-05192314333D
 Structure written by MMmdl.
 52 56  0     0  0  0  0  0  0999 V2000
   -6.3676   12.3632  -12.0183 C   0  0  0  0  0  0  0  0  0  0  0  0
   -6.5148   11.8066  -10.7373 C   0  0  0  0  0  0  0  0  0  0  0  0
   -7.7147   10.5754  -13.0306 C   0  0  0  0  0  0  0  0  0  0  0  0
   -6.9819   11.7689  -13.1253 C   0  0  0  0  0  0  0  0  0  0  0  0
   -7.8143   10.0109  -11.7564 C   0  0  0  0  0  0  0  0  0  0  0  0
   -7.2414   10.6177  -10.6023 C   0  0  0  0  0  0  0  0  0  0  0  0
   -7.6126    9.7466   -9.5122 C   0  0  0  0  0  0  0  0  0  0  0  0
   -8.2846    8.7319   -9.9810 N   0  0  0  0  0  0  0  0  0  0  0  0
   -8.4146    8.8618  -11.2972 N   0  0  0  0  0  0  0  0  0  0  0  0
   -7.3363    9.8918   -8.0268 C   0  0  0  0  0  0  0  0  0  0  0  0
   -4.3648   13.7196  -11.5032 N   0  0  0  0  0  0  0  0  0  0  0  0
   -5.5453   13.6325  -12.1937 C   0  0  0  0  0  0  0  0  0  0  0  0
   -5.9402   14.5231  -12.9481 O   0  0  0  0  0  0  0  0  0  0  0  0
   -5.9634   10.4852   -7.7356 C   0  0  0  0  0  0  0  0  0  0  0  0
   -4.8111    9.7655   -8.0524 C   0  0  0  0  0  0  0  0  0  0  0  0
   -3.5521   10.3143   -7.8018 C   0  0  0  0  0  0  0  0  0  0  0  0
   -3.4442   11.5871   -7.2318 C   0  0  0  0  0  0  0  0  0  0  0  0
   -4.5964   12.3037   -6.9134 C   0  0  0  0  0  0  0  0  0  0  0  0
   -5.8531   11.7536   -7.1622 C   0  0  0  0  0  0  0  0  0  0  0  0
   -2.1000   12.1772   -6.9659 C   0  0  0  0  0  0  0  0  0  0  0  0
   -1.7711   13.4213   -6.4318 C   0  0  0  0  0  0  0  0  0  0  0  0
   -0.4319   13.4866   -6.3915 N   0  0  0  0  0  0  0  0  0  0  0  0
    0.1707   12.4146   -6.8487 N   0  0  0  0  0  0  0  0  0  0  0  0
   -0.8042   11.5996   -7.2054 C   0  0  0  0  0  0  0  0  0  0  0  0
    0.3852   14.5927   -5.9060 C   0  0  0  0  0  0  0  0  0  0  0  0
   -3.7189   12.5724  -10.8441 C   0  0  0  0  0  0  0  0  0  0  0  0
   -2.2354   12.9457  -10.9732 C   0  0  0  0  0  0  0  0  0  0  0  0
   -2.1905   14.4637  -10.9533 C   0  0  0  0  0  0  0  0  0  0  0  0
   -3.5123   14.9092  -11.5998 C   0  0  0  0  0  0  0  0  0  0  0  0
   -1.7098   12.4700  -12.1164 F   0  0  0  0  0  0  0  0  0  0  0  0
   -1.5166   12.4356   -9.9564 F   0  0  0  0  0  0  0  0  0  0  0  0
   -5.5036   11.6144  -10.3492 H   0  0  0  0  0  0  0  0  0  0  0  0
   -7.0106   12.5624  -10.1105 H   0  0  0  0  0  0  0  0  0  0  0  0
   -8.1756   10.1191  -13.8942 H   0  0  0  0  0  0  0  0  0  0  0  0
   -6.8889   12.2463  -14.0896 H   0  0  0  0  0  0  0  0  0  0  0  0
   -8.0383    9.6050   -7.2579 H   0  0  0  0  0  0  0  0  0  0  0  0
   -4.8931    8.7825   -8.4921 H   0  0  0  0  0  0  0  0  0  0  0  0
   -2.6611    9.7559   -8.0481 H   0  0  0  0  0  0  0  0  0  0  0  0
   -3.4458   11.1378   -6.2277 H   0  0  0  0  0  0  0  0  0  0  0  0
   -4.5156   13.2866   -6.4733 H   0  0  0  0  0  0  0  0  0  0  0  0
   -6.7439   12.3101   -6.9107 H   0  0  0  0  0  0  0  0  0  0  0  0
   -2.4623   14.1868   -6.1115 H   0  0  0  0  0  0  0  0  0  0  0  0
   -0.6481   10.6174   -7.6264 H   0  0  0  0  0  0  0  0  0  0  0  0
    1.4497   14.3348   -6.0072 H   0  0  0  0  0  0  0  0  0  0  0  0
    0.1689   15.4951   -6.4967 H   0  0  0  0  0  0  0  0  0  0  0  0
    0.1531   14.7829   -4.8477 H   0  0  0  0  0  0  0  0  0  0  0  0
   -4.0230   12.4902   -9.7902 H   0  0  0  0  0  0  0  0  0  0  0  0
   -3.9436   11.6300  -11.3651 H   0  0  0  0  0  0  0  0  0  0  0  0
   -2.1210   14.8350   -9.9202 H   0  0  0  0  0  0  0  0  0  0  0  0
   -1.3323   14.8328  -11.5341 H   0  0  0  0  0  0  0  0  0  0  0  0
   -3.3578   15.1968  -12.6502 H   0  0  0  0  0  0  0  0  0  0  0  0
   -3.9532   15.7535  -11.0495 H   0  0  0  0  0  0  0  0  0  0  0  0
  1  2  1  0  0  0  0
  1  4  2  0  0  0  0
  1 12  1  0  0  0  0
  2  6  1  0  0  0  0
  3  4  1  0  0  0  0
  3  5  2  0  0  0  0
  5  6  1  0  0  0  0
  5  9  1  0  0  0  0
  6  7  2  0  0  0  0
  7  8  1  0  0  0  0
  7 10  1  0  0  0  0
  8  9  2  0  0  0  0
 10 14  2  0  0  0  0
 11 12  1  0  0  0  0
 11 26  1  0  0  0  0
 11 29  1  0  0  0  0
 12 13  2  0  0  0  0
 14 15  1  0  0  0  0
 14 19  1  0  0  0  0
 15 16  2  0  0  0  0
 16 17  1  0  0  0  0
 17 18  1  0  0  0  0
 17 20  1  0  0  0  0
 18 19  2  0  0  0  0
 20 21  2  0  0  0  0
 20 24  1  0  0  0  0
 21 22  1  0  0  0  0
 22 23  1  0  0  0  0
 22 25  1  0  0  0  0
 23 24  2  0  0  0  0
 26 27  1  0  0  0  0
 27 28  1  0  0  0  0
 27 30  1  0  0  0  0
 27 31  1  0  0  0  0
 28 29  1  0  0  0  0
  2 32  1  0  0  0  0
  2 33  1  0  0  0  0
  3 34  1  0  0  0  0
  4 35  1  0  0  0  0
 10 36  1  0  0  0  0
 15 37  1  0  0  0  0
 16 38  1  0  0  0  0
 17 39  1  0  0  0  0
 18 40  1  0  0  0  0
 19 41  1  0  0  0  0
 21 42  1  0  0  0  0
 24 43  1  0  0  0  0
 25 44  1  0  0  0  0
 25 45  1  0  0  0  0
 25 46  1  0  0  0  0
 26 47  1  0  0  0  0
 26 48  1  0  0  0  0
 28 49  1  0  0  0  0
 28 50  1  0  0  0  0
 29 51  1  0  0  0  0
 29 52  1  0  0  0  0
M  END
> <Name>
38

> <IC50[uM]>
0.005

$$$$
38
  -OEChem-05192314333D
 Structure written by MMmdl.
 52 56  0     0  0  0  0  0  0999 V2000
   -6.3676   12.3632  -12.0183 C   0  0  0  0  0  0  0  0  0  0  0  0
   -6.5148   11.8066  -10.7373 C   0  0  0  0  0  0  0  0  0  0  0  0
   -7.7147   10.5754  -13.0306 C   0  0  0  0  0  0  0  0  0  0  0  0
   -6.9819   11.7689  -13.1253 C   0  0  0  0  0  0  0  0  0  0  0  0
   -7.8143   10.0109  -11.7564 C   0  0  0  0  0  0  0  0  0  0  0  0
   -7.2414   10.6177  -10.6023 C   0  0  0  0  0  0  0  0  0  0  0  0
   -7.6126    9.7466   -9.5122 C   0  0  0  0  0  0  0  0  0  0  0  0
   -8.2846    8.7319   -9.9810 N   0  0  0  0  0  0  0  0  0  0  0  0
   -8.4146    8.8618  -11.2972 N   0  0  0  0  0  0  0  0  0  0  0  0
   -7.3363    9.8918   -8.0268 C   0  0  0  0  0  0  0  0  0  0  0  0
   -4.3648   13.7196  -11.5032 N   0  0  0  0  0  0  0  0  0  0  0  0
   -5.5453   13.6325  -12.1937 C   0  0  0  0  0  0  0  0  0  0  0  0
   -5.9402   14.5231  -12.9481 O   0  0  0  0  0  0  0  0  0  0  0  0
   -5.9634   10.4852   -7.7356 C   0  0  0  0  0  0  0  0  0  0  0  0
   -4.8111    9.7655   -8.0524 C   0  0  0  0  0  0  0  0  0  0  0  0
   -3.5521   10.3143   -7.8018 C   0  0  0  0  0  0  0  0  0  0  0  0
   -3.4442   11.5871   -7.2318 C   0  0  0  0  0  0  0  0  0  0  0  0
   -4.5964   12.3037   -6.9134 C   0  0  0  0  0  0  0  0  0  0  0  0
   -5.8531   11.7536   -7.1622 C   0  0  0  0  0  0  0  0  0  0  0  0
   -2.1000   12.1772   -6.9659 C   0  0  0  0  0  0  0  0  0  0  0  0
   -1.7711   13.4213   -6.4318 C   0  0  0  0  0  0  0  0  0  0  0  0
   -0.4319   13.4866   -6.3915 N   0  0  0  0  0  0  0  0  0  0  0  0
    0.1707   12.4146   -6.8487 N   0  0  0  0  0  0  0  0  0  0  0  0
   -0.8042   11.5996   -7.2054 C   0  0  0  0  0  0  0  0  0  0  0  0
    0.3852   14.5927   -5.9060 C   0  0  0  0  0  0  0  0  0  0  0  0
   -3.7189   12.5724  -10.8441 C   0  0  0  0  0  0  0  0  0  0  0  0
   -2.2354   12.9457  -10.9732 C   0  0  0  0  0  0  0  0  0  0  0  0
   -2.1905   14.4637  -10.9533 C   0  0  0  0  0  0  0  0  0  0  0  0
   -3.5123   14.9092  -11.5998 C   0  0  0  0  0  0  0  0  0  0  0  0
   -1.7098   12.4700  -12.1164 F   0  0  0  0  0  0  0  0  0  0  0  0
   -1.5166   12.4356   -9.9564 F   0  0  0  0  0  0  0  0  0  0  0  0
   -5.5036   11.6144  -10.3492 H   0  0  0  0  0  0  0  0  0  0  0  0
   -7.0106   12.5624  -10.1105 H   0  0  0  0  0  0  0  0  0  0  0  0
   -8.1756   10.1191  -13.8942 H   0  0  0  0  0  0  0  0  0  0  0  0
   -6.8889   12.2463  -14.0896 H   0  0  0  0  0  0  0  0  0  0  0  0
   -8.0383    9.6050   -7.2579 H   0  0  0  0  0  0  0  0  0  0  0  0
   -4.8931    8.7825   -8.4921 H   0  0  0  0  0  0  0  0  0  0  0  0
   -2.6611    9.7559   -8.0481 H   0  0  0  0  0  0  0  0  0  0  0  0
   -4.5156   13.2866   -6.4733 H   0  0  0  0  0  0  0  0  0  0  0  0
   -6.3768   12.4508   -7.8327 H   0  0  0  0  0  0  0  0  0  0  0  0
   -6.3770   11.7109   -6.1959 H   0  0  0  0  0  0  0  0  0  0  0  0
   -2.4623   14.1868   -6.1115 H   0  0  0  0  0  0  0  0  0  0  0  0
   -0.6481   10.6174   -7.6264 H   0  0  0  0  0  0  0  0  0  0  0  0
    1.4497   14.3348   -6.0072 H   0  0  0  0  0  0  0  0  0  0  0  0
    0.1689   15.4951   -6.4967 H   0  0  0  0  0  0  0  0  0  0  0  0
    0.1531   14.7829   -4.8477 H   0  0  0  0  0  0  0  0  0  0  0  0
   -4.0230   12.4902   -9.7902 H   0  0  0  0  0  0  0  0  0  0  0  0
   -3.9436   11.6300  -11.3651 H   0  0  0  0  0  0  0  0  0  0  0  0
   -2.1210   14.8350   -9.9202 H   0  0  0  0  0  0  0  0  0  0  0  0
   -1.3323   14.8328  -11.5341 H   0  0  0  0  0  0  0  0  0  0  0  0
   -3.3578   15.1968  -12.6502 H   0  0  0  0  0  0  0  0  0  0  0  0
   -3.9532   15.7535  -11.0495 H   0  0  0  0  0  0  0  0  0  0  0  0
  1  2  1  0  0  0  0
  1  4  2  0  0  0  0
  1 12  1  0  0  0  0
  2  6  1  0  0  0  0
  3  4  1  0  0  0  0
  3  5  2  0  0  0  0
  5  6  1  0  0  0  0
  5  9  1  0  0  0  0
  6  7  2  0  0  0  0
  7  8  1  0  0  0  0
  7 10  1  0  0  0  0
  8  9  2  0  0  0  0
 10 14  2  3  0  0  0
 11 12  1  0  0  0  0
 11 26  1  0  0  0  0
 11 29  1  0  0  0  0
 12 13  2  0  0  0  0
 14 15  1  0  0  0  0
 14 19  1  0  0  0  0
 15 16  2  0  0  0  0
 16 17  1  0  0  0  0
 17 18  2  0  0  0  0
 17 20  1  0  0  0  0
 18 19  1  0  0  0  0
 20 21  2  0  0  0  0
 20 24  1  0  0  0  0
 21 22  1  0  0  0  0
 22 23  1  0  0  0  0
 22 25  1  0  0  0  0
 23 24  2  0  0  0  0
 26 27  1  0  0  0  0
 27 28  1  0  0  0  0
 27 30  1  0  0  0  0
 27 31  1  0  0  0  0
 28 29  1  0  0  0  0
  2 32  1  0  0  0  0
  2 33  1  0  0  0  0
  3 34  1  0  0  0  0
  4 35  1  0  0  0  0
 10 36  1  0  0  0  0
 15 37  1  0  0  0  0
 16 38  1  0  0  0  0
 18 39  1  0  0  0  0
 19 40  1  0  0  0  0
 19 41  1  0  0  0  0
 21 42  1  0  0  0  0
 24 43  1  0  0  0  0
 25 44  1  0  0  0  0
 25 45  1  0  0  0  0
 25 46  1  0  0  0  0
 26 47  1  0  0  0  0
 26 48  1  0  0  0  0
 28 49  1  0  0  0  0
 28 50  1  0  0  0  0
 29 51  1  0  0  0  0
 29 52  1  0  0  0  0
M  END
> <Name>
38

> <IC50[uM]>
0.005

$$$$
38
  -OEChem-05192314333D
 Structure written by MMmdl.
 52 56  0     1  0  0  0  0  0999 V2000
   -6.3676   12.3632  -12.0183 C   0  0  0  0  0  0  0  0  0  0  0  0
   -6.5148   11.8066  -10.7373 C   0  0  0  0  0  0  0  0  0  0  0  0
   -7.7147   10.5754  -13.0306 C   0  0  0  0  0  0  0  0  0  0  0  0
   -6.9819   11.7689  -13.1253 C   0  0  0  0  0  0  0  0  0  0  0  0
   -7.8143   10.0109  -11.7564 C   0  0  0  0  0  0  0  0  0  0  0  0
   -7.2414   10.6177  -10.6023 C   0  0  0  0  0  0  0  0  0  0  0  0
   -7.6126    9.7466   -9.5122 C   0  0  0  0  0  0  0  0  0  0  0  0
   -8.2846    8.7319   -9.9810 N   0  0  0  0  0  0  0  0  0  0  0  0
   -8.4146    8.8618  -11.2972 N   0  0  0  0  0  0  0  0  0  0  0  0
   -7.3363    9.8918   -8.0268 C   0  0  0  0  0  0  0  0  0  0  0  0
   -4.3648   13.7196  -11.5032 N   0  0  3  0  0  0  0  0  0  0  0  0
   -5.5453   13.6325  -12.1937 C   0  0  0  0  0  0  0  0  0  0  0  0
   -5.9402   14.5231  -12.9481 O   0  0  0  0  0  0  0  0  0  0  0  0
   -5.9634   10.4852   -7.7356 C   0  0  0  0  0  0  0  0  0  0  0  0
   -4.8111    9.7655   -8.0524 C   0  0  0  0  0  0  0  0  0  0  0  0
   -3.5521   10.3143   -7.8018 C   0  0  0  0  0  0  0  0  0  0  0  0
   -3.4442   11.5871   -7.2318 C   0  0  0  0  0  0  0  0  0  0  0  0
   -4.5964   12.3037   -6.9134 C   0  0  0  0  0  0  0  0  0  0  0  0
   -5.8531   11.7536   -7.1622 C   0  0  0  0  0  0  0  0  0  0  0  0
   -2.1000   12.1772   -6.9659 C   0  0  0  0  0  0  0  0  0  0  0  0
   -1.7711   13.4213   -6.4318 C   0  0  0  0  0  0  0  0  0  0  0  0
   -0.4319   13.4866   -6.3915 N   0  0  0  0  0  0  0  0  0  0  0  0
    0.1707   12.4146   -6.8487 N   0  0  0  0  0  0  0  0  0  0  0  0
   -0.8042   11.5996   -7.2054 C   0  0  0  0  0  0  0  0  0  0  0  0
    0.3852   14.5927   -5.9060 C   0  0  0  0  0  0  0  0  0  0  0  0
   -3.7189   12.5724  -10.8441 C   0  0  0  0  0  0  0  0  0  0  0  0
   -2.2354   12.9457  -10.9732 C   0  0  0  0  0  0  0  0  0  0  0  0
   -2.1905   14.4637  -10.9533 C   0  0  0  0  0  0  0  0  0  0  0  0
   -3.5123   14.9092  -11.5998 C   0  0  0  0  0  0  0  0  0  0  0  0
   -1.7098   12.4700  -12.1164 F   0  0  0  0  0  0  0  0  0  0  0  0
   -1.5166   12.4356   -9.9564 F   0  0  0  0  0  0  0  0  0  0  0  0
   -6.0766   12.2858   -9.8743 H   0  0  0  0  0  0  0  0  0  0  0  0
   -8.1756   10.1191  -13.8942 H   0  0  0  0  0  0  0  0  0  0  0  0
   -6.8889   12.2463  -14.0896 H   0  0  0  0  0  0  0  0  0  0  0  0
   -8.6453    7.9752   -9.4358 H   0  0  0  0  0  0  0  0  0  0  0  0
   -8.0383    9.6050   -7.2579 H   0  0  0  0  0  0  0  0  0  0  0  0
   -5.3176   15.2407  -12.9448 H   0  0  0  0  0  0  0  0  0  0  0  0
   -4.8931    8.7825   -8.4921 H   0  0  0  0  0  0  0  0  0  0  0  0
   -2.6611    9.7559   -8.0481 H   0  0  0  0  0  0  0  0  0  0  0  0
   -4.5156   13.2866   -6.4733 H   0  0  0  0  0  0  0  0  0  0  0  0
   -6.7439   12.3101   -6.9107 H   0  0  0  0  0  0  0  0  0  0  0  0
   -2.4623   14.1868   -6.1115 H   0  0  0  0  0  0  0  0  0  0  0  0
   -0.6481   10.6174   -7.6264 H   0  0  0  0  0  0  0  0  0  0  0  0
    1.4497   14.3348   -6.0072 H   0  0  0  0  0  0  0  0  0  0  0  0
    0.1689   15.4951   -6.4967 H   0  0  0  0  0  0  0  0  0  0  0  0
    0.1531   14.7829   -4.8477 H   0  0  0  0  0  0  0  0  0  0  0  0
   -4.0230   12.4902   -9.7902 H   0  0  0  0  0  0  0  0  0  0  0  0
   -3.9436   11.6300  -11.3651 H   0  0  0  0  0  0  0  0  0  0  0  0
   -2.1210   14.8350   -9.9202 H   0  0  0  0  0  0  0  0  0  0  0  0
   -1.3323   14.8328  -11.5341 H   0  0  0  0  0  0  0  0  0  0  0  0
   -3.3578   15.1968  -12.6502 H   0  0  0  0  0  0  0  0  0  0  0  0
   -3.9532   15.7535  -11.0495 H   0  0  0  0  0  0  0  0  0  0  0  0
  1  2  1  0  0  0  0
  1  4  1  0  0  0  0
  1 12  2  3  0  0  0
  2  6  2  0  0  0  0
  3  4  2  0  0  0  0
  3  5  1  0  0  0  0
  5  6  1  0  0  0  0
  5  9  2  0  0  0  0
  6  7  1  0  0  0  0
  7  8  1  0  0  0  0
  7 10  2  3  0  0  0
  8  9  1  0  0  0  0
 10 14  1  0  0  0  0
 11 12  1  0  0  0  0
 11 26  1  0  0  0  0
 11 29  1  0  0  0  0
 12 13  1  0  0  0  0
 14 15  2  0  0  0  0
 14 19  1  0  0  0  0
 15 16  1  0  0  0  0
 16 17  2  0  0  0  0
 17 18  1  0  0  0  0
 17 20  1  0  0  0  0
 18 19  2  0  0  0  0
 20 21  2  0  0  0  0
 20 24  1  0  0  0  0
 21 22  1  0  0  0  0
 22 23  1  0  0  0  0
 22 25  1  0  0  0  0
 23 24  2  0  0  0  0
 26 27  1  0  0  0  0
 27 28  1  0  0  0  0
 27 30  1  0  0  0  0
 27 31  1  0  0  0  0
 28 29  1  0  0  0  0
  2 32  1  0  0  0  0
  3 33  1  0  0  0  0
  4 34  1  0  0  0  0
  8 35  1  0  0  0  0
 10 36  1  0  0  0  0
 13 37  1  0  0  0  0
 15 38  1  0  0  0  0
 16 39  1  0  0  0  0
 18 40  1  0  0  0  0
 19 41  1  0  0  0  0
 21 42  1  0  0  0  0
 24 43  1  0  0  0  0
 25 44  1  0  0  0  0
 25 45  1  0  0  0  0
 25 46  1  0  0  0  0
 26 47  1  0  0  0  0
 26 48  1  0  0  0  0
 28 49  1  0  0  0  0
 28 50  1  0  0  0  0
 29 51  1  0  0  0  0
 29 52  1  0  0  0  0
M  END
> <Name>
38

> <IC50[uM]>
0.005

$$$$
38
  -OEChem-05192314333D
 Structure written by MMmdl.
 52 56  0     1  0  0  0  0  0999 V2000
   -6.3676   12.3632  -12.0183 C   0  0  0  0  0  0  0  0  0  0  0  0
   -6.5148   11.8066  -10.7373 C   0  0  0  0  0  0  0  0  0  0  0  0
   -7.7147   10.5754  -13.0306 C   0  0  0  0  0  0  0  0  0  0  0  0
   -6.9819   11.7689  -13.1253 C   0  0  0  0  0  0  0  0  0  0  0  0
   -7.8143   10.0109  -11.7564 C   0  0  0  0  0  0  0  0  0  0  0  0
   -7.2414   10.6177  -10.6023 C   0  0  0  0  0  0  0  0  0  0  0  0
   -7.6126    9.7466   -9.5122 C   0  0  0  0  0  0  0  0  0  0  0  0
   -8.2846    8.7319   -9.9810 N   0  0  0  0  0  0  0  0  0  0  0  0
   -8.4146    8.8618  -11.2972 N   0  0  0  0  0  0  0  0  0  0  0  0
   -7.3363    9.8918   -8.0268 C   0  0  0  0  0  0  0  0  0  0  0  0
   -4.3648   13.7196  -11.5032 N   0  0  3  0  0  0  0  0  0  0  0  0
   -5.5453   13.6325  -12.1937 C   0  0  3  0  0  0  0  0  0  0  0  0
   -5.9402   14.5231  -12.9481 O   0  0  0  0  0  0  0  0  0  0  0  0
   -5.9634   10.4852   -7.7356 C   0  0  0  0  0  0  0  0  0  0  0  0
   -4.8111    9.7655   -8.0524 C   0  0  0  0  0  0  0  0  0  0  0  0
   -3.5521   10.3143   -7.8018 C   0  0  0  0  0  0  0  0  0  0  0  0
   -3.4442   11.5871   -7.2318 C   0  0  0  0  0  0  0  0  0  0  0  0
   -4.5964   12.3037   -6.9134 C   0  0  0  0  0  0  0  0  0  0  0  0
   -5.8531   11.7536   -7.1622 C   0  0  0  0  0  0  0  0  0  0  0  0
   -2.1000   12.1772   -6.9659 C   0  0  0  0  0  0  0  0  0  0  0  0
   -1.7711   13.4213   -6.4318 C   0  0  0  0  0  0  0  0  0  0  0  0
   -0.4319   13.4866   -6.3915 N   0  0  0  0  0  0  0  0  0  0  0  0
    0.1707   12.4146   -6.8487 N   0  0  0  0  0  0  0  0  0  0  0  0
   -0.8042   11.5996   -7.2054 C   0  0  0  0  0  0  0  0  0  0  0  0
    0.3852   14.5927   -5.9060 C   0  0  0  0  0  0  0  0  0  0  0  0
   -3.7189   12.5724  -10.8441 C   0  0  0  0  0  0  0  0  0  0  0  0
   -2.2354   12.9457  -10.9732 C   0  0  0  0  0  0  0  0  0  0  0  0
   -2.1905   14.4637  -10.9533 C   0  0  0  0  0  0  0  0  0  0  0  0
   -3.5123   14.9092  -11.5998 C   0  0  0  0  0  0  0  0  0  0  0  0
   -1.7098   12.4700  -12.1164 F   0  0  0  0  0  0  0  0  0  0  0  0
   -1.5166   12.4356   -9.9564 F   0  0  0  0  0  0  0  0  0  0  0  0
   -6.0766   12.2858   -9.8743 H   0  0  0  0  0  0  0  0  0  0  0  0
   -8.1756   10.1191  -13.8942 H   0  0  0  0  0  0  0  0  0  0  0  0
   -6.8889   12.2463  -14.0896 H   0  0  0  0  0  0  0  0  0  0  0  0
   -8.0383    9.6050   -7.2579 H   0  0  0  0  0  0  0  0  0  0  0  0
   -6.0782   14.1000  -11.3526 H   0  0  0  0  0  0  0  0  0  0  0  0
   -5.3176   15.2407  -12.9448 H   0  0  0  0  0  0  0  0  0  0  0  0
   -4.8931    8.7825   -8.4921 H   0  0  0  0  0  0  0  0  0  0  0  0
   -2.6611    9.7559   -8.0481 H   0  0  0  0  0  0  0  0  0  0  0  0
   -4.5156   13.2866   -6.4733 H   0  0  0  0  0  0  0  0  0  0  0  0
   -6.7439   12.3101   -6.9107 H   0  0  0  0  0  0  0  0  0  0  0  0
   -2.4623   14.1868   -6.1115 H   0  0  0  0  0  0  0  0  0  0  0  0
   -0.6481   10.6174   -7.6264 H   0  0  0  0  0  0  0  0  0  0  0  0
    1.4497   14.3348   -6.0072 H   0  0  0  0  0  0  0  0  0  0  0  0
    0.1689   15.4951   -6.4967 H   0  0  0  0  0  0  0  0  0  0  0  0
    0.1531   14.7829   -4.8477 H   0  0  0  0  0  0  0  0  0  0  0  0
   -4.0230   12.4902   -9.7902 H   0  0  0  0  0  0  0  0  0  0  0  0
   -3.9436   11.6300  -11.3651 H   0  0  0  0  0  0  0  0  0  0  0  0
   -2.1210   14.8350   -9.9202 H   0  0  0  0  0  0  0  0  0  0  0  0
   -1.3323   14.8328  -11.5341 H   0  0  0  0  0  0  0  0  0  0  0  0
   -3.3578   15.1968  -12.6502 H   0  0  0  0  0  0  0  0  0  0  0  0
   -3.9532   15.7535  -11.0495 H   0  0  0  0  0  0  0  0  0  0  0  0
  1  2  2  0  0  0  0
  1  4  1  0  0  0  0
  1 12  1  0  0  0  0
  2  6  1  0  0  0  0
  3  4  2  0  0  0  0
  3  5  1  0  0  0  0
  5  6  2  0  0  0  0
  5  9  1  0  0  0  0
  6  7  1  0  0  0  0
  7  8  1  0  0  0  0
  7 10  2  3  0  0  0
  8  9  2  0  0  0  0
 10 14  1  0  0  0  0
 11 12  1  0  0  0  0
 11 26  1  0  0  0  0
 11 29  1  0  0  0  0
 12 13  1  0  0  0  0
 14 15  2  0  0  0  0
 14 19  1  0  0  0  0
 15 16  1  0  0  0  0
 16 17  2  0  0  0  0
 17 18  1  0  0  0  0
 17 20  1  0  0  0  0
 18 19  2  0  0  0  0
 20 21  2  0  0  0  0
 20 24  1  0  0  0  0
 21 22  1  0  0  0  0
 22 23  1  0  0  0  0
 22 25  1  0  0  0  0
 23 24  2  0  0  0  0
 26 27  1  0  0  0  0
 27 28  1  0  0  0  0
 27 30  1  0  0  0  0
 27 31  1  0  0  0  0
 28 29  1  0  0  0  0
  2 32  1  0  0  0  0
  3 33  1  0  0  0  0
  4 34  1  0  0  0  0
 10 35  1  0  0  0  0
 12 36  1  0  0  0  0
 13 37  1  0  0  0  0
 15 38  1  0  0  0  0
 16 39  1  0  0  0  0
 18 40  1  0  0  0  0
 19 41  1  0  0  0  0
 21 42  1  0  0  0  0
 24 43  1  0  0  0  0
 25 44  1  0  0  0  0
 25 45  1  0  0  0  0
 25 46  1  0  0  0  0
 26 47  1  0  0  0  0
 26 48  1  0  0  0  0
 28 49  1  0  0  0  0
 28 50  1  0  0  0  0
 29 51  1  0  0  0  0
 29 52  1  0  0  0  0
M  END
> <Name>
38

> <IC50[uM]>
0.005

$$$$
38
  -OEChem-05192314333D
 Structure written by MMmdl.
 52 56  0     1  0  0  0  0  0999 V2000
   -6.3676   12.3632  -12.0183 C   0  0  0  0  0  0  0  0  0  0  0  0
   -6.5148   11.8066  -10.7373 C   0  0  0  0  0  0  0  0  0  0  0  0
   -7.7147   10.5754  -13.0306 C   0  0  0  0  0  0  0  0  0  0  0  0
   -6.9819   11.7689  -13.1253 C   0  0  0  0  0  0  0  0  0  0  0  0
   -7.8143   10.0109  -11.7564 C   0  0  0  0  0  0  0  0  0  0  0  0
   -7.2414   10.6177  -10.6023 C   0  0  0  0  0  0  0  0  0  0  0  0
   -7.6126    9.7466   -9.5122 C   0  0  0  0  0  0  0  0  0  0  0  0
   -8.2846    8.7319   -9.9810 N   0  0  0  0  0  0  0  0  0  0  0  0
   -8.4146    8.8618  -11.2972 N   0  0  0  0  0  0  0  0  0  0  0  0
   -7.3363    9.8918   -8.0268 C   0  0  0  0  0  0  0  0  0  0  0  0
   -4.3648   13.7196  -11.5032 N   0  0  3  0  0  0  0  0  0  0  0  0
   -5.5453   13.6325  -12.1937 C   0  0  0  0  0  0  0  0  0  0  0  0
   -5.9402   14.5231  -12.9481 O   0  0  0  0  0  0  0  0  0  0  0  0
   -5.9634   10.4852   -7.7356 C   0  0  0  0  0  0  0  0  0  0  0  0
   -4.8111    9.7655   -8.0524 C   0  0  0  0  0  0  0  0  0  0  0  0
   -3.5521   10.3143   -7.8018 C   0  0  0  0  0  0  0  0  0  0  0  0
   -3.4442   11.5871   -7.2318 C   0  0  0  0  0  0  0  0  0  0  0  0
   -4.5964   12.3037   -6.9134 C   0  0  0  0  0  0  0  0  0  0  0  0
   -5.8531   11.7536   -7.1622 C   0  0  0  0  0  0  0  0  0  0  0  0
   -2.1000   12.1772   -6.9659 C   0  0  0  0  0  0  0  0  0  0  0  0
   -1.7711   13.4213   -6.4318 C   0  0  0  0  0  0  0  0  0  0  0  0
   -0.4319   13.4866   -6.3915 N   0  0  0  0  0  0  0  0  0  0  0  0
    0.1707   12.4146   -6.8487 N   0  0  0  0  0  0  0  0  0  0  0  0
   -0.8042   11.5996   -7.2054 C   0  0  0  0  0  0  0  0  0  0  0  0
    0.3852   14.5927   -5.9060 C   0  0  0  0  0  0  0  0  0  0  0  0
   -3.7189   12.5724  -10.8441 C   0  0  0  0  0  0  0  0  0  0  0  0
   -2.2354   12.9457  -10.9732 C   0  0  0  0  0  0  0  0  0  0  0  0
   -2.1905   14.4637  -10.9533 C   0  0  0  0  0  0  0  0  0  0  0  0
   -3.5123   14.9092  -11.5998 C   0  0  0  0  0  0  0  0  0  0  0  0
   -1.7098   12.4700  -12.1164 F   0  0  0  0  0  0  0  0  0  0  0  0
   -1.5166   12.4356   -9.9564 F   0  0  0  0  0  0  0  0  0  0  0  0
   -6.0766   12.2858   -9.8743 H   0  0  0  0  0  0  0  0  0  0  0  0
   -8.1756   10.1191  -13.8942 H   0  0  0  0  0  0  0  0  0  0  0  0
   -6.8889   12.2463  -14.0896 H   0  0  0  0  0  0  0  0  0  0  0  0
   -8.1027   10.5486   -7.5895 H   0  0  0  0  0  0  0  0  0  0  0  0
   -7.3955    8.8977   -7.5597 H   0  0  0  0  0  0  0  0  0  0  0  0
   -5.3176   15.2407  -12.9448 H   0  0  0  0  0  0  0  0  0  0  0  0
   -4.8931    8.7825   -8.4921 H   0  0  0  0  0  0  0  0  0  0  0  0
   -2.6611    9.7559   -8.0481 H   0  0  0  0  0  0  0  0  0  0  0  0
   -4.5156   13.2866   -6.4733 H   0  0  0  0  0  0  0  0  0  0  0  0
   -6.7439   12.3101   -6.9107 H   0  0  0  0  0  0  0  0  0  0  0  0
   -2.4623   14.1868   -6.1115 H   0  0  0  0  0  0  0  0  0  0  0  0
   -0.6481   10.6174   -7.6264 H   0  0  0  0  0  0  0  0  0  0  0  0
    1.4497   14.3348   -6.0072 H   0  0  0  0  0  0  0  0  0  0  0  0
    0.1689   15.4951   -6.4967 H   0  0  0  0  0  0  0  0  0  0  0  0
    0.1531   14.7829   -4.8477 H   0  0  0  0  0  0  0  0  0  0  0  0
   -4.0230   12.4902   -9.7902 H   0  0  0  0  0  0  0  0  0  0  0  0
   -3.9436   11.6300  -11.3651 H   0  0  0  0  0  0  0  0  0  0  0  0
   -2.1210   14.8350   -9.9202 H   0  0  0  0  0  0  0  0  0  0  0  0
   -1.3323   14.8328  -11.5341 H   0  0  0  0  0  0  0  0  0  0  0  0
   -3.3578   15.1968  -12.6502 H   0  0  0  0  0  0  0  0  0  0  0  0
   -3.9532   15.7535  -11.0495 H   0  0  0  0  0  0  0  0  0  0  0  0
  1  2  1  0  0  0  0
  1  4  1  0  0  0  0
  1 12  2  3  0  0  0
  2  6  2  0  0  0  0
  3  4  2  0  0  0  0
  3  5  1  0  0  0  0
  5  6  1  0  0  0  0
  5  9  2  0  0  0  0
  6  7  1  0  0  0  0
  7  8  2  0  0  0  0
  7 10  1  0  0  0  0
  8  9  1  0  0  0  0
 10 14  1  0  0  0  0
 11 12  1  0  0  0  0
 11 26  1  0  0  0  0
 11 29  1  0  0  0  0
 12 13  1  0  0  0  0
 14 15  2  0  0  0  0
 14 19  1  0  0  0  0
 15 16  1  0  0  0  0
 16 17  2  0  0  0  0
 17 18  1  0  0  0  0
 17 20  1  0  0  0  0
 18 19  2  0  0  0  0
 20 21  2  0  0  0  0
 20 24  1  0  0  0  0
 21 22  1  0  0  0  0
 22 23  1  0  0  0  0
 22 25  1  0  0  0  0
 23 24  2  0  0  0  0
 26 27  1  0  0  0  0
 27 28  1  0  0  0  0
 27 30  1  0  0  0  0
 27 31  1  0  0  0  0
 28 29  1  0  0  0  0
  2 32  1  0  0  0  0
  3 33  1  0  0  0  0
  4 34  1  0  0  0  0
 10 35  1  0  0  0  0
 10 36  1  0  0  0  0
 13 37  1  0  0  0  0
 15 38  1  0  0  0  0
 16 39  1  0  0  0  0
 18 40  1  0  0  0  0
 19 41  1  0  0  0  0
 21 42  1  0  0  0  0
 24 43  1  0  0  0  0
 25 44  1  0  0  0  0
 25 45  1  0  0  0  0
 25 46  1  0  0  0  0
 26 47  1  0  0  0  0
 26 48  1  0  0  0  0
 28 49  1  0  0  0  0
 28 50  1  0  0  0  0
 29 51  1  0  0  0  0
 29 52  1  0  0  0  0
M  END
> <Name>
38

> <IC50[uM]>
0.005

$$$$
38
  -OEChem-05192314333D
 Structure written by MMmdl.
 52 56  0     1  0  0  0  0  0999 V2000
   -6.3676   12.3632  -12.0183 C   0  0  0  0  0  0  0  0  0  0  0  0
   -6.5148   11.8066  -10.7373 C   0  0  0  0  0  0  0  0  0  0  0  0
   -7.7147   10.5754  -13.0306 C   0  0  0  0  0  0  0  0  0  0  0  0
   -6.9819   11.7689  -13.1253 C   0  0  0  0  0  0  0  0  0  0  0  0
   -7.8143   10.0109  -11.7564 C   0  0  0  0  0  0  0  0  0  0  0  0
   -7.2414   10.6177  -10.6023 C   0  0  0  0  0  0  0  0  0  0  0  0
   -7.6126    9.7466   -9.5122 C   0  0  0  0  0  0  0  0  0  0  0  0
   -8.2846    8.7319   -9.9810 N   0  0  0  0  0  0  0  0  0  0  0  0
   -8.4146    8.8618  -11.2972 N   0  0  0  0  0  0  0  0  0  0  0  0
   -7.3363    9.8918   -8.0268 C   0  0  0  0  0  0  0  0  0  0  0  0
   -4.3648   13.7196  -11.5032 N   0  0  3  0  0  0  0  0  0  0  0  0
   -5.5453   13.6325  -12.1937 C   0  0  0  0  0  0  0  0  0  0  0  0
   -5.9402   14.5231  -12.9481 O   0  0  0  0  0  0  0  0  0  0  0  0
   -5.9634   10.4852   -7.7356 C   0  0  0  0  0  0  0  0  0  0  0  0
   -4.8111    9.7655   -8.0524 C   0  0  0  0  0  0  0  0  0  0  0  0
   -3.5521   10.3143   -7.8018 C   0  0  0  0  0  0  0  0  0  0  0  0
   -3.4442   11.5871   -7.2318 C   0  0  0  0  0  0  0  0  0  0  0  0
   -4.5964   12.3037   -6.9134 C   0  0  0  0  0  0  0  0  0  0  0  0
   -5.8531   11.7536   -7.1622 C   0  0  0  0  0  0  0  0  0  0  0  0
   -2.1000   12.1772   -6.9659 C   0  0  0  0  0  0  0  0  0  0  0  0
   -1.7711   13.4213   -6.4318 C   0  0  0  0  0  0  0  0  0  0  0  0
   -0.4319   13.4866   -6.3915 N   0  0  3  0  0  0  0  0  0  0  0  0
    0.1707   12.4146   -6.8487 N   0  0  0  0  0  0  0  0  0  0  0  0
   -0.8042   11.5996   -7.2054 C   0  0  0  0  0  0  0  0  0  0  0  0
    0.3852   14.5927   -5.9060 C   0  0  0  0  0  0  0  0  0  0  0  0
   -3.7189   12.5724  -10.8441 C   0  0  0  0  0  0  0  0  0  0  0  0
   -2.2354   12.9457  -10.9732 C   0  0  0  0  0  0  0  0  0  0  0  0
   -2.1905   14.4637  -10.9533 C   0  0  0  0  0  0  0  0  0  0  0  0
   -3.5123   14.9092  -11.5998 C   0  0  0  0  0  0  0  0  0  0  0  0
   -1.7098   12.4700  -12.1164 F   0  0  0  0  0  0  0  0  0  0  0  0
   -1.5166   12.4356   -9.9564 F   0  0  0  0  0  0  0  0  0  0  0  0
   -6.0766   12.2858   -9.8743 H   0  0  0  0  0  0  0  0  0  0  0  0
   -8.1756   10.1191  -13.8942 H   0  0  0  0  0  0  0  0  0  0  0  0
   -6.8889   12.2463  -14.0896 H   0  0  0  0  0  0  0  0  0  0  0  0
   -8.0383    9.6050   -7.2579 H   0  0  0  0  0  0  0  0  0  0  0  0
   -5.3176   15.2407  -12.9448 H   0  0  0  0  0  0  0  0  0  0  0  0
   -4.8931    8.7825   -8.4921 H   0  0  0  0  0  0  0  0  0  0  0  0
   -2.6611    9.7559   -8.0481 H   0  0  0  0  0  0  0  0  0  0  0  0
   -4.5156   13.2866   -6.4733 H   0  0  0  0  0  0  0  0  0  0  0  0
   -6.7439   12.3101   -6.9107 H   0  0  0  0  0  0  0  0  0  0  0  0
   -2.1699   14.2240   -7.0694 H   0  0  0  0  0  0  0  0  0  0  0  0
   -2.1852   13.5189   -5.4174 H   0  0  0  0  0  0  0  0  0  0  0  0
   -0.6481   10.6174   -7.6264 H   0  0  0  0  0  0  0  0  0  0  0  0
    1.4497   14.3348   -6.0072 H   0  0  0  0  0  0  0  0  0  0  0  0
    0.1689   15.4951   -6.4967 H   0  0  0  0  0  0  0  0  0  0  0  0
    0.1531   14.7829   -4.8477 H   0  0  0  0  0  0  0  0  0  0  0  0
   -4.0230   12.4902   -9.7902 H   0  0  0  0  0  0  0  0  0  0  0  0
   -3.9436   11.6300  -11.3651 H   0  0  0  0  0  0  0  0  0  0  0  0
   -2.1210   14.8350   -9.9202 H   0  0  0  0  0  0  0  0  0  0  0  0
   -1.3323   14.8328  -11.5341 H   0  0  0  0  0  0  0  0  0  0  0  0
   -3.3578   15.1968  -12.6502 H   0  0  0  0  0  0  0  0  0  0  0  0
   -3.9532   15.7535  -11.0495 H   0  0  0  0  0  0  0  0  0  0  0  0
  1  2  1  0  0  0  0
  1  4  1  0  0  0  0
  1 12  2  3  0  0  0
  2  6  2  0  0  0  0
  3  4  2  0  0  0  0
  3  5  1  0  0  0  0
  5  6  1  0  0  0  0
  5  9  2  0  0  0  0
  6  7  1  0  0  0  0
  7  8  2  0  0  0  0
  7 10  1  0  0  0  0
  8  9  1  0  0  0  0
 10 14  2  0  0  0  0
 11 12  1  0  0  0  0
 11 26  1  0  0  0  0
 11 29  1  0  0  0  0
 12 13  1  0  0  0  0
 14 15  1  0  0  0  0
 14 19  1  0  0  0  0
 15 16  2  0  0  0  0
 16 17  1  0  0  0  0
 17 18  1  0  0  0  0
 17 20  2  0  0  0  0
 18 19  2  0  0  0  0
 20 21  1  0  0  0  0
 20 24  1  0  0  0  0
 21 22  1  0  0  0  0
 22 23  1  0  0  0  0
 22 25  1  0  0  0  0
 23 24  2  0  0  0  0
 26 27  1  0  0  0  0
 27 28  1  0  0  0  0
 27 30  1  0  0  0  0
 27 31  1  0  0  0  0
 28 29  1  0  0  0  0
  2 32  1  0  0  0  0
  3 33  1  0  0  0  0
  4 34  1  0  0  0  0
 10 35  1  0  0  0  0
 13 36  1  0  0  0  0
 15 37  1  0  0  0  0
 16 38  1  0  0  0  0
 18 39  1  0  0  0  0
 19 40  1  0  0  0  0
 21 41  1  0  0  0  0
 21 42  1  0  0  0  0
 24 43  1  0  0  0  0
 25 44  1  0  0  0  0
 25 45  1  0  0  0  0
 25 46  1  0  0  0  0
 26 47  1  0  0  0  0
 26 48  1  0  0  0  0
 28 49  1  0  0  0  0
 28 50  1  0  0  0  0
 29 51  1  0  0  0  0
 29 52  1  0  0  0  0
M  END
> <Name>
38

> <IC50[uM]>
0.005

$$$$
38
  -OEChem-05192314333D
 Structure written by MMmdl.
 52 56  0     1  0  0  0  0  0999 V2000
   -6.3676   12.3632  -12.0183 C   0  0  0  0  0  0  0  0  0  0  0  0
   -6.5148   11.8066  -10.7373 C   0  0  0  0  0  0  0  0  0  0  0  0
   -7.7147   10.5754  -13.0306 C   0  0  0  0  0  0  0  0  0  0  0  0
   -6.9819   11.7689  -13.1253 C   0  0  0  0  0  0  0  0  0  0  0  0
   -7.8143   10.0109  -11.7564 C   0  0  3  0  0  0  0  0  0  0  0  0
   -7.2414   10.6177  -10.6023 C   0  0  0  0  0  0  0  0  0  0  0  0
   -7.6126    9.7466   -9.5122 C   0  0  0  0  0  0  0  0  0  0  0  0
   -8.2846    8.7319   -9.9810 N   0  0  0  0  0  0  0  0  0  0  0  0
   -8.4146    8.8618  -11.2972 N   0  0  0  0  0  0  0  0  0  0  0  0
   -7.3363    9.8918   -8.0268 C   0  0  0  0  0  0  0  0  0  0  0  0
   -4.3648   13.7196  -11.5032 N   0  0  3  0  0  0  0  0  0  0  0  0
   -5.5453   13.6325  -12.1937 C   0  0  0  0  0  0  0  0  0  0  0  0
   -5.9402   14.5231  -12.9481 O   0  0  0  0  0  0  0  0  0  0  0  0
   -5.9634   10.4852   -7.7356 C   0  0  0  0  0  0  0  0  0  0  0  0
   -4.8111    9.7655   -8.0524 C   0  0  0  0  0  0  0  0  0  0  0  0
   -3.5521   10.3143   -7.8018 C   0  0  0  0  0  0  0  0  0  0  0  0
   -3.4442   11.5871   -7.2318 C   0  0  0  0  0  0  0  0  0  0  0  0
   -4.5964   12.3037   -6.9134 C   0  0  0  0  0  0  0  0  0  0  0  0
   -5.8531   11.7536   -7.1622 C   0  0  0  0  0  0  0  0  0  0  0  0
   -2.1000   12.1772   -6.9659 C   0  0  0  0  0  0  0  0  0  0  0  0
   -1.7711   13.4213   -6.4318 C   0  0  0  0  0  0  0  0  0  0  0  0
   -0.4319   13.4866   -6.3915 N   0  0  0  0  0  0  0  0  0  0  0  0
    0.1707   12.4146   -6.8487 N   0  0  0  0  0  0  0  0  0  0  0  0
   -0.8042   11.5996   -7.2054 C   0  0  0  0  0  0  0  0  0  0  0  0
    0.3852   14.5927   -5.9060 C   0  0  0  0  0  0  0  0  0  0  0  0
   -3.7189   12.5724  -10.8441 C   0  0  0  0  0  0  0  0  0  0  0  0
   -2.2354   12.9457  -10.9732 C   0  0  0  0  0  0  0  0  0  0  0  0
   -2.1905   14.4637  -10.9533 C   0  0  0  0  0  0  0  0  0  0  0  0
   -3.5123   14.9092  -11.5998 C   0  0  0  0  0  0  0  0  0  0  0  0
   -1.7098   12.4700  -12.1164 F   0  0  0  0  0  0  0  0  0  0  0  0
   -1.5166   12.4356   -9.9564 F   0  0  0  0  0  0  0  0  0  0  0  0
   -6.0766   12.2858   -9.8743 H   0  0  0  0  0  0  0  0  0  0  0  0
   -8.1756   10.1191  -13.8942 H   0  0  0  0  0  0  0  0  0  0  0  0
   -6.8889   12.2463  -14.0896 H   0  0  0  0  0  0  0  0  0  0  0  0
   -6.8807    9.4553  -11.9287 H   0  0  0  0  0  0  0  0  0  0  0  0
   -8.0383    9.6050   -7.2579 H   0  0  0  0  0  0  0  0  0  0  0  0
   -5.3176   15.2407  -12.9448 H   0  0  0  0  0  0  0  0  0  0  0  0
   -4.8931    8.7825   -8.4921 H   0  0  0  0  0  0  0  0  0  0  0  0
   -2.6611    9.7559   -8.0481 H   0  0  0  0  0  0  0  0  0  0  0  0
   -4.5156   13.2866   -6.4733 H   0  0  0  0  0  0  0  0  0  0  0  0
   -6.7439   12.3101   -6.9107 H   0  0  0  0  0  0  0  0  0  0  0  0
   -2.4623   14.1868   -6.1115 H   0  0  0  0  0  0  0  0  0  0  0  0
   -0.6481   10.6174   -7.6264 H   0  0  0  0  0  0  0  0  0  0  0  0
    1.4497   14.3348   -6.0072 H   0  0  0  0  0  0  0  0  0  0  0  0
    0.1689   15.4951   -6.4967 H   0  0  0  0  0  0  0  0  0  0  0  0
    0.1531   14.7829   -4.8477 H   0  0  0  0  0  0  0  0  0  0  0  0
   -4.0230   12.4902   -9.7902 H   0  0  0  0  0  0  0  0  0  0  0  0
   -3.9436   11.6300  -11.3651 H   0  0  0  0  0  0  0  0  0  0  0  0
   -2.1210   14.8350   -9.9202 H   0  0  0  0  0  0  0  0  0  0  0  0
   -1.3323   14.8328  -11.5341 H   0  0  0  0  0  0  0  0  0  0  0  0
   -3.3578   15.1968  -12.6502 H   0  0  0  0  0  0  0  0  0  0  0  0
   -3.9532   15.7535  -11.0495 H   0  0  0  0  0  0  0  0  0  0  0  0
  1  2  1  0  0  0  0
  1  4  1  0  0  0  0
  1 12  2  3  0  0  0
  2  6  2  0  0  0  0
  3  4  2  0  0  0  0
  3  5  1  0  0  0  0
  5  6  1  0  0  0  0
  5  9  1  0  0  0  0
  6  7  1  0  0  0  0
  7  8  1  0  0  0  0
  7 10  2  3  0  0  0
  8  9  2  0  0  0  0
 10 14  1  0  0  0  0
 11 12  1  0  0  0  0
 11 26  1  0  0  0  0
 11 29  1  0  0  0  0
 12 13  1  0  0  0  0
 14 15  2  0  0  0  0
 14 19  1  0  0  0  0
 15 16  1  0  0  0  0
 16 17  2  0  0  0  0
 17 18  1  0  0  0  0
 17 20  1  0  0  0  0
 18 19  2  0  0  0  0
 20 21  2  0  0  0  0
 20 24  1  0  0  0  0
 21 22  1  0  0  0  0
 22 23  1  0  0  0  0
 22 25  1  0  0  0  0
 23 24  2  0  0  0  0
 26 27  1  0  0  0  0
 27 28  1  0  0  0  0
 27 30  1  0  0  0  0
 27 31  1  0  0  0  0
 28 29  1  0  0  0  0
  2 32  1  0  0  0  0
  3 33  1  0  0  0  0
  4 34  1  0  0  0  0
  5 35  1  0  0  0  0
 10 36  1  0  0  0  0
 13 37  1  0  0  0  0
 15 38  1  0  0  0  0
 16 39  1  0  0  0  0
 18 40  1  0  0  0  0
 19 41  1  0  0  0  0
 21 42  1  0  0  0  0
 24 43  1  0  0  0  0
 25 44  1  0  0  0  0
 25 45  1  0  0  0  0
 25 46  1  0  0  0  0
 26 47  1  0  0  0  0
 26 48  1  0  0  0  0
 28 49  1  0  0  0  0
 28 50  1  0  0  0  0
 29 51  1  0  0  0  0
 29 52  1  0  0  0  0
M  END
> <Name>
38

> <IC50[uM]>
0.005

$$$$
38
  -OEChem-05192314333D
 Structure written by MMmdl.
 52 56  0     1  0  0  0  0  0999 V2000
   -6.3676   12.3632  -12.0183 C   0  0  0  0  0  0  0  0  0  0  0  0
   -6.5148   11.8066  -10.7373 C   0  0  0  0  0  0  0  0  0  0  0  0
   -7.7147   10.5754  -13.0306 C   0  0  0  0  0  0  0  0  0  0  0  0
   -6.9819   11.7689  -13.1253 C   0  0  0  0  0  0  0  0  0  0  0  0
   -7.8143   10.0109  -11.7564 C   0  0  0  0  0  0  0  0  0  0  0  0
   -7.2414   10.6177  -10.6023 C   0  0  0  0  0  0  0  0  0  0  0  0
   -7.6126    9.7466   -9.5122 C   0  0  0  0  0  0  0  0  0  0  0  0
   -8.2846    8.7319   -9.9810 N   0  0  0  0  0  0  0  0  0  0  0  0
   -8.4146    8.8618  -11.2972 N   0  0  0  0  0  0  0  0  0  0  0  0
   -7.3363    9.8918   -8.0268 C   0  0  0  0  0  0  0  0  0  0  0  0
   -4.3648   13.7196  -11.5032 N   0  0  3  0  0  0  0  0  0  0  0  0
   -5.5453   13.6325  -12.1937 C   0  0  0  0  0  0  0  0  0  0  0  0
   -5.9402   14.5231  -12.9481 O   0  0  0  0  0  0  0  0  0  0  0  0
   -5.9634   10.4852   -7.7356 C   0  0  0  0  0  0  0  0  0  0  0  0
   -4.8111    9.7655   -8.0524 C   0  0  0  0  0  0  0  0  0  0  0  0
   -3.5521   10.3143   -7.8018 C   0  0  0  0  0  0  0  0  0  0  0  0
   -3.4442   11.5871   -7.2318 C   0  0  0  0  0  0  0  0  0  0  0  0
   -4.5964   12.3037   -6.9134 C   0  0  0  0  0  0  0  0  0  0  0  0
   -5.8531   11.7536   -7.1622 C   0  0  0  0  0  0  0  0  0  0  0  0
   -2.1000   12.1772   -6.9659 C   0  0  0  0  0  0  0  0  0  0  0  0
   -1.7711   13.4213   -6.4318 C   0  0  0  0  0  0  0  0  0  0  0  0
   -0.4319   13.4866   -6.3915 N   0  0  0  0  0  0  0  0  0  0  0  0
    0.1707   12.4146   -6.8487 N   0  0  0  0  0  0  0  0  0  0  0  0
   -0.8042   11.5996   -7.2054 C   0  0  0  0  0  0  0  0  0  0  0  0
    0.3852   14.5927   -5.9060 C   0  0  0  0  0  0  0  0  0  0  0  0
   -3.7189   12.5724  -10.8441 C   0  0  0  0  0  0  0  0  0  0  0  0
   -2.2354   12.9457  -10.9732 C   0  0  0  0  0  0  0  0  0  0  0  0
   -2.1905   14.4637  -10.9533 C   0  0  0  0  0  0  0  0  0  0  0  0
   -3.5123   14.9092  -11.5998 C   0  0  0  0  0  0  0  0  0  0  0  0
   -1.7098   12.4700  -12.1164 F   0  0  0  0  0  0  0  0  0  0  0  0
   -1.5166   12.4356   -9.9564 F   0  0  0  0  0  0  0  0  0  0  0  0
   -6.0766   12.2858   -9.8743 H   0  0  0  0  0  0  0  0  0  0  0  0
   -8.1756   10.1191  -13.8942 H   0  0  0  0  0  0  0  0  0  0  0  0
   -7.6744   12.5212  -13.5309 H   0  0  0  0  0  0  0  0  0  0  0  0
   -6.1801   11.5781  -13.8538 H   0  0  0  0  0  0  0  0  0  0  0  0
   -8.0383    9.6050   -7.2579 H   0  0  0  0  0  0  0  0  0  0  0  0
   -5.3176   15.2407  -12.9448 H   0  0  0  0  0  0  0  0  0  0  0  0
   -4.8931    8.7825   -8.4921 H   0  0  0  0  0  0  0  0  0  0  0  0
   -2.6611    9.7559   -8.0481 H   0  0  0  0  0  0  0  0  0  0  0  0
   -4.5156   13.2866   -6.4733 H   0  0  0  0  0  0  0  0  0  0  0  0
   -6.7439   12.3101   -6.9107 H   0  0  0  0  0  0  0  0  0  0  0  0
   -2.4623   14.1868   -6.1115 H   0  0  0  0  0  0  0  0  0  0  0  0
   -0.6481   10.6174   -7.6264 H   0  0  0  0  0  0  0  0  0  0  0  0
    1.4497   14.3348   -6.0072 H   0  0  0  0  0  0  0  0  0  0  0  0
    0.1689   15.4951   -6.4967 H   0  0  0  0  0  0  0  0  0  0  0  0
    0.1531   14.7829   -4.8477 H   0  0  0  0  0  0  0  0  0  0  0  0
   -4.0230   12.4902   -9.7902 H   0  0  0  0  0  0  0  0  0  0  0  0
   -3.9436   11.6300  -11.3651 H   0  0  0  0  0  0  0  0  0  0  0  0
   -2.1210   14.8350   -9.9202 H   0  0  0  0  0  0  0  0  0  0  0  0
   -1.3323   14.8328  -11.5341 H   0  0  0  0  0  0  0  0  0  0  0  0
   -3.3578   15.1968  -12.6502 H   0  0  0  0  0  0  0  0  0  0  0  0
   -3.9532   15.7535  -11.0495 H   0  0  0  0  0  0  0  0  0  0  0  0
  1  2  1  0  0  0  0
  1  4  1  0  0  0  0
  1 12  2  3  0  0  0
  2  6  2  0  0  0  0
  3  4  1  0  0  0  0
  3  5  2  0  0  0  0
  5  6  1  0  0  0  0
  5  9  1  0  0  0  0
  6  7  1  0  0  0  0
  7  8  1  0  0  0  0
  7 10  2  3  0  0  0
  8  9  2  0  0  0  0
 10 14  1  0  0  0  0
 11 12  1  0  0  0  0
 11 26  1  0  0  0  0
 11 29  1  0  0  0  0
 12 13  1  0  0  0  0
 14 15  2  0  0  0  0
 14 19  1  0  0  0  0
 15 16  1  0  0  0  0
 16 17  2  0  0  0  0
 17 18  1  0  0  0  0
 17 20  1  0  0  0  0
 18 19  2  0  0  0  0
 20 21  2  0  0  0  0
 20 24  1  0  0  0  0
 21 22  1  0  0  0  0
 22 23  1  0  0  0  0
 22 25  1  0  0  0  0
 23 24  2  0  0  0  0
 26 27  1  0  0  0  0
 27 28  1  0  0  0  0
 27 30  1  0  0  0  0
 27 31  1  0  0  0  0
 28 29  1  0  0  0  0
  2 32  1  0  0  0  0
  3 33  1  0  0  0  0
  4 34  1  0  0  0  0
  4 35  1  0  0  0  0
 10 36  1  0  0  0  0
 13 37  1  0  0  0  0
 15 38  1  0  0  0  0
 16 39  1  0  0  0  0
 18 40  1  0  0  0  0
 19 41  1  0  0  0  0
 21 42  1  0  0  0  0
 24 43  1  0  0  0  0
 25 44  1  0  0  0  0
 25 45  1  0  0  0  0
 25 46  1  0  0  0  0
 26 47  1  0  0  0  0
 26 48  1  0  0  0  0
 28 49  1  0  0  0  0
 28 50  1  0  0  0  0
 29 51  1  0  0  0  0
 29 52  1  0  0  0  0
M  END
> <Name>
38

> <IC50[uM]>
0.005

$$$$
38
  -OEChem-05192314333D
 Structure written by MMmdl.
 52 56  0     1  0  0  0  0  0999 V2000
   -6.3676   12.3632  -12.0183 C   0  0  0  0  0  0  0  0  0  0  0  0
   -6.5148   11.8066  -10.7373 C   0  0  0  0  0  0  0  0  0  0  0  0
   -7.7147   10.5754  -13.0306 C   0  0  0  0  0  0  0  0  0  0  0  0
   -6.9819   11.7689  -13.1253 C   0  0  0  0  0  0  0  0  0  0  0  0
   -7.8143   10.0109  -11.7564 C   0  0  0  0  0  0  0  0  0  0  0  0
   -7.2414   10.6177  -10.6023 C   0  0  0  0  0  0  0  0  0  0  0  0
   -7.6126    9.7466   -9.5122 C   0  0  0  0  0  0  0  0  0  0  0  0
   -8.2846    8.7319   -9.9810 N   0  0  0  0  0  0  0  0  0  0  0  0
   -8.4146    8.8618  -11.2972 N   0  0  0  0  0  0  0  0  0  0  0  0
   -7.3363    9.8918   -8.0268 C   0  0  0  0  0  0  0  0  0  0  0  0
   -4.3648   13.7196  -11.5032 N   0  0  3  0  0  0  0  0  0  0  0  0
   -5.5453   13.6325  -12.1937 C   0  0  0  0  0  0  0  0  0  0  0  0
   -5.9402   14.5231  -12.9481 O   0  0  0  0  0  0  0  0  0  0  0  0
   -5.9634   10.4852   -7.7356 C   0  0  0  0  0  0  0  0  0  0  0  0
   -4.8111    9.7655   -8.0524 C   0  0  0  0  0  0  0  0  0  0  0  0
   -3.5521   10.3143   -7.8018 C   0  0  0  0  0  0  0  0  0  0  0  0
   -3.4442   11.5871   -7.2318 C   0  0  0  0  0  0  0  0  0  0  0  0
   -4.5964   12.3037   -6.9134 C   0  0  0  0  0  0  0  0  0  0  0  0
   -5.8531   11.7536   -7.1622 C   0  0  0  0  0  0  0  0  0  0  0  0
   -2.1000   12.1772   -6.9659 C   0  0  0  0  0  0  0  0  0  0  0  0
   -1.7711   13.4213   -6.4318 C   0  0  0  0  0  0  0  0  0  0  0  0
   -0.4319   13.4866   -6.3915 N   0  0  0  0  0  0  0  0  0  0  0  0
    0.1707   12.4146   -6.8487 N   0  0  0  0  0  0  0  0  0  0  0  0
   -0.8042   11.5996   -7.2054 C   0  0  0  0  0  0  0  0  0  0  0  0
    0.3852   14.5927   -5.9060 C   0  0  0  0  0  0  0  0  0  0  0  0
   -3.7189   12.5724  -10.8441 C   0  0  0  0  0  0  0  0  0  0  0  0
   -2.2354   12.9457  -10.9732 C   0  0  0  0  0  0  0  0  0  0  0  0
   -2.1905   14.4637  -10.9533 C   0  0  0  0  0  0  0  0  0  0  0  0
   -3.5123   14.9092  -11.5998 C   0  0  0  0  0  0  0  0  0  0  0  0
   -1.7098   12.4700  -12.1164 F   0  0  0  0  0  0  0  0  0  0  0  0
   -1.5166   12.4356   -9.9564 F   0  0  0  0  0  0  0  0  0  0  0  0
   -5.5036   11.6144  -10.3492 H   0  0  0  0  0  0  0  0  0  0  0  0
   -7.0106   12.5624  -10.1105 H   0  0  0  0  0  0  0  0  0  0  0  0
   -8.1756   10.1191  -13.8942 H   0  0  0  0  0  0  0  0  0  0  0  0
   -6.8889   12.2463  -14.0896 H   0  0  0  0  0  0  0  0  0  0  0  0
   -8.0383    9.6050   -7.2579 H   0  0  0  0  0  0  0  0  0  0  0  0
   -5.3176   15.2407  -12.9448 H   0  0  0  0  0  0  0  0  0  0  0  0
   -4.8931    8.7825   -8.4921 H   0  0  0  0  0  0  0  0  0  0  0  0
   -2.6611    9.7559   -8.0481 H   0  0  0  0  0  0  0  0  0  0  0  0
   -4.5156   13.2866   -6.4733 H   0  0  0  0  0  0  0  0  0  0  0  0
   -6.7439   12.3101   -6.9107 H   0  0  0  0  0  0  0  0  0  0  0  0
   -2.4623   14.1868   -6.1115 H   0  0  0  0  0  0  0  0  0  0  0  0
   -0.6481   10.6174   -7.6264 H   0  0  0  0  0  0  0  0  0  0  0  0
    1.4497   14.3348   -6.0072 H   0  0  0  0  0  0  0  0  0  0  0  0
    0.1689   15.4951   -6.4967 H   0  0  0  0  0  0  0  0  0  0  0  0
    0.1531   14.7829   -4.8477 H   0  0  0  0  0  0  0  0  0  0  0  0
   -4.0230   12.4902   -9.7902 H   0  0  0  0  0  0  0  0  0  0  0  0
   -3.9436   11.6300  -11.3651 H   0  0  0  0  0  0  0  0  0  0  0  0
   -2.1210   14.8350   -9.9202 H   0  0  0  0  0  0  0  0  0  0  0  0
   -1.3323   14.8328  -11.5341 H   0  0  0  0  0  0  0  0  0  0  0  0
   -3.3578   15.1968  -12.6502 H   0  0  0  0  0  0  0  0  0  0  0  0
   -3.9532   15.7535  -11.0495 H   0  0  0  0  0  0  0  0  0  0  0  0
  1  2  1  0  0  0  0
  1  4  1  0  0  0  0
  1 12  2  3  0  0  0
  2  6  1  0  0  0  0
  3  4  2  0  0  0  0
  3  5  1  0  0  0  0
  5  6  2  0  0  0  0
  5  9  1  0  0  0  0
  6  7  1  0  0  0  0
  7  8  1  0  0  0  0
  7 10  2  3  0  0  0
  8  9  2  0  0  0  0
 10 14  1  0  0  0  0
 11 12  1  0  0  0  0
 11 26  1  0  0  0  0
 11 29  1  0  0  0  0
 12 13  1  0  0  0  0
 14 15  2  0  0  0  0
 14 19  1  0  0  0  0
 15 16  1  0  0  0  0
 16 17  2  0  0  0  0
 17 18  1  0  0  0  0
 17 20  1  0  0  0  0
 18 19  2  0  0  0  0
 20 21  2  0  0  0  0
 20 24  1  0  0  0  0
 21 22  1  0  0  0  0
 22 23  1  0  0  0  0
 22 25  1  0  0  0  0
 23 24  2  0  0  0  0
 26 27  1  0  0  0  0
 27 28  1  0  0  0  0
 27 30  1  0  0  0  0
 27 31  1  0  0  0  0
 28 29  1  0  0  0  0
  2 32  1  0  0  0  0
  2 33  1  0  0  0  0
  3 34  1  0  0  0  0
  4 35  1  0  0  0  0
 10 36  1  0  0  0  0
 13 37  1  0  0  0  0
 15 38  1  0  0  0  0
 16 39  1  0  0  0  0
 18 40  1  0  0  0  0
 19 41  1  0  0  0  0
 21 42  1  0  0  0  0
 24 43  1  0  0  0  0
 25 44  1  0  0  0  0
 25 45  1  0  0  0  0
 25 46  1  0  0  0  0
 26 47  1  0  0  0  0
 26 48  1  0  0  0  0
 28 49  1  0  0  0  0
 28 50  1  0  0  0  0
 29 51  1  0  0  0  0
 29 52  1  0  0  0  0
M  END
> <Name>
38

> <IC50[uM]>
0.005

$$$$
38
  -OEChem-05192314333D
 Structure written by MMmdl.
 52 56  0     1  0  0  0  0  0999 V2000
   -6.3676   12.3632  -12.0183 C   0  0  0  0  0  0  0  0  0  0  0  0
   -6.5148   11.8066  -10.7373 C   0  0  0  0  0  0  0  0  0  0  0  0
   -7.7147   10.5754  -13.0306 C   0  0  0  0  0  0  0  0  0  0  0  0
   -6.9819   11.7689  -13.1253 C   0  0  0  0  0  0  0  0  0  0  0  0
   -7.8143   10.0109  -11.7564 C   0  0  0  0  0  0  0  0  0  0  0  0
   -7.2414   10.6177  -10.6023 C   0  0  0  0  0  0  0  0  0  0  0  0
   -7.6126    9.7466   -9.5122 C   0  0  0  0  0  0  0  0  0  0  0  0
   -8.2846    8.7319   -9.9810 N   0  0  0  0  0  0  0  0  0  0  0  0
   -8.4146    8.8618  -11.2972 N   0  0  0  0  0  0  0  0  0  0  0  0
   -7.3363    9.8918   -8.0268 C   0  0  0  0  0  0  0  0  0  0  0  0
   -4.3648   13.7196  -11.5032 N   0  0  3  0  0  0  0  0  0  0  0  0
   -5.5453   13.6325  -12.1937 C   0  0  0  0  0  0  0  0  0  0  0  0
   -5.9402   14.5231  -12.9481 O   0  0  0  0  0  0  0  0  0  0  0  0
   -5.9634   10.4852   -7.7356 C   0  0  0  0  0  0  0  0  0  0  0  0
   -4.8111    9.7655   -8.0524 C   0  0  0  0  0  0  0  0  0  0  0  0
   -3.5521   10.3143   -7.8018 C   0  0  0  0  0  0  0  0  0  0  0  0
   -3.4442   11.5871   -7.2318 C   0  0  0  0  0  0  0  0  0  0  0  0
   -4.5964   12.3037   -6.9134 C   0  0  0  0  0  0  0  0  0  0  0  0
   -5.8531   11.7536   -7.1622 C   0  0  0  0  0  0  0  0  0  0  0  0
   -2.1000   12.1772   -6.9659 C   0  0  0  0  0  0  0  0  0  0  0  0
   -1.7711   13.4213   -6.4318 C   0  0  0  0  0  0  0  0  0  0  0  0
   -0.4319   13.4866   -6.3915 N   0  0  0  0  0  0  0  0  0  0  0  0
    0.1707   12.4146   -6.8487 N   0  0  0  0  0  0  0  0  0  0  0  0
   -0.8042   11.5996   -7.2054 C   0  0  0  0  0  0  0  0  0  0  0  0
    0.3852   14.5927   -5.9060 C   0  0  0  0  0  0  0  0  0  0  0  0
   -3.7189   12.5724  -10.8441 C   0  0  0  0  0  0  0  0  0  0  0  0
   -2.2354   12.9457  -10.9732 C   0  0  0  0  0  0  0  0  0  0  0  0
   -2.1905   14.4637  -10.9533 C   0  0  0  0  0  0  0  0  0  0  0  0
   -3.5123   14.9092  -11.5998 C   0  0  0  0  0  0  0  0  0  0  0  0
   -1.7098   12.4700  -12.1164 F   0  0  0  0  0  0  0  0  0  0  0  0
   -1.5166   12.4356   -9.9564 F   0  0  0  0  0  0  0  0  0  0  0  0
   -6.0766   12.2858   -9.8743 H   0  0  0  0  0  0  0  0  0  0  0  0
   -8.1756   10.1191  -13.8942 H   0  0  0  0  0  0  0  0  0  0  0  0
   -6.8889   12.2463  -14.0896 H   0  0  0  0  0  0  0  0  0  0  0  0
   -8.0383    9.6050   -7.2579 H   0  0  0  0  0  0  0  0  0  0  0  0
   -5.3176   15.2407  -12.9448 H   0  0  0  0  0  0  0  0  0  0  0  0
   -4.8931    8.7825   -8.4921 H   0  0  0  0  0  0  0  0  0  0  0  0
   -2.6611    9.7559   -8.0481 H   0  0  0  0  0  0  0  0  0  0  0  0
   -3.4458   11.1378   -6.2277 H   0  0  0  0  0  0  0  0  0  0  0  0
   -4.5156   13.2866   -6.4733 H   0  0  0  0  0  0  0  0  0  0  0  0
   -6.7439   12.3101   -6.9107 H   0  0  0  0  0  0  0  0  0  0  0  0
   -2.4623   14.1868   -6.1115 H   0  0  0  0  0  0  0  0  0  0  0  0
   -0.6481   10.6174   -7.6264 H   0  0  0  0  0  0  0  0  0  0  0  0
    1.4497   14.3348   -6.0072 H   0  0  0  0  0  0  0  0  0  0  0  0
    0.1689   15.4951   -6.4967 H   0  0  0  0  0  0  0  0  0  0  0  0
    0.1531   14.7829   -4.8477 H   0  0  0  0  0  0  0  0  0  0  0  0
   -4.0230   12.4902   -9.7902 H   0  0  0  0  0  0  0  0  0  0  0  0
   -3.9436   11.6300  -11.3651 H   0  0  0  0  0  0  0  0  0  0  0  0
   -2.1210   14.8350   -9.9202 H   0  0  0  0  0  0  0  0  0  0  0  0
   -1.3323   14.8328  -11.5341 H   0  0  0  0  0  0  0  0  0  0  0  0
   -3.3578   15.1968  -12.6502 H   0  0  0  0  0  0  0  0  0  0  0  0
   -3.9532   15.7535  -11.0495 H   0  0  0  0  0  0  0  0  0  0  0  0
  1  2  1  0  0  0  0
  1  4  1  0  0  0  0
  1 12  2  3  0  0  0
  2  6  2  0  0  0  0
  3  4  2  0  0  0  0
  3  5  1  0  0  0  0
  5  6  1  0  0  0  0
  5  9  2  0  0  0  0
  6  7  1  0  0  0  0
  7  8  2  0  0  0  0
  7 10  1  0  0  0  0
  8  9  1  0  0  0  0
 10 14  2  0  0  0  0
 11 12  1  0  0  0  0
 11 26  1  0  0  0  0
 11 29  1  0  0  0  0
 12 13  1  0  0  0  0
 14 15  1  0  0  0  0
 14 19  1  0  0  0  0
 15 16  2  0  0  0  0
 16 17  1  0  0  0  0
 17 18  1  0  0  0  0
 17 20  1  0  0  0  0
 18 19  2  0  0  0  0
 20 21  2  0  0  0  0
 20 24  1  0  0  0  0
 21 22  1  0  0  0  0
 22 23  1  0  0  0  0
 22 25  1  0  0  0  0
 23 24  2  0  0  0  0
 26 27  1  0  0  0  0
 27 28  1  0  0  0  0
 27 30  1  0  0  0  0
 27 31  1  0  0  0  0
 28 29  1  0  0  0  0
  2 32  1  0  0  0  0
  3 33  1  0  0  0  0
  4 34  1  0  0  0  0
 10 35  1  0  0  0  0
 13 36  1  0  0  0  0
 15 37  1  0  0  0  0
 16 38  1  0  0  0  0
 17 39  1  0  0  0  0
 18 40  1  0  0  0  0
 19 41  1  0  0  0  0
 21 42  1  0  0  0  0
 24 43  1  0  0  0  0
 25 44  1  0  0  0  0
 25 45  1  0  0  0  0
 25 46  1  0  0  0  0
 26 47  1  0  0  0  0
 26 48  1  0  0  0  0
 28 49  1  0  0  0  0
 28 50  1  0  0  0  0
 29 51  1  0  0  0  0
 29 52  1  0  0  0  0
M  END
> <Name>
38

> <IC50[uM]>
0.005

$$$$
38
  -OEChem-05192314333D
 Structure written by MMmdl.
 52 56  0     1  0  0  0  0  0999 V2000
   -6.3676   12.3632  -12.0183 C   0  0  0  0  0  0  0  0  0  0  0  0
   -6.5148   11.8066  -10.7373 C   0  0  0  0  0  0  0  0  0  0  0  0
   -7.7147   10.5754  -13.0306 C   0  0  0  0  0  0  0  0  0  0  0  0
   -6.9819   11.7689  -13.1253 C   0  0  0  0  0  0  0  0  0  0  0  0
   -7.8143   10.0109  -11.7564 C   0  0  0  0  0  0  0  0  0  0  0  0
   -7.2414   10.6177  -10.6023 C   0  0  0  0  0  0  0  0  0  0  0  0
   -7.6126    9.7466   -9.5122 C   0  0  0  0  0  0  0  0  0  0  0  0
   -8.2846    8.7319   -9.9810 N   0  0  0  0  0  0  0  0  0  0  0  0
   -8.4146    8.8618  -11.2972 N   0  0  0  0  0  0  0  0  0  0  0  0
   -7.3363    9.8918   -8.0268 C   0  0  0  0  0  0  0  0  0  0  0  0
   -4.3648   13.7196  -11.5032 N   0  0  3  0  0  0  0  0  0  0  0  0
   -5.5453   13.6325  -12.1937 C   0  0  0  0  0  0  0  0  0  0  0  0
   -5.9402   14.5231  -12.9481 O   0  0  0  0  0  0  0  0  0  0  0  0
   -5.9634   10.4852   -7.7356 C   0  0  0  0  0  0  0  0  0  0  0  0
   -4.8111    9.7655   -8.0524 C   0  0  0  0  0  0  0  0  0  0  0  0
   -3.5521   10.3143   -7.8018 C   0  0  0  0  0  0  0  0  0  0  0  0
   -3.4442   11.5871   -7.2318 C   0  0  0  0  0  0  0  0  0  0  0  0
   -4.5964   12.3037   -6.9134 C   0  0  0  0  0  0  0  0  0  0  0  0
   -5.8531   11.7536   -7.1622 C   0  0  0  0  0  0  0  0  0  0  0  0
   -2.1000   12.1772   -6.9659 C   0  0  0  0  0  0  0  0  0  0  0  0
   -1.7711   13.4213   -6.4318 C   0  0  0  0  0  0  0  0  0  0  0  0
   -0.4319   13.4866   -6.3915 N   0  0  0  0  0  0  0  0  0  0  0  0
    0.1707   12.4146   -6.8487 N   0  0  0  0  0  0  0  0  0  0  0  0
   -0.8042   11.5996   -7.2054 C   0  0  0  0  0  0  0  0  0  0  0  0
    0.3852   14.5927   -5.9060 C   0  0  0  0  0  0  0  0  0  0  0  0
   -3.7189   12.5724  -10.8441 C   0  0  0  0  0  0  0  0  0  0  0  0
   -2.2354   12.9457  -10.9732 C   0  0  0  0  0  0  0  0  0  0  0  0
   -2.1905   14.4637  -10.9533 C   0  0  0  0  0  0  0  0  0  0  0  0
   -3.5123   14.9092  -11.5998 C   0  0  0  0  0  0  0  0  0  0  0  0
   -1.7098   12.4700  -12.1164 F   0  0  0  0  0  0  0  0  0  0  0  0
   -1.5166   12.4356   -9.9564 F   0  0  0  0  0  0  0  0  0  0  0  0
   -6.0766   12.2858   -9.8743 H   0  0  0  0  0  0  0  0  0  0  0  0
   -8.1756   10.1191  -13.8942 H   0  0  0  0  0  0  0  0  0  0  0  0
   -6.8889   12.2463  -14.0896 H   0  0  0  0  0  0  0  0  0  0  0  0
   -8.0383    9.6050   -7.2579 H   0  0  0  0  0  0  0  0  0  0  0  0
   -5.3176   15.2407  -12.9448 H   0  0  0  0  0  0  0  0  0  0  0  0
   -4.8931    8.7825   -8.4921 H   0  0  0  0  0  0  0  0  0  0  0  0
   -2.6611    9.7559   -8.0481 H   0  0  0  0  0  0  0  0  0  0  0  0
   -4.5156   13.2866   -6.4733 H   0  0  0  0  0  0  0  0  0  0  0  0
   -6.3768   12.4508   -7.8327 H   0  0  0  0  0  0  0  0  0  0  0  0
   -6.3770   11.7109   -6.1959 H   0  0  0  0  0  0  0  0  0  0  0  0
   -2.4623   14.1868   -6.1115 H   0  0  0  0  0  0  0  0  0  0  0  0
   -0.6481   10.6174   -7.6264 H   0  0  0  0  0  0  0  0  0  0  0  0
    1.4497   14.3348   -6.0072 H   0  0  0  0  0  0  0  0  0  0  0  0
    0.1689   15.4951   -6.4967 H   0  0  0  0  0  0  0  0  0  0  0  0
    0.1531   14.7829   -4.8477 H   0  0  0  0  0  0  0  0  0  0  0  0
   -4.0230   12.4902   -9.7902 H   0  0  0  0  0  0  0  0  0  0  0  0
   -3.9436   11.6300  -11.3651 H   0  0  0  0  0  0  0  0  0  0  0  0
   -2.1210   14.8350   -9.9202 H   0  0  0  0  0  0  0  0  0  0  0  0
   -1.3323   14.8328  -11.5341 H   0  0  0  0  0  0  0  0  0  0  0  0
   -3.3578   15.1968  -12.6502 H   0  0  0  0  0  0  0  0  0  0  0  0
   -3.9532   15.7535  -11.0495 H   0  0  0  0  0  0  0  0  0  0  0  0
  1  2  1  0  0  0  0
  1  4  1  0  0  0  0
  1 12  2  3  0  0  0
  2  6  2  0  0  0  0
  3  4  2  0  0  0  0
  3  5  1  0  0  0  0
  5  6  1  0  0  0  0
  5  9  2  0  0  0  0
  6  7  1  0  0  0  0
  7  8  2  0  0  0  0
  7 10  1  0  0  0  0
  8  9  1  0  0  0  0
 10 14  2  3  0  0  0
 11 12  1  0  0  0  0
 11 26  1  0  0  0  0
 11 29  1  0  0  0  0
 12 13  1  0  0  0  0
 14 15  1  0  0  0  0
 14 19  1  0  0  0  0
 15 16  2  0  0  0  0
 16 17  1  0  0  0  0
 17 18  2  0  0  0  0
 17 20  1  0  0  0  0
 18 19  1  0  0  0  0
 20 21  2  0  0  0  0
 20 24  1  0  0  0  0
 21 22  1  0  0  0  0
 22 23  1  0  0  0  0
 22 25  1  0  0  0  0
 23 24  2  0  0  0  0
 26 27  1  0  0  0  0
 27 28  1  0  0  0  0
 27 30  1  0  0  0  0
 27 31  1  0  0  0  0
 28 29  1  0  0  0  0
  2 32  1  0  0  0  0
  3 33  1  0  0  0  0
  4 34  1  0  0  0  0
 10 35  1  0  0  0  0
 13 36  1  0  0  0  0
 15 37  1  0  0  0  0
 16 38  1  0  0  0  0
 18 39  1  0  0  0  0
 19 40  1  0  0  0  0
 19 41  1  0  0  0  0
 21 42  1  0  0  0  0
 24 43  1  0  0  0  0
 25 44  1  0  0  0  0
 25 45  1  0  0  0  0
 25 46  1  0  0  0  0
 26 47  1  0  0  0  0
 26 48  1  0  0  0  0
 28 49  1  0  0  0  0
 28 50  1  0  0  0  0
 29 51  1  0  0  0  0
 29 52  1  0  0  0  0
M  END
> <Name>
38

> <IC50[uM]>
0.005

$$$$
