33
  -OEChem-05192314333D
 Structure written by MMmdl.
 49 53  0     0  0  0  0  0  0999 V2000
   -6.3918   12.3765  -12.0158 C   0  0  0  0  0  0  0  0  0  0  0  0
   -6.5335   11.8201  -10.7317 C   0  0  0  0  0  0  0  0  0  0  0  0
   -7.7273   10.5795  -13.0319 C   0  0  0  0  0  0  0  0  0  0  0  0
   -7.0082   11.7773  -13.1176 C   0  0  0  0  0  0  0  0  0  0  0  0
   -7.8294   10.0116  -11.7546 C   0  0  0  0  0  0  0  0  0  0  0  0
   -7.2533   10.6299  -10.5984 C   0  0  0  0  0  0  0  0  0  0  0  0
   -7.6133    9.7501   -9.5115 C   0  0  0  0  0  0  0  0  0  0  0  0
   -8.2802    8.7340   -9.9853 N   0  0  0  0  0  0  0  0  0  0  0  0
   -8.4149    8.8602  -11.2994 N   0  0  0  0  0  0  0  0  0  0  0  0
   -7.3368    9.8898   -8.0240 C   0  0  0  0  0  0  0  0  0  0  0  0
   -4.3580   13.5891  -11.5451 N   0  0  0  0  0  0  0  0  0  0  0  0
   -5.5327   13.6029  -12.2131 C   0  0  0  0  0  0  0  0  0  0  0  0
   -5.8791   14.5089  -12.9726 O   0  0  0  0  0  0  0  0  0  0  0  0
   -5.9622   10.4818   -7.7351 C   0  0  0  0  0  0  0  0  0  0  0  0
   -5.8525   11.7570   -7.1642 C   0  0  0  0  0  0  0  0  0  0  0  0
   -4.5920   12.3049   -6.9193 C   0  0  0  0  0  0  0  0  0  0  0  0
   -3.4386   11.5825   -7.2408 C   0  0  0  0  0  0  0  0  0  0  0  0
   -3.5579   10.3128   -7.8038 C   0  0  0  0  0  0  0  0  0  0  0  0
   -4.8126    9.7642   -8.0521 C   0  0  0  0  0  0  0  0  0  0  0  0
   -2.0919   12.1643   -6.9829 C   0  0  0  0  0  0  0  0  0  0  0  0
   -1.7362   13.4287   -6.5051 C   0  0  0  0  0  0  0  0  0  0  0  0
   -0.4017   13.4552   -6.4435 N   0  0  0  0  0  0  0  0  0  0  0  0
    0.1850   12.3496   -6.8156 N   0  0  0  0  0  0  0  0  0  0  0  0
   -0.8078   11.5460   -7.1722 C   0  0  0  0  0  0  0  0  0  0  0  0
    0.4351   14.5688   -6.0125 C   0  0  0  0  0  0  0  0  0  0  0  0
   -3.3172   14.5865  -11.7755 C   0  0  0  0  0  0  0  0  0  0  0  0
   -1.8924   14.0513  -11.7355 C   0  0  0  0  0  0  0  0  0  0  0  0
   -2.3932   14.9579  -10.6450 C   0  0  0  0  0  0  0  0  0  0  0  0
   -6.0964   12.3014   -9.8693 H   0  0  0  0  0  0  0  0  0  0  0  0
   -8.1772   10.1197  -13.8994 H   0  0  0  0  0  0  0  0  0  0  0  0
   -6.9259   12.2608  -14.0798 H   0  0  0  0  0  0  0  0  0  0  0  0
   -8.6361    7.9747   -9.4405 H   0  0  0  0  0  0  0  0  0  0  0  0
   -8.1022   10.5457   -7.5837 H   0  0  0  0  0  0  0  0  0  0  0  0
   -7.3960    8.8943   -7.5599 H   0  0  0  0  0  0  0  0  0  0  0  0
   -4.1960   12.8702  -10.8691 H   0  0  0  0  0  0  0  0  0  0  0  0
   -6.7424   12.3154   -6.9139 H   0  0  0  0  0  0  0  0  0  0  0  0
   -4.5075   13.2883   -6.4808 H   0  0  0  0  0  0  0  0  0  0  0  0
   -2.6693    9.7502   -8.0493 H   0  0  0  0  0  0  0  0  0  0  0  0
   -4.8943    8.7808   -8.4911 H   0  0  0  0  0  0  0  0  0  0  0  0
   -2.4097   14.2294   -6.2375 H   0  0  0  0  0  0  0  0  0  0  0  0
   -0.6685   10.5471   -7.5584 H   0  0  0  0  0  0  0  0  0  0  0  0
    1.4941   14.2779   -6.0748 H   0  0  0  0  0  0  0  0  0  0  0  0
    0.2544   15.4366   -6.6639 H   0  0  0  0  0  0  0  0  0  0  0  0
    0.1879   14.8324   -4.9736 H   0  0  0  0  0  0  0  0  0  0  0  0
   -3.5215   15.3697  -12.5204 H   0  0  0  0  0  0  0  0  0  0  0  0
   -1.7095   12.9870  -11.5263 H   0  0  0  0  0  0  0  0  0  0  0  0
   -1.1463   14.4168  -12.4564 H   0  0  0  0  0  0  0  0  0  0  0  0
   -2.0084   15.9854  -10.5669 H   0  0  0  0  0  0  0  0  0  0  0  0
   -2.5716   14.5556   -9.6369 H   0  0  0  0  0  0  0  0  0  0  0  0
  1  2  2  0  0  0  0
  1  4  1  0  0  0  0
  1 12  1  0  0  0  0
  2  6  1  0  0  0  0
  3  4  2  0  0  0  0
  3  5  1  0  0  0  0
  5  6  1  0  0  0  0
  5  9  2  0  0  0  0
  6  7  2  0  0  0  0
  7  8  1  0  0  0  0
  7 10  1  0  0  0  0
  8  9  1  0  0  0  0
 10 14  1  0  0  0  0
 11 12  1  0  0  0  0
 11 26  1  0  0  0  0
 12 13  2  0  0  0  0
 14 15  2  0  0  0  0
 14 19  1  0  0  0  0
 15 16  1  0  0  0  0
 16 17  2  0  0  0  0
 17 18  1  0  0  0  0
 17 20  1  0  0  0  0
 18 19  2  0  0  0  0
 20 21  2  0  0  0  0
 20 24  1  0  0  0  0
 21 22  1  0  0  0  0
 22 23  1  0  0  0  0
 22 25  1  0  0  0  0
 23 24  2  0  0  0  0
 26 27  1  0  0  0  0
 26 28  1  0  0  0  0
 27 28  1  0  0  0  0
  2 29  1  0  0  0  0
  3 30  1  0  0  0  0
  4 31  1  0  0  0  0
  8 32  1  0  0  0  0
 10 33  1  0  0  0  0
 10 34  1  0  0  0  0
 11 35  1  0  0  0  0
 15 36  1  0  0  0  0
 16 37  1  0  0  0  0
 18 38  1  0  0  0  0
 19 39  1  0  0  0  0
 21 40  1  0  0  0  0
 24 41  1  0  0  0  0
 25 42  1  0  0  0  0
 25 43  1  0  0  0  0
 25 44  1  0  0  0  0
 26 45  1  0  0  0  0
 27 46  1  0  0  0  0
 27 47  1  0  0  0  0
 28 48  1  0  0  0  0
 28 49  1  0  0  0  0
M  END
> <Name>
33

> <IC50[uM]>
0.008

$$$$
33
  -OEChem-05192314333D
 Structure written by MMmdl.
 49 53  0     0  0  0  0  0  0999 V2000
   -6.3918   12.3765  -12.0158 C   0  0  0  0  0  0  0  0  0  0  0  0
   -6.5335   11.8201  -10.7317 C   0  0  0  0  0  0  0  0  0  0  0  0
   -7.7273   10.5795  -13.0319 C   0  0  0  0  0  0  0  0  0  0  0  0
   -7.0082   11.7773  -13.1176 C   0  0  0  0  0  0  0  0  0  0  0  0
   -7.8294   10.0116  -11.7546 C   0  0  0  0  0  0  0  0  0  0  0  0
   -7.2533   10.6299  -10.5984 C   0  0  0  0  0  0  0  0  0  0  0  0
   -7.6133    9.7501   -9.5115 C   0  0  0  0  0  0  0  0  0  0  0  0
   -8.2802    8.7340   -9.9853 N   0  0  0  0  0  0  0  0  0  0  0  0
   -8.4149    8.8602  -11.2994 N   0  0  0  0  0  0  0  0  0  0  0  0
   -7.3368    9.8898   -8.0240 C   0  0  0  0  0  0  0  0  0  0  0  0
   -4.3580   13.5891  -11.5451 N   0  0  0  0  0  0  0  0  0  0  0  0
   -5.5327   13.6029  -12.2131 C   0  0  0  0  0  0  0  0  0  0  0  0
   -5.8791   14.5089  -12.9726 O   0  0  0  0  0  0  0  0  0  0  0  0
   -5.9622   10.4818   -7.7351 C   0  0  0  0  0  0  0  0  0  0  0  0
   -5.8525   11.7570   -7.1642 C   0  0  0  0  0  0  0  0  0  0  0  0
   -4.5920   12.3049   -6.9193 C   0  0  0  0  0  0  0  0  0  0  0  0
   -3.4386   11.5825   -7.2408 C   0  0  0  0  0  0  0  0  0  0  0  0
   -3.5579   10.3128   -7.8038 C   0  0  0  0  0  0  0  0  0  0  0  0
   -4.8126    9.7642   -8.0521 C   0  0  0  0  0  0  0  0  0  0  0  0
   -2.0919   12.1643   -6.9829 C   0  0  0  0  0  0  0  0  0  0  0  0
   -1.7362   13.4287   -6.5051 C   0  0  0  0  0  0  0  0  0  0  0  0
   -0.4017   13.4552   -6.4435 N   0  0  0  0  0  0  0  0  0  0  0  0
    0.1850   12.3496   -6.8156 N   0  0  0  0  0  0  0  0  0  0  0  0
   -0.8078   11.5460   -7.1722 C   0  0  0  0  0  0  0  0  0  0  0  0
    0.4351   14.5688   -6.0125 C   0  0  0  0  0  0  0  0  0  0  0  0
   -3.3172   14.5865  -11.7755 C   0  0  0  0  0  0  0  0  0  0  0  0
   -1.8924   14.0513  -11.7355 C   0  0  0  0  0  0  0  0  0  0  0  0
   -2.3932   14.9579  -10.6450 C   0  0  0  0  0  0  0  0  0  0  0  0
   -6.0964   12.3014   -9.8693 H   0  0  0  0  0  0  0  0  0  0  0  0
   -8.1772   10.1197  -13.8994 H   0  0  0  0  0  0  0  0  0  0  0  0
   -6.9259   12.2608  -14.0798 H   0  0  0  0  0  0  0  0  0  0  0  0
   -8.8846    8.1982  -11.8835 H   0  0  0  0  0  0  0  0  0  0  0  0
   -8.1022   10.5457   -7.5837 H   0  0  0  0  0  0  0  0  0  0  0  0
   -7.3960    8.8943   -7.5599 H   0  0  0  0  0  0  0  0  0  0  0  0
   -4.1960   12.8702  -10.8691 H   0  0  0  0  0  0  0  0  0  0  0  0
   -6.7424   12.3154   -6.9139 H   0  0  0  0  0  0  0  0  0  0  0  0
   -4.5075   13.2883   -6.4808 H   0  0  0  0  0  0  0  0  0  0  0  0
   -2.6693    9.7502   -8.0493 H   0  0  0  0  0  0  0  0  0  0  0  0
   -4.8943    8.7808   -8.4911 H   0  0  0  0  0  0  0  0  0  0  0  0
   -2.4097   14.2294   -6.2375 H   0  0  0  0  0  0  0  0  0  0  0  0
   -0.6685   10.5471   -7.5584 H   0  0  0  0  0  0  0  0  0  0  0  0
    1.4941   14.2779   -6.0748 H   0  0  0  0  0  0  0  0  0  0  0  0
    0.2544   15.4366   -6.6639 H   0  0  0  0  0  0  0  0  0  0  0  0
    0.1879   14.8324   -4.9736 H   0  0  0  0  0  0  0  0  0  0  0  0
   -3.5215   15.3697  -12.5204 H   0  0  0  0  0  0  0  0  0  0  0  0
   -1.7095   12.9870  -11.5263 H   0  0  0  0  0  0  0  0  0  0  0  0
   -1.1463   14.4168  -12.4564 H   0  0  0  0  0  0  0  0  0  0  0  0
   -2.0084   15.9854  -10.5669 H   0  0  0  0  0  0  0  0  0  0  0  0
   -2.5716   14.5556   -9.6369 H   0  0  0  0  0  0  0  0  0  0  0  0
  1  2  2  0  0  0  0
  1  4  1  0  0  0  0
  1 12  1  0  0  0  0
  2  6  1  0  0  0  0
  3  4  2  0  0  0  0
  3  5  1  0  0  0  0
  5  6  2  0  0  0  0
  5  9  1  0  0  0  0
  6  7  1  0  0  0  0
  7  8  2  0  0  0  0
  7 10  1  0  0  0  0
  8  9  1  0  0  0  0
 10 14  1  0  0  0  0
 11 12  1  0  0  0  0
 11 26  1  0  0  0  0
 12 13  2  0  0  0  0
 14 15  2  0  0  0  0
 14 19  1  0  0  0  0
 15 16  1  0  0  0  0
 16 17  2  0  0  0  0
 17 18  1  0  0  0  0
 17 20  1  0  0  0  0
 18 19  2  0  0  0  0
 20 21  2  0  0  0  0
 20 24  1  0  0  0  0
 21 22  1  0  0  0  0
 22 23  1  0  0  0  0
 22 25  1  0  0  0  0
 23 24  2  0  0  0  0
 26 27  1  0  0  0  0
 26 28  1  0  0  0  0
 27 28  1  0  0  0  0
  2 29  1  0  0  0  0
  3 30  1  0  0  0  0
  4 31  1  0  0  0  0
  9 32  1  0  0  0  0
 10 33  1  0  0  0  0
 10 34  1  0  0  0  0
 11 35  1  0  0  0  0
 15 36  1  0  0  0  0
 16 37  1  0  0  0  0
 18 38  1  0  0  0  0
 19 39  1  0  0  0  0
 21 40  1  0  0  0  0
 24 41  1  0  0  0  0
 25 42  1  0  0  0  0
 25 43  1  0  0  0  0
 25 44  1  0  0  0  0
 26 45  1  0  0  0  0
 27 46  1  0  0  0  0
 27 47  1  0  0  0  0
 28 48  1  0  0  0  0
 28 49  1  0  0  0  0
M  END
> <Name>
33

> <IC50[uM]>
0.008

$$$$
33
  -OEChem-05192314333D
 Structure written by MMmdl.
 49 53  0     0  0  0  0  0  0999 V2000
   -6.3918   12.3765  -12.0158 C   0  0  0  0  0  0  0  0  0  0  0  0
   -6.5335   11.8201  -10.7317 C   0  0  0  0  0  0  0  0  0  0  0  0
   -7.7273   10.5795  -13.0319 C   0  0  0  0  0  0  0  0  0  0  0  0
   -7.0082   11.7773  -13.1176 C   0  0  0  0  0  0  0  0  0  0  0  0
   -7.8294   10.0116  -11.7546 C   0  0  0  0  0  0  0  0  0  0  0  0
   -7.2533   10.6299  -10.5984 C   0  0  0  0  0  0  0  0  0  0  0  0
   -7.6133    9.7501   -9.5115 C   0  0  0  0  0  0  0  0  0  0  0  0
   -8.2802    8.7340   -9.9853 N   0  0  0  0  0  0  0  0  0  0  0  0
   -8.4149    8.8602  -11.2994 N   0  0  0  0  0  0  0  0  0  0  0  0
   -7.3368    9.8898   -8.0240 C   0  0  0  0  0  0  0  0  0  0  0  0
   -4.3580   13.5891  -11.5451 N   0  0  0  0  0  0  0  0  0  0  0  0
   -5.5327   13.6029  -12.2131 C   0  0  0  0  0  0  0  0  0  0  0  0
   -5.8791   14.5089  -12.9726 O   0  0  0  0  0  0  0  0  0  0  0  0
   -5.9622   10.4818   -7.7351 C   0  0  0  0  0  0  0  0  0  0  0  0
   -5.8525   11.7570   -7.1642 C   0  0  0  0  0  0  0  0  0  0  0  0
   -4.5920   12.3049   -6.9193 C   0  0  0  0  0  0  0  0  0  0  0  0
   -3.4386   11.5825   -7.2408 C   0  0  0  0  0  0  0  0  0  0  0  0
   -3.5579   10.3128   -7.8038 C   0  0  0  0  0  0  0  0  0  0  0  0
   -4.8126    9.7642   -8.0521 C   0  0  0  0  0  0  0  0  0  0  0  0
   -2.0919   12.1643   -6.9829 C   0  0  0  0  0  0  0  0  0  0  0  0
   -1.7362   13.4287   -6.5051 C   0  0  0  0  0  0  0  0  0  0  0  0
   -0.4017   13.4552   -6.4435 N   0  0  0  0  0  0  0  0  0  0  0  0
    0.1850   12.3496   -6.8156 N   0  0  0  0  0  0  0  0  0  0  0  0
   -0.8078   11.5460   -7.1722 C   0  0  0  0  0  0  0  0  0  0  0  0
    0.4351   14.5688   -6.0125 C   0  0  0  0  0  0  0  0  0  0  0  0
   -3.3172   14.5865  -11.7755 C   0  0  0  0  0  0  0  0  0  0  0  0
   -1.8924   14.0513  -11.7355 C   0  0  0  0  0  0  0  0  0  0  0  0
   -2.3932   14.9579  -10.6450 C   0  0  0  0  0  0  0  0  0  0  0  0
   -6.0964   12.3014   -9.8693 H   0  0  0  0  0  0  0  0  0  0  0  0
   -8.1772   10.1197  -13.8994 H   0  0  0  0  0  0  0  0  0  0  0  0
   -6.9259   12.2608  -14.0798 H   0  0  0  0  0  0  0  0  0  0  0  0
   -8.6361    7.9747   -9.4405 H   0  0  0  0  0  0  0  0  0  0  0  0
   -8.1022   10.5457   -7.5837 H   0  0  0  0  0  0  0  0  0  0  0  0
   -7.3960    8.8943   -7.5599 H   0  0  0  0  0  0  0  0  0  0  0  0
   -5.2205   15.1935  -12.9707 H   0  0  0  0  0  0  0  0  0  0  0  0
   -6.7424   12.3154   -6.9139 H   0  0  0  0  0  0  0  0  0  0  0  0
   -4.5075   13.2883   -6.4808 H   0  0  0  0  0  0  0  0  0  0  0  0
   -2.6693    9.7502   -8.0493 H   0  0  0  0  0  0  0  0  0  0  0  0
   -4.8943    8.7808   -8.4911 H   0  0  0  0  0  0  0  0  0  0  0  0
   -2.4097   14.2294   -6.2375 H   0  0  0  0  0  0  0  0  0  0  0  0
   -0.6685   10.5471   -7.5584 H   0  0  0  0  0  0  0  0  0  0  0  0
    1.4941   14.2779   -6.0748 H   0  0  0  0  0  0  0  0  0  0  0  0
    0.2544   15.4366   -6.6639 H   0  0  0  0  0  0  0  0  0  0  0  0
    0.1879   14.8324   -4.9736 H   0  0  0  0  0  0  0  0  0  0  0  0
   -3.5215   15.3697  -12.5204 H   0  0  0  0  0  0  0  0  0  0  0  0
   -1.7095   12.9870  -11.5263 H   0  0  0  0  0  0  0  0  0  0  0  0
   -1.1463   14.4168  -12.4564 H   0  0  0  0  0  0  0  0  0  0  0  0
   -2.0084   15.9854  -10.5669 H   0  0  0  0  0  0  0  0  0  0  0  0
   -2.5716   14.5556   -9.6369 H   0  0  0  0  0  0  0  0  0  0  0  0
  1  2  2  0  0  0  0
  1  4  1  0  0  0  0
  1 12  1  0  0  0  0
  2  6  1  0  0  0  0
  3  4  2  0  0  0  0
  3  5  1  0  0  0  0
  5  6  1  0  0  0  0
  5  9  2  0  0  0  0
  6  7  2  0  0  0  0
  7  8  1  0  0  0  0
  7 10  1  0  0  0  0
  8  9  1  0  0  0  0
 10 14  1  0  0  0  0
 11 12  2  0  0  0  0
 11 26  1  0  0  0  0
 12 13  1  0  0  0  0
 14 15  2  0  0  0  0
 14 19  1  0  0  0  0
 15 16  1  0  0  0  0
 16 17  2  0  0  0  0
 17 18  1  0  0  0  0
 17 20  1  0  0  0  0
 18 19  2  0  0  0  0
 20 21  2  0  0  0  0
 20 24  1  0  0  0  0
 21 22  1  0  0  0  0
 22 23  1  0  0  0  0
 22 25  1  0  0  0  0
 23 24  2  0  0  0  0
 26 27  1  0  0  0  0
 26 28  1  0  0  0  0
 27 28  1  0  0  0  0
  2 29  1  0  0  0  0
  3 30  1  0  0  0  0
  4 31  1  0  0  0  0
  8 32  1  0  0  0  0
 10 33  1  0  0  0  0
 10 34  1  0  0  0  0
 13 35  1  0  0  0  0
 15 36  1  0  0  0  0
 16 37  1  0  0  0  0
 18 38  1  0  0  0  0
 19 39  1  0  0  0  0
 21 40  1  0  0  0  0
 24 41  1  0  0  0  0
 25 42  1  0  0  0  0
 25 43  1  0  0  0  0
 25 44  1  0  0  0  0
 26 45  1  0  0  0  0
 27 46  1  0  0  0  0
 27 47  1  0  0  0  0
 28 48  1  0  0  0  0
 28 49  1  0  0  0  0
M  END
> <Name>
33

> <IC50[uM]>
0.008

$$$$
33
  -OEChem-05192314333D
 Structure written by MMmdl.
 49 53  0     0  0  0  0  0  0999 V2000
   -6.3918   12.3765  -12.0158 C   0  0  0  0  0  0  0  0  0  0  0  0
   -6.5335   11.8201  -10.7317 C   0  0  0  0  0  0  0  0  0  0  0  0
   -7.7273   10.5795  -13.0319 C   0  0  0  0  0  0  0  0  0  0  0  0
   -7.0082   11.7773  -13.1176 C   0  0  0  0  0  0  0  0  0  0  0  0
   -7.8294   10.0116  -11.7546 C   0  0  0  0  0  0  0  0  0  0  0  0
   -7.2533   10.6299  -10.5984 C   0  0  0  0  0  0  0  0  0  0  0  0
   -7.6133    9.7501   -9.5115 C   0  0  0  0  0  0  0  0  0  0  0  0
   -8.2802    8.7340   -9.9853 N   0  0  0  0  0  0  0  0  0  0  0  0
   -8.4149    8.8602  -11.2994 N   0  0  0  0  0  0  0  0  0  0  0  0
   -7.3368    9.8898   -8.0240 C   0  0  0  0  0  0  0  0  0  0  0  0
   -4.3580   13.5891  -11.5451 N   0  0  0  0  0  0  0  0  0  0  0  0
   -5.5327   13.6029  -12.2131 C   0  0  0  0  0  0  0  0  0  0  0  0
   -5.8791   14.5089  -12.9726 O   0  0  0  0  0  0  0  0  0  0  0  0
   -5.9622   10.4818   -7.7351 C   0  0  0  0  0  0  0  0  0  0  0  0
   -5.8525   11.7570   -7.1642 C   0  0  0  0  0  0  0  0  0  0  0  0
   -4.5920   12.3049   -6.9193 C   0  0  0  0  0  0  0  0  0  0  0  0
   -3.4386   11.5825   -7.2408 C   0  0  0  0  0  0  0  0  0  0  0  0
   -3.5579   10.3128   -7.8038 C   0  0  0  0  0  0  0  0  0  0  0  0
   -4.8126    9.7642   -8.0521 C   0  0  0  0  0  0  0  0  0  0  0  0
   -2.0919   12.1643   -6.9829 C   0  0  0  0  0  0  0  0  0  0  0  0
   -1.7362   13.4287   -6.5051 C   0  0  0  0  0  0  0  0  0  0  0  0
   -0.4017   13.4552   -6.4435 N   0  0  0  0  0  0  0  0  0  0  0  0
    0.1850   12.3496   -6.8156 N   0  0  0  0  0  0  0  0  0  0  0  0
   -0.8078   11.5460   -7.1722 C   0  0  0  0  0  0  0  0  0  0  0  0
    0.4351   14.5688   -6.0125 C   0  0  0  0  0  0  0  0  0  0  0  0
   -3.3172   14.5865  -11.7755 C   0  0  0  0  0  0  0  0  0  0  0  0
   -1.8924   14.0513  -11.7355 C   0  0  0  0  0  0  0  0  0  0  0  0
   -2.3932   14.9579  -10.6450 C   0  0  0  0  0  0  0  0  0  0  0  0
   -6.0964   12.3014   -9.8693 H   0  0  0  0  0  0  0  0  0  0  0  0
   -8.1772   10.1197  -13.8994 H   0  0  0  0  0  0  0  0  0  0  0  0
   -6.9259   12.2608  -14.0798 H   0  0  0  0  0  0  0  0  0  0  0  0
   -8.8846    8.1982  -11.8835 H   0  0  0  0  0  0  0  0  0  0  0  0
   -8.1022   10.5457   -7.5837 H   0  0  0  0  0  0  0  0  0  0  0  0
   -7.3960    8.8943   -7.5599 H   0  0  0  0  0  0  0  0  0  0  0  0
   -5.2205   15.1935  -12.9707 H   0  0  0  0  0  0  0  0  0  0  0  0
   -6.7424   12.3154   -6.9139 H   0  0  0  0  0  0  0  0  0  0  0  0
   -4.5075   13.2883   -6.4808 H   0  0  0  0  0  0  0  0  0  0  0  0
   -2.6693    9.7502   -8.0493 H   0  0  0  0  0  0  0  0  0  0  0  0
   -4.8943    8.7808   -8.4911 H   0  0  0  0  0  0  0  0  0  0  0  0
   -2.4097   14.2294   -6.2375 H   0  0  0  0  0  0  0  0  0  0  0  0
   -0.6685   10.5471   -7.5584 H   0  0  0  0  0  0  0  0  0  0  0  0
    1.4941   14.2779   -6.0748 H   0  0  0  0  0  0  0  0  0  0  0  0
    0.2544   15.4366   -6.6639 H   0  0  0  0  0  0  0  0  0  0  0  0
    0.1879   14.8324   -4.9736 H   0  0  0  0  0  0  0  0  0  0  0  0
   -3.5215   15.3697  -12.5204 H   0  0  0  0  0  0  0  0  0  0  0  0
   -1.7095   12.9870  -11.5263 H   0  0  0  0  0  0  0  0  0  0  0  0
   -1.1463   14.4168  -12.4564 H   0  0  0  0  0  0  0  0  0  0  0  0
   -2.0084   15.9854  -10.5669 H   0  0  0  0  0  0  0  0  0  0  0  0
   -2.5716   14.5556   -9.6369 H   0  0  0  0  0  0  0  0  0  0  0  0
  1  2  2  0  0  0  0
  1  4  1  0  0  0  0
  1 12  1  0  0  0  0
  2  6  1  0  0  0  0
  3  4  2  0  0  0  0
  3  5  1  0  0  0  0
  5  6  2  0  0  0  0
  5  9  1  0  0  0  0
  6  7  1  0  0  0  0
  7  8  2  0  0  0  0
  7 10  1  0  0  0  0
  8  9  1  0  0  0  0
 10 14  1  0  0  0  0
 11 12  2  0  0  0  0
 11 26  1  0  0  0  0
 12 13  1  0  0  0  0
 14 15  2  0  0  0  0
 14 19  1  0  0  0  0
 15 16  1  0  0  0  0
 16 17  2  0  0  0  0
 17 18  1  0  0  0  0
 17 20  1  0  0  0  0
 18 19  2  0  0  0  0
 20 21  2  0  0  0  0
 20 24  1  0  0  0  0
 21 22  1  0  0  0  0
 22 23  1  0  0  0  0
 22 25  1  0  0  0  0
 23 24  2  0  0  0  0
 26 27  1  0  0  0  0
 26 28  1  0  0  0  0
 27 28  1  0  0  0  0
  2 29  1  0  0  0  0
  3 30  1  0  0  0  0
  4 31  1  0  0  0  0
  9 32  1  0  0  0  0
 10 33  1  0  0  0  0
 10 34  1  0  0  0  0
 13 35  1  0  0  0  0
 15 36  1  0  0  0  0
 16 37  1  0  0  0  0
 18 38  1  0  0  0  0
 19 39  1  0  0  0  0
 21 40  1  0  0  0  0
 24 41  1  0  0  0  0
 25 42  1  0  0  0  0
 25 43  1  0  0  0  0
 25 44  1  0  0  0  0
 26 45  1  0  0  0  0
 27 46  1  0  0  0  0
 27 47  1  0  0  0  0
 28 48  1  0  0  0  0
 28 49  1  0  0  0  0
M  END
> <Name>
33

> <IC50[uM]>
0.008

$$$$
33
  -OEChem-05192314333D
 Structure written by MMmdl.
 49 53  0     1  0  0  0  0  0999 V2000
   -6.3918   12.3765  -12.0158 C   0  0  0  0  0  0  0  0  0  0  0  0
   -6.5335   11.8201  -10.7317 C   0  0  0  0  0  0  0  0  0  0  0  0
   -7.7273   10.5795  -13.0319 C   0  0  0  0  0  0  0  0  0  0  0  0
   -7.0082   11.7773  -13.1176 C   0  0  0  0  0  0  0  0  0  0  0  0
   -7.8294   10.0116  -11.7546 C   0  0  0  0  0  0  0  0  0  0  0  0
   -7.2533   10.6299  -10.5984 C   0  0  0  0  0  0  0  0  0  0  0  0
   -7.6133    9.7501   -9.5115 C   0  0  3  0  0  0  0  0  0  0  0  0
   -8.2802    8.7340   -9.9853 N   0  0  0  0  0  0  0  0  0  0  0  0
   -8.4149    8.8602  -11.2994 N   0  0  0  0  0  0  0  0  0  0  0  0
   -7.3368    9.8898   -8.0240 C   0  0  0  0  0  0  0  0  0  0  0  0
   -4.3580   13.5891  -11.5451 N   0  0  0  0  0  0  0  0  0  0  0  0
   -5.5327   13.6029  -12.2131 C   0  0  0  0  0  0  0  0  0  0  0  0
   -5.8791   14.5089  -12.9726 O   0  0  0  0  0  0  0  0  0  0  0  0
   -5.9622   10.4818   -7.7351 C   0  0  0  0  0  0  0  0  0  0  0  0
   -5.8525   11.7570   -7.1642 C   0  0  0  0  0  0  0  0  0  0  0  0
   -4.5920   12.3049   -6.9193 C   0  0  0  0  0  0  0  0  0  0  0  0
   -3.4386   11.5825   -7.2408 C   0  0  0  0  0  0  0  0  0  0  0  0
   -3.5579   10.3128   -7.8038 C   0  0  0  0  0  0  0  0  0  0  0  0
   -4.8126    9.7642   -8.0521 C   0  0  0  0  0  0  0  0  0  0  0  0
   -2.0919   12.1643   -6.9829 C   0  0  0  0  0  0  0  0  0  0  0  0
   -1.7362   13.4287   -6.5051 C   0  0  0  0  0  0  0  0  0  0  0  0
   -0.4017   13.4552   -6.4435 N   0  0  0  0  0  0  0  0  0  0  0  0
    0.1850   12.3496   -6.8156 N   0  0  0  0  0  0  0  0  0  0  0  0
   -0.8078   11.5460   -7.1722 C   0  0  0  0  0  0  0  0  0  0  0  0
    0.4351   14.5688   -6.0125 C   0  0  0  0  0  0  0  0  0  0  0  0
   -3.3172   14.5865  -11.7755 C   0  0  0  0  0  0  0  0  0  0  0  0
   -1.8924   14.0513  -11.7355 C   0  0  0  0  0  0  0  0  0  0  0  0
   -2.3932   14.9579  -10.6450 C   0  0  0  0  0  0  0  0  0  0  0  0
   -6.0964   12.3014   -9.8693 H   0  0  0  0  0  0  0  0  0  0  0  0
   -8.1772   10.1197  -13.8994 H   0  0  0  0  0  0  0  0  0  0  0  0
   -6.9259   12.2608  -14.0798 H   0  0  0  0  0  0  0  0  0  0  0  0
   -6.6705    9.1980   -9.6396 H   0  0  0  0  0  0  0  0  0  0  0  0
   -8.1022   10.5457   -7.5837 H   0  0  0  0  0  0  0  0  0  0  0  0
   -7.3960    8.8943   -7.5599 H   0  0  0  0  0  0  0  0  0  0  0  0
   -4.1960   12.8702  -10.8691 H   0  0  0  0  0  0  0  0  0  0  0  0
   -6.7424   12.3154   -6.9139 H   0  0  0  0  0  0  0  0  0  0  0  0
   -4.5075   13.2883   -6.4808 H   0  0  0  0  0  0  0  0  0  0  0  0
   -2.6693    9.7502   -8.0493 H   0  0  0  0  0  0  0  0  0  0  0  0
   -4.8943    8.7808   -8.4911 H   0  0  0  0  0  0  0  0  0  0  0  0
   -2.4097   14.2294   -6.2375 H   0  0  0  0  0  0  0  0  0  0  0  0
   -0.6685   10.5471   -7.5584 H   0  0  0  0  0  0  0  0  0  0  0  0
    1.4941   14.2779   -6.0748 H   0  0  0  0  0  0  0  0  0  0  0  0
    0.2544   15.4366   -6.6639 H   0  0  0  0  0  0  0  0  0  0  0  0
    0.1879   14.8324   -4.9736 H   0  0  0  0  0  0  0  0  0  0  0  0
   -3.5215   15.3697  -12.5204 H   0  0  0  0  0  0  0  0  0  0  0  0
   -1.7095   12.9870  -11.5263 H   0  0  0  0  0  0  0  0  0  0  0  0
   -1.1463   14.4168  -12.4564 H   0  0  0  0  0  0  0  0  0  0  0  0
   -2.0084   15.9854  -10.5669 H   0  0  0  0  0  0  0  0  0  0  0  0
   -2.5716   14.5556   -9.6369 H   0  0  0  0  0  0  0  0  0  0  0  0
  1  2  2  0  0  0  0
  1  4  1  0  0  0  0
  1 12  1  0  0  0  0
  2  6  1  0  0  0  0
  3  4  2  0  0  0  0
  3  5  1  0  0  0  0
  5  6  2  0  0  0  0
  5  9  1  0  0  0  0
  6  7  1  0  0  0  0
  7  8  1  0  0  0  0
  7 10  1  0  0  0  0
  8  9  2  0  0  0  0
 10 14  1  0  0  0  0
 11 12  1  0  0  0  0
 11 26  1  0  0  0  0
 12 13  2  0  0  0  0
 14 15  2  0  0  0  0
 14 19  1  0  0  0  0
 15 16  1  0  0  0  0
 16 17  2  0  0  0  0
 17 18  1  0  0  0  0
 17 20  1  0  0  0  0
 18 19  2  0  0  0  0
 20 21  2  0  0  0  0
 20 24  1  0  0  0  0
 21 22  1  0  0  0  0
 22 23  1  0  0  0  0
 22 25  1  0  0  0  0
 23 24  2  0  0  0  0
 26 27  1  0  0  0  0
 26 28  1  0  0  0  0
 27 28  1  0  0  0  0
  2 29  1  0  0  0  0
  3 30  1  0  0  0  0
  4 31  1  0  0  0  0
  7 32  1  0  0  0  0
 10 33  1  0  0  0  0
 10 34  1  0  0  0  0
 11 35  1  0  0  0  0
 15 36  1  0  0  0  0
 16 37  1  0  0  0  0
 18 38  1  0  0  0  0
 19 39  1  0  0  0  0
 21 40  1  0  0  0  0
 24 41  1  0  0  0  0
 25 42  1  0  0  0  0
 25 43  1  0  0  0  0
 25 44  1  0  0  0  0
 26 45  1  0  0  0  0
 27 46  1  0  0  0  0
 27 47  1  0  0  0  0
 28 48  1  0  0  0  0
 28 49  1  0  0  0  0
M  END
> <Name>
33

> <IC50[uM]>
0.008

$$$$
33
  -OEChem-05192314333D
 Structure written by MMmdl.
 49 53  0     1  0  0  0  0  0999 V2000
   -6.3918   12.3765  -12.0158 C   0  0  0  0  0  0  0  0  0  0  0  0
   -6.5335   11.8201  -10.7317 C   0  0  0  0  0  0  0  0  0  0  0  0
   -7.7273   10.5795  -13.0319 C   0  0  0  0  0  0  0  0  0  0  0  0
   -7.0082   11.7773  -13.1176 C   0  0  0  0  0  0  0  0  0  0  0  0
   -7.8294   10.0116  -11.7546 C   0  0  0  0  0  0  0  0  0  0  0  0
   -7.2533   10.6299  -10.5984 C   0  0  0  0  0  0  0  0  0  0  0  0
   -7.6133    9.7501   -9.5115 C   0  0  3  0  0  0  0  0  0  0  0  0
   -8.2802    8.7340   -9.9853 N   0  0  0  0  0  0  0  0  0  0  0  0
   -8.4149    8.8602  -11.2994 N   0  0  0  0  0  0  0  0  0  0  0  0
   -7.3368    9.8898   -8.0240 C   0  0  0  0  0  0  0  0  0  0  0  0
   -4.3580   13.5891  -11.5451 N   0  0  0  0  0  0  0  0  0  0  0  0
   -5.5327   13.6029  -12.2131 C   0  0  0  0  0  0  0  0  0  0  0  0
   -5.8791   14.5089  -12.9726 O   0  0  0  0  0  0  0  0  0  0  0  0
   -5.9622   10.4818   -7.7351 C   0  0  0  0  0  0  0  0  0  0  0  0
   -5.8525   11.7570   -7.1642 C   0  0  0  0  0  0  0  0  0  0  0  0
   -4.5920   12.3049   -6.9193 C   0  0  0  0  0  0  0  0  0  0  0  0
   -3.4386   11.5825   -7.2408 C   0  0  0  0  0  0  0  0  0  0  0  0
   -3.5579   10.3128   -7.8038 C   0  0  0  0  0  0  0  0  0  0  0  0
   -4.8126    9.7642   -8.0521 C   0  0  0  0  0  0  0  0  0  0  0  0
   -2.0919   12.1643   -6.9829 C   0  0  0  0  0  0  0  0  0  0  0  0
   -1.7362   13.4287   -6.5051 C   0  0  0  0  0  0  0  0  0  0  0  0
   -0.4017   13.4552   -6.4435 N   0  0  0  0  0  0  0  0  0  0  0  0
    0.1850   12.3496   -6.8156 N   0  0  0  0  0  0  0  0  0  0  0  0
   -0.8078   11.5460   -7.1722 C   0  0  0  0  0  0  0  0  0  0  0  0
    0.4351   14.5688   -6.0125 C   0  0  0  0  0  0  0  0  0  0  0  0
   -3.3172   14.5865  -11.7755 C   0  0  0  0  0  0  0  0  0  0  0  0
   -1.8924   14.0513  -11.7355 C   0  0  0  0  0  0  0  0  0  0  0  0
   -2.3932   14.9579  -10.6450 C   0  0  0  0  0  0  0  0  0  0  0  0
   -6.0964   12.3014   -9.8693 H   0  0  0  0  0  0  0  0  0  0  0  0
   -8.1772   10.1197  -13.8994 H   0  0  0  0  0  0  0  0  0  0  0  0
   -6.9259   12.2608  -14.0798 H   0  0  0  0  0  0  0  0  0  0  0  0
   -6.6705    9.1980   -9.6396 H   0  0  0  0  0  0  0  0  0  0  0  0
   -8.1022   10.5457   -7.5837 H   0  0  0  0  0  0  0  0  0  0  0  0
   -7.3960    8.8943   -7.5599 H   0  0  0  0  0  0  0  0  0  0  0  0
   -5.2205   15.1935  -12.9707 H   0  0  0  0  0  0  0  0  0  0  0  0
   -6.7424   12.3154   -6.9139 H   0  0  0  0  0  0  0  0  0  0  0  0
   -4.5075   13.2883   -6.4808 H   0  0  0  0  0  0  0  0  0  0  0  0
   -2.6693    9.7502   -8.0493 H   0  0  0  0  0  0  0  0  0  0  0  0
   -4.8943    8.7808   -8.4911 H   0  0  0  0  0  0  0  0  0  0  0  0
   -2.4097   14.2294   -6.2375 H   0  0  0  0  0  0  0  0  0  0  0  0
   -0.6685   10.5471   -7.5584 H   0  0  0  0  0  0  0  0  0  0  0  0
    1.4941   14.2779   -6.0748 H   0  0  0  0  0  0  0  0  0  0  0  0
    0.2544   15.4366   -6.6639 H   0  0  0  0  0  0  0  0  0  0  0  0
    0.1879   14.8324   -4.9736 H   0  0  0  0  0  0  0  0  0  0  0  0
   -3.5215   15.3697  -12.5204 H   0  0  0  0  0  0  0  0  0  0  0  0
   -1.7095   12.9870  -11.5263 H   0  0  0  0  0  0  0  0  0  0  0  0
   -1.1463   14.4168  -12.4564 H   0  0  0  0  0  0  0  0  0  0  0  0
   -2.0084   15.9854  -10.5669 H   0  0  0  0  0  0  0  0  0  0  0  0
   -2.5716   14.5556   -9.6369 H   0  0  0  0  0  0  0  0  0  0  0  0
  1  2  2  0  0  0  0
  1  4  1  0  0  0  0
  1 12  1  0  0  0  0
  2  6  1  0  0  0  0
  3  4  2  0  0  0  0
  3  5  1  0  0  0  0
  5  6  2  0  0  0  0
  5  9  1  0  0  0  0
  6  7  1  0  0  0  0
  7  8  1  0  0  0  0
  7 10  1  0  0  0  0
  8  9  2  0  0  0  0
 10 14  1  0  0  0  0
 11 12  2  0  0  0  0
 11 26  1  0  0  0  0
 12 13  1  0  0  0  0
 14 15  2  0  0  0  0
 14 19  1  0  0  0  0
 15 16  1  0  0  0  0
 16 17  2  0  0  0  0
 17 18  1  0  0  0  0
 17 20  1  0  0  0  0
 18 19  2  0  0  0  0
 20 21  2  0  0  0  0
 20 24  1  0  0  0  0
 21 22  1  0  0  0  0
 22 23  1  0  0  0  0
 22 25  1  0  0  0  0
 23 24  2  0  0  0  0
 26 27  1  0  0  0  0
 26 28  1  0  0  0  0
 27 28  1  0  0  0  0
  2 29  1  0  0  0  0
  3 30  1  0  0  0  0
  4 31  1  0  0  0  0
  7 32  1  0  0  0  0
 10 33  1  0  0  0  0
 10 34  1  0  0  0  0
 13 35  1  0  0  0  0
 15 36  1  0  0  0  0
 16 37  1  0  0  0  0
 18 38  1  0  0  0  0
 19 39  1  0  0  0  0
 21 40  1  0  0  0  0
 24 41  1  0  0  0  0
 25 42  1  0  0  0  0
 25 43  1  0  0  0  0
 25 44  1  0  0  0  0
 26 45  1  0  0  0  0
 27 46  1  0  0  0  0
 27 47  1  0  0  0  0
 28 48  1  0  0  0  0
 28 49  1  0  0  0  0
M  END
> <Name>
33

> <IC50[uM]>
0.008

$$$$
33
  -OEChem-05192314333D
 Structure written by MMmdl.
 49 53  0     0  0  0  0  0  0999 V2000
   -6.3918   12.3765  -12.0158 C   0  0  0  0  0  0  0  0  0  0  0  0
   -6.5335   11.8201  -10.7317 C   0  0  0  0  0  0  0  0  0  0  0  0
   -7.7273   10.5795  -13.0319 C   0  0  0  0  0  0  0  0  0  0  0  0
   -7.0082   11.7773  -13.1176 C   0  0  0  0  0  0  0  0  0  0  0  0
   -7.8294   10.0116  -11.7546 C   0  0  0  0  0  0  0  0  0  0  0  0
   -7.2533   10.6299  -10.5984 C   0  0  0  0  0  0  0  0  0  0  0  0
   -7.6133    9.7501   -9.5115 C   0  0  0  0  0  0  0  0  0  0  0  0
   -8.2802    8.7340   -9.9853 N   0  0  0  0  0  0  0  0  0  0  0  0
   -8.4149    8.8602  -11.2994 N   0  0  0  0  0  0  0  0  0  0  0  0
   -7.3368    9.8898   -8.0240 C   0  0  0  0  0  0  0  0  0  0  0  0
   -4.3580   13.5891  -11.5451 N   0  0  0  0  0  0  0  0  0  0  0  0
   -5.5327   13.6029  -12.2131 C   0  0  0  0  0  0  0  0  0  0  0  0
   -5.8791   14.5089  -12.9726 O   0  0  0  0  0  0  0  0  0  0  0  0
   -5.9622   10.4818   -7.7351 C   0  0  0  0  0  0  0  0  0  0  0  0
   -5.8525   11.7570   -7.1642 C   0  0  0  0  0  0  0  0  0  0  0  0
   -4.5920   12.3049   -6.9193 C   0  0  0  0  0  0  0  0  0  0  0  0
   -3.4386   11.5825   -7.2408 C   0  0  0  0  0  0  0  0  0  0  0  0
   -3.5579   10.3128   -7.8038 C   0  0  0  0  0  0  0  0  0  0  0  0
   -4.8126    9.7642   -8.0521 C   0  0  0  0  0  0  0  0  0  0  0  0
   -2.0919   12.1643   -6.9829 C   0  0  0  0  0  0  0  0  0  0  0  0
   -1.7362   13.4287   -6.5051 C   0  0  0  0  0  0  0  0  0  0  0  0
   -0.4017   13.4552   -6.4435 N   0  0  0  0  0  0  0  0  0  0  0  0
    0.1850   12.3496   -6.8156 N   0  0  0  0  0  0  0  0  0  0  0  0
   -0.8078   11.5460   -7.1722 C   0  0  0  0  0  0  0  0  0  0  0  0
    0.4351   14.5688   -6.0125 C   0  0  0  0  0  0  0  0  0  0  0  0
   -3.3172   14.5865  -11.7755 C   0  0  0  0  0  0  0  0  0  0  0  0
   -1.8924   14.0513  -11.7355 C   0  0  0  0  0  0  0  0  0  0  0  0
   -2.3932   14.9579  -10.6450 C   0  0  0  0  0  0  0  0  0  0  0  0
   -6.0964   12.3014   -9.8693 H   0  0  0  0  0  0  0  0  0  0  0  0
   -8.1772   10.1197  -13.8994 H   0  0  0  0  0  0  0  0  0  0  0  0
   -6.9259   12.2608  -14.0798 H   0  0  0  0  0  0  0  0  0  0  0  0
   -7.7867    7.8885   -9.7815 H   0  0  0  0  0  0  0  0  0  0  0  0
   -9.3887    8.8790  -11.5261 H   0  0  0  0  0  0  0  0  0  0  0  0
   -8.0380    9.6010   -7.2550 H   0  0  0  0  0  0  0  0  0  0  0  0
   -4.1960   12.8702  -10.8691 H   0  0  0  0  0  0  0  0  0  0  0  0
   -6.7424   12.3154   -6.9139 H   0  0  0  0  0  0  0  0  0  0  0  0
   -4.5075   13.2883   -6.4808 H   0  0  0  0  0  0  0  0  0  0  0  0
   -2.6693    9.7502   -8.0493 H   0  0  0  0  0  0  0  0  0  0  0  0
   -4.8943    8.7808   -8.4911 H   0  0  0  0  0  0  0  0  0  0  0  0
   -2.4097   14.2294   -6.2375 H   0  0  0  0  0  0  0  0  0  0  0  0
   -0.6685   10.5471   -7.5584 H   0  0  0  0  0  0  0  0  0  0  0  0
    1.4941   14.2779   -6.0748 H   0  0  0  0  0  0  0  0  0  0  0  0
    0.2544   15.4366   -6.6639 H   0  0  0  0  0  0  0  0  0  0  0  0
    0.1879   14.8324   -4.9736 H   0  0  0  0  0  0  0  0  0  0  0  0
   -3.5215   15.3697  -12.5204 H   0  0  0  0  0  0  0  0  0  0  0  0
   -1.7095   12.9870  -11.5263 H   0  0  0  0  0  0  0  0  0  0  0  0
   -1.1463   14.4168  -12.4564 H   0  0  0  0  0  0  0  0  0  0  0  0
   -2.0084   15.9854  -10.5669 H   0  0  0  0  0  0  0  0  0  0  0  0
   -2.5716   14.5556   -9.6369 H   0  0  0  0  0  0  0  0  0  0  0  0
  1  2  2  0  0  0  0
  1  4  1  0  0  0  0
  1 12  1  0  0  0  0
  2  6  1  0  0  0  0
  3  4  2  0  0  0  0
  3  5  1  0  0  0  0
  5  6  2  0  0  0  0
  5  9  1  0  0  0  0
  6  7  1  0  0  0  0
  7  8  1  0  0  0  0
  7 10  2  3  0  0  0
  8  9  1  0  0  0  0
 10 14  1  0  0  0  0
 11 12  1  0  0  0  0
 11 26  1  0  0  0  0
 12 13  2  0  0  0  0
 14 15  2  0  0  0  0
 14 19  1  0  0  0  0
 15 16  1  0  0  0  0
 16 17  2  0  0  0  0
 17 18  1  0  0  0  0
 17 20  1  0  0  0  0
 18 19  2  0  0  0  0
 20 21  2  0  0  0  0
 20 24  1  0  0  0  0
 21 22  1  0  0  0  0
 22 23  1  0  0  0  0
 22 25  1  0  0  0  0
 23 24  2  0  0  0  0
 26 27  1  0  0  0  0
 26 28  1  0  0  0  0
 27 28  1  0  0  0  0
  2 29  1  0  0  0  0
  3 30  1  0  0  0  0
  4 31  1  0  0  0  0
  8 32  1  0  0  0  0
  9 33  1  0  0  0  0
 10 34  1  0  0  0  0
 11 35  1  0  0  0  0
 15 36  1  0  0  0  0
 16 37  1  0  0  0  0
 18 38  1  0  0  0  0
 19 39  1  0  0  0  0
 21 40  1  0  0  0  0
 24 41  1  0  0  0  0
 25 42  1  0  0  0  0
 25 43  1  0  0  0  0
 25 44  1  0  0  0  0
 26 45  1  0  0  0  0
 27 46  1  0  0  0  0
 27 47  1  0  0  0  0
 28 48  1  0  0  0  0
 28 49  1  0  0  0  0
M  END
> <Name>
33

> <IC50[uM]>
0.008

$$$$
33
  -OEChem-05192314333D
 Structure written by MMmdl.
 49 53  0     0  0  0  0  0  0999 V2000
   -6.3918   12.3765  -12.0158 C   0  0  0  0  0  0  0  0  0  0  0  0
   -6.5335   11.8201  -10.7317 C   0  0  0  0  0  0  0  0  0  0  0  0
   -7.7273   10.5795  -13.0319 C   0  0  0  0  0  0  0  0  0  0  0  0
   -7.0082   11.7773  -13.1176 C   0  0  0  0  0  0  0  0  0  0  0  0
   -7.8294   10.0116  -11.7546 C   0  0  0  0  0  0  0  0  0  0  0  0
   -7.2533   10.6299  -10.5984 C   0  0  0  0  0  0  0  0  0  0  0  0
   -7.6133    9.7501   -9.5115 C   0  0  0  0  0  0  0  0  0  0  0  0
   -8.2802    8.7340   -9.9853 N   0  0  0  0  0  0  0  0  0  0  0  0
   -8.4149    8.8602  -11.2994 N   0  0  0  0  0  0  0  0  0  0  0  0
   -7.3368    9.8898   -8.0240 C   0  0  0  0  0  0  0  0  0  0  0  0
   -4.3580   13.5891  -11.5451 N   0  0  0  0  0  0  0  0  0  0  0  0
   -5.5327   13.6029  -12.2131 C   0  0  0  0  0  0  0  0  0  0  0  0
   -5.8791   14.5089  -12.9726 O   0  0  0  0  0  0  0  0  0  0  0  0
   -5.9622   10.4818   -7.7351 C   0  0  0  0  0  0  0  0  0  0  0  0
   -5.8525   11.7570   -7.1642 C   0  0  0  0  0  0  0  0  0  0  0  0
   -4.5920   12.3049   -6.9193 C   0  0  0  0  0  0  0  0  0  0  0  0
   -3.4386   11.5825   -7.2408 C   0  0  0  0  0  0  0  0  0  0  0  0
   -3.5579   10.3128   -7.8038 C   0  0  0  0  0  0  0  0  0  0  0  0
   -4.8126    9.7642   -8.0521 C   0  0  0  0  0  0  0  0  0  0  0  0
   -2.0919   12.1643   -6.9829 C   0  0  0  0  0  0  0  0  0  0  0  0
   -1.7362   13.4287   -6.5051 C   0  0  0  0  0  0  0  0  0  0  0  0
   -0.4017   13.4552   -6.4435 N   0  0  0  0  0  0  0  0  0  0  0  0
    0.1850   12.3496   -6.8156 N   0  0  0  0  0  0  0  0  0  0  0  0
   -0.8078   11.5460   -7.1722 C   0  0  0  0  0  0  0  0  0  0  0  0
    0.4351   14.5688   -6.0125 C   0  0  0  0  0  0  0  0  0  0  0  0
   -3.3172   14.5865  -11.7755 C   0  0  0  0  0  0  0  0  0  0  0  0
   -1.8924   14.0513  -11.7355 C   0  0  0  0  0  0  0  0  0  0  0  0
   -2.3932   14.9579  -10.6450 C   0  0  0  0  0  0  0  0  0  0  0  0
   -6.0964   12.3014   -9.8693 H   0  0  0  0  0  0  0  0  0  0  0  0
   -8.1772   10.1197  -13.8994 H   0  0  0  0  0  0  0  0  0  0  0  0
   -6.9259   12.2608  -14.0798 H   0  0  0  0  0  0  0  0  0  0  0  0
   -7.7867    7.8885   -9.7815 H   0  0  0  0  0  0  0  0  0  0  0  0
   -9.3887    8.8790  -11.5261 H   0  0  0  0  0  0  0  0  0  0  0  0
   -8.0380    9.6010   -7.2550 H   0  0  0  0  0  0  0  0  0  0  0  0
   -5.2205   15.1935  -12.9707 H   0  0  0  0  0  0  0  0  0  0  0  0
   -6.7424   12.3154   -6.9139 H   0  0  0  0  0  0  0  0  0  0  0  0
   -4.5075   13.2883   -6.4808 H   0  0  0  0  0  0  0  0  0  0  0  0
   -2.6693    9.7502   -8.0493 H   0  0  0  0  0  0  0  0  0  0  0  0
   -4.8943    8.7808   -8.4911 H   0  0  0  0  0  0  0  0  0  0  0  0
   -2.4097   14.2294   -6.2375 H   0  0  0  0  0  0  0  0  0  0  0  0
   -0.6685   10.5471   -7.5584 H   0  0  0  0  0  0  0  0  0  0  0  0
    1.4941   14.2779   -6.0748 H   0  0  0  0  0  0  0  0  0  0  0  0
    0.2544   15.4366   -6.6639 H   0  0  0  0  0  0  0  0  0  0  0  0
    0.1879   14.8324   -4.9736 H   0  0  0  0  0  0  0  0  0  0  0  0
   -3.5215   15.3697  -12.5204 H   0  0  0  0  0  0  0  0  0  0  0  0
   -1.7095   12.9870  -11.5263 H   0  0  0  0  0  0  0  0  0  0  0  0
   -1.1463   14.4168  -12.4564 H   0  0  0  0  0  0  0  0  0  0  0  0
   -2.0084   15.9854  -10.5669 H   0  0  0  0  0  0  0  0  0  0  0  0
   -2.5716   14.5556   -9.6369 H   0  0  0  0  0  0  0  0  0  0  0  0
  1  2  2  0  0  0  0
  1  4  1  0  0  0  0
  1 12  1  0  0  0  0
  2  6  1  0  0  0  0
  3  4  2  0  0  0  0
  3  5  1  0  0  0  0
  5  6  2  0  0  0  0
  5  9  1  0  0  0  0
  6  7  1  0  0  0  0
  7  8  1  0  0  0  0
  7 10  2  3  0  0  0
  8  9  1  0  0  0  0
 10 14  1  0  0  0  0
 11 12  2  0  0  0  0
 11 26  1  0  0  0  0
 12 13  1  0  0  0  0
 14 15  2  0  0  0  0
 14 19  1  0  0  0  0
 15 16  1  0  0  0  0
 16 17  2  0  0  0  0
 17 18  1  0  0  0  0
 17 20  1  0  0  0  0
 18 19  2  0  0  0  0
 20 21  2  0  0  0  0
 20 24  1  0  0  0  0
 21 22  1  0  0  0  0
 22 23  1  0  0  0  0
 22 25  1  0  0  0  0
 23 24  2  0  0  0  0
 26 27  1  0  0  0  0
 26 28  1  0  0  0  0
 27 28  1  0  0  0  0
  2 29  1  0  0  0  0
  3 30  1  0  0  0  0
  4 31  1  0  0  0  0
  8 32  1  0  0  0  0
  9 33  1  0  0  0  0
 10 34  1  0  0  0  0
 13 35  1  0  0  0  0
 15 36  1  0  0  0  0
 16 37  1  0  0  0  0
 18 38  1  0  0  0  0
 19 39  1  0  0  0  0
 21 40  1  0  0  0  0
 24 41  1  0  0  0  0
 25 42  1  0  0  0  0
 25 43  1  0  0  0  0
 25 44  1  0  0  0  0
 26 45  1  0  0  0  0
 27 46  1  0  0  0  0
 27 47  1  0  0  0  0
 28 48  1  0  0  0  0
 28 49  1  0  0  0  0
M  END
> <Name>
33

> <IC50[uM]>
0.008

$$$$
33
  -OEChem-05192314333D
 Structure written by MMmdl.
 49 53  0     1  0  0  0  0  0999 V2000
   -6.3918   12.3765  -12.0158 C   0  0  3  0  0  0  0  0  0  0  0  0
   -6.5335   11.8201  -10.7317 C   0  0  0  0  0  0  0  0  0  0  0  0
   -7.7273   10.5795  -13.0319 C   0  0  0  0  0  0  0  0  0  0  0  0
   -7.0082   11.7773  -13.1176 C   0  0  0  0  0  0  0  0  0  0  0  0
   -7.8294   10.0116  -11.7546 C   0  0  0  0  0  0  0  0  0  0  0  0
   -7.2533   10.6299  -10.5984 C   0  0  0  0  0  0  0  0  0  0  0  0
   -7.6133    9.7501   -9.5115 C   0  0  0  0  0  0  0  0  0  0  0  0
   -8.2802    8.7340   -9.9853 N   0  0  0  0  0  0  0  0  0  0  0  0
   -8.4149    8.8602  -11.2994 N   0  0  0  0  0  0  0  0  0  0  0  0
   -7.3368    9.8898   -8.0240 C   0  0  0  0  0  0  0  0  0  0  0  0
   -4.3580   13.5891  -11.5451 N   0  0  0  0  0  0  0  0  0  0  0  0
   -5.5327   13.6029  -12.2131 C   0  0  0  0  0  0  0  0  0  0  0  0
   -5.8791   14.5089  -12.9726 O   0  0  0  0  0  0  0  0  0  0  0  0
   -5.9622   10.4818   -7.7351 C   0  0  0  0  0  0  0  0  0  0  0  0
   -5.8525   11.7570   -7.1642 C   0  0  0  0  0  0  0  0  0  0  0  0
   -4.5920   12.3049   -6.9193 C   0  0  0  0  0  0  0  0  0  0  0  0
   -3.4386   11.5825   -7.2408 C   0  0  0  0  0  0  0  0  0  0  0  0
   -3.5579   10.3128   -7.8038 C   0  0  0  0  0  0  0  0  0  0  0  0
   -4.8126    9.7642   -8.0521 C   0  0  0  0  0  0  0  0  0  0  0  0
   -2.0919   12.1643   -6.9829 C   0  0  0  0  0  0  0  0  0  0  0  0
   -1.7362   13.4287   -6.5051 C   0  0  0  0  0  0  0  0  0  0  0  0
   -0.4017   13.4552   -6.4435 N   0  0  0  0  0  0  0  0  0  0  0  0
    0.1850   12.3496   -6.8156 N   0  0  0  0  0  0  0  0  0  0  0  0
   -0.8078   11.5460   -7.1722 C   0  0  0  0  0  0  0  0  0  0  0  0
    0.4351   14.5688   -6.0125 C   0  0  0  0  0  0  0  0  0  0  0  0
   -3.3172   14.5865  -11.7755 C   0  0  0  0  0  0  0  0  0  0  0  0
   -1.8924   14.0513  -11.7355 C   0  0  0  0  0  0  0  0  0  0  0  0
   -2.3932   14.9579  -10.6450 C   0  0  0  0  0  0  0  0  0  0  0  0
   -7.2761   13.0097  -11.8512 H   0  0  0  0  0  0  0  0  0  0  0  0
   -6.0964   12.3014   -9.8693 H   0  0  0  0  0  0  0  0  0  0  0  0
   -8.1772   10.1197  -13.8994 H   0  0  0  0  0  0  0  0  0  0  0  0
   -6.9259   12.2608  -14.0798 H   0  0  0  0  0  0  0  0  0  0  0  0
   -8.6361    7.9747   -9.4405 H   0  0  0  0  0  0  0  0  0  0  0  0
   -8.0380    9.6010   -7.2550 H   0  0  0  0  0  0  0  0  0  0  0  0
   -4.1960   12.8702  -10.8691 H   0  0  0  0  0  0  0  0  0  0  0  0
   -6.7424   12.3154   -6.9139 H   0  0  0  0  0  0  0  0  0  0  0  0
   -4.5075   13.2883   -6.4808 H   0  0  0  0  0  0  0  0  0  0  0  0
   -2.6693    9.7502   -8.0493 H   0  0  0  0  0  0  0  0  0  0  0  0
   -4.8943    8.7808   -8.4911 H   0  0  0  0  0  0  0  0  0  0  0  0
   -2.4097   14.2294   -6.2375 H   0  0  0  0  0  0  0  0  0  0  0  0
   -0.6685   10.5471   -7.5584 H   0  0  0  0  0  0  0  0  0  0  0  0
    1.4941   14.2779   -6.0748 H   0  0  0  0  0  0  0  0  0  0  0  0
    0.2544   15.4366   -6.6639 H   0  0  0  0  0  0  0  0  0  0  0  0
    0.1879   14.8324   -4.9736 H   0  0  0  0  0  0  0  0  0  0  0  0
   -3.5215   15.3697  -12.5204 H   0  0  0  0  0  0  0  0  0  0  0  0
   -1.7095   12.9870  -11.5263 H   0  0  0  0  0  0  0  0  0  0  0  0
   -1.1463   14.4168  -12.4564 H   0  0  0  0  0  0  0  0  0  0  0  0
   -2.0084   15.9854  -10.5669 H   0  0  0  0  0  0  0  0  0  0  0  0
   -2.5716   14.5556   -9.6369 H   0  0  0  0  0  0  0  0  0  0  0  0
  1  2  1  0  0  0  0
  1  4  1  0  0  0  0
  1 12  1  0  0  0  0
  2  6  2  0  0  0  0
  3  4  2  0  0  0  0
  3  5  1  0  0  0  0
  5  6  1  0  0  0  0
  5  9  2  0  0  0  0
  6  7  1  0  0  0  0
  7  8  1  0  0  0  0
  7 10  2  3  0  0  0
  8  9  1  0  0  0  0
 10 14  1  0  0  0  0
 11 12  1  0  0  0  0
 11 26  1  0  0  0  0
 12 13  2  0  0  0  0
 14 15  2  0  0  0  0
 14 19  1  0  0  0  0
 15 16  1  0  0  0  0
 16 17  2  0  0  0  0
 17 18  1  0  0  0  0
 17 20  1  0  0  0  0
 18 19  2  0  0  0  0
 20 21  2  0  0  0  0
 20 24  1  0  0  0  0
 21 22  1  0  0  0  0
 22 23  1  0  0  0  0
 22 25  1  0  0  0  0
 23 24  2  0  0  0  0
 26 27  1  0  0  0  0
 26 28  1  0  0  0  0
 27 28  1  0  0  0  0
  1 29  1  0  0  0  0
  2 30  1  0  0  0  0
  3 31  1  0  0  0  0
  4 32  1  0  0  0  0
  8 33  1  0  0  0  0
 10 34  1  0  0  0  0
 11 35  1  0  0  0  0
 15 36  1  0  0  0  0
 16 37  1  0  0  0  0
 18 38  1  0  0  0  0
 19 39  1  0  0  0  0
 21 40  1  0  0  0  0
 24 41  1  0  0  0  0
 25 42  1  0  0  0  0
 25 43  1  0  0  0  0
 25 44  1  0  0  0  0
 26 45  1  0  0  0  0
 27 46  1  0  0  0  0
 27 47  1  0  0  0  0
 28 48  1  0  0  0  0
 28 49  1  0  0  0  0
M  END
> <Name>
33

> <IC50[uM]>
0.008

$$$$
33
  -OEChem-05192314333D
 Structure written by MMmdl.
 49 53  0     0  0  0  0  0  0999 V2000
   -6.3918   12.3765  -12.0158 C   0  0  0  0  0  0  0  0  0  0  0  0
   -6.5335   11.8201  -10.7317 C   0  0  0  0  0  0  0  0  0  0  0  0
   -7.7273   10.5795  -13.0319 C   0  0  0  0  0  0  0  0  0  0  0  0
   -7.0082   11.7773  -13.1176 C   0  0  0  0  0  0  0  0  0  0  0  0
   -7.8294   10.0116  -11.7546 C   0  0  0  0  0  0  0  0  0  0  0  0
   -7.2533   10.6299  -10.5984 C   0  0  0  0  0  0  0  0  0  0  0  0
   -7.6133    9.7501   -9.5115 C   0  0  0  0  0  0  0  0  0  0  0  0
   -8.2802    8.7340   -9.9853 N   0  0  0  0  0  0  0  0  0  0  0  0
   -8.4149    8.8602  -11.2994 N   0  0  0  0  0  0  0  0  0  0  0  0
   -7.3368    9.8898   -8.0240 C   0  0  0  0  0  0  0  0  0  0  0  0
   -4.3580   13.5891  -11.5451 N   0  0  0  0  0  0  0  0  0  0  0  0
   -5.5327   13.6029  -12.2131 C   0  0  0  0  0  0  0  0  0  0  0  0
   -5.8791   14.5089  -12.9726 O   0  0  0  0  0  0  0  0  0  0  0  0
   -5.9622   10.4818   -7.7351 C   0  0  0  0  0  0  0  0  0  0  0  0
   -5.8525   11.7570   -7.1642 C   0  0  0  0  0  0  0  0  0  0  0  0
   -4.5920   12.3049   -6.9193 C   0  0  0  0  0  0  0  0  0  0  0  0
   -3.4386   11.5825   -7.2408 C   0  0  0  0  0  0  0  0  0  0  0  0
   -3.5579   10.3128   -7.8038 C   0  0  0  0  0  0  0  0  0  0  0  0
   -4.8126    9.7642   -8.0521 C   0  0  0  0  0  0  0  0  0  0  0  0
   -2.0919   12.1643   -6.9829 C   0  0  0  0  0  0  0  0  0  0  0  0
   -1.7362   13.4287   -6.5051 C   0  0  0  0  0  0  0  0  0  0  0  0
   -0.4017   13.4552   -6.4435 N   0  0  0  0  0  0  0  0  0  0  0  0
    0.1850   12.3496   -6.8156 N   0  0  0  0  0  0  0  0  0  0  0  0
   -0.8078   11.5460   -7.1722 C   0  0  0  0  0  0  0  0  0  0  0  0
    0.4351   14.5688   -6.0125 C   0  0  0  0  0  0  0  0  0  0  0  0
   -3.3172   14.5865  -11.7755 C   0  0  0  0  0  0  0  0  0  0  0  0
   -1.8924   14.0513  -11.7355 C   0  0  0  0  0  0  0  0  0  0  0  0
   -2.3932   14.9579  -10.6450 C   0  0  0  0  0  0  0  0  0  0  0  0
   -6.0964   12.3014   -9.8693 H   0  0  0  0  0  0  0  0  0  0  0  0
   -8.7470   10.7729  -13.3962 H   0  0  0  0  0  0  0  0  0  0  0  0
   -7.2367    9.8453  -13.6879 H   0  0  0  0  0  0  0  0  0  0  0  0
   -6.9259   12.2608  -14.0798 H   0  0  0  0  0  0  0  0  0  0  0  0
   -8.6361    7.9747   -9.4405 H   0  0  0  0  0  0  0  0  0  0  0  0
   -8.0380    9.6010   -7.2550 H   0  0  0  0  0  0  0  0  0  0  0  0
   -4.1960   12.8702  -10.8691 H   0  0  0  0  0  0  0  0  0  0  0  0
   -6.7424   12.3154   -6.9139 H   0  0  0  0  0  0  0  0  0  0  0  0
   -4.5075   13.2883   -6.4808 H   0  0  0  0  0  0  0  0  0  0  0  0
   -2.6693    9.7502   -8.0493 H   0  0  0  0  0  0  0  0  0  0  0  0
   -4.8943    8.7808   -8.4911 H   0  0  0  0  0  0  0  0  0  0  0  0
   -2.4097   14.2294   -6.2375 H   0  0  0  0  0  0  0  0  0  0  0  0
   -0.6685   10.5471   -7.5584 H   0  0  0  0  0  0  0  0  0  0  0  0
    1.4941   14.2779   -6.0748 H   0  0  0  0  0  0  0  0  0  0  0  0
    0.2544   15.4366   -6.6639 H   0  0  0  0  0  0  0  0  0  0  0  0
    0.1879   14.8324   -4.9736 H   0  0  0  0  0  0  0  0  0  0  0  0
   -3.5215   15.3697  -12.5204 H   0  0  0  0  0  0  0  0  0  0  0  0
   -1.7095   12.9870  -11.5263 H   0  0  0  0  0  0  0  0  0  0  0  0
   -1.1463   14.4168  -12.4564 H   0  0  0  0  0  0  0  0  0  0  0  0
   -2.0084   15.9854  -10.5669 H   0  0  0  0  0  0  0  0  0  0  0  0
   -2.5716   14.5556   -9.6369 H   0  0  0  0  0  0  0  0  0  0  0  0
  1  2  1  0  0  0  0
  1  4  2  0  0  0  0
  1 12  1  0  0  0  0
  2  6  2  0  0  0  0
  3  4  1  0  0  0  0
  3  5  1  0  0  0  0
  5  6  1  0  0  0  0
  5  9  2  0  0  0  0
  6  7  1  0  0  0  0
  7  8  1  0  0  0  0
  7 10  2  3  0  0  0
  8  9  1  0  0  0  0
 10 14  1  0  0  0  0
 11 12  1  0  0  0  0
 11 26  1  0  0  0  0
 12 13  2  0  0  0  0
 14 15  2  0  0  0  0
 14 19  1  0  0  0  0
 15 16  1  0  0  0  0
 16 17  2  0  0  0  0
 17 18  1  0  0  0  0
 17 20  1  0  0  0  0
 18 19  2  0  0  0  0
 20 21  2  0  0  0  0
 20 24  1  0  0  0  0
 21 22  1  0  0  0  0
 22 23  1  0  0  0  0
 22 25  1  0  0  0  0
 23 24  2  0  0  0  0
 26 27  1  0  0  0  0
 26 28  1  0  0  0  0
 27 28  1  0  0  0  0
  2 29  1  0  0  0  0
  3 30  1  0  0  0  0
  3 31  1  0  0  0  0
  4 32  1  0  0  0  0
  8 33  1  0  0  0  0
 10 34  1  0  0  0  0
 11 35  1  0  0  0  0
 15 36  1  0  0  0  0
 16 37  1  0  0  0  0
 18 38  1  0  0  0  0
 19 39  1  0  0  0  0
 21 40  1  0  0  0  0
 24 41  1  0  0  0  0
 25 42  1  0  0  0  0
 25 43  1  0  0  0  0
 25 44  1  0  0  0  0
 26 45  1  0  0  0  0
 27 46  1  0  0  0  0
 27 47  1  0  0  0  0
 28 48  1  0  0  0  0
 28 49  1  0  0  0  0
M  END
> <Name>
33

> <IC50[uM]>
0.008

$$$$
33
  -OEChem-05192314333D
 Structure written by MMmdl.
 49 53  0     1  0  0  0  0  0999 V2000
   -6.3918   12.3765  -12.0158 C   0  0  3  0  0  0  0  0  0  0  0  0
   -6.5335   11.8201  -10.7317 C   0  0  0  0  0  0  0  0  0  0  0  0
   -7.7273   10.5795  -13.0319 C   0  0  0  0  0  0  0  0  0  0  0  0
   -7.0082   11.7773  -13.1176 C   0  0  0  0  0  0  0  0  0  0  0  0
   -7.8294   10.0116  -11.7546 C   0  0  0  0  0  0  0  0  0  0  0  0
   -7.2533   10.6299  -10.5984 C   0  0  0  0  0  0  0  0  0  0  0  0
   -7.6133    9.7501   -9.5115 C   0  0  0  0  0  0  0  0  0  0  0  0
   -8.2802    8.7340   -9.9853 N   0  0  0  0  0  0  0  0  0  0  0  0
   -8.4149    8.8602  -11.2994 N   0  0  0  0  0  0  0  0  0  0  0  0
   -7.3368    9.8898   -8.0240 C   0  0  0  0  0  0  0  0  0  0  0  0
   -4.3580   13.5891  -11.5451 N   0  0  0  0  0  0  0  0  0  0  0  0
   -5.5327   13.6029  -12.2131 C   0  0  0  0  0  0  0  0  0  0  0  0
   -5.8791   14.5089  -12.9726 O   0  0  0  0  0  0  0  0  0  0  0  0
   -5.9622   10.4818   -7.7351 C   0  0  0  0  0  0  0  0  0  0  0  0
   -5.8525   11.7570   -7.1642 C   0  0  0  0  0  0  0  0  0  0  0  0
   -4.5920   12.3049   -6.9193 C   0  0  0  0  0  0  0  0  0  0  0  0
   -3.4386   11.5825   -7.2408 C   0  0  0  0  0  0  0  0  0  0  0  0
   -3.5579   10.3128   -7.8038 C   0  0  0  0  0  0  0  0  0  0  0  0
   -4.8126    9.7642   -8.0521 C   0  0  0  0  0  0  0  0  0  0  0  0
   -2.0919   12.1643   -6.9829 C   0  0  0  0  0  0  0  0  0  0  0  0
   -1.7362   13.4287   -6.5051 C   0  0  0  0  0  0  0  0  0  0  0  0
   -0.4017   13.4552   -6.4435 N   0  0  0  0  0  0  0  0  0  0  0  0
    0.1850   12.3496   -6.8156 N   0  0  0  0  0  0  0  0  0  0  0  0
   -0.8078   11.5460   -7.1722 C   0  0  0  0  0  0  0  0  0  0  0  0
    0.4351   14.5688   -6.0125 C   0  0  0  0  0  0  0  0  0  0  0  0
   -3.3172   14.5865  -11.7755 C   0  0  0  0  0  0  0  0  0  0  0  0
   -1.8924   14.0513  -11.7355 C   0  0  0  0  0  0  0  0  0  0  0  0
   -2.3932   14.9579  -10.6450 C   0  0  0  0  0  0  0  0  0  0  0  0
   -7.2761   13.0097  -11.8512 H   0  0  0  0  0  0  0  0  0  0  0  0
   -6.0964   12.3014   -9.8693 H   0  0  0  0  0  0  0  0  0  0  0  0
   -8.1772   10.1197  -13.8994 H   0  0  0  0  0  0  0  0  0  0  0  0
   -6.9259   12.2608  -14.0798 H   0  0  0  0  0  0  0  0  0  0  0  0
   -8.6361    7.9747   -9.4405 H   0  0  0  0  0  0  0  0  0  0  0  0
   -8.0380    9.6010   -7.2550 H   0  0  0  0  0  0  0  0  0  0  0  0
   -5.2205   15.1935  -12.9707 H   0  0  0  0  0  0  0  0  0  0  0  0
   -6.7424   12.3154   -6.9139 H   0  0  0  0  0  0  0  0  0  0  0  0
   -4.5075   13.2883   -6.4808 H   0  0  0  0  0  0  0  0  0  0  0  0
   -2.6693    9.7502   -8.0493 H   0  0  0  0  0  0  0  0  0  0  0  0
   -4.8943    8.7808   -8.4911 H   0  0  0  0  0  0  0  0  0  0  0  0
   -2.4097   14.2294   -6.2375 H   0  0  0  0  0  0  0  0  0  0  0  0
   -0.6685   10.5471   -7.5584 H   0  0  0  0  0  0  0  0  0  0  0  0
    1.4941   14.2779   -6.0748 H   0  0  0  0  0  0  0  0  0  0  0  0
    0.2544   15.4366   -6.6639 H   0  0  0  0  0  0  0  0  0  0  0  0
    0.1879   14.8324   -4.9736 H   0  0  0  0  0  0  0  0  0  0  0  0
   -3.5215   15.3697  -12.5204 H   0  0  0  0  0  0  0  0  0  0  0  0
   -1.7095   12.9870  -11.5263 H   0  0  0  0  0  0  0  0  0  0  0  0
   -1.1463   14.4168  -12.4564 H   0  0  0  0  0  0  0  0  0  0  0  0
   -2.0084   15.9854  -10.5669 H   0  0  0  0  0  0  0  0  0  0  0  0
   -2.5716   14.5556   -9.6369 H   0  0  0  0  0  0  0  0  0  0  0  0
  1  2  1  0  0  0  0
  1  4  1  0  0  0  0
  1 12  1  0  0  0  0
  2  6  2  0  0  0  0
  3  4  2  0  0  0  0
  3  5  1  0  0  0  0
  5  6  1  0  0  0  0
  5  9  2  0  0  0  0
  6  7  1  0  0  0  0
  7  8  1  0  0  0  0
  7 10  2  3  0  0  0
  8  9  1  0  0  0  0
 10 14  1  0  0  0  0
 11 12  2  0  0  0  0
 11 26  1  0  0  0  0
 12 13  1  0  0  0  0
 14 15  2  0  0  0  0
 14 19  1  0  0  0  0
 15 16  1  0  0  0  0
 16 17  2  0  0  0  0
 17 18  1  0  0  0  0
 17 20  1  0  0  0  0
 18 19  2  0  0  0  0
 20 21  2  0  0  0  0
 20 24  1  0  0  0  0
 21 22  1  0  0  0  0
 22 23  1  0  0  0  0
 22 25  1  0  0  0  0
 23 24  2  0  0  0  0
 26 27  1  0  0  0  0
 26 28  1  0  0  0  0
 27 28  1  0  0  0  0
  1 29  1  0  0  0  0
  2 30  1  0  0  0  0
  3 31  1  0  0  0  0
  4 32  1  0  0  0  0
  8 33  1  0  0  0  0
 10 34  1  0  0  0  0
 13 35  1  0  0  0  0
 15 36  1  0  0  0  0
 16 37  1  0  0  0  0
 18 38  1  0  0  0  0
 19 39  1  0  0  0  0
 21 40  1  0  0  0  0
 24 41  1  0  0  0  0
 25 42  1  0  0  0  0
 25 43  1  0  0  0  0
 25 44  1  0  0  0  0
 26 45  1  0  0  0  0
 27 46  1  0  0  0  0
 27 47  1  0  0  0  0
 28 48  1  0  0  0  0
 28 49  1  0  0  0  0
M  END
> <Name>
33

> <IC50[uM]>
0.008

$$$$
33
  -OEChem-05192314333D
 Structure written by MMmdl.
 49 53  0     0  0  0  0  0  0999 V2000
   -6.3918   12.3765  -12.0158 C   0  0  0  0  0  0  0  0  0  0  0  0
   -6.5335   11.8201  -10.7317 C   0  0  0  0  0  0  0  0  0  0  0  0
   -7.7273   10.5795  -13.0319 C   0  0  0  0  0  0  0  0  0  0  0  0
   -7.0082   11.7773  -13.1176 C   0  0  0  0  0  0  0  0  0  0  0  0
   -7.8294   10.0116  -11.7546 C   0  0  0  0  0  0  0  0  0  0  0  0
   -7.2533   10.6299  -10.5984 C   0  0  0  0  0  0  0  0  0  0  0  0
   -7.6133    9.7501   -9.5115 C   0  0  0  0  0  0  0  0  0  0  0  0
   -8.2802    8.7340   -9.9853 N   0  0  0  0  0  0  0  0  0  0  0  0
   -8.4149    8.8602  -11.2994 N   0  0  0  0  0  0  0  0  0  0  0  0
   -7.3368    9.8898   -8.0240 C   0  0  0  0  0  0  0  0  0  0  0  0
   -4.3580   13.5891  -11.5451 N   0  0  0  0  0  0  0  0  0  0  0  0
   -5.5327   13.6029  -12.2131 C   0  0  0  0  0  0  0  0  0  0  0  0
   -5.8791   14.5089  -12.9726 O   0  0  0  0  0  0  0  0  0  0  0  0
   -5.9622   10.4818   -7.7351 C   0  0  0  0  0  0  0  0  0  0  0  0
   -5.8525   11.7570   -7.1642 C   0  0  0  0  0  0  0  0  0  0  0  0
   -4.5920   12.3049   -6.9193 C   0  0  0  0  0  0  0  0  0  0  0  0
   -3.4386   11.5825   -7.2408 C   0  0  0  0  0  0  0  0  0  0  0  0
   -3.5579   10.3128   -7.8038 C   0  0  0  0  0  0  0  0  0  0  0  0
   -4.8126    9.7642   -8.0521 C   0  0  0  0  0  0  0  0  0  0  0  0
   -2.0919   12.1643   -6.9829 C   0  0  0  0  0  0  0  0  0  0  0  0
   -1.7362   13.4287   -6.5051 C   0  0  0  0  0  0  0  0  0  0  0  0
   -0.4017   13.4552   -6.4435 N   0  0  0  0  0  0  0  0  0  0  0  0
    0.1850   12.3496   -6.8156 N   0  0  0  0  0  0  0  0  0  0  0  0
   -0.8078   11.5460   -7.1722 C   0  0  0  0  0  0  0  0  0  0  0  0
    0.4351   14.5688   -6.0125 C   0  0  0  0  0  0  0  0  0  0  0  0
   -3.3172   14.5865  -11.7755 C   0  0  0  0  0  0  0  0  0  0  0  0
   -1.8924   14.0513  -11.7355 C   0  0  0  0  0  0  0  0  0  0  0  0
   -2.3932   14.9579  -10.6450 C   0  0  0  0  0  0  0  0  0  0  0  0
   -6.0964   12.3014   -9.8693 H   0  0  0  0  0  0  0  0  0  0  0  0
   -8.7470   10.7729  -13.3962 H   0  0  0  0  0  0  0  0  0  0  0  0
   -7.2367    9.8453  -13.6879 H   0  0  0  0  0  0  0  0  0  0  0  0
   -6.9259   12.2608  -14.0798 H   0  0  0  0  0  0  0  0  0  0  0  0
   -8.6361    7.9747   -9.4405 H   0  0  0  0  0  0  0  0  0  0  0  0
   -8.0380    9.6010   -7.2550 H   0  0  0  0  0  0  0  0  0  0  0  0
   -5.2205   15.1935  -12.9707 H   0  0  0  0  0  0  0  0  0  0  0  0
   -6.7424   12.3154   -6.9139 H   0  0  0  0  0  0  0  0  0  0  0  0
   -4.5075   13.2883   -6.4808 H   0  0  0  0  0  0  0  0  0  0  0  0
   -2.6693    9.7502   -8.0493 H   0  0  0  0  0  0  0  0  0  0  0  0
   -4.8943    8.7808   -8.4911 H   0  0  0  0  0  0  0  0  0  0  0  0
   -2.4097   14.2294   -6.2375 H   0  0  0  0  0  0  0  0  0  0  0  0
   -0.6685   10.5471   -7.5584 H   0  0  0  0  0  0  0  0  0  0  0  0
    1.4941   14.2779   -6.0748 H   0  0  0  0  0  0  0  0  0  0  0  0
    0.2544   15.4366   -6.6639 H   0  0  0  0  0  0  0  0  0  0  0  0
    0.1879   14.8324   -4.9736 H   0  0  0  0  0  0  0  0  0  0  0  0
   -3.5215   15.3697  -12.5204 H   0  0  0  0  0  0  0  0  0  0  0  0
   -1.7095   12.9870  -11.5263 H   0  0  0  0  0  0  0  0  0  0  0  0
   -1.1463   14.4168  -12.4564 H   0  0  0  0  0  0  0  0  0  0  0  0
   -2.0084   15.9854  -10.5669 H   0  0  0  0  0  0  0  0  0  0  0  0
   -2.5716   14.5556   -9.6369 H   0  0  0  0  0  0  0  0  0  0  0  0
  1  2  1  0  0  0  0
  1  4  2  0  0  0  0
  1 12  1  0  0  0  0
  2  6  2  0  0  0  0
  3  4  1  0  0  0  0
  3  5  1  0  0  0  0
  5  6  1  0  0  0  0
  5  9  2  0  0  0  0
  6  7  1  0  0  0  0
  7  8  1  0  0  0  0
  7 10  2  3  0  0  0
  8  9  1  0  0  0  0
 10 14  1  0  0  0  0
 11 12  2  0  0  0  0
 11 26  1  0  0  0  0
 12 13  1  0  0  0  0
 14 15  2  0  0  0  0
 14 19  1  0  0  0  0
 15 16  1  0  0  0  0
 16 17  2  0  0  0  0
 17 18  1  0  0  0  0
 17 20  1  0  0  0  0
 18 19  2  0  0  0  0
 20 21  2  0  0  0  0
 20 24  1  0  0  0  0
 21 22  1  0  0  0  0
 22 23  1  0  0  0  0
 22 25  1  0  0  0  0
 23 24  2  0  0  0  0
 26 27  1  0  0  0  0
 26 28  1  0  0  0  0
 27 28  1  0  0  0  0
  2 29  1  0  0  0  0
  3 30  1  0  0  0  0
  3 31  1  0  0  0  0
  4 32  1  0  0  0  0
  8 33  1  0  0  0  0
 10 34  1  0  0  0  0
 13 35  1  0  0  0  0
 15 36  1  0  0  0  0
 16 37  1  0  0  0  0
 18 38  1  0  0  0  0
 19 39  1  0  0  0  0
 21 40  1  0  0  0  0
 24 41  1  0  0  0  0
 25 42  1  0  0  0  0
 25 43  1  0  0  0  0
 25 44  1  0  0  0  0
 26 45  1  0  0  0  0
 27 46  1  0  0  0  0
 27 47  1  0  0  0  0
 28 48  1  0  0  0  0
 28 49  1  0  0  0  0
M  END
> <Name>
33

> <IC50[uM]>
0.008

$$$$
33
  -OEChem-05192314333D
 Structure written by MMmdl.
 49 53  0     1  0  0  0  0  0999 V2000
   -6.3918   12.3765  -12.0158 C   0  0  0  0  0  0  0  0  0  0  0  0
   -6.5335   11.8201  -10.7317 C   0  0  0  0  0  0  0  0  0  0  0  0
   -7.7273   10.5795  -13.0319 C   0  0  0  0  0  0  0  0  0  0  0  0
   -7.0082   11.7773  -13.1176 C   0  0  0  0  0  0  0  0  0  0  0  0
   -7.8294   10.0116  -11.7546 C   0  0  0  0  0  0  0  0  0  0  0  0
   -7.2533   10.6299  -10.5984 C   0  0  0  0  0  0  0  0  0  0  0  0
   -7.6133    9.7501   -9.5115 C   0  0  0  0  0  0  0  0  0  0  0  0
   -8.2802    8.7340   -9.9853 N   0  0  0  0  0  0  0  0  0  0  0  0
   -8.4149    8.8602  -11.2994 N   0  0  0  0  0  0  0  0  0  0  0  0
   -7.3368    9.8898   -8.0240 C   0  0  0  0  0  0  0  0  0  0  0  0
   -4.3580   13.5891  -11.5451 N   0  0  0  0  0  0  0  0  0  0  0  0
   -5.5327   13.6029  -12.2131 C   0  0  0  0  0  0  0  0  0  0  0  0
   -5.8791   14.5089  -12.9726 O   0  0  0  0  0  0  0  0  0  0  0  0
   -5.9622   10.4818   -7.7351 C   0  0  0  0  0  0  0  0  0  0  0  0
   -5.8525   11.7570   -7.1642 C   0  0  0  0  0  0  0  0  0  0  0  0
   -4.5920   12.3049   -6.9193 C   0  0  0  0  0  0  0  0  0  0  0  0
   -3.4386   11.5825   -7.2408 C   0  0  0  0  0  0  0  0  0  0  0  0
   -3.5579   10.3128   -7.8038 C   0  0  0  0  0  0  0  0  0  0  0  0
   -4.8126    9.7642   -8.0521 C   0  0  0  0  0  0  0  0  0  0  0  0
   -2.0919   12.1643   -6.9829 C   0  0  0  0  0  0  0  0  0  0  0  0
   -1.7362   13.4287   -6.5051 C   0  0  0  0  0  0  0  0  0  0  0  0
   -0.4017   13.4552   -6.4435 N   0  0  3  0  0  0  0  0  0  0  0  0
    0.1850   12.3496   -6.8156 N   0  0  0  0  0  0  0  0  0  0  0  0
   -0.8078   11.5460   -7.1722 C   0  0  0  0  0  0  0  0  0  0  0  0
    0.4351   14.5688   -6.0125 C   0  0  0  0  0  0  0  0  0  0  0  0
   -3.3172   14.5865  -11.7755 C   0  0  0  0  0  0  0  0  0  0  0  0
   -1.8924   14.0513  -11.7355 C   0  0  0  0  0  0  0  0  0  0  0  0
   -2.3932   14.9579  -10.6450 C   0  0  0  0  0  0  0  0  0  0  0  0
   -6.0964   12.3014   -9.8693 H   0  0  0  0  0  0  0  0  0  0  0  0
   -8.1772   10.1197  -13.8994 H   0  0  0  0  0  0  0  0  0  0  0  0
   -6.9259   12.2608  -14.0798 H   0  0  0  0  0  0  0  0  0  0  0  0
   -8.6361    7.9747   -9.4405 H   0  0  0  0  0  0  0  0  0  0  0  0
   -8.0380    9.6010   -7.2550 H   0  0  0  0  0  0  0  0  0  0  0  0
   -4.1960   12.8702  -10.8691 H   0  0  0  0  0  0  0  0  0  0  0  0
   -6.7424   12.3154   -6.9139 H   0  0  0  0  0  0  0  0  0  0  0  0
   -4.5075   13.2883   -6.4808 H   0  0  0  0  0  0  0  0  0  0  0  0
   -2.6693    9.7502   -8.0493 H   0  0  0  0  0  0  0  0  0  0  0  0
   -4.8943    8.7808   -8.4911 H   0  0  0  0  0  0  0  0  0  0  0  0
   -2.0995   14.2088   -7.1903 H   0  0  0  0  0  0  0  0  0  0  0  0
   -2.1650   13.5904   -5.5051 H   0  0  0  0  0  0  0  0  0  0  0  0
   -0.6685   10.5471   -7.5584 H   0  0  0  0  0  0  0  0  0  0  0  0
    1.4941   14.2779   -6.0748 H   0  0  0  0  0  0  0  0  0  0  0  0
    0.2544   15.4366   -6.6639 H   0  0  0  0  0  0  0  0  0  0  0  0
    0.1879   14.8324   -4.9736 H   0  0  0  0  0  0  0  0  0  0  0  0
   -3.5215   15.3697  -12.5204 H   0  0  0  0  0  0  0  0  0  0  0  0
   -1.7095   12.9870  -11.5263 H   0  0  0  0  0  0  0  0  0  0  0  0
   -1.1463   14.4168  -12.4564 H   0  0  0  0  0  0  0  0  0  0  0  0
   -2.0084   15.9854  -10.5669 H   0  0  0  0  0  0  0  0  0  0  0  0
   -2.5716   14.5556   -9.6369 H   0  0  0  0  0  0  0  0  0  0  0  0
  1  2  2  0  0  0  0
  1  4  1  0  0  0  0
  1 12  1  0  0  0  0
  2  6  1  0  0  0  0
  3  4  2  0  0  0  0
  3  5  1  0  0  0  0
  5  6  1  0  0  0  0
  5  9  2  0  0  0  0
  6  7  2  0  0  0  0
  7  8  1  0  0  0  0
  7 10  1  0  0  0  0
  8  9  1  0  0  0  0
 10 14  2  0  0  0  0
 11 12  1  0  0  0  0
 11 26  1  0  0  0  0
 12 13  2  0  0  0  0
 14 15  1  0  0  0  0
 14 19  1  0  0  0  0
 15 16  2  0  0  0  0
 16 17  1  0  0  0  0
 17 18  1  0  0  0  0
 17 20  2  0  0  0  0
 18 19  2  0  0  0  0
 20 21  1  0  0  0  0
 20 24  1  0  0  0  0
 21 22  1  0  0  0  0
 22 23  1  0  0  0  0
 22 25  1  0  0  0  0
 23 24  2  0  0  0  0
 26 27  1  0  0  0  0
 26 28  1  0  0  0  0
 27 28  1  0  0  0  0
  2 29  1  0  0  0  0
  3 30  1  0  0  0  0
  4 31  1  0  0  0  0
  8 32  1  0  0  0  0
 10 33  1  0  0  0  0
 11 34  1  0  0  0  0
 15 35  1  0  0  0  0
 16 36  1  0  0  0  0
 18 37  1  0  0  0  0
 19 38  1  0  0  0  0
 21 39  1  0  0  0  0
 21 40  1  0  0  0  0
 24 41  1  0  0  0  0
 25 42  1  0  0  0  0
 25 43  1  0  0  0  0
 25 44  1  0  0  0  0
 26 45  1  0  0  0  0
 27 46  1  0  0  0  0
 27 47  1  0  0  0  0
 28 48  1  0  0  0  0
 28 49  1  0  0  0  0
M  END
> <Name>
33

> <IC50[uM]>
0.008

$$$$
33
  -OEChem-05192314333D
 Structure written by MMmdl.
 49 53  0     1  0  0  0  0  0999 V2000
   -6.3918   12.3765  -12.0158 C   0  0  0  0  0  0  0  0  0  0  0  0
   -6.5335   11.8201  -10.7317 C   0  0  0  0  0  0  0  0  0  0  0  0
   -7.7273   10.5795  -13.0319 C   0  0  0  0  0  0  0  0  0  0  0  0
   -7.0082   11.7773  -13.1176 C   0  0  0  0  0  0  0  0  0  0  0  0
   -7.8294   10.0116  -11.7546 C   0  0  0  0  0  0  0  0  0  0  0  0
   -7.2533   10.6299  -10.5984 C   0  0  0  0  0  0  0  0  0  0  0  0
   -7.6133    9.7501   -9.5115 C   0  0  0  0  0  0  0  0  0  0  0  0
   -8.2802    8.7340   -9.9853 N   0  0  0  0  0  0  0  0  0  0  0  0
   -8.4149    8.8602  -11.2994 N   0  0  0  0  0  0  0  0  0  0  0  0
   -7.3368    9.8898   -8.0240 C   0  0  0  0  0  0  0  0  0  0  0  0
   -4.3580   13.5891  -11.5451 N   0  0  0  0  0  0  0  0  0  0  0  0
   -5.5327   13.6029  -12.2131 C   0  0  0  0  0  0  0  0  0  0  0  0
   -5.8791   14.5089  -12.9726 O   0  0  0  0  0  0  0  0  0  0  0  0
   -5.9622   10.4818   -7.7351 C   0  0  0  0  0  0  0  0  0  0  0  0
   -5.8525   11.7570   -7.1642 C   0  0  0  0  0  0  0  0  0  0  0  0
   -4.5920   12.3049   -6.9193 C   0  0  0  0  0  0  0  0  0  0  0  0
   -3.4386   11.5825   -7.2408 C   0  0  0  0  0  0  0  0  0  0  0  0
   -3.5579   10.3128   -7.8038 C   0  0  0  0  0  0  0  0  0  0  0  0
   -4.8126    9.7642   -8.0521 C   0  0  0  0  0  0  0  0  0  0  0  0
   -2.0919   12.1643   -6.9829 C   0  0  0  0  0  0  0  0  0  0  0  0
   -1.7362   13.4287   -6.5051 C   0  0  0  0  0  0  0  0  0  0  0  0
   -0.4017   13.4552   -6.4435 N   0  0  3  0  0  0  0  0  0  0  0  0
    0.1850   12.3496   -6.8156 N   0  0  0  0  0  0  0  0  0  0  0  0
   -0.8078   11.5460   -7.1722 C   0  0  0  0  0  0  0  0  0  0  0  0
    0.4351   14.5688   -6.0125 C   0  0  0  0  0  0  0  0  0  0  0  0
   -3.3172   14.5865  -11.7755 C   0  0  0  0  0  0  0  0  0  0  0  0
   -1.8924   14.0513  -11.7355 C   0  0  0  0  0  0  0  0  0  0  0  0
   -2.3932   14.9579  -10.6450 C   0  0  0  0  0  0  0  0  0  0  0  0
   -6.0964   12.3014   -9.8693 H   0  0  0  0  0  0  0  0  0  0  0  0
   -8.1772   10.1197  -13.8994 H   0  0  0  0  0  0  0  0  0  0  0  0
   -6.9259   12.2608  -14.0798 H   0  0  0  0  0  0  0  0  0  0  0  0
   -8.8846    8.1982  -11.8835 H   0  0  0  0  0  0  0  0  0  0  0  0
   -8.0380    9.6010   -7.2550 H   0  0  0  0  0  0  0  0  0  0  0  0
   -4.1960   12.8702  -10.8691 H   0  0  0  0  0  0  0  0  0  0  0  0
   -6.7424   12.3154   -6.9139 H   0  0  0  0  0  0  0  0  0  0  0  0
   -4.5075   13.2883   -6.4808 H   0  0  0  0  0  0  0  0  0  0  0  0
   -2.6693    9.7502   -8.0493 H   0  0  0  0  0  0  0  0  0  0  0  0
   -4.8943    8.7808   -8.4911 H   0  0  0  0  0  0  0  0  0  0  0  0
   -2.0995   14.2088   -7.1903 H   0  0  0  0  0  0  0  0  0  0  0  0
   -2.1650   13.5904   -5.5051 H   0  0  0  0  0  0  0  0  0  0  0  0
   -0.6685   10.5471   -7.5584 H   0  0  0  0  0  0  0  0  0  0  0  0
    1.4941   14.2779   -6.0748 H   0  0  0  0  0  0  0  0  0  0  0  0
    0.2544   15.4366   -6.6639 H   0  0  0  0  0  0  0  0  0  0  0  0
    0.1879   14.8324   -4.9736 H   0  0  0  0  0  0  0  0  0  0  0  0
   -3.5215   15.3697  -12.5204 H   0  0  0  0  0  0  0  0  0  0  0  0
   -1.7095   12.9870  -11.5263 H   0  0  0  0  0  0  0  0  0  0  0  0
   -1.1463   14.4168  -12.4564 H   0  0  0  0  0  0  0  0  0  0  0  0
   -2.0084   15.9854  -10.5669 H   0  0  0  0  0  0  0  0  0  0  0  0
   -2.5716   14.5556   -9.6369 H   0  0  0  0  0  0  0  0  0  0  0  0
  1  2  2  0  0  0  0
  1  4  1  0  0  0  0
  1 12  1  0  0  0  0
  2  6  1  0  0  0  0
  3  4  2  0  0  0  0
  3  5  1  0  0  0  0
  5  6  2  0  0  0  0
  5  9  1  0  0  0  0
  6  7  1  0  0  0  0
  7  8  2  0  0  0  0
  7 10  1  0  0  0  0
  8  9  1  0  0  0  0
 10 14  2  0  0  0  0
 11 12  1  0  0  0  0
 11 26  1  0  0  0  0
 12 13  2  0  0  0  0
 14 15  1  0  0  0  0
 14 19  1  0  0  0  0
 15 16  2  0  0  0  0
 16 17  1  0  0  0  0
 17 18  1  0  0  0  0
 17 20  2  0  0  0  0
 18 19  2  0  0  0  0
 20 21  1  0  0  0  0
 20 24  1  0  0  0  0
 21 22  1  0  0  0  0
 22 23  1  0  0  0  0
 22 25  1  0  0  0  0
 23 24  2  0  0  0  0
 26 27  1  0  0  0  0
 26 28  1  0  0  0  0
 27 28  1  0  0  0  0
  2 29  1  0  0  0  0
  3 30  1  0  0  0  0
  4 31  1  0  0  0  0
  9 32  1  0  0  0  0
 10 33  1  0  0  0  0
 11 34  1  0  0  0  0
 15 35  1  0  0  0  0
 16 36  1  0  0  0  0
 18 37  1  0  0  0  0
 19 38  1  0  0  0  0
 21 39  1  0  0  0  0
 21 40  1  0  0  0  0
 24 41  1  0  0  0  0
 25 42  1  0  0  0  0
 25 43  1  0  0  0  0
 25 44  1  0  0  0  0
 26 45  1  0  0  0  0
 27 46  1  0  0  0  0
 27 47  1  0  0  0  0
 28 48  1  0  0  0  0
 28 49  1  0  0  0  0
M  END
> <Name>
33

> <IC50[uM]>
0.008

$$$$
33
  -OEChem-05192314333D
 Structure written by MMmdl.
 49 53  0     1  0  0  0  0  0999 V2000
   -6.3918   12.3765  -12.0158 C   0  0  0  0  0  0  0  0  0  0  0  0
   -6.5335   11.8201  -10.7317 C   0  0  0  0  0  0  0  0  0  0  0  0
   -7.7273   10.5795  -13.0319 C   0  0  0  0  0  0  0  0  0  0  0  0
   -7.0082   11.7773  -13.1176 C   0  0  0  0  0  0  0  0  0  0  0  0
   -7.8294   10.0116  -11.7546 C   0  0  0  0  0  0  0  0  0  0  0  0
   -7.2533   10.6299  -10.5984 C   0  0  0  0  0  0  0  0  0  0  0  0
   -7.6133    9.7501   -9.5115 C   0  0  0  0  0  0  0  0  0  0  0  0
   -8.2802    8.7340   -9.9853 N   0  0  0  0  0  0  0  0  0  0  0  0
   -8.4149    8.8602  -11.2994 N   0  0  0  0  0  0  0  0  0  0  0  0
   -7.3368    9.8898   -8.0240 C   0  0  0  0  0  0  0  0  0  0  0  0
   -4.3580   13.5891  -11.5451 N   0  0  0  0  0  0  0  0  0  0  0  0
   -5.5327   13.6029  -12.2131 C   0  0  0  0  0  0  0  0  0  0  0  0
   -5.8791   14.5089  -12.9726 O   0  0  0  0  0  0  0  0  0  0  0  0
   -5.9622   10.4818   -7.7351 C   0  0  0  0  0  0  0  0  0  0  0  0
   -5.8525   11.7570   -7.1642 C   0  0  0  0  0  0  0  0  0  0  0  0
   -4.5920   12.3049   -6.9193 C   0  0  0  0  0  0  0  0  0  0  0  0
   -3.4386   11.5825   -7.2408 C   0  0  0  0  0  0  0  0  0  0  0  0
   -3.5579   10.3128   -7.8038 C   0  0  0  0  0  0  0  0  0  0  0  0
   -4.8126    9.7642   -8.0521 C   0  0  0  0  0  0  0  0  0  0  0  0
   -2.0919   12.1643   -6.9829 C   0  0  0  0  0  0  0  0  0  0  0  0
   -1.7362   13.4287   -6.5051 C   0  0  0  0  0  0  0  0  0  0  0  0
   -0.4017   13.4552   -6.4435 N   0  0  3  0  0  0  0  0  0  0  0  0
    0.1850   12.3496   -6.8156 N   0  0  0  0  0  0  0  0  0  0  0  0
   -0.8078   11.5460   -7.1722 C   0  0  0  0  0  0  0  0  0  0  0  0
    0.4351   14.5688   -6.0125 C   0  0  0  0  0  0  0  0  0  0  0  0
   -3.3172   14.5865  -11.7755 C   0  0  0  0  0  0  0  0  0  0  0  0
   -1.8924   14.0513  -11.7355 C   0  0  0  0  0  0  0  0  0  0  0  0
   -2.3932   14.9579  -10.6450 C   0  0  0  0  0  0  0  0  0  0  0  0
   -6.0964   12.3014   -9.8693 H   0  0  0  0  0  0  0  0  0  0  0  0
   -8.1772   10.1197  -13.8994 H   0  0  0  0  0  0  0  0  0  0  0  0
   -6.9259   12.2608  -14.0798 H   0  0  0  0  0  0  0  0  0  0  0  0
   -8.6361    7.9747   -9.4405 H   0  0  0  0  0  0  0  0  0  0  0  0
   -8.0380    9.6010   -7.2550 H   0  0  0  0  0  0  0  0  0  0  0  0
   -5.2205   15.1935  -12.9707 H   0  0  0  0  0  0  0  0  0  0  0  0
   -6.7424   12.3154   -6.9139 H   0  0  0  0  0  0  0  0  0  0  0  0
   -4.5075   13.2883   -6.4808 H   0  0  0  0  0  0  0  0  0  0  0  0
   -2.6693    9.7502   -8.0493 H   0  0  0  0  0  0  0  0  0  0  0  0
   -4.8943    8.7808   -8.4911 H   0  0  0  0  0  0  0  0  0  0  0  0
   -2.0995   14.2088   -7.1903 H   0  0  0  0  0  0  0  0  0  0  0  0
   -2.1650   13.5904   -5.5051 H   0  0  0  0  0  0  0  0  0  0  0  0
   -0.6685   10.5471   -7.5584 H   0  0  0  0  0  0  0  0  0  0  0  0
    1.4941   14.2779   -6.0748 H   0  0  0  0  0  0  0  0  0  0  0  0
    0.2544   15.4366   -6.6639 H   0  0  0  0  0  0  0  0  0  0  0  0
    0.1879   14.8324   -4.9736 H   0  0  0  0  0  0  0  0  0  0  0  0
   -3.5215   15.3697  -12.5204 H   0  0  0  0  0  0  0  0  0  0  0  0
   -1.7095   12.9870  -11.5263 H   0  0  0  0  0  0  0  0  0  0  0  0
   -1.1463   14.4168  -12.4564 H   0  0  0  0  0  0  0  0  0  0  0  0
   -2.0084   15.9854  -10.5669 H   0  0  0  0  0  0  0  0  0  0  0  0
   -2.5716   14.5556   -9.6369 H   0  0  0  0  0  0  0  0  0  0  0  0
  1  2  2  0  0  0  0
  1  4  1  0  0  0  0
  1 12  1  0  0  0  0
  2  6  1  0  0  0  0
  3  4  2  0  0  0  0
  3  5  1  0  0  0  0
  5  6  1  0  0  0  0
  5  9  2  0  0  0  0
  6  7  2  0  0  0  0
  7  8  1  0  0  0  0
  7 10  1  0  0  0  0
  8  9  1  0  0  0  0
 10 14  2  0  0  0  0
 11 12  2  0  0  0  0
 11 26  1  0  0  0  0
 12 13  1  0  0  0  0
 14 15  1  0  0  0  0
 14 19  1  0  0  0  0
 15 16  2  0  0  0  0
 16 17  1  0  0  0  0
 17 18  1  0  0  0  0
 17 20  2  0  0  0  0
 18 19  2  0  0  0  0
 20 21  1  0  0  0  0
 20 24  1  0  0  0  0
 21 22  1  0  0  0  0
 22 23  1  0  0  0  0
 22 25  1  0  0  0  0
 23 24  2  0  0  0  0
 26 27  1  0  0  0  0
 26 28  1  0  0  0  0
 27 28  1  0  0  0  0
  2 29  1  0  0  0  0
  3 30  1  0  0  0  0
  4 31  1  0  0  0  0
  8 32  1  0  0  0  0
 10 33  1  0  0  0  0
 13 34  1  0  0  0  0
 15 35  1  0  0  0  0
 16 36  1  0  0  0  0
 18 37  1  0  0  0  0
 19 38  1  0  0  0  0
 21 39  1  0  0  0  0
 21 40  1  0  0  0  0
 24 41  1  0  0  0  0
 25 42  1  0  0  0  0
 25 43  1  0  0  0  0
 25 44  1  0  0  0  0
 26 45  1  0  0  0  0
 27 46  1  0  0  0  0
 27 47  1  0  0  0  0
 28 48  1  0  0  0  0
 28 49  1  0  0  0  0
M  END
> <Name>
33

> <IC50[uM]>
0.008

$$$$
33
  -OEChem-05192314333D
 Structure written by MMmdl.
 49 53  0     1  0  0  0  0  0999 V2000
   -6.3918   12.3765  -12.0158 C   0  0  0  0  0  0  0  0  0  0  0  0
   -6.5335   11.8201  -10.7317 C   0  0  0  0  0  0  0  0  0  0  0  0
   -7.7273   10.5795  -13.0319 C   0  0  0  0  0  0  0  0  0  0  0  0
   -7.0082   11.7773  -13.1176 C   0  0  0  0  0  0  0  0  0  0  0  0
   -7.8294   10.0116  -11.7546 C   0  0  0  0  0  0  0  0  0  0  0  0
   -7.2533   10.6299  -10.5984 C   0  0  0  0  0  0  0  0  0  0  0  0
   -7.6133    9.7501   -9.5115 C   0  0  0  0  0  0  0  0  0  0  0  0
   -8.2802    8.7340   -9.9853 N   0  0  0  0  0  0  0  0  0  0  0  0
   -8.4149    8.8602  -11.2994 N   0  0  0  0  0  0  0  0  0  0  0  0
   -7.3368    9.8898   -8.0240 C   0  0  0  0  0  0  0  0  0  0  0  0
   -4.3580   13.5891  -11.5451 N   0  0  0  0  0  0  0  0  0  0  0  0
   -5.5327   13.6029  -12.2131 C   0  0  0  0  0  0  0  0  0  0  0  0
   -5.8791   14.5089  -12.9726 O   0  0  0  0  0  0  0  0  0  0  0  0
   -5.9622   10.4818   -7.7351 C   0  0  0  0  0  0  0  0  0  0  0  0
   -5.8525   11.7570   -7.1642 C   0  0  0  0  0  0  0  0  0  0  0  0
   -4.5920   12.3049   -6.9193 C   0  0  0  0  0  0  0  0  0  0  0  0
   -3.4386   11.5825   -7.2408 C   0  0  0  0  0  0  0  0  0  0  0  0
   -3.5579   10.3128   -7.8038 C   0  0  0  0  0  0  0  0  0  0  0  0
   -4.8126    9.7642   -8.0521 C   0  0  0  0  0  0  0  0  0  0  0  0
   -2.0919   12.1643   -6.9829 C   0  0  0  0  0  0  0  0  0  0  0  0
   -1.7362   13.4287   -6.5051 C   0  0  0  0  0  0  0  0  0  0  0  0
   -0.4017   13.4552   -6.4435 N   0  0  3  0  0  0  0  0  0  0  0  0
    0.1850   12.3496   -6.8156 N   0  0  0  0  0  0  0  0  0  0  0  0
   -0.8078   11.5460   -7.1722 C   0  0  0  0  0  0  0  0  0  0  0  0
    0.4351   14.5688   -6.0125 C   0  0  0  0  0  0  0  0  0  0  0  0
   -3.3172   14.5865  -11.7755 C   0  0  0  0  0  0  0  0  0  0  0  0
   -1.8924   14.0513  -11.7355 C   0  0  0  0  0  0  0  0  0  0  0  0
   -2.3932   14.9579  -10.6450 C   0  0  0  0  0  0  0  0  0  0  0  0
   -6.0964   12.3014   -9.8693 H   0  0  0  0  0  0  0  0  0  0  0  0
   -8.1772   10.1197  -13.8994 H   0  0  0  0  0  0  0  0  0  0  0  0
   -6.9259   12.2608  -14.0798 H   0  0  0  0  0  0  0  0  0  0  0  0
   -8.8846    8.1982  -11.8835 H   0  0  0  0  0  0  0  0  0  0  0  0
   -8.0380    9.6010   -7.2550 H   0  0  0  0  0  0  0  0  0  0  0  0
   -5.2205   15.1935  -12.9707 H   0  0  0  0  0  0  0  0  0  0  0  0
   -6.7424   12.3154   -6.9139 H   0  0  0  0  0  0  0  0  0  0  0  0
   -4.5075   13.2883   -6.4808 H   0  0  0  0  0  0  0  0  0  0  0  0
   -2.6693    9.7502   -8.0493 H   0  0  0  0  0  0  0  0  0  0  0  0
   -4.8943    8.7808   -8.4911 H   0  0  0  0  0  0  0  0  0  0  0  0
   -2.0995   14.2088   -7.1903 H   0  0  0  0  0  0  0  0  0  0  0  0
   -2.1650   13.5904   -5.5051 H   0  0  0  0  0  0  0  0  0  0  0  0
   -0.6685   10.5471   -7.5584 H   0  0  0  0  0  0  0  0  0  0  0  0
    1.4941   14.2779   -6.0748 H   0  0  0  0  0  0  0  0  0  0  0  0
    0.2544   15.4366   -6.6639 H   0  0  0  0  0  0  0  0  0  0  0  0
    0.1879   14.8324   -4.9736 H   0  0  0  0  0  0  0  0  0  0  0  0
   -3.5215   15.3697  -12.5204 H   0  0  0  0  0  0  0  0  0  0  0  0
   -1.7095   12.9870  -11.5263 H   0  0  0  0  0  0  0  0  0  0  0  0
   -1.1463   14.4168  -12.4564 H   0  0  0  0  0  0  0  0  0  0  0  0
   -2.0084   15.9854  -10.5669 H   0  0  0  0  0  0  0  0  0  0  0  0
   -2.5716   14.5556   -9.6369 H   0  0  0  0  0  0  0  0  0  0  0  0
  1  2  2  0  0  0  0
  1  4  1  0  0  0  0
  1 12  1  0  0  0  0
  2  6  1  0  0  0  0
  3  4  2  0  0  0  0
  3  5  1  0  0  0  0
  5  6  2  0  0  0  0
  5  9  1  0  0  0  0
  6  7  1  0  0  0  0
  7  8  2  0  0  0  0
  7 10  1  0  0  0  0
  8  9  1  0  0  0  0
 10 14  2  0  0  0  0
 11 12  2  0  0  0  0
 11 26  1  0  0  0  0
 12 13  1  0  0  0  0
 14 15  1  0  0  0  0
 14 19  1  0  0  0  0
 15 16  2  0  0  0  0
 16 17  1  0  0  0  0
 17 18  1  0  0  0  0
 17 20  2  0  0  0  0
 18 19  2  0  0  0  0
 20 21  1  0  0  0  0
 20 24  1  0  0  0  0
 21 22  1  0  0  0  0
 22 23  1  0  0  0  0
 22 25  1  0  0  0  0
 23 24  2  0  0  0  0
 26 27  1  0  0  0  0
 26 28  1  0  0  0  0
 27 28  1  0  0  0  0
  2 29  1  0  0  0  0
  3 30  1  0  0  0  0
  4 31  1  0  0  0  0
  9 32  1  0  0  0  0
 10 33  1  0  0  0  0
 13 34  1  0  0  0  0
 15 35  1  0  0  0  0
 16 36  1  0  0  0  0
 18 37  1  0  0  0  0
 19 38  1  0  0  0  0
 21 39  1  0  0  0  0
 21 40  1  0  0  0  0
 24 41  1  0  0  0  0
 25 42  1  0  0  0  0
 25 43  1  0  0  0  0
 25 44  1  0  0  0  0
 26 45  1  0  0  0  0
 27 46  1  0  0  0  0
 27 47  1  0  0  0  0
 28 48  1  0  0  0  0
 28 49  1  0  0  0  0
M  END
> <Name>
33

> <IC50[uM]>
0.008

$$$$
33
  -OEChem-05192314333D
 Structure written by MMmdl.
 49 53  0     0  0  0  0  0  0999 V2000
   -6.3918   12.3765  -12.0158 C   0  0  0  0  0  0  0  0  0  0  0  0
   -6.5335   11.8201  -10.7317 C   0  0  0  0  0  0  0  0  0  0  0  0
   -7.7273   10.5795  -13.0319 C   0  0  0  0  0  0  0  0  0  0  0  0
   -7.0082   11.7773  -13.1176 C   0  0  0  0  0  0  0  0  0  0  0  0
   -7.8294   10.0116  -11.7546 C   0  0  0  0  0  0  0  0  0  0  0  0
   -7.2533   10.6299  -10.5984 C   0  0  0  0  0  0  0  0  0  0  0  0
   -7.6133    9.7501   -9.5115 C   0  0  0  0  0  0  0  0  0  0  0  0
   -8.2802    8.7340   -9.9853 N   0  0  0  0  0  0  0  0  0  0  0  0
   -8.4149    8.8602  -11.2994 N   0  0  0  0  0  0  0  0  0  0  0  0
   -7.3368    9.8898   -8.0240 C   0  0  0  0  0  0  0  0  0  0  0  0
   -4.3580   13.5891  -11.5451 N   0  0  0  0  0  0  0  0  0  0  0  0
   -5.5327   13.6029  -12.2131 C   0  0  0  0  0  0  0  0  0  0  0  0
   -5.8791   14.5089  -12.9726 O   0  0  0  0  0  0  0  0  0  0  0  0
   -5.9622   10.4818   -7.7351 C   0  0  0  0  0  0  0  0  0  0  0  0
   -5.8525   11.7570   -7.1642 C   0  0  0  0  0  0  0  0  0  0  0  0
   -4.5920   12.3049   -6.9193 C   0  0  0  0  0  0  0  0  0  0  0  0
   -3.4386   11.5825   -7.2408 C   0  0  0  0  0  0  0  0  0  0  0  0
   -3.5579   10.3128   -7.8038 C   0  0  0  0  0  0  0  0  0  0  0  0
   -4.8126    9.7642   -8.0521 C   0  0  0  0  0  0  0  0  0  0  0  0
   -2.0919   12.1643   -6.9829 C   0  0  0  0  0  0  0  0  0  0  0  0
   -1.7362   13.4287   -6.5051 C   0  0  0  0  0  0  0  0  0  0  0  0
   -0.4017   13.4552   -6.4435 N   0  0  0  0  0  0  0  0  0  0  0  0
    0.1850   12.3496   -6.8156 N   0  0  0  0  0  0  0  0  0  0  0  0
   -0.8078   11.5460   -7.1722 C   0  0  0  0  0  0  0  0  0  0  0  0
    0.4351   14.5688   -6.0125 C   0  0  0  0  0  0  0  0  0  0  0  0
   -3.3172   14.5865  -11.7755 C   0  0  0  0  0  0  0  0  0  0  0  0
   -1.8924   14.0513  -11.7355 C   0  0  0  0  0  0  0  0  0  0  0  0
   -2.3932   14.9579  -10.6450 C   0  0  0  0  0  0  0  0  0  0  0  0
   -6.0964   12.3014   -9.8693 H   0  0  0  0  0  0  0  0  0  0  0  0
   -8.1772   10.1197  -13.8994 H   0  0  0  0  0  0  0  0  0  0  0  0
   -6.9259   12.2608  -14.0798 H   0  0  0  0  0  0  0  0  0  0  0  0
   -8.6361    7.9747   -9.4405 H   0  0  0  0  0  0  0  0  0  0  0  0
   -8.0380    9.6010   -7.2550 H   0  0  0  0  0  0  0  0  0  0  0  0
   -4.1960   12.8702  -10.8691 H   0  0  0  0  0  0  0  0  0  0  0  0
   -6.7424   12.3154   -6.9139 H   0  0  0  0  0  0  0  0  0  0  0  0
   -4.5075   13.2883   -6.4808 H   0  0  0  0  0  0  0  0  0  0  0  0
   -3.4391   12.0287   -8.2463 H   0  0  0  0  0  0  0  0  0  0  0  0
   -2.6693    9.7502   -8.0493 H   0  0  0  0  0  0  0  0  0  0  0  0
   -4.8943    8.7808   -8.4911 H   0  0  0  0  0  0  0  0  0  0  0  0
   -2.4097   14.2294   -6.2375 H   0  0  0  0  0  0  0  0  0  0  0  0
   -0.6685   10.5471   -7.5584 H   0  0  0  0  0  0  0  0  0  0  0  0
    1.4941   14.2779   -6.0748 H   0  0  0  0  0  0  0  0  0  0  0  0
    0.2544   15.4366   -6.6639 H   0  0  0  0  0  0  0  0  0  0  0  0
    0.1879   14.8324   -4.9736 H   0  0  0  0  0  0  0  0  0  0  0  0
   -3.5215   15.3697  -12.5204 H   0  0  0  0  0  0  0  0  0  0  0  0
   -1.7095   12.9870  -11.5263 H   0  0  0  0  0  0  0  0  0  0  0  0
   -1.1463   14.4168  -12.4564 H   0  0  0  0  0  0  0  0  0  0  0  0
   -2.0084   15.9854  -10.5669 H   0  0  0  0  0  0  0  0  0  0  0  0
   -2.5716   14.5556   -9.6369 H   0  0  0  0  0  0  0  0  0  0  0  0
  1  2  2  0  0  0  0
  1  4  1  0  0  0  0
  1 12  1  0  0  0  0
  2  6  1  0  0  0  0
  3  4  2  0  0  0  0
  3  5  1  0  0  0  0
  5  6  1  0  0  0  0
  5  9  2  0  0  0  0
  6  7  2  0  0  0  0
  7  8  1  0  0  0  0
  7 10  1  0  0  0  0
  8  9  1  0  0  0  0
 10 14  2  0  0  0  0
 11 12  1  0  0  0  0
 11 26  1  0  0  0  0
 12 13  2  0  0  0  0
 14 15  1  0  0  0  0
 14 19  1  0  0  0  0
 15 16  2  0  0  0  0
 16 17  1  0  0  0  0
 17 18  1  0  0  0  0
 17 20  1  0  0  0  0
 18 19  2  0  0  0  0
 20 21  2  0  0  0  0
 20 24  1  0  0  0  0
 21 22  1  0  0  0  0
 22 23  1  0  0  0  0
 22 25  1  0  0  0  0
 23 24  2  0  0  0  0
 26 27  1  0  0  0  0
 26 28  1  0  0  0  0
 27 28  1  0  0  0  0
  2 29  1  0  0  0  0
  3 30  1  0  0  0  0
  4 31  1  0  0  0  0
  8 32  1  0  0  0  0
 10 33  1  0  0  0  0
 11 34  1  0  0  0  0
 15 35  1  0  0  0  0
 16 36  1  0  0  0  0
 17 37  1  0  0  0  0
 18 38  1  0  0  0  0
 19 39  1  0  0  0  0
 21 40  1  0  0  0  0
 24 41  1  0  0  0  0
 25 42  1  0  0  0  0
 25 43  1  0  0  0  0
 25 44  1  0  0  0  0
 26 45  1  0  0  0  0
 27 46  1  0  0  0  0
 27 47  1  0  0  0  0
 28 48  1  0  0  0  0
 28 49  1  0  0  0  0
M  END
> <Name>
33

> <IC50[uM]>
0.008

$$$$
33
  -OEChem-05192314333D
 Structure written by MMmdl.
 49 53  0     0  0  0  0  0  0999 V2000
   -6.3918   12.3765  -12.0158 C   0  0  0  0  0  0  0  0  0  0  0  0
   -6.5335   11.8201  -10.7317 C   0  0  0  0  0  0  0  0  0  0  0  0
   -7.7273   10.5795  -13.0319 C   0  0  0  0  0  0  0  0  0  0  0  0
   -7.0082   11.7773  -13.1176 C   0  0  0  0  0  0  0  0  0  0  0  0
   -7.8294   10.0116  -11.7546 C   0  0  0  0  0  0  0  0  0  0  0  0
   -7.2533   10.6299  -10.5984 C   0  0  0  0  0  0  0  0  0  0  0  0
   -7.6133    9.7501   -9.5115 C   0  0  0  0  0  0  0  0  0  0  0  0
   -8.2802    8.7340   -9.9853 N   0  0  0  0  0  0  0  0  0  0  0  0
   -8.4149    8.8602  -11.2994 N   0  0  0  0  0  0  0  0  0  0  0  0
   -7.3368    9.8898   -8.0240 C   0  0  0  0  0  0  0  0  0  0  0  0
   -4.3580   13.5891  -11.5451 N   0  0  0  0  0  0  0  0  0  0  0  0
   -5.5327   13.6029  -12.2131 C   0  0  0  0  0  0  0  0  0  0  0  0
   -5.8791   14.5089  -12.9726 O   0  0  0  0  0  0  0  0  0  0  0  0
   -5.9622   10.4818   -7.7351 C   0  0  0  0  0  0  0  0  0  0  0  0
   -5.8525   11.7570   -7.1642 C   0  0  0  0  0  0  0  0  0  0  0  0
   -4.5920   12.3049   -6.9193 C   0  0  0  0  0  0  0  0  0  0  0  0
   -3.4386   11.5825   -7.2408 C   0  0  0  0  0  0  0  0  0  0  0  0
   -3.5579   10.3128   -7.8038 C   0  0  0  0  0  0  0  0  0  0  0  0
   -4.8126    9.7642   -8.0521 C   0  0  0  0  0  0  0  0  0  0  0  0
   -2.0919   12.1643   -6.9829 C   0  0  0  0  0  0  0  0  0  0  0  0
   -1.7362   13.4287   -6.5051 C   0  0  0  0  0  0  0  0  0  0  0  0
   -0.4017   13.4552   -6.4435 N   0  0  0  0  0  0  0  0  0  0  0  0
    0.1850   12.3496   -6.8156 N   0  0  0  0  0  0  0  0  0  0  0  0
   -0.8078   11.5460   -7.1722 C   0  0  0  0  0  0  0  0  0  0  0  0
    0.4351   14.5688   -6.0125 C   0  0  0  0  0  0  0  0  0  0  0  0
   -3.3172   14.5865  -11.7755 C   0  0  0  0  0  0  0  0  0  0  0  0
   -1.8924   14.0513  -11.7355 C   0  0  0  0  0  0  0  0  0  0  0  0
   -2.3932   14.9579  -10.6450 C   0  0  0  0  0  0  0  0  0  0  0  0
   -6.0964   12.3014   -9.8693 H   0  0  0  0  0  0  0  0  0  0  0  0
   -8.1772   10.1197  -13.8994 H   0  0  0  0  0  0  0  0  0  0  0  0
   -6.9259   12.2608  -14.0798 H   0  0  0  0  0  0  0  0  0  0  0  0
   -8.8846    8.1982  -11.8835 H   0  0  0  0  0  0  0  0  0  0  0  0
   -8.0380    9.6010   -7.2550 H   0  0  0  0  0  0  0  0  0  0  0  0
   -4.1960   12.8702  -10.8691 H   0  0  0  0  0  0  0  0  0  0  0  0
   -6.7424   12.3154   -6.9139 H   0  0  0  0  0  0  0  0  0  0  0  0
   -4.5075   13.2883   -6.4808 H   0  0  0  0  0  0  0  0  0  0  0  0
   -3.4391   12.0287   -8.2463 H   0  0  0  0  0  0  0  0  0  0  0  0
   -2.6693    9.7502   -8.0493 H   0  0  0  0  0  0  0  0  0  0  0  0
   -4.8943    8.7808   -8.4911 H   0  0  0  0  0  0  0  0  0  0  0  0
   -2.4097   14.2294   -6.2375 H   0  0  0  0  0  0  0  0  0  0  0  0
   -0.6685   10.5471   -7.5584 H   0  0  0  0  0  0  0  0  0  0  0  0
    1.4941   14.2779   -6.0748 H   0  0  0  0  0  0  0  0  0  0  0  0
    0.2544   15.4366   -6.6639 H   0  0  0  0  0  0  0  0  0  0  0  0
    0.1879   14.8324   -4.9736 H   0  0  0  0  0  0  0  0  0  0  0  0
   -3.5215   15.3697  -12.5204 H   0  0  0  0  0  0  0  0  0  0  0  0
   -1.7095   12.9870  -11.5263 H   0  0  0  0  0  0  0  0  0  0  0  0
   -1.1463   14.4168  -12.4564 H   0  0  0  0  0  0  0  0  0  0  0  0
   -2.0084   15.9854  -10.5669 H   0  0  0  0  0  0  0  0  0  0  0  0
   -2.5716   14.5556   -9.6369 H   0  0  0  0  0  0  0  0  0  0  0  0
  1  2  2  0  0  0  0
  1  4  1  0  0  0  0
  1 12  1  0  0  0  0
  2  6  1  0  0  0  0
  3  4  2  0  0  0  0
  3  5  1  0  0  0  0
  5  6  2  0  0  0  0
  5  9  1  0  0  0  0
  6  7  1  0  0  0  0
  7  8  2  0  0  0  0
  7 10  1  0  0  0  0
  8  9  1  0  0  0  0
 10 14  2  0  0  0  0
 11 12  1  0  0  0  0
 11 26  1  0  0  0  0
 12 13  2  0  0  0  0
 14 15  1  0  0  0  0
 14 19  1  0  0  0  0
 15 16  2  0  0  0  0
 16 17  1  0  0  0  0
 17 18  1  0  0  0  0
 17 20  1  0  0  0  0
 18 19  2  0  0  0  0
 20 21  2  0  0  0  0
 20 24  1  0  0  0  0
 21 22  1  0  0  0  0
 22 23  1  0  0  0  0
 22 25  1  0  0  0  0
 23 24  2  0  0  0  0
 26 27  1  0  0  0  0
 26 28  1  0  0  0  0
 27 28  1  0  0  0  0
  2 29  1  0  0  0  0
  3 30  1  0  0  0  0
  4 31  1  0  0  0  0
  9 32  1  0  0  0  0
 10 33  1  0  0  0  0
 11 34  1  0  0  0  0
 15 35  1  0  0  0  0
 16 36  1  0  0  0  0
 17 37  1  0  0  0  0
 18 38  1  0  0  0  0
 19 39  1  0  0  0  0
 21 40  1  0  0  0  0
 24 41  1  0  0  0  0
 25 42  1  0  0  0  0
 25 43  1  0  0  0  0
 25 44  1  0  0  0  0
 26 45  1  0  0  0  0
 27 46  1  0  0  0  0
 27 47  1  0  0  0  0
 28 48  1  0  0  0  0
 28 49  1  0  0  0  0
M  END
> <Name>
33

> <IC50[uM]>
0.008

$$$$
33
  -OEChem-05192314333D
 Structure written by MMmdl.
 49 53  0     0  0  0  0  0  0999 V2000
   -6.3918   12.3765  -12.0158 C   0  0  0  0  0  0  0  0  0  0  0  0
   -6.5335   11.8201  -10.7317 C   0  0  0  0  0  0  0  0  0  0  0  0
   -7.7273   10.5795  -13.0319 C   0  0  0  0  0  0  0  0  0  0  0  0
   -7.0082   11.7773  -13.1176 C   0  0  0  0  0  0  0  0  0  0  0  0
   -7.8294   10.0116  -11.7546 C   0  0  0  0  0  0  0  0  0  0  0  0
   -7.2533   10.6299  -10.5984 C   0  0  0  0  0  0  0  0  0  0  0  0
   -7.6133    9.7501   -9.5115 C   0  0  0  0  0  0  0  0  0  0  0  0
   -8.2802    8.7340   -9.9853 N   0  0  0  0  0  0  0  0  0  0  0  0
   -8.4149    8.8602  -11.2994 N   0  0  0  0  0  0  0  0  0  0  0  0
   -7.3368    9.8898   -8.0240 C   0  0  0  0  0  0  0  0  0  0  0  0
   -4.3580   13.5891  -11.5451 N   0  0  0  0  0  0  0  0  0  0  0  0
   -5.5327   13.6029  -12.2131 C   0  0  0  0  0  0  0  0  0  0  0  0
   -5.8791   14.5089  -12.9726 O   0  0  0  0  0  0  0  0  0  0  0  0
   -5.9622   10.4818   -7.7351 C   0  0  0  0  0  0  0  0  0  0  0  0
   -5.8525   11.7570   -7.1642 C   0  0  0  0  0  0  0  0  0  0  0  0
   -4.5920   12.3049   -6.9193 C   0  0  0  0  0  0  0  0  0  0  0  0
   -3.4386   11.5825   -7.2408 C   0  0  0  0  0  0  0  0  0  0  0  0
   -3.5579   10.3128   -7.8038 C   0  0  0  0  0  0  0  0  0  0  0  0
   -4.8126    9.7642   -8.0521 C   0  0  0  0  0  0  0  0  0  0  0  0
   -2.0919   12.1643   -6.9829 C   0  0  0  0  0  0  0  0  0  0  0  0
   -1.7362   13.4287   -6.5051 C   0  0  0  0  0  0  0  0  0  0  0  0
   -0.4017   13.4552   -6.4435 N   0  0  0  0  0  0  0  0  0  0  0  0
    0.1850   12.3496   -6.8156 N   0  0  0  0  0  0  0  0  0  0  0  0
   -0.8078   11.5460   -7.1722 C   0  0  0  0  0  0  0  0  0  0  0  0
    0.4351   14.5688   -6.0125 C   0  0  0  0  0  0  0  0  0  0  0  0
   -3.3172   14.5865  -11.7755 C   0  0  0  0  0  0  0  0  0  0  0  0
   -1.8924   14.0513  -11.7355 C   0  0  0  0  0  0  0  0  0  0  0  0
   -2.3932   14.9579  -10.6450 C   0  0  0  0  0  0  0  0  0  0  0  0
   -6.0964   12.3014   -9.8693 H   0  0  0  0  0  0  0  0  0  0  0  0
   -8.1772   10.1197  -13.8994 H   0  0  0  0  0  0  0  0  0  0  0  0
   -6.9259   12.2608  -14.0798 H   0  0  0  0  0  0  0  0  0  0  0  0
   -8.6361    7.9747   -9.4405 H   0  0  0  0  0  0  0  0  0  0  0  0
   -8.0380    9.6010   -7.2550 H   0  0  0  0  0  0  0  0  0  0  0  0
   -4.1960   12.8702  -10.8691 H   0  0  0  0  0  0  0  0  0  0  0  0
   -6.7424   12.3154   -6.9139 H   0  0  0  0  0  0  0  0  0  0  0  0
   -4.5075   13.2883   -6.4808 H   0  0  0  0  0  0  0  0  0  0  0  0
   -2.6693    9.7502   -8.0493 H   0  0  0  0  0  0  0  0  0  0  0  0
   -4.8629    8.8200   -7.4901 H   0  0  0  0  0  0  0  0  0  0  0  0
   -4.8583    9.5519   -9.1305 H   0  0  0  0  0  0  0  0  0  0  0  0
   -2.4097   14.2294   -6.2375 H   0  0  0  0  0  0  0  0  0  0  0  0
   -0.6685   10.5471   -7.5584 H   0  0  0  0  0  0  0  0  0  0  0  0
    1.4941   14.2779   -6.0748 H   0  0  0  0  0  0  0  0  0  0  0  0
    0.2544   15.4366   -6.6639 H   0  0  0  0  0  0  0  0  0  0  0  0
    0.1879   14.8324   -4.9736 H   0  0  0  0  0  0  0  0  0  0  0  0
   -3.5215   15.3697  -12.5204 H   0  0  0  0  0  0  0  0  0  0  0  0
   -1.7095   12.9870  -11.5263 H   0  0  0  0  0  0  0  0  0  0  0  0
   -1.1463   14.4168  -12.4564 H   0  0  0  0  0  0  0  0  0  0  0  0
   -2.0084   15.9854  -10.5669 H   0  0  0  0  0  0  0  0  0  0  0  0
   -2.5716   14.5556   -9.6369 H   0  0  0  0  0  0  0  0  0  0  0  0
  1  2  2  0  0  0  0
  1  4  1  0  0  0  0
  1 12  1  0  0  0  0
  2  6  1  0  0  0  0
  3  4  2  0  0  0  0
  3  5  1  0  0  0  0
  5  6  1  0  0  0  0
  5  9  2  0  0  0  0
  6  7  2  0  0  0  0
  7  8  1  0  0  0  0
  7 10  1  0  0  0  0
  8  9  1  0  0  0  0
 10 14  2  3  0  0  0
 11 12  1  0  0  0  0
 11 26  1  0  0  0  0
 12 13  2  0  0  0  0
 14 15  1  0  0  0  0
 14 19  1  0  0  0  0
 15 16  2  0  0  0  0
 16 17  1  0  0  0  0
 17 18  2  0  0  0  0
 17 20  1  0  0  0  0
 18 19  1  0  0  0  0
 20 21  2  0  0  0  0
 20 24  1  0  0  0  0
 21 22  1  0  0  0  0
 22 23  1  0  0  0  0
 22 25  1  0  0  0  0
 23 24  2  0  0  0  0
 26 27  1  0  0  0  0
 26 28  1  0  0  0  0
 27 28  1  0  0  0  0
  2 29  1  0  0  0  0
  3 30  1  0  0  0  0
  4 31  1  0  0  0  0
  8 32  1  0  0  0  0
 10 33  1  0  0  0  0
 11 34  1  0  0  0  0
 15 35  1  0  0  0  0
 16 36  1  0  0  0  0
 18 37  1  0  0  0  0
 19 38  1  0  0  0  0
 19 39  1  0  0  0  0
 21 40  1  0  0  0  0
 24 41  1  0  0  0  0
 25 42  1  0  0  0  0
 25 43  1  0  0  0  0
 25 44  1  0  0  0  0
 26 45  1  0  0  0  0
 27 46  1  0  0  0  0
 27 47  1  0  0  0  0
 28 48  1  0  0  0  0
 28 49  1  0  0  0  0
M  END
> <Name>
33

> <IC50[uM]>
0.008

$$$$
33
  -OEChem-05192314333D
 Structure written by MMmdl.
 49 53  0     0  0  0  0  0  0999 V2000
   -6.3918   12.3765  -12.0158 C   0  0  0  0  0  0  0  0  0  0  0  0
   -6.5335   11.8201  -10.7317 C   0  0  0  0  0  0  0  0  0  0  0  0
   -7.7273   10.5795  -13.0319 C   0  0  0  0  0  0  0  0  0  0  0  0
   -7.0082   11.7773  -13.1176 C   0  0  0  0  0  0  0  0  0  0  0  0
   -7.8294   10.0116  -11.7546 C   0  0  0  0  0  0  0  0  0  0  0  0
   -7.2533   10.6299  -10.5984 C   0  0  0  0  0  0  0  0  0  0  0  0
   -7.6133    9.7501   -9.5115 C   0  0  0  0  0  0  0  0  0  0  0  0
   -8.2802    8.7340   -9.9853 N   0  0  0  0  0  0  0  0  0  0  0  0
   -8.4149    8.8602  -11.2994 N   0  0  0  0  0  0  0  0  0  0  0  0
   -7.3368    9.8898   -8.0240 C   0  0  0  0  0  0  0  0  0  0  0  0
   -4.3580   13.5891  -11.5451 N   0  0  0  0  0  0  0  0  0  0  0  0
   -5.5327   13.6029  -12.2131 C   0  0  0  0  0  0  0  0  0  0  0  0
   -5.8791   14.5089  -12.9726 O   0  0  0  0  0  0  0  0  0  0  0  0
   -5.9622   10.4818   -7.7351 C   0  0  0  0  0  0  0  0  0  0  0  0
   -5.8525   11.7570   -7.1642 C   0  0  0  0  0  0  0  0  0  0  0  0
   -4.5920   12.3049   -6.9193 C   0  0  0  0  0  0  0  0  0  0  0  0
   -3.4386   11.5825   -7.2408 C   0  0  0  0  0  0  0  0  0  0  0  0
   -3.5579   10.3128   -7.8038 C   0  0  0  0  0  0  0  0  0  0  0  0
   -4.8126    9.7642   -8.0521 C   0  0  0  0  0  0  0  0  0  0  0  0
   -2.0919   12.1643   -6.9829 C   0  0  0  0  0  0  0  0  0  0  0  0
   -1.7362   13.4287   -6.5051 C   0  0  0  0  0  0  0  0  0  0  0  0
   -0.4017   13.4552   -6.4435 N   0  0  0  0  0  0  0  0  0  0  0  0
    0.1850   12.3496   -6.8156 N   0  0  0  0  0  0  0  0  0  0  0  0
   -0.8078   11.5460   -7.1722 C   0  0  0  0  0  0  0  0  0  0  0  0
    0.4351   14.5688   -6.0125 C   0  0  0  0  0  0  0  0  0  0  0  0
   -3.3172   14.5865  -11.7755 C   0  0  0  0  0  0  0  0  0  0  0  0
   -1.8924   14.0513  -11.7355 C   0  0  0  0  0  0  0  0  0  0  0  0
   -2.3932   14.9579  -10.6450 C   0  0  0  0  0  0  0  0  0  0  0  0
   -6.0964   12.3014   -9.8693 H   0  0  0  0  0  0  0  0  0  0  0  0
   -8.1772   10.1197  -13.8994 H   0  0  0  0  0  0  0  0  0  0  0  0
   -6.9259   12.2608  -14.0798 H   0  0  0  0  0  0  0  0  0  0  0  0
   -8.8846    8.1982  -11.8835 H   0  0  0  0  0  0  0  0  0  0  0  0
   -8.0380    9.6010   -7.2550 H   0  0  0  0  0  0  0  0  0  0  0  0
   -4.1960   12.8702  -10.8691 H   0  0  0  0  0  0  0  0  0  0  0  0
   -6.7424   12.3154   -6.9139 H   0  0  0  0  0  0  0  0  0  0  0  0
   -4.5075   13.2883   -6.4808 H   0  0  0  0  0  0  0  0  0  0  0  0
   -2.6693    9.7502   -8.0493 H   0  0  0  0  0  0  0  0  0  0  0  0
   -4.8629    8.8200   -7.4901 H   0  0  0  0  0  0  0  0  0  0  0  0
   -4.8583    9.5519   -9.1305 H   0  0  0  0  0  0  0  0  0  0  0  0
   -2.4097   14.2294   -6.2375 H   0  0  0  0  0  0  0  0  0  0  0  0
   -0.6685   10.5471   -7.5584 H   0  0  0  0  0  0  0  0  0  0  0  0
    1.4941   14.2779   -6.0748 H   0  0  0  0  0  0  0  0  0  0  0  0
    0.2544   15.4366   -6.6639 H   0  0  0  0  0  0  0  0  0  0  0  0
    0.1879   14.8324   -4.9736 H   0  0  0  0  0  0  0  0  0  0  0  0
   -3.5215   15.3697  -12.5204 H   0  0  0  0  0  0  0  0  0  0  0  0
   -1.7095   12.9870  -11.5263 H   0  0  0  0  0  0  0  0  0  0  0  0
   -1.1463   14.4168  -12.4564 H   0  0  0  0  0  0  0  0  0  0  0  0
   -2.0084   15.9854  -10.5669 H   0  0  0  0  0  0  0  0  0  0  0  0
   -2.5716   14.5556   -9.6369 H   0  0  0  0  0  0  0  0  0  0  0  0
  1  2  2  0  0  0  0
  1  4  1  0  0  0  0
  1 12  1  0  0  0  0
  2  6  1  0  0  0  0
  3  4  2  0  0  0  0
  3  5  1  0  0  0  0
  5  6  2  0  0  0  0
  5  9  1  0  0  0  0
  6  7  1  0  0  0  0
  7  8  2  0  0  0  0
  7 10  1  0  0  0  0
  8  9  1  0  0  0  0
 10 14  2  3  0  0  0
 11 12  1  0  0  0  0
 11 26  1  0  0  0  0
 12 13  2  0  0  0  0
 14 15  1  0  0  0  0
 14 19  1  0  0  0  0
 15 16  2  0  0  0  0
 16 17  1  0  0  0  0
 17 18  2  0  0  0  0
 17 20  1  0  0  0  0
 18 19  1  0  0  0  0
 20 21  2  0  0  0  0
 20 24  1  0  0  0  0
 21 22  1  0  0  0  0
 22 23  1  0  0  0  0
 22 25  1  0  0  0  0
 23 24  2  0  0  0  0
 26 27  1  0  0  0  0
 26 28  1  0  0  0  0
 27 28  1  0  0  0  0
  2 29  1  0  0  0  0
  3 30  1  0  0  0  0
  4 31  1  0  0  0  0
  9 32  1  0  0  0  0
 10 33  1  0  0  0  0
 11 34  1  0  0  0  0
 15 35  1  0  0  0  0
 16 36  1  0  0  0  0
 18 37  1  0  0  0  0
 19 38  1  0  0  0  0
 19 39  1  0  0  0  0
 21 40  1  0  0  0  0
 24 41  1  0  0  0  0
 25 42  1  0  0  0  0
 25 43  1  0  0  0  0
 25 44  1  0  0  0  0
 26 45  1  0  0  0  0
 27 46  1  0  0  0  0
 27 47  1  0  0  0  0
 28 48  1  0  0  0  0
 28 49  1  0  0  0  0
M  END
> <Name>
33

> <IC50[uM]>
0.008

$$$$
33
  -OEChem-05192314333D
 Structure written by MMmdl.
 49 53  0     0  0  0  0  0  0999 V2000
   -6.3918   12.3765  -12.0158 C   0  0  0  0  0  0  0  0  0  0  0  0
   -6.5335   11.8201  -10.7317 C   0  0  0  0  0  0  0  0  0  0  0  0
   -7.7273   10.5795  -13.0319 C   0  0  0  0  0  0  0  0  0  0  0  0
   -7.0082   11.7773  -13.1176 C   0  0  0  0  0  0  0  0  0  0  0  0
   -7.8294   10.0116  -11.7546 C   0  0  0  0  0  0  0  0  0  0  0  0
   -7.2533   10.6299  -10.5984 C   0  0  0  0  0  0  0  0  0  0  0  0
   -7.6133    9.7501   -9.5115 C   0  0  0  0  0  0  0  0  0  0  0  0
   -8.2802    8.7340   -9.9853 N   0  0  0  0  0  0  0  0  0  0  0  0
   -8.4149    8.8602  -11.2994 N   0  0  0  0  0  0  0  0  0  0  0  0
   -7.3368    9.8898   -8.0240 C   0  0  0  0  0  0  0  0  0  0  0  0
   -4.3580   13.5891  -11.5451 N   0  0  0  0  0  0  0  0  0  0  0  0
   -5.5327   13.6029  -12.2131 C   0  0  0  0  0  0  0  0  0  0  0  0
   -5.8791   14.5089  -12.9726 O   0  0  0  0  0  0  0  0  0  0  0  0
   -5.9622   10.4818   -7.7351 C   0  0  0  0  0  0  0  0  0  0  0  0
   -5.8525   11.7570   -7.1642 C   0  0  0  0  0  0  0  0  0  0  0  0
   -4.5920   12.3049   -6.9193 C   0  0  0  0  0  0  0  0  0  0  0  0
   -3.4386   11.5825   -7.2408 C   0  0  0  0  0  0  0  0  0  0  0  0
   -3.5579   10.3128   -7.8038 C   0  0  0  0  0  0  0  0  0  0  0  0
   -4.8126    9.7642   -8.0521 C   0  0  0  0  0  0  0  0  0  0  0  0
   -2.0919   12.1643   -6.9829 C   0  0  0  0  0  0  0  0  0  0  0  0
   -1.7362   13.4287   -6.5051 C   0  0  0  0  0  0  0  0  0  0  0  0
   -0.4017   13.4552   -6.4435 N   0  0  0  0  0  0  0  0  0  0  0  0
    0.1850   12.3496   -6.8156 N   0  0  0  0  0  0  0  0  0  0  0  0
   -0.8078   11.5460   -7.1722 C   0  0  0  0  0  0  0  0  0  0  0  0
    0.4351   14.5688   -6.0125 C   0  0  0  0  0  0  0  0  0  0  0  0
   -3.3172   14.5865  -11.7755 C   0  0  0  0  0  0  0  0  0  0  0  0
   -1.8924   14.0513  -11.7355 C   0  0  0  0  0  0  0  0  0  0  0  0
   -2.3932   14.9579  -10.6450 C   0  0  0  0  0  0  0  0  0  0  0  0
   -6.0964   12.3014   -9.8693 H   0  0  0  0  0  0  0  0  0  0  0  0
   -8.1772   10.1197  -13.8994 H   0  0  0  0  0  0  0  0  0  0  0  0
   -6.9259   12.2608  -14.0798 H   0  0  0  0  0  0  0  0  0  0  0  0
   -8.6361    7.9747   -9.4405 H   0  0  0  0  0  0  0  0  0  0  0  0
   -8.0380    9.6010   -7.2550 H   0  0  0  0  0  0  0  0  0  0  0  0
   -5.2205   15.1935  -12.9707 H   0  0  0  0  0  0  0  0  0  0  0  0
   -6.7424   12.3154   -6.9139 H   0  0  0  0  0  0  0  0  0  0  0  0
   -4.5075   13.2883   -6.4808 H   0  0  0  0  0  0  0  0  0  0  0  0
   -3.4391   12.0287   -8.2463 H   0  0  0  0  0  0  0  0  0  0  0  0
   -2.6693    9.7502   -8.0493 H   0  0  0  0  0  0  0  0  0  0  0  0
   -4.8943    8.7808   -8.4911 H   0  0  0  0  0  0  0  0  0  0  0  0
   -2.4097   14.2294   -6.2375 H   0  0  0  0  0  0  0  0  0  0  0  0
   -0.6685   10.5471   -7.5584 H   0  0  0  0  0  0  0  0  0  0  0  0
    1.4941   14.2779   -6.0748 H   0  0  0  0  0  0  0  0  0  0  0  0
    0.2544   15.4366   -6.6639 H   0  0  0  0  0  0  0  0  0  0  0  0
    0.1879   14.8324   -4.9736 H   0  0  0  0  0  0  0  0  0  0  0  0
   -3.5215   15.3697  -12.5204 H   0  0  0  0  0  0  0  0  0  0  0  0
   -1.7095   12.9870  -11.5263 H   0  0  0  0  0  0  0  0  0  0  0  0
   -1.1463   14.4168  -12.4564 H   0  0  0  0  0  0  0  0  0  0  0  0
   -2.0084   15.9854  -10.5669 H   0  0  0  0  0  0  0  0  0  0  0  0
   -2.5716   14.5556   -9.6369 H   0  0  0  0  0  0  0  0  0  0  0  0
  1  2  2  0  0  0  0
  1  4  1  0  0  0  0
  1 12  1  0  0  0  0
  2  6  1  0  0  0  0
  3  4  2  0  0  0  0
  3  5  1  0  0  0  0
  5  6  1  0  0  0  0
  5  9  2  0  0  0  0
  6  7  2  0  0  0  0
  7  8  1  0  0  0  0
  7 10  1  0  0  0  0
  8  9  1  0  0  0  0
 10 14  2  0  0  0  0
 11 12  2  0  0  0  0
 11 26  1  0  0  0  0
 12 13  1  0  0  0  0
 14 15  1  0  0  0  0
 14 19  1  0  0  0  0
 15 16  2  0  0  0  0
 16 17  1  0  0  0  0
 17 18  1  0  0  0  0
 17 20  1  0  0  0  0
 18 19  2  0  0  0  0
 20 21  2  0  0  0  0
 20 24  1  0  0  0  0
 21 22  1  0  0  0  0
 22 23  1  0  0  0  0
 22 25  1  0  0  0  0
 23 24  2  0  0  0  0
 26 27  1  0  0  0  0
 26 28  1  0  0  0  0
 27 28  1  0  0  0  0
  2 29  1  0  0  0  0
  3 30  1  0  0  0  0
  4 31  1  0  0  0  0
  8 32  1  0  0  0  0
 10 33  1  0  0  0  0
 13 34  1  0  0  0  0
 15 35  1  0  0  0  0
 16 36  1  0  0  0  0
 17 37  1  0  0  0  0
 18 38  1  0  0  0  0
 19 39  1  0  0  0  0
 21 40  1  0  0  0  0
 24 41  1  0  0  0  0
 25 42  1  0  0  0  0
 25 43  1  0  0  0  0
 25 44  1  0  0  0  0
 26 45  1  0  0  0  0
 27 46  1  0  0  0  0
 27 47  1  0  0  0  0
 28 48  1  0  0  0  0
 28 49  1  0  0  0  0
M  END
> <Name>
33

> <IC50[uM]>
0.008

$$$$
33
  -OEChem-05192314333D
 Structure written by MMmdl.
 49 53  0     0  0  0  0  0  0999 V2000
   -6.3918   12.3765  -12.0158 C   0  0  0  0  0  0  0  0  0  0  0  0
   -6.5335   11.8201  -10.7317 C   0  0  0  0  0  0  0  0  0  0  0  0
   -7.7273   10.5795  -13.0319 C   0  0  0  0  0  0  0  0  0  0  0  0
   -7.0082   11.7773  -13.1176 C   0  0  0  0  0  0  0  0  0  0  0  0
   -7.8294   10.0116  -11.7546 C   0  0  0  0  0  0  0  0  0  0  0  0
   -7.2533   10.6299  -10.5984 C   0  0  0  0  0  0  0  0  0  0  0  0
   -7.6133    9.7501   -9.5115 C   0  0  0  0  0  0  0  0  0  0  0  0
   -8.2802    8.7340   -9.9853 N   0  0  0  0  0  0  0  0  0  0  0  0
   -8.4149    8.8602  -11.2994 N   0  0  0  0  0  0  0  0  0  0  0  0
   -7.3368    9.8898   -8.0240 C   0  0  0  0  0  0  0  0  0  0  0  0
   -4.3580   13.5891  -11.5451 N   0  0  0  0  0  0  0  0  0  0  0  0
   -5.5327   13.6029  -12.2131 C   0  0  0  0  0  0  0  0  0  0  0  0
   -5.8791   14.5089  -12.9726 O   0  0  0  0  0  0  0  0  0  0  0  0
   -5.9622   10.4818   -7.7351 C   0  0  0  0  0  0  0  0  0  0  0  0
   -5.8525   11.7570   -7.1642 C   0  0  0  0  0  0  0  0  0  0  0  0
   -4.5920   12.3049   -6.9193 C   0  0  0  0  0  0  0  0  0  0  0  0
   -3.4386   11.5825   -7.2408 C   0  0  0  0  0  0  0  0  0  0  0  0
   -3.5579   10.3128   -7.8038 C   0  0  0  0  0  0  0  0  0  0  0  0
   -4.8126    9.7642   -8.0521 C   0  0  0  0  0  0  0  0  0  0  0  0
   -2.0919   12.1643   -6.9829 C   0  0  0  0  0  0  0  0  0  0  0  0
   -1.7362   13.4287   -6.5051 C   0  0  0  0  0  0  0  0  0  0  0  0
   -0.4017   13.4552   -6.4435 N   0  0  0  0  0  0  0  0  0  0  0  0
    0.1850   12.3496   -6.8156 N   0  0  0  0  0  0  0  0  0  0  0  0
   -0.8078   11.5460   -7.1722 C   0  0  0  0  0  0  0  0  0  0  0  0
    0.4351   14.5688   -6.0125 C   0  0  0  0  0  0  0  0  0  0  0  0
   -3.3172   14.5865  -11.7755 C   0  0  0  0  0  0  0  0  0  0  0  0
   -1.8924   14.0513  -11.7355 C   0  0  0  0  0  0  0  0  0  0  0  0
   -2.3932   14.9579  -10.6450 C   0  0  0  0  0  0  0  0  0  0  0  0
   -6.0964   12.3014   -9.8693 H   0  0  0  0  0  0  0  0  0  0  0  0
   -8.1772   10.1197  -13.8994 H   0  0  0  0  0  0  0  0  0  0  0  0
   -6.9259   12.2608  -14.0798 H   0  0  0  0  0  0  0  0  0  0  0  0
   -8.8846    8.1982  -11.8835 H   0  0  0  0  0  0  0  0  0  0  0  0
   -8.0380    9.6010   -7.2550 H   0  0  0  0  0  0  0  0  0  0  0  0
   -5.2205   15.1935  -12.9707 H   0  0  0  0  0  0  0  0  0  0  0  0
   -6.7424   12.3154   -6.9139 H   0  0  0  0  0  0  0  0  0  0  0  0
   -4.5075   13.2883   -6.4808 H   0  0  0  0  0  0  0  0  0  0  0  0
   -3.4391   12.0287   -8.2463 H   0  0  0  0  0  0  0  0  0  0  0  0
   -2.6693    9.7502   -8.0493 H   0  0  0  0  0  0  0  0  0  0  0  0
   -4.8943    8.7808   -8.4911 H   0  0  0  0  0  0  0  0  0  0  0  0
   -2.4097   14.2294   -6.2375 H   0  0  0  0  0  0  0  0  0  0  0  0
   -0.6685   10.5471   -7.5584 H   0  0  0  0  0  0  0  0  0  0  0  0
    1.4941   14.2779   -6.0748 H   0  0  0  0  0  0  0  0  0  0  0  0
    0.2544   15.4366   -6.6639 H   0  0  0  0  0  0  0  0  0  0  0  0
    0.1879   14.8324   -4.9736 H   0  0  0  0  0  0  0  0  0  0  0  0
   -3.5215   15.3697  -12.5204 H   0  0  0  0  0  0  0  0  0  0  0  0
   -1.7095   12.9870  -11.5263 H   0  0  0  0  0  0  0  0  0  0  0  0
   -1.1463   14.4168  -12.4564 H   0  0  0  0  0  0  0  0  0  0  0  0
   -2.0084   15.9854  -10.5669 H   0  0  0  0  0  0  0  0  0  0  0  0
   -2.5716   14.5556   -9.6369 H   0  0  0  0  0  0  0  0  0  0  0  0
  1  2  2  0  0  0  0
  1  4  1  0  0  0  0
  1 12  1  0  0  0  0
  2  6  1  0  0  0  0
  3  4  2  0  0  0  0
  3  5  1  0  0  0  0
  5  6  2  0  0  0  0
  5  9  1  0  0  0  0
  6  7  1  0  0  0  0
  7  8  2  0  0  0  0
  7 10  1  0  0  0  0
  8  9  1  0  0  0  0
 10 14  2  0  0  0  0
 11 12  2  0  0  0  0
 11 26  1  0  0  0  0
 12 13  1  0  0  0  0
 14 15  1  0  0  0  0
 14 19  1  0  0  0  0
 15 16  2  0  0  0  0
 16 17  1  0  0  0  0
 17 18  1  0  0  0  0
 17 20  1  0  0  0  0
 18 19  2  0  0  0  0
 20 21  2  0  0  0  0
 20 24  1  0  0  0  0
 21 22  1  0  0  0  0
 22 23  1  0  0  0  0
 22 25  1  0  0  0  0
 23 24  2  0  0  0  0
 26 27  1  0  0  0  0
 26 28  1  0  0  0  0
 27 28  1  0  0  0  0
  2 29  1  0  0  0  0
  3 30  1  0  0  0  0
  4 31  1  0  0  0  0
  9 32  1  0  0  0  0
 10 33  1  0  0  0  0
 13 34  1  0  0  0  0
 15 35  1  0  0  0  0
 16 36  1  0  0  0  0
 17 37  1  0  0  0  0
 18 38  1  0  0  0  0
 19 39  1  0  0  0  0
 21 40  1  0  0  0  0
 24 41  1  0  0  0  0
 25 42  1  0  0  0  0
 25 43  1  0  0  0  0
 25 44  1  0  0  0  0
 26 45  1  0  0  0  0
 27 46  1  0  0  0  0
 27 47  1  0  0  0  0
 28 48  1  0  0  0  0
 28 49  1  0  0  0  0
M  END
> <Name>
33

> <IC50[uM]>
0.008

$$$$
33
  -OEChem-05192314333D
 Structure written by MMmdl.
 49 53  0     0  0  0  0  0  0999 V2000
   -6.3918   12.3765  -12.0158 C   0  0  0  0  0  0  0  0  0  0  0  0
   -6.5335   11.8201  -10.7317 C   0  0  0  0  0  0  0  0  0  0  0  0
   -7.7273   10.5795  -13.0319 C   0  0  0  0  0  0  0  0  0  0  0  0
   -7.0082   11.7773  -13.1176 C   0  0  0  0  0  0  0  0  0  0  0  0
   -7.8294   10.0116  -11.7546 C   0  0  0  0  0  0  0  0  0  0  0  0
   -7.2533   10.6299  -10.5984 C   0  0  0  0  0  0  0  0  0  0  0  0
   -7.6133    9.7501   -9.5115 C   0  0  0  0  0  0  0  0  0  0  0  0
   -8.2802    8.7340   -9.9853 N   0  0  0  0  0  0  0  0  0  0  0  0
   -8.4149    8.8602  -11.2994 N   0  0  0  0  0  0  0  0  0  0  0  0
   -7.3368    9.8898   -8.0240 C   0  0  0  0  0  0  0  0  0  0  0  0
   -4.3580   13.5891  -11.5451 N   0  0  0  0  0  0  0  0  0  0  0  0
   -5.5327   13.6029  -12.2131 C   0  0  0  0  0  0  0  0  0  0  0  0
   -5.8791   14.5089  -12.9726 O   0  0  0  0  0  0  0  0  0  0  0  0
   -5.9622   10.4818   -7.7351 C   0  0  0  0  0  0  0  0  0  0  0  0
   -5.8525   11.7570   -7.1642 C   0  0  0  0  0  0  0  0  0  0  0  0
   -4.5920   12.3049   -6.9193 C   0  0  0  0  0  0  0  0  0  0  0  0
   -3.4386   11.5825   -7.2408 C   0  0  0  0  0  0  0  0  0  0  0  0
   -3.5579   10.3128   -7.8038 C   0  0  0  0  0  0  0  0  0  0  0  0
   -4.8126    9.7642   -8.0521 C   0  0  0  0  0  0  0  0  0  0  0  0
   -2.0919   12.1643   -6.9829 C   0  0  0  0  0  0  0  0  0  0  0  0
   -1.7362   13.4287   -6.5051 C   0  0  0  0  0  0  0  0  0  0  0  0
   -0.4017   13.4552   -6.4435 N   0  0  0  0  0  0  0  0  0  0  0  0
    0.1850   12.3496   -6.8156 N   0  0  0  0  0  0  0  0  0  0  0  0
   -0.8078   11.5460   -7.1722 C   0  0  0  0  0  0  0  0  0  0  0  0
    0.4351   14.5688   -6.0125 C   0  0  0  0  0  0  0  0  0  0  0  0
   -3.3172   14.5865  -11.7755 C   0  0  0  0  0  0  0  0  0  0  0  0
   -1.8924   14.0513  -11.7355 C   0  0  0  0  0  0  0  0  0  0  0  0
   -2.3932   14.9579  -10.6450 C   0  0  0  0  0  0  0  0  0  0  0  0
   -6.0964   12.3014   -9.8693 H   0  0  0  0  0  0  0  0  0  0  0  0
   -8.1772   10.1197  -13.8994 H   0  0  0  0  0  0  0  0  0  0  0  0
   -6.9259   12.2608  -14.0798 H   0  0  0  0  0  0  0  0  0  0  0  0
   -8.6361    7.9747   -9.4405 H   0  0  0  0  0  0  0  0  0  0  0  0
   -8.0380    9.6010   -7.2550 H   0  0  0  0  0  0  0  0  0  0  0  0
   -5.2205   15.1935  -12.9707 H   0  0  0  0  0  0  0  0  0  0  0  0
   -6.7424   12.3154   -6.9139 H   0  0  0  0  0  0  0  0  0  0  0  0
   -4.5075   13.2883   -6.4808 H   0  0  0  0  0  0  0  0  0  0  0  0
   -2.6693    9.7502   -8.0493 H   0  0  0  0  0  0  0  0  0  0  0  0
   -4.8629    8.8200   -7.4901 H   0  0  0  0  0  0  0  0  0  0  0  0
   -4.8583    9.5519   -9.1305 H   0  0  0  0  0  0  0  0  0  0  0  0
   -2.4097   14.2294   -6.2375 H   0  0  0  0  0  0  0  0  0  0  0  0
   -0.6685   10.5471   -7.5584 H   0  0  0  0  0  0  0  0  0  0  0  0
    1.4941   14.2779   -6.0748 H   0  0  0  0  0  0  0  0  0  0  0  0
    0.2544   15.4366   -6.6639 H   0  0  0  0  0  0  0  0  0  0  0  0
    0.1879   14.8324   -4.9736 H   0  0  0  0  0  0  0  0  0  0  0  0
   -3.5215   15.3697  -12.5204 H   0  0  0  0  0  0  0  0  0  0  0  0
   -1.7095   12.9870  -11.5263 H   0  0  0  0  0  0  0  0  0  0  0  0
   -1.1463   14.4168  -12.4564 H   0  0  0  0  0  0  0  0  0  0  0  0
   -2.0084   15.9854  -10.5669 H   0  0  0  0  0  0  0  0  0  0  0  0
   -2.5716   14.5556   -9.6369 H   0  0  0  0  0  0  0  0  0  0  0  0
  1  2  2  0  0  0  0
  1  4  1  0  0  0  0
  1 12  1  0  0  0  0
  2  6  1  0  0  0  0
  3  4  2  0  0  0  0
  3  5  1  0  0  0  0
  5  6  1  0  0  0  0
  5  9  2  0  0  0  0
  6  7  2  0  0  0  0
  7  8  1  0  0  0  0
  7 10  1  0  0  0  0
  8  9  1  0  0  0  0
 10 14  2  3  0  0  0
 11 12  2  0  0  0  0
 11 26  1  0  0  0  0
 12 13  1  0  0  0  0
 14 15  1  0  0  0  0
 14 19  1  0  0  0  0
 15 16  2  0  0  0  0
 16 17  1  0  0  0  0
 17 18  2  0  0  0  0
 17 20  1  0  0  0  0
 18 19  1  0  0  0  0
 20 21  2  0  0  0  0
 20 24  1  0  0  0  0
 21 22  1  0  0  0  0
 22 23  1  0  0  0  0
 22 25  1  0  0  0  0
 23 24  2  0  0  0  0
 26 27  1  0  0  0  0
 26 28  1  0  0  0  0
 27 28  1  0  0  0  0
  2 29  1  0  0  0  0
  3 30  1  0  0  0  0
  4 31  1  0  0  0  0
  8 32  1  0  0  0  0
 10 33  1  0  0  0  0
 13 34  1  0  0  0  0
 15 35  1  0  0  0  0
 16 36  1  0  0  0  0
 18 37  1  0  0  0  0
 19 38  1  0  0  0  0
 19 39  1  0  0  0  0
 21 40  1  0  0  0  0
 24 41  1  0  0  0  0
 25 42  1  0  0  0  0
 25 43  1  0  0  0  0
 25 44  1  0  0  0  0
 26 45  1  0  0  0  0
 27 46  1  0  0  0  0
 27 47  1  0  0  0  0
 28 48  1  0  0  0  0
 28 49  1  0  0  0  0
M  END
> <Name>
33

> <IC50[uM]>
0.008

$$$$
33
  -OEChem-05192314333D
 Structure written by MMmdl.
 49 53  0     0  0  0  0  0  0999 V2000
   -6.3918   12.3765  -12.0158 C   0  0  0  0  0  0  0  0  0  0  0  0
   -6.5335   11.8201  -10.7317 C   0  0  0  0  0  0  0  0  0  0  0  0
   -7.7273   10.5795  -13.0319 C   0  0  0  0  0  0  0  0  0  0  0  0
   -7.0082   11.7773  -13.1176 C   0  0  0  0  0  0  0  0  0  0  0  0
   -7.8294   10.0116  -11.7546 C   0  0  0  0  0  0  0  0  0  0  0  0
   -7.2533   10.6299  -10.5984 C   0  0  0  0  0  0  0  0  0  0  0  0
   -7.6133    9.7501   -9.5115 C   0  0  0  0  0  0  0  0  0  0  0  0
   -8.2802    8.7340   -9.9853 N   0  0  0  0  0  0  0  0  0  0  0  0
   -8.4149    8.8602  -11.2994 N   0  0  0  0  0  0  0  0  0  0  0  0
   -7.3368    9.8898   -8.0240 C   0  0  0  0  0  0  0  0  0  0  0  0
   -4.3580   13.5891  -11.5451 N   0  0  0  0  0  0  0  0  0  0  0  0
   -5.5327   13.6029  -12.2131 C   0  0  0  0  0  0  0  0  0  0  0  0
   -5.8791   14.5089  -12.9726 O   0  0  0  0  0  0  0  0  0  0  0  0
   -5.9622   10.4818   -7.7351 C   0  0  0  0  0  0  0  0  0  0  0  0
   -5.8525   11.7570   -7.1642 C   0  0  0  0  0  0  0  0  0  0  0  0
   -4.5920   12.3049   -6.9193 C   0  0  0  0  0  0  0  0  0  0  0  0
   -3.4386   11.5825   -7.2408 C   0  0  0  0  0  0  0  0  0  0  0  0
   -3.5579   10.3128   -7.8038 C   0  0  0  0  0  0  0  0  0  0  0  0
   -4.8126    9.7642   -8.0521 C   0  0  0  0  0  0  0  0  0  0  0  0
   -2.0919   12.1643   -6.9829 C   0  0  0  0  0  0  0  0  0  0  0  0
   -1.7362   13.4287   -6.5051 C   0  0  0  0  0  0  0  0  0  0  0  0
   -0.4017   13.4552   -6.4435 N   0  0  0  0  0  0  0  0  0  0  0  0
    0.1850   12.3496   -6.8156 N   0  0  0  0  0  0  0  0  0  0  0  0
   -0.8078   11.5460   -7.1722 C   0  0  0  0  0  0  0  0  0  0  0  0
    0.4351   14.5688   -6.0125 C   0  0  0  0  0  0  0  0  0  0  0  0
   -3.3172   14.5865  -11.7755 C   0  0  0  0  0  0  0  0  0  0  0  0
   -1.8924   14.0513  -11.7355 C   0  0  0  0  0  0  0  0  0  0  0  0
   -2.3932   14.9579  -10.6450 C   0  0  0  0  0  0  0  0  0  0  0  0
   -6.0964   12.3014   -9.8693 H   0  0  0  0  0  0  0  0  0  0  0  0
   -8.1772   10.1197  -13.8994 H   0  0  0  0  0  0  0  0  0  0  0  0
   -6.9259   12.2608  -14.0798 H   0  0  0  0  0  0  0  0  0  0  0  0
   -8.8846    8.1982  -11.8835 H   0  0  0  0  0  0  0  0  0  0  0  0
   -8.0380    9.6010   -7.2550 H   0  0  0  0  0  0  0  0  0  0  0  0
   -5.2205   15.1935  -12.9707 H   0  0  0  0  0  0  0  0  0  0  0  0
   -6.7424   12.3154   -6.9139 H   0  0  0  0  0  0  0  0  0  0  0  0
   -4.5075   13.2883   -6.4808 H   0  0  0  0  0  0  0  0  0  0  0  0
   -2.6693    9.7502   -8.0493 H   0  0  0  0  0  0  0  0  0  0  0  0
   -4.8629    8.8200   -7.4901 H   0  0  0  0  0  0  0  0  0  0  0  0
   -4.8583    9.5519   -9.1305 H   0  0  0  0  0  0  0  0  0  0  0  0
   -2.4097   14.2294   -6.2375 H   0  0  0  0  0  0  0  0  0  0  0  0
   -0.6685   10.5471   -7.5584 H   0  0  0  0  0  0  0  0  0  0  0  0
    1.4941   14.2779   -6.0748 H   0  0  0  0  0  0  0  0  0  0  0  0
    0.2544   15.4366   -6.6639 H   0  0  0  0  0  0  0  0  0  0  0  0
    0.1879   14.8324   -4.9736 H   0  0  0  0  0  0  0  0  0  0  0  0
   -3.5215   15.3697  -12.5204 H   0  0  0  0  0  0  0  0  0  0  0  0
   -1.7095   12.9870  -11.5263 H   0  0  0  0  0  0  0  0  0  0  0  0
   -1.1463   14.4168  -12.4564 H   0  0  0  0  0  0  0  0  0  0  0  0
   -2.0084   15.9854  -10.5669 H   0  0  0  0  0  0  0  0  0  0  0  0
   -2.5716   14.5556   -9.6369 H   0  0  0  0  0  0  0  0  0  0  0  0
  1  2  2  0  0  0  0
  1  4  1  0  0  0  0
  1 12  1  0  0  0  0
  2  6  1  0  0  0  0
  3  4  2  0  0  0  0
  3  5  1  0  0  0  0
  5  6  2  0  0  0  0
  5  9  1  0  0  0  0
  6  7  1  0  0  0  0
  7  8  2  0  0  0  0
  7 10  1  0  0  0  0
  8  9  1  0  0  0  0
 10 14  2  3  0  0  0
 11 12  2  0  0  0  0
 11 26  1  0  0  0  0
 12 13  1  0  0  0  0
 14 15  1  0  0  0  0
 14 19  1  0  0  0  0
 15 16  2  0  0  0  0
 16 17  1  0  0  0  0
 17 18  2  0  0  0  0
 17 20  1  0  0  0  0
 18 19  1  0  0  0  0
 20 21  2  0  0  0  0
 20 24  1  0  0  0  0
 21 22  1  0  0  0  0
 22 23  1  0  0  0  0
 22 25  1  0  0  0  0
 23 24  2  0  0  0  0
 26 27  1  0  0  0  0
 26 28  1  0  0  0  0
 27 28  1  0  0  0  0
  2 29  1  0  0  0  0
  3 30  1  0  0  0  0
  4 31  1  0  0  0  0
  9 32  1  0  0  0  0
 10 33  1  0  0  0  0
 13 34  1  0  0  0  0
 15 35  1  0  0  0  0
 16 36  1  0  0  0  0
 18 37  1  0  0  0  0
 19 38  1  0  0  0  0
 19 39  1  0  0  0  0
 21 40  1  0  0  0  0
 24 41  1  0  0  0  0
 25 42  1  0  0  0  0
 25 43  1  0  0  0  0
 25 44  1  0  0  0  0
 26 45  1  0  0  0  0
 27 46  1  0  0  0  0
 27 47  1  0  0  0  0
 28 48  1  0  0  0  0
 28 49  1  0  0  0  0
M  END
> <Name>
33

> <IC50[uM]>
0.008

$$$$
33
  -OEChem-05192314333D
 Structure written by MMmdl.
 49 53  0     1  0  0  0  0  0999 V2000
   -6.3918   12.3765  -12.0158 C   0  0  0  0  0  0  0  0  0  0  0  0
   -6.5335   11.8201  -10.7317 C   0  0  0  0  0  0  0  0  0  0  0  0
   -7.7273   10.5795  -13.0319 C   0  0  0  0  0  0  0  0  0  0  0  0
   -7.0082   11.7773  -13.1176 C   0  0  0  0  0  0  0  0  0  0  0  0
   -7.8294   10.0116  -11.7546 C   0  0  0  0  0  0  0  0  0  0  0  0
   -7.2533   10.6299  -10.5984 C   0  0  0  0  0  0  0  0  0  0  0  0
   -7.6133    9.7501   -9.5115 C   0  0  0  0  0  0  0  0  0  0  0  0
   -8.2802    8.7340   -9.9853 N   0  0  0  0  0  0  0  0  0  0  0  0
   -8.4149    8.8602  -11.2994 N   0  0  0  0  0  0  0  0  0  0  0  0
   -7.3368    9.8898   -8.0240 C   0  0  0  0  0  0  0  0  0  0  0  0
   -4.3580   13.5891  -11.5451 N   0  0  0  0  0  0  0  0  0  0  0  0
   -5.5327   13.6029  -12.2131 C   0  0  0  0  0  0  0  0  0  0  0  0
   -5.8791   14.5089  -12.9726 O   0  0  0  0  0  0  0  0  0  0  0  0
   -5.9622   10.4818   -7.7351 C   0  0  0  0  0  0  0  0  0  0  0  0
   -5.8525   11.7570   -7.1642 C   0  0  0  0  0  0  0  0  0  0  0  0
   -4.5920   12.3049   -6.9193 C   0  0  0  0  0  0  0  0  0  0  0  0
   -3.4386   11.5825   -7.2408 C   0  0  0  0  0  0  0  0  0  0  0  0
   -3.5579   10.3128   -7.8038 C   0  0  0  0  0  0  0  0  0  0  0  0
   -4.8126    9.7642   -8.0521 C   0  0  0  0  0  0  0  0  0  0  0  0
   -2.0919   12.1643   -6.9829 C   0  0  3  0  0  0  0  0  0  0  0  0
   -1.7362   13.4287   -6.5051 C   0  0  0  0  0  0  0  0  0  0  0  0
   -0.4017   13.4552   -6.4435 N   0  0  3  0  0  0  0  0  0  0  0  0
    0.1850   12.3496   -6.8156 N   0  0  0  0  0  0  0  0  0  0  0  0
   -0.8078   11.5460   -7.1722 C   0  0  0  0  0  0  0  0  0  0  0  0
    0.4351   14.5688   -6.0125 C   0  0  0  0  0  0  0  0  0  0  0  0
   -3.3172   14.5865  -11.7755 C   0  0  0  0  0  0  0  0  0  0  0  0
   -1.8924   14.0513  -11.7355 C   0  0  0  0  0  0  0  0  0  0  0  0
   -2.3932   14.9579  -10.6450 C   0  0  0  0  0  0  0  0  0  0  0  0
   -6.0964   12.3014   -9.8693 H   0  0  0  0  0  0  0  0  0  0  0  0
   -8.1772   10.1197  -13.8994 H   0  0  0  0  0  0  0  0  0  0  0  0
   -6.9259   12.2608  -14.0798 H   0  0  0  0  0  0  0  0  0  0  0  0
   -8.0380    9.6010   -7.2550 H   0  0  0  0  0  0  0  0  0  0  0  0
   -4.1960   12.8702  -10.8691 H   0  0  0  0  0  0  0  0  0  0  0  0
   -6.7424   12.3154   -6.9139 H   0  0  0  0  0  0  0  0  0  0  0  0
   -4.5075   13.2883   -6.4808 H   0  0  0  0  0  0  0  0  0  0  0  0
   -2.6693    9.7502   -8.0493 H   0  0  0  0  0  0  0  0  0  0  0  0
   -4.8943    8.7808   -8.4911 H   0  0  0  0  0  0  0  0  0  0  0  0
   -2.1241   11.7830   -5.9516 H   0  0  0  0  0  0  0  0  0  0  0  0
   -2.0995   14.2088   -7.1903 H   0  0  0  0  0  0  0  0  0  0  0  0
   -2.1650   13.5904   -5.5051 H   0  0  0  0  0  0  0  0  0  0  0  0
   -0.6685   10.5471   -7.5584 H   0  0  0  0  0  0  0  0  0  0  0  0
    1.4941   14.2779   -6.0748 H   0  0  0  0  0  0  0  0  0  0  0  0
    0.2544   15.4366   -6.6639 H   0  0  0  0  0  0  0  0  0  0  0  0
    0.1879   14.8324   -4.9736 H   0  0  0  0  0  0  0  0  0  0  0  0
   -3.5215   15.3697  -12.5204 H   0  0  0  0  0  0  0  0  0  0  0  0
   -1.7095   12.9870  -11.5263 H   0  0  0  0  0  0  0  0  0  0  0  0
   -1.1463   14.4168  -12.4564 H   0  0  0  0  0  0  0  0  0  0  0  0
   -2.0084   15.9854  -10.5669 H   0  0  0  0  0  0  0  0  0  0  0  0
   -2.5716   14.5556   -9.6369 H   0  0  0  0  0  0  0  0  0  0  0  0
  1  2  2  0  0  0  0
  1  4  1  0  0  0  0
  1 12  1  0  0  0  0
  2  6  1  0  0  0  0
  3  4  2  0  0  0  0
  3  5  1  0  0  0  0
  5  6  2  0  0  0  0
  5  9  1  0  0  0  0
  6  7  1  0  0  0  0
  7  8  1  0  0  0  0
  7 10  2  3  0  0  0
  8  9  2  0  0  0  0
 10 14  1  0  0  0  0
 11 12  1  0  0  0  0
 11 26  1  0  0  0  0
 12 13  2  0  0  0  0
 14 15  2  0  0  0  0
 14 19  1  0  0  0  0
 15 16  1  0  0  0  0
 16 17  2  0  0  0  0
 17 18  1  0  0  0  0
 17 20  1  0  0  0  0
 18 19  2  0  0  0  0
 20 21  1  0  0  0  0
 20 24  1  0  0  0  0
 21 22  1  0  0  0  0
 22 23  1  0  0  0  0
 22 25  1  0  0  0  0
 23 24  2  0  0  0  0
 26 27  1  0  0  0  0
 26 28  1  0  0  0  0
 27 28  1  0  0  0  0
  2 29  1  0  0  0  0
  3 30  1  0  0  0  0
  4 31  1  0  0  0  0
 10 32  1  0  0  0  0
 11 33  1  0  0  0  0
 15 34  1  0  0  0  0
 16 35  1  0  0  0  0
 18 36  1  0  0  0  0
 19 37  1  0  0  0  0
 20 38  1  0  0  0  0
 21 39  1  0  0  0  0
 21 40  1  0  0  0  0
 24 41  1  0  0  0  0
 25 42  1  0  0  0  0
 25 43  1  0  0  0  0
 25 44  1  0  0  0  0
 26 45  1  0  0  0  0
 27 46  1  0  0  0  0
 27 47  1  0  0  0  0
 28 48  1  0  0  0  0
 28 49  1  0  0  0  0
M  END
> <Name>
33

> <IC50[uM]>
0.008

$$$$
33
  -OEChem-05192314333D
 Structure written by MMmdl.
 49 53  0     1  0  0  0  0  0999 V2000
   -6.3918   12.3765  -12.0158 C   0  0  0  0  0  0  0  0  0  0  0  0
   -6.5335   11.8201  -10.7317 C   0  0  0  0  0  0  0  0  0  0  0  0
   -7.7273   10.5795  -13.0319 C   0  0  0  0  0  0  0  0  0  0  0  0
   -7.0082   11.7773  -13.1176 C   0  0  0  0  0  0  0  0  0  0  0  0
   -7.8294   10.0116  -11.7546 C   0  0  0  0  0  0  0  0  0  0  0  0
   -7.2533   10.6299  -10.5984 C   0  0  0  0  0  0  0  0  0  0  0  0
   -7.6133    9.7501   -9.5115 C   0  0  0  0  0  0  0  0  0  0  0  0
   -8.2802    8.7340   -9.9853 N   0  0  0  0  0  0  0  0  0  0  0  0
   -8.4149    8.8602  -11.2994 N   0  0  0  0  0  0  0  0  0  0  0  0
   -7.3368    9.8898   -8.0240 C   0  0  0  0  0  0  0  0  0  0  0  0
   -4.3580   13.5891  -11.5451 N   0  0  0  0  0  0  0  0  0  0  0  0
   -5.5327   13.6029  -12.2131 C   0  0  0  0  0  0  0  0  0  0  0  0
   -5.8791   14.5089  -12.9726 O   0  0  0  0  0  0  0  0  0  0  0  0
   -5.9622   10.4818   -7.7351 C   0  0  0  0  0  0  0  0  0  0  0  0
   -5.8525   11.7570   -7.1642 C   0  0  0  0  0  0  0  0  0  0  0  0
   -4.5920   12.3049   -6.9193 C   0  0  0  0  0  0  0  0  0  0  0  0
   -3.4386   11.5825   -7.2408 C   0  0  0  0  0  0  0  0  0  0  0  0
   -3.5579   10.3128   -7.8038 C   0  0  0  0  0  0  0  0  0  0  0  0
   -4.8126    9.7642   -8.0521 C   0  0  0  0  0  0  0  0  0  0  0  0
   -2.0919   12.1643   -6.9829 C   0  0  3  0  0  0  0  0  0  0  0  0
   -1.7362   13.4287   -6.5051 C   0  0  0  0  0  0  0  0  0  0  0  0
   -0.4017   13.4552   -6.4435 N   0  0  3  0  0  0  0  0  0  0  0  0
    0.1850   12.3496   -6.8156 N   0  0  0  0  0  0  0  0  0  0  0  0
   -0.8078   11.5460   -7.1722 C   0  0  0  0  0  0  0  0  0  0  0  0
    0.4351   14.5688   -6.0125 C   0  0  0  0  0  0  0  0  0  0  0  0
   -3.3172   14.5865  -11.7755 C   0  0  0  0  0  0  0  0  0  0  0  0
   -1.8924   14.0513  -11.7355 C   0  0  0  0  0  0  0  0  0  0  0  0
   -2.3932   14.9579  -10.6450 C   0  0  0  0  0  0  0  0  0  0  0  0
   -6.0964   12.3014   -9.8693 H   0  0  0  0  0  0  0  0  0  0  0  0
   -8.1772   10.1197  -13.8994 H   0  0  0  0  0  0  0  0  0  0  0  0
   -6.9259   12.2608  -14.0798 H   0  0  0  0  0  0  0  0  0  0  0  0
   -8.0380    9.6010   -7.2550 H   0  0  0  0  0  0  0  0  0  0  0  0
   -5.2205   15.1935  -12.9707 H   0  0  0  0  0  0  0  0  0  0  0  0
   -6.7424   12.3154   -6.9139 H   0  0  0  0  0  0  0  0  0  0  0  0
   -4.5075   13.2883   -6.4808 H   0  0  0  0  0  0  0  0  0  0  0  0
   -2.6693    9.7502   -8.0493 H   0  0  0  0  0  0  0  0  0  0  0  0
   -4.8943    8.7808   -8.4911 H   0  0  0  0  0  0  0  0  0  0  0  0
   -2.1241   11.7830   -5.9516 H   0  0  0  0  0  0  0  0  0  0  0  0
   -2.0995   14.2088   -7.1903 H   0  0  0  0  0  0  0  0  0  0  0  0
   -2.1650   13.5904   -5.5051 H   0  0  0  0  0  0  0  0  0  0  0  0
   -0.6685   10.5471   -7.5584 H   0  0  0  0  0  0  0  0  0  0  0  0
    1.4941   14.2779   -6.0748 H   0  0  0  0  0  0  0  0  0  0  0  0
    0.2544   15.4366   -6.6639 H   0  0  0  0  0  0  0  0  0  0  0  0
    0.1879   14.8324   -4.9736 H   0  0  0  0  0  0  0  0  0  0  0  0
   -3.5215   15.3697  -12.5204 H   0  0  0  0  0  0  0  0  0  0  0  0
   -1.7095   12.9870  -11.5263 H   0  0  0  0  0  0  0  0  0  0  0  0
   -1.1463   14.4168  -12.4564 H   0  0  0  0  0  0  0  0  0  0  0  0
   -2.0084   15.9854  -10.5669 H   0  0  0  0  0  0  0  0  0  0  0  0
   -2.5716   14.5556   -9.6369 H   0  0  0  0  0  0  0  0  0  0  0  0
  1  2  2  0  0  0  0
  1  4  1  0  0  0  0
  1 12  1  0  0  0  0
  2  6  1  0  0  0  0
  3  4  2  0  0  0  0
  3  5  1  0  0  0  0
  5  6  2  0  0  0  0
  5  9  1  0  0  0  0
  6  7  1  0  0  0  0
  7  8  1  0  0  0  0
  7 10  2  3  0  0  0
  8  9  2  0  0  0  0
 10 14  1  0  0  0  0
 11 12  2  0  0  0  0
 11 26  1  0  0  0  0
 12 13  1  0  0  0  0
 14 15  2  0  0  0  0
 14 19  1  0  0  0  0
 15 16  1  0  0  0  0
 16 17  2  0  0  0  0
 17 18  1  0  0  0  0
 17 20  1  0  0  0  0
 18 19  2  0  0  0  0
 20 21  1  0  0  0  0
 20 24  1  0  0  0  0
 21 22  1  0  0  0  0
 22 23  1  0  0  0  0
 22 25  1  0  0  0  0
 23 24  2  0  0  0  0
 26 27  1  0  0  0  0
 26 28  1  0  0  0  0
 27 28  1  0  0  0  0
  2 29  1  0  0  0  0
  3 30  1  0  0  0  0
  4 31  1  0  0  0  0
 10 32  1  0  0  0  0
 13 33  1  0  0  0  0
 15 34  1  0  0  0  0
 16 35  1  0  0  0  0
 18 36  1  0  0  0  0
 19 37  1  0  0  0  0
 20 38  1  0  0  0  0
 21 39  1  0  0  0  0
 21 40  1  0  0  0  0
 24 41  1  0  0  0  0
 25 42  1  0  0  0  0
 25 43  1  0  0  0  0
 25 44  1  0  0  0  0
 26 45  1  0  0  0  0
 27 46  1  0  0  0  0
 27 47  1  0  0  0  0
 28 48  1  0  0  0  0
 28 49  1  0  0  0  0
M  END
> <Name>
33

> <IC50[uM]>
0.008

$$$$
33
  -OEChem-05192314333D
 Structure written by MMmdl.
 49 53  0     1  0  0  0  0  0999 V2000
   -6.3918   12.3765  -12.0158 C   0  0  0  0  0  0  0  0  0  0  0  0
   -6.5335   11.8201  -10.7317 C   0  0  0  0  0  0  0  0  0  0  0  0
   -7.7273   10.5795  -13.0319 C   0  0  0  0  0  0  0  0  0  0  0  0
   -7.0082   11.7773  -13.1176 C   0  0  0  0  0  0  0  0  0  0  0  0
   -7.8294   10.0116  -11.7546 C   0  0  0  0  0  0  0  0  0  0  0  0
   -7.2533   10.6299  -10.5984 C   0  0  0  0  0  0  0  0  0  0  0  0
   -7.6133    9.7501   -9.5115 C   0  0  0  0  0  0  0  0  0  0  0  0
   -8.2802    8.7340   -9.9853 N   0  0  0  0  0  0  0  0  0  0  0  0
   -8.4149    8.8602  -11.2994 N   0  0  0  0  0  0  0  0  0  0  0  0
   -7.3368    9.8898   -8.0240 C   0  0  0  0  0  0  0  0  0  0  0  0
   -4.3580   13.5891  -11.5451 N   0  0  0  0  0  0  0  0  0  0  0  0
   -5.5327   13.6029  -12.2131 C   0  0  0  0  0  0  0  0  0  0  0  0
   -5.8791   14.5089  -12.9726 O   0  0  0  0  0  0  0  0  0  0  0  0
   -5.9622   10.4818   -7.7351 C   0  0  0  0  0  0  0  0  0  0  0  0
   -5.8525   11.7570   -7.1642 C   0  0  0  0  0  0  0  0  0  0  0  0
   -4.5920   12.3049   -6.9193 C   0  0  0  0  0  0  0  0  0  0  0  0
   -3.4386   11.5825   -7.2408 C   0  0  0  0  0  0  0  0  0  0  0  0
   -3.5579   10.3128   -7.8038 C   0  0  0  0  0  0  0  0  0  0  0  0
   -4.8126    9.7642   -8.0521 C   0  0  0  0  0  0  0  0  0  0  0  0
   -2.0919   12.1643   -6.9829 C   0  0  0  0  0  0  0  0  0  0  0  0
   -1.7362   13.4287   -6.5051 C   0  0  0  0  0  0  0  0  0  0  0  0
   -0.4017   13.4552   -6.4435 N   0  0  3  0  0  0  0  0  0  0  0  0
    0.1850   12.3496   -6.8156 N   0  0  0  0  0  0  0  0  0  0  0  0
   -0.8078   11.5460   -7.1722 C   0  0  0  0  0  0  0  0  0  0  0  0
    0.4351   14.5688   -6.0125 C   0  0  0  0  0  0  0  0  0  0  0  0
   -3.3172   14.5865  -11.7755 C   0  0  0  0  0  0  0  0  0  0  0  0
   -1.8924   14.0513  -11.7355 C   0  0  0  0  0  0  0  0  0  0  0  0
   -2.3932   14.9579  -10.6450 C   0  0  0  0  0  0  0  0  0  0  0  0
   -6.0964   12.3014   -9.8693 H   0  0  0  0  0  0  0  0  0  0  0  0
   -8.1772   10.1197  -13.8994 H   0  0  0  0  0  0  0  0  0  0  0  0
   -6.9259   12.2608  -14.0798 H   0  0  0  0  0  0  0  0  0  0  0  0
   -8.0380    9.6010   -7.2550 H   0  0  0  0  0  0  0  0  0  0  0  0
   -4.1960   12.8702  -10.8691 H   0  0  0  0  0  0  0  0  0  0  0  0
   -6.7424   12.3154   -6.9139 H   0  0  0  0  0  0  0  0  0  0  0  0
   -4.5075   13.2883   -6.4808 H   0  0  0  0  0  0  0  0  0  0  0  0
   -2.6693    9.7502   -8.0493 H   0  0  0  0  0  0  0  0  0  0  0  0
   -4.8943    8.7808   -8.4911 H   0  0  0  0  0  0  0  0  0  0  0  0
   -2.4097   14.2294   -6.2375 H   0  0  0  0  0  0  0  0  0  0  0  0
    0.7974   12.5179   -7.5880 H   0  0  0  0  0  0  0  0  0  0  0  0
   -0.7606   10.6307   -6.5639 H   0  0  0  0  0  0  0  0  0  0  0  0
   -0.6912   11.2865   -8.2348 H   0  0  0  0  0  0  0  0  0  0  0  0
    1.4941   14.2780   -6.0751 H   0  0  0  0  0  0  0  0  0  0  0  0
    0.2542   15.4367   -6.6636 H   0  0  0  0  0  0  0  0  0  0  0  0
    0.1881   14.8321   -4.9734 H   0  0  0  0  0  0  0  0  0  0  0  0
   -3.5215   15.3697  -12.5204 H   0  0  0  0  0  0  0  0  0  0  0  0
   -1.7095   12.9870  -11.5263 H   0  0  0  0  0  0  0  0  0  0  0  0
   -1.1463   14.4168  -12.4564 H   0  0  0  0  0  0  0  0  0  0  0  0
   -2.0084   15.9854  -10.5669 H   0  0  0  0  0  0  0  0  0  0  0  0
   -2.5716   14.5556   -9.6369 H   0  0  0  0  0  0  0  0  0  0  0  0
  1  2  2  0  0  0  0
  1  4  1  0  0  0  0
  1 12  1  0  0  0  0
  2  6  1  0  0  0  0
  3  4  2  0  0  0  0
  3  5  1  0  0  0  0
  5  6  2  0  0  0  0
  5  9  1  0  0  0  0
  6  7  1  0  0  0  0
  7  8  1  0  0  0  0
  7 10  2  3  0  0  0
  8  9  2  0  0  0  0
 10 14  1  0  0  0  0
 11 12  1  0  0  0  0
 11 26  1  0  0  0  0
 12 13  2  0  0  0  0
 14 15  2  0  0  0  0
 14 19  1  0  0  0  0
 15 16  1  0  0  0  0
 16 17  2  0  0  0  0
 17 18  1  0  0  0  0
 17 20  1  0  0  0  0
 18 19  2  0  0  0  0
 20 21  2  0  0  0  0
 20 24  1  0  0  0  0
 21 22  1  0  0  0  0
 22 23  1  0  0  0  0
 22 25  1  0  0  0  0
 23 24  1  0  0  0  0
 26 27  1  0  0  0  0
 26 28  1  0  0  0  0
 27 28  1  0  0  0  0
  2 29  1  0  0  0  0
  3 30  1  0  0  0  0
  4 31  1  0  0  0  0
 10 32  1  0  0  0  0
 11 33  1  0  0  0  0
 15 34  1  0  0  0  0
 16 35  1  0  0  0  0
 18 36  1  0  0  0  0
 19 37  1  0  0  0  0
 21 38  1  0  0  0  0
 23 39  1  0  0  0  0
 24 40  1  0  0  0  0
 24 41  1  0  0  0  0
 25 42  1  0  0  0  0
 25 43  1  0  0  0  0
 25 44  1  0  0  0  0
 26 45  1  0  0  0  0
 27 46  1  0  0  0  0
 27 47  1  0  0  0  0
 28 48  1  0  0  0  0
 28 49  1  0  0  0  0
M  END
> <Name>
33

> <IC50[uM]>
0.008

$$$$
33
  -OEChem-05192314333D
 Structure written by MMmdl.
 49 53  0     1  0  0  0  0  0999 V2000
   -6.3918   12.3765  -12.0158 C   0  0  0  0  0  0  0  0  0  0  0  0
   -6.5335   11.8201  -10.7317 C   0  0  0  0  0  0  0  0  0  0  0  0
   -7.7273   10.5795  -13.0319 C   0  0  0  0  0  0  0  0  0  0  0  0
   -7.0082   11.7773  -13.1176 C   0  0  0  0  0  0  0  0  0  0  0  0
   -7.8294   10.0116  -11.7546 C   0  0  0  0  0  0  0  0  0  0  0  0
   -7.2533   10.6299  -10.5984 C   0  0  0  0  0  0  0  0  0  0  0  0
   -7.6133    9.7501   -9.5115 C   0  0  0  0  0  0  0  0  0  0  0  0
   -8.2802    8.7340   -9.9853 N   0  0  0  0  0  0  0  0  0  0  0  0
   -8.4149    8.8602  -11.2994 N   0  0  0  0  0  0  0  0  0  0  0  0
   -7.3368    9.8898   -8.0240 C   0  0  0  0  0  0  0  0  0  0  0  0
   -4.3580   13.5891  -11.5451 N   0  0  0  0  0  0  0  0  0  0  0  0
   -5.5327   13.6029  -12.2131 C   0  0  0  0  0  0  0  0  0  0  0  0
   -5.8791   14.5089  -12.9726 O   0  0  0  0  0  0  0  0  0  0  0  0
   -5.9622   10.4818   -7.7351 C   0  0  0  0  0  0  0  0  0  0  0  0
   -5.8525   11.7570   -7.1642 C   0  0  0  0  0  0  0  0  0  0  0  0
   -4.5920   12.3049   -6.9193 C   0  0  0  0  0  0  0  0  0  0  0  0
   -3.4386   11.5825   -7.2408 C   0  0  0  0  0  0  0  0  0  0  0  0
   -3.5579   10.3128   -7.8038 C   0  0  0  0  0  0  0  0  0  0  0  0
   -4.8126    9.7642   -8.0521 C   0  0  0  0  0  0  0  0  0  0  0  0
   -2.0919   12.1643   -6.9829 C   0  0  0  0  0  0  0  0  0  0  0  0
   -1.7362   13.4287   -6.5051 C   0  0  0  0  0  0  0  0  0  0  0  0
   -0.4017   13.4552   -6.4435 N   0  0  3  0  0  0  0  0  0  0  0  0
    0.1850   12.3496   -6.8156 N   0  0  0  0  0  0  0  0  0  0  0  0
   -0.8078   11.5460   -7.1722 C   0  0  0  0  0  0  0  0  0  0  0  0
    0.4351   14.5688   -6.0125 C   0  0  0  0  0  0  0  0  0  0  0  0
   -3.3172   14.5865  -11.7755 C   0  0  0  0  0  0  0  0  0  0  0  0
   -1.8924   14.0513  -11.7355 C   0  0  0  0  0  0  0  0  0  0  0  0
   -2.3932   14.9579  -10.6450 C   0  0  0  0  0  0  0  0  0  0  0  0
   -6.0964   12.3014   -9.8693 H   0  0  0  0  0  0  0  0  0  0  0  0
   -8.1772   10.1197  -13.8994 H   0  0  0  0  0  0  0  0  0  0  0  0
   -6.9259   12.2608  -14.0798 H   0  0  0  0  0  0  0  0  0  0  0  0
   -8.0380    9.6010   -7.2550 H   0  0  0  0  0  0  0  0  0  0  0  0
   -4.1960   12.8702  -10.8691 H   0  0  0  0  0  0  0  0  0  0  0  0
   -6.7424   12.3154   -6.9139 H   0  0  0  0  0  0  0  0  0  0  0  0
   -4.5075   13.2883   -6.4808 H   0  0  0  0  0  0  0  0  0  0  0  0
   -2.6693    9.7502   -8.0493 H   0  0  0  0  0  0  0  0  0  0  0  0
   -4.8943    8.7808   -8.4911 H   0  0  0  0  0  0  0  0  0  0  0  0
   -2.0995   14.2088   -7.1903 H   0  0  0  0  0  0  0  0  0  0  0  0
   -2.1650   13.5904   -5.5051 H   0  0  0  0  0  0  0  0  0  0  0  0
    0.7974   12.5179   -7.5880 H   0  0  0  0  0  0  0  0  0  0  0  0
   -0.6685   10.5471   -7.5584 H   0  0  0  0  0  0  0  0  0  0  0  0
    1.4941   14.2780   -6.0751 H   0  0  0  0  0  0  0  0  0  0  0  0
    0.2542   15.4367   -6.6636 H   0  0  0  0  0  0  0  0  0  0  0  0
    0.1881   14.8321   -4.9734 H   0  0  0  0  0  0  0  0  0  0  0  0
   -3.5215   15.3697  -12.5204 H   0  0  0  0  0  0  0  0  0  0  0  0
   -1.7095   12.9870  -11.5263 H   0  0  0  0  0  0  0  0  0  0  0  0
   -1.1463   14.4168  -12.4564 H   0  0  0  0  0  0  0  0  0  0  0  0
   -2.0084   15.9854  -10.5669 H   0  0  0  0  0  0  0  0  0  0  0  0
   -2.5716   14.5556   -9.6369 H   0  0  0  0  0  0  0  0  0  0  0  0
  1  2  2  0  0  0  0
  1  4  1  0  0  0  0
  1 12  1  0  0  0  0
  2  6  1  0  0  0  0
  3  4  2  0  0  0  0
  3  5  1  0  0  0  0
  5  6  2  0  0  0  0
  5  9  1  0  0  0  0
  6  7  1  0  0  0  0
  7  8  1  0  0  0  0
  7 10  2  3  0  0  0
  8  9  2  0  0  0  0
 10 14  1  0  0  0  0
 11 12  1  0  0  0  0
 11 26  1  0  0  0  0
 12 13  2  0  0  0  0
 14 15  2  0  0  0  0
 14 19  1  0  0  0  0
 15 16  1  0  0  0  0
 16 17  2  0  0  0  0
 17 18  1  0  0  0  0
 17 20  1  0  0  0  0
 18 19  2  0  0  0  0
 20 21  1  0  0  0  0
 20 24  2  0  0  0  0
 21 22  1  0  0  0  0
 22 23  1  0  0  0  0
 22 25  1  0  0  0  0
 23 24  1  0  0  0  0
 26 27  1  0  0  0  0
 26 28  1  0  0  0  0
 27 28  1  0  0  0  0
  2 29  1  0  0  0  0
  3 30  1  0  0  0  0
  4 31  1  0  0  0  0
 10 32  1  0  0  0  0
 11 33  1  0  0  0  0
 15 34  1  0  0  0  0
 16 35  1  0  0  0  0
 18 36  1  0  0  0  0
 19 37  1  0  0  0  0
 21 38  1  0  0  0  0
 21 39  1  0  0  0  0
 23 40  1  0  0  0  0
 24 41  1  0  0  0  0
 25 42  1  0  0  0  0
 25 43  1  0  0  0  0
 25 44  1  0  0  0  0
 26 45  1  0  0  0  0
 27 46  1  0  0  0  0
 27 47  1  0  0  0  0
 28 48  1  0  0  0  0
 28 49  1  0  0  0  0
M  END
> <Name>
33

> <IC50[uM]>
0.008

$$$$
33
  -OEChem-05192314333D
 Structure written by MMmdl.
 49 53  0     1  0  0  0  0  0999 V2000
   -6.3918   12.3765  -12.0158 C   0  0  0  0  0  0  0  0  0  0  0  0
   -6.5335   11.8201  -10.7317 C   0  0  0  0  0  0  0  0  0  0  0  0
   -7.7273   10.5795  -13.0319 C   0  0  0  0  0  0  0  0  0  0  0  0
   -7.0082   11.7773  -13.1176 C   0  0  0  0  0  0  0  0  0  0  0  0
   -7.8294   10.0116  -11.7546 C   0  0  0  0  0  0  0  0  0  0  0  0
   -7.2533   10.6299  -10.5984 C   0  0  0  0  0  0  0  0  0  0  0  0
   -7.6133    9.7501   -9.5115 C   0  0  0  0  0  0  0  0  0  0  0  0
   -8.2802    8.7340   -9.9853 N   0  0  0  0  0  0  0  0  0  0  0  0
   -8.4149    8.8602  -11.2994 N   0  0  0  0  0  0  0  0  0  0  0  0
   -7.3368    9.8898   -8.0240 C   0  0  0  0  0  0  0  0  0  0  0  0
   -4.3580   13.5891  -11.5451 N   0  0  0  0  0  0  0  0  0  0  0  0
   -5.5327   13.6029  -12.2131 C   0  0  0  0  0  0  0  0  0  0  0  0
   -5.8791   14.5089  -12.9726 O   0  0  0  0  0  0  0  0  0  0  0  0
   -5.9622   10.4818   -7.7351 C   0  0  0  0  0  0  0  0  0  0  0  0
   -5.8525   11.7570   -7.1642 C   0  0  0  0  0  0  0  0  0  0  0  0
   -4.5920   12.3049   -6.9193 C   0  0  0  0  0  0  0  0  0  0  0  0
   -3.4386   11.5825   -7.2408 C   0  0  0  0  0  0  0  0  0  0  0  0
   -3.5579   10.3128   -7.8038 C   0  0  0  0  0  0  0  0  0  0  0  0
   -4.8126    9.7642   -8.0521 C   0  0  0  0  0  0  0  0  0  0  0  0
   -2.0919   12.1643   -6.9829 C   0  0  0  0  0  0  0  0  0  0  0  0
   -1.7362   13.4287   -6.5051 C   0  0  0  0  0  0  0  0  0  0  0  0
   -0.4017   13.4552   -6.4435 N   0  0  3  0  0  0  0  0  0  0  0  0
    0.1850   12.3496   -6.8156 N   0  0  0  0  0  0  0  0  0  0  0  0
   -0.8078   11.5460   -7.1722 C   0  0  0  0  0  0  0  0  0  0  0  0
    0.4351   14.5688   -6.0125 C   0  0  0  0  0  0  0  0  0  0  0  0
   -3.3172   14.5865  -11.7755 C   0  0  0  0  0  0  0  0  0  0  0  0
   -1.8924   14.0513  -11.7355 C   0  0  0  0  0  0  0  0  0  0  0  0
   -2.3932   14.9579  -10.6450 C   0  0  0  0  0  0  0  0  0  0  0  0
   -6.0964   12.3014   -9.8693 H   0  0  0  0  0  0  0  0  0  0  0  0
   -8.1772   10.1197  -13.8994 H   0  0  0  0  0  0  0  0  0  0  0  0
   -6.9259   12.2608  -14.0798 H   0  0  0  0  0  0  0  0  0  0  0  0
   -8.0380    9.6010   -7.2550 H   0  0  0  0  0  0  0  0  0  0  0  0
   -5.2205   15.1935  -12.9707 H   0  0  0  0  0  0  0  0  0  0  0  0
   -6.7424   12.3154   -6.9139 H   0  0  0  0  0  0  0  0  0  0  0  0
   -4.5075   13.2883   -6.4808 H   0  0  0  0  0  0  0  0  0  0  0  0
   -2.6693    9.7502   -8.0493 H   0  0  0  0  0  0  0  0  0  0  0  0
   -4.8943    8.7808   -8.4911 H   0  0  0  0  0  0  0  0  0  0  0  0
   -2.4097   14.2294   -6.2375 H   0  0  0  0  0  0  0  0  0  0  0  0
    0.7974   12.5179   -7.5880 H   0  0  0  0  0  0  0  0  0  0  0  0
   -0.7606   10.6307   -6.5639 H   0  0  0  0  0  0  0  0  0  0  0  0
   -0.6912   11.2865   -8.2348 H   0  0  0  0  0  0  0  0  0  0  0  0
    1.4941   14.2780   -6.0751 H   0  0  0  0  0  0  0  0  0  0  0  0
    0.2542   15.4367   -6.6636 H   0  0  0  0  0  0  0  0  0  0  0  0
    0.1881   14.8321   -4.9734 H   0  0  0  0  0  0  0  0  0  0  0  0
   -3.5215   15.3697  -12.5204 H   0  0  0  0  0  0  0  0  0  0  0  0
   -1.7095   12.9870  -11.5263 H   0  0  0  0  0  0  0  0  0  0  0  0
   -1.1463   14.4168  -12.4564 H   0  0  0  0  0  0  0  0  0  0  0  0
   -2.0084   15.9854  -10.5669 H   0  0  0  0  0  0  0  0  0  0  0  0
   -2.5716   14.5556   -9.6369 H   0  0  0  0  0  0  0  0  0  0  0  0
  1  2  2  0  0  0  0
  1  4  1  0  0  0  0
  1 12  1  0  0  0  0
  2  6  1  0  0  0  0
  3  4  2  0  0  0  0
  3  5  1  0  0  0  0
  5  6  2  0  0  0  0
  5  9  1  0  0  0  0
  6  7  1  0  0  0  0
  7  8  1  0  0  0  0
  7 10  2  3  0  0  0
  8  9  2  0  0  0  0
 10 14  1  0  0  0  0
 11 12  2  0  0  0  0
 11 26  1  0  0  0  0
 12 13  1  0  0  0  0
 14 15  2  0  0  0  0
 14 19  1  0  0  0  0
 15 16  1  0  0  0  0
 16 17  2  0  0  0  0
 17 18  1  0  0  0  0
 17 20  1  0  0  0  0
 18 19  2  0  0  0  0
 20 21  2  0  0  0  0
 20 24  1  0  0  0  0
 21 22  1  0  0  0  0
 22 23  1  0  0  0  0
 22 25  1  0  0  0  0
 23 24  1  0  0  0  0
 26 27  1  0  0  0  0
 26 28  1  0  0  0  0
 27 28  1  0  0  0  0
  2 29  1  0  0  0  0
  3 30  1  0  0  0  0
  4 31  1  0  0  0  0
 10 32  1  0  0  0  0
 13 33  1  0  0  0  0
 15 34  1  0  0  0  0
 16 35  1  0  0  0  0
 18 36  1  0  0  0  0
 19 37  1  0  0  0  0
 21 38  1  0  0  0  0
 23 39  1  0  0  0  0
 24 40  1  0  0  0  0
 24 41  1  0  0  0  0
 25 42  1  0  0  0  0
 25 43  1  0  0  0  0
 25 44  1  0  0  0  0
 26 45  1  0  0  0  0
 27 46  1  0  0  0  0
 27 47  1  0  0  0  0
 28 48  1  0  0  0  0
 28 49  1  0  0  0  0
M  END
> <Name>
33

> <IC50[uM]>
0.008

$$$$
33
  -OEChem-05192314333D
 Structure written by MMmdl.
 49 53  0     1  0  0  0  0  0999 V2000
   -6.3918   12.3765  -12.0158 C   0  0  0  0  0  0  0  0  0  0  0  0
   -6.5335   11.8201  -10.7317 C   0  0  0  0  0  0  0  0  0  0  0  0
   -7.7273   10.5795  -13.0319 C   0  0  0  0  0  0  0  0  0  0  0  0
   -7.0082   11.7773  -13.1176 C   0  0  0  0  0  0  0  0  0  0  0  0
   -7.8294   10.0116  -11.7546 C   0  0  0  0  0  0  0  0  0  0  0  0
   -7.2533   10.6299  -10.5984 C   0  0  0  0  0  0  0  0  0  0  0  0
   -7.6133    9.7501   -9.5115 C   0  0  0  0  0  0  0  0  0  0  0  0
   -8.2802    8.7340   -9.9853 N   0  0  0  0  0  0  0  0  0  0  0  0
   -8.4149    8.8602  -11.2994 N   0  0  0  0  0  0  0  0  0  0  0  0
   -7.3368    9.8898   -8.0240 C   0  0  0  0  0  0  0  0  0  0  0  0
   -4.3580   13.5891  -11.5451 N   0  0  0  0  0  0  0  0  0  0  0  0
   -5.5327   13.6029  -12.2131 C   0  0  0  0  0  0  0  0  0  0  0  0
   -5.8791   14.5089  -12.9726 O   0  0  0  0  0  0  0  0  0  0  0  0
   -5.9622   10.4818   -7.7351 C   0  0  0  0  0  0  0  0  0  0  0  0
   -5.8525   11.7570   -7.1642 C   0  0  0  0  0  0  0  0  0  0  0  0
   -4.5920   12.3049   -6.9193 C   0  0  0  0  0  0  0  0  0  0  0  0
   -3.4386   11.5825   -7.2408 C   0  0  0  0  0  0  0  0  0  0  0  0
   -3.5579   10.3128   -7.8038 C   0  0  0  0  0  0  0  0  0  0  0  0
   -4.8126    9.7642   -8.0521 C   0  0  0  0  0  0  0  0  0  0  0  0
   -2.0919   12.1643   -6.9829 C   0  0  0  0  0  0  0  0  0  0  0  0
   -1.7362   13.4287   -6.5051 C   0  0  0  0  0  0  0  0  0  0  0  0
   -0.4017   13.4552   -6.4435 N   0  0  3  0  0  0  0  0  0  0  0  0
    0.1850   12.3496   -6.8156 N   0  0  0  0  0  0  0  0  0  0  0  0
   -0.8078   11.5460   -7.1722 C   0  0  0  0  0  0  0  0  0  0  0  0
    0.4351   14.5688   -6.0125 C   0  0  0  0  0  0  0  0  0  0  0  0
   -3.3172   14.5865  -11.7755 C   0  0  0  0  0  0  0  0  0  0  0  0
   -1.8924   14.0513  -11.7355 C   0  0  0  0  0  0  0  0  0  0  0  0
   -2.3932   14.9579  -10.6450 C   0  0  0  0  0  0  0  0  0  0  0  0
   -6.0964   12.3014   -9.8693 H   0  0  0  0  0  0  0  0  0  0  0  0
   -8.1772   10.1197  -13.8994 H   0  0  0  0  0  0  0  0  0  0  0  0
   -6.9259   12.2608  -14.0798 H   0  0  0  0  0  0  0  0  0  0  0  0
   -8.0380    9.6010   -7.2550 H   0  0  0  0  0  0  0  0  0  0  0  0
   -5.2205   15.1935  -12.9707 H   0  0  0  0  0  0  0  0  0  0  0  0
   -6.7424   12.3154   -6.9139 H   0  0  0  0  0  0  0  0  0  0  0  0
   -4.5075   13.2883   -6.4808 H   0  0  0  0  0  0  0  0  0  0  0  0
   -2.6693    9.7502   -8.0493 H   0  0  0  0  0  0  0  0  0  0  0  0
   -4.8943    8.7808   -8.4911 H   0  0  0  0  0  0  0  0  0  0  0  0
   -2.0995   14.2088   -7.1903 H   0  0  0  0  0  0  0  0  0  0  0  0
   -2.1650   13.5904   -5.5051 H   0  0  0  0  0  0  0  0  0  0  0  0
    0.7974   12.5179   -7.5880 H   0  0  0  0  0  0  0  0  0  0  0  0
   -0.6685   10.5471   -7.5584 H   0  0  0  0  0  0  0  0  0  0  0  0
    1.4941   14.2780   -6.0751 H   0  0  0  0  0  0  0  0  0  0  0  0
    0.2542   15.4367   -6.6636 H   0  0  0  0  0  0  0  0  0  0  0  0
    0.1881   14.8321   -4.9734 H   0  0  0  0  0  0  0  0  0  0  0  0
   -3.5215   15.3697  -12.5204 H   0  0  0  0  0  0  0  0  0  0  0  0
   -1.7095   12.9870  -11.5263 H   0  0  0  0  0  0  0  0  0  0  0  0
   -1.1463   14.4168  -12.4564 H   0  0  0  0  0  0  0  0  0  0  0  0
   -2.0084   15.9854  -10.5669 H   0  0  0  0  0  0  0  0  0  0  0  0
   -2.5716   14.5556   -9.6369 H   0  0  0  0  0  0  0  0  0  0  0  0
  1  2  2  0  0  0  0
  1  4  1  0  0  0  0
  1 12  1  0  0  0  0
  2  6  1  0  0  0  0
  3  4  2  0  0  0  0
  3  5  1  0  0  0  0
  5  6  2  0  0  0  0
  5  9  1  0  0  0  0
  6  7  1  0  0  0  0
  7  8  1  0  0  0  0
  7 10  2  3  0  0  0
  8  9  2  0  0  0  0
 10 14  1  0  0  0  0
 11 12  2  0  0  0  0
 11 26  1  0  0  0  0
 12 13  1  0  0  0  0
 14 15  2  0  0  0  0
 14 19  1  0  0  0  0
 15 16  1  0  0  0  0
 16 17  2  0  0  0  0
 17 18  1  0  0  0  0
 17 20  1  0  0  0  0
 18 19  2  0  0  0  0
 20 21  1  0  0  0  0
 20 24  2  0  0  0  0
 21 22  1  0  0  0  0
 22 23  1  0  0  0  0
 22 25  1  0  0  0  0
 23 24  1  0  0  0  0
 26 27  1  0  0  0  0
 26 28  1  0  0  0  0
 27 28  1  0  0  0  0
  2 29  1  0  0  0  0
  3 30  1  0  0  0  0
  4 31  1  0  0  0  0
 10 32  1  0  0  0  0
 13 33  1  0  0  0  0
 15 34  1  0  0  0  0
 16 35  1  0  0  0  0
 18 36  1  0  0  0  0
 19 37  1  0  0  0  0
 21 38  1  0  0  0  0
 21 39  1  0  0  0  0
 23 40  1  0  0  0  0
 24 41  1  0  0  0  0
 25 42  1  0  0  0  0
 25 43  1  0  0  0  0
 25 44  1  0  0  0  0
 26 45  1  0  0  0  0
 27 46  1  0  0  0  0
 27 47  1  0  0  0  0
 28 48  1  0  0  0  0
 28 49  1  0  0  0  0
M  END
> <Name>
33

> <IC50[uM]>
0.008

$$$$
33
  -OEChem-05192314333D
 Structure written by MMmdl.
 49 53  0     1  0  0  0  0  0999 V2000
   -6.3918   12.3765  -12.0158 C   0  0  0  0  0  0  0  0  0  0  0  0
   -6.5335   11.8201  -10.7317 C   0  0  0  0  0  0  0  0  0  0  0  0
   -7.7273   10.5795  -13.0319 C   0  0  0  0  0  0  0  0  0  0  0  0
   -7.0082   11.7773  -13.1176 C   0  0  0  0  0  0  0  0  0  0  0  0
   -7.8294   10.0116  -11.7546 C   0  0  0  0  0  0  0  0  0  0  0  0
   -7.2533   10.6299  -10.5984 C   0  0  0  0  0  0  0  0  0  0  0  0
   -7.6133    9.7501   -9.5115 C   0  0  3  0  0  0  0  0  0  0  0  0
   -8.2802    8.7340   -9.9853 N   0  0  0  0  0  0  0  0  0  0  0  0
   -8.4149    8.8602  -11.2994 N   0  0  0  0  0  0  0  0  0  0  0  0
   -7.3368    9.8898   -8.0240 C   0  0  0  0  0  0  0  0  0  0  0  0
   -4.3580   13.5891  -11.5451 N   0  0  0  0  0  0  0  0  0  0  0  0
   -5.5327   13.6029  -12.2131 C   0  0  0  0  0  0  0  0  0  0  0  0
   -5.8791   14.5089  -12.9726 O   0  0  0  0  0  0  0  0  0  0  0  0
   -5.9622   10.4818   -7.7351 C   0  0  0  0  0  0  0  0  0  0  0  0
   -5.8525   11.7570   -7.1642 C   0  0  0  0  0  0  0  0  0  0  0  0
   -4.5920   12.3049   -6.9193 C   0  0  0  0  0  0  0  0  0  0  0  0
   -3.4386   11.5825   -7.2408 C   0  0  0  0  0  0  0  0  0  0  0  0
   -3.5579   10.3128   -7.8038 C   0  0  0  0  0  0  0  0  0  0  0  0
   -4.8126    9.7642   -8.0521 C   0  0  0  0  0  0  0  0  0  0  0  0
   -2.0919   12.1643   -6.9829 C   0  0  0  0  0  0  0  0  0  0  0  0
   -1.7362   13.4287   -6.5051 C   0  0  0  0  0  0  0  0  0  0  0  0
   -0.4017   13.4552   -6.4435 N   0  0  3  0  0  0  0  0  0  0  0  0
    0.1850   12.3496   -6.8156 N   0  0  0  0  0  0  0  0  0  0  0  0
   -0.8078   11.5460   -7.1722 C   0  0  0  0  0  0  0  0  0  0  0  0
    0.4351   14.5688   -6.0125 C   0  0  0  0  0  0  0  0  0  0  0  0
   -3.3172   14.5865  -11.7755 C   0  0  0  0  0  0  0  0  0  0  0  0
   -1.8924   14.0513  -11.7355 C   0  0  0  0  0  0  0  0  0  0  0  0
   -2.3932   14.9579  -10.6450 C   0  0  0  0  0  0  0  0  0  0  0  0
   -6.0964   12.3014   -9.8693 H   0  0  0  0  0  0  0  0  0  0  0  0
   -8.1772   10.1197  -13.8994 H   0  0  0  0  0  0  0  0  0  0  0  0
   -6.9259   12.2608  -14.0798 H   0  0  0  0  0  0  0  0  0  0  0  0
   -6.6705    9.1980   -9.6396 H   0  0  0  0  0  0  0  0  0  0  0  0
   -8.0380    9.6010   -7.2550 H   0  0  0  0  0  0  0  0  0  0  0  0
   -4.1960   12.8702  -10.8691 H   0  0  0  0  0  0  0  0  0  0  0  0
   -6.7424   12.3154   -6.9139 H   0  0  0  0  0  0  0  0  0  0  0  0
   -4.5075   13.2883   -6.4808 H   0  0  0  0  0  0  0  0  0  0  0  0
   -2.6693    9.7502   -8.0493 H   0  0  0  0  0  0  0  0  0  0  0  0
   -4.8943    8.7808   -8.4911 H   0  0  0  0  0  0  0  0  0  0  0  0
   -2.0995   14.2088   -7.1903 H   0  0  0  0  0  0  0  0  0  0  0  0
   -2.1650   13.5904   -5.5051 H   0  0  0  0  0  0  0  0  0  0  0  0
   -0.6685   10.5471   -7.5584 H   0  0  0  0  0  0  0  0  0  0  0  0
    1.4941   14.2779   -6.0748 H   0  0  0  0  0  0  0  0  0  0  0  0
    0.2544   15.4366   -6.6639 H   0  0  0  0  0  0  0  0  0  0  0  0
    0.1879   14.8324   -4.9736 H   0  0  0  0  0  0  0  0  0  0  0  0
   -3.5215   15.3697  -12.5204 H   0  0  0  0  0  0  0  0  0  0  0  0
   -1.7095   12.9870  -11.5263 H   0  0  0  0  0  0  0  0  0  0  0  0
   -1.1463   14.4168  -12.4564 H   0  0  0  0  0  0  0  0  0  0  0  0
   -2.0084   15.9854  -10.5669 H   0  0  0  0  0  0  0  0  0  0  0  0
   -2.5716   14.5556   -9.6369 H   0  0  0  0  0  0  0  0  0  0  0  0
  1  2  2  0  0  0  0
  1  4  1  0  0  0  0
  1 12  1  0  0  0  0
  2  6  1  0  0  0  0
  3  4  2  0  0  0  0
  3  5  1  0  0  0  0
  5  6  2  0  0  0  0
  5  9  1  0  0  0  0
  6  7  1  0  0  0  0
  7  8  1  0  0  0  0
  7 10  1  0  0  0  0
  8  9  2  0  0  0  0
 10 14  2  0  0  0  0
 11 12  1  0  0  0  0
 11 26  1  0  0  0  0
 12 13  2  0  0  0  0
 14 15  1  0  0  0  0
 14 19  1  0  0  0  0
 15 16  2  0  0  0  0
 16 17  1  0  0  0  0
 17 18  1  0  0  0  0
 17 20  2  0  0  0  0
 18 19  2  0  0  0  0
 20 21  1  0  0  0  0
 20 24  1  0  0  0  0
 21 22  1  0  0  0  0
 22 23  1  0  0  0  0
 22 25  1  0  0  0  0
 23 24  2  0  0  0  0
 26 27  1  0  0  0  0
 26 28  1  0  0  0  0
 27 28  1  0  0  0  0
  2 29  1  0  0  0  0
  3 30  1  0  0  0  0
  4 31  1  0  0  0  0
  7 32  1  0  0  0  0
 10 33  1  0  0  0  0
 11 34  1  0  0  0  0
 15 35  1  0  0  0  0
 16 36  1  0  0  0  0
 18 37  1  0  0  0  0
 19 38  1  0  0  0  0
 21 39  1  0  0  0  0
 21 40  1  0  0  0  0
 24 41  1  0  0  0  0
 25 42  1  0  0  0  0
 25 43  1  0  0  0  0
 25 44  1  0  0  0  0
 26 45  1  0  0  0  0
 27 46  1  0  0  0  0
 27 47  1  0  0  0  0
 28 48  1  0  0  0  0
 28 49  1  0  0  0  0
M  END
> <Name>
33

> <IC50[uM]>
0.008

$$$$
33
  -OEChem-05192314333D
 Structure written by MMmdl.
 49 53  0     1  0  0  0  0  0999 V2000
   -6.3918   12.3765  -12.0158 C   0  0  0  0  0  0  0  0  0  0  0  0
   -6.5335   11.8201  -10.7317 C   0  0  0  0  0  0  0  0  0  0  0  0
   -7.7273   10.5795  -13.0319 C   0  0  0  0  0  0  0  0  0  0  0  0
   -7.0082   11.7773  -13.1176 C   0  0  0  0  0  0  0  0  0  0  0  0
   -7.8294   10.0116  -11.7546 C   0  0  0  0  0  0  0  0  0  0  0  0
   -7.2533   10.6299  -10.5984 C   0  0  0  0  0  0  0  0  0  0  0  0
   -7.6133    9.7501   -9.5115 C   0  0  3  0  0  0  0  0  0  0  0  0
   -8.2802    8.7340   -9.9853 N   0  0  0  0  0  0  0  0  0  0  0  0
   -8.4149    8.8602  -11.2994 N   0  0  0  0  0  0  0  0  0  0  0  0
   -7.3368    9.8898   -8.0240 C   0  0  0  0  0  0  0  0  0  0  0  0
   -4.3580   13.5891  -11.5451 N   0  0  0  0  0  0  0  0  0  0  0  0
   -5.5327   13.6029  -12.2131 C   0  0  0  0  0  0  0  0  0  0  0  0
   -5.8791   14.5089  -12.9726 O   0  0  0  0  0  0  0  0  0  0  0  0
   -5.9622   10.4818   -7.7351 C   0  0  0  0  0  0  0  0  0  0  0  0
   -5.8525   11.7570   -7.1642 C   0  0  0  0  0  0  0  0  0  0  0  0
   -4.5920   12.3049   -6.9193 C   0  0  0  0  0  0  0  0  0  0  0  0
   -3.4386   11.5825   -7.2408 C   0  0  0  0  0  0  0  0  0  0  0  0
   -3.5579   10.3128   -7.8038 C   0  0  0  0  0  0  0  0  0  0  0  0
   -4.8126    9.7642   -8.0521 C   0  0  0  0  0  0  0  0  0  0  0  0
   -2.0919   12.1643   -6.9829 C   0  0  0  0  0  0  0  0  0  0  0  0
   -1.7362   13.4287   -6.5051 C   0  0  0  0  0  0  0  0  0  0  0  0
   -0.4017   13.4552   -6.4435 N   0  0  3  0  0  0  0  0  0  0  0  0
    0.1850   12.3496   -6.8156 N   0  0  0  0  0  0  0  0  0  0  0  0
   -0.8078   11.5460   -7.1722 C   0  0  0  0  0  0  0  0  0  0  0  0
    0.4351   14.5688   -6.0125 C   0  0  0  0  0  0  0  0  0  0  0  0
   -3.3172   14.5865  -11.7755 C   0  0  0  0  0  0  0  0  0  0  0  0
   -1.8924   14.0513  -11.7355 C   0  0  0  0  0  0  0  0  0  0  0  0
   -2.3932   14.9579  -10.6450 C   0  0  0  0  0  0  0  0  0  0  0  0
   -6.0964   12.3014   -9.8693 H   0  0  0  0  0  0  0  0  0  0  0  0
   -8.1772   10.1197  -13.8994 H   0  0  0  0  0  0  0  0  0  0  0  0
   -6.9259   12.2608  -14.0798 H   0  0  0  0  0  0  0  0  0  0  0  0
   -6.6705    9.1980   -9.6396 H   0  0  0  0  0  0  0  0  0  0  0  0
   -8.0380    9.6010   -7.2550 H   0  0  0  0  0  0  0  0  0  0  0  0
   -5.2205   15.1935  -12.9707 H   0  0  0  0  0  0  0  0  0  0  0  0
   -6.7424   12.3154   -6.9139 H   0  0  0  0  0  0  0  0  0  0  0  0
   -4.5075   13.2883   -6.4808 H   0  0  0  0  0  0  0  0  0  0  0  0
   -2.6693    9.7502   -8.0493 H   0  0  0  0  0  0  0  0  0  0  0  0
   -4.8943    8.7808   -8.4911 H   0  0  0  0  0  0  0  0  0  0  0  0
   -2.0995   14.2088   -7.1903 H   0  0  0  0  0  0  0  0  0  0  0  0
   -2.1650   13.5904   -5.5051 H   0  0  0  0  0  0  0  0  0  0  0  0
   -0.6685   10.5471   -7.5584 H   0  0  0  0  0  0  0  0  0  0  0  0
    1.4941   14.2779   -6.0748 H   0  0  0  0  0  0  0  0  0  0  0  0
    0.2544   15.4366   -6.6639 H   0  0  0  0  0  0  0  0  0  0  0  0
    0.1879   14.8324   -4.9736 H   0  0  0  0  0  0  0  0  0  0  0  0
   -3.5215   15.3697  -12.5204 H   0  0  0  0  0  0  0  0  0  0  0  0
   -1.7095   12.9870  -11.5263 H   0  0  0  0  0  0  0  0  0  0  0  0
   -1.1463   14.4168  -12.4564 H   0  0  0  0  0  0  0  0  0  0  0  0
   -2.0084   15.9854  -10.5669 H   0  0  0  0  0  0  0  0  0  0  0  0
   -2.5716   14.5556   -9.6369 H   0  0  0  0  0  0  0  0  0  0  0  0
  1  2  2  0  0  0  0
  1  4  1  0  0  0  0
  1 12  1  0  0  0  0
  2  6  1  0  0  0  0
  3  4  2  0  0  0  0
  3  5  1  0  0  0  0
  5  6  2  0  0  0  0
  5  9  1  0  0  0  0
  6  7  1  0  0  0  0
  7  8  1  0  0  0  0
  7 10  1  0  0  0  0
  8  9  2  0  0  0  0
 10 14  2  0  0  0  0
 11 12  2  0  0  0  0
 11 26  1  0  0  0  0
 12 13  1  0  0  0  0
 14 15  1  0  0  0  0
 14 19  1  0  0  0  0
 15 16  2  0  0  0  0
 16 17  1  0  0  0  0
 17 18  1  0  0  0  0
 17 20  2  0  0  0  0
 18 19  2  0  0  0  0
 20 21  1  0  0  0  0
 20 24  1  0  0  0  0
 21 22  1  0  0  0  0
 22 23  1  0  0  0  0
 22 25  1  0  0  0  0
 23 24  2  0  0  0  0
 26 27  1  0  0  0  0
 26 28  1  0  0  0  0
 27 28  1  0  0  0  0
  2 29  1  0  0  0  0
  3 30  1  0  0  0  0
  4 31  1  0  0  0  0
  7 32  1  0  0  0  0
 10 33  1  0  0  0  0
 13 34  1  0  0  0  0
 15 35  1  0  0  0  0
 16 36  1  0  0  0  0
 18 37  1  0  0  0  0
 19 38  1  0  0  0  0
 21 39  1  0  0  0  0
 21 40  1  0  0  0  0
 24 41  1  0  0  0  0
 25 42  1  0  0  0  0
 25 43  1  0  0  0  0
 25 44  1  0  0  0  0
 26 45  1  0  0  0  0
 27 46  1  0  0  0  0
 27 47  1  0  0  0  0
 28 48  1  0  0  0  0
 28 49  1  0  0  0  0
M  END
> <Name>
33

> <IC50[uM]>
0.008

$$$$
33
  -OEChem-05192314333D
 Structure written by MMmdl.
 49 53  0     1  0  0  0  0  0999 V2000
   -6.3918   12.3765  -12.0158 C   0  0  3  0  0  0  0  0  0  0  0  0
   -6.5335   11.8201  -10.7317 C   0  0  0  0  0  0  0  0  0  0  0  0
   -7.7273   10.5795  -13.0319 C   0  0  0  0  0  0  0  0  0  0  0  0
   -7.0082   11.7773  -13.1176 C   0  0  0  0  0  0  0  0  0  0  0  0
   -7.8294   10.0116  -11.7546 C   0  0  0  0  0  0  0  0  0  0  0  0
   -7.2533   10.6299  -10.5984 C   0  0  0  0  0  0  0  0  0  0  0  0
   -7.6133    9.7501   -9.5115 C   0  0  0  0  0  0  0  0  0  0  0  0
   -8.2802    8.7340   -9.9853 N   0  0  0  0  0  0  0  0  0  0  0  0
   -8.4149    8.8602  -11.2994 N   0  0  0  0  0  0  0  0  0  0  0  0
   -7.3368    9.8898   -8.0240 C   0  0  0  0  0  0  0  0  0  0  0  0
   -4.3580   13.5891  -11.5451 N   0  0  0  0  0  0  0  0  0  0  0  0
   -5.5327   13.6029  -12.2131 C   0  0  0  0  0  0  0  0  0  0  0  0
   -5.8791   14.5089  -12.9726 O   0  0  0  0  0  0  0  0  0  0  0  0
   -5.9622   10.4818   -7.7351 C   0  0  0  0  0  0  0  0  0  0  0  0
   -5.8525   11.7570   -7.1642 C   0  0  0  0  0  0  0  0  0  0  0  0
   -4.5920   12.3049   -6.9193 C   0  0  0  0  0  0  0  0  0  0  0  0
   -3.4386   11.5825   -7.2408 C   0  0  0  0  0  0  0  0  0  0  0  0
   -3.5579   10.3128   -7.8038 C   0  0  0  0  0  0  0  0  0  0  0  0
   -4.8126    9.7642   -8.0521 C   0  0  0  0  0  0  0  0  0  0  0  0
   -2.0919   12.1643   -6.9829 C   0  0  0  0  0  0  0  0  0  0  0  0
   -1.7362   13.4287   -6.5051 C   0  0  0  0  0  0  0  0  0  0  0  0
   -0.4017   13.4552   -6.4435 N   0  0  0  0  0  0  0  0  0  0  0  0
    0.1850   12.3496   -6.8156 N   0  0  0  0  0  0  0  0  0  0  0  0
   -0.8078   11.5460   -7.1722 C   0  0  0  0  0  0  0  0  0  0  0  0
    0.4351   14.5688   -6.0125 C   0  0  0  0  0  0  0  0  0  0  0  0
   -3.3172   14.5865  -11.7755 C   0  0  0  0  0  0  0  0  0  0  0  0
   -1.8924   14.0513  -11.7355 C   0  0  0  0  0  0  0  0  0  0  0  0
   -2.3932   14.9579  -10.6450 C   0  0  0  0  0  0  0  0  0  0  0  0
   -7.2761   13.0097  -11.8512 H   0  0  0  0  0  0  0  0  0  0  0  0
   -6.0964   12.3014   -9.8693 H   0  0  0  0  0  0  0  0  0  0  0  0
   -8.1772   10.1197  -13.8994 H   0  0  0  0  0  0  0  0  0  0  0  0
   -6.9259   12.2608  -14.0798 H   0  0  0  0  0  0  0  0  0  0  0  0
   -8.1022   10.5457   -7.5837 H   0  0  0  0  0  0  0  0  0  0  0  0
   -7.3960    8.8943   -7.5599 H   0  0  0  0  0  0  0  0  0  0  0  0
   -4.1960   12.8702  -10.8691 H   0  0  0  0  0  0  0  0  0  0  0  0
   -6.7424   12.3154   -6.9139 H   0  0  0  0  0  0  0  0  0  0  0  0
   -4.5075   13.2883   -6.4808 H   0  0  0  0  0  0  0  0  0  0  0  0
   -2.6693    9.7502   -8.0493 H   0  0  0  0  0  0  0  0  0  0  0  0
   -4.8943    8.7808   -8.4911 H   0  0  0  0  0  0  0  0  0  0  0  0
   -2.4097   14.2294   -6.2375 H   0  0  0  0  0  0  0  0  0  0  0  0
   -0.6685   10.5471   -7.5584 H   0  0  0  0  0  0  0  0  0  0  0  0
    1.4941   14.2779   -6.0748 H   0  0  0  0  0  0  0  0  0  0  0  0
    0.2544   15.4366   -6.6639 H   0  0  0  0  0  0  0  0  0  0  0  0
    0.1879   14.8324   -4.9736 H   0  0  0  0  0  0  0  0  0  0  0  0
   -3.5215   15.3697  -12.5204 H   0  0  0  0  0  0  0  0  0  0  0  0
   -1.7095   12.9870  -11.5263 H   0  0  0  0  0  0  0  0  0  0  0  0
   -1.1463   14.4168  -12.4564 H   0  0  0  0  0  0  0  0  0  0  0  0
   -2.0084   15.9854  -10.5669 H   0  0  0  0  0  0  0  0  0  0  0  0
   -2.5716   14.5556   -9.6369 H   0  0  0  0  0  0  0  0  0  0  0  0
  1  2  1  0  0  0  0
  1  4  1  0  0  0  0
  1 12  1  0  0  0  0
  2  6  2  0  0  0  0
  3  4  2  0  0  0  0
  3  5  1  0  0  0  0
  5  6  1  0  0  0  0
  5  9  2  0  0  0  0
  6  7  1  0  0  0  0
  7  8  2  0  0  0  0
  7 10  1  0  0  0  0
  8  9  1  0  0  0  0
 10 14  1  0  0  0  0
 11 12  1  0  0  0  0
 11 26  1  0  0  0  0
 12 13  2  0  0  0  0
 14 15  2  0  0  0  0
 14 19  1  0  0  0  0
 15 16  1  0  0  0  0
 16 17  2  0  0  0  0
 17 18  1  0  0  0  0
 17 20  1  0  0  0  0
 18 19  2  0  0  0  0
 20 21  2  0  0  0  0
 20 24  1  0  0  0  0
 21 22  1  0  0  0  0
 22 23  1  0  0  0  0
 22 25  1  0  0  0  0
 23 24  2  0  0  0  0
 26 27  1  0  0  0  0
 26 28  1  0  0  0  0
 27 28  1  0  0  0  0
  1 29  1  0  0  0  0
  2 30  1  0  0  0  0
  3 31  1  0  0  0  0
  4 32  1  0  0  0  0
 10 33  1  0  0  0  0
 10 34  1  0  0  0  0
 11 35  1  0  0  0  0
 15 36  1  0  0  0  0
 16 37  1  0  0  0  0
 18 38  1  0  0  0  0
 19 39  1  0  0  0  0
 21 40  1  0  0  0  0
 24 41  1  0  0  0  0
 25 42  1  0  0  0  0
 25 43  1  0  0  0  0
 25 44  1  0  0  0  0
 26 45  1  0  0  0  0
 27 46  1  0  0  0  0
 27 47  1  0  0  0  0
 28 48  1  0  0  0  0
 28 49  1  0  0  0  0
M  END
> <Name>
33

> <IC50[uM]>
0.008

$$$$
33
  -OEChem-05192314333D
 Structure written by MMmdl.
 49 53  0     1  0  0  0  0  0999 V2000
   -6.3918   12.3765  -12.0158 C   0  0  0  0  0  0  0  0  0  0  0  0
   -6.5335   11.8201  -10.7317 C   0  0  0  0  0  0  0  0  0  0  0  0
   -7.7273   10.5795  -13.0319 C   0  0  0  0  0  0  0  0  0  0  0  0
   -7.0082   11.7773  -13.1176 C   0  0  0  0  0  0  0  0  0  0  0  0
   -7.8294   10.0116  -11.7546 C   0  0  0  0  0  0  0  0  0  0  0  0
   -7.2533   10.6299  -10.5984 C   0  0  3  0  0  0  0  0  0  0  0  0
   -7.6133    9.7501   -9.5115 C   0  0  0  0  0  0  0  0  0  0  0  0
   -8.2802    8.7340   -9.9853 N   0  0  0  0  0  0  0  0  0  0  0  0
   -8.4149    8.8602  -11.2994 N   0  0  0  0  0  0  0  0  0  0  0  0
   -7.3368    9.8898   -8.0240 C   0  0  0  0  0  0  0  0  0  0  0  0
   -4.3580   13.5891  -11.5451 N   0  0  0  0  0  0  0  0  0  0  0  0
   -5.5327   13.6029  -12.2131 C   0  0  0  0  0  0  0  0  0  0  0  0
   -5.8791   14.5089  -12.9726 O   0  0  0  0  0  0  0  0  0  0  0  0
   -5.9622   10.4818   -7.7351 C   0  0  0  0  0  0  0  0  0  0  0  0
   -5.8525   11.7570   -7.1642 C   0  0  0  0  0  0  0  0  0  0  0  0
   -4.5920   12.3049   -6.9193 C   0  0  0  0  0  0  0  0  0  0  0  0
   -3.4386   11.5825   -7.2408 C   0  0  0  0  0  0  0  0  0  0  0  0
   -3.5579   10.3128   -7.8038 C   0  0  0  0  0  0  0  0  0  0  0  0
   -4.8126    9.7642   -8.0521 C   0  0  0  0  0  0  0  0  0  0  0  0
   -2.0919   12.1643   -6.9829 C   0  0  0  0  0  0  0  0  0  0  0  0
   -1.7362   13.4287   -6.5051 C   0  0  0  0  0  0  0  0  0  0  0  0
   -0.4017   13.4552   -6.4435 N   0  0  0  0  0  0  0  0  0  0  0  0
    0.1850   12.3496   -6.8156 N   0  0  0  0  0  0  0  0  0  0  0  0
   -0.8078   11.5460   -7.1722 C   0  0  0  0  0  0  0  0  0  0  0  0
    0.4351   14.5688   -6.0125 C   0  0  0  0  0  0  0  0  0  0  0  0
   -3.3172   14.5865  -11.7755 C   0  0  0  0  0  0  0  0  0  0  0  0
   -1.8924   14.0513  -11.7355 C   0  0  0  0  0  0  0  0  0  0  0  0
   -2.3932   14.9579  -10.6450 C   0  0  0  0  0  0  0  0  0  0  0  0
   -6.0964   12.3014   -9.8693 H   0  0  0  0  0  0  0  0  0  0  0  0
   -8.1772   10.1197  -13.8994 H   0  0  0  0  0  0  0  0  0  0  0  0
   -6.9259   12.2608  -14.0798 H   0  0  0  0  0  0  0  0  0  0  0  0
   -8.1783   11.2044  -10.4423 H   0  0  0  0  0  0  0  0  0  0  0  0
   -8.1022   10.5457   -7.5837 H   0  0  0  0  0  0  0  0  0  0  0  0
   -7.3960    8.8943   -7.5599 H   0  0  0  0  0  0  0  0  0  0  0  0
   -4.1960   12.8702  -10.8691 H   0  0  0  0  0  0  0  0  0  0  0  0
   -6.7424   12.3154   -6.9139 H   0  0  0  0  0  0  0  0  0  0  0  0
   -4.5075   13.2883   -6.4808 H   0  0  0  0  0  0  0  0  0  0  0  0
   -2.6693    9.7502   -8.0493 H   0  0  0  0  0  0  0  0  0  0  0  0
   -4.8943    8.7808   -8.4911 H   0  0  0  0  0  0  0  0  0  0  0  0
   -2.4097   14.2294   -6.2375 H   0  0  0  0  0  0  0  0  0  0  0  0
   -0.6685   10.5471   -7.5584 H   0  0  0  0  0  0  0  0  0  0  0  0
    1.4941   14.2779   -6.0748 H   0  0  0  0  0  0  0  0  0  0  0  0
    0.2544   15.4366   -6.6639 H   0  0  0  0  0  0  0  0  0  0  0  0
    0.1879   14.8324   -4.9736 H   0  0  0  0  0  0  0  0  0  0  0  0
   -3.5215   15.3697  -12.5204 H   0  0  0  0  0  0  0  0  0  0  0  0
   -1.7095   12.9870  -11.5263 H   0  0  0  0  0  0  0  0  0  0  0  0
   -1.1463   14.4168  -12.4564 H   0  0  0  0  0  0  0  0  0  0  0  0
   -2.0084   15.9854  -10.5669 H   0  0  0  0  0  0  0  0  0  0  0  0
   -2.5716   14.5556   -9.6369 H   0  0  0  0  0  0  0  0  0  0  0  0
  1  2  2  0  0  0  0
  1  4  1  0  0  0  0
  1 12  1  0  0  0  0
  2  6  1  0  0  0  0
  3  4  2  0  0  0  0
  3  5  1  0  0  0  0
  5  6  1  0  0  0  0
  5  9  2  0  0  0  0
  6  7  1  0  0  0  0
  7  8  2  0  0  0  0
  7 10  1  0  0  0  0
  8  9  1  0  0  0  0
 10 14  1  0  0  0  0
 11 12  1  0  0  0  0
 11 26  1  0  0  0  0
 12 13  2  0  0  0  0
 14 15  2  0  0  0  0
 14 19  1  0  0  0  0
 15 16  1  0  0  0  0
 16 17  2  0  0  0  0
 17 18  1  0  0  0  0
 17 20  1  0  0  0  0
 18 19  2  0  0  0  0
 20 21  2  0  0  0  0
 20 24  1  0  0  0  0
 21 22  1  0  0  0  0
 22 23  1  0  0  0  0
 22 25  1  0  0  0  0
 23 24  2  0  0  0  0
 26 27  1  0  0  0  0
 26 28  1  0  0  0  0
 27 28  1  0  0  0  0
  2 29  1  0  0  0  0
  3 30  1  0  0  0  0
  4 31  1  0  0  0  0
  6 32  1  0  0  0  0
 10 33  1  0  0  0  0
 10 34  1  0  0  0  0
 11 35  1  0  0  0  0
 15 36  1  0  0  0  0
 16 37  1  0  0  0  0
 18 38  1  0  0  0  0
 19 39  1  0  0  0  0
 21 40  1  0  0  0  0
 24 41  1  0  0  0  0
 25 42  1  0  0  0  0
 25 43  1  0  0  0  0
 25 44  1  0  0  0  0
 26 45  1  0  0  0  0
 27 46  1  0  0  0  0
 27 47  1  0  0  0  0
 28 48  1  0  0  0  0
 28 49  1  0  0  0  0
M  END
> <Name>
33

> <IC50[uM]>
0.008

$$$$
33
  -OEChem-05192314333D
 Structure written by MMmdl.
 49 53  0     0  0  0  0  0  0999 V2000
   -6.3918   12.3765  -12.0158 C   0  0  0  0  0  0  0  0  0  0  0  0
   -6.5335   11.8201  -10.7317 C   0  0  0  0  0  0  0  0  0  0  0  0
   -7.7273   10.5795  -13.0319 C   0  0  0  0  0  0  0  0  0  0  0  0
   -7.0082   11.7773  -13.1176 C   0  0  0  0  0  0  0  0  0  0  0  0
   -7.8294   10.0116  -11.7546 C   0  0  0  0  0  0  0  0  0  0  0  0
   -7.2533   10.6299  -10.5984 C   0  0  0  0  0  0  0  0  0  0  0  0
   -7.6133    9.7501   -9.5115 C   0  0  0  0  0  0  0  0  0  0  0  0
   -8.2802    8.7340   -9.9853 N   0  0  0  0  0  0  0  0  0  0  0  0
   -8.4149    8.8602  -11.2994 N   0  0  0  0  0  0  0  0  0  0  0  0
   -7.3368    9.8898   -8.0240 C   0  0  0  0  0  0  0  0  0  0  0  0
   -4.3580   13.5891  -11.5451 N   0  0  0  0  0  0  0  0  0  0  0  0
   -5.5327   13.6029  -12.2131 C   0  0  0  0  0  0  0  0  0  0  0  0
   -5.8791   14.5089  -12.9726 O   0  0  0  0  0  0  0  0  0  0  0  0
   -5.9622   10.4818   -7.7351 C   0  0  0  0  0  0  0  0  0  0  0  0
   -5.8525   11.7570   -7.1642 C   0  0  0  0  0  0  0  0  0  0  0  0
   -4.5920   12.3049   -6.9193 C   0  0  0  0  0  0  0  0  0  0  0  0
   -3.4386   11.5825   -7.2408 C   0  0  0  0  0  0  0  0  0  0  0  0
   -3.5579   10.3128   -7.8038 C   0  0  0  0  0  0  0  0  0  0  0  0
   -4.8126    9.7642   -8.0521 C   0  0  0  0  0  0  0  0  0  0  0  0
   -2.0919   12.1643   -6.9829 C   0  0  0  0  0  0  0  0  0  0  0  0
   -1.7362   13.4287   -6.5051 C   0  0  0  0  0  0  0  0  0  0  0  0
   -0.4017   13.4552   -6.4435 N   0  0  0  0  0  0  0  0  0  0  0  0
    0.1850   12.3496   -6.8156 N   0  0  0  0  0  0  0  0  0  0  0  0
   -0.8078   11.5460   -7.1722 C   0  0  0  0  0  0  0  0  0  0  0  0
    0.4351   14.5688   -6.0125 C   0  0  0  0  0  0  0  0  0  0  0  0
   -3.3172   14.5865  -11.7755 C   0  0  0  0  0  0  0  0  0  0  0  0
   -1.8924   14.0513  -11.7355 C   0  0  0  0  0  0  0  0  0  0  0  0
   -2.3932   14.9579  -10.6450 C   0  0  0  0  0  0  0  0  0  0  0  0
   -6.0964   12.3014   -9.8693 H   0  0  0  0  0  0  0  0  0  0  0  0
   -8.7470   10.7729  -13.3962 H   0  0  0  0  0  0  0  0  0  0  0  0
   -7.2367    9.8453  -13.6879 H   0  0  0  0  0  0  0  0  0  0  0  0
   -6.9259   12.2608  -14.0798 H   0  0  0  0  0  0  0  0  0  0  0  0
   -8.1022   10.5457   -7.5837 H   0  0  0  0  0  0  0  0  0  0  0  0
   -7.3960    8.8943   -7.5599 H   0  0  0  0  0  0  0  0  0  0  0  0
   -4.1960   12.8702  -10.8691 H   0  0  0  0  0  0  0  0  0  0  0  0
   -6.7424   12.3154   -6.9139 H   0  0  0  0  0  0  0  0  0  0  0  0
   -4.5075   13.2883   -6.4808 H   0  0  0  0  0  0  0  0  0  0  0  0
   -2.6693    9.7502   -8.0493 H   0  0  0  0  0  0  0  0  0  0  0  0
   -4.8943    8.7808   -8.4911 H   0  0  0  0  0  0  0  0  0  0  0  0
   -2.4097   14.2294   -6.2375 H   0  0  0  0  0  0  0  0  0  0  0  0
   -0.6685   10.5471   -7.5584 H   0  0  0  0  0  0  0  0  0  0  0  0
    1.4941   14.2779   -6.0748 H   0  0  0  0  0  0  0  0  0  0  0  0
    0.2544   15.4366   -6.6639 H   0  0  0  0  0  0  0  0  0  0  0  0
    0.1879   14.8324   -4.9736 H   0  0  0  0  0  0  0  0  0  0  0  0
   -3.5215   15.3697  -12.5204 H   0  0  0  0  0  0  0  0  0  0  0  0
   -1.7095   12.9870  -11.5263 H   0  0  0  0  0  0  0  0  0  0  0  0
   -1.1463   14.4168  -12.4564 H   0  0  0  0  0  0  0  0  0  0  0  0
   -2.0084   15.9854  -10.5669 H   0  0  0  0  0  0  0  0  0  0  0  0
   -2.5716   14.5556   -9.6369 H   0  0  0  0  0  0  0  0  0  0  0  0
  1  2  1  0  0  0  0
  1  4  2  0  0  0  0
  1 12  1  0  0  0  0
  2  6  2  0  0  0  0
  3  4  1  0  0  0  0
  3  5  1  0  0  0  0
  5  6  1  0  0  0  0
  5  9  2  0  0  0  0
  6  7  1  0  0  0  0
  7  8  2  0  0  0  0
  7 10  1  0  0  0  0
  8  9  1  0  0  0  0
 10 14  1  0  0  0  0
 11 12  1  0  0  0  0
 11 26  1  0  0  0  0
 12 13  2  0  0  0  0
 14 15  2  0  0  0  0
 14 19  1  0  0  0  0
 15 16  1  0  0  0  0
 16 17  2  0  0  0  0
 17 18  1  0  0  0  0
 17 20  1  0  0  0  0
 18 19  2  0  0  0  0
 20 21  2  0  0  0  0
 20 24  1  0  0  0  0
 21 22  1  0  0  0  0
 22 23  1  0  0  0  0
 22 25  1  0  0  0  0
 23 24  2  0  0  0  0
 26 27  1  0  0  0  0
 26 28  1  0  0  0  0
 27 28  1  0  0  0  0
  2 29  1  0  0  0  0
  3 30  1  0  0  0  0
  3 31  1  0  0  0  0
  4 32  1  0  0  0  0
 10 33  1  0  0  0  0
 10 34  1  0  0  0  0
 11 35  1  0  0  0  0
 15 36  1  0  0  0  0
 16 37  1  0  0  0  0
 18 38  1  0  0  0  0
 19 39  1  0  0  0  0
 21 40  1  0  0  0  0
 24 41  1  0  0  0  0
 25 42  1  0  0  0  0
 25 43  1  0  0  0  0
 25 44  1  0  0  0  0
 26 45  1  0  0  0  0
 27 46  1  0  0  0  0
 27 47  1  0  0  0  0
 28 48  1  0  0  0  0
 28 49  1  0  0  0  0
M  END
> <Name>
33

> <IC50[uM]>
0.008

$$$$
33
  -OEChem-05192314333D
 Structure written by MMmdl.
 49 53  0     1  0  0  0  0  0999 V2000
   -6.3918   12.3765  -12.0158 C   0  0  3  0  0  0  0  0  0  0  0  0
   -6.5335   11.8201  -10.7317 C   0  0  0  0  0  0  0  0  0  0  0  0
   -7.7273   10.5795  -13.0319 C   0  0  0  0  0  0  0  0  0  0  0  0
   -7.0082   11.7773  -13.1176 C   0  0  0  0  0  0  0  0  0  0  0  0
   -7.8294   10.0116  -11.7546 C   0  0  0  0  0  0  0  0  0  0  0  0
   -7.2533   10.6299  -10.5984 C   0  0  0  0  0  0  0  0  0  0  0  0
   -7.6133    9.7501   -9.5115 C   0  0  0  0  0  0  0  0  0  0  0  0
   -8.2802    8.7340   -9.9853 N   0  0  0  0  0  0  0  0  0  0  0  0
   -8.4149    8.8602  -11.2994 N   0  0  0  0  0  0  0  0  0  0  0  0
   -7.3368    9.8898   -8.0240 C   0  0  0  0  0  0  0  0  0  0  0  0
   -4.3580   13.5891  -11.5451 N   0  0  0  0  0  0  0  0  0  0  0  0
   -5.5327   13.6029  -12.2131 C   0  0  0  0  0  0  0  0  0  0  0  0
   -5.8791   14.5089  -12.9726 O   0  0  0  0  0  0  0  0  0  0  0  0
   -5.9622   10.4818   -7.7351 C   0  0  0  0  0  0  0  0  0  0  0  0
   -5.8525   11.7570   -7.1642 C   0  0  0  0  0  0  0  0  0  0  0  0
   -4.5920   12.3049   -6.9193 C   0  0  0  0  0  0  0  0  0  0  0  0
   -3.4386   11.5825   -7.2408 C   0  0  0  0  0  0  0  0  0  0  0  0
   -3.5579   10.3128   -7.8038 C   0  0  0  0  0  0  0  0  0  0  0  0
   -4.8126    9.7642   -8.0521 C   0  0  0  0  0  0  0  0  0  0  0  0
   -2.0919   12.1643   -6.9829 C   0  0  0  0  0  0  0  0  0  0  0  0
   -1.7362   13.4287   -6.5051 C   0  0  0  0  0  0  0  0  0  0  0  0
   -0.4017   13.4552   -6.4435 N   0  0  0  0  0  0  0  0  0  0  0  0
    0.1850   12.3496   -6.8156 N   0  0  0  0  0  0  0  0  0  0  0  0
   -0.8078   11.5460   -7.1722 C   0  0  0  0  0  0  0  0  0  0  0  0
    0.4351   14.5688   -6.0125 C   0  0  0  0  0  0  0  0  0  0  0  0
   -3.3172   14.5865  -11.7755 C   0  0  0  0  0  0  0  0  0  0  0  0
   -1.8924   14.0513  -11.7355 C   0  0  0  0  0  0  0  0  0  0  0  0
   -2.3932   14.9579  -10.6450 C   0  0  0  0  0  0  0  0  0  0  0  0
   -7.2761   13.0097  -11.8512 H   0  0  0  0  0  0  0  0  0  0  0  0
   -6.0964   12.3014   -9.8693 H   0  0  0  0  0  0  0  0  0  0  0  0
   -8.1772   10.1197  -13.8994 H   0  0  0  0  0  0  0  0  0  0  0  0
   -6.9259   12.2608  -14.0798 H   0  0  0  0  0  0  0  0  0  0  0  0
   -8.1022   10.5457   -7.5837 H   0  0  0  0  0  0  0  0  0  0  0  0
   -7.3960    8.8943   -7.5599 H   0  0  0  0  0  0  0  0  0  0  0  0
   -5.2205   15.1935  -12.9707 H   0  0  0  0  0  0  0  0  0  0  0  0
   -6.7424   12.3154   -6.9139 H   0  0  0  0  0  0  0  0  0  0  0  0
   -4.5075   13.2883   -6.4808 H   0  0  0  0  0  0  0  0  0  0  0  0
   -2.6693    9.7502   -8.0493 H   0  0  0  0  0  0  0  0  0  0  0  0
   -4.8943    8.7808   -8.4911 H   0  0  0  0  0  0  0  0  0  0  0  0
   -2.4097   14.2294   -6.2375 H   0  0  0  0  0  0  0  0  0  0  0  0
   -0.6685   10.5471   -7.5584 H   0  0  0  0  0  0  0  0  0  0  0  0
    1.4941   14.2779   -6.0748 H   0  0  0  0  0  0  0  0  0  0  0  0
    0.2544   15.4366   -6.6639 H   0  0  0  0  0  0  0  0  0  0  0  0
    0.1879   14.8324   -4.9736 H   0  0  0  0  0  0  0  0  0  0  0  0
   -3.5215   15.3697  -12.5204 H   0  0  0  0  0  0  0  0  0  0  0  0
   -1.7095   12.9870  -11.5263 H   0  0  0  0  0  0  0  0  0  0  0  0
   -1.1463   14.4168  -12.4564 H   0  0  0  0  0  0  0  0  0  0  0  0
   -2.0084   15.9854  -10.5669 H   0  0  0  0  0  0  0  0  0  0  0  0
   -2.5716   14.5556   -9.6369 H   0  0  0  0  0  0  0  0  0  0  0  0
  1  2  1  0  0  0  0
  1  4  1  0  0  0  0
  1 12  1  0  0  0  0
  2  6  2  0  0  0  0
  3  4  2  0  0  0  0
  3  5  1  0  0  0  0
  5  6  1  0  0  0  0
  5  9  2  0  0  0  0
  6  7  1  0  0  0  0
  7  8  2  0  0  0  0
  7 10  1  0  0  0  0
  8  9  1  0  0  0  0
 10 14  1  0  0  0  0
 11 12  2  0  0  0  0
 11 26  1  0  0  0  0
 12 13  1  0  0  0  0
 14 15  2  0  0  0  0
 14 19  1  0  0  0  0
 15 16  1  0  0  0  0
 16 17  2  0  0  0  0
 17 18  1  0  0  0  0
 17 20  1  0  0  0  0
 18 19  2  0  0  0  0
 20 21  2  0  0  0  0
 20 24  1  0  0  0  0
 21 22  1  0  0  0  0
 22 23  1  0  0  0  0
 22 25  1  0  0  0  0
 23 24  2  0  0  0  0
 26 27  1  0  0  0  0
 26 28  1  0  0  0  0
 27 28  1  0  0  0  0
  1 29  1  0  0  0  0
  2 30  1  0  0  0  0
  3 31  1  0  0  0  0
  4 32  1  0  0  0  0
 10 33  1  0  0  0  0
 10 34  1  0  0  0  0
 13 35  1  0  0  0  0
 15 36  1  0  0  0  0
 16 37  1  0  0  0  0
 18 38  1  0  0  0  0
 19 39  1  0  0  0  0
 21 40  1  0  0  0  0
 24 41  1  0  0  0  0
 25 42  1  0  0  0  0
 25 43  1  0  0  0  0
 25 44  1  0  0  0  0
 26 45  1  0  0  0  0
 27 46  1  0  0  0  0
 27 47  1  0  0  0  0
 28 48  1  0  0  0  0
 28 49  1  0  0  0  0
M  END
> <Name>
33

> <IC50[uM]>
0.008

$$$$
33
  -OEChem-05192314333D
 Structure written by MMmdl.
 49 53  0     1  0  0  0  0  0999 V2000
   -6.3918   12.3765  -12.0158 C   0  0  0  0  0  0  0  0  0  0  0  0
   -6.5335   11.8201  -10.7317 C   0  0  0  0  0  0  0  0  0  0  0  0
   -7.7273   10.5795  -13.0319 C   0  0  0  0  0  0  0  0  0  0  0  0
   -7.0082   11.7773  -13.1176 C   0  0  0  0  0  0  0  0  0  0  0  0
   -7.8294   10.0116  -11.7546 C   0  0  0  0  0  0  0  0  0  0  0  0
   -7.2533   10.6299  -10.5984 C   0  0  3  0  0  0  0  0  0  0  0  0
   -7.6133    9.7501   -9.5115 C   0  0  0  0  0  0  0  0  0  0  0  0
   -8.2802    8.7340   -9.9853 N   0  0  0  0  0  0  0  0  0  0  0  0
   -8.4149    8.8602  -11.2994 N   0  0  0  0  0  0  0  0  0  0  0  0
   -7.3368    9.8898   -8.0240 C   0  0  0  0  0  0  0  0  0  0  0  0
   -4.3580   13.5891  -11.5451 N   0  0  0  0  0  0  0  0  0  0  0  0
   -5.5327   13.6029  -12.2131 C   0  0  0  0  0  0  0  0  0  0  0  0
   -5.8791   14.5089  -12.9726 O   0  0  0  0  0  0  0  0  0  0  0  0
   -5.9622   10.4818   -7.7351 C   0  0  0  0  0  0  0  0  0  0  0  0
   -5.8525   11.7570   -7.1642 C   0  0  0  0  0  0  0  0  0  0  0  0
   -4.5920   12.3049   -6.9193 C   0  0  0  0  0  0  0  0  0  0  0  0
   -3.4386   11.5825   -7.2408 C   0  0  0  0  0  0  0  0  0  0  0  0
   -3.5579   10.3128   -7.8038 C   0  0  0  0  0  0  0  0  0  0  0  0
   -4.8126    9.7642   -8.0521 C   0  0  0  0  0  0  0  0  0  0  0  0
   -2.0919   12.1643   -6.9829 C   0  0  0  0  0  0  0  0  0  0  0  0
   -1.7362   13.4287   -6.5051 C   0  0  0  0  0  0  0  0  0  0  0  0
   -0.4017   13.4552   -6.4435 N   0  0  0  0  0  0  0  0  0  0  0  0
    0.1850   12.3496   -6.8156 N   0  0  0  0  0  0  0  0  0  0  0  0
   -0.8078   11.5460   -7.1722 C   0  0  0  0  0  0  0  0  0  0  0  0
    0.4351   14.5688   -6.0125 C   0  0  0  0  0  0  0  0  0  0  0  0
   -3.3172   14.5865  -11.7755 C   0  0  0  0  0  0  0  0  0  0  0  0
   -1.8924   14.0513  -11.7355 C   0  0  0  0  0  0  0  0  0  0  0  0
   -2.3932   14.9579  -10.6450 C   0  0  0  0  0  0  0  0  0  0  0  0
   -6.0964   12.3014   -9.8693 H   0  0  0  0  0  0  0  0  0  0  0  0
   -8.1772   10.1197  -13.8994 H   0  0  0  0  0  0  0  0  0  0  0  0
   -6.9259   12.2608  -14.0798 H   0  0  0  0  0  0  0  0  0  0  0  0
   -8.1783   11.2044  -10.4423 H   0  0  0  0  0  0  0  0  0  0  0  0
   -8.1022   10.5457   -7.5837 H   0  0  0  0  0  0  0  0  0  0  0  0
   -7.3960    8.8943   -7.5599 H   0  0  0  0  0  0  0  0  0  0  0  0
   -5.2205   15.1935  -12.9707 H   0  0  0  0  0  0  0  0  0  0  0  0
   -6.7424   12.3154   -6.9139 H   0  0  0  0  0  0  0  0  0  0  0  0
   -4.5075   13.2883   -6.4808 H   0  0  0  0  0  0  0  0  0  0  0  0
   -2.6693    9.7502   -8.0493 H   0  0  0  0  0  0  0  0  0  0  0  0
   -4.8943    8.7808   -8.4911 H   0  0  0  0  0  0  0  0  0  0  0  0
   -2.4097   14.2294   -6.2375 H   0  0  0  0  0  0  0  0  0  0  0  0
   -0.6685   10.5471   -7.5584 H   0  0  0  0  0  0  0  0  0  0  0  0
    1.4941   14.2779   -6.0748 H   0  0  0  0  0  0  0  0  0  0  0  0
    0.2544   15.4366   -6.6639 H   0  0  0  0  0  0  0  0  0  0  0  0
    0.1879   14.8324   -4.9736 H   0  0  0  0  0  0  0  0  0  0  0  0
   -3.5215   15.3697  -12.5204 H   0  0  0  0  0  0  0  0  0  0  0  0
   -1.7095   12.9870  -11.5263 H   0  0  0  0  0  0  0  0  0  0  0  0
   -1.1463   14.4168  -12.4564 H   0  0  0  0  0  0  0  0  0  0  0  0
   -2.0084   15.9854  -10.5669 H   0  0  0  0  0  0  0  0  0  0  0  0
   -2.5716   14.5556   -9.6369 H   0  0  0  0  0  0  0  0  0  0  0  0
  1  2  2  0  0  0  0
  1  4  1  0  0  0  0
  1 12  1  0  0  0  0
  2  6  1  0  0  0  0
  3  4  2  0  0  0  0
  3  5  1  0  0  0  0
  5  6  1  0  0  0  0
  5  9  2  0  0  0  0
  6  7  1  0  0  0  0
  7  8  2  0  0  0  0
  7 10  1  0  0  0  0
  8  9  1  0  0  0  0
 10 14  1  0  0  0  0
 11 12  2  0  0  0  0
 11 26  1  0  0  0  0
 12 13  1  0  0  0  0
 14 15  2  0  0  0  0
 14 19  1  0  0  0  0
 15 16  1  0  0  0  0
 16 17  2  0  0  0  0
 17 18  1  0  0  0  0
 17 20  1  0  0  0  0
 18 19  2  0  0  0  0
 20 21  2  0  0  0  0
 20 24  1  0  0  0  0
 21 22  1  0  0  0  0
 22 23  1  0  0  0  0
 22 25  1  0  0  0  0
 23 24  2  0  0  0  0
 26 27  1  0  0  0  0
 26 28  1  0  0  0  0
 27 28  1  0  0  0  0
  2 29  1  0  0  0  0
  3 30  1  0  0  0  0
  4 31  1  0  0  0  0
  6 32  1  0  0  0  0
 10 33  1  0  0  0  0
 10 34  1  0  0  0  0
 13 35  1  0  0  0  0
 15 36  1  0  0  0  0
 16 37  1  0  0  0  0
 18 38  1  0  0  0  0
 19 39  1  0  0  0  0
 21 40  1  0  0  0  0
 24 41  1  0  0  0  0
 25 42  1  0  0  0  0
 25 43  1  0  0  0  0
 25 44  1  0  0  0  0
 26 45  1  0  0  0  0
 27 46  1  0  0  0  0
 27 47  1  0  0  0  0
 28 48  1  0  0  0  0
 28 49  1  0  0  0  0
M  END
> <Name>
33

> <IC50[uM]>
0.008

$$$$
33
  -OEChem-05192314333D
 Structure written by MMmdl.
 49 53  0     0  0  0  0  0  0999 V2000
   -6.3918   12.3765  -12.0158 C   0  0  0  0  0  0  0  0  0  0  0  0
   -6.5335   11.8201  -10.7317 C   0  0  0  0  0  0  0  0  0  0  0  0
   -7.7273   10.5795  -13.0319 C   0  0  0  0  0  0  0  0  0  0  0  0
   -7.0082   11.7773  -13.1176 C   0  0  0  0  0  0  0  0  0  0  0  0
   -7.8294   10.0116  -11.7546 C   0  0  0  0  0  0  0  0  0  0  0  0
   -7.2533   10.6299  -10.5984 C   0  0  0  0  0  0  0  0  0  0  0  0
   -7.6133    9.7501   -9.5115 C   0  0  0  0  0  0  0  0  0  0  0  0
   -8.2802    8.7340   -9.9853 N   0  0  0  0  0  0  0  0  0  0  0  0
   -8.4149    8.8602  -11.2994 N   0  0  0  0  0  0  0  0  0  0  0  0
   -7.3368    9.8898   -8.0240 C   0  0  0  0  0  0  0  0  0  0  0  0
   -4.3580   13.5891  -11.5451 N   0  0  0  0  0  0  0  0  0  0  0  0
   -5.5327   13.6029  -12.2131 C   0  0  0  0  0  0  0  0  0  0  0  0
   -5.8791   14.5089  -12.9726 O   0  0  0  0  0  0  0  0  0  0  0  0
   -5.9622   10.4818   -7.7351 C   0  0  0  0  0  0  0  0  0  0  0  0
   -5.8525   11.7570   -7.1642 C   0  0  0  0  0  0  0  0  0  0  0  0
   -4.5920   12.3049   -6.9193 C   0  0  0  0  0  0  0  0  0  0  0  0
   -3.4386   11.5825   -7.2408 C   0  0  0  0  0  0  0  0  0  0  0  0
   -3.5579   10.3128   -7.8038 C   0  0  0  0  0  0  0  0  0  0  0  0
   -4.8126    9.7642   -8.0521 C   0  0  0  0  0  0  0  0  0  0  0  0
   -2.0919   12.1643   -6.9829 C   0  0  0  0  0  0  0  0  0  0  0  0
   -1.7362   13.4287   -6.5051 C   0  0  0  0  0  0  0  0  0  0  0  0
   -0.4017   13.4552   -6.4435 N   0  0  0  0  0  0  0  0  0  0  0  0
    0.1850   12.3496   -6.8156 N   0  0  0  0  0  0  0  0  0  0  0  0
   -0.8078   11.5460   -7.1722 C   0  0  0  0  0  0  0  0  0  0  0  0
    0.4351   14.5688   -6.0125 C   0  0  0  0  0  0  0  0  0  0  0  0
   -3.3172   14.5865  -11.7755 C   0  0  0  0  0  0  0  0  0  0  0  0
   -1.8924   14.0513  -11.7355 C   0  0  0  0  0  0  0  0  0  0  0  0
   -2.3932   14.9579  -10.6450 C   0  0  0  0  0  0  0  0  0  0  0  0
   -6.0964   12.3014   -9.8693 H   0  0  0  0  0  0  0  0  0  0  0  0
   -8.7470   10.7729  -13.3962 H   0  0  0  0  0  0  0  0  0  0  0  0
   -7.2367    9.8453  -13.6879 H   0  0  0  0  0  0  0  0  0  0  0  0
   -6.9259   12.2608  -14.0798 H   0  0  0  0  0  0  0  0  0  0  0  0
   -8.1022   10.5457   -7.5837 H   0  0  0  0  0  0  0  0  0  0  0  0
   -7.3960    8.8943   -7.5599 H   0  0  0  0  0  0  0  0  0  0  0  0
   -5.2205   15.1935  -12.9707 H   0  0  0  0  0  0  0  0  0  0  0  0
   -6.7424   12.3154   -6.9139 H   0  0  0  0  0  0  0  0  0  0  0  0
   -4.5075   13.2883   -6.4808 H   0  0  0  0  0  0  0  0  0  0  0  0
   -2.6693    9.7502   -8.0493 H   0  0  0  0  0  0  0  0  0  0  0  0
   -4.8943    8.7808   -8.4911 H   0  0  0  0  0  0  0  0  0  0  0  0
   -2.4097   14.2294   -6.2375 H   0  0  0  0  0  0  0  0  0  0  0  0
   -0.6685   10.5471   -7.5584 H   0  0  0  0  0  0  0  0  0  0  0  0
    1.4941   14.2779   -6.0748 H   0  0  0  0  0  0  0  0  0  0  0  0
    0.2544   15.4366   -6.6639 H   0  0  0  0  0  0  0  0  0  0  0  0
    0.1879   14.8324   -4.9736 H   0  0  0  0  0  0  0  0  0  0  0  0
   -3.5215   15.3697  -12.5204 H   0  0  0  0  0  0  0  0  0  0  0  0
   -1.7095   12.9870  -11.5263 H   0  0  0  0  0  0  0  0  0  0  0  0
   -1.1463   14.4168  -12.4564 H   0  0  0  0  0  0  0  0  0  0  0  0
   -2.0084   15.9854  -10.5669 H   0  0  0  0  0  0  0  0  0  0  0  0
   -2.5716   14.5556   -9.6369 H   0  0  0  0  0  0  0  0  0  0  0  0
  1  2  1  0  0  0  0
  1  4  2  0  0  0  0
  1 12  1  0  0  0  0
  2  6  2  0  0  0  0
  3  4  1  0  0  0  0
  3  5  1  0  0  0  0
  5  6  1  0  0  0  0
  5  9  2  0  0  0  0
  6  7  1  0  0  0  0
  7  8  2  0  0  0  0
  7 10  1  0  0  0  0
  8  9  1  0  0  0  0
 10 14  1  0  0  0  0
 11 12  2  0  0  0  0
 11 26  1  0  0  0  0
 12 13  1  0  0  0  0
 14 15  2  0  0  0  0
 14 19  1  0  0  0  0
 15 16  1  0  0  0  0
 16 17  2  0  0  0  0
 17 18  1  0  0  0  0
 17 20  1  0  0  0  0
 18 19  2  0  0  0  0
 20 21  2  0  0  0  0
 20 24  1  0  0  0  0
 21 22  1  0  0  0  0
 22 23  1  0  0  0  0
 22 25  1  0  0  0  0
 23 24  2  0  0  0  0
 26 27  1  0  0  0  0
 26 28  1  0  0  0  0
 27 28  1  0  0  0  0
  2 29  1  0  0  0  0
  3 30  1  0  0  0  0
  3 31  1  0  0  0  0
  4 32  1  0  0  0  0
 10 33  1  0  0  0  0
 10 34  1  0  0  0  0
 13 35  1  0  0  0  0
 15 36  1  0  0  0  0
 16 37  1  0  0  0  0
 18 38  1  0  0  0  0
 19 39  1  0  0  0  0
 21 40  1  0  0  0  0
 24 41  1  0  0  0  0
 25 42  1  0  0  0  0
 25 43  1  0  0  0  0
 25 44  1  0  0  0  0
 26 45  1  0  0  0  0
 27 46  1  0  0  0  0
 27 47  1  0  0  0  0
 28 48  1  0  0  0  0
 28 49  1  0  0  0  0
M  END
> <Name>
33

> <IC50[uM]>
0.008

$$$$
33
  -OEChem-05192314333D
 Structure written by MMmdl.
 49 53  0     0  0  0  0  0  0999 V2000
   -6.3918   12.3765  -12.0158 C   0  0  0  0  0  0  0  0  0  0  0  0
   -6.5335   11.8201  -10.7317 C   0  0  0  0  0  0  0  0  0  0  0  0
   -7.7273   10.5795  -13.0319 C   0  0  0  0  0  0  0  0  0  0  0  0
   -7.0082   11.7773  -13.1176 C   0  0  0  0  0  0  0  0  0  0  0  0
   -7.8294   10.0116  -11.7546 C   0  0  0  0  0  0  0  0  0  0  0  0
   -7.2533   10.6299  -10.5984 C   0  0  0  0  0  0  0  0  0  0  0  0
   -7.6133    9.7501   -9.5115 C   0  0  0  0  0  0  0  0  0  0  0  0
   -8.2802    8.7340   -9.9853 N   0  0  0  0  0  0  0  0  0  0  0  0
   -8.4149    8.8602  -11.2994 N   0  0  0  0  0  0  0  0  0  0  0  0
   -7.3368    9.8898   -8.0240 C   0  0  0  0  0  0  0  0  0  0  0  0
   -4.3580   13.5891  -11.5451 N   0  0  0  0  0  0  0  0  0  0  0  0
   -5.5327   13.6029  -12.2131 C   0  0  0  0  0  0  0  0  0  0  0  0
   -5.8791   14.5089  -12.9726 O   0  0  0  0  0  0  0  0  0  0  0  0
   -5.9622   10.4818   -7.7351 C   0  0  0  0  0  0  0  0  0  0  0  0
   -5.8525   11.7570   -7.1642 C   0  0  0  0  0  0  0  0  0  0  0  0
   -4.5920   12.3049   -6.9193 C   0  0  0  0  0  0  0  0  0  0  0  0
   -3.4386   11.5825   -7.2408 C   0  0  0  0  0  0  0  0  0  0  0  0
   -3.5579   10.3128   -7.8038 C   0  0  0  0  0  0  0  0  0  0  0  0
   -4.8126    9.7642   -8.0521 C   0  0  0  0  0  0  0  0  0  0  0  0
   -2.0919   12.1643   -6.9829 C   0  0  0  0  0  0  0  0  0  0  0  0
   -1.7362   13.4287   -6.5051 C   0  0  0  0  0  0  0  0  0  0  0  0
   -0.4017   13.4552   -6.4435 N   0  0  0  0  0  0  0  0  0  0  0  0
    0.1850   12.3496   -6.8156 N   0  0  0  0  0  0  0  0  0  0  0  0
   -0.8078   11.5460   -7.1722 C   0  0  0  0  0  0  0  0  0  0  0  0
    0.4351   14.5688   -6.0125 C   0  0  0  0  0  0  0  0  0  0  0  0
   -3.3172   14.5865  -11.7755 C   0  0  0  0  0  0  0  0  0  0  0  0
   -1.8924   14.0513  -11.7355 C   0  0  0  0  0  0  0  0  0  0  0  0
   -2.3932   14.9579  -10.6450 C   0  0  0  0  0  0  0  0  0  0  0  0
   -6.0964   12.3014   -9.8693 H   0  0  0  0  0  0  0  0  0  0  0  0
   -8.1772   10.1197  -13.8994 H   0  0  0  0  0  0  0  0  0  0  0  0
   -6.9259   12.2608  -14.0798 H   0  0  0  0  0  0  0  0  0  0  0  0
   -8.0380    9.6010   -7.2550 H   0  0  0  0  0  0  0  0  0  0  0  0
   -4.1960   12.8702  -10.8691 H   0  0  0  0  0  0  0  0  0  0  0  0
   -5.9736   10.0292   -6.7326 H   0  0  0  0  0  0  0  0  0  0  0  0
   -6.7424   12.3154   -6.9139 H   0  0  0  0  0  0  0  0  0  0  0  0
   -4.5075   13.2883   -6.4808 H   0  0  0  0  0  0  0  0  0  0  0  0
   -3.4391   12.0287   -8.2463 H   0  0  0  0  0  0  0  0  0  0  0  0
   -2.6693    9.7502   -8.0493 H   0  0  0  0  0  0  0  0  0  0  0  0
   -4.8943    8.7808   -8.4911 H   0  0  0  0  0  0  0  0  0  0  0  0
   -2.4097   14.2294   -6.2375 H   0  0  0  0  0  0  0  0  0  0  0  0
   -0.6685   10.5471   -7.5584 H   0  0  0  0  0  0  0  0  0  0  0  0
    1.4941   14.2779   -6.0748 H   0  0  0  0  0  0  0  0  0  0  0  0
    0.2544   15.4366   -6.6639 H   0  0  0  0  0  0  0  0  0  0  0  0
    0.1879   14.8324   -4.9736 H   0  0  0  0  0  0  0  0  0  0  0  0
   -3.5215   15.3697  -12.5204 H   0  0  0  0  0  0  0  0  0  0  0  0
   -1.7095   12.9870  -11.5263 H   0  0  0  0  0  0  0  0  0  0  0  0
   -1.1463   14.4168  -12.4564 H   0  0  0  0  0  0  0  0  0  0  0  0
   -2.0084   15.9854  -10.5669 H   0  0  0  0  0  0  0  0  0  0  0  0
   -2.5716   14.5556   -9.6369 H   0  0  0  0  0  0  0  0  0  0  0  0
  1  2  2  0  0  0  0
  1  4  1  0  0  0  0
  1 12  1  0  0  0  0
  2  6  1  0  0  0  0
  3  4  2  0  0  0  0
  3  5  1  0  0  0  0
  5  6  2  0  0  0  0
  5  9  1  0  0  0  0
  6  7  1  0  0  0  0
  7  8  1  0  0  0  0
  7 10  2  3  0  0  0
  8  9  2  0  0  0  0
 10 14  1  0  0  0  0
 11 12  1  0  0  0  0
 11 26  1  0  0  0  0
 12 13  2  0  0  0  0
 14 15  1  0  0  0  0
 14 19  1  0  0  0  0
 15 16  2  0  0  0  0
 16 17  1  0  0  0  0
 17 18  1  0  0  0  0
 17 20  1  0  0  0  0
 18 19  2  0  0  0  0
 20 21  2  0  0  0  0
 20 24  1  0  0  0  0
 21 22  1  0  0  0  0
 22 23  1  0  0  0  0
 22 25  1  0  0  0  0
 23 24  2  0  0  0  0
 26 27  1  0  0  0  0
 26 28  1  0  0  0  0
 27 28  1  0  0  0  0
  2 29  1  0  0  0  0
  3 30  1  0  0  0  0
  4 31  1  0  0  0  0
 10 32  1  0  0  0  0
 11 33  1  0  0  0  0
 14 34  1  0  0  0  0
 15 35  1  0  0  0  0
 16 36  1  0  0  0  0
 17 37  1  0  0  0  0
 18 38  1  0  0  0  0
 19 39  1  0  0  0  0
 21 40  1  0  0  0  0
 24 41  1  0  0  0  0
 25 42  1  0  0  0  0
 25 43  1  0  0  0  0
 25 44  1  0  0  0  0
 26 45  1  0  0  0  0
 27 46  1  0  0  0  0
 27 47  1  0  0  0  0
 28 48  1  0  0  0  0
 28 49  1  0  0  0  0
M  END
> <Name>
33

> <IC50[uM]>
0.008

$$$$
33
  -OEChem-05192314333D
 Structure written by MMmdl.
 49 53  0     1  0  0  0  0  0999 V2000
   -6.3918   12.3765  -12.0158 C   0  0  0  0  0  0  0  0  0  0  0  0
   -6.5335   11.8201  -10.7317 C   0  0  0  0  0  0  0  0  0  0  0  0
   -7.7273   10.5795  -13.0319 C   0  0  0  0  0  0  0  0  0  0  0  0
   -7.0082   11.7773  -13.1176 C   0  0  0  0  0  0  0  0  0  0  0  0
   -7.8294   10.0116  -11.7546 C   0  0  0  0  0  0  0  0  0  0  0  0
   -7.2533   10.6299  -10.5984 C   0  0  0  0  0  0  0  0  0  0  0  0
   -7.6133    9.7501   -9.5115 C   0  0  3  0  0  0  0  0  0  0  0  0
   -8.2802    8.7340   -9.9853 N   0  0  0  0  0  0  0  0  0  0  0  0
   -8.4149    8.8602  -11.2994 N   0  0  0  0  0  0  0  0  0  0  0  0
   -7.3368    9.8898   -8.0240 C   0  0  0  0  0  0  0  0  0  0  0  0
   -4.3580   13.5891  -11.5451 N   0  0  0  0  0  0  0  0  0  0  0  0
   -5.5327   13.6029  -12.2131 C   0  0  0  0  0  0  0  0  0  0  0  0
   -5.8791   14.5089  -12.9726 O   0  0  0  0  0  0  0  0  0  0  0  0
   -5.9622   10.4818   -7.7351 C   0  0  0  0  0  0  0  0  0  0  0  0
   -5.8525   11.7570   -7.1642 C   0  0  0  0  0  0  0  0  0  0  0  0
   -4.5920   12.3049   -6.9193 C   0  0  0  0  0  0  0  0  0  0  0  0
   -3.4386   11.5825   -7.2408 C   0  0  0  0  0  0  0  0  0  0  0  0
   -3.5579   10.3128   -7.8038 C   0  0  0  0  0  0  0  0  0  0  0  0
   -4.8126    9.7642   -8.0521 C   0  0  0  0  0  0  0  0  0  0  0  0
   -2.0919   12.1643   -6.9829 C   0  0  0  0  0  0  0  0  0  0  0  0
   -1.7362   13.4287   -6.5051 C   0  0  0  0  0  0  0  0  0  0  0  0
   -0.4017   13.4552   -6.4435 N   0  0  0  0  0  0  0  0  0  0  0  0
    0.1850   12.3496   -6.8156 N   0  0  0  0  0  0  0  0  0  0  0  0
   -0.8078   11.5460   -7.1722 C   0  0  0  0  0  0  0  0  0  0  0  0
    0.4351   14.5688   -6.0125 C   0  0  0  0  0  0  0  0  0  0  0  0
   -3.3172   14.5865  -11.7755 C   0  0  0  0  0  0  0  0  0  0  0  0
   -1.8924   14.0513  -11.7355 C   0  0  0  0  0  0  0  0  0  0  0  0
   -2.3932   14.9579  -10.6450 C   0  0  0  0  0  0  0  0  0  0  0  0
   -6.0964   12.3014   -9.8693 H   0  0  0  0  0  0  0  0  0  0  0  0
   -8.1772   10.1197  -13.8994 H   0  0  0  0  0  0  0  0  0  0  0  0
   -6.9259   12.2608  -14.0798 H   0  0  0  0  0  0  0  0  0  0  0  0
   -6.6705    9.1980   -9.6396 H   0  0  0  0  0  0  0  0  0  0  0  0
   -8.0380    9.6010   -7.2550 H   0  0  0  0  0  0  0  0  0  0  0  0
   -4.1960   12.8702  -10.8691 H   0  0  0  0  0  0  0  0  0  0  0  0
   -6.7424   12.3154   -6.9139 H   0  0  0  0  0  0  0  0  0  0  0  0
   -4.5075   13.2883   -6.4808 H   0  0  0  0  0  0  0  0  0  0  0  0
   -3.4391   12.0287   -8.2463 H   0  0  0  0  0  0  0  0  0  0  0  0
   -2.6693    9.7502   -8.0493 H   0  0  0  0  0  0  0  0  0  0  0  0
   -4.8943    8.7808   -8.4911 H   0  0  0  0  0  0  0  0  0  0  0  0
   -2.4097   14.2294   -6.2375 H   0  0  0  0  0  0  0  0  0  0  0  0
   -0.6685   10.5471   -7.5584 H   0  0  0  0  0  0  0  0  0  0  0  0
    1.4941   14.2779   -6.0748 H   0  0  0  0  0  0  0  0  0  0  0  0
    0.2544   15.4366   -6.6639 H   0  0  0  0  0  0  0  0  0  0  0  0
    0.1879   14.8324   -4.9736 H   0  0  0  0  0  0  0  0  0  0  0  0
   -3.5215   15.3697  -12.5204 H   0  0  0  0  0  0  0  0  0  0  0  0
   -1.7095   12.9870  -11.5263 H   0  0  0  0  0  0  0  0  0  0  0  0
   -1.1463   14.4168  -12.4564 H   0  0  0  0  0  0  0  0  0  0  0  0
   -2.0084   15.9854  -10.5669 H   0  0  0  0  0  0  0  0  0  0  0  0
   -2.5716   14.5556   -9.6369 H   0  0  0  0  0  0  0  0  0  0  0  0
  1  2  2  0  0  0  0
  1  4  1  0  0  0  0
  1 12  1  0  0  0  0
  2  6  1  0  0  0  0
  3  4  2  0  0  0  0
  3  5  1  0  0  0  0
  5  6  2  0  0  0  0
  5  9  1  0  0  0  0
  6  7  1  0  0  0  0
  7  8  1  0  0  0  0
  7 10  1  0  0  0  0
  8  9  2  0  0  0  0
 10 14  2  0  0  0  0
 11 12  1  0  0  0  0
 11 26  1  0  0  0  0
 12 13  2  0  0  0  0
 14 15  1  0  0  0  0
 14 19  1  0  0  0  0
 15 16  2  0  0  0  0
 16 17  1  0  0  0  0
 17 18  1  0  0  0  0
 17 20  1  0  0  0  0
 18 19  2  0  0  0  0
 20 21  2  0  0  0  0
 20 24  1  0  0  0  0
 21 22  1  0  0  0  0
 22 23  1  0  0  0  0
 22 25  1  0  0  0  0
 23 24  2  0  0  0  0
 26 27  1  0  0  0  0
 26 28  1  0  0  0  0
 27 28  1  0  0  0  0
  2 29  1  0  0  0  0
  3 30  1  0  0  0  0
  4 31  1  0  0  0  0
  7 32  1  0  0  0  0
 10 33  1  0  0  0  0
 11 34  1  0  0  0  0
 15 35  1  0  0  0  0
 16 36  1  0  0  0  0
 17 37  1  0  0  0  0
 18 38  1  0  0  0  0
 19 39  1  0  0  0  0
 21 40  1  0  0  0  0
 24 41  1  0  0  0  0
 25 42  1  0  0  0  0
 25 43  1  0  0  0  0
 25 44  1  0  0  0  0
 26 45  1  0  0  0  0
 27 46  1  0  0  0  0
 27 47  1  0  0  0  0
 28 48  1  0  0  0  0
 28 49  1  0  0  0  0
M  END
> <Name>
33

> <IC50[uM]>
0.008

$$$$
33
  -OEChem-05192314333D
 Structure written by MMmdl.
 49 53  0     1  0  0  0  0  0999 V2000
   -6.3918   12.3765  -12.0158 C   0  0  3  0  0  0  0  0  0  0  0  0
   -6.5335   11.8201  -10.7317 C   0  0  0  0  0  0  0  0  0  0  0  0
   -7.7273   10.5795  -13.0319 C   0  0  0  0  0  0  0  0  0  0  0  0
   -7.0082   11.7773  -13.1176 C   0  0  0  0  0  0  0  0  0  0  0  0
   -7.8294   10.0116  -11.7546 C   0  0  3  0  0  0  0  0  0  0  0  0
   -7.2533   10.6299  -10.5984 C   0  0  0  0  0  0  0  0  0  0  0  0
   -7.6133    9.7501   -9.5115 C   0  0  0  0  0  0  0  0  0  0  0  0
   -8.2802    8.7340   -9.9853 N   0  0  0  0  0  0  0  0  0  0  0  0
   -8.4149    8.8602  -11.2994 N   0  0  0  0  0  0  0  0  0  0  0  0
   -7.3368    9.8898   -8.0240 C   0  0  0  0  0  0  0  0  0  0  0  0
   -4.3580   13.5891  -11.5451 N   0  0  0  0  0  0  0  0  0  0  0  0
   -5.5327   13.6029  -12.2131 C   0  0  0  0  0  0  0  0  0  0  0  0
   -5.8791   14.5089  -12.9726 O   0  0  0  0  0  0  0  0  0  0  0  0
   -5.9622   10.4818   -7.7351 C   0  0  0  0  0  0  0  0  0  0  0  0
   -5.8525   11.7570   -7.1642 C   0  0  0  0  0  0  0  0  0  0  0  0
   -4.5920   12.3049   -6.9193 C   0  0  0  0  0  0  0  0  0  0  0  0
   -3.4386   11.5825   -7.2408 C   0  0  0  0  0  0  0  0  0  0  0  0
   -3.5579   10.3128   -7.8038 C   0  0  0  0  0  0  0  0  0  0  0  0
   -4.8126    9.7642   -8.0521 C   0  0  0  0  0  0  0  0  0  0  0  0
   -2.0919   12.1643   -6.9829 C   0  0  0  0  0  0  0  0  0  0  0  0
   -1.7362   13.4287   -6.5051 C   0  0  0  0  0  0  0  0  0  0  0  0
   -0.4017   13.4552   -6.4435 N   0  0  0  0  0  0  0  0  0  0  0  0
    0.1850   12.3496   -6.8156 N   0  0  0  0  0  0  0  0  0  0  0  0
   -0.8078   11.5460   -7.1722 C   0  0  0  0  0  0  0  0  0  0  0  0
    0.4351   14.5688   -6.0125 C   0  0  0  0  0  0  0  0  0  0  0  0
   -3.3172   14.5865  -11.7755 C   0  0  0  0  0  0  0  0  0  0  0  0
   -1.8924   14.0513  -11.7355 C   0  0  0  0  0  0  0  0  0  0  0  0
   -2.3932   14.9579  -10.6450 C   0  0  0  0  0  0  0  0  0  0  0  0
   -7.2761   13.0097  -11.8512 H   0  0  0  0  0  0  0  0  0  0  0  0
   -6.0964   12.3014   -9.8693 H   0  0  0  0  0  0  0  0  0  0  0  0
   -8.1772   10.1197  -13.8994 H   0  0  0  0  0  0  0  0  0  0  0  0
   -6.9259   12.2608  -14.0798 H   0  0  0  0  0  0  0  0  0  0  0  0
   -8.7677   10.5596  -11.5832 H   0  0  0  0  0  0  0  0  0  0  0  0
   -8.0380    9.6010   -7.2550 H   0  0  0  0  0  0  0  0  0  0  0  0
   -4.1960   12.8702  -10.8691 H   0  0  0  0  0  0  0  0  0  0  0  0
   -6.7424   12.3154   -6.9139 H   0  0  0  0  0  0  0  0  0  0  0  0
   -4.5075   13.2883   -6.4808 H   0  0  0  0  0  0  0  0  0  0  0  0
   -2.6693    9.7502   -8.0493 H   0  0  0  0  0  0  0  0  0  0  0  0
   -4.8943    8.7808   -8.4911 H   0  0  0  0  0  0  0  0  0  0  0  0
   -2.4097   14.2294   -6.2375 H   0  0  0  0  0  0  0  0  0  0  0  0
   -0.6685   10.5471   -7.5584 H   0  0  0  0  0  0  0  0  0  0  0  0
    1.4941   14.2779   -6.0748 H   0  0  0  0  0  0  0  0  0  0  0  0
    0.2544   15.4366   -6.6639 H   0  0  0  0  0  0  0  0  0  0  0  0
    0.1879   14.8324   -4.9736 H   0  0  0  0  0  0  0  0  0  0  0  0
   -3.5215   15.3697  -12.5204 H   0  0  0  0  0  0  0  0  0  0  0  0
   -1.7095   12.9870  -11.5263 H   0  0  0  0  0  0  0  0  0  0  0  0
   -1.1463   14.4168  -12.4564 H   0  0  0  0  0  0  0  0  0  0  0  0
   -2.0084   15.9854  -10.5669 H   0  0  0  0  0  0  0  0  0  0  0  0
   -2.5716   14.5556   -9.6369 H   0  0  0  0  0  0  0  0  0  0  0  0
  1  2  1  0  0  0  0
  1  4  1  0  0  0  0
  1 12  1  0  0  0  0
  2  6  2  0  0  0  0
  3  4  2  0  0  0  0
  3  5  1  0  0  0  0
  5  6  1  0  0  0  0
  5  9  1  0  0  0  0
  6  7  1  0  0  0  0
  7  8  1  0  0  0  0
  7 10  2  3  0  0  0
  8  9  2  0  0  0  0
 10 14  1  0  0  0  0
 11 12  1  0  0  0  0
 11 26  1  0  0  0  0
 12 13  2  0  0  0  0
 14 15  2  0  0  0  0
 14 19  1  0  0  0  0
 15 16  1  0  0  0  0
 16 17  2  0  0  0  0
 17 18  1  0  0  0  0
 17 20  1  0  0  0  0
 18 19  2  0  0  0  0
 20 21  2  0  0  0  0
 20 24  1  0  0  0  0
 21 22  1  0  0  0  0
 22 23  1  0  0  0  0
 22 25  1  0  0  0  0
 23 24  2  0  0  0  0
 26 27  1  0  0  0  0
 26 28  1  0  0  0  0
 27 28  1  0  0  0  0
  1 29  1  0  0  0  0
  2 30  1  0  0  0  0
  3 31  1  0  0  0  0
  4 32  1  0  0  0  0
  5 33  1  0  0  0  0
 10 34  1  0  0  0  0
 11 35  1  0  0  0  0
 15 36  1  0  0  0  0
 16 37  1  0  0  0  0
 18 38  1  0  0  0  0
 19 39  1  0  0  0  0
 21 40  1  0  0  0  0
 24 41  1  0  0  0  0
 25 42  1  0  0  0  0
 25 43  1  0  0  0  0
 25 44  1  0  0  0  0
 26 45  1  0  0  0  0
 27 46  1  0  0  0  0
 27 47  1  0  0  0  0
 28 48  1  0  0  0  0
 28 49  1  0  0  0  0
M  END
> <Name>
33

> <IC50[uM]>
0.008

$$$$
33
  -OEChem-05192314333D
 Structure written by MMmdl.
 49 53  0     1  0  0  0  0  0999 V2000
   -6.3918   12.3765  -12.0158 C   0  0  0  0  0  0  0  0  0  0  0  0
   -6.5335   11.8201  -10.7317 C   0  0  0  0  0  0  0  0  0  0  0  0
   -7.7273   10.5795  -13.0319 C   0  0  0  0  0  0  0  0  0  0  0  0
   -7.0082   11.7773  -13.1176 C   0  0  0  0  0  0  0  0  0  0  0  0
   -7.8294   10.0116  -11.7546 C   0  0  3  0  0  0  0  0  0  0  0  0
   -7.2533   10.6299  -10.5984 C   0  0  3  0  0  0  0  0  0  0  0  0
   -7.6133    9.7501   -9.5115 C   0  0  0  0  0  0  0  0  0  0  0  0
   -8.2802    8.7340   -9.9853 N   0  0  0  0  0  0  0  0  0  0  0  0
   -8.4149    8.8602  -11.2994 N   0  0  0  0  0  0  0  0  0  0  0  0
   -7.3368    9.8898   -8.0240 C   0  0  0  0  0  0  0  0  0  0  0  0
   -4.3580   13.5891  -11.5451 N   0  0  0  0  0  0  0  0  0  0  0  0
   -5.5327   13.6029  -12.2131 C   0  0  0  0  0  0  0  0  0  0  0  0
   -5.8791   14.5089  -12.9726 O   0  0  0  0  0  0  0  0  0  0  0  0
   -5.9622   10.4818   -7.7351 C   0  0  0  0  0  0  0  0  0  0  0  0
   -5.8525   11.7570   -7.1642 C   0  0  0  0  0  0  0  0  0  0  0  0
   -4.5920   12.3049   -6.9193 C   0  0  0  0  0  0  0  0  0  0  0  0
   -3.4386   11.5825   -7.2408 C   0  0  0  0  0  0  0  0  0  0  0  0
   -3.5579   10.3128   -7.8038 C   0  0  0  0  0  0  0  0  0  0  0  0
   -4.8126    9.7642   -8.0521 C   0  0  0  0  0  0  0  0  0  0  0  0
   -2.0919   12.1643   -6.9829 C   0  0  0  0  0  0  0  0  0  0  0  0
   -1.7362   13.4287   -6.5051 C   0  0  0  0  0  0  0  0  0  0  0  0
   -0.4017   13.4552   -6.4435 N   0  0  0  0  0  0  0  0  0  0  0  0
    0.1850   12.3496   -6.8156 N   0  0  0  0  0  0  0  0  0  0  0  0
   -0.8078   11.5460   -7.1722 C   0  0  0  0  0  0  0  0  0  0  0  0
    0.4351   14.5688   -6.0125 C   0  0  0  0  0  0  0  0  0  0  0  0
   -3.3172   14.5865  -11.7755 C   0  0  0  0  0  0  0  0  0  0  0  0
   -1.8924   14.0513  -11.7355 C   0  0  0  0  0  0  0  0  0  0  0  0
   -2.3932   14.9579  -10.6450 C   0  0  0  0  0  0  0  0  0  0  0  0
   -6.0964   12.3014   -9.8693 H   0  0  0  0  0  0  0  0  0  0  0  0
   -8.1772   10.1197  -13.8994 H   0  0  0  0  0  0  0  0  0  0  0  0
   -6.9259   12.2608  -14.0798 H   0  0  0  0  0  0  0  0  0  0  0  0
   -8.7677   10.5596  -11.5832 H   0  0  0  0  0  0  0  0  0  0  0  0
   -8.1783   11.2044  -10.4423 H   0  0  0  0  0  0  0  0  0  0  0  0
   -8.0380    9.6010   -7.2550 H   0  0  0  0  0  0  0  0  0  0  0  0
   -4.1960   12.8702  -10.8691 H   0  0  0  0  0  0  0  0  0  0  0  0
   -6.7424   12.3154   -6.9139 H   0  0  0  0  0  0  0  0  0  0  0  0
   -4.5075   13.2883   -6.4808 H   0  0  0  0  0  0  0  0  0  0  0  0
   -2.6693    9.7502   -8.0493 H   0  0  0  0  0  0  0  0  0  0  0  0
   -4.8943    8.7808   -8.4911 H   0  0  0  0  0  0  0  0  0  0  0  0
   -2.4097   14.2294   -6.2375 H   0  0  0  0  0  0  0  0  0  0  0  0
   -0.6685   10.5471   -7.5584 H   0  0  0  0  0  0  0  0  0  0  0  0
    1.4941   14.2779   -6.0748 H   0  0  0  0  0  0  0  0  0  0  0  0
    0.2544   15.4366   -6.6639 H   0  0  0  0  0  0  0  0  0  0  0  0
    0.1879   14.8324   -4.9736 H   0  0  0  0  0  0  0  0  0  0  0  0
   -3.5215   15.3697  -12.5204 H   0  0  0  0  0  0  0  0  0  0  0  0
   -1.7095   12.9870  -11.5263 H   0  0  0  0  0  0  0  0  0  0  0  0
   -1.1463   14.4168  -12.4564 H   0  0  0  0  0  0  0  0  0  0  0  0
   -2.0084   15.9854  -10.5669 H   0  0  0  0  0  0  0  0  0  0  0  0
   -2.5716   14.5556   -9.6369 H   0  0  0  0  0  0  0  0  0  0  0  0
  1  2  2  0  0  0  0
  1  4  1  0  0  0  0
  1 12  1  0  0  0  0
  2  6  1  0  0  0  0
  3  4  2  0  0  0  0
  3  5  1  0  0  0  0
  5  6  1  0  0  0  0
  5  9  1  0  0  0  0
  6  7  1  0  0  0  0
  7  8  1  0  0  0  0
  7 10  2  3  0  0  0
  8  9  2  0  0  0  0
 10 14  1  0  0  0  0
 11 12  1  0  0  0  0
 11 26  1  0  0  0  0
 12 13  2  0  0  0  0
 14 15  2  0  0  0  0
 14 19  1  0  0  0  0
 15 16  1  0  0  0  0
 16 17  2  0  0  0  0
 17 18  1  0  0  0  0
 17 20  1  0  0  0  0
 18 19  2  0  0  0  0
 20 21  2  0  0  0  0
 20 24  1  0  0  0  0
 21 22  1  0  0  0  0
 22 23  1  0  0  0  0
 22 25  1  0  0  0  0
 23 24  2  0  0  0  0
 26 27  1  0  0  0  0
 26 28  1  0  0  0  0
 27 28  1  0  0  0  0
  2 29  1  0  0  0  0
  3 30  1  0  0  0  0
  4 31  1  0  0  0  0
  5 32  1  0  0  0  0
  6 33  1  0  0  0  0
 10 34  1  0  0  0  0
 11 35  1  0  0  0  0
 15 36  1  0  0  0  0
 16 37  1  0  0  0  0
 18 38  1  0  0  0  0
 19 39  1  0  0  0  0
 21 40  1  0  0  0  0
 24 41  1  0  0  0  0
 25 42  1  0  0  0  0
 25 43  1  0  0  0  0
 25 44  1  0  0  0  0
 26 45  1  0  0  0  0
 27 46  1  0  0  0  0
 27 47  1  0  0  0  0
 28 48  1  0  0  0  0
 28 49  1  0  0  0  0
M  END
> <Name>
33

> <IC50[uM]>
0.008

$$$$
33
  -OEChem-05192314333D
 Structure written by MMmdl.
 49 53  0     1  0  0  0  0  0999 V2000
   -6.3918   12.3765  -12.0158 C   0  0  0  0  0  0  0  0  0  0  0  0
   -6.5335   11.8201  -10.7317 C   0  0  0  0  0  0  0  0  0  0  0  0
   -7.7273   10.5795  -13.0319 C   0  0  0  0  0  0  0  0  0  0  0  0
   -7.0082   11.7773  -13.1176 C   0  0  0  0  0  0  0  0  0  0  0  0
   -7.8294   10.0116  -11.7546 C   0  0  3  0  0  0  0  0  0  0  0  0
   -7.2533   10.6299  -10.5984 C   0  0  0  0  0  0  0  0  0  0  0  0
   -7.6133    9.7501   -9.5115 C   0  0  0  0  0  0  0  0  0  0  0  0
   -8.2802    8.7340   -9.9853 N   0  0  0  0  0  0  0  0  0  0  0  0
   -8.4149    8.8602  -11.2994 N   0  0  0  0  0  0  0  0  0  0  0  0
   -7.3368    9.8898   -8.0240 C   0  0  0  0  0  0  0  0  0  0  0  0
   -4.3580   13.5891  -11.5451 N   0  0  0  0  0  0  0  0  0  0  0  0
   -5.5327   13.6029  -12.2131 C   0  0  0  0  0  0  0  0  0  0  0  0
   -5.8791   14.5089  -12.9726 O   0  0  0  0  0  0  0  0  0  0  0  0
   -5.9622   10.4818   -7.7351 C   0  0  0  0  0  0  0  0  0  0  0  0
   -5.8525   11.7570   -7.1642 C   0  0  0  0  0  0  0  0  0  0  0  0
   -4.5920   12.3049   -6.9193 C   0  0  0  0  0  0  0  0  0  0  0  0
   -3.4386   11.5825   -7.2408 C   0  0  0  0  0  0  0  0  0  0  0  0
   -3.5579   10.3128   -7.8038 C   0  0  0  0  0  0  0  0  0  0  0  0
   -4.8126    9.7642   -8.0521 C   0  0  0  0  0  0  0  0  0  0  0  0
   -2.0919   12.1643   -6.9829 C   0  0  0  0  0  0  0  0  0  0  0  0
   -1.7362   13.4287   -6.5051 C   0  0  0  0  0  0  0  0  0  0  0  0
   -0.4017   13.4552   -6.4435 N   0  0  0  0  0  0  0  0  0  0  0  0
    0.1850   12.3496   -6.8156 N   0  0  0  0  0  0  0  0  0  0  0  0
   -0.8078   11.5460   -7.1722 C   0  0  0  0  0  0  0  0  0  0  0  0
    0.4351   14.5688   -6.0125 C   0  0  0  0  0  0  0  0  0  0  0  0
   -3.3172   14.5865  -11.7755 C   0  0  0  0  0  0  0  0  0  0  0  0
   -1.8924   14.0513  -11.7355 C   0  0  0  0  0  0  0  0  0  0  0  0
   -2.3932   14.9579  -10.6450 C   0  0  0  0  0  0  0  0  0  0  0  0
   -6.0964   12.3014   -9.8693 H   0  0  0  0  0  0  0  0  0  0  0  0
   -8.7470   10.7729  -13.3962 H   0  0  0  0  0  0  0  0  0  0  0  0
   -7.2367    9.8453  -13.6879 H   0  0  0  0  0  0  0  0  0  0  0  0
   -6.9259   12.2608  -14.0798 H   0  0  0  0  0  0  0  0  0  0  0  0
   -8.7677   10.5596  -11.5832 H   0  0  0  0  0  0  0  0  0  0  0  0
   -8.0380    9.6010   -7.2550 H   0  0  0  0  0  0  0  0  0  0  0  0
   -4.1960   12.8702  -10.8691 H   0  0  0  0  0  0  0  0  0  0  0  0
   -6.7424   12.3154   -6.9139 H   0  0  0  0  0  0  0  0  0  0  0  0
   -4.5075   13.2883   -6.4808 H   0  0  0  0  0  0  0  0  0  0  0  0
   -2.6693    9.7502   -8.0493 H   0  0  0  0  0  0  0  0  0  0  0  0
   -4.8943    8.7808   -8.4911 H   0  0  0  0  0  0  0  0  0  0  0  0
   -2.4097   14.2294   -6.2375 H   0  0  0  0  0  0  0  0  0  0  0  0
   -0.6685   10.5471   -7.5584 H   0  0  0  0  0  0  0  0  0  0  0  0
    1.4941   14.2779   -6.0748 H   0  0  0  0  0  0  0  0  0  0  0  0
    0.2544   15.4366   -6.6639 H   0  0  0  0  0  0  0  0  0  0  0  0
    0.1879   14.8324   -4.9736 H   0  0  0  0  0  0  0  0  0  0  0  0
   -3.5215   15.3697  -12.5204 H   0  0  0  0  0  0  0  0  0  0  0  0
   -1.7095   12.9870  -11.5263 H   0  0  0  0  0  0  0  0  0  0  0  0
   -1.1463   14.4168  -12.4564 H   0  0  0  0  0  0  0  0  0  0  0  0
   -2.0084   15.9854  -10.5669 H   0  0  0  0  0  0  0  0  0  0  0  0
   -2.5716   14.5556   -9.6369 H   0  0  0  0  0  0  0  0  0  0  0  0
  1  2  1  0  0  0  0
  1  4  2  0  0  0  0
  1 12  1  0  0  0  0
  2  6  2  0  0  0  0
  3  4  1  0  0  0  0
  3  5  1  0  0  0  0
  5  6  1  0  0  0  0
  5  9  1  0  0  0  0
  6  7  1  0  0  0  0
  7  8  1  0  0  0  0
  7 10  2  3  0  0  0
  8  9  2  0  0  0  0
 10 14  1  0  0  0  0
 11 12  1  0  0  0  0
 11 26  1  0  0  0  0
 12 13  2  0  0  0  0
 14 15  2  0  0  0  0
 14 19  1  0  0  0  0
 15 16  1  0  0  0  0
 16 17  2  0  0  0  0
 17 18  1  0  0  0  0
 17 20  1  0  0  0  0
 18 19  2  0  0  0  0
 20 21  2  0  0  0  0
 20 24  1  0  0  0  0
 21 22  1  0  0  0  0
 22 23  1  0  0  0  0
 22 25  1  0  0  0  0
 23 24  2  0  0  0  0
 26 27  1  0  0  0  0
 26 28  1  0  0  0  0
 27 28  1  0  0  0  0
  2 29  1  0  0  0  0
  3 30  1  0  0  0  0
  3 31  1  0  0  0  0
  4 32  1  0  0  0  0
  5 33  1  0  0  0  0
 10 34  1  0  0  0  0
 11 35  1  0  0  0  0
 15 36  1  0  0  0  0
 16 37  1  0  0  0  0
 18 38  1  0  0  0  0
 19 39  1  0  0  0  0
 21 40  1  0  0  0  0
 24 41  1  0  0  0  0
 25 42  1  0  0  0  0
 25 43  1  0  0  0  0
 25 44  1  0  0  0  0
 26 45  1  0  0  0  0
 27 46  1  0  0  0  0
 27 47  1  0  0  0  0
 28 48  1  0  0  0  0
 28 49  1  0  0  0  0
M  END
> <Name>
33

> <IC50[uM]>
0.008

$$$$
33
  -OEChem-05192314333D
 Structure written by MMmdl.
 49 53  0     1  0  0  0  0  0999 V2000
   -6.3918   12.3765  -12.0158 C   0  0  0  0  0  0  0  0  0  0  0  0
   -6.5335   11.8201  -10.7317 C   0  0  0  0  0  0  0  0  0  0  0  0
   -7.7273   10.5795  -13.0319 C   0  0  0  0  0  0  0  0  0  0  0  0
   -7.0082   11.7773  -13.1176 C   0  0  0  0  0  0  0  0  0  0  0  0
   -7.8294   10.0116  -11.7546 C   0  0  0  0  0  0  0  0  0  0  0  0
   -7.2533   10.6299  -10.5984 C   0  0  0  0  0  0  0  0  0  0  0  0
   -7.6133    9.7501   -9.5115 C   0  0  0  0  0  0  0  0  0  0  0  0
   -8.2802    8.7340   -9.9853 N   0  0  0  0  0  0  0  0  0  0  0  0
   -8.4149    8.8602  -11.2994 N   0  0  0  0  0  0  0  0  0  0  0  0
   -7.3368    9.8898   -8.0240 C   0  0  0  0  0  0  0  0  0  0  0  0
   -4.3580   13.5891  -11.5451 N   0  0  0  0  0  0  0  0  0  0  0  0
   -5.5327   13.6029  -12.2131 C   0  0  0  0  0  0  0  0  0  0  0  0
   -5.8791   14.5089  -12.9726 O   0  0  0  0  0  0  0  0  0  0  0  0
   -5.9622   10.4818   -7.7351 C   0  0  0  0  0  0  0  0  0  0  0  0
   -5.8525   11.7570   -7.1642 C   0  0  0  0  0  0  0  0  0  0  0  0
   -4.5920   12.3049   -6.9193 C   0  0  0  0  0  0  0  0  0  0  0  0
   -3.4386   11.5825   -7.2408 C   0  0  3  0  0  0  0  0  0  0  0  0
   -3.5579   10.3128   -7.8038 C   0  0  0  0  0  0  0  0  0  0  0  0
   -4.8126    9.7642   -8.0521 C   0  0  0  0  0  0  0  0  0  0  0  0
   -2.0919   12.1643   -6.9829 C   0  0  0  0  0  0  0  0  0  0  0  0
   -1.7362   13.4287   -6.5051 C   0  0  0  0  0  0  0  0  0  0  0  0
   -0.4017   13.4552   -6.4435 N   0  0  0  0  0  0  0  0  0  0  0  0
    0.1850   12.3496   -6.8156 N   0  0  0  0  0  0  0  0  0  0  0  0
   -0.8078   11.5460   -7.1722 C   0  0  0  0  0  0  0  0  0  0  0  0
    0.4351   14.5688   -6.0125 C   0  0  0  0  0  0  0  0  0  0  0  0
   -3.3172   14.5865  -11.7755 C   0  0  0  0  0  0  0  0  0  0  0  0
   -1.8924   14.0513  -11.7355 C   0  0  0  0  0  0  0  0  0  0  0  0
   -2.3932   14.9579  -10.6450 C   0  0  0  0  0  0  0  0  0  0  0  0
   -6.0964   12.3014   -9.8693 H   0  0  0  0  0  0  0  0  0  0  0  0
   -8.1772   10.1197  -13.8994 H   0  0  0  0  0  0  0  0  0  0  0  0
   -6.9259   12.2608  -14.0798 H   0  0  0  0  0  0  0  0  0  0  0  0
   -8.0380    9.6010   -7.2550 H   0  0  0  0  0  0  0  0  0  0  0  0
   -4.1960   12.8702  -10.8691 H   0  0  0  0  0  0  0  0  0  0  0  0
   -6.7424   12.3154   -6.9139 H   0  0  0  0  0  0  0  0  0  0  0  0
   -4.5419   13.2489   -7.4818 H   0  0  0  0  0  0  0  0  0  0  0  0
   -4.5427   12.5174   -5.8412 H   0  0  0  0  0  0  0  0  0  0  0  0
   -3.4391   12.0287   -8.2463 H   0  0  0  0  0  0  0  0  0  0  0  0
   -2.6693    9.7502   -8.0493 H   0  0  0  0  0  0  0  0  0  0  0  0
   -4.8943    8.7808   -8.4911 H   0  0  0  0  0  0  0  0  0  0  0  0
   -2.4097   14.2294   -6.2375 H   0  0  0  0  0  0  0  0  0  0  0  0
   -0.6685   10.5471   -7.5584 H   0  0  0  0  0  0  0  0  0  0  0  0
    1.4941   14.2779   -6.0748 H   0  0  0  0  0  0  0  0  0  0  0  0
    0.2544   15.4366   -6.6639 H   0  0  0  0  0  0  0  0  0  0  0  0
    0.1879   14.8324   -4.9736 H   0  0  0  0  0  0  0  0  0  0  0  0
   -3.5215   15.3697  -12.5204 H   0  0  0  0  0  0  0  0  0  0  0  0
   -1.7095   12.9870  -11.5263 H   0  0  0  0  0  0  0  0  0  0  0  0
   -1.1463   14.4168  -12.4564 H   0  0  0  0  0  0  0  0  0  0  0  0
   -2.0084   15.9854  -10.5669 H   0  0  0  0  0  0  0  0  0  0  0  0
   -2.5716   14.5556   -9.6369 H   0  0  0  0  0  0  0  0  0  0  0  0
  1  2  2  0  0  0  0
  1  4  1  0  0  0  0
  1 12  1  0  0  0  0
  2  6  1  0  0  0  0
  3  4  2  0  0  0  0
  3  5  1  0  0  0  0
  5  6  2  0  0  0  0
  5  9  1  0  0  0  0
  6  7  1  0  0  0  0
  7  8  1  0  0  0  0
  7 10  2  3  0  0  0
  8  9  2  0  0  0  0
 10 14  1  0  0  0  0
 11 12  1  0  0  0  0
 11 26  1  0  0  0  0
 12 13  2  0  0  0  0
 14 15  2  0  0  0  0
 14 19  1  0  0  0  0
 15 16  1  0  0  0  0
 16 17  1  0  0  0  0
 17 18  1  0  0  0  0
 17 20  1  0  0  0  0
 18 19  2  0  0  0  0
 20 21  2  0  0  0  0
 20 24  1  0  0  0  0
 21 22  1  0  0  0  0
 22 23  1  0  0  0  0
 22 25  1  0  0  0  0
 23 24  2  0  0  0  0
 26 27  1  0  0  0  0
 26 28  1  0  0  0  0
 27 28  1  0  0  0  0
  2 29  1  0  0  0  0
  3 30  1  0  0  0  0
  4 31  1  0  0  0  0
 10 32  1  0  0  0  0
 11 33  1  0  0  0  0
 15 34  1  0  0  0  0
 16 35  1  0  0  0  0
 16 36  1  0  0  0  0
 17 37  1  0  0  0  0
 18 38  1  0  0  0  0
 19 39  1  0  0  0  0
 21 40  1  0  0  0  0
 24 41  1  0  0  0  0
 25 42  1  0  0  0  0
 25 43  1  0  0  0  0
 25 44  1  0  0  0  0
 26 45  1  0  0  0  0
 27 46  1  0  0  0  0
 27 47  1  0  0  0  0
 28 48  1  0  0  0  0
 28 49  1  0  0  0  0
M  END
> <Name>
33

> <IC50[uM]>
0.008

$$$$
33
  -OEChem-05192314333D
 Structure written by MMmdl.
 49 53  0     1  0  0  0  0  0999 V2000
   -6.3918   12.3765  -12.0158 C   0  0  3  0  0  0  0  0  0  0  0  0
   -6.5335   11.8201  -10.7317 C   0  0  0  0  0  0  0  0  0  0  0  0
   -7.7273   10.5795  -13.0319 C   0  0  0  0  0  0  0  0  0  0  0  0
   -7.0082   11.7773  -13.1176 C   0  0  0  0  0  0  0  0  0  0  0  0
   -7.8294   10.0116  -11.7546 C   0  0  0  0  0  0  0  0  0  0  0  0
   -7.2533   10.6299  -10.5984 C   0  0  0  0  0  0  0  0  0  0  0  0
   -7.6133    9.7501   -9.5115 C   0  0  0  0  0  0  0  0  0  0  0  0
   -8.2802    8.7340   -9.9853 N   0  0  0  0  0  0  0  0  0  0  0  0
   -8.4149    8.8602  -11.2994 N   0  0  0  0  0  0  0  0  0  0  0  0
   -7.3368    9.8898   -8.0240 C   0  0  0  0  0  0  0  0  0  0  0  0
   -4.3580   13.5891  -11.5451 N   0  0  0  0  0  0  0  0  0  0  0  0
   -5.5327   13.6029  -12.2131 C   0  0  0  0  0  0  0  0  0  0  0  0
   -5.8791   14.5089  -12.9726 O   0  0  0  0  0  0  0  0  0  0  0  0
   -5.9622   10.4818   -7.7351 C   0  0  0  0  0  0  0  0  0  0  0  0
   -5.8525   11.7570   -7.1642 C   0  0  0  0  0  0  0  0  0  0  0  0
   -4.5920   12.3049   -6.9193 C   0  0  0  0  0  0  0  0  0  0  0  0
   -3.4386   11.5825   -7.2408 C   0  0  0  0  0  0  0  0  0  0  0  0
   -3.5579   10.3128   -7.8038 C   0  0  0  0  0  0  0  0  0  0  0  0
   -4.8126    9.7642   -8.0521 C   0  0  0  0  0  0  0  0  0  0  0  0
   -2.0919   12.1643   -6.9829 C   0  0  0  0  0  0  0  0  0  0  0  0
   -1.7362   13.4287   -6.5051 C   0  0  0  0  0  0  0  0  0  0  0  0
   -0.4017   13.4552   -6.4435 N   0  0  0  0  0  0  0  0  0  0  0  0
    0.1850   12.3496   -6.8156 N   0  0  0  0  0  0  0  0  0  0  0  0
   -0.8078   11.5460   -7.1722 C   0  0  0  0  0  0  0  0  0  0  0  0
    0.4351   14.5688   -6.0125 C   0  0  0  0  0  0  0  0  0  0  0  0
   -3.3172   14.5865  -11.7755 C   0  0  0  0  0  0  0  0  0  0  0  0
   -1.8924   14.0513  -11.7355 C   0  0  0  0  0  0  0  0  0  0  0  0
   -2.3932   14.9579  -10.6450 C   0  0  0  0  0  0  0  0  0  0  0  0
   -7.2761   13.0097  -11.8512 H   0  0  0  0  0  0  0  0  0  0  0  0
   -6.0964   12.3014   -9.8693 H   0  0  0  0  0  0  0  0  0  0  0  0
   -8.1772   10.1197  -13.8994 H   0  0  0  0  0  0  0  0  0  0  0  0
   -7.7108   12.5246  -13.5150 H   0  0  0  0  0  0  0  0  0  0  0  0
   -6.2088   11.5987  -13.8518 H   0  0  0  0  0  0  0  0  0  0  0  0
   -8.0380    9.6010   -7.2550 H   0  0  0  0  0  0  0  0  0  0  0  0
   -4.1960   12.8702  -10.8691 H   0  0  0  0  0  0  0  0  0  0  0  0
   -6.7424   12.3154   -6.9139 H   0  0  0  0  0  0  0  0  0  0  0  0
   -4.5075   13.2883   -6.4808 H   0  0  0  0  0  0  0  0  0  0  0  0
   -2.6693    9.7502   -8.0493 H   0  0  0  0  0  0  0  0  0  0  0  0
   -4.8943    8.7808   -8.4911 H   0  0  0  0  0  0  0  0  0  0  0  0
   -2.4097   14.2294   -6.2375 H   0  0  0  0  0  0  0  0  0  0  0  0
   -0.6685   10.5471   -7.5584 H   0  0  0  0  0  0  0  0  0  0  0  0
    1.4941   14.2779   -6.0748 H   0  0  0  0  0  0  0  0  0  0  0  0
    0.2544   15.4366   -6.6639 H   0  0  0  0  0  0  0  0  0  0  0  0
    0.1879   14.8324   -4.9736 H   0  0  0  0  0  0  0  0  0  0  0  0
   -3.5215   15.3697  -12.5204 H   0  0  0  0  0  0  0  0  0  0  0  0
   -1.7095   12.9870  -11.5263 H   0  0  0  0  0  0  0  0  0  0  0  0
   -1.1463   14.4168  -12.4564 H   0  0  0  0  0  0  0  0  0  0  0  0
   -2.0084   15.9854  -10.5669 H   0  0  0  0  0  0  0  0  0  0  0  0
   -2.5716   14.5556   -9.6369 H   0  0  0  0  0  0  0  0  0  0  0  0
  1  2  1  0  0  0  0
  1  4  1  0  0  0  0
  1 12  1  0  0  0  0
  2  6  2  0  0  0  0
  3  4  1  0  0  0  0
  3  5  2  0  0  0  0
  5  6  1  0  0  0  0
  5  9  1  0  0  0  0
  6  7  1  0  0  0  0
  7  8  1  0  0  0  0
  7 10  2  3  0  0  0
  8  9  2  0  0  0  0
 10 14  1  0  0  0  0
 11 12  1  0  0  0  0
 11 26  1  0  0  0  0
 12 13  2  0  0  0  0
 14 15  2  0  0  0  0
 14 19  1  0  0  0  0
 15 16  1  0  0  0  0
 16 17  2  0  0  0  0
 17 18  1  0  0  0  0
 17 20  1  0  0  0  0
 18 19  2  0  0  0  0
 20 21  2  0  0  0  0
 20 24  1  0  0  0  0
 21 22  1  0  0  0  0
 22 23  1  0  0  0  0
 22 25  1  0  0  0  0
 23 24  2  0  0  0  0
 26 27  1  0  0  0  0
 26 28  1  0  0  0  0
 27 28  1  0  0  0  0
  1 29  1  0  0  0  0
  2 30  1  0  0  0  0
  3 31  1  0  0  0  0
  4 32  1  0  0  0  0
  4 33  1  0  0  0  0
 10 34  1  0  0  0  0
 11 35  1  0  0  0  0
 15 36  1  0  0  0  0
 16 37  1  0  0  0  0
 18 38  1  0  0  0  0
 19 39  1  0  0  0  0
 21 40  1  0  0  0  0
 24 41  1  0  0  0  0
 25 42  1  0  0  0  0
 25 43  1  0  0  0  0
 25 44  1  0  0  0  0
 26 45  1  0  0  0  0
 27 46  1  0  0  0  0
 27 47  1  0  0  0  0
 28 48  1  0  0  0  0
 28 49  1  0  0  0  0
M  END
> <Name>
33

> <IC50[uM]>
0.008

$$$$
33
  -OEChem-05192314333D
 Structure written by MMmdl.
 49 53  0     1  0  0  0  0  0999 V2000
   -6.3918   12.3765  -12.0158 C   0  0  0  0  0  0  0  0  0  0  0  0
   -6.5335   11.8201  -10.7317 C   0  0  0  0  0  0  0  0  0  0  0  0
   -7.7273   10.5795  -13.0319 C   0  0  0  0  0  0  0  0  0  0  0  0
   -7.0082   11.7773  -13.1176 C   0  0  0  0  0  0  0  0  0  0  0  0
   -7.8294   10.0116  -11.7546 C   0  0  0  0  0  0  0  0  0  0  0  0
   -7.2533   10.6299  -10.5984 C   0  0  3  0  0  0  0  0  0  0  0  0
   -7.6133    9.7501   -9.5115 C   0  0  0  0  0  0  0  0  0  0  0  0
   -8.2802    8.7340   -9.9853 N   0  0  0  0  0  0  0  0  0  0  0  0
   -8.4149    8.8602  -11.2994 N   0  0  0  0  0  0  0  0  0  0  0  0
   -7.3368    9.8898   -8.0240 C   0  0  0  0  0  0  0  0  0  0  0  0
   -4.3580   13.5891  -11.5451 N   0  0  0  0  0  0  0  0  0  0  0  0
   -5.5327   13.6029  -12.2131 C   0  0  0  0  0  0  0  0  0  0  0  0
   -5.8791   14.5089  -12.9726 O   0  0  0  0  0  0  0  0  0  0  0  0
   -5.9622   10.4818   -7.7351 C   0  0  0  0  0  0  0  0  0  0  0  0
   -5.8525   11.7570   -7.1642 C   0  0  0  0  0  0  0  0  0  0  0  0
   -4.5920   12.3049   -6.9193 C   0  0  0  0  0  0  0  0  0  0  0  0
   -3.4386   11.5825   -7.2408 C   0  0  0  0  0  0  0  0  0  0  0  0
   -3.5579   10.3128   -7.8038 C   0  0  0  0  0  0  0  0  0  0  0  0
   -4.8126    9.7642   -8.0521 C   0  0  0  0  0  0  0  0  0  0  0  0
   -2.0919   12.1643   -6.9829 C   0  0  0  0  0  0  0  0  0  0  0  0
   -1.7362   13.4287   -6.5051 C   0  0  0  0  0  0  0  0  0  0  0  0
   -0.4017   13.4552   -6.4435 N   0  0  0  0  0  0  0  0  0  0  0  0
    0.1850   12.3496   -6.8156 N   0  0  0  0  0  0  0  0  0  0  0  0
   -0.8078   11.5460   -7.1722 C   0  0  0  0  0  0  0  0  0  0  0  0
    0.4351   14.5688   -6.0125 C   0  0  0  0  0  0  0  0  0  0  0  0
   -3.3172   14.5865  -11.7755 C   0  0  0  0  0  0  0  0  0  0  0  0
   -1.8924   14.0513  -11.7355 C   0  0  0  0  0  0  0  0  0  0  0  0
   -2.3932   14.9579  -10.6450 C   0  0  0  0  0  0  0  0  0  0  0  0
   -6.0964   12.3014   -9.8693 H   0  0  0  0  0  0  0  0  0  0  0  0
   -8.1772   10.1197  -13.8994 H   0  0  0  0  0  0  0  0  0  0  0  0
   -7.7108   12.5246  -13.5150 H   0  0  0  0  0  0  0  0  0  0  0  0
   -6.2088   11.5987  -13.8518 H   0  0  0  0  0  0  0  0  0  0  0  0
   -8.1783   11.2044  -10.4423 H   0  0  0  0  0  0  0  0  0  0  0  0
   -8.0380    9.6010   -7.2550 H   0  0  0  0  0  0  0  0  0  0  0  0
   -4.1960   12.8702  -10.8691 H   0  0  0  0  0  0  0  0  0  0  0  0
   -6.7424   12.3154   -6.9139 H   0  0  0  0  0  0  0  0  0  0  0  0
   -4.5075   13.2883   -6.4808 H   0  0  0  0  0  0  0  0  0  0  0  0
   -2.6693    9.7502   -8.0493 H   0  0  0  0  0  0  0  0  0  0  0  0
   -4.8943    8.7808   -8.4911 H   0  0  0  0  0  0  0  0  0  0  0  0
   -2.4097   14.2294   -6.2375 H   0  0  0  0  0  0  0  0  0  0  0  0
   -0.6685   10.5471   -7.5584 H   0  0  0  0  0  0  0  0  0  0  0  0
    1.4941   14.2779   -6.0748 H   0  0  0  0  0  0  0  0  0  0  0  0
    0.2544   15.4366   -6.6639 H   0  0  0  0  0  0  0  0  0  0  0  0
    0.1879   14.8324   -4.9736 H   0  0  0  0  0  0  0  0  0  0  0  0
   -3.5215   15.3697  -12.5204 H   0  0  0  0  0  0  0  0  0  0  0  0
   -1.7095   12.9870  -11.5263 H   0  0  0  0  0  0  0  0  0  0  0  0
   -1.1463   14.4168  -12.4564 H   0  0  0  0  0  0  0  0  0  0  0  0
   -2.0084   15.9854  -10.5669 H   0  0  0  0  0  0  0  0  0  0  0  0
   -2.5716   14.5556   -9.6369 H   0  0  0  0  0  0  0  0  0  0  0  0
  1  2  2  0  0  0  0
  1  4  1  0  0  0  0
  1 12  1  0  0  0  0
  2  6  1  0  0  0  0
  3  4  1  0  0  0  0
  3  5  2  0  0  0  0
  5  6  1  0  0  0  0
  5  9  1  0  0  0  0
  6  7  1  0  0  0  0
  7  8  1  0  0  0  0
  7 10  2  3  0  0  0
  8  9  2  0  0  0  0
 10 14  1  0  0  0  0
 11 12  1  0  0  0  0
 11 26  1  0  0  0  0
 12 13  2  0  0  0  0
 14 15  2  0  0  0  0
 14 19  1  0  0  0  0
 15 16  1  0  0  0  0
 16 17  2  0  0  0  0
 17 18  1  0  0  0  0
 17 20  1  0  0  0  0
 18 19  2  0  0  0  0
 20 21  2  0  0  0  0
 20 24  1  0  0  0  0
 21 22  1  0  0  0  0
 22 23  1  0  0  0  0
 22 25  1  0  0  0  0
 23 24  2  0  0  0  0
 26 27  1  0  0  0  0
 26 28  1  0  0  0  0
 27 28  1  0  0  0  0
  2 29  1  0  0  0  0
  3 30  1  0  0  0  0
  4 31  1  0  0  0  0
  4 32  1  0  0  0  0
  6 33  1  0  0  0  0
 10 34  1  0  0  0  0
 11 35  1  0  0  0  0
 15 36  1  0  0  0  0
 16 37  1  0  0  0  0
 18 38  1  0  0  0  0
 19 39  1  0  0  0  0
 21 40  1  0  0  0  0
 24 41  1  0  0  0  0
 25 42  1  0  0  0  0
 25 43  1  0  0  0  0
 25 44  1  0  0  0  0
 26 45  1  0  0  0  0
 27 46  1  0  0  0  0
 27 47  1  0  0  0  0
 28 48  1  0  0  0  0
 28 49  1  0  0  0  0
M  END
> <Name>
33

> <IC50[uM]>
0.008

$$$$
33
  -OEChem-05192314333D
 Structure written by MMmdl.
 49 53  0     0  0  0  0  0  0999 V2000
   -6.3918   12.3765  -12.0158 C   0  0  0  0  0  0  0  0  0  0  0  0
   -6.5335   11.8201  -10.7317 C   0  0  0  0  0  0  0  0  0  0  0  0
   -7.7273   10.5795  -13.0319 C   0  0  0  0  0  0  0  0  0  0  0  0
   -7.0082   11.7773  -13.1176 C   0  0  0  0  0  0  0  0  0  0  0  0
   -7.8294   10.0116  -11.7546 C   0  0  0  0  0  0  0  0  0  0  0  0
   -7.2533   10.6299  -10.5984 C   0  0  0  0  0  0  0  0  0  0  0  0
   -7.6133    9.7501   -9.5115 C   0  0  0  0  0  0  0  0  0  0  0  0
   -8.2802    8.7340   -9.9853 N   0  0  0  0  0  0  0  0  0  0  0  0
   -8.4149    8.8602  -11.2994 N   0  0  0  0  0  0  0  0  0  0  0  0
   -7.3368    9.8898   -8.0240 C   0  0  0  0  0  0  0  0  0  0  0  0
   -4.3580   13.5891  -11.5451 N   0  0  0  0  0  0  0  0  0  0  0  0
   -5.5327   13.6029  -12.2131 C   0  0  0  0  0  0  0  0  0  0  0  0
   -5.8791   14.5089  -12.9726 O   0  0  0  0  0  0  0  0  0  0  0  0
   -5.9622   10.4818   -7.7351 C   0  0  0  0  0  0  0  0  0  0  0  0
   -5.8525   11.7570   -7.1642 C   0  0  0  0  0  0  0  0  0  0  0  0
   -4.5920   12.3049   -6.9193 C   0  0  0  0  0  0  0  0  0  0  0  0
   -3.4386   11.5825   -7.2408 C   0  0  0  0  0  0  0  0  0  0  0  0
   -3.5579   10.3128   -7.8038 C   0  0  0  0  0  0  0  0  0  0  0  0
   -4.8126    9.7642   -8.0521 C   0  0  0  0  0  0  0  0  0  0  0  0
   -2.0919   12.1643   -6.9829 C   0  0  0  0  0  0  0  0  0  0  0  0
   -1.7362   13.4287   -6.5051 C   0  0  0  0  0  0  0  0  0  0  0  0
   -0.4017   13.4552   -6.4435 N   0  0  0  0  0  0  0  0  0  0  0  0
    0.1850   12.3496   -6.8156 N   0  0  0  0  0  0  0  0  0  0  0  0
   -0.8078   11.5460   -7.1722 C   0  0  0  0  0  0  0  0  0  0  0  0
    0.4351   14.5688   -6.0125 C   0  0  0  0  0  0  0  0  0  0  0  0
   -3.3172   14.5865  -11.7755 C   0  0  0  0  0  0  0  0  0  0  0  0
   -1.8924   14.0513  -11.7355 C   0  0  0  0  0  0  0  0  0  0  0  0
   -2.3932   14.9579  -10.6450 C   0  0  0  0  0  0  0  0  0  0  0  0
   -6.0964   12.3014   -9.8693 H   0  0  0  0  0  0  0  0  0  0  0  0
   -8.7470   10.7729  -13.3962 H   0  0  0  0  0  0  0  0  0  0  0  0
   -7.2367    9.8453  -13.6879 H   0  0  0  0  0  0  0  0  0  0  0  0
   -7.7108   12.5246  -13.5150 H   0  0  0  0  0  0  0  0  0  0  0  0
   -6.2088   11.5987  -13.8518 H   0  0  0  0  0  0  0  0  0  0  0  0
   -8.0380    9.6010   -7.2550 H   0  0  0  0  0  0  0  0  0  0  0  0
   -4.1960   12.8702  -10.8691 H   0  0  0  0  0  0  0  0  0  0  0  0
   -6.7424   12.3154   -6.9139 H   0  0  0  0  0  0  0  0  0  0  0  0
   -4.5075   13.2883   -6.4808 H   0  0  0  0  0  0  0  0  0  0  0  0
   -2.6693    9.7502   -8.0493 H   0  0  0  0  0  0  0  0  0  0  0  0
   -4.8943    8.7808   -8.4911 H   0  0  0  0  0  0  0  0  0  0  0  0
   -2.4097   14.2294   -6.2375 H   0  0  0  0  0  0  0  0  0  0  0  0
   -0.6685   10.5471   -7.5584 H   0  0  0  0  0  0  0  0  0  0  0  0
    1.4941   14.2779   -6.0748 H   0  0  0  0  0  0  0  0  0  0  0  0
    0.2544   15.4366   -6.6639 H   0  0  0  0  0  0  0  0  0  0  0  0
    0.1879   14.8324   -4.9736 H   0  0  0  0  0  0  0  0  0  0  0  0
   -3.5215   15.3697  -12.5204 H   0  0  0  0  0  0  0  0  0  0  0  0
   -1.7095   12.9870  -11.5263 H   0  0  0  0  0  0  0  0  0  0  0  0
   -1.1463   14.4168  -12.4564 H   0  0  0  0  0  0  0  0  0  0  0  0
   -2.0084   15.9854  -10.5669 H   0  0  0  0  0  0  0  0  0  0  0  0
   -2.5716   14.5556   -9.6369 H   0  0  0  0  0  0  0  0  0  0  0  0
  1  2  2  0  0  0  0
  1  4  1  0  0  0  0
  1 12  1  0  0  0  0
  2  6  1  0  0  0  0
  3  4  1  0  0  0  0
  3  5  1  0  0  0  0
  5  6  2  0  0  0  0
  5  9  1  0  0  0  0
  6  7  1  0  0  0  0
  7  8  1  0  0  0  0
  7 10  2  3  0  0  0
  8  9  2  0  0  0  0
 10 14  1  0  0  0  0
 11 12  1  0  0  0  0
 11 26  1  0  0  0  0
 12 13  2  0  0  0  0
 14 15  2  0  0  0  0
 14 19  1  0  0  0  0
 15 16  1  0  0  0  0
 16 17  2  0  0  0  0
 17 18  1  0  0  0  0
 17 20  1  0  0  0  0
 18 19  2  0  0  0  0
 20 21  2  0  0  0  0
 20 24  1  0  0  0  0
 21 22  1  0  0  0  0
 22 23  1  0  0  0  0
 22 25  1  0  0  0  0
 23 24  2  0  0  0  0
 26 27  1  0  0  0  0
 26 28  1  0  0  0  0
 27 28  1  0  0  0  0
  2 29  1  0  0  0  0
  3 30  1  0  0  0  0
  3 31  1  0  0  0  0
  4 32  1  0  0  0  0
  4 33  1  0  0  0  0
 10 34  1  0  0  0  0
 11 35  1  0  0  0  0
 15 36  1  0  0  0  0
 16 37  1  0  0  0  0
 18 38  1  0  0  0  0
 19 39  1  0  0  0  0
 21 40  1  0  0  0  0
 24 41  1  0  0  0  0
 25 42  1  0  0  0  0
 25 43  1  0  0  0  0
 25 44  1  0  0  0  0
 26 45  1  0  0  0  0
 27 46  1  0  0  0  0
 27 47  1  0  0  0  0
 28 48  1  0  0  0  0
 28 49  1  0  0  0  0
M  END
> <Name>
33

> <IC50[uM]>
0.008

$$$$
33
  -OEChem-05192314333D
 Structure written by MMmdl.
 49 53  0     1  0  0  0  0  0999 V2000
   -6.3918   12.3765  -12.0158 C   0  0  0  0  0  0  0  0  0  0  0  0
   -6.5335   11.8201  -10.7317 C   0  0  0  0  0  0  0  0  0  0  0  0
   -7.7273   10.5795  -13.0319 C   0  0  0  0  0  0  0  0  0  0  0  0
   -7.0082   11.7773  -13.1176 C   0  0  0  0  0  0  0  0  0  0  0  0
   -7.8294   10.0116  -11.7546 C   0  0  0  0  0  0  0  0  0  0  0  0
   -7.2533   10.6299  -10.5984 C   0  0  0  0  0  0  0  0  0  0  0  0
   -7.6133    9.7501   -9.5115 C   0  0  0  0  0  0  0  0  0  0  0  0
   -8.2802    8.7340   -9.9853 N   0  0  0  0  0  0  0  0  0  0  0  0
   -8.4149    8.8602  -11.2994 N   0  0  0  0  0  0  0  0  0  0  0  0
   -7.3368    9.8898   -8.0240 C   0  0  0  0  0  0  0  0  0  0  0  0
   -4.3580   13.5891  -11.5451 N   0  0  0  0  0  0  0  0  0  0  0  0
   -5.5327   13.6029  -12.2131 C   0  0  0  0  0  0  0  0  0  0  0  0
   -5.8791   14.5089  -12.9726 O   0  0  0  0  0  0  0  0  0  0  0  0
   -5.9622   10.4818   -7.7351 C   0  0  3  0  0  0  0  0  0  0  0  0
   -5.8525   11.7570   -7.1642 C   0  0  0  0  0  0  0  0  0  0  0  0
   -4.5920   12.3049   -6.9193 C   0  0  0  0  0  0  0  0  0  0  0  0
   -3.4386   11.5825   -7.2408 C   0  0  0  0  0  0  0  0  0  0  0  0
   -3.5579   10.3128   -7.8038 C   0  0  0  0  0  0  0  0  0  0  0  0
   -4.8126    9.7642   -8.0521 C   0  0  0  0  0  0  0  0  0  0  0  0
   -2.0919   12.1643   -6.9829 C   0  0  0  0  0  0  0  0  0  0  0  0
   -1.7362   13.4287   -6.5051 C   0  0  0  0  0  0  0  0  0  0  0  0
   -0.4017   13.4552   -6.4435 N   0  0  0  0  0  0  0  0  0  0  0  0
    0.1850   12.3496   -6.8156 N   0  0  0  0  0  0  0  0  0  0  0  0
   -0.8078   11.5460   -7.1722 C   0  0  0  0  0  0  0  0  0  0  0  0
    0.4351   14.5688   -6.0125 C   0  0  0  0  0  0  0  0  0  0  0  0
   -3.3172   14.5865  -11.7755 C   0  0  0  0  0  0  0  0  0  0  0  0
   -1.8924   14.0513  -11.7355 C   0  0  0  0  0  0  0  0  0  0  0  0
   -2.3932   14.9579  -10.6450 C   0  0  0  0  0  0  0  0  0  0  0  0
   -6.0964   12.3014   -9.8693 H   0  0  0  0  0  0  0  0  0  0  0  0
   -8.1772   10.1197  -13.8994 H   0  0  0  0  0  0  0  0  0  0  0  0
   -6.9259   12.2608  -14.0798 H   0  0  0  0  0  0  0  0  0  0  0  0
   -8.0380    9.6010   -7.2550 H   0  0  0  0  0  0  0  0  0  0  0  0
   -4.1960   12.8702  -10.8691 H   0  0  0  0  0  0  0  0  0  0  0  0
   -5.9736   10.0292   -6.7326 H   0  0  0  0  0  0  0  0  0  0  0  0
   -6.7424   12.3154   -6.9139 H   0  0  0  0  0  0  0  0  0  0  0  0
   -4.5075   13.2883   -6.4808 H   0  0  0  0  0  0  0  0  0  0  0  0
   -2.6693    9.7502   -8.0493 H   0  0  0  0  0  0  0  0  0  0  0  0
   -4.8629    8.8200   -7.4901 H   0  0  0  0  0  0  0  0  0  0  0  0
   -4.8583    9.5519   -9.1305 H   0  0  0  0  0  0  0  0  0  0  0  0
   -2.4097   14.2294   -6.2375 H   0  0  0  0  0  0  0  0  0  0  0  0
   -0.6685   10.5471   -7.5584 H   0  0  0  0  0  0  0  0  0  0  0  0
    1.4941   14.2779   -6.0748 H   0  0  0  0  0  0  0  0  0  0  0  0
    0.2544   15.4366   -6.6639 H   0  0  0  0  0  0  0  0  0  0  0  0
    0.1879   14.8324   -4.9736 H   0  0  0  0  0  0  0  0  0  0  0  0
   -3.5215   15.3697  -12.5204 H   0  0  0  0  0  0  0  0  0  0  0  0
   -1.7095   12.9870  -11.5263 H   0  0  0  0  0  0  0  0  0  0  0  0
   -1.1463   14.4168  -12.4564 H   0  0  0  0  0  0  0  0  0  0  0  0
   -2.0084   15.9854  -10.5669 H   0  0  0  0  0  0  0  0  0  0  0  0
   -2.5716   14.5556   -9.6369 H   0  0  0  0  0  0  0  0  0  0  0  0
  1  2  2  0  0  0  0
  1  4  1  0  0  0  0
  1 12  1  0  0  0  0
  2  6  1  0  0  0  0
  3  4  2  0  0  0  0
  3  5  1  0  0  0  0
  5  6  2  0  0  0  0
  5  9  1  0  0  0  0
  6  7  1  0  0  0  0
  7  8  1  0  0  0  0
  7 10  2  3  0  0  0
  8  9  2  0  0  0  0
 10 14  1  0  0  0  0
 11 12  1  0  0  0  0
 11 26  1  0  0  0  0
 12 13  2  0  0  0  0
 14 15  1  0  0  0  0
 14 19  1  0  0  0  0
 15 16  2  0  0  0  0
 16 17  1  0  0  0  0
 17 18  2  0  0  0  0
 17 20  1  0  0  0  0
 18 19  1  0  0  0  0
 20 21  2  0  0  0  0
 20 24  1  0  0  0  0
 21 22  1  0  0  0  0
 22 23  1  0  0  0  0
 22 25  1  0  0  0  0
 23 24  2  0  0  0  0
 26 27  1  0  0  0  0
 26 28  1  0  0  0  0
 27 28  1  0  0  0  0
  2 29  1  0  0  0  0
  3 30  1  0  0  0  0
  4 31  1  0  0  0  0
 10 32  1  0  0  0  0
 11 33  1  0  0  0  0
 14 34  1  0  0  0  0
 15 35  1  0  0  0  0
 16 36  1  0  0  0  0
 18 37  1  0  0  0  0
 19 38  1  0  0  0  0
 19 39  1  0  0  0  0
 21 40  1  0  0  0  0
 24 41  1  0  0  0  0
 25 42  1  0  0  0  0
 25 43  1  0  0  0  0
 25 44  1  0  0  0  0
 26 45  1  0  0  0  0
 27 46  1  0  0  0  0
 27 47  1  0  0  0  0
 28 48  1  0  0  0  0
 28 49  1  0  0  0  0
M  END
> <Name>
33

> <IC50[uM]>
0.008

$$$$
33
  -OEChem-05192314333D
 Structure written by MMmdl.
 49 53  0     1  0  0  0  0  0999 V2000
   -6.3918   12.3765  -12.0158 C   0  0  0  0  0  0  0  0  0  0  0  0
   -6.5335   11.8201  -10.7317 C   0  0  0  0  0  0  0  0  0  0  0  0
   -7.7273   10.5795  -13.0319 C   0  0  0  0  0  0  0  0  0  0  0  0
   -7.0082   11.7773  -13.1176 C   0  0  0  0  0  0  0  0  0  0  0  0
   -7.8294   10.0116  -11.7546 C   0  0  0  0  0  0  0  0  0  0  0  0
   -7.2533   10.6299  -10.5984 C   0  0  0  0  0  0  0  0  0  0  0  0
   -7.6133    9.7501   -9.5115 C   0  0  3  0  0  0  0  0  0  0  0  0
   -8.2802    8.7340   -9.9853 N   0  0  0  0  0  0  0  0  0  0  0  0
   -8.4149    8.8602  -11.2994 N   0  0  0  0  0  0  0  0  0  0  0  0
   -7.3368    9.8898   -8.0240 C   0  0  0  0  0  0  0  0  0  0  0  0
   -4.3580   13.5891  -11.5451 N   0  0  0  0  0  0  0  0  0  0  0  0
   -5.5327   13.6029  -12.2131 C   0  0  0  0  0  0  0  0  0  0  0  0
   -5.8791   14.5089  -12.9726 O   0  0  0  0  0  0  0  0  0  0  0  0
   -5.9622   10.4818   -7.7351 C   0  0  0  0  0  0  0  0  0  0  0  0
   -5.8525   11.7570   -7.1642 C   0  0  0  0  0  0  0  0  0  0  0  0
   -4.5920   12.3049   -6.9193 C   0  0  0  0  0  0  0  0  0  0  0  0
   -3.4386   11.5825   -7.2408 C   0  0  0  0  0  0  0  0  0  0  0  0
   -3.5579   10.3128   -7.8038 C   0  0  0  0  0  0  0  0  0  0  0  0
   -4.8126    9.7642   -8.0521 C   0  0  0  0  0  0  0  0  0  0  0  0
   -2.0919   12.1643   -6.9829 C   0  0  0  0  0  0  0  0  0  0  0  0
   -1.7362   13.4287   -6.5051 C   0  0  0  0  0  0  0  0  0  0  0  0
   -0.4017   13.4552   -6.4435 N   0  0  0  0  0  0  0  0  0  0  0  0
    0.1850   12.3496   -6.8156 N   0  0  0  0  0  0  0  0  0  0  0  0
   -0.8078   11.5460   -7.1722 C   0  0  0  0  0  0  0  0  0  0  0  0
    0.4351   14.5688   -6.0125 C   0  0  0  0  0  0  0  0  0  0  0  0
   -3.3172   14.5865  -11.7755 C   0  0  0  0  0  0  0  0  0  0  0  0
   -1.8924   14.0513  -11.7355 C   0  0  0  0  0  0  0  0  0  0  0  0
   -2.3932   14.9579  -10.6450 C   0  0  0  0  0  0  0  0  0  0  0  0
   -6.0964   12.3014   -9.8693 H   0  0  0  0  0  0  0  0  0  0  0  0
   -8.1772   10.1197  -13.8994 H   0  0  0  0  0  0  0  0  0  0  0  0
   -6.9259   12.2608  -14.0798 H   0  0  0  0  0  0  0  0  0  0  0  0
   -6.6705    9.1980   -9.6396 H   0  0  0  0  0  0  0  0  0  0  0  0
   -8.0380    9.6010   -7.2550 H   0  0  0  0  0  0  0  0  0  0  0  0
   -4.1960   12.8702  -10.8691 H   0  0  0  0  0  0  0  0  0  0  0  0
   -6.7424   12.3154   -6.9139 H   0  0  0  0  0  0  0  0  0  0  0  0
   -4.5075   13.2883   -6.4808 H   0  0  0  0  0  0  0  0  0  0  0  0
   -2.6693    9.7502   -8.0493 H   0  0  0  0  0  0  0  0  0  0  0  0
   -4.8629    8.8200   -7.4901 H   0  0  0  0  0  0  0  0  0  0  0  0
   -4.8583    9.5519   -9.1305 H   0  0  0  0  0  0  0  0  0  0  0  0
   -2.4097   14.2294   -6.2375 H   0  0  0  0  0  0  0  0  0  0  0  0
   -0.6685   10.5471   -7.5584 H   0  0  0  0  0  0  0  0  0  0  0  0
    1.4941   14.2779   -6.0748 H   0  0  0  0  0  0  0  0  0  0  0  0
    0.2544   15.4366   -6.6639 H   0  0  0  0  0  0  0  0  0  0  0  0
    0.1879   14.8324   -4.9736 H   0  0  0  0  0  0  0  0  0  0  0  0
   -3.5215   15.3697  -12.5204 H   0  0  0  0  0  0  0  0  0  0  0  0
   -1.7095   12.9870  -11.5263 H   0  0  0  0  0  0  0  0  0  0  0  0
   -1.1463   14.4168  -12.4564 H   0  0  0  0  0  0  0  0  0  0  0  0
   -2.0084   15.9854  -10.5669 H   0  0  0  0  0  0  0  0  0  0  0  0
   -2.5716   14.5556   -9.6369 H   0  0  0  0  0  0  0  0  0  0  0  0
  1  2  2  0  0  0  0
  1  4  1  0  0  0  0
  1 12  1  0  0  0  0
  2  6  1  0  0  0  0
  3  4  2  0  0  0  0
  3  5  1  0  0  0  0
  5  6  2  0  0  0  0
  5  9  1  0  0  0  0
  6  7  1  0  0  0  0
  7  8  1  0  0  0  0
  7 10  1  0  0  0  0
  8  9  2  0  0  0  0
 10 14  2  3  0  0  0
 11 12  1  0  0  0  0
 11 26  1  0  0  0  0
 12 13  2  0  0  0  0
 14 15  1  0  0  0  0
 14 19  1  0  0  0  0
 15 16  2  0  0  0  0
 16 17  1  0  0  0  0
 17 18  2  0  0  0  0
 17 20  1  0  0  0  0
 18 19  1  0  0  0  0
 20 21  2  0  0  0  0
 20 24  1  0  0  0  0
 21 22  1  0  0  0  0
 22 23  1  0  0  0  0
 22 25  1  0  0  0  0
 23 24  2  0  0  0  0
 26 27  1  0  0  0  0
 26 28  1  0  0  0  0
 27 28  1  0  0  0  0
  2 29  1  0  0  0  0
  3 30  1  0  0  0  0
  4 31  1  0  0  0  0
  7 32  1  0  0  0  0
 10 33  1  0  0  0  0
 11 34  1  0  0  0  0
 15 35  1  0  0  0  0
 16 36  1  0  0  0  0
 18 37  1  0  0  0  0
 19 38  1  0  0  0  0
 19 39  1  0  0  0  0
 21 40  1  0  0  0  0
 24 41  1  0  0  0  0
 25 42  1  0  0  0  0
 25 43  1  0  0  0  0
 25 44  1  0  0  0  0
 26 45  1  0  0  0  0
 27 46  1  0  0  0  0
 27 47  1  0  0  0  0
 28 48  1  0  0  0  0
 28 49  1  0  0  0  0
M  END
> <Name>
33

> <IC50[uM]>
0.008

$$$$
33
  -OEChem-05192314333D
 Structure written by MMmdl.
 49 53  0     0  0  0  0  0  0999 V2000
   -6.3918   12.3765  -12.0158 C   0  0  0  0  0  0  0  0  0  0  0  0
   -6.5335   11.8201  -10.7317 C   0  0  0  0  0  0  0  0  0  0  0  0
   -7.7273   10.5795  -13.0319 C   0  0  0  0  0  0  0  0  0  0  0  0
   -7.0082   11.7773  -13.1176 C   0  0  0  0  0  0  0  0  0  0  0  0
   -7.8294   10.0116  -11.7546 C   0  0  0  0  0  0  0  0  0  0  0  0
   -7.2533   10.6299  -10.5984 C   0  0  0  0  0  0  0  0  0  0  0  0
   -7.6133    9.7501   -9.5115 C   0  0  0  0  0  0  0  0  0  0  0  0
   -8.2802    8.7340   -9.9853 N   0  0  0  0  0  0  0  0  0  0  0  0
   -8.4149    8.8602  -11.2994 N   0  0  0  0  0  0  0  0  0  0  0  0
   -7.3368    9.8898   -8.0240 C   0  0  0  0  0  0  0  0  0  0  0  0
   -4.3580   13.5891  -11.5451 N   0  0  0  0  0  0  0  0  0  0  0  0
   -5.5327   13.6029  -12.2131 C   0  0  0  0  0  0  0  0  0  0  0  0
   -5.8791   14.5089  -12.9726 O   0  0  0  0  0  0  0  0  0  0  0  0
   -5.9622   10.4818   -7.7351 C   0  0  0  0  0  0  0  0  0  0  0  0
   -5.8525   11.7570   -7.1642 C   0  0  0  0  0  0  0  0  0  0  0  0
   -4.5920   12.3049   -6.9193 C   0  0  0  0  0  0  0  0  0  0  0  0
   -3.4386   11.5825   -7.2408 C   0  0  0  0  0  0  0  0  0  0  0  0
   -3.5579   10.3128   -7.8038 C   0  0  0  0  0  0  0  0  0  0  0  0
   -4.8126    9.7642   -8.0521 C   0  0  0  0  0  0  0  0  0  0  0  0
   -2.0919   12.1643   -6.9829 C   0  0  0  0  0  0  0  0  0  0  0  0
   -1.7362   13.4287   -6.5051 C   0  0  0  0  0  0  0  0  0  0  0  0
   -0.4017   13.4552   -6.4435 N   0  0  0  0  0  0  0  0  0  0  0  0
    0.1850   12.3496   -6.8156 N   0  0  0  0  0  0  0  0  0  0  0  0
   -0.8078   11.5460   -7.1722 C   0  0  0  0  0  0  0  0  0  0  0  0
    0.4351   14.5688   -6.0125 C   0  0  0  0  0  0  0  0  0  0  0  0
   -3.3172   14.5865  -11.7755 C   0  0  0  0  0  0  0  0  0  0  0  0
   -1.8924   14.0513  -11.7355 C   0  0  0  0  0  0  0  0  0  0  0  0
   -2.3932   14.9579  -10.6450 C   0  0  0  0  0  0  0  0  0  0  0  0
   -6.0964   12.3014   -9.8693 H   0  0  0  0  0  0  0  0  0  0  0  0
   -8.1772   10.1197  -13.8994 H   0  0  0  0  0  0  0  0  0  0  0  0
   -6.9259   12.2608  -14.0798 H   0  0  0  0  0  0  0  0  0  0  0  0
   -8.0380    9.6010   -7.2550 H   0  0  0  0  0  0  0  0  0  0  0  0
   -4.1960   12.8702  -10.8691 H   0  0  0  0  0  0  0  0  0  0  0  0
   -6.7424   12.3154   -6.9139 H   0  0  0  0  0  0  0  0  0  0  0  0
   -4.5419   13.2489   -7.4818 H   0  0  0  0  0  0  0  0  0  0  0  0
   -4.5427   12.5174   -5.8412 H   0  0  0  0  0  0  0  0  0  0  0  0
   -2.6693    9.7502   -8.0493 H   0  0  0  0  0  0  0  0  0  0  0  0
   -4.8629    8.8200   -7.4901 H   0  0  0  0  0  0  0  0  0  0  0  0
   -4.8583    9.5519   -9.1305 H   0  0  0  0  0  0  0  0  0  0  0  0
   -2.4097   14.2294   -6.2375 H   0  0  0  0  0  0  0  0  0  0  0  0
   -0.6685   10.5471   -7.5584 H   0  0  0  0  0  0  0  0  0  0  0  0
    1.4941   14.2779   -6.0748 H   0  0  0  0  0  0  0  0  0  0  0  0
    0.2544   15.4366   -6.6639 H   0  0  0  0  0  0  0  0  0  0  0  0
    0.1879   14.8324   -4.9736 H   0  0  0  0  0  0  0  0  0  0  0  0
   -3.5215   15.3697  -12.5204 H   0  0  0  0  0  0  0  0  0  0  0  0
   -1.7095   12.9870  -11.5263 H   0  0  0  0  0  0  0  0  0  0  0  0
   -1.1463   14.4168  -12.4564 H   0  0  0  0  0  0  0  0  0  0  0  0
   -2.0084   15.9854  -10.5669 H   0  0  0  0  0  0  0  0  0  0  0  0
   -2.5716   14.5556   -9.6369 H   0  0  0  0  0  0  0  0  0  0  0  0
  1  2  2  0  0  0  0
  1  4  1  0  0  0  0
  1 12  1  0  0  0  0
  2  6  1  0  0  0  0
  3  4  2  0  0  0  0
  3  5  1  0  0  0  0
  5  6  2  0  0  0  0
  5  9  1  0  0  0  0
  6  7  1  0  0  0  0
  7  8  1  0  0  0  0
  7 10  2  3  0  0  0
  8  9  2  0  0  0  0
 10 14  1  0  0  0  0
 11 12  1  0  0  0  0
 11 26  1  0  0  0  0
 12 13  2  0  0  0  0
 14 15  2  0  0  0  0
 14 19  1  0  0  0  0
 15 16  1  0  0  0  0
 16 17  1  0  0  0  0
 17 18  2  0  0  0  0
 17 20  1  0  0  0  0
 18 19  1  0  0  0  0
 20 21  2  0  0  0  0
 20 24  1  0  0  0  0
 21 22  1  0  0  0  0
 22 23  1  0  0  0  0
 22 25  1  0  0  0  0
 23 24  2  0  0  0  0
 26 27  1  0  0  0  0
 26 28  1  0  0  0  0
 27 28  1  0  0  0  0
  2 29  1  0  0  0  0
  3 30  1  0  0  0  0
  4 31  1  0  0  0  0
 10 32  1  0  0  0  0
 11 33  1  0  0  0  0
 15 34  1  0  0  0  0
 16 35  1  0  0  0  0
 16 36  1  0  0  0  0
 18 37  1  0  0  0  0
 19 38  1  0  0  0  0
 19 39  1  0  0  0  0
 21 40  1  0  0  0  0
 24 41  1  0  0  0  0
 25 42  1  0  0  0  0
 25 43  1  0  0  0  0
 25 44  1  0  0  0  0
 26 45  1  0  0  0  0
 27 46  1  0  0  0  0
 27 47  1  0  0  0  0
 28 48  1  0  0  0  0
 28 49  1  0  0  0  0
M  END
> <Name>
33

> <IC50[uM]>
0.008

$$$$
33
  -OEChem-05192314333D
 Structure written by MMmdl.
 49 53  0     0  0  0  0  0  0999 V2000
   -6.3918   12.3765  -12.0158 C   0  0  0  0  0  0  0  0  0  0  0  0
   -6.5335   11.8201  -10.7317 C   0  0  0  0  0  0  0  0  0  0  0  0
   -7.7273   10.5795  -13.0319 C   0  0  0  0  0  0  0  0  0  0  0  0
   -7.0082   11.7773  -13.1176 C   0  0  0  0  0  0  0  0  0  0  0  0
   -7.8294   10.0116  -11.7546 C   0  0  0  0  0  0  0  0  0  0  0  0
   -7.2533   10.6299  -10.5984 C   0  0  0  0  0  0  0  0  0  0  0  0
   -7.6133    9.7501   -9.5115 C   0  0  0  0  0  0  0  0  0  0  0  0
   -8.2802    8.7340   -9.9853 N   0  0  0  0  0  0  0  0  0  0  0  0
   -8.4149    8.8602  -11.2994 N   0  0  0  0  0  0  0  0  0  0  0  0
   -7.3368    9.8898   -8.0240 C   0  0  0  0  0  0  0  0  0  0  0  0
   -4.3580   13.5891  -11.5451 N   0  0  0  0  0  0  0  0  0  0  0  0
   -5.5327   13.6029  -12.2131 C   0  0  0  0  0  0  0  0  0  0  0  0
   -5.8791   14.5089  -12.9726 O   0  0  0  0  0  0  0  0  0  0  0  0
   -5.9622   10.4818   -7.7351 C   0  0  0  0  0  0  0  0  0  0  0  0
   -5.8525   11.7570   -7.1642 C   0  0  0  0  0  0  0  0  0  0  0  0
   -4.5920   12.3049   -6.9193 C   0  0  0  0  0  0  0  0  0  0  0  0
   -3.4386   11.5825   -7.2408 C   0  0  0  0  0  0  0  0  0  0  0  0
   -3.5579   10.3128   -7.8038 C   0  0  0  0  0  0  0  0  0  0  0  0
   -4.8126    9.7642   -8.0521 C   0  0  0  0  0  0  0  0  0  0  0  0
   -2.0919   12.1643   -6.9829 C   0  0  0  0  0  0  0  0  0  0  0  0
   -1.7362   13.4287   -6.5051 C   0  0  0  0  0  0  0  0  0  0  0  0
   -0.4017   13.4552   -6.4435 N   0  0  0  0  0  0  0  0  0  0  0  0
    0.1850   12.3496   -6.8156 N   0  0  0  0  0  0  0  0  0  0  0  0
   -0.8078   11.5460   -7.1722 C   0  0  0  0  0  0  0  0  0  0  0  0
    0.4351   14.5688   -6.0125 C   0  0  0  0  0  0  0  0  0  0  0  0
   -3.3172   14.5865  -11.7755 C   0  0  0  0  0  0  0  0  0  0  0  0
   -1.8924   14.0513  -11.7355 C   0  0  0  0  0  0  0  0  0  0  0  0
   -2.3932   14.9579  -10.6450 C   0  0  0  0  0  0  0  0  0  0  0  0
   -6.0964   12.3014   -9.8693 H   0  0  0  0  0  0  0  0  0  0  0  0
   -8.1772   10.1197  -13.8994 H   0  0  0  0  0  0  0  0  0  0  0  0
   -6.9259   12.2608  -14.0798 H   0  0  0  0  0  0  0  0  0  0  0  0
   -8.0380    9.6010   -7.2550 H   0  0  0  0  0  0  0  0  0  0  0  0
   -4.1960   12.8702  -10.8691 H   0  0  0  0  0  0  0  0  0  0  0  0
   -6.7424   12.3154   -6.9139 H   0  0  0  0  0  0  0  0  0  0  0  0
   -4.5075   13.2883   -6.4808 H   0  0  0  0  0  0  0  0  0  0  0  0
   -3.0319   10.3458   -8.7693 H   0  0  0  0  0  0  0  0  0  0  0  0
   -3.0388    9.6182   -7.1270 H   0  0  0  0  0  0  0  0  0  0  0  0
   -4.8629    8.8200   -7.4901 H   0  0  0  0  0  0  0  0  0  0  0  0
   -4.8583    9.5519   -9.1305 H   0  0  0  0  0  0  0  0  0  0  0  0
   -2.4097   14.2294   -6.2375 H   0  0  0  0  0  0  0  0  0  0  0  0
   -0.6685   10.5471   -7.5584 H   0  0  0  0  0  0  0  0  0  0  0  0
    1.4941   14.2779   -6.0748 H   0  0  0  0  0  0  0  0  0  0  0  0
    0.2544   15.4366   -6.6639 H   0  0  0  0  0  0  0  0  0  0  0  0
    0.1879   14.8324   -4.9736 H   0  0  0  0  0  0  0  0  0  0  0  0
   -3.5215   15.3697  -12.5204 H   0  0  0  0  0  0  0  0  0  0  0  0
   -1.7095   12.9870  -11.5263 H   0  0  0  0  0  0  0  0  0  0  0  0
   -1.1463   14.4168  -12.4564 H   0  0  0  0  0  0  0  0  0  0  0  0
   -2.0084   15.9854  -10.5669 H   0  0  0  0  0  0  0  0  0  0  0  0
   -2.5716   14.5556   -9.6369 H   0  0  0  0  0  0  0  0  0  0  0  0
  1  2  2  0  0  0  0
  1  4  1  0  0  0  0
  1 12  1  0  0  0  0
  2  6  1  0  0  0  0
  3  4  2  0  0  0  0
  3  5  1  0  0  0  0
  5  6  2  0  0  0  0
  5  9  1  0  0  0  0
  6  7  1  0  0  0  0
  7  8  1  0  0  0  0
  7 10  2  3  0  0  0
  8  9  2  0  0  0  0
 10 14  1  0  0  0  0
 11 12  1  0  0  0  0
 11 26  1  0  0  0  0
 12 13  2  0  0  0  0
 14 15  2  0  0  0  0
 14 19  1  0  0  0  0
 15 16  1  0  0  0  0
 16 17  2  0  0  0  0
 17 18  1  0  0  0  0
 17 20  1  0  0  0  0
 18 19  1  0  0  0  0
 20 21  2  0  0  0  0
 20 24  1  0  0  0  0
 21 22  1  0  0  0  0
 22 23  1  0  0  0  0
 22 25  1  0  0  0  0
 23 24  2  0  0  0  0
 26 27  1  0  0  0  0
 26 28  1  0  0  0  0
 27 28  1  0  0  0  0
  2 29  1  0  0  0  0
  3 30  1  0  0  0  0
  4 31  1  0  0  0  0
 10 32  1  0  0  0  0
 11 33  1  0  0  0  0
 15 34  1  0  0  0  0
 16 35  1  0  0  0  0
 18 36  1  0  0  0  0
 18 37  1  0  0  0  0
 19 38  1  0  0  0  0
 19 39  1  0  0  0  0
 21 40  1  0  0  0  0
 24 41  1  0  0  0  0
 25 42  1  0  0  0  0
 25 43  1  0  0  0  0
 25 44  1  0  0  0  0
 26 45  1  0  0  0  0
 27 46  1  0  0  0  0
 27 47  1  0  0  0  0
 28 48  1  0  0  0  0
 28 49  1  0  0  0  0
M  END
> <Name>
33

> <IC50[uM]>
0.008

$$$$
33
  -OEChem-05192314333D
 Structure written by MMmdl.
 49 53  0     1  0  0  0  0  0999 V2000
   -6.3918   12.3765  -12.0158 C   0  0  3  0  0  0  0  0  0  0  0  0
   -6.5335   11.8201  -10.7317 C   0  0  0  0  0  0  0  0  0  0  0  0
   -7.7273   10.5795  -13.0319 C   0  0  0  0  0  0  0  0  0  0  0  0
   -7.0082   11.7773  -13.1176 C   0  0  0  0  0  0  0  0  0  0  0  0
   -7.8294   10.0116  -11.7546 C   0  0  0  0  0  0  0  0  0  0  0  0
   -7.2533   10.6299  -10.5984 C   0  0  0  0  0  0  0  0  0  0  0  0
   -7.6133    9.7501   -9.5115 C   0  0  0  0  0  0  0  0  0  0  0  0
   -8.2802    8.7340   -9.9853 N   0  0  0  0  0  0  0  0  0  0  0  0
   -8.4149    8.8602  -11.2994 N   0  0  0  0  0  0  0  0  0  0  0  0
   -7.3368    9.8898   -8.0240 C   0  0  0  0  0  0  0  0  0  0  0  0
   -4.3580   13.5891  -11.5451 N   0  0  0  0  0  0  0  0  0  0  0  0
   -5.5327   13.6029  -12.2131 C   0  0  0  0  0  0  0  0  0  0  0  0
   -5.8791   14.5089  -12.9726 O   0  0  0  0  0  0  0  0  0  0  0  0
   -5.9622   10.4818   -7.7351 C   0  0  0  0  0  0  0  0  0  0  0  0
   -5.8525   11.7570   -7.1642 C   0  0  0  0  0  0  0  0  0  0  0  0
   -4.5920   12.3049   -6.9193 C   0  0  0  0  0  0  0  0  0  0  0  0
   -3.4386   11.5825   -7.2408 C   0  0  0  0  0  0  0  0  0  0  0  0
   -3.5579   10.3128   -7.8038 C   0  0  0  0  0  0  0  0  0  0  0  0
   -4.8126    9.7642   -8.0521 C   0  0  0  0  0  0  0  0  0  0  0  0
   -2.0919   12.1643   -6.9829 C   0  0  0  0  0  0  0  0  0  0  0  0
   -1.7362   13.4287   -6.5051 C   0  0  0  0  0  0  0  0  0  0  0  0
   -0.4017   13.4552   -6.4435 N   0  0  0  0  0  0  0  0  0  0  0  0
    0.1850   12.3496   -6.8156 N   0  0  0  0  0  0  0  0  0  0  0  0
   -0.8078   11.5460   -7.1722 C   0  0  0  0  0  0  0  0  0  0  0  0
    0.4351   14.5688   -6.0125 C   0  0  0  0  0  0  0  0  0  0  0  0
   -3.3172   14.5865  -11.7755 C   0  0  0  0  0  0  0  0  0  0  0  0
   -1.8924   14.0513  -11.7355 C   0  0  0  0  0  0  0  0  0  0  0  0
   -2.3932   14.9579  -10.6450 C   0  0  0  0  0  0  0  0  0  0  0  0
   -7.2761   13.0097  -11.8512 H   0  0  0  0  0  0  0  0  0  0  0  0
   -5.5209   11.6327  -10.3450 H   0  0  0  0  0  0  0  0  0  0  0  0
   -7.0320   12.5735  -10.1041 H   0  0  0  0  0  0  0  0  0  0  0  0
   -8.1772   10.1197  -13.8994 H   0  0  0  0  0  0  0  0  0  0  0  0
   -6.9259   12.2608  -14.0798 H   0  0  0  0  0  0  0  0  0  0  0  0
   -8.0380    9.6010   -7.2550 H   0  0  0  0  0  0  0  0  0  0  0  0
   -4.1960   12.8702  -10.8691 H   0  0  0  0  0  0  0  0  0  0  0  0
   -6.7424   12.3154   -6.9139 H   0  0  0  0  0  0  0  0  0  0  0  0
   -4.5075   13.2883   -6.4808 H   0  0  0  0  0  0  0  0  0  0  0  0
   -2.6693    9.7502   -8.0493 H   0  0  0  0  0  0  0  0  0  0  0  0
   -4.8943    8.7808   -8.4911 H   0  0  0  0  0  0  0  0  0  0  0  0
   -2.4097   14.2294   -6.2375 H   0  0  0  0  0  0  0  0  0  0  0  0
   -0.6685   10.5471   -7.5584 H   0  0  0  0  0  0  0  0  0  0  0  0
    1.4941   14.2779   -6.0748 H   0  0  0  0  0  0  0  0  0  0  0  0
    0.2544   15.4366   -6.6639 H   0  0  0  0  0  0  0  0  0  0  0  0
    0.1879   14.8324   -4.9736 H   0  0  0  0  0  0  0  0  0  0  0  0
   -3.5215   15.3697  -12.5204 H   0  0  0  0  0  0  0  0  0  0  0  0
   -1.7095   12.9870  -11.5263 H   0  0  0  0  0  0  0  0  0  0  0  0
   -1.1463   14.4168  -12.4564 H   0  0  0  0  0  0  0  0  0  0  0  0
   -2.0084   15.9854  -10.5669 H   0  0  0  0  0  0  0  0  0  0  0  0
   -2.5716   14.5556   -9.6369 H   0  0  0  0  0  0  0  0  0  0  0  0
  1  2  1  0  0  0  0
  1  4  1  0  0  0  0
  1 12  1  0  0  0  0
  2  6  1  0  0  0  0
  3  4  2  0  0  0  0
  3  5  1  0  0  0  0
  5  6  2  0  0  0  0
  5  9  1  0  0  0  0
  6  7  1  0  0  0  0
  7  8  1  0  0  0  0
  7 10  2  3  0  0  0
  8  9  2  0  0  0  0
 10 14  1  0  0  0  0
 11 12  1  0  0  0  0
 11 26  1  0  0  0  0
 12 13  2  0  0  0  0
 14 15  2  0  0  0  0
 14 19  1  0  0  0  0
 15 16  1  0  0  0  0
 16 17  2  0  0  0  0
 17 18  1  0  0  0  0
 17 20  1  0  0  0  0
 18 19  2  0  0  0  0
 20 21  2  0  0  0  0
 20 24  1  0  0  0  0
 21 22  1  0  0  0  0
 22 23  1  0  0  0  0
 22 25  1  0  0  0  0
 23 24  2  0  0  0  0
 26 27  1  0  0  0  0
 26 28  1  0  0  0  0
 27 28  1  0  0  0  0
  1 29  1  0  0  0  0
  2 30  1  0  0  0  0
  2 31  1  0  0  0  0
  3 32  1  0  0  0  0
  4 33  1  0  0  0  0
 10 34  1  0  0  0  0
 11 35  1  0  0  0  0
 15 36  1  0  0  0  0
 16 37  1  0  0  0  0
 18 38  1  0  0  0  0
 19 39  1  0  0  0  0
 21 40  1  0  0  0  0
 24 41  1  0  0  0  0
 25 42  1  0  0  0  0
 25 43  1  0  0  0  0
 25 44  1  0  0  0  0
 26 45  1  0  0  0  0
 27 46  1  0  0  0  0
 27 47  1  0  0  0  0
 28 48  1  0  0  0  0
 28 49  1  0  0  0  0
M  END
> <Name>
33

> <IC50[uM]>
0.008

$$$$
33
  -OEChem-05192314333D
 Structure written by MMmdl.
 49 53  0     1  0  0  0  0  0999 V2000
   -6.3918   12.3765  -12.0158 C   0  0  0  0  0  0  0  0  0  0  0  0
   -6.5335   11.8201  -10.7317 C   0  0  0  0  0  0  0  0  0  0  0  0
   -7.7273   10.5795  -13.0319 C   0  0  0  0  0  0  0  0  0  0  0  0
   -7.0082   11.7773  -13.1176 C   0  0  0  0  0  0  0  0  0  0  0  0
   -7.8294   10.0116  -11.7546 C   0  0  0  0  0  0  0  0  0  0  0  0
   -7.2533   10.6299  -10.5984 C   0  0  3  0  0  0  0  0  0  0  0  0
   -7.6133    9.7501   -9.5115 C   0  0  0  0  0  0  0  0  0  0  0  0
   -8.2802    8.7340   -9.9853 N   0  0  0  0  0  0  0  0  0  0  0  0
   -8.4149    8.8602  -11.2994 N   0  0  0  0  0  0  0  0  0  0  0  0
   -7.3368    9.8898   -8.0240 C   0  0  0  0  0  0  0  0  0  0  0  0
   -4.3580   13.5891  -11.5451 N   0  0  0  0  0  0  0  0  0  0  0  0
   -5.5327   13.6029  -12.2131 C   0  0  0  0  0  0  0  0  0  0  0  0
   -5.8791   14.5089  -12.9726 O   0  0  0  0  0  0  0  0  0  0  0  0
   -5.9622   10.4818   -7.7351 C   0  0  0  0  0  0  0  0  0  0  0  0
   -5.8525   11.7570   -7.1642 C   0  0  0  0  0  0  0  0  0  0  0  0
   -4.5920   12.3049   -6.9193 C   0  0  0  0  0  0  0  0  0  0  0  0
   -3.4386   11.5825   -7.2408 C   0  0  0  0  0  0  0  0  0  0  0  0
   -3.5579   10.3128   -7.8038 C   0  0  0  0  0  0  0  0  0  0  0  0
   -4.8126    9.7642   -8.0521 C   0  0  0  0  0  0  0  0  0  0  0  0
   -2.0919   12.1643   -6.9829 C   0  0  0  0  0  0  0  0  0  0  0  0
   -1.7362   13.4287   -6.5051 C   0  0  0  0  0  0  0  0  0  0  0  0
   -0.4017   13.4552   -6.4435 N   0  0  0  0  0  0  0  0  0  0  0  0
    0.1850   12.3496   -6.8156 N   0  0  0  0  0  0  0  0  0  0  0  0
   -0.8078   11.5460   -7.1722 C   0  0  0  0  0  0  0  0  0  0  0  0
    0.4351   14.5688   -6.0125 C   0  0  0  0  0  0  0  0  0  0  0  0
   -3.3172   14.5865  -11.7755 C   0  0  0  0  0  0  0  0  0  0  0  0
   -1.8924   14.0513  -11.7355 C   0  0  0  0  0  0  0  0  0  0  0  0
   -2.3932   14.9579  -10.6450 C   0  0  0  0  0  0  0  0  0  0  0  0
   -5.5209   11.6327  -10.3450 H   0  0  0  0  0  0  0  0  0  0  0  0
   -7.0320   12.5735  -10.1041 H   0  0  0  0  0  0  0  0  0  0  0  0
   -8.1772   10.1197  -13.8994 H   0  0  0  0  0  0  0  0  0  0  0  0
   -6.9259   12.2608  -14.0798 H   0  0  0  0  0  0  0  0  0  0  0  0
   -8.1783   11.2044  -10.4423 H   0  0  0  0  0  0  0  0  0  0  0  0
   -8.0380    9.6010   -7.2550 H   0  0  0  0  0  0  0  0  0  0  0  0
   -4.1960   12.8702  -10.8691 H   0  0  0  0  0  0  0  0  0  0  0  0
   -6.7424   12.3154   -6.9139 H   0  0  0  0  0  0  0  0  0  0  0  0
   -4.5075   13.2883   -6.4808 H   0  0  0  0  0  0  0  0  0  0  0  0
   -2.6693    9.7502   -8.0493 H   0  0  0  0  0  0  0  0  0  0  0  0
   -4.8943    8.7808   -8.4911 H   0  0  0  0  0  0  0  0  0  0  0  0
   -2.4097   14.2294   -6.2375 H   0  0  0  0  0  0  0  0  0  0  0  0
   -0.6685   10.5471   -7.5584 H   0  0  0  0  0  0  0  0  0  0  0  0
    1.4941   14.2779   -6.0748 H   0  0  0  0  0  0  0  0  0  0  0  0
    0.2544   15.4366   -6.6639 H   0  0  0  0  0  0  0  0  0  0  0  0
    0.1879   14.8324   -4.9736 H   0  0  0  0  0  0  0  0  0  0  0  0
   -3.5215   15.3697  -12.5204 H   0  0  0  0  0  0  0  0  0  0  0  0
   -1.7095   12.9870  -11.5263 H   0  0  0  0  0  0  0  0  0  0  0  0
   -1.1463   14.4168  -12.4564 H   0  0  0  0  0  0  0  0  0  0  0  0
   -2.0084   15.9854  -10.5669 H   0  0  0  0  0  0  0  0  0  0  0  0
   -2.5716   14.5556   -9.6369 H   0  0  0  0  0  0  0  0  0  0  0  0
  1  2  1  0  0  0  0
  1  4  2  0  0  0  0
  1 12  1  0  0  0  0
  2  6  1  0  0  0  0
  3  4  1  0  0  0  0
  3  5  2  0  0  0  0
  5  6  1  0  0  0  0
  5  9  1  0  0  0  0
  6  7  1  0  0  0  0
  7  8  1  0  0  0  0
  7 10  2  3  0  0  0
  8  9  2  0  0  0  0
 10 14  1  0  0  0  0
 11 12  1  0  0  0  0
 11 26  1  0  0  0  0
 12 13  2  0  0  0  0
 14 15  2  0  0  0  0
 14 19  1  0  0  0  0
 15 16  1  0  0  0  0
 16 17  2  0  0  0  0
 17 18  1  0  0  0  0
 17 20  1  0  0  0  0
 18 19  2  0  0  0  0
 20 21  2  0  0  0  0
 20 24  1  0  0  0  0
 21 22  1  0  0  0  0
 22 23  1  0  0  0  0
 22 25  1  0  0  0  0
 23 24  2  0  0  0  0
 26 27  1  0  0  0  0
 26 28  1  0  0  0  0
 27 28  1  0  0  0  0
  2 29  1  0  0  0  0
  2 30  1  0  0  0  0
  3 31  1  0  0  0  0
  4 32  1  0  0  0  0
  6 33  1  0  0  0  0
 10 34  1  0  0  0  0
 11 35  1  0  0  0  0
 15 36  1  0  0  0  0
 16 37  1  0  0  0  0
 18 38  1  0  0  0  0
 19 39  1  0  0  0  0
 21 40  1  0  0  0  0
 24 41  1  0  0  0  0
 25 42  1  0  0  0  0
 25 43  1  0  0  0  0
 25 44  1  0  0  0  0
 26 45  1  0  0  0  0
 27 46  1  0  0  0  0
 27 47  1  0  0  0  0
 28 48  1  0  0  0  0
 28 49  1  0  0  0  0
M  END
> <Name>
33

> <IC50[uM]>
0.008

$$$$
33
  -OEChem-05192314333D
 Structure written by MMmdl.
 49 53  0     0  0  0  0  0  0999 V2000
   -6.3918   12.3765  -12.0158 C   0  0  0  0  0  0  0  0  0  0  0  0
   -6.5335   11.8201  -10.7317 C   0  0  0  0  0  0  0  0  0  0  0  0
   -7.7273   10.5795  -13.0319 C   0  0  0  0  0  0  0  0  0  0  0  0
   -7.0082   11.7773  -13.1176 C   0  0  0  0  0  0  0  0  0  0  0  0
   -7.8294   10.0116  -11.7546 C   0  0  0  0  0  0  0  0  0  0  0  0
   -7.2533   10.6299  -10.5984 C   0  0  0  0  0  0  0  0  0  0  0  0
   -7.6133    9.7501   -9.5115 C   0  0  0  0  0  0  0  0  0  0  0  0
   -8.2802    8.7340   -9.9853 N   0  0  0  0  0  0  0  0  0  0  0  0
   -8.4149    8.8602  -11.2994 N   0  0  0  0  0  0  0  0  0  0  0  0
   -7.3368    9.8898   -8.0240 C   0  0  0  0  0  0  0  0  0  0  0  0
   -4.3580   13.5891  -11.5451 N   0  0  0  0  0  0  0  0  0  0  0  0
   -5.5327   13.6029  -12.2131 C   0  0  0  0  0  0  0  0  0  0  0  0
   -5.8791   14.5089  -12.9726 O   0  0  0  0  0  0  0  0  0  0  0  0
   -5.9622   10.4818   -7.7351 C   0  0  0  0  0  0  0  0  0  0  0  0
   -5.8525   11.7570   -7.1642 C   0  0  0  0  0  0  0  0  0  0  0  0
   -4.5920   12.3049   -6.9193 C   0  0  0  0  0  0  0  0  0  0  0  0
   -3.4386   11.5825   -7.2408 C   0  0  0  0  0  0  0  0  0  0  0  0
   -3.5579   10.3128   -7.8038 C   0  0  0  0  0  0  0  0  0  0  0  0
   -4.8126    9.7642   -8.0521 C   0  0  0  0  0  0  0  0  0  0  0  0
   -2.0919   12.1643   -6.9829 C   0  0  0  0  0  0  0  0  0  0  0  0
   -1.7362   13.4287   -6.5051 C   0  0  0  0  0  0  0  0  0  0  0  0
   -0.4017   13.4552   -6.4435 N   0  0  0  0  0  0  0  0  0  0  0  0
    0.1850   12.3496   -6.8156 N   0  0  0  0  0  0  0  0  0  0  0  0
   -0.8078   11.5460   -7.1722 C   0  0  0  0  0  0  0  0  0  0  0  0
    0.4351   14.5688   -6.0125 C   0  0  0  0  0  0  0  0  0  0  0  0
   -3.3172   14.5865  -11.7755 C   0  0  0  0  0  0  0  0  0  0  0  0
   -1.8924   14.0513  -11.7355 C   0  0  0  0  0  0  0  0  0  0  0  0
   -2.3932   14.9579  -10.6450 C   0  0  0  0  0  0  0  0  0  0  0  0
   -5.5209   11.6327  -10.3450 H   0  0  0  0  0  0  0  0  0  0  0  0
   -7.0320   12.5735  -10.1041 H   0  0  0  0  0  0  0  0  0  0  0  0
   -8.7470   10.7729  -13.3962 H   0  0  0  0  0  0  0  0  0  0  0  0
   -7.2367    9.8453  -13.6879 H   0  0  0  0  0  0  0  0  0  0  0  0
   -6.9259   12.2608  -14.0798 H   0  0  0  0  0  0  0  0  0  0  0  0
   -8.0380    9.6010   -7.2550 H   0  0  0  0  0  0  0  0  0  0  0  0
   -4.1960   12.8702  -10.8691 H   0  0  0  0  0  0  0  0  0  0  0  0
   -6.7424   12.3154   -6.9139 H   0  0  0  0  0  0  0  0  0  0  0  0
   -4.5075   13.2883   -6.4808 H   0  0  0  0  0  0  0  0  0  0  0  0
   -2.6693    9.7502   -8.0493 H   0  0  0  0  0  0  0  0  0  0  0  0
   -4.8943    8.7808   -8.4911 H   0  0  0  0  0  0  0  0  0  0  0  0
   -2.4097   14.2294   -6.2375 H   0  0  0  0  0  0  0  0  0  0  0  0
   -0.6685   10.5471   -7.5584 H   0  0  0  0  0  0  0  0  0  0  0  0
    1.4941   14.2779   -6.0748 H   0  0  0  0  0  0  0  0  0  0  0  0
    0.2544   15.4366   -6.6639 H   0  0  0  0  0  0  0  0  0  0  0  0
    0.1879   14.8324   -4.9736 H   0  0  0  0  0  0  0  0  0  0  0  0
   -3.5215   15.3697  -12.5204 H   0  0  0  0  0  0  0  0  0  0  0  0
   -1.7095   12.9870  -11.5263 H   0  0  0  0  0  0  0  0  0  0  0  0
   -1.1463   14.4168  -12.4564 H   0  0  0  0  0  0  0  0  0  0  0  0
   -2.0084   15.9854  -10.5669 H   0  0  0  0  0  0  0  0  0  0  0  0
   -2.5716   14.5556   -9.6369 H   0  0  0  0  0  0  0  0  0  0  0  0
  1  2  1  0  0  0  0
  1  4  2  0  0  0  0
  1 12  1  0  0  0  0
  2  6  1  0  0  0  0
  3  4  1  0  0  0  0
  3  5  1  0  0  0  0
  5  6  2  0  0  0  0
  5  9  1  0  0  0  0
  6  7  1  0  0  0  0
  7  8  1  0  0  0  0
  7 10  2  3  0  0  0
  8  9  2  0  0  0  0
 10 14  1  0  0  0  0
 11 12  1  0  0  0  0
 11 26  1  0  0  0  0
 12 13  2  0  0  0  0
 14 15  2  0  0  0  0
 14 19  1  0  0  0  0
 15 16  1  0  0  0  0
 16 17  2  0  0  0  0
 17 18  1  0  0  0  0
 17 20  1  0  0  0  0
 18 19  2  0  0  0  0
 20 21  2  0  0  0  0
 20 24  1  0  0  0  0
 21 22  1  0  0  0  0
 22 23  1  0  0  0  0
 22 25  1  0  0  0  0
 23 24  2  0  0  0  0
 26 27  1  0  0  0  0
 26 28  1  0  0  0  0
 27 28  1  0  0  0  0
  2 29  1  0  0  0  0
  2 30  1  0  0  0  0
  3 31  1  0  0  0  0
  3 32  1  0  0  0  0
  4 33  1  0  0  0  0
 10 34  1  0  0  0  0
 11 35  1  0  0  0  0
 15 36  1  0  0  0  0
 16 37  1  0  0  0  0
 18 38  1  0  0  0  0
 19 39  1  0  0  0  0
 21 40  1  0  0  0  0
 24 41  1  0  0  0  0
 25 42  1  0  0  0  0
 25 43  1  0  0  0  0
 25 44  1  0  0  0  0
 26 45  1  0  0  0  0
 27 46  1  0  0  0  0
 27 47  1  0  0  0  0
 28 48  1  0  0  0  0
 28 49  1  0  0  0  0
M  END
> <Name>
33

> <IC50[uM]>
0.008

$$$$
33
  -OEChem-05192314333D
 Structure written by MMmdl.
 49 53  0     1  0  0  0  0  0999 V2000
   -6.3918   12.3765  -12.0158 C   0  0  0  0  0  0  0  0  0  0  0  0
   -6.5335   11.8201  -10.7317 C   0  0  0  0  0  0  0  0  0  0  0  0
   -7.7273   10.5795  -13.0319 C   0  0  0  0  0  0  0  0  0  0  0  0
   -7.0082   11.7773  -13.1176 C   0  0  0  0  0  0  0  0  0  0  0  0
   -7.8294   10.0116  -11.7546 C   0  0  3  0  0  0  0  0  0  0  0  0
   -7.2533   10.6299  -10.5984 C   0  0  0  0  0  0  0  0  0  0  0  0
   -7.6133    9.7501   -9.5115 C   0  0  0  0  0  0  0  0  0  0  0  0
   -8.2802    8.7340   -9.9853 N   0  0  0  0  0  0  0  0  0  0  0  0
   -8.4149    8.8602  -11.2994 N   0  0  0  0  0  0  0  0  0  0  0  0
   -7.3368    9.8898   -8.0240 C   0  0  0  0  0  0  0  0  0  0  0  0
   -4.3580   13.5891  -11.5451 N   0  0  0  0  0  0  0  0  0  0  0  0
   -5.5327   13.6029  -12.2131 C   0  0  0  0  0  0  0  0  0  0  0  0
   -5.8791   14.5089  -12.9726 O   0  0  0  0  0  0  0  0  0  0  0  0
   -5.9622   10.4818   -7.7351 C   0  0  0  0  0  0  0  0  0  0  0  0
   -5.8525   11.7570   -7.1642 C   0  0  0  0  0  0  0  0  0  0  0  0
   -4.5920   12.3049   -6.9193 C   0  0  0  0  0  0  0  0  0  0  0  0
   -3.4386   11.5825   -7.2408 C   0  0  0  0  0  0  0  0  0  0  0  0
   -3.5579   10.3128   -7.8038 C   0  0  0  0  0  0  0  0  0  0  0  0
   -4.8126    9.7642   -8.0521 C   0  0  0  0  0  0  0  0  0  0  0  0
   -2.0919   12.1643   -6.9829 C   0  0  0  0  0  0  0  0  0  0  0  0
   -1.7362   13.4287   -6.5051 C   0  0  0  0  0  0  0  0  0  0  0  0
   -0.4017   13.4552   -6.4435 N   0  0  0  0  0  0  0  0  0  0  0  0
    0.1850   12.3496   -6.8156 N   0  0  0  0  0  0  0  0  0  0  0  0
   -0.8078   11.5460   -7.1722 C   0  0  0  0  0  0  0  0  0  0  0  0
    0.4351   14.5688   -6.0125 C   0  0  0  0  0  0  0  0  0  0  0  0
   -3.3172   14.5865  -11.7755 C   0  0  0  0  0  0  0  0  0  0  0  0
   -1.8924   14.0513  -11.7355 C   0  0  0  0  0  0  0  0  0  0  0  0
   -2.3932   14.9579  -10.6450 C   0  0  0  0  0  0  0  0  0  0  0  0
   -6.0964   12.3014   -9.8693 H   0  0  0  0  0  0  0  0  0  0  0  0
   -8.1772   10.1197  -13.8994 H   0  0  0  0  0  0  0  0  0  0  0  0
   -6.9259   12.2608  -14.0798 H   0  0  0  0  0  0  0  0  0  0  0  0
   -8.7677   10.5596  -11.5832 H   0  0  0  0  0  0  0  0  0  0  0  0
   -8.1022   10.5457   -7.5837 H   0  0  0  0  0  0  0  0  0  0  0  0
   -7.3960    8.8943   -7.5599 H   0  0  0  0  0  0  0  0  0  0  0  0
   -4.1960   12.8702  -10.8691 H   0  0  0  0  0  0  0  0  0  0  0  0
   -6.7424   12.3154   -6.9139 H   0  0  0  0  0  0  0  0  0  0  0  0
   -4.5075   13.2883   -6.4808 H   0  0  0  0  0  0  0  0  0  0  0  0
   -2.6693    9.7502   -8.0493 H   0  0  0  0  0  0  0  0  0  0  0  0
   -4.8943    8.7808   -8.4911 H   0  0  0  0  0  0  0  0  0  0  0  0
   -2.4097   14.2294   -6.2375 H   0  0  0  0  0  0  0  0  0  0  0  0
   -0.6685   10.5471   -7.5584 H   0  0  0  0  0  0  0  0  0  0  0  0
    1.4941   14.2779   -6.0748 H   0  0  0  0  0  0  0  0  0  0  0  0
    0.2544   15.4366   -6.6639 H   0  0  0  0  0  0  0  0  0  0  0  0
    0.1879   14.8324   -4.9736 H   0  0  0  0  0  0  0  0  0  0  0  0
   -3.5215   15.3697  -12.5204 H   0  0  0  0  0  0  0  0  0  0  0  0
   -1.7095   12.9870  -11.5263 H   0  0  0  0  0  0  0  0  0  0  0  0
   -1.1463   14.4168  -12.4564 H   0  0  0  0  0  0  0  0  0  0  0  0
   -2.0084   15.9854  -10.5669 H   0  0  0  0  0  0  0  0  0  0  0  0
   -2.5716   14.5556   -9.6369 H   0  0  0  0  0  0  0  0  0  0  0  0
  1  2  2  0  0  0  0
  1  4  1  0  0  0  0
  1 12  1  0  0  0  0
  2  6  1  0  0  0  0
  3  4  2  0  0  0  0
  3  5  1  0  0  0  0
  5  6  1  0  0  0  0
  5  9  1  0  0  0  0
  6  7  2  0  0  0  0
  7  8  1  0  0  0  0
  7 10  1  0  0  0  0
  8  9  2  0  0  0  0
 10 14  1  0  0  0  0
 11 12  1  0  0  0  0
 11 26  1  0  0  0  0
 12 13  2  0  0  0  0
 14 15  2  0  0  0  0
 14 19  1  0  0  0  0
 15 16  1  0  0  0  0
 16 17  2  0  0  0  0
 17 18  1  0  0  0  0
 17 20  1  0  0  0  0
 18 19  2  0  0  0  0
 20 21  2  0  0  0  0
 20 24  1  0  0  0  0
 21 22  1  0  0  0  0
 22 23  1  0  0  0  0
 22 25  1  0  0  0  0
 23 24  2  0  0  0  0
 26 27  1  0  0  0  0
 26 28  1  0  0  0  0
 27 28  1  0  0  0  0
  2 29  1  0  0  0  0
  3 30  1  0  0  0  0
  4 31  1  0  0  0  0
  5 32  1  0  0  0  0
 10 33  1  0  0  0  0
 10 34  1  0  0  0  0
 11 35  1  0  0  0  0
 15 36  1  0  0  0  0
 16 37  1  0  0  0  0
 18 38  1  0  0  0  0
 19 39  1  0  0  0  0
 21 40  1  0  0  0  0
 24 41  1  0  0  0  0
 25 42  1  0  0  0  0
 25 43  1  0  0  0  0
 25 44  1  0  0  0  0
 26 45  1  0  0  0  0
 27 46  1  0  0  0  0
 27 47  1  0  0  0  0
 28 48  1  0  0  0  0
 28 49  1  0  0  0  0
M  END
> <Name>
33

> <IC50[uM]>
0.008

$$$$
33
  -OEChem-05192314333D
 Structure written by MMmdl.
 49 53  0     0  0  0  0  0  0999 V2000
   -6.3918   12.3765  -12.0158 C   0  0  0  0  0  0  0  0  0  0  0  0
   -6.5335   11.8201  -10.7317 C   0  0  0  0  0  0  0  0  0  0  0  0
   -7.7273   10.5795  -13.0319 C   0  0  0  0  0  0  0  0  0  0  0  0
   -7.0082   11.7773  -13.1176 C   0  0  0  0  0  0  0  0  0  0  0  0
   -7.8294   10.0116  -11.7546 C   0  0  0  0  0  0  0  0  0  0  0  0
   -7.2533   10.6299  -10.5984 C   0  0  0  0  0  0  0  0  0  0  0  0
   -7.6133    9.7501   -9.5115 C   0  0  0  0  0  0  0  0  0  0  0  0
   -8.2802    8.7340   -9.9853 N   0  0  0  0  0  0  0  0  0  0  0  0
   -8.4149    8.8602  -11.2994 N   0  0  0  0  0  0  0  0  0  0  0  0
   -7.3368    9.8898   -8.0240 C   0  0  0  0  0  0  0  0  0  0  0  0
   -4.3580   13.5891  -11.5451 N   0  0  0  0  0  0  0  0  0  0  0  0
   -5.5327   13.6029  -12.2131 C   0  0  0  0  0  0  0  0  0  0  0  0
   -5.8791   14.5089  -12.9726 O   0  0  0  0  0  0  0  0  0  0  0  0
   -5.9622   10.4818   -7.7351 C   0  0  0  0  0  0  0  0  0  0  0  0
   -5.8525   11.7570   -7.1642 C   0  0  0  0  0  0  0  0  0  0  0  0
   -4.5920   12.3049   -6.9193 C   0  0  0  0  0  0  0  0  0  0  0  0
   -3.4386   11.5825   -7.2408 C   0  0  0  0  0  0  0  0  0  0  0  0
   -3.5579   10.3128   -7.8038 C   0  0  0  0  0  0  0  0  0  0  0  0
   -4.8126    9.7642   -8.0521 C   0  0  0  0  0  0  0  0  0  0  0  0
   -2.0919   12.1643   -6.9829 C   0  0  0  0  0  0  0  0  0  0  0  0
   -1.7362   13.4287   -6.5051 C   0  0  0  0  0  0  0  0  0  0  0  0
   -0.4017   13.4552   -6.4435 N   0  0  0  0  0  0  0  0  0  0  0  0
    0.1850   12.3496   -6.8156 N   0  0  0  0  0  0  0  0  0  0  0  0
   -0.8078   11.5460   -7.1722 C   0  0  0  0  0  0  0  0  0  0  0  0
    0.4351   14.5688   -6.0125 C   0  0  0  0  0  0  0  0  0  0  0  0
   -3.3172   14.5865  -11.7755 C   0  0  0  0  0  0  0  0  0  0  0  0
   -1.8924   14.0513  -11.7355 C   0  0  0  0  0  0  0  0  0  0  0  0
   -2.3932   14.9579  -10.6450 C   0  0  0  0  0  0  0  0  0  0  0  0
   -6.0964   12.3014   -9.8693 H   0  0  0  0  0  0  0  0  0  0  0  0
   -8.1772   10.1197  -13.8994 H   0  0  0  0  0  0  0  0  0  0  0  0
   -7.7108   12.5246  -13.5150 H   0  0  0  0  0  0  0  0  0  0  0  0
   -6.2088   11.5987  -13.8518 H   0  0  0  0  0  0  0  0  0  0  0  0
   -8.1022   10.5457   -7.5837 H   0  0  0  0  0  0  0  0  0  0  0  0
   -7.3960    8.8943   -7.5599 H   0  0  0  0  0  0  0  0  0  0  0  0
   -4.1960   12.8702  -10.8691 H   0  0  0  0  0  0  0  0  0  0  0  0
   -6.7424   12.3154   -6.9139 H   0  0  0  0  0  0  0  0  0  0  0  0
   -4.5075   13.2883   -6.4808 H   0  0  0  0  0  0  0  0  0  0  0  0
   -2.6693    9.7502   -8.0493 H   0  0  0  0  0  0  0  0  0  0  0  0
   -4.8943    8.7808   -8.4911 H   0  0  0  0  0  0  0  0  0  0  0  0
   -2.4097   14.2294   -6.2375 H   0  0  0  0  0  0  0  0  0  0  0  0
   -0.6685   10.5471   -7.5584 H   0  0  0  0  0  0  0  0  0  0  0  0
    1.4941   14.2779   -6.0748 H   0  0  0  0  0  0  0  0  0  0  0  0
    0.2544   15.4366   -6.6639 H   0  0  0  0  0  0  0  0  0  0  0  0
    0.1879   14.8324   -4.9736 H   0  0  0  0  0  0  0  0  0  0  0  0
   -3.5215   15.3697  -12.5204 H   0  0  0  0  0  0  0  0  0  0  0  0
   -1.7095   12.9870  -11.5263 H   0  0  0  0  0  0  0  0  0  0  0  0
   -1.1463   14.4168  -12.4564 H   0  0  0  0  0  0  0  0  0  0  0  0
   -2.0084   15.9854  -10.5669 H   0  0  0  0  0  0  0  0  0  0  0  0
   -2.5716   14.5556   -9.6369 H   0  0  0  0  0  0  0  0  0  0  0  0
  1  2  2  0  0  0  0
  1  4  1  0  0  0  0
  1 12  1  0  0  0  0
  2  6  1  0  0  0  0
  3  4  1  0  0  0  0
  3  5  2  0  0  0  0
  5  6  1  0  0  0  0
  5  9  1  0  0  0  0
  6  7  2  0  0  0  0
  7  8  1  0  0  0  0
  7 10  1  0  0  0  0
  8  9  2  0  0  0  0
 10 14  1  0  0  0  0
 11 12  1  0  0  0  0
 11 26  1  0  0  0  0
 12 13  2  0  0  0  0
 14 15  2  0  0  0  0
 14 19  1  0  0  0  0
 15 16  1  0  0  0  0
 16 17  2  0  0  0  0
 17 18  1  0  0  0  0
 17 20  1  0  0  0  0
 18 19  2  0  0  0  0
 20 21  2  0  0  0  0
 20 24  1  0  0  0  0
 21 22  1  0  0  0  0
 22 23  1  0  0  0  0
 22 25  1  0  0  0  0
 23 24  2  0  0  0  0
 26 27  1  0  0  0  0
 26 28  1  0  0  0  0
 27 28  1  0  0  0  0
  2 29  1  0  0  0  0
  3 30  1  0  0  0  0
  4 31  1  0  0  0  0
  4 32  1  0  0  0  0
 10 33  1  0  0  0  0
 10 34  1  0  0  0  0
 11 35  1  0  0  0  0
 15 36  1  0  0  0  0
 16 37  1  0  0  0  0
 18 38  1  0  0  0  0
 19 39  1  0  0  0  0
 21 40  1  0  0  0  0
 24 41  1  0  0  0  0
 25 42  1  0  0  0  0
 25 43  1  0  0  0  0
 25 44  1  0  0  0  0
 26 45  1  0  0  0  0
 27 46  1  0  0  0  0
 27 47  1  0  0  0  0
 28 48  1  0  0  0  0
 28 49  1  0  0  0  0
M  END
> <Name>
33

> <IC50[uM]>
0.008

$$$$
33
  -OEChem-05192314333D
 Structure written by MMmdl.
 49 53  0     0  0  0  0  0  0999 V2000
   -6.3918   12.3765  -12.0158 C   0  0  0  0  0  0  0  0  0  0  0  0
   -6.5335   11.8201  -10.7317 C   0  0  0  0  0  0  0  0  0  0  0  0
   -7.7273   10.5795  -13.0319 C   0  0  0  0  0  0  0  0  0  0  0  0
   -7.0082   11.7773  -13.1176 C   0  0  0  0  0  0  0  0  0  0  0  0
   -7.8294   10.0116  -11.7546 C   0  0  0  0  0  0  0  0  0  0  0  0
   -7.2533   10.6299  -10.5984 C   0  0  0  0  0  0  0  0  0  0  0  0
   -7.6133    9.7501   -9.5115 C   0  0  0  0  0  0  0  0  0  0  0  0
   -8.2802    8.7340   -9.9853 N   0  0  0  0  0  0  0  0  0  0  0  0
   -8.4149    8.8602  -11.2994 N   0  0  0  0  0  0  0  0  0  0  0  0
   -7.3368    9.8898   -8.0240 C   0  0  0  0  0  0  0  0  0  0  0  0
   -4.3580   13.5891  -11.5451 N   0  0  0  0  0  0  0  0  0  0  0  0
   -5.5327   13.6029  -12.2131 C   0  0  0  0  0  0  0  0  0  0  0  0
   -5.8791   14.5089  -12.9726 O   0  0  0  0  0  0  0  0  0  0  0  0
   -5.9622   10.4818   -7.7351 C   0  0  0  0  0  0  0  0  0  0  0  0
   -5.8525   11.7570   -7.1642 C   0  0  0  0  0  0  0  0  0  0  0  0
   -4.5920   12.3049   -6.9193 C   0  0  0  0  0  0  0  0  0  0  0  0
   -3.4386   11.5825   -7.2408 C   0  0  0  0  0  0  0  0  0  0  0  0
   -3.5579   10.3128   -7.8038 C   0  0  0  0  0  0  0  0  0  0  0  0
   -4.8126    9.7642   -8.0521 C   0  0  0  0  0  0  0  0  0  0  0  0
   -2.0919   12.1643   -6.9829 C   0  0  0  0  0  0  0  0  0  0  0  0
   -1.7362   13.4287   -6.5051 C   0  0  0  0  0  0  0  0  0  0  0  0
   -0.4017   13.4552   -6.4435 N   0  0  0  0  0  0  0  0  0  0  0  0
    0.1850   12.3496   -6.8156 N   0  0  0  0  0  0  0  0  0  0  0  0
   -0.8078   11.5460   -7.1722 C   0  0  0  0  0  0  0  0  0  0  0  0
    0.4351   14.5688   -6.0125 C   0  0  0  0  0  0  0  0  0  0  0  0
   -3.3172   14.5865  -11.7755 C   0  0  0  0  0  0  0  0  0  0  0  0
   -1.8924   14.0513  -11.7355 C   0  0  0  0  0  0  0  0  0  0  0  0
   -2.3932   14.9579  -10.6450 C   0  0  0  0  0  0  0  0  0  0  0  0
   -5.5209   11.6327  -10.3450 H   0  0  0  0  0  0  0  0  0  0  0  0
   -7.0320   12.5735  -10.1041 H   0  0  0  0  0  0  0  0  0  0  0  0
   -8.1772   10.1197  -13.8994 H   0  0  0  0  0  0  0  0  0  0  0  0
   -6.9259   12.2608  -14.0798 H   0  0  0  0  0  0  0  0  0  0  0  0
   -8.1022   10.5457   -7.5837 H   0  0  0  0  0  0  0  0  0  0  0  0
   -7.3960    8.8943   -7.5599 H   0  0  0  0  0  0  0  0  0  0  0  0
   -4.1960   12.8702  -10.8691 H   0  0  0  0  0  0  0  0  0  0  0  0
   -6.7424   12.3154   -6.9139 H   0  0  0  0  0  0  0  0  0  0  0  0
   -4.5075   13.2883   -6.4808 H   0  0  0  0  0  0  0  0  0  0  0  0
   -2.6693    9.7502   -8.0493 H   0  0  0  0  0  0  0  0  0  0  0  0
   -4.8943    8.7808   -8.4911 H   0  0  0  0  0  0  0  0  0  0  0  0
   -2.4097   14.2294   -6.2375 H   0  0  0  0  0  0  0  0  0  0  0  0
   -0.6685   10.5471   -7.5584 H   0  0  0  0  0  0  0  0  0  0  0  0
    1.4941   14.2779   -6.0748 H   0  0  0  0  0  0  0  0  0  0  0  0
    0.2544   15.4366   -6.6639 H   0  0  0  0  0  0  0  0  0  0  0  0
    0.1879   14.8324   -4.9736 H   0  0  0  0  0  0  0  0  0  0  0  0
   -3.5215   15.3697  -12.5204 H   0  0  0  0  0  0  0  0  0  0  0  0
   -1.7095   12.9870  -11.5263 H   0  0  0  0  0  0  0  0  0  0  0  0
   -1.1463   14.4168  -12.4564 H   0  0  0  0  0  0  0  0  0  0  0  0
   -2.0084   15.9854  -10.5669 H   0  0  0  0  0  0  0  0  0  0  0  0
   -2.5716   14.5556   -9.6369 H   0  0  0  0  0  0  0  0  0  0  0  0
  1  2  1  0  0  0  0
  1  4  2  0  0  0  0
  1 12  1  0  0  0  0
  2  6  1  0  0  0  0
  3  4  1  0  0  0  0
  3  5  2  0  0  0  0
  5  6  1  0  0  0  0
  5  9  1  0  0  0  0
  6  7  2  0  0  0  0
  7  8  1  0  0  0  0
  7 10  1  0  0  0  0
  8  9  2  0  0  0  0
 10 14  1  0  0  0  0
 11 12  1  0  0  0  0
 11 26  1  0  0  0  0
 12 13  2  0  0  0  0
 14 15  2  0  0  0  0
 14 19  1  0  0  0  0
 15 16  1  0  0  0  0
 16 17  2  0  0  0  0
 17 18  1  0  0  0  0
 17 20  1  0  0  0  0
 18 19  2  0  0  0  0
 20 21  2  0  0  0  0
 20 24  1  0  0  0  0
 21 22  1  0  0  0  0
 22 23  1  0  0  0  0
 22 25  1  0  0  0  0
 23 24  2  0  0  0  0
 26 27  1  0  0  0  0
 26 28  1  0  0  0  0
 27 28  1  0  0  0  0
  2 29  1  0  0  0  0
  2 30  1  0  0  0  0
  3 31  1  0  0  0  0
  4 32  1  0  0  0  0
 10 33  1  0  0  0  0
 10 34  1  0  0  0  0
 11 35  1  0  0  0  0
 15 36  1  0  0  0  0
 16 37  1  0  0  0  0
 18 38  1  0  0  0  0
 19 39  1  0  0  0  0
 21 40  1  0  0  0  0
 24 41  1  0  0  0  0
 25 42  1  0  0  0  0
 25 43  1  0  0  0  0
 25 44  1  0  0  0  0
 26 45  1  0  0  0  0
 27 46  1  0  0  0  0
 27 47  1  0  0  0  0
 28 48  1  0  0  0  0
 28 49  1  0  0  0  0
M  END
> <Name>
33

> <IC50[uM]>
0.008

$$$$
33
  -OEChem-05192314333D
 Structure written by MMmdl.
 49 53  0     1  0  0  0  0  0999 V2000
   -6.3918   12.3765  -12.0158 C   0  0  0  0  0  0  0  0  0  0  0  0
   -6.5335   11.8201  -10.7317 C   0  0  0  0  0  0  0  0  0  0  0  0
   -7.7273   10.5795  -13.0319 C   0  0  0  0  0  0  0  0  0  0  0  0
   -7.0082   11.7773  -13.1176 C   0  0  0  0  0  0  0  0  0  0  0  0
   -7.8294   10.0116  -11.7546 C   0  0  0  0  0  0  0  0  0  0  0  0
   -7.2533   10.6299  -10.5984 C   0  0  3  0  0  0  0  0  0  0  0  0
   -7.6133    9.7501   -9.5115 C   0  0  0  0  0  0  0  0  0  0  0  0
   -8.2802    8.7340   -9.9853 N   0  0  0  0  0  0  0  0  0  0  0  0
   -8.4149    8.8602  -11.2994 N   0  0  0  0  0  0  0  0  0  0  0  0
   -7.3368    9.8898   -8.0240 C   0  0  0  0  0  0  0  0  0  0  0  0
   -4.3580   13.5891  -11.5451 N   0  0  0  0  0  0  0  0  0  0  0  0
   -5.5327   13.6029  -12.2131 C   0  0  0  0  0  0  0  0  0  0  0  0
   -5.8791   14.5089  -12.9726 O   0  0  0  0  0  0  0  0  0  0  0  0
   -5.9622   10.4818   -7.7351 C   0  0  0  0  0  0  0  0  0  0  0  0
   -5.8525   11.7570   -7.1642 C   0  0  0  0  0  0  0  0  0  0  0  0
   -4.5920   12.3049   -6.9193 C   0  0  0  0  0  0  0  0  0  0  0  0
   -3.4386   11.5825   -7.2408 C   0  0  0  0  0  0  0  0  0  0  0  0
   -3.5579   10.3128   -7.8038 C   0  0  0  0  0  0  0  0  0  0  0  0
   -4.8126    9.7642   -8.0521 C   0  0  0  0  0  0  0  0  0  0  0  0
   -2.0919   12.1643   -6.9829 C   0  0  0  0  0  0  0  0  0  0  0  0
   -1.7362   13.4287   -6.5051 C   0  0  0  0  0  0  0  0  0  0  0  0
   -0.4017   13.4552   -6.4435 N   0  0  0  0  0  0  0  0  0  0  0  0
    0.1850   12.3496   -6.8156 N   0  0  0  0  0  0  0  0  0  0  0  0
   -0.8078   11.5460   -7.1722 C   0  0  0  0  0  0  0  0  0  0  0  0
    0.4351   14.5688   -6.0125 C   0  0  0  0  0  0  0  0  0  0  0  0
   -3.3172   14.5865  -11.7755 C   0  0  0  0  0  0  0  0  0  0  0  0
   -1.8924   14.0513  -11.7355 C   0  0  0  0  0  0  0  0  0  0  0  0
   -2.3932   14.9579  -10.6450 C   0  0  0  0  0  0  0  0  0  0  0  0
   -6.0964   12.3014   -9.8693 H   0  0  0  0  0  0  0  0  0  0  0  0
   -8.1772   10.1197  -13.8994 H   0  0  0  0  0  0  0  0  0  0  0  0
   -6.9259   12.2608  -14.0798 H   0  0  0  0  0  0  0  0  0  0  0  0
   -8.1783   11.2044  -10.4423 H   0  0  0  0  0  0  0  0  0  0  0  0
   -8.6361    7.9747   -9.4405 H   0  0  0  0  0  0  0  0  0  0  0  0
   -8.0380    9.6010   -7.2550 H   0  0  0  0  0  0  0  0  0  0  0  0
   -4.1960   12.8702  -10.8691 H   0  0  0  0  0  0  0  0  0  0  0  0
   -6.7424   12.3154   -6.9139 H   0  0  0  0  0  0  0  0  0  0  0  0
   -4.5075   13.2883   -6.4808 H   0  0  0  0  0  0  0  0  0  0  0  0
   -2.6693    9.7502   -8.0493 H   0  0  0  0  0  0  0  0  0  0  0  0
   -4.8943    8.7808   -8.4911 H   0  0  0  0  0  0  0  0  0  0  0  0
   -2.4097   14.2294   -6.2375 H   0  0  0  0  0  0  0  0  0  0  0  0
   -0.6685   10.5471   -7.5584 H   0  0  0  0  0  0  0  0  0  0  0  0
    1.4941   14.2779   -6.0748 H   0  0  0  0  0  0  0  0  0  0  0  0
    0.2544   15.4366   -6.6639 H   0  0  0  0  0  0  0  0  0  0  0  0
    0.1879   14.8324   -4.9736 H   0  0  0  0  0  0  0  0  0  0  0  0
   -3.5215   15.3697  -12.5204 H   0  0  0  0  0  0  0  0  0  0  0  0
   -1.7095   12.9870  -11.5263 H   0  0  0  0  0  0  0  0  0  0  0  0
   -1.1463   14.4168  -12.4564 H   0  0  0  0  0  0  0  0  0  0  0  0
   -2.0084   15.9854  -10.5669 H   0  0  0  0  0  0  0  0  0  0  0  0
   -2.5716   14.5556   -9.6369 H   0  0  0  0  0  0  0  0  0  0  0  0
  1  2  2  0  0  0  0
  1  4  1  0  0  0  0
  1 12  1  0  0  0  0
  2  6  1  0  0  0  0
  3  4  2  0  0  0  0
  3  5  1  0  0  0  0
  5  6  1  0  0  0  0
  5  9  2  0  0  0  0
  6  7  1  0  0  0  0
  7  8  1  0  0  0  0
  7 10  2  3  0  0  0
  8  9  1  0  0  0  0
 10 14  1  0  0  0  0
 11 12  1  0  0  0  0
 11 26  1  0  0  0  0
 12 13  2  0  0  0  0
 14 15  2  0  0  0  0
 14 19  1  0  0  0  0
 15 16  1  0  0  0  0
 16 17  2  0  0  0  0
 17 18  1  0  0  0  0
 17 20  1  0  0  0  0
 18 19  2  0  0  0  0
 20 21  2  0  0  0  0
 20 24  1  0  0  0  0
 21 22  1  0  0  0  0
 22 23  1  0  0  0  0
 22 25  1  0  0  0  0
 23 24  2  0  0  0  0
 26 27  1  0  0  0  0
 26 28  1  0  0  0  0
 27 28  1  0  0  0  0
  2 29  1  0  0  0  0
  3 30  1  0  0  0  0
  4 31  1  0  0  0  0
  6 32  1  0  0  0  0
  8 33  1  0  0  0  0
 10 34  1  0  0  0  0
 11 35  1  0  0  0  0
 15 36  1  0  0  0  0
 16 37  1  0  0  0  0
 18 38  1  0  0  0  0
 19 39  1  0  0  0  0
 21 40  1  0  0  0  0
 24 41  1  0  0  0  0
 25 42  1  0  0  0  0
 25 43  1  0  0  0  0
 25 44  1  0  0  0  0
 26 45  1  0  0  0  0
 27 46  1  0  0  0  0
 27 47  1  0  0  0  0
 28 48  1  0  0  0  0
 28 49  1  0  0  0  0
M  END
> <Name>
33

> <IC50[uM]>
0.008

$$$$
33
  -OEChem-05192314333D
 Structure written by MMmdl.
 49 53  0     0  0  0  0  0  0999 V2000
   -6.3918   12.3765  -12.0158 C   0  0  0  0  0  0  0  0  0  0  0  0
   -6.5335   11.8201  -10.7317 C   0  0  0  0  0  0  0  0  0  0  0  0
   -7.7273   10.5795  -13.0319 C   0  0  0  0  0  0  0  0  0  0  0  0
   -7.0082   11.7773  -13.1176 C   0  0  0  0  0  0  0  0  0  0  0  0
   -7.8294   10.0116  -11.7546 C   0  0  0  0  0  0  0  0  0  0  0  0
   -7.2533   10.6299  -10.5984 C   0  0  0  0  0  0  0  0  0  0  0  0
   -7.6133    9.7501   -9.5115 C   0  0  0  0  0  0  0  0  0  0  0  0
   -8.2802    8.7340   -9.9853 N   0  0  0  0  0  0  0  0  0  0  0  0
   -8.4149    8.8602  -11.2994 N   0  0  0  0  0  0  0  0  0  0  0  0
   -7.3368    9.8898   -8.0240 C   0  0  0  0  0  0  0  0  0  0  0  0
   -4.3580   13.5891  -11.5451 N   0  0  0  0  0  0  0  0  0  0  0  0
   -5.5327   13.6029  -12.2131 C   0  0  0  0  0  0  0  0  0  0  0  0
   -5.8791   14.5089  -12.9726 O   0  0  0  0  0  0  0  0  0  0  0  0
   -5.9622   10.4818   -7.7351 C   0  0  0  0  0  0  0  0  0  0  0  0
   -5.8525   11.7570   -7.1642 C   0  0  0  0  0  0  0  0  0  0  0  0
   -4.5920   12.3049   -6.9193 C   0  0  0  0  0  0  0  0  0  0  0  0
   -3.4386   11.5825   -7.2408 C   0  0  0  0  0  0  0  0  0  0  0  0
   -3.5579   10.3128   -7.8038 C   0  0  0  0  0  0  0  0  0  0  0  0
   -4.8126    9.7642   -8.0521 C   0  0  0  0  0  0  0  0  0  0  0  0
   -2.0919   12.1643   -6.9829 C   0  0  0  0  0  0  0  0  0  0  0  0
   -1.7362   13.4287   -6.5051 C   0  0  0  0  0  0  0  0  0  0  0  0
   -0.4017   13.4552   -6.4435 N   0  0  0  0  0  0  0  0  0  0  0  0
    0.1850   12.3496   -6.8156 N   0  0  0  0  0  0  0  0  0  0  0  0
   -0.8078   11.5460   -7.1722 C   0  0  0  0  0  0  0  0  0  0  0  0
    0.4351   14.5688   -6.0125 C   0  0  0  0  0  0  0  0  0  0  0  0
   -3.3172   14.5865  -11.7755 C   0  0  0  0  0  0  0  0  0  0  0  0
   -1.8924   14.0513  -11.7355 C   0  0  0  0  0  0  0  0  0  0  0  0
   -2.3932   14.9579  -10.6450 C   0  0  0  0  0  0  0  0  0  0  0  0
   -6.0964   12.3014   -9.8693 H   0  0  0  0  0  0  0  0  0  0  0  0
   -8.1772   10.1197  -13.8994 H   0  0  0  0  0  0  0  0  0  0  0  0
   -6.9259   12.2608  -14.0798 H   0  0  0  0  0  0  0  0  0  0  0  0
   -8.0380    9.6010   -7.2550 H   0  0  0  0  0  0  0  0  0  0  0  0
   -5.2205   15.1935  -12.9707 H   0  0  0  0  0  0  0  0  0  0  0  0
   -5.9736   10.0292   -6.7326 H   0  0  0  0  0  0  0  0  0  0  0  0
   -6.7424   12.3154   -6.9139 H   0  0  0  0  0  0  0  0  0  0  0  0
   -4.5075   13.2883   -6.4808 H   0  0  0  0  0  0  0  0  0  0  0  0
   -3.4391   12.0287   -8.2463 H   0  0  0  0  0  0  0  0  0  0  0  0
   -2.6693    9.7502   -8.0493 H   0  0  0  0  0  0  0  0  0  0  0  0
   -4.8943    8.7808   -8.4911 H   0  0  0  0  0  0  0  0  0  0  0  0
   -2.4097   14.2294   -6.2375 H   0  0  0  0  0  0  0  0  0  0  0  0
   -0.6685   10.5471   -7.5584 H   0  0  0  0  0  0  0  0  0  0  0  0
    1.4941   14.2779   -6.0748 H   0  0  0  0  0  0  0  0  0  0  0  0
    0.2544   15.4366   -6.6639 H   0  0  0  0  0  0  0  0  0  0  0  0
    0.1879   14.8324   -4.9736 H   0  0  0  0  0  0  0  0  0  0  0  0
   -3.5215   15.3697  -12.5204 H   0  0  0  0  0  0  0  0  0  0  0  0
   -1.7095   12.9870  -11.5263 H   0  0  0  0  0  0  0  0  0  0  0  0
   -1.1463   14.4168  -12.4564 H   0  0  0  0  0  0  0  0  0  0  0  0
   -2.0084   15.9854  -10.5669 H   0  0  0  0  0  0  0  0  0  0  0  0
   -2.5716   14.5556   -9.6369 H   0  0  0  0  0  0  0  0  0  0  0  0
  1  2  2  0  0  0  0
  1  4  1  0  0  0  0
  1 12  1  0  0  0  0
  2  6  1  0  0  0  0
  3  4  2  0  0  0  0
  3  5  1  0  0  0  0
  5  6  2  0  0  0  0
  5  9  1  0  0  0  0
  6  7  1  0  0  0  0
  7  8  1  0  0  0  0
  7 10  2  3  0  0  0
  8  9  2  0  0  0  0
 10 14  1  0  0  0  0
 11 12  2  0  0  0  0
 11 26  1  0  0  0  0
 12 13  1  0  0  0  0
 14 15  1  0  0  0  0
 14 19  1  0  0  0  0
 15 16  2  0  0  0  0
 16 17  1  0  0  0  0
 17 18  1  0  0  0  0
 17 20  1  0  0  0  0
 18 19  2  0  0  0  0
 20 21  2  0  0  0  0
 20 24  1  0  0  0  0
 21 22  1  0  0  0  0
 22 23  1  0  0  0  0
 22 25  1  0  0  0  0
 23 24  2  0  0  0  0
 26 27  1  0  0  0  0
 26 28  1  0  0  0  0
 27 28  1  0  0  0  0
  2 29  1  0  0  0  0
  3 30  1  0  0  0  0
  4 31  1  0  0  0  0
 10 32  1  0  0  0  0
 13 33  1  0  0  0  0
 14 34  1  0  0  0  0
 15 35  1  0  0  0  0
 16 36  1  0  0  0  0
 17 37  1  0  0  0  0
 18 38  1  0  0  0  0
 19 39  1  0  0  0  0
 21 40  1  0  0  0  0
 24 41  1  0  0  0  0
 25 42  1  0  0  0  0
 25 43  1  0  0  0  0
 25 44  1  0  0  0  0
 26 45  1  0  0  0  0
 27 46  1  0  0  0  0
 27 47  1  0  0  0  0
 28 48  1  0  0  0  0
 28 49  1  0  0  0  0
M  END
> <Name>
33

> <IC50[uM]>
0.008

$$$$
33
  -OEChem-05192314333D
 Structure written by MMmdl.
 49 53  0     1  0  0  0  0  0999 V2000
   -6.3918   12.3765  -12.0158 C   0  0  0  0  0  0  0  0  0  0  0  0
   -6.5335   11.8201  -10.7317 C   0  0  0  0  0  0  0  0  0  0  0  0
   -7.7273   10.5795  -13.0319 C   0  0  0  0  0  0  0  0  0  0  0  0
   -7.0082   11.7773  -13.1176 C   0  0  0  0  0  0  0  0  0  0  0  0
   -7.8294   10.0116  -11.7546 C   0  0  0  0  0  0  0  0  0  0  0  0
   -7.2533   10.6299  -10.5984 C   0  0  0  0  0  0  0  0  0  0  0  0
   -7.6133    9.7501   -9.5115 C   0  0  3  0  0  0  0  0  0  0  0  0
   -8.2802    8.7340   -9.9853 N   0  0  0  0  0  0  0  0  0  0  0  0
   -8.4149    8.8602  -11.2994 N   0  0  0  0  0  0  0  0  0  0  0  0
   -7.3368    9.8898   -8.0240 C   0  0  0  0  0  0  0  0  0  0  0  0
   -4.3580   13.5891  -11.5451 N   0  0  0  0  0  0  0  0  0  0  0  0
   -5.5327   13.6029  -12.2131 C   0  0  0  0  0  0  0  0  0  0  0  0
   -5.8791   14.5089  -12.9726 O   0  0  0  0  0  0  0  0  0  0  0  0
   -5.9622   10.4818   -7.7351 C   0  0  0  0  0  0  0  0  0  0  0  0
   -5.8525   11.7570   -7.1642 C   0  0  0  0  0  0  0  0  0  0  0  0
   -4.5920   12.3049   -6.9193 C   0  0  0  0  0  0  0  0  0  0  0  0
   -3.4386   11.5825   -7.2408 C   0  0  0  0  0  0  0  0  0  0  0  0
   -3.5579   10.3128   -7.8038 C   0  0  0  0  0  0  0  0  0  0  0  0
   -4.8126    9.7642   -8.0521 C   0  0  0  0  0  0  0  0  0  0  0  0
   -2.0919   12.1643   -6.9829 C   0  0  0  0  0  0  0  0  0  0  0  0
   -1.7362   13.4287   -6.5051 C   0  0  0  0  0  0  0  0  0  0  0  0
   -0.4017   13.4552   -6.4435 N   0  0  0  0  0  0  0  0  0  0  0  0
    0.1850   12.3496   -6.8156 N   0  0  0  0  0  0  0  0  0  0  0  0
   -0.8078   11.5460   -7.1722 C   0  0  0  0  0  0  0  0  0  0  0  0
    0.4351   14.5688   -6.0125 C   0  0  0  0  0  0  0  0  0  0  0  0
   -3.3172   14.5865  -11.7755 C   0  0  0  0  0  0  0  0  0  0  0  0
   -1.8924   14.0513  -11.7355 C   0  0  0  0  0  0  0  0  0  0  0  0
   -2.3932   14.9579  -10.6450 C   0  0  0  0  0  0  0  0  0  0  0  0
   -6.0964   12.3014   -9.8693 H   0  0  0  0  0  0  0  0  0  0  0  0
   -8.1772   10.1197  -13.8994 H   0  0  0  0  0  0  0  0  0  0  0  0
   -6.9259   12.2608  -14.0798 H   0  0  0  0  0  0  0  0  0  0  0  0
   -6.6705    9.1980   -9.6396 H   0  0  0  0  0  0  0  0  0  0  0  0
   -8.0380    9.6010   -7.2550 H   0  0  0  0  0  0  0  0  0  0  0  0
   -5.2205   15.1935  -12.9707 H   0  0  0  0  0  0  0  0  0  0  0  0
   -6.7424   12.3154   -6.9139 H   0  0  0  0  0  0  0  0  0  0  0  0
   -4.5075   13.2883   -6.4808 H   0  0  0  0  0  0  0  0  0  0  0  0
   -3.4391   12.0287   -8.2463 H   0  0  0  0  0  0  0  0  0  0  0  0
   -2.6693    9.7502   -8.0493 H   0  0  0  0  0  0  0  0  0  0  0  0
   -4.8943    8.7808   -8.4911 H   0  0  0  0  0  0  0  0  0  0  0  0
   -2.4097   14.2294   -6.2375 H   0  0  0  0  0  0  0  0  0  0  0  0
   -0.6685   10.5471   -7.5584 H   0  0  0  0  0  0  0  0  0  0  0  0
    1.4941   14.2779   -6.0748 H   0  0  0  0  0  0  0  0  0  0  0  0
    0.2544   15.4366   -6.6639 H   0  0  0  0  0  0  0  0  0  0  0  0
    0.1879   14.8324   -4.9736 H   0  0  0  0  0  0  0  0  0  0  0  0
   -3.5215   15.3697  -12.5204 H   0  0  0  0  0  0  0  0  0  0  0  0
   -1.7095   12.9870  -11.5263 H   0  0  0  0  0  0  0  0  0  0  0  0
   -1.1463   14.4168  -12.4564 H   0  0  0  0  0  0  0  0  0  0  0  0
   -2.0084   15.9854  -10.5669 H   0  0  0  0  0  0  0  0  0  0  0  0
   -2.5716   14.5556   -9.6369 H   0  0  0  0  0  0  0  0  0  0  0  0
  1  2  2  0  0  0  0
  1  4  1  0  0  0  0
  1 12  1  0  0  0  0
  2  6  1  0  0  0  0
  3  4  2  0  0  0  0
  3  5  1  0  0  0  0
  5  6  2  0  0  0  0
  5  9  1  0  0  0  0
  6  7  1  0  0  0  0
  7  8  1  0  0  0  0
  7 10  1  0  0  0  0
  8  9  2  0  0  0  0
 10 14  2  0  0  0  0
 11 12  2  0  0  0  0
 11 26  1  0  0  0  0
 12 13  1  0  0  0  0
 14 15  1  0  0  0  0
 14 19  1  0  0  0  0
 15 16  2  0  0  0  0
 16 17  1  0  0  0  0
 17 18  1  0  0  0  0
 17 20  1  0  0  0  0
 18 19  2  0  0  0  0
 20 21  2  0  0  0  0
 20 24  1  0  0  0  0
 21 22  1  0  0  0  0
 22 23  1  0  0  0  0
 22 25  1  0  0  0  0
 23 24  2  0  0  0  0
 26 27  1  0  0  0  0
 26 28  1  0  0  0  0
 27 28  1  0  0  0  0
  2 29  1  0  0  0  0
  3 30  1  0  0  0  0
  4 31  1  0  0  0  0
  7 32  1  0  0  0  0
 10 33  1  0  0  0  0
 13 34  1  0  0  0  0
 15 35  1  0  0  0  0
 16 36  1  0  0  0  0
 17 37  1  0  0  0  0
 18 38  1  0  0  0  0
 19 39  1  0  0  0  0
 21 40  1  0  0  0  0
 24 41  1  0  0  0  0
 25 42  1  0  0  0  0
 25 43  1  0  0  0  0
 25 44  1  0  0  0  0
 26 45  1  0  0  0  0
 27 46  1  0  0  0  0
 27 47  1  0  0  0  0
 28 48  1  0  0  0  0
 28 49  1  0  0  0  0
M  END
> <Name>
33

> <IC50[uM]>
0.008

$$$$
33
  -OEChem-05192314333D
 Structure written by MMmdl.
 49 53  0     1  0  0  0  0  0999 V2000
   -6.3918   12.3765  -12.0158 C   0  0  3  0  0  0  0  0  0  0  0  0
   -6.5335   11.8201  -10.7317 C   0  0  0  0  0  0  0  0  0  0  0  0
   -7.7273   10.5795  -13.0319 C   0  0  0  0  0  0  0  0  0  0  0  0
   -7.0082   11.7773  -13.1176 C   0  0  0  0  0  0  0  0  0  0  0  0
   -7.8294   10.0116  -11.7546 C   0  0  3  0  0  0  0  0  0  0  0  0
   -7.2533   10.6299  -10.5984 C   0  0  0  0  0  0  0  0  0  0  0  0
   -7.6133    9.7501   -9.5115 C   0  0  0  0  0  0  0  0  0  0  0  0
   -8.2802    8.7340   -9.9853 N   0  0  0  0  0  0  0  0  0  0  0  0
   -8.4149    8.8602  -11.2994 N   0  0  0  0  0  0  0  0  0  0  0  0
   -7.3368    9.8898   -8.0240 C   0  0  0  0  0  0  0  0  0  0  0  0
   -4.3580   13.5891  -11.5451 N   0  0  0  0  0  0  0  0  0  0  0  0
   -5.5327   13.6029  -12.2131 C   0  0  0  0  0  0  0  0  0  0  0  0
   -5.8791   14.5089  -12.9726 O   0  0  0  0  0  0  0  0  0  0  0  0
   -5.9622   10.4818   -7.7351 C   0  0  0  0  0  0  0  0  0  0  0  0
   -5.8525   11.7570   -7.1642 C   0  0  0  0  0  0  0  0  0  0  0  0
   -4.5920   12.3049   -6.9193 C   0  0  0  0  0  0  0  0  0  0  0  0
   -3.4386   11.5825   -7.2408 C   0  0  0  0  0  0  0  0  0  0  0  0
   -3.5579   10.3128   -7.8038 C   0  0  0  0  0  0  0  0  0  0  0  0
   -4.8126    9.7642   -8.0521 C   0  0  0  0  0  0  0  0  0  0  0  0
   -2.0919   12.1643   -6.9829 C   0  0  0  0  0  0  0  0  0  0  0  0
   -1.7362   13.4287   -6.5051 C   0  0  0  0  0  0  0  0  0  0  0  0
   -0.4017   13.4552   -6.4435 N   0  0  0  0  0  0  0  0  0  0  0  0
    0.1850   12.3496   -6.8156 N   0  0  0  0  0  0  0  0  0  0  0  0
   -0.8078   11.5460   -7.1722 C   0  0  0  0  0  0  0  0  0  0  0  0
    0.4351   14.5688   -6.0125 C   0  0  0  0  0  0  0  0  0  0  0  0
   -3.3172   14.5865  -11.7755 C   0  0  0  0  0  0  0  0  0  0  0  0
   -1.8924   14.0513  -11.7355 C   0  0  0  0  0  0  0  0  0  0  0  0
   -2.3932   14.9579  -10.6450 C   0  0  0  0  0  0  0  0  0  0  0  0
   -7.2761   13.0097  -11.8512 H   0  0  0  0  0  0  0  0  0  0  0  0
   -6.0964   12.3014   -9.8693 H   0  0  0  0  0  0  0  0  0  0  0  0
   -8.1772   10.1197  -13.8994 H   0  0  0  0  0  0  0  0  0  0  0  0
   -6.9259   12.2608  -14.0798 H   0  0  0  0  0  0  0  0  0  0  0  0
   -8.7677   10.5596  -11.5832 H   0  0  0  0  0  0  0  0  0  0  0  0
   -8.0380    9.6010   -7.2550 H   0  0  0  0  0  0  0  0  0  0  0  0
   -5.2205   15.1935  -12.9707 H   0  0  0  0  0  0  0  0  0  0  0  0
   -6.7424   12.3154   -6.9139 H   0  0  0  0  0  0  0  0  0  0  0  0
   -4.5075   13.2883   -6.4808 H   0  0  0  0  0  0  0  0  0  0  0  0
   -2.6693    9.7502   -8.0493 H   0  0  0  0  0  0  0  0  0  0  0  0
   -4.8943    8.7808   -8.4911 H   0  0  0  0  0  0  0  0  0  0  0  0
   -2.4097   14.2294   -6.2375 H   0  0  0  0  0  0  0  0  0  0  0  0
   -0.6685   10.5471   -7.5584 H   0  0  0  0  0  0  0  0  0  0  0  0
    1.4941   14.2779   -6.0748 H   0  0  0  0  0  0  0  0  0  0  0  0
    0.2544   15.4366   -6.6639 H   0  0  0  0  0  0  0  0  0  0  0  0
    0.1879   14.8324   -4.9736 H   0  0  0  0  0  0  0  0  0  0  0  0
   -3.5215   15.3697  -12.5204 H   0  0  0  0  0  0  0  0  0  0  0  0
   -1.7095   12.9870  -11.5263 H   0  0  0  0  0  0  0  0  0  0  0  0
   -1.1463   14.4168  -12.4564 H   0  0  0  0  0  0  0  0  0  0  0  0
   -2.0084   15.9854  -10.5669 H   0  0  0  0  0  0  0  0  0  0  0  0
   -2.5716   14.5556   -9.6369 H   0  0  0  0  0  0  0  0  0  0  0  0
  1  2  1  0  0  0  0
  1  4  1  0  0  0  0
  1 12  1  0  0  0  0
  2  6  2  0  0  0  0
  3  4  2  0  0  0  0
  3  5  1  0  0  0  0
  5  6  1  0  0  0  0
  5  9  1  0  0  0  0
  6  7  1  0  0  0  0
  7  8  1  0  0  0  0
  7 10  2  3  0  0  0
  8  9  2  0  0  0  0
 10 14  1  0  0  0  0
 11 12  2  0  0  0  0
 11 26  1  0  0  0  0
 12 13  1  0  0  0  0
 14 15  2  0  0  0  0
 14 19  1  0  0  0  0
 15 16  1  0  0  0  0
 16 17  2  0  0  0  0
 17 18  1  0  0  0  0
 17 20  1  0  0  0  0
 18 19  2  0  0  0  0
 20 21  2  0  0  0  0
 20 24  1  0  0  0  0
 21 22  1  0  0  0  0
 22 23  1  0  0  0  0
 22 25  1  0  0  0  0
 23 24  2  0  0  0  0
 26 27  1  0  0  0  0
 26 28  1  0  0  0  0
 27 28  1  0  0  0  0
  1 29  1  0  0  0  0
  2 30  1  0  0  0  0
  3 31  1  0  0  0  0
  4 32  1  0  0  0  0
  5 33  1  0  0  0  0
 10 34  1  0  0  0  0
 13 35  1  0  0  0  0
 15 36  1  0  0  0  0
 16 37  1  0  0  0  0
 18 38  1  0  0  0  0
 19 39  1  0  0  0  0
 21 40  1  0  0  0  0
 24 41  1  0  0  0  0
 25 42  1  0  0  0  0
 25 43  1  0  0  0  0
 25 44  1  0  0  0  0
 26 45  1  0  0  0  0
 27 46  1  0  0  0  0
 27 47  1  0  0  0  0
 28 48  1  0  0  0  0
 28 49  1  0  0  0  0
M  END
> <Name>
33

> <IC50[uM]>
0.008

$$$$
33
  -OEChem-05192314333D
 Structure written by MMmdl.
 49 53  0     1  0  0  0  0  0999 V2000
   -6.3918   12.3765  -12.0158 C   0  0  0  0  0  0  0  0  0  0  0  0
   -6.5335   11.8201  -10.7317 C   0  0  0  0  0  0  0  0  0  0  0  0
   -7.7273   10.5795  -13.0319 C   0  0  0  0  0  0  0  0  0  0  0  0
   -7.0082   11.7773  -13.1176 C   0  0  0  0  0  0  0  0  0  0  0  0
   -7.8294   10.0116  -11.7546 C   0  0  3  0  0  0  0  0  0  0  0  0
   -7.2533   10.6299  -10.5984 C   0  0  3  0  0  0  0  0  0  0  0  0
   -7.6133    9.7501   -9.5115 C   0  0  0  0  0  0  0  0  0  0  0  0
   -8.2802    8.7340   -9.9853 N   0  0  0  0  0  0  0  0  0  0  0  0
   -8.4149    8.8602  -11.2994 N   0  0  0  0  0  0  0  0  0  0  0  0
   -7.3368    9.8898   -8.0240 C   0  0  0  0  0  0  0  0  0  0  0  0
   -4.3580   13.5891  -11.5451 N   0  0  0  0  0  0  0  0  0  0  0  0
   -5.5327   13.6029  -12.2131 C   0  0  0  0  0  0  0  0  0  0  0  0
   -5.8791   14.5089  -12.9726 O   0  0  0  0  0  0  0  0  0  0  0  0
   -5.9622   10.4818   -7.7351 C   0  0  0  0  0  0  0  0  0  0  0  0
   -5.8525   11.7570   -7.1642 C   0  0  0  0  0  0  0  0  0  0  0  0
   -4.5920   12.3049   -6.9193 C   0  0  0  0  0  0  0  0  0  0  0  0
   -3.4386   11.5825   -7.2408 C   0  0  0  0  0  0  0  0  0  0  0  0
   -3.5579   10.3128   -7.8038 C   0  0  0  0  0  0  0  0  0  0  0  0
   -4.8126    9.7642   -8.0521 C   0  0  0  0  0  0  0  0  0  0  0  0
   -2.0919   12.1643   -6.9829 C   0  0  0  0  0  0  0  0  0  0  0  0
   -1.7362   13.4287   -6.5051 C   0  0  0  0  0  0  0  0  0  0  0  0
   -0.4017   13.4552   -6.4435 N   0  0  0  0  0  0  0  0  0  0  0  0
    0.1850   12.3496   -6.8156 N   0  0  0  0  0  0  0  0  0  0  0  0
   -0.8078   11.5460   -7.1722 C   0  0  0  0  0  0  0  0  0  0  0  0
    0.4351   14.5688   -6.0125 C   0  0  0  0  0  0  0  0  0  0  0  0
   -3.3172   14.5865  -11.7755 C   0  0  0  0  0  0  0  0  0  0  0  0
   -1.8924   14.0513  -11.7355 C   0  0  0  0  0  0  0  0  0  0  0  0
   -2.3932   14.9579  -10.6450 C   0  0  0  0  0  0  0  0  0  0  0  0
   -6.0964   12.3014   -9.8693 H   0  0  0  0  0  0  0  0  0  0  0  0
   -8.1772   10.1197  -13.8994 H   0  0  0  0  0  0  0  0  0  0  0  0
   -6.9259   12.2608  -14.0798 H   0  0  0  0  0  0  0  0  0  0  0  0
   -8.7677   10.5596  -11.5832 H   0  0  0  0  0  0  0  0  0  0  0  0
   -8.1783   11.2044  -10.4423 H   0  0  0  0  0  0  0  0  0  0  0  0
   -8.0380    9.6010   -7.2550 H   0  0  0  0  0  0  0  0  0  0  0  0
   -5.2205   15.1935  -12.9707 H   0  0  0  0  0  0  0  0  0  0  0  0
   -6.7424   12.3154   -6.9139 H   0  0  0  0  0  0  0  0  0  0  0  0
   -4.5075   13.2883   -6.4808 H   0  0  0  0  0  0  0  0  0  0  0  0
   -2.6693    9.7502   -8.0493 H   0  0  0  0  0  0  0  0  0  0  0  0
   -4.8943    8.7808   -8.4911 H   0  0  0  0  0  0  0  0  0  0  0  0
   -2.4097   14.2294   -6.2375 H   0  0  0  0  0  0  0  0  0  0  0  0
   -0.6685   10.5471   -7.5584 H   0  0  0  0  0  0  0  0  0  0  0  0
    1.4941   14.2779   -6.0748 H   0  0  0  0  0  0  0  0  0  0  0  0
    0.2544   15.4366   -6.6639 H   0  0  0  0  0  0  0  0  0  0  0  0
    0.1879   14.8324   -4.9736 H   0  0  0  0  0  0  0  0  0  0  0  0
   -3.5215   15.3697  -12.5204 H   0  0  0  0  0  0  0  0  0  0  0  0
   -1.7095   12.9870  -11.5263 H   0  0  0  0  0  0  0  0  0  0  0  0
   -1.1463   14.4168  -12.4564 H   0  0  0  0  0  0  0  0  0  0  0  0
   -2.0084   15.9854  -10.5669 H   0  0  0  0  0  0  0  0  0  0  0  0
   -2.5716   14.5556   -9.6369 H   0  0  0  0  0  0  0  0  0  0  0  0
  1  2  2  0  0  0  0
  1  4  1  0  0  0  0
  1 12  1  0  0  0  0
  2  6  1  0  0  0  0
  3  4  2  0  0  0  0
  3  5  1  0  0  0  0
  5  6  1  0  0  0  0
  5  9  1  0  0  0  0
  6  7  1  0  0  0  0
  7  8  1  0  0  0  0
  7 10  2  3  0  0  0
  8  9  2  0  0  0  0
 10 14  1  0  0  0  0
 11 12  2  0  0  0  0
 11 26  1  0  0  0  0
 12 13  1  0  0  0  0
 14 15  2  0  0  0  0
 14 19  1  0  0  0  0
 15 16  1  0  0  0  0
 16 17  2  0  0  0  0
 17 18  1  0  0  0  0
 17 20  1  0  0  0  0
 18 19  2  0  0  0  0
 20 21  2  0  0  0  0
 20 24  1  0  0  0  0
 21 22  1  0  0  0  0
 22 23  1  0  0  0  0
 22 25  1  0  0  0  0
 23 24  2  0  0  0  0
 26 27  1  0  0  0  0
 26 28  1  0  0  0  0
 27 28  1  0  0  0  0
  2 29  1  0  0  0  0
  3 30  1  0  0  0  0
  4 31  1  0  0  0  0
  5 32  1  0  0  0  0
  6 33  1  0  0  0  0
 10 34  1  0  0  0  0
 13 35  1  0  0  0  0
 15 36  1  0  0  0  0
 16 37  1  0  0  0  0
 18 38  1  0  0  0  0
 19 39  1  0  0  0  0
 21 40  1  0  0  0  0
 24 41  1  0  0  0  0
 25 42  1  0  0  0  0
 25 43  1  0  0  0  0
 25 44  1  0  0  0  0
 26 45  1  0  0  0  0
 27 46  1  0  0  0  0
 27 47  1  0  0  0  0
 28 48  1  0  0  0  0
 28 49  1  0  0  0  0
M  END
> <Name>
33

> <IC50[uM]>
0.008

$$$$
33
  -OEChem-05192314333D
 Structure written by MMmdl.
 49 53  0     1  0  0  0  0  0999 V2000
   -6.3918   12.3765  -12.0158 C   0  0  0  0  0  0  0  0  0  0  0  0
   -6.5335   11.8201  -10.7317 C   0  0  0  0  0  0  0  0  0  0  0  0
   -7.7273   10.5795  -13.0319 C   0  0  0  0  0  0  0  0  0  0  0  0
   -7.0082   11.7773  -13.1176 C   0  0  0  0  0  0  0  0  0  0  0  0
   -7.8294   10.0116  -11.7546 C   0  0  3  0  0  0  0  0  0  0  0  0
   -7.2533   10.6299  -10.5984 C   0  0  0  0  0  0  0  0  0  0  0  0
   -7.6133    9.7501   -9.5115 C   0  0  0  0  0  0  0  0  0  0  0  0
   -8.2802    8.7340   -9.9853 N   0  0  0  0  0  0  0  0  0  0  0  0
   -8.4149    8.8602  -11.2994 N   0  0  0  0  0  0  0  0  0  0  0  0
   -7.3368    9.8898   -8.0240 C   0  0  0  0  0  0  0  0  0  0  0  0
   -4.3580   13.5891  -11.5451 N   0  0  0  0  0  0  0  0  0  0  0  0
   -5.5327   13.6029  -12.2131 C   0  0  0  0  0  0  0  0  0  0  0  0
   -5.8791   14.5089  -12.9726 O   0  0  0  0  0  0  0  0  0  0  0  0
   -5.9622   10.4818   -7.7351 C   0  0  0  0  0  0  0  0  0  0  0  0
   -5.8525   11.7570   -7.1642 C   0  0  0  0  0  0  0  0  0  0  0  0
   -4.5920   12.3049   -6.9193 C   0  0  0  0  0  0  0  0  0  0  0  0
   -3.4386   11.5825   -7.2408 C   0  0  0  0  0  0  0  0  0  0  0  0
   -3.5579   10.3128   -7.8038 C   0  0  0  0  0  0  0  0  0  0  0  0
   -4.8126    9.7642   -8.0521 C   0  0  0  0  0  0  0  0  0  0  0  0
   -2.0919   12.1643   -6.9829 C   0  0  0  0  0  0  0  0  0  0  0  0
   -1.7362   13.4287   -6.5051 C   0  0  0  0  0  0  0  0  0  0  0  0
   -0.4017   13.4552   -6.4435 N   0  0  0  0  0  0  0  0  0  0  0  0
    0.1850   12.3496   -6.8156 N   0  0  0  0  0  0  0  0  0  0  0  0
   -0.8078   11.5460   -7.1722 C   0  0  0  0  0  0  0  0  0  0  0  0
    0.4351   14.5688   -6.0125 C   0  0  0  0  0  0  0  0  0  0  0  0
   -3.3172   14.5865  -11.7755 C   0  0  0  0  0  0  0  0  0  0  0  0
   -1.8924   14.0513  -11.7355 C   0  0  0  0  0  0  0  0  0  0  0  0
   -2.3932   14.9579  -10.6450 C   0  0  0  0  0  0  0  0  0  0  0  0
   -6.0964   12.3014   -9.8693 H   0  0  0  0  0  0  0  0  0  0  0  0
   -8.7470   10.7729  -13.3962 H   0  0  0  0  0  0  0  0  0  0  0  0
   -7.2367    9.8453  -13.6879 H   0  0  0  0  0  0  0  0  0  0  0  0
   -6.9259   12.2608  -14.0798 H   0  0  0  0  0  0  0  0  0  0  0  0
   -8.7677   10.5596  -11.5832 H   0  0  0  0  0  0  0  0  0  0  0  0
   -8.0380    9.6010   -7.2550 H   0  0  0  0  0  0  0  0  0  0  0  0
   -5.2205   15.1935  -12.9707 H   0  0  0  0  0  0  0  0  0  0  0  0
   -6.7424   12.3154   -6.9139 H   0  0  0  0  0  0  0  0  0  0  0  0
   -4.5075   13.2883   -6.4808 H   0  0  0  0  0  0  0  0  0  0  0  0
   -2.6693    9.7502   -8.0493 H   0  0  0  0  0  0  0  0  0  0  0  0
   -4.8943    8.7808   -8.4911 H   0  0  0  0  0  0  0  0  0  0  0  0
   -2.4097   14.2294   -6.2375 H   0  0  0  0  0  0  0  0  0  0  0  0
   -0.6685   10.5471   -7.5584 H   0  0  0  0  0  0  0  0  0  0  0  0
    1.4941   14.2779   -6.0748 H   0  0  0  0  0  0  0  0  0  0  0  0
    0.2544   15.4366   -6.6639 H   0  0  0  0  0  0  0  0  0  0  0  0
    0.1879   14.8324   -4.9736 H   0  0  0  0  0  0  0  0  0  0  0  0
   -3.5215   15.3697  -12.5204 H   0  0  0  0  0  0  0  0  0  0  0  0
   -1.7095   12.9870  -11.5263 H   0  0  0  0  0  0  0  0  0  0  0  0
   -1.1463   14.4168  -12.4564 H   0  0  0  0  0  0  0  0  0  0  0  0
   -2.0084   15.9854  -10.5669 H   0  0  0  0  0  0  0  0  0  0  0  0
   -2.5716   14.5556   -9.6369 H   0  0  0  0  0  0  0  0  0  0  0  0
  1  2  1  0  0  0  0
  1  4  2  0  0  0  0
  1 12  1  0  0  0  0
  2  6  2  0  0  0  0
  3  4  1  0  0  0  0
  3  5  1  0  0  0  0
  5  6  1  0  0  0  0
  5  9  1  0  0  0  0
  6  7  1  0  0  0  0
  7  8  1  0  0  0  0
  7 10  2  3  0  0  0
  8  9  2  0  0  0  0
 10 14  1  0  0  0  0
 11 12  2  0  0  0  0
 11 26  1  0  0  0  0
 12 13  1  0  0  0  0
 14 15  2  0  0  0  0
 14 19  1  0  0  0  0
 15 16  1  0  0  0  0
 16 17  2  0  0  0  0
 17 18  1  0  0  0  0
 17 20  1  0  0  0  0
 18 19  2  0  0  0  0
 20 21  2  0  0  0  0
 20 24  1  0  0  0  0
 21 22  1  0  0  0  0
 22 23  1  0  0  0  0
 22 25  1  0  0  0  0
 23 24  2  0  0  0  0
 26 27  1  0  0  0  0
 26 28  1  0  0  0  0
 27 28  1  0  0  0  0
  2 29  1  0  0  0  0
  3 30  1  0  0  0  0
  3 31  1  0  0  0  0
  4 32  1  0  0  0  0
  5 33  1  0  0  0  0
 10 34  1  0  0  0  0
 13 35  1  0  0  0  0
 15 36  1  0  0  0  0
 16 37  1  0  0  0  0
 18 38  1  0  0  0  0
 19 39  1  0  0  0  0
 21 40  1  0  0  0  0
 24 41  1  0  0  0  0
 25 42  1  0  0  0  0
 25 43  1  0  0  0  0
 25 44  1  0  0  0  0
 26 45  1  0  0  0  0
 27 46  1  0  0  0  0
 27 47  1  0  0  0  0
 28 48  1  0  0  0  0
 28 49  1  0  0  0  0
M  END
> <Name>
33

> <IC50[uM]>
0.008

$$$$
33
  -OEChem-05192314333D
 Structure written by MMmdl.
 49 53  0     1  0  0  0  0  0999 V2000
   -6.3918   12.3765  -12.0158 C   0  0  0  0  0  0  0  0  0  0  0  0
   -6.5335   11.8201  -10.7317 C   0  0  0  0  0  0  0  0  0  0  0  0
   -7.7273   10.5795  -13.0319 C   0  0  0  0  0  0  0  0  0  0  0  0
   -7.0082   11.7773  -13.1176 C   0  0  0  0  0  0  0  0  0  0  0  0
   -7.8294   10.0116  -11.7546 C   0  0  0  0  0  0  0  0  0  0  0  0
   -7.2533   10.6299  -10.5984 C   0  0  0  0  0  0  0  0  0  0  0  0
   -7.6133    9.7501   -9.5115 C   0  0  0  0  0  0  0  0  0  0  0  0
   -8.2802    8.7340   -9.9853 N   0  0  0  0  0  0  0  0  0  0  0  0
   -8.4149    8.8602  -11.2994 N   0  0  0  0  0  0  0  0  0  0  0  0
   -7.3368    9.8898   -8.0240 C   0  0  0  0  0  0  0  0  0  0  0  0
   -4.3580   13.5891  -11.5451 N   0  0  0  0  0  0  0  0  0  0  0  0
   -5.5327   13.6029  -12.2131 C   0  0  0  0  0  0  0  0  0  0  0  0
   -5.8791   14.5089  -12.9726 O   0  0  0  0  0  0  0  0  0  0  0  0
   -5.9622   10.4818   -7.7351 C   0  0  0  0  0  0  0  0  0  0  0  0
   -5.8525   11.7570   -7.1642 C   0  0  0  0  0  0  0  0  0  0  0  0
   -4.5920   12.3049   -6.9193 C   0  0  0  0  0  0  0  0  0  0  0  0
   -3.4386   11.5825   -7.2408 C   0  0  3  0  0  0  0  0  0  0  0  0
   -3.5579   10.3128   -7.8038 C   0  0  0  0  0  0  0  0  0  0  0  0
   -4.8126    9.7642   -8.0521 C   0  0  0  0  0  0  0  0  0  0  0  0
   -2.0919   12.1643   -6.9829 C   0  0  0  0  0  0  0  0  0  0  0  0
   -1.7362   13.4287   -6.5051 C   0  0  0  0  0  0  0  0  0  0  0  0
   -0.4017   13.4552   -6.4435 N   0  0  0  0  0  0  0  0  0  0  0  0
    0.1850   12.3496   -6.8156 N   0  0  0  0  0  0  0  0  0  0  0  0
   -0.8078   11.5460   -7.1722 C   0  0  0  0  0  0  0  0  0  0  0  0
    0.4351   14.5688   -6.0125 C   0  0  0  0  0  0  0  0  0  0  0  0
   -3.3172   14.5865  -11.7755 C   0  0  0  0  0  0  0  0  0  0  0  0
   -1.8924   14.0513  -11.7355 C   0  0  0  0  0  0  0  0  0  0  0  0
   -2.3932   14.9579  -10.6450 C   0  0  0  0  0  0  0  0  0  0  0  0
   -6.0964   12.3014   -9.8693 H   0  0  0  0  0  0  0  0  0  0  0  0
   -8.1772   10.1197  -13.8994 H   0  0  0  0  0  0  0  0  0  0  0  0
   -6.9259   12.2608  -14.0798 H   0  0  0  0  0  0  0  0  0  0  0  0
   -8.0380    9.6010   -7.2550 H   0  0  0  0  0  0  0  0  0  0  0  0
   -5.2205   15.1935  -12.9707 H   0  0  0  0  0  0  0  0  0  0  0  0
   -6.7424   12.3154   -6.9139 H   0  0  0  0  0  0  0  0  0  0  0  0
   -4.5419   13.2489   -7.4818 H   0  0  0  0  0  0  0  0  0  0  0  0
   -4.5427   12.5174   -5.8412 H   0  0  0  0  0  0  0  0  0  0  0  0
   -3.4391   12.0287   -8.2463 H   0  0  0  0  0  0  0  0  0  0  0  0
   -2.6693    9.7502   -8.0493 H   0  0  0  0  0  0  0  0  0  0  0  0
   -4.8943    8.7808   -8.4911 H   0  0  0  0  0  0  0  0  0  0  0  0
   -2.4097   14.2294   -6.2375 H   0  0  0  0  0  0  0  0  0  0  0  0
   -0.6685   10.5471   -7.5584 H   0  0  0  0  0  0  0  0  0  0  0  0
    1.4941   14.2779   -6.0748 H   0  0  0  0  0  0  0  0  0  0  0  0
    0.2544   15.4366   -6.6639 H   0  0  0  0  0  0  0  0  0  0  0  0
    0.1879   14.8324   -4.9736 H   0  0  0  0  0  0  0  0  0  0  0  0
   -3.5215   15.3697  -12.5204 H   0  0  0  0  0  0  0  0  0  0  0  0
   -1.7095   12.9870  -11.5263 H   0  0  0  0  0  0  0  0  0  0  0  0
   -1.1463   14.4168  -12.4564 H   0  0  0  0  0  0  0  0  0  0  0  0
   -2.0084   15.9854  -10.5669 H   0  0  0  0  0  0  0  0  0  0  0  0
   -2.5716   14.5556   -9.6369 H   0  0  0  0  0  0  0  0  0  0  0  0
  1  2  2  0  0  0  0
  1  4  1  0  0  0  0
  1 12  1  0  0  0  0
  2  6  1  0  0  0  0
  3  4  2  0  0  0  0
  3  5  1  0  0  0  0
  5  6  2  0  0  0  0
  5  9  1  0  0  0  0
  6  7  1  0  0  0  0
  7  8  1  0  0  0  0
  7 10  2  3  0  0  0
  8  9  2  0  0  0  0
 10 14  1  0  0  0  0
 11 12  2  0  0  0  0
 11 26  1  0  0  0  0
 12 13  1  0  0  0  0
 14 15  2  0  0  0  0
 14 19  1  0  0  0  0
 15 16  1  0  0  0  0
 16 17  1  0  0  0  0
 17 18  1  0  0  0  0
 17 20  1  0  0  0  0
 18 19  2  0  0  0  0
 20 21  2  0  0  0  0
 20 24  1  0  0  0  0
 21 22  1  0  0  0  0
 22 23  1  0  0  0  0
 22 25  1  0  0  0  0
 23 24  2  0  0  0  0
 26 27  1  0  0  0  0
 26 28  1  0  0  0  0
 27 28  1  0  0  0  0
  2 29  1  0  0  0  0
  3 30  1  0  0  0  0
  4 31  1  0  0  0  0
 10 32  1  0  0  0  0
 13 33  1  0  0  0  0
 15 34  1  0  0  0  0
 16 35  1  0  0  0  0
 16 36  1  0  0  0  0
 17 37  1  0  0  0  0
 18 38  1  0  0  0  0
 19 39  1  0  0  0  0
 21 40  1  0  0  0  0
 24 41  1  0  0  0  0
 25 42  1  0  0  0  0
 25 43  1  0  0  0  0
 25 44  1  0  0  0  0
 26 45  1  0  0  0  0
 27 46  1  0  0  0  0
 27 47  1  0  0  0  0
 28 48  1  0  0  0  0
 28 49  1  0  0  0  0
M  END
> <Name>
33

> <IC50[uM]>
0.008

$$$$
33
  -OEChem-05192314333D
 Structure written by MMmdl.
 49 53  0     1  0  0  0  0  0999 V2000
   -6.3918   12.3765  -12.0158 C   0  0  3  0  0  0  0  0  0  0  0  0
   -6.5335   11.8201  -10.7317 C   0  0  0  0  0  0  0  0  0  0  0  0
   -7.7273   10.5795  -13.0319 C   0  0  0  0  0  0  0  0  0  0  0  0
   -7.0082   11.7773  -13.1176 C   0  0  0  0  0  0  0  0  0  0  0  0
   -7.8294   10.0116  -11.7546 C   0  0  0  0  0  0  0  0  0  0  0  0
   -7.2533   10.6299  -10.5984 C   0  0  0  0  0  0  0  0  0  0  0  0
   -7.6133    9.7501   -9.5115 C   0  0  0  0  0  0  0  0  0  0  0  0
   -8.2802    8.7340   -9.9853 N   0  0  0  0  0  0  0  0  0  0  0  0
   -8.4149    8.8602  -11.2994 N   0  0  0  0  0  0  0  0  0  0  0  0
   -7.3368    9.8898   -8.0240 C   0  0  0  0  0  0  0  0  0  0  0  0
   -4.3580   13.5891  -11.5451 N   0  0  0  0  0  0  0  0  0  0  0  0
   -5.5327   13.6029  -12.2131 C   0  0  0  0  0  0  0  0  0  0  0  0
   -5.8791   14.5089  -12.9726 O   0  0  0  0  0  0  0  0  0  0  0  0
   -5.9622   10.4818   -7.7351 C   0  0  0  0  0  0  0  0  0  0  0  0
   -5.8525   11.7570   -7.1642 C   0  0  0  0  0  0  0  0  0  0  0  0
   -4.5920   12.3049   -6.9193 C   0  0  0  0  0  0  0  0  0  0  0  0
   -3.4386   11.5825   -7.2408 C   0  0  0  0  0  0  0  0  0  0  0  0
   -3.5579   10.3128   -7.8038 C   0  0  0  0  0  0  0  0  0  0  0  0
   -4.8126    9.7642   -8.0521 C   0  0  0  0  0  0  0  0  0  0  0  0
   -2.0919   12.1643   -6.9829 C   0  0  0  0  0  0  0  0  0  0  0  0
   -1.7362   13.4287   -6.5051 C   0  0  0  0  0  0  0  0  0  0  0  0
   -0.4017   13.4552   -6.4435 N   0  0  0  0  0  0  0  0  0  0  0  0
    0.1850   12.3496   -6.8156 N   0  0  0  0  0  0  0  0  0  0  0  0
   -0.8078   11.5460   -7.1722 C   0  0  0  0  0  0  0  0  0  0  0  0
    0.4351   14.5688   -6.0125 C   0  0  0  0  0  0  0  0  0  0  0  0
   -3.3172   14.5865  -11.7755 C   0  0  0  0  0  0  0  0  0  0  0  0
   -1.8924   14.0513  -11.7355 C   0  0  0  0  0  0  0  0  0  0  0  0
   -2.3932   14.9579  -10.6450 C   0  0  0  0  0  0  0  0  0  0  0  0
   -7.2761   13.0097  -11.8512 H   0  0  0  0  0  0  0  0  0  0  0  0
   -6.0964   12.3014   -9.8693 H   0  0  0  0  0  0  0  0  0  0  0  0
   -8.1772   10.1197  -13.8994 H   0  0  0  0  0  0  0  0  0  0  0  0
   -7.7108   12.5246  -13.5150 H   0  0  0  0  0  0  0  0  0  0  0  0
   -6.2088   11.5987  -13.8518 H   0  0  0  0  0  0  0  0  0  0  0  0
   -8.0380    9.6010   -7.2550 H   0  0  0  0  0  0  0  0  0  0  0  0
   -5.2205   15.1935  -12.9707 H   0  0  0  0  0  0  0  0  0  0  0  0
   -6.7424   12.3154   -6.9139 H   0  0  0  0  0  0  0  0  0  0  0  0
   -4.5075   13.2883   -6.4808 H   0  0  0  0  0  0  0  0  0  0  0  0
   -2.6693    9.7502   -8.0493 H   0  0  0  0  0  0  0  0  0  0  0  0
   -4.8943    8.7808   -8.4911 H   0  0  0  0  0  0  0  0  0  0  0  0
   -2.4097   14.2294   -6.2375 H   0  0  0  0  0  0  0  0  0  0  0  0
   -0.6685   10.5471   -7.5584 H   0  0  0  0  0  0  0  0  0  0  0  0
    1.4941   14.2779   -6.0748 H   0  0  0  0  0  0  0  0  0  0  0  0
    0.2544   15.4366   -6.6639 H   0  0  0  0  0  0  0  0  0  0  0  0
    0.1879   14.8324   -4.9736 H   0  0  0  0  0  0  0  0  0  0  0  0
   -3.5215   15.3697  -12.5204 H   0  0  0  0  0  0  0  0  0  0  0  0
   -1.7095   12.9870  -11.5263 H   0  0  0  0  0  0  0  0  0  0  0  0
   -1.1463   14.4168  -12.4564 H   0  0  0  0  0  0  0  0  0  0  0  0
   -2.0084   15.9854  -10.5669 H   0  0  0  0  0  0  0  0  0  0  0  0
   -2.5716   14.5556   -9.6369 H   0  0  0  0  0  0  0  0  0  0  0  0
  1  2  1  0  0  0  0
  1  4  1  0  0  0  0
  1 12  1  0  0  0  0
  2  6  2  0  0  0  0
  3  4  1  0  0  0  0
  3  5  2  0  0  0  0
  5  6  1  0  0  0  0
  5  9  1  0  0  0  0
  6  7  1  0  0  0  0
  7  8  1  0  0  0  0
  7 10  2  3  0  0  0
  8  9  2  0  0  0  0
 10 14  1  0  0  0  0
 11 12  2  0  0  0  0
 11 26  1  0  0  0  0
 12 13  1  0  0  0  0
 14 15  2  0  0  0  0
 14 19  1  0  0  0  0
 15 16  1  0  0  0  0
 16 17  2  0  0  0  0
 17 18  1  0  0  0  0
 17 20  1  0  0  0  0
 18 19  2  0  0  0  0
 20 21  2  0  0  0  0
 20 24  1  0  0  0  0
 21 22  1  0  0  0  0
 22 23  1  0  0  0  0
 22 25  1  0  0  0  0
 23 24  2  0  0  0  0
 26 27  1  0  0  0  0
 26 28  1  0  0  0  0
 27 28  1  0  0  0  0
  1 29  1  0  0  0  0
  2 30  1  0  0  0  0
  3 31  1  0  0  0  0
  4 32  1  0  0  0  0
  4 33  1  0  0  0  0
 10 34  1  0  0  0  0
 13 35  1  0  0  0  0
 15 36  1  0  0  0  0
 16 37  1  0  0  0  0
 18 38  1  0  0  0  0
 19 39  1  0  0  0  0
 21 40  1  0  0  0  0
 24 41  1  0  0  0  0
 25 42  1  0  0  0  0
 25 43  1  0  0  0  0
 25 44  1  0  0  0  0
 26 45  1  0  0  0  0
 27 46  1  0  0  0  0
 27 47  1  0  0  0  0
 28 48  1  0  0  0  0
 28 49  1  0  0  0  0
M  END
> <Name>
33

> <IC50[uM]>
0.008

$$$$
33
  -OEChem-05192314333D
 Structure written by MMmdl.
 49 53  0     1  0  0  0  0  0999 V2000
   -6.3918   12.3765  -12.0158 C   0  0  0  0  0  0  0  0  0  0  0  0
   -6.5335   11.8201  -10.7317 C   0  0  0  0  0  0  0  0  0  0  0  0
   -7.7273   10.5795  -13.0319 C   0  0  0  0  0  0  0  0  0  0  0  0
   -7.0082   11.7773  -13.1176 C   0  0  0  0  0  0  0  0  0  0  0  0
   -7.8294   10.0116  -11.7546 C   0  0  0  0  0  0  0  0  0  0  0  0
   -7.2533   10.6299  -10.5984 C   0  0  3  0  0  0  0  0  0  0  0  0
   -7.6133    9.7501   -9.5115 C   0  0  0  0  0  0  0  0  0  0  0  0
   -8.2802    8.7340   -9.9853 N   0  0  0  0  0  0  0  0  0  0  0  0
   -8.4149    8.8602  -11.2994 N   0  0  0  0  0  0  0  0  0  0  0  0
   -7.3368    9.8898   -8.0240 C   0  0  0  0  0  0  0  0  0  0  0  0
   -4.3580   13.5891  -11.5451 N   0  0  0  0  0  0  0  0  0  0  0  0
   -5.5327   13.6029  -12.2131 C   0  0  0  0  0  0  0  0  0  0  0  0
   -5.8791   14.5089  -12.9726 O   0  0  0  0  0  0  0  0  0  0  0  0
   -5.9622   10.4818   -7.7351 C   0  0  0  0  0  0  0  0  0  0  0  0
   -5.8525   11.7570   -7.1642 C   0  0  0  0  0  0  0  0  0  0  0  0
   -4.5920   12.3049   -6.9193 C   0  0  0  0  0  0  0  0  0  0  0  0
   -3.4386   11.5825   -7.2408 C   0  0  0  0  0  0  0  0  0  0  0  0
   -3.5579   10.3128   -7.8038 C   0  0  0  0  0  0  0  0  0  0  0  0
   -4.8126    9.7642   -8.0521 C   0  0  0  0  0  0  0  0  0  0  0  0
   -2.0919   12.1643   -6.9829 C   0  0  0  0  0  0  0  0  0  0  0  0
   -1.7362   13.4287   -6.5051 C   0  0  0  0  0  0  0  0  0  0  0  0
   -0.4017   13.4552   -6.4435 N   0  0  0  0  0  0  0  0  0  0  0  0
    0.1850   12.3496   -6.8156 N   0  0  0  0  0  0  0  0  0  0  0  0
   -0.8078   11.5460   -7.1722 C   0  0  0  0  0  0  0  0  0  0  0  0
    0.4351   14.5688   -6.0125 C   0  0  0  0  0  0  0  0  0  0  0  0
   -3.3172   14.5865  -11.7755 C   0  0  0  0  0  0  0  0  0  0  0  0
   -1.8924   14.0513  -11.7355 C   0  0  0  0  0  0  0  0  0  0  0  0
   -2.3932   14.9579  -10.6450 C   0  0  0  0  0  0  0  0  0  0  0  0
   -6.0964   12.3014   -9.8693 H   0  0  0  0  0  0  0  0  0  0  0  0
   -8.1772   10.1197  -13.8994 H   0  0  0  0  0  0  0  0  0  0  0  0
   -7.7108   12.5246  -13.5150 H   0  0  0  0  0  0  0  0  0  0  0  0
   -6.2088   11.5987  -13.8518 H   0  0  0  0  0  0  0  0  0  0  0  0
   -8.1783   11.2044  -10.4423 H   0  0  0  0  0  0  0  0  0  0  0  0
   -8.0380    9.6010   -7.2550 H   0  0  0  0  0  0  0  0  0  0  0  0
   -5.2205   15.1935  -12.9707 H   0  0  0  0  0  0  0  0  0  0  0  0
   -6.7424   12.3154   -6.9139 H   0  0  0  0  0  0  0  0  0  0  0  0
   -4.5075   13.2883   -6.4808 H   0  0  0  0  0  0  0  0  0  0  0  0
   -2.6693    9.7502   -8.0493 H   0  0  0  0  0  0  0  0  0  0  0  0
   -4.8943    8.7808   -8.4911 H   0  0  0  0  0  0  0  0  0  0  0  0
   -2.4097   14.2294   -6.2375 H   0  0  0  0  0  0  0  0  0  0  0  0
   -0.6685   10.5471   -7.5584 H   0  0  0  0  0  0  0  0  0  0  0  0
    1.4941   14.2779   -6.0748 H   0  0  0  0  0  0  0  0  0  0  0  0
    0.2544   15.4366   -6.6639 H   0  0  0  0  0  0  0  0  0  0  0  0
    0.1879   14.8324   -4.9736 H   0  0  0  0  0  0  0  0  0  0  0  0
   -3.5215   15.3697  -12.5204 H   0  0  0  0  0  0  0  0  0  0  0  0
   -1.7095   12.9870  -11.5263 H   0  0  0  0  0  0  0  0  0  0  0  0
   -1.1463   14.4168  -12.4564 H   0  0  0  0  0  0  0  0  0  0  0  0
   -2.0084   15.9854  -10.5669 H   0  0  0  0  0  0  0  0  0  0  0  0
   -2.5716   14.5556   -9.6369 H   0  0  0  0  0  0  0  0  0  0  0  0
  1  2  2  0  0  0  0
  1  4  1  0  0  0  0
  1 12  1  0  0  0  0
  2  6  1  0  0  0  0
  3  4  1  0  0  0  0
  3  5  2  0  0  0  0
  5  6  1  0  0  0  0
  5  9  1  0  0  0  0
  6  7  1  0  0  0  0
  7  8  1  0  0  0  0
  7 10  2  3  0  0  0
  8  9  2  0  0  0  0
 10 14  1  0  0  0  0
 11 12  2  0  0  0  0
 11 26  1  0  0  0  0
 12 13  1  0  0  0  0
 14 15  2  0  0  0  0
 14 19  1  0  0  0  0
 15 16  1  0  0  0  0
 16 17  2  0  0  0  0
 17 18  1  0  0  0  0
 17 20  1  0  0  0  0
 18 19  2  0  0  0  0
 20 21  2  0  0  0  0
 20 24  1  0  0  0  0
 21 22  1  0  0  0  0
 22 23  1  0  0  0  0
 22 25  1  0  0  0  0
 23 24  2  0  0  0  0
 26 27  1  0  0  0  0
 26 28  1  0  0  0  0
 27 28  1  0  0  0  0
  2 29  1  0  0  0  0
  3 30  1  0  0  0  0
  4 31  1  0  0  0  0
  4 32  1  0  0  0  0
  6 33  1  0  0  0  0
 10 34  1  0  0  0  0
 13 35  1  0  0  0  0
 15 36  1  0  0  0  0
 16 37  1  0  0  0  0
 18 38  1  0  0  0  0
 19 39  1  0  0  0  0
 21 40  1  0  0  0  0
 24 41  1  0  0  0  0
 25 42  1  0  0  0  0
 25 43  1  0  0  0  0
 25 44  1  0  0  0  0
 26 45  1  0  0  0  0
 27 46  1  0  0  0  0
 27 47  1  0  0  0  0
 28 48  1  0  0  0  0
 28 49  1  0  0  0  0
M  END
> <Name>
33

> <IC50[uM]>
0.008

$$$$
33
  -OEChem-05192314333D
 Structure written by MMmdl.
 49 53  0     0  0  0  0  0  0999 V2000
   -6.3918   12.3765  -12.0158 C   0  0  0  0  0  0  0  0  0  0  0  0
   -6.5335   11.8201  -10.7317 C   0  0  0  0  0  0  0  0  0  0  0  0
   -7.7273   10.5795  -13.0319 C   0  0  0  0  0  0  0  0  0  0  0  0
   -7.0082   11.7773  -13.1176 C   0  0  0  0  0  0  0  0  0  0  0  0
   -7.8294   10.0116  -11.7546 C   0  0  0  0  0  0  0  0  0  0  0  0
   -7.2533   10.6299  -10.5984 C   0  0  0  0  0  0  0  0  0  0  0  0
   -7.6133    9.7501   -9.5115 C   0  0  0  0  0  0  0  0  0  0  0  0
   -8.2802    8.7340   -9.9853 N   0  0  0  0  0  0  0  0  0  0  0  0
   -8.4149    8.8602  -11.2994 N   0  0  0  0  0  0  0  0  0  0  0  0
   -7.3368    9.8898   -8.0240 C   0  0  0  0  0  0  0  0  0  0  0  0
   -4.3580   13.5891  -11.5451 N   0  0  0  0  0  0  0  0  0  0  0  0
   -5.5327   13.6029  -12.2131 C   0  0  0  0  0  0  0  0  0  0  0  0
   -5.8791   14.5089  -12.9726 O   0  0  0  0  0  0  0  0  0  0  0  0
   -5.9622   10.4818   -7.7351 C   0  0  0  0  0  0  0  0  0  0  0  0
   -5.8525   11.7570   -7.1642 C   0  0  0  0  0  0  0  0  0  0  0  0
   -4.5920   12.3049   -6.9193 C   0  0  0  0  0  0  0  0  0  0  0  0
   -3.4386   11.5825   -7.2408 C   0  0  0  0  0  0  0  0  0  0  0  0
   -3.5579   10.3128   -7.8038 C   0  0  0  0  0  0  0  0  0  0  0  0
   -4.8126    9.7642   -8.0521 C   0  0  0  0  0  0  0  0  0  0  0  0
   -2.0919   12.1643   -6.9829 C   0  0  0  0  0  0  0  0  0  0  0  0
   -1.7362   13.4287   -6.5051 C   0  0  0  0  0  0  0  0  0  0  0  0
   -0.4017   13.4552   -6.4435 N   0  0  0  0  0  0  0  0  0  0  0  0
    0.1850   12.3496   -6.8156 N   0  0  0  0  0  0  0  0  0  0  0  0
   -0.8078   11.5460   -7.1722 C   0  0  0  0  0  0  0  0  0  0  0  0
    0.4351   14.5688   -6.0125 C   0  0  0  0  0  0  0  0  0  0  0  0
   -3.3172   14.5865  -11.7755 C   0  0  0  0  0  0  0  0  0  0  0  0
   -1.8924   14.0513  -11.7355 C   0  0  0  0  0  0  0  0  0  0  0  0
   -2.3932   14.9579  -10.6450 C   0  0  0  0  0  0  0  0  0  0  0  0
   -6.0964   12.3014   -9.8693 H   0  0  0  0  0  0  0  0  0  0  0  0
   -8.7470   10.7729  -13.3962 H   0  0  0  0  0  0  0  0  0  0  0  0
   -7.2367    9.8453  -13.6879 H   0  0  0  0  0  0  0  0  0  0  0  0
   -7.7108   12.5246  -13.5150 H   0  0  0  0  0  0  0  0  0  0  0  0
   -6.2088   11.5987  -13.8518 H   0  0  0  0  0  0  0  0  0  0  0  0
   -8.0380    9.6010   -7.2550 H   0  0  0  0  0  0  0  0  0  0  0  0
   -5.2205   15.1935  -12.9707 H   0  0  0  0  0  0  0  0  0  0  0  0
   -6.7424   12.3154   -6.9139 H   0  0  0  0  0  0  0  0  0  0  0  0
   -4.5075   13.2883   -6.4808 H   0  0  0  0  0  0  0  0  0  0  0  0
   -2.6693    9.7502   -8.0493 H   0  0  0  0  0  0  0  0  0  0  0  0
   -4.8943    8.7808   -8.4911 H   0  0  0  0  0  0  0  0  0  0  0  0
   -2.4097   14.2294   -6.2375 H   0  0  0  0  0  0  0  0  0  0  0  0
   -0.6685   10.5471   -7.5584 H   0  0  0  0  0  0  0  0  0  0  0  0
    1.4941   14.2779   -6.0748 H   0  0  0  0  0  0  0  0  0  0  0  0
    0.2544   15.4366   -6.6639 H   0  0  0  0  0  0  0  0  0  0  0  0
    0.1879   14.8324   -4.9736 H   0  0  0  0  0  0  0  0  0  0  0  0
   -3.5215   15.3697  -12.5204 H   0  0  0  0  0  0  0  0  0  0  0  0
   -1.7095   12.9870  -11.5263 H   0  0  0  0  0  0  0  0  0  0  0  0
   -1.1463   14.4168  -12.4564 H   0  0  0  0  0  0  0  0  0  0  0  0
   -2.0084   15.9854  -10.5669 H   0  0  0  0  0  0  0  0  0  0  0  0
   -2.5716   14.5556   -9.6369 H   0  0  0  0  0  0  0  0  0  0  0  0
  1  2  2  0  0  0  0
  1  4  1  0  0  0  0
  1 12  1  0  0  0  0
  2  6  1  0  0  0  0
  3  4  1  0  0  0  0
  3  5  1  0  0  0  0
  5  6  2  0  0  0  0
  5  9  1  0  0  0  0
  6  7  1  0  0  0  0
  7  8  1  0  0  0  0
  7 10  2  3  0  0  0
  8  9  2  0  0  0  0
 10 14  1  0  0  0  0
 11 12  2  0  0  0  0
 11 26  1  0  0  0  0
 12 13  1  0  0  0  0
 14 15  2  0  0  0  0
 14 19  1  0  0  0  0
 15 16  1  0  0  0  0
 16 17  2  0  0  0  0
 17 18  1  0  0  0  0
 17 20  1  0  0  0  0
 18 19  2  0  0  0  0
 20 21  2  0  0  0  0
 20 24  1  0  0  0  0
 21 22  1  0  0  0  0
 22 23  1  0  0  0  0
 22 25  1  0  0  0  0
 23 24  2  0  0  0  0
 26 27  1  0  0  0  0
 26 28  1  0  0  0  0
 27 28  1  0  0  0  0
  2 29  1  0  0  0  0
  3 30  1  0  0  0  0
  3 31  1  0  0  0  0
  4 32  1  0  0  0  0
  4 33  1  0  0  0  0
 10 34  1  0  0  0  0
 13 35  1  0  0  0  0
 15 36  1  0  0  0  0
 16 37  1  0  0  0  0
 18 38  1  0  0  0  0
 19 39  1  0  0  0  0
 21 40  1  0  0  0  0
 24 41  1  0  0  0  0
 25 42  1  0  0  0  0
 25 43  1  0  0  0  0
 25 44  1  0  0  0  0
 26 45  1  0  0  0  0
 27 46  1  0  0  0  0
 27 47  1  0  0  0  0
 28 48  1  0  0  0  0
 28 49  1  0  0  0  0
M  END
> <Name>
33

> <IC50[uM]>
0.008

$$$$
33
  -OEChem-05192314333D
 Structure written by MMmdl.
 49 53  0     1  0  0  0  0  0999 V2000
   -6.3918   12.3765  -12.0158 C   0  0  0  0  0  0  0  0  0  0  0  0
   -6.5335   11.8201  -10.7317 C   0  0  0  0  0  0  0  0  0  0  0  0
   -7.7273   10.5795  -13.0319 C   0  0  0  0  0  0  0  0  0  0  0  0
   -7.0082   11.7773  -13.1176 C   0  0  0  0  0  0  0  0  0  0  0  0
   -7.8294   10.0116  -11.7546 C   0  0  0  0  0  0  0  0  0  0  0  0
   -7.2533   10.6299  -10.5984 C   0  0  0  0  0  0  0  0  0  0  0  0
   -7.6133    9.7501   -9.5115 C   0  0  0  0  0  0  0  0  0  0  0  0
   -8.2802    8.7340   -9.9853 N   0  0  0  0  0  0  0  0  0  0  0  0
   -8.4149    8.8602  -11.2994 N   0  0  0  0  0  0  0  0  0  0  0  0
   -7.3368    9.8898   -8.0240 C   0  0  0  0  0  0  0  0  0  0  0  0
   -4.3580   13.5891  -11.5451 N   0  0  0  0  0  0  0  0  0  0  0  0
   -5.5327   13.6029  -12.2131 C   0  0  0  0  0  0  0  0  0  0  0  0
   -5.8791   14.5089  -12.9726 O   0  0  0  0  0  0  0  0  0  0  0  0
   -5.9622   10.4818   -7.7351 C   0  0  3  0  0  0  0  0  0  0  0  0
   -5.8525   11.7570   -7.1642 C   0  0  0  0  0  0  0  0  0  0  0  0
   -4.5920   12.3049   -6.9193 C   0  0  0  0  0  0  0  0  0  0  0  0
   -3.4386   11.5825   -7.2408 C   0  0  0  0  0  0  0  0  0  0  0  0
   -3.5579   10.3128   -7.8038 C   0  0  0  0  0  0  0  0  0  0  0  0
   -4.8126    9.7642   -8.0521 C   0  0  0  0  0  0  0  0  0  0  0  0
   -2.0919   12.1643   -6.9829 C   0  0  0  0  0  0  0  0  0  0  0  0
   -1.7362   13.4287   -6.5051 C   0  0  0  0  0  0  0  0  0  0  0  0
   -0.4017   13.4552   -6.4435 N   0  0  0  0  0  0  0  0  0  0  0  0
    0.1850   12.3496   -6.8156 N   0  0  0  0  0  0  0  0  0  0  0  0
   -0.8078   11.5460   -7.1722 C   0  0  0  0  0  0  0  0  0  0  0  0
    0.4351   14.5688   -6.0125 C   0  0  0  0  0  0  0  0  0  0  0  0
   -3.3172   14.5865  -11.7755 C   0  0  0  0  0  0  0  0  0  0  0  0
   -1.8924   14.0513  -11.7355 C   0  0  0  0  0  0  0  0  0  0  0  0
   -2.3932   14.9579  -10.6450 C   0  0  0  0  0  0  0  0  0  0  0  0
   -6.0964   12.3014   -9.8693 H   0  0  0  0  0  0  0  0  0  0  0  0
   -8.1772   10.1197  -13.8994 H   0  0  0  0  0  0  0  0  0  0  0  0
   -6.9259   12.2608  -14.0798 H   0  0  0  0  0  0  0  0  0  0  0  0
   -8.0380    9.6010   -7.2550 H   0  0  0  0  0  0  0  0  0  0  0  0
   -5.2205   15.1935  -12.9707 H   0  0  0  0  0  0  0  0  0  0  0  0
   -5.9736   10.0292   -6.7326 H   0  0  0  0  0  0  0  0  0  0  0  0
   -6.7424   12.3154   -6.9139 H   0  0  0  0  0  0  0  0  0  0  0  0
   -4.5075   13.2883   -6.4808 H   0  0  0  0  0  0  0  0  0  0  0  0
   -2.6693    9.7502   -8.0493 H   0  0  0  0  0  0  0  0  0  0  0  0
   -4.8629    8.8200   -7.4901 H   0  0  0  0  0  0  0  0  0  0  0  0
   -4.8583    9.5519   -9.1305 H   0  0  0  0  0  0  0  0  0  0  0  0
   -2.4097   14.2294   -6.2375 H   0  0  0  0  0  0  0  0  0  0  0  0
   -0.6685   10.5471   -7.5584 H   0  0  0  0  0  0  0  0  0  0  0  0
    1.4941   14.2779   -6.0748 H   0  0  0  0  0  0  0  0  0  0  0  0
    0.2544   15.4366   -6.6639 H   0  0  0  0  0  0  0  0  0  0  0  0
    0.1879   14.8324   -4.9736 H   0  0  0  0  0  0  0  0  0  0  0  0
   -3.5215   15.3697  -12.5204 H   0  0  0  0  0  0  0  0  0  0  0  0
   -1.7095   12.9870  -11.5263 H   0  0  0  0  0  0  0  0  0  0  0  0
   -1.1463   14.4168  -12.4564 H   0  0  0  0  0  0  0  0  0  0  0  0
   -2.0084   15.9854  -10.5669 H   0  0  0  0  0  0  0  0  0  0  0  0
   -2.5716   14.5556   -9.6369 H   0  0  0  0  0  0  0  0  0  0  0  0
  1  2  2  0  0  0  0
  1  4  1  0  0  0  0
  1 12  1  0  0  0  0
  2  6  1  0  0  0  0
  3  4  2  0  0  0  0
  3  5  1  0  0  0  0
  5  6  2  0  0  0  0
  5  9  1  0  0  0  0
  6  7  1  0  0  0  0
  7  8  1  0  0  0  0
  7 10  2  3  0  0  0
  8  9  2  0  0  0  0
 10 14  1  0  0  0  0
 11 12  2  0  0  0  0
 11 26  1  0  0  0  0
 12 13  1  0  0  0  0
 14 15  1  0  0  0  0
 14 19  1  0  0  0  0
 15 16  2  0  0  0  0
 16 17  1  0  0  0  0
 17 18  2  0  0  0  0
 17 20  1  0  0  0  0
 18 19  1  0  0  0  0
 20 21  2  0  0  0  0
 20 24  1  0  0  0  0
 21 22  1  0  0  0  0
 22 23  1  0  0  0  0
 22 25  1  0  0  0  0
 23 24  2  0  0  0  0
 26 27  1  0  0  0  0
 26 28  1  0  0  0  0
 27 28  1  0  0  0  0
  2 29  1  0  0  0  0
  3 30  1  0  0  0  0
  4 31  1  0  0  0  0
 10 32  1  0  0  0  0
 13 33  1  0  0  0  0
 14 34  1  0  0  0  0
 15 35  1  0  0  0  0
 16 36  1  0  0  0  0
 18 37  1  0  0  0  0
 19 38  1  0  0  0  0
 19 39  1  0  0  0  0
 21 40  1  0  0  0  0
 24 41  1  0  0  0  0
 25 42  1  0  0  0  0
 25 43  1  0  0  0  0
 25 44  1  0  0  0  0
 26 45  1  0  0  0  0
 27 46  1  0  0  0  0
 27 47  1  0  0  0  0
 28 48  1  0  0  0  0
 28 49  1  0  0  0  0
M  END
> <Name>
33

> <IC50[uM]>
0.008

$$$$
33
  -OEChem-05192314333D
 Structure written by MMmdl.
 49 53  0     1  0  0  0  0  0999 V2000
   -6.3918   12.3765  -12.0158 C   0  0  0  0  0  0  0  0  0  0  0  0
   -6.5335   11.8201  -10.7317 C   0  0  0  0  0  0  0  0  0  0  0  0
   -7.7273   10.5795  -13.0319 C   0  0  0  0  0  0  0  0  0  0  0  0
   -7.0082   11.7773  -13.1176 C   0  0  0  0  0  0  0  0  0  0  0  0
   -7.8294   10.0116  -11.7546 C   0  0  0  0  0  0  0  0  0  0  0  0
   -7.2533   10.6299  -10.5984 C   0  0  0  0  0  0  0  0  0  0  0  0
   -7.6133    9.7501   -9.5115 C   0  0  3  0  0  0  0  0  0  0  0  0
   -8.2802    8.7340   -9.9853 N   0  0  0  0  0  0  0  0  0  0  0  0
   -8.4149    8.8602  -11.2994 N   0  0  0  0  0  0  0  0  0  0  0  0
   -7.3368    9.8898   -8.0240 C   0  0  0  0  0  0  0  0  0  0  0  0
   -4.3580   13.5891  -11.5451 N   0  0  0  0  0  0  0  0  0  0  0  0
   -5.5327   13.6029  -12.2131 C   0  0  0  0  0  0  0  0  0  0  0  0
   -5.8791   14.5089  -12.9726 O   0  0  0  0  0  0  0  0  0  0  0  0
   -5.9622   10.4818   -7.7351 C   0  0  0  0  0  0  0  0  0  0  0  0
   -5.8525   11.7570   -7.1642 C   0  0  0  0  0  0  0  0  0  0  0  0
   -4.5920   12.3049   -6.9193 C   0  0  0  0  0  0  0  0  0  0  0  0
   -3.4386   11.5825   -7.2408 C   0  0  0  0  0  0  0  0  0  0  0  0
   -3.5579   10.3128   -7.8038 C   0  0  0  0  0  0  0  0  0  0  0  0
   -4.8126    9.7642   -8.0521 C   0  0  0  0  0  0  0  0  0  0  0  0
   -2.0919   12.1643   -6.9829 C   0  0  0  0  0  0  0  0  0  0  0  0
   -1.7362   13.4287   -6.5051 C   0  0  0  0  0  0  0  0  0  0  0  0
   -0.4017   13.4552   -6.4435 N   0  0  0  0  0  0  0  0  0  0  0  0
    0.1850   12.3496   -6.8156 N   0  0  0  0  0  0  0  0  0  0  0  0
   -0.8078   11.5460   -7.1722 C   0  0  0  0  0  0  0  0  0  0  0  0
    0.4351   14.5688   -6.0125 C   0  0  0  0  0  0  0  0  0  0  0  0
   -3.3172   14.5865  -11.7755 C   0  0  0  0  0  0  0  0  0  0  0  0
   -1.8924   14.0513  -11.7355 C   0  0  0  0  0  0  0  0  0  0  0  0
   -2.3932   14.9579  -10.6450 C   0  0  0  0  0  0  0  0  0  0  0  0
   -6.0964   12.3014   -9.8693 H   0  0  0  0  0  0  0  0  0  0  0  0
   -8.1772   10.1197  -13.8994 H   0  0  0  0  0  0  0  0  0  0  0  0
   -6.9259   12.2608  -14.0798 H   0  0  0  0  0  0  0  0  0  0  0  0
   -6.6705    9.1980   -9.6396 H   0  0  0  0  0  0  0  0  0  0  0  0
   -8.0380    9.6010   -7.2550 H   0  0  0  0  0  0  0  0  0  0  0  0
   -5.2205   15.1935  -12.9707 H   0  0  0  0  0  0  0  0  0  0  0  0
   -6.7424   12.3154   -6.9139 H   0  0  0  0  0  0  0  0  0  0  0  0
   -4.5075   13.2883   -6.4808 H   0  0  0  0  0  0  0  0  0  0  0  0
   -2.6693    9.7502   -8.0493 H   0  0  0  0  0  0  0  0  0  0  0  0
   -4.8629    8.8200   -7.4901 H   0  0  0  0  0  0  0  0  0  0  0  0
   -4.8583    9.5519   -9.1305 H   0  0  0  0  0  0  0  0  0  0  0  0
   -2.4097   14.2294   -6.2375 H   0  0  0  0  0  0  0  0  0  0  0  0
   -0.6685   10.5471   -7.5584 H   0  0  0  0  0  0  0  0  0  0  0  0
    1.4941   14.2779   -6.0748 H   0  0  0  0  0  0  0  0  0  0  0  0
    0.2544   15.4366   -6.6639 H   0  0  0  0  0  0  0  0  0  0  0  0
    0.1879   14.8324   -4.9736 H   0  0  0  0  0  0  0  0  0  0  0  0
   -3.5215   15.3697  -12.5204 H   0  0  0  0  0  0  0  0  0  0  0  0
   -1.7095   12.9870  -11.5263 H   0  0  0  0  0  0  0  0  0  0  0  0
   -1.1463   14.4168  -12.4564 H   0  0  0  0  0  0  0  0  0  0  0  0
   -2.0084   15.9854  -10.5669 H   0  0  0  0  0  0  0  0  0  0  0  0
   -2.5716   14.5556   -9.6369 H   0  0  0  0  0  0  0  0  0  0  0  0
  1  2  2  0  0  0  0
  1  4  1  0  0  0  0
  1 12  1  0  0  0  0
  2  6  1  0  0  0  0
  3  4  2  0  0  0  0
  3  5  1  0  0  0  0
  5  6  2  0  0  0  0
  5  9  1  0  0  0  0
  6  7  1  0  0  0  0
  7  8  1  0  0  0  0
  7 10  1  0  0  0  0
  8  9  2  0  0  0  0
 10 14  2  3  0  0  0
 11 12  2  0  0  0  0
 11 26  1  0  0  0  0
 12 13  1  0  0  0  0
 14 15  1  0  0  0  0
 14 19  1  0  0  0  0
 15 16  2  0  0  0  0
 16 17  1  0  0  0  0
 17 18  2  0  0  0  0
 17 20  1  0  0  0  0
 18 19  1  0  0  0  0
 20 21  2  0  0  0  0
 20 24  1  0  0  0  0
 21 22  1  0  0  0  0
 22 23  1  0  0  0  0
 22 25  1  0  0  0  0
 23 24  2  0  0  0  0
 26 27  1  0  0  0  0
 26 28  1  0  0  0  0
 27 28  1  0  0  0  0
  2 29  1  0  0  0  0
  3 30  1  0  0  0  0
  4 31  1  0  0  0  0
  7 32  1  0  0  0  0
 10 33  1  0  0  0  0
 13 34  1  0  0  0  0
 15 35  1  0  0  0  0
 16 36  1  0  0  0  0
 18 37  1  0  0  0  0
 19 38  1  0  0  0  0
 19 39  1  0  0  0  0
 21 40  1  0  0  0  0
 24 41  1  0  0  0  0
 25 42  1  0  0  0  0
 25 43  1  0  0  0  0
 25 44  1  0  0  0  0
 26 45  1  0  0  0  0
 27 46  1  0  0  0  0
 27 47  1  0  0  0  0
 28 48  1  0  0  0  0
 28 49  1  0  0  0  0
M  END
> <Name>
33

> <IC50[uM]>
0.008

$$$$
33
  -OEChem-05192314333D
 Structure written by MMmdl.
 49 53  0     0  0  0  0  0  0999 V2000
   -6.3918   12.3765  -12.0158 C   0  0  0  0  0  0  0  0  0  0  0  0
   -6.5335   11.8201  -10.7317 C   0  0  0  0  0  0  0  0  0  0  0  0
   -7.7273   10.5795  -13.0319 C   0  0  0  0  0  0  0  0  0  0  0  0
   -7.0082   11.7773  -13.1176 C   0  0  0  0  0  0  0  0  0  0  0  0
   -7.8294   10.0116  -11.7546 C   0  0  0  0  0  0  0  0  0  0  0  0
   -7.2533   10.6299  -10.5984 C   0  0  0  0  0  0  0  0  0  0  0  0
   -7.6133    9.7501   -9.5115 C   0  0  0  0  0  0  0  0  0  0  0  0
   -8.2802    8.7340   -9.9853 N   0  0  0  0  0  0  0  0  0  0  0  0
   -8.4149    8.8602  -11.2994 N   0  0  0  0  0  0  0  0  0  0  0  0
   -7.3368    9.8898   -8.0240 C   0  0  0  0  0  0  0  0  0  0  0  0
   -4.3580   13.5891  -11.5451 N   0  0  0  0  0  0  0  0  0  0  0  0
   -5.5327   13.6029  -12.2131 C   0  0  0  0  0  0  0  0  0  0  0  0
   -5.8791   14.5089  -12.9726 O   0  0  0  0  0  0  0  0  0  0  0  0
   -5.9622   10.4818   -7.7351 C   0  0  0  0  0  0  0  0  0  0  0  0
   -5.8525   11.7570   -7.1642 C   0  0  0  0  0  0  0  0  0  0  0  0
   -4.5920   12.3049   -6.9193 C   0  0  0  0  0  0  0  0  0  0  0  0
   -3.4386   11.5825   -7.2408 C   0  0  0  0  0  0  0  0  0  0  0  0
   -3.5579   10.3128   -7.8038 C   0  0  0  0  0  0  0  0  0  0  0  0
   -4.8126    9.7642   -8.0521 C   0  0  0  0  0  0  0  0  0  0  0  0
   -2.0919   12.1643   -6.9829 C   0  0  0  0  0  0  0  0  0  0  0  0
   -1.7362   13.4287   -6.5051 C   0  0  0  0  0  0  0  0  0  0  0  0
   -0.4017   13.4552   -6.4435 N   0  0  0  0  0  0  0  0  0  0  0  0
    0.1850   12.3496   -6.8156 N   0  0  0  0  0  0  0  0  0  0  0  0
   -0.8078   11.5460   -7.1722 C   0  0  0  0  0  0  0  0  0  0  0  0
    0.4351   14.5688   -6.0125 C   0  0  0  0  0  0  0  0  0  0  0  0
   -3.3172   14.5865  -11.7755 C   0  0  0  0  0  0  0  0  0  0  0  0
   -1.8924   14.0513  -11.7355 C   0  0  0  0  0  0  0  0  0  0  0  0
   -2.3932   14.9579  -10.6450 C   0  0  0  0  0  0  0  0  0  0  0  0
   -6.0964   12.3014   -9.8693 H   0  0  0  0  0  0  0  0  0  0  0  0
   -8.1772   10.1197  -13.8994 H   0  0  0  0  0  0  0  0  0  0  0  0
   -6.9259   12.2608  -14.0798 H   0  0  0  0  0  0  0  0  0  0  0  0
   -8.0380    9.6010   -7.2550 H   0  0  0  0  0  0  0  0  0  0  0  0
   -5.2205   15.1935  -12.9707 H   0  0  0  0  0  0  0  0  0  0  0  0
   -6.7424   12.3154   -6.9139 H   0  0  0  0  0  0  0  0  0  0  0  0
   -4.5419   13.2489   -7.4818 H   0  0  0  0  0  0  0  0  0  0  0  0
   -4.5427   12.5174   -5.8412 H   0  0  0  0  0  0  0  0  0  0  0  0
   -2.6693    9.7502   -8.0493 H   0  0  0  0  0  0  0  0  0  0  0  0
   -4.8629    8.8200   -7.4901 H   0  0  0  0  0  0  0  0  0  0  0  0
   -4.8583    9.5519   -9.1305 H   0  0  0  0  0  0  0  0  0  0  0  0
   -2.4097   14.2294   -6.2375 H   0  0  0  0  0  0  0  0  0  0  0  0
   -0.6685   10.5471   -7.5584 H   0  0  0  0  0  0  0  0  0  0  0  0
    1.4941   14.2779   -6.0748 H   0  0  0  0  0  0  0  0  0  0  0  0
    0.2544   15.4366   -6.6639 H   0  0  0  0  0  0  0  0  0  0  0  0
    0.1879   14.8324   -4.9736 H   0  0  0  0  0  0  0  0  0  0  0  0
   -3.5215   15.3697  -12.5204 H   0  0  0  0  0  0  0  0  0  0  0  0
   -1.7095   12.9870  -11.5263 H   0  0  0  0  0  0  0  0  0  0  0  0
   -1.1463   14.4168  -12.4564 H   0  0  0  0  0  0  0  0  0  0  0  0
   -2.0084   15.9854  -10.5669 H   0  0  0  0  0  0  0  0  0  0  0  0
   -2.5716   14.5556   -9.6369 H   0  0  0  0  0  0  0  0  0  0  0  0
  1  2  2  0  0  0  0
  1  4  1  0  0  0  0
  1 12  1  0  0  0  0
  2  6  1  0  0  0  0
  3  4  2  0  0  0  0
  3  5  1  0  0  0  0
  5  6  2  0  0  0  0
  5  9  1  0  0  0  0
  6  7  1  0  0  0  0
  7  8  1  0  0  0  0
  7 10  2  3  0  0  0
  8  9  2  0  0  0  0
 10 14  1  0  0  0  0
 11 12  2  0  0  0  0
 11 26  1  0  0  0  0
 12 13  1  0  0  0  0
 14 15  2  0  0  0  0
 14 19  1  0  0  0  0
 15 16  1  0  0  0  0
 16 17  1  0  0  0  0
 17 18  2  0  0  0  0
 17 20  1  0  0  0  0
 18 19  1  0  0  0  0
 20 21  2  0  0  0  0
 20 24  1  0  0  0  0
 21 22  1  0  0  0  0
 22 23  1  0  0  0  0
 22 25  1  0  0  0  0
 23 24  2  0  0  0  0
 26 27  1  0  0  0  0
 26 28  1  0  0  0  0
 27 28  1  0  0  0  0
  2 29  1  0  0  0  0
  3 30  1  0  0  0  0
  4 31  1  0  0  0  0
 10 32  1  0  0  0  0
 13 33  1  0  0  0  0
 15 34  1  0  0  0  0
 16 35  1  0  0  0  0
 16 36  1  0  0  0  0
 18 37  1  0  0  0  0
 19 38  1  0  0  0  0
 19 39  1  0  0  0  0
 21 40  1  0  0  0  0
 24 41  1  0  0  0  0
 25 42  1  0  0  0  0
 25 43  1  0  0  0  0
 25 44  1  0  0  0  0
 26 45  1  0  0  0  0
 27 46  1  0  0  0  0
 27 47  1  0  0  0  0
 28 48  1  0  0  0  0
 28 49  1  0  0  0  0
M  END
> <Name>
33

> <IC50[uM]>
0.008

$$$$
33
  -OEChem-05192314333D
 Structure written by MMmdl.
 49 53  0     0  0  0  0  0  0999 V2000
   -6.3918   12.3765  -12.0158 C   0  0  0  0  0  0  0  0  0  0  0  0
   -6.5335   11.8201  -10.7317 C   0  0  0  0  0  0  0  0  0  0  0  0
   -7.7273   10.5795  -13.0319 C   0  0  0  0  0  0  0  0  0  0  0  0
   -7.0082   11.7773  -13.1176 C   0  0  0  0  0  0  0  0  0  0  0  0
   -7.8294   10.0116  -11.7546 C   0  0  0  0  0  0  0  0  0  0  0  0
   -7.2533   10.6299  -10.5984 C   0  0  0  0  0  0  0  0  0  0  0  0
   -7.6133    9.7501   -9.5115 C   0  0  0  0  0  0  0  0  0  0  0  0
   -8.2802    8.7340   -9.9853 N   0  0  0  0  0  0  0  0  0  0  0  0
   -8.4149    8.8602  -11.2994 N   0  0  0  0  0  0  0  0  0  0  0  0
   -7.3368    9.8898   -8.0240 C   0  0  0  0  0  0  0  0  0  0  0  0
   -4.3580   13.5891  -11.5451 N   0  0  0  0  0  0  0  0  0  0  0  0
   -5.5327   13.6029  -12.2131 C   0  0  0  0  0  0  0  0  0  0  0  0
   -5.8791   14.5089  -12.9726 O   0  0  0  0  0  0  0  0  0  0  0  0
   -5.9622   10.4818   -7.7351 C   0  0  0  0  0  0  0  0  0  0  0  0
   -5.8525   11.7570   -7.1642 C   0  0  0  0  0  0  0  0  0  0  0  0
   -4.5920   12.3049   -6.9193 C   0  0  0  0  0  0  0  0  0  0  0  0
   -3.4386   11.5825   -7.2408 C   0  0  0  0  0  0  0  0  0  0  0  0
   -3.5579   10.3128   -7.8038 C   0  0  0  0  0  0  0  0  0  0  0  0
   -4.8126    9.7642   -8.0521 C   0  0  0  0  0  0  0  0  0  0  0  0
   -2.0919   12.1643   -6.9829 C   0  0  0  0  0  0  0  0  0  0  0  0
   -1.7362   13.4287   -6.5051 C   0  0  0  0  0  0  0  0  0  0  0  0
   -0.4017   13.4552   -6.4435 N   0  0  0  0  0  0  0  0  0  0  0  0
    0.1850   12.3496   -6.8156 N   0  0  0  0  0  0  0  0  0  0  0  0
   -0.8078   11.5460   -7.1722 C   0  0  0  0  0  0  0  0  0  0  0  0
    0.4351   14.5688   -6.0125 C   0  0  0  0  0  0  0  0  0  0  0  0
   -3.3172   14.5865  -11.7755 C   0  0  0  0  0  0  0  0  0  0  0  0
   -1.8924   14.0513  -11.7355 C   0  0  0  0  0  0  0  0  0  0  0  0
   -2.3932   14.9579  -10.6450 C   0  0  0  0  0  0  0  0  0  0  0  0
   -6.0964   12.3014   -9.8693 H   0  0  0  0  0  0  0  0  0  0  0  0
   -8.1772   10.1197  -13.8994 H   0  0  0  0  0  0  0  0  0  0  0  0
   -6.9259   12.2608  -14.0798 H   0  0  0  0  0  0  0  0  0  0  0  0
   -8.0380    9.6010   -7.2550 H   0  0  0  0  0  0  0  0  0  0  0  0
   -5.2205   15.1935  -12.9707 H   0  0  0  0  0  0  0  0  0  0  0  0
   -6.7424   12.3154   -6.9139 H   0  0  0  0  0  0  0  0  0  0  0  0
   -4.5075   13.2883   -6.4808 H   0  0  0  0  0  0  0  0  0  0  0  0
   -3.0319   10.3458   -8.7693 H   0  0  0  0  0  0  0  0  0  0  0  0
   -3.0388    9.6182   -7.1270 H   0  0  0  0  0  0  0  0  0  0  0  0
   -4.8629    8.8200   -7.4901 H   0  0  0  0  0  0  0  0  0  0  0  0
   -4.8583    9.5519   -9.1305 H   0  0  0  0  0  0  0  0  0  0  0  0
   -2.4097   14.2294   -6.2375 H   0  0  0  0  0  0  0  0  0  0  0  0
   -0.6685   10.5471   -7.5584 H   0  0  0  0  0  0  0  0  0  0  0  0
    1.4941   14.2779   -6.0748 H   0  0  0  0  0  0  0  0  0  0  0  0
    0.2544   15.4366   -6.6639 H   0  0  0  0  0  0  0  0  0  0  0  0
    0.1879   14.8324   -4.9736 H   0  0  0  0  0  0  0  0  0  0  0  0
   -3.5215   15.3697  -12.5204 H   0  0  0  0  0  0  0  0  0  0  0  0
   -1.7095   12.9870  -11.5263 H   0  0  0  0  0  0  0  0  0  0  0  0
   -1.1463   14.4168  -12.4564 H   0  0  0  0  0  0  0  0  0  0  0  0
   -2.0084   15.9854  -10.5669 H   0  0  0  0  0  0  0  0  0  0  0  0
   -2.5716   14.5556   -9.6369 H   0  0  0  0  0  0  0  0  0  0  0  0
  1  2  2  0  0  0  0
  1  4  1  0  0  0  0
  1 12  1  0  0  0  0
  2  6  1  0  0  0  0
  3  4  2  0  0  0  0
  3  5  1  0  0  0  0
  5  6  2  0  0  0  0
  5  9  1  0  0  0  0
  6  7  1  0  0  0  0
  7  8  1  0  0  0  0
  7 10  2  3  0  0  0
  8  9  2  0  0  0  0
 10 14  1  0  0  0  0
 11 12  2  0  0  0  0
 11 26  1  0  0  0  0
 12 13  1  0  0  0  0
 14 15  2  0  0  0  0
 14 19  1  0  0  0  0
 15 16  1  0  0  0  0
 16 17  2  0  0  0  0
 17 18  1  0  0  0  0
 17 20  1  0  0  0  0
 18 19  1  0  0  0  0
 20 21  2  0  0  0  0
 20 24  1  0  0  0  0
 21 22  1  0  0  0  0
 22 23  1  0  0  0  0
 22 25  1  0  0  0  0
 23 24  2  0  0  0  0
 26 27  1  0  0  0  0
 26 28  1  0  0  0  0
 27 28  1  0  0  0  0
  2 29  1  0  0  0  0
  3 30  1  0  0  0  0
  4 31  1  0  0  0  0
 10 32  1  0  0  0  0
 13 33  1  0  0  0  0
 15 34  1  0  0  0  0
 16 35  1  0  0  0  0
 18 36  1  0  0  0  0
 18 37  1  0  0  0  0
 19 38  1  0  0  0  0
 19 39  1  0  0  0  0
 21 40  1  0  0  0  0
 24 41  1  0  0  0  0
 25 42  1  0  0  0  0
 25 43  1  0  0  0  0
 25 44  1  0  0  0  0
 26 45  1  0  0  0  0
 27 46  1  0  0  0  0
 27 47  1  0  0  0  0
 28 48  1  0  0  0  0
 28 49  1  0  0  0  0
M  END
> <Name>
33

> <IC50[uM]>
0.008

$$$$
33
  -OEChem-05192314333D
 Structure written by MMmdl.
 49 53  0     1  0  0  0  0  0999 V2000
   -6.3918   12.3765  -12.0158 C   0  0  3  0  0  0  0  0  0  0  0  0
   -6.5335   11.8201  -10.7317 C   0  0  0  0  0  0  0  0  0  0  0  0
   -7.7273   10.5795  -13.0319 C   0  0  0  0  0  0  0  0  0  0  0  0
   -7.0082   11.7773  -13.1176 C   0  0  0  0  0  0  0  0  0  0  0  0
   -7.8294   10.0116  -11.7546 C   0  0  0  0  0  0  0  0  0  0  0  0
   -7.2533   10.6299  -10.5984 C   0  0  0  0  0  0  0  0  0  0  0  0
   -7.6133    9.7501   -9.5115 C   0  0  0  0  0  0  0  0  0  0  0  0
   -8.2802    8.7340   -9.9853 N   0  0  0  0  0  0  0  0  0  0  0  0
   -8.4149    8.8602  -11.2994 N   0  0  0  0  0  0  0  0  0  0  0  0
   -7.3368    9.8898   -8.0240 C   0  0  0  0  0  0  0  0  0  0  0  0
   -4.3580   13.5891  -11.5451 N   0  0  0  0  0  0  0  0  0  0  0  0
   -5.5327   13.6029  -12.2131 C   0  0  0  0  0  0  0  0  0  0  0  0
   -5.8791   14.5089  -12.9726 O   0  0  0  0  0  0  0  0  0  0  0  0
   -5.9622   10.4818   -7.7351 C   0  0  0  0  0  0  0  0  0  0  0  0
   -5.8525   11.7570   -7.1642 C   0  0  0  0  0  0  0  0  0  0  0  0
   -4.5920   12.3049   -6.9193 C   0  0  0  0  0  0  0  0  0  0  0  0
   -3.4386   11.5825   -7.2408 C   0  0  0  0  0  0  0  0  0  0  0  0
   -3.5579   10.3128   -7.8038 C   0  0  0  0  0  0  0  0  0  0  0  0
   -4.8126    9.7642   -8.0521 C   0  0  0  0  0  0  0  0  0  0  0  0
   -2.0919   12.1643   -6.9829 C   0  0  0  0  0  0  0  0  0  0  0  0
   -1.7362   13.4287   -6.5051 C   0  0  0  0  0  0  0  0  0  0  0  0
   -0.4017   13.4552   -6.4435 N   0  0  0  0  0  0  0  0  0  0  0  0
    0.1850   12.3496   -6.8156 N   0  0  0  0  0  0  0  0  0  0  0  0
   -0.8078   11.5460   -7.1722 C   0  0  0  0  0  0  0  0  0  0  0  0
    0.4351   14.5688   -6.0125 C   0  0  0  0  0  0  0  0  0  0  0  0
   -3.3172   14.5865  -11.7755 C   0  0  0  0  0  0  0  0  0  0  0  0
   -1.8924   14.0513  -11.7355 C   0  0  0  0  0  0  0  0  0  0  0  0
   -2.3932   14.9579  -10.6450 C   0  0  0  0  0  0  0  0  0  0  0  0
   -7.2761   13.0097  -11.8512 H   0  0  0  0  0  0  0  0  0  0  0  0
   -5.5209   11.6327  -10.3450 H   0  0  0  0  0  0  0  0  0  0  0  0
   -7.0320   12.5735  -10.1041 H   0  0  0  0  0  0  0  0  0  0  0  0
   -8.1772   10.1197  -13.8994 H   0  0  0  0  0  0  0  0  0  0  0  0
   -6.9259   12.2608  -14.0798 H   0  0  0  0  0  0  0  0  0  0  0  0
   -8.0380    9.6010   -7.2550 H   0  0  0  0  0  0  0  0  0  0  0  0
   -5.2205   15.1935  -12.9707 H   0  0  0  0  0  0  0  0  0  0  0  0
   -6.7424   12.3154   -6.9139 H   0  0  0  0  0  0  0  0  0  0  0  0
   -4.5075   13.2883   -6.4808 H   0  0  0  0  0  0  0  0  0  0  0  0
   -2.6693    9.7502   -8.0493 H   0  0  0  0  0  0  0  0  0  0  0  0
   -4.8943    8.7808   -8.4911 H   0  0  0  0  0  0  0  0  0  0  0  0
   -2.4097   14.2294   -6.2375 H   0  0  0  0  0  0  0  0  0  0  0  0
   -0.6685   10.5471   -7.5584 H   0  0  0  0  0  0  0  0  0  0  0  0
    1.4941   14.2779   -6.0748 H   0  0  0  0  0  0  0  0  0  0  0  0
    0.2544   15.4366   -6.6639 H   0  0  0  0  0  0  0  0  0  0  0  0
    0.1879   14.8324   -4.9736 H   0  0  0  0  0  0  0  0  0  0  0  0
   -3.5215   15.3697  -12.5204 H   0  0  0  0  0  0  0  0  0  0  0  0
   -1.7095   12.9870  -11.5263 H   0  0  0  0  0  0  0  0  0  0  0  0
   -1.1463   14.4168  -12.4564 H   0  0  0  0  0  0  0  0  0  0  0  0
   -2.0084   15.9854  -10.5669 H   0  0  0  0  0  0  0  0  0  0  0  0
   -2.5716   14.5556   -9.6369 H   0  0  0  0  0  0  0  0  0  0  0  0
  1  2  1  0  0  0  0
  1  4  1  0  0  0  0
  1 12  1  0  0  0  0
  2  6  1  0  0  0  0
  3  4  2  0  0  0  0
  3  5  1  0  0  0  0
  5  6  2  0  0  0  0
  5  9  1  0  0  0  0
  6  7  1  0  0  0  0
  7  8  1  0  0  0  0
  7 10  2  3  0  0  0
  8  9  2  0  0  0  0
 10 14  1  0  0  0  0
 11 12  2  0  0  0  0
 11 26  1  0  0  0  0
 12 13  1  0  0  0  0
 14 15  2  0  0  0  0
 14 19  1  0  0  0  0
 15 16  1  0  0  0  0
 16 17  2  0  0  0  0
 17 18  1  0  0  0  0
 17 20  1  0  0  0  0
 18 19  2  0  0  0  0
 20 21  2  0  0  0  0
 20 24  1  0  0  0  0
 21 22  1  0  0  0  0
 22 23  1  0  0  0  0
 22 25  1  0  0  0  0
 23 24  2  0  0  0  0
 26 27  1  0  0  0  0
 26 28  1  0  0  0  0
 27 28  1  0  0  0  0
  1 29  1  0  0  0  0
  2 30  1  0  0  0  0
  2 31  1  0  0  0  0
  3 32  1  0  0  0  0
  4 33  1  0  0  0  0
 10 34  1  0  0  0  0
 13 35  1  0  0  0  0
 15 36  1  0  0  0  0
 16 37  1  0  0  0  0
 18 38  1  0  0  0  0
 19 39  1  0  0  0  0
 21 40  1  0  0  0  0
 24 41  1  0  0  0  0
 25 42  1  0  0  0  0
 25 43  1  0  0  0  0
 25 44  1  0  0  0  0
 26 45  1  0  0  0  0
 27 46  1  0  0  0  0
 27 47  1  0  0  0  0
 28 48  1  0  0  0  0
 28 49  1  0  0  0  0
M  END
> <Name>
33

> <IC50[uM]>
0.008

$$$$
33
  -OEChem-05192314333D
 Structure written by MMmdl.
 49 53  0     1  0  0  0  0  0999 V2000
   -6.3918   12.3765  -12.0158 C   0  0  0  0  0  0  0  0  0  0  0  0
   -6.5335   11.8201  -10.7317 C   0  0  0  0  0  0  0  0  0  0  0  0
   -7.7273   10.5795  -13.0319 C   0  0  0  0  0  0  0  0  0  0  0  0
   -7.0082   11.7773  -13.1176 C   0  0  0  0  0  0  0  0  0  0  0  0
   -7.8294   10.0116  -11.7546 C   0  0  0  0  0  0  0  0  0  0  0  0
   -7.2533   10.6299  -10.5984 C   0  0  3  0  0  0  0  0  0  0  0  0
   -7.6133    9.7501   -9.5115 C   0  0  0  0  0  0  0  0  0  0  0  0
   -8.2802    8.7340   -9.9853 N   0  0  0  0  0  0  0  0  0  0  0  0
   -8.4149    8.8602  -11.2994 N   0  0  0  0  0  0  0  0  0  0  0  0
   -7.3368    9.8898   -8.0240 C   0  0  0  0  0  0  0  0  0  0  0  0
   -4.3580   13.5891  -11.5451 N   0  0  0  0  0  0  0  0  0  0  0  0
   -5.5327   13.6029  -12.2131 C   0  0  0  0  0  0  0  0  0  0  0  0
   -5.8791   14.5089  -12.9726 O   0  0  0  0  0  0  0  0  0  0  0  0
   -5.9622   10.4818   -7.7351 C   0  0  0  0  0  0  0  0  0  0  0  0
   -5.8525   11.7570   -7.1642 C   0  0  0  0  0  0  0  0  0  0  0  0
   -4.5920   12.3049   -6.9193 C   0  0  0  0  0  0  0  0  0  0  0  0
   -3.4386   11.5825   -7.2408 C   0  0  0  0  0  0  0  0  0  0  0  0
   -3.5579   10.3128   -7.8038 C   0  0  0  0  0  0  0  0  0  0  0  0
   -4.8126    9.7642   -8.0521 C   0  0  0  0  0  0  0  0  0  0  0  0
   -2.0919   12.1643   -6.9829 C   0  0  0  0  0  0  0  0  0  0  0  0
   -1.7362   13.4287   -6.5051 C   0  0  0  0  0  0  0  0  0  0  0  0
   -0.4017   13.4552   -6.4435 N   0  0  0  0  0  0  0  0  0  0  0  0
    0.1850   12.3496   -6.8156 N   0  0  0  0  0  0  0  0  0  0  0  0
   -0.8078   11.5460   -7.1722 C   0  0  0  0  0  0  0  0  0  0  0  0
    0.4351   14.5688   -6.0125 C   0  0  0  0  0  0  0  0  0  0  0  0
   -3.3172   14.5865  -11.7755 C   0  0  0  0  0  0  0  0  0  0  0  0
   -1.8924   14.0513  -11.7355 C   0  0  0  0  0  0  0  0  0  0  0  0
   -2.3932   14.9579  -10.6450 C   0  0  0  0  0  0  0  0  0  0  0  0
   -5.5209   11.6327  -10.3450 H   0  0  0  0  0  0  0  0  0  0  0  0
   -7.0320   12.5735  -10.1041 H   0  0  0  0  0  0  0  0  0  0  0  0
   -8.1772   10.1197  -13.8994 H   0  0  0  0  0  0  0  0  0  0  0  0
   -6.9259   12.2608  -14.0798 H   0  0  0  0  0  0  0  0  0  0  0  0
   -8.1783   11.2044  -10.4423 H   0  0  0  0  0  0  0  0  0  0  0  0
   -8.0380    9.6010   -7.2550 H   0  0  0  0  0  0  0  0  0  0  0  0
   -5.2205   15.1935  -12.9707 H   0  0  0  0  0  0  0  0  0  0  0  0
   -6.7424   12.3154   -6.9139 H   0  0  0  0  0  0  0  0  0  0  0  0
   -4.5075   13.2883   -6.4808 H   0  0  0  0  0  0  0  0  0  0  0  0
   -2.6693    9.7502   -8.0493 H   0  0  0  0  0  0  0  0  0  0  0  0
   -4.8943    8.7808   -8.4911 H   0  0  0  0  0  0  0  0  0  0  0  0
   -2.4097   14.2294   -6.2375 H   0  0  0  0  0  0  0  0  0  0  0  0
   -0.6685   10.5471   -7.5584 H   0  0  0  0  0  0  0  0  0  0  0  0
    1.4941   14.2779   -6.0748 H   0  0  0  0  0  0  0  0  0  0  0  0
    0.2544   15.4366   -6.6639 H   0  0  0  0  0  0  0  0  0  0  0  0
    0.1879   14.8324   -4.9736 H   0  0  0  0  0  0  0  0  0  0  0  0
   -3.5215   15.3697  -12.5204 H   0  0  0  0  0  0  0  0  0  0  0  0
   -1.7095   12.9870  -11.5263 H   0  0  0  0  0  0  0  0  0  0  0  0
   -1.1463   14.4168  -12.4564 H   0  0  0  0  0  0  0  0  0  0  0  0
   -2.0084   15.9854  -10.5669 H   0  0  0  0  0  0  0  0  0  0  0  0
   -2.5716   14.5556   -9.6369 H   0  0  0  0  0  0  0  0  0  0  0  0
  1  2  1  0  0  0  0
  1  4  2  0  0  0  0
  1 12  1  0  0  0  0
  2  6  1  0  0  0  0
  3  4  1  0  0  0  0
  3  5  2  0  0  0  0
  5  6  1  0  0  0  0
  5  9  1  0  0  0  0
  6  7  1  0  0  0  0
  7  8  1  0  0  0  0
  7 10  2  3  0  0  0
  8  9  2  0  0  0  0
 10 14  1  0  0  0  0
 11 12  2  0  0  0  0
 11 26  1  0  0  0  0
 12 13  1  0  0  0  0
 14 15  2  0  0  0  0
 14 19  1  0  0  0  0
 15 16  1  0  0  0  0
 16 17  2  0  0  0  0
 17 18  1  0  0  0  0
 17 20  1  0  0  0  0
 18 19  2  0  0  0  0
 20 21  2  0  0  0  0
 20 24  1  0  0  0  0
 21 22  1  0  0  0  0
 22 23  1  0  0  0  0
 22 25  1  0  0  0  0
 23 24  2  0  0  0  0
 26 27  1  0  0  0  0
 26 28  1  0  0  0  0
 27 28  1  0  0  0  0
  2 29  1  0  0  0  0
  2 30  1  0  0  0  0
  3 31  1  0  0  0  0
  4 32  1  0  0  0  0
  6 33  1  0  0  0  0
 10 34  1  0  0  0  0
 13 35  1  0  0  0  0
 15 36  1  0  0  0  0
 16 37  1  0  0  0  0
 18 38  1  0  0  0  0
 19 39  1  0  0  0  0
 21 40  1  0  0  0  0
 24 41  1  0  0  0  0
 25 42  1  0  0  0  0
 25 43  1  0  0  0  0
 25 44  1  0  0  0  0
 26 45  1  0  0  0  0
 27 46  1  0  0  0  0
 27 47  1  0  0  0  0
 28 48  1  0  0  0  0
 28 49  1  0  0  0  0
M  END
> <Name>
33

> <IC50[uM]>
0.008

$$$$
33
  -OEChem-05192314333D
 Structure written by MMmdl.
 49 53  0     0  0  0  0  0  0999 V2000
   -6.3918   12.3765  -12.0158 C   0  0  0  0  0  0  0  0  0  0  0  0
   -6.5335   11.8201  -10.7317 C   0  0  0  0  0  0  0  0  0  0  0  0
   -7.7273   10.5795  -13.0319 C   0  0  0  0  0  0  0  0  0  0  0  0
   -7.0082   11.7773  -13.1176 C   0  0  0  0  0  0  0  0  0  0  0  0
   -7.8294   10.0116  -11.7546 C   0  0  0  0  0  0  0  0  0  0  0  0
   -7.2533   10.6299  -10.5984 C   0  0  0  0  0  0  0  0  0  0  0  0
   -7.6133    9.7501   -9.5115 C   0  0  0  0  0  0  0  0  0  0  0  0
   -8.2802    8.7340   -9.9853 N   0  0  0  0  0  0  0  0  0  0  0  0
   -8.4149    8.8602  -11.2994 N   0  0  0  0  0  0  0  0  0  0  0  0
   -7.3368    9.8898   -8.0240 C   0  0  0  0  0  0  0  0  0  0  0  0
   -4.3580   13.5891  -11.5451 N   0  0  0  0  0  0  0  0  0  0  0  0
   -5.5327   13.6029  -12.2131 C   0  0  0  0  0  0  0  0  0  0  0  0
   -5.8791   14.5089  -12.9726 O   0  0  0  0  0  0  0  0  0  0  0  0
   -5.9622   10.4818   -7.7351 C   0  0  0  0  0  0  0  0  0  0  0  0
   -5.8525   11.7570   -7.1642 C   0  0  0  0  0  0  0  0  0  0  0  0
   -4.5920   12.3049   -6.9193 C   0  0  0  0  0  0  0  0  0  0  0  0
   -3.4386   11.5825   -7.2408 C   0  0  0  0  0  0  0  0  0  0  0  0
   -3.5579   10.3128   -7.8038 C   0  0  0  0  0  0  0  0  0  0  0  0
   -4.8126    9.7642   -8.0521 C   0  0  0  0  0  0  0  0  0  0  0  0
   -2.0919   12.1643   -6.9829 C   0  0  0  0  0  0  0  0  0  0  0  0
   -1.7362   13.4287   -6.5051 C   0  0  0  0  0  0  0  0  0  0  0  0
   -0.4017   13.4552   -6.4435 N   0  0  0  0  0  0  0  0  0  0  0  0
    0.1850   12.3496   -6.8156 N   0  0  0  0  0  0  0  0  0  0  0  0
   -0.8078   11.5460   -7.1722 C   0  0  0  0  0  0  0  0  0  0  0  0
    0.4351   14.5688   -6.0125 C   0  0  0  0  0  0  0  0  0  0  0  0
   -3.3172   14.5865  -11.7755 C   0  0  0  0  0  0  0  0  0  0  0  0
   -1.8924   14.0513  -11.7355 C   0  0  0  0  0  0  0  0  0  0  0  0
   -2.3932   14.9579  -10.6450 C   0  0  0  0  0  0  0  0  0  0  0  0
   -5.5209   11.6327  -10.3450 H   0  0  0  0  0  0  0  0  0  0  0  0
   -7.0320   12.5735  -10.1041 H   0  0  0  0  0  0  0  0  0  0  0  0
   -8.7470   10.7729  -13.3962 H   0  0  0  0  0  0  0  0  0  0  0  0
   -7.2367    9.8453  -13.6879 H   0  0  0  0  0  0  0  0  0  0  0  0
   -6.9259   12.2608  -14.0798 H   0  0  0  0  0  0  0  0  0  0  0  0
   -8.0380    9.6010   -7.2550 H   0  0  0  0  0  0  0  0  0  0  0  0
   -5.2205   15.1935  -12.9707 H   0  0  0  0  0  0  0  0  0  0  0  0
   -6.7424   12.3154   -6.9139 H   0  0  0  0  0  0  0  0  0  0  0  0
   -4.5075   13.2883   -6.4808 H   0  0  0  0  0  0  0  0  0  0  0  0
   -2.6693    9.7502   -8.0493 H   0  0  0  0  0  0  0  0  0  0  0  0
   -4.8943    8.7808   -8.4911 H   0  0  0  0  0  0  0  0  0  0  0  0
   -2.4097   14.2294   -6.2375 H   0  0  0  0  0  0  0  0  0  0  0  0
   -0.6685   10.5471   -7.5584 H   0  0  0  0  0  0  0  0  0  0  0  0
    1.4941   14.2779   -6.0748 H   0  0  0  0  0  0  0  0  0  0  0  0
    0.2544   15.4366   -6.6639 H   0  0  0  0  0  0  0  0  0  0  0  0
    0.1879   14.8324   -4.9736 H   0  0  0  0  0  0  0  0  0  0  0  0
   -3.5215   15.3697  -12.5204 H   0  0  0  0  0  0  0  0  0  0  0  0
   -1.7095   12.9870  -11.5263 H   0  0  0  0  0  0  0  0  0  0  0  0
   -1.1463   14.4168  -12.4564 H   0  0  0  0  0  0  0  0  0  0  0  0
   -2.0084   15.9854  -10.5669 H   0  0  0  0  0  0  0  0  0  0  0  0
   -2.5716   14.5556   -9.6369 H   0  0  0  0  0  0  0  0  0  0  0  0
  1  2  1  0  0  0  0
  1  4  2  0  0  0  0
  1 12  1  0  0  0  0
  2  6  1  0  0  0  0
  3  4  1  0  0  0  0
  3  5  1  0  0  0  0
  5  6  2  0  0  0  0
  5  9  1  0  0  0  0
  6  7  1  0  0  0  0
  7  8  1  0  0  0  0
  7 10  2  3  0  0  0
  8  9  2  0  0  0  0
 10 14  1  0  0  0  0
 11 12  2  0  0  0  0
 11 26  1  0  0  0  0
 12 13  1  0  0  0  0
 14 15  2  0  0  0  0
 14 19  1  0  0  0  0
 15 16  1  0  0  0  0
 16 17  2  0  0  0  0
 17 18  1  0  0  0  0
 17 20  1  0  0  0  0
 18 19  2  0  0  0  0
 20 21  2  0  0  0  0
 20 24  1  0  0  0  0
 21 22  1  0  0  0  0
 22 23  1  0  0  0  0
 22 25  1  0  0  0  0
 23 24  2  0  0  0  0
 26 27  1  0  0  0  0
 26 28  1  0  0  0  0
 27 28  1  0  0  0  0
  2 29  1  0  0  0  0
  2 30  1  0  0  0  0
  3 31  1  0  0  0  0
  3 32  1  0  0  0  0
  4 33  1  0  0  0  0
 10 34  1  0  0  0  0
 13 35  1  0  0  0  0
 15 36  1  0  0  0  0
 16 37  1  0  0  0  0
 18 38  1  0  0  0  0
 19 39  1  0  0  0  0
 21 40  1  0  0  0  0
 24 41  1  0  0  0  0
 25 42  1  0  0  0  0
 25 43  1  0  0  0  0
 25 44  1  0  0  0  0
 26 45  1  0  0  0  0
 27 46  1  0  0  0  0
 27 47  1  0  0  0  0
 28 48  1  0  0  0  0
 28 49  1  0  0  0  0
M  END
> <Name>
33

> <IC50[uM]>
0.008

$$$$
33
  -OEChem-05192314333D
 Structure written by MMmdl.
 49 53  0     1  0  0  0  0  0999 V2000
   -6.3918   12.3765  -12.0158 C   0  0  0  0  0  0  0  0  0  0  0  0
   -6.5335   11.8201  -10.7317 C   0  0  0  0  0  0  0  0  0  0  0  0
   -7.7273   10.5795  -13.0319 C   0  0  0  0  0  0  0  0  0  0  0  0
   -7.0082   11.7773  -13.1176 C   0  0  0  0  0  0  0  0  0  0  0  0
   -7.8294   10.0116  -11.7546 C   0  0  3  0  0  0  0  0  0  0  0  0
   -7.2533   10.6299  -10.5984 C   0  0  0  0  0  0  0  0  0  0  0  0
   -7.6133    9.7501   -9.5115 C   0  0  0  0  0  0  0  0  0  0  0  0
   -8.2802    8.7340   -9.9853 N   0  0  0  0  0  0  0  0  0  0  0  0
   -8.4149    8.8602  -11.2994 N   0  0  0  0  0  0  0  0  0  0  0  0
   -7.3368    9.8898   -8.0240 C   0  0  0  0  0  0  0  0  0  0  0  0
   -4.3580   13.5891  -11.5451 N   0  0  0  0  0  0  0  0  0  0  0  0
   -5.5327   13.6029  -12.2131 C   0  0  0  0  0  0  0  0  0  0  0  0
   -5.8791   14.5089  -12.9726 O   0  0  0  0  0  0  0  0  0  0  0  0
   -5.9622   10.4818   -7.7351 C   0  0  0  0  0  0  0  0  0  0  0  0
   -5.8525   11.7570   -7.1642 C   0  0  0  0  0  0  0  0  0  0  0  0
   -4.5920   12.3049   -6.9193 C   0  0  0  0  0  0  0  0  0  0  0  0
   -3.4386   11.5825   -7.2408 C   0  0  0  0  0  0  0  0  0  0  0  0
   -3.5579   10.3128   -7.8038 C   0  0  0  0  0  0  0  0  0  0  0  0
   -4.8126    9.7642   -8.0521 C   0  0  0  0  0  0  0  0  0  0  0  0
   -2.0919   12.1643   -6.9829 C   0  0  0  0  0  0  0  0  0  0  0  0
   -1.7362   13.4287   -6.5051 C   0  0  0  0  0  0  0  0  0  0  0  0
   -0.4017   13.4552   -6.4435 N   0  0  0  0  0  0  0  0  0  0  0  0
    0.1850   12.3496   -6.8156 N   0  0  0  0  0  0  0  0  0  0  0  0
   -0.8078   11.5460   -7.1722 C   0  0  0  0  0  0  0  0  0  0  0  0
    0.4351   14.5688   -6.0125 C   0  0  0  0  0  0  0  0  0  0  0  0
   -3.3172   14.5865  -11.7755 C   0  0  0  0  0  0  0  0  0  0  0  0
   -1.8924   14.0513  -11.7355 C   0  0  0  0  0  0  0  0  0  0  0  0
   -2.3932   14.9579  -10.6450 C   0  0  0  0  0  0  0  0  0  0  0  0
   -6.0964   12.3014   -9.8693 H   0  0  0  0  0  0  0  0  0  0  0  0
   -8.1772   10.1197  -13.8994 H   0  0  0  0  0  0  0  0  0  0  0  0
   -6.9259   12.2608  -14.0798 H   0  0  0  0  0  0  0  0  0  0  0  0
   -8.7677   10.5596  -11.5832 H   0  0  0  0  0  0  0  0  0  0  0  0
   -8.1022   10.5457   -7.5837 H   0  0  0  0  0  0  0  0  0  0  0  0
   -7.3960    8.8943   -7.5599 H   0  0  0  0  0  0  0  0  0  0  0  0
   -5.2205   15.1935  -12.9707 H   0  0  0  0  0  0  0  0  0  0  0  0
   -6.7424   12.3154   -6.9139 H   0  0  0  0  0  0  0  0  0  0  0  0
   -4.5075   13.2883   -6.4808 H   0  0  0  0  0  0  0  0  0  0  0  0
   -2.6693    9.7502   -8.0493 H   0  0  0  0  0  0  0  0  0  0  0  0
   -4.8943    8.7808   -8.4911 H   0  0  0  0  0  0  0  0  0  0  0  0
   -2.4097   14.2294   -6.2375 H   0  0  0  0  0  0  0  0  0  0  0  0
   -0.6685   10.5471   -7.5584 H   0  0  0  0  0  0  0  0  0  0  0  0
    1.4941   14.2779   -6.0748 H   0  0  0  0  0  0  0  0  0  0  0  0
    0.2544   15.4366   -6.6639 H   0  0  0  0  0  0  0  0  0  0  0  0
    0.1879   14.8324   -4.9736 H   0  0  0  0  0  0  0  0  0  0  0  0
   -3.5215   15.3697  -12.5204 H   0  0  0  0  0  0  0  0  0  0  0  0
   -1.7095   12.9870  -11.5263 H   0  0  0  0  0  0  0  0  0  0  0  0
   -1.1463   14.4168  -12.4564 H   0  0  0  0  0  0  0  0  0  0  0  0
   -2.0084   15.9854  -10.5669 H   0  0  0  0  0  0  0  0  0  0  0  0
   -2.5716   14.5556   -9.6369 H   0  0  0  0  0  0  0  0  0  0  0  0
  1  2  2  0  0  0  0
  1  4  1  0  0  0  0
  1 12  1  0  0  0  0
  2  6  1  0  0  0  0
  3  4  2  0  0  0  0
  3  5  1  0  0  0  0
  5  6  1  0  0  0  0
  5  9  1  0  0  0  0
  6  7  2  0  0  0  0
  7  8  1  0  0  0  0
  7 10  1  0  0  0  0
  8  9  2  0  0  0  0
 10 14  1  0  0  0  0
 11 12  2  0  0  0  0
 11 26  1  0  0  0  0
 12 13  1  0  0  0  0
 14 15  2  0  0  0  0
 14 19  1  0  0  0  0
 15 16  1  0  0  0  0
 16 17  2  0  0  0  0
 17 18  1  0  0  0  0
 17 20  1  0  0  0  0
 18 19  2  0  0  0  0
 20 21  2  0  0  0  0
 20 24  1  0  0  0  0
 21 22  1  0  0  0  0
 22 23  1  0  0  0  0
 22 25  1  0  0  0  0
 23 24  2  0  0  0  0
 26 27  1  0  0  0  0
 26 28  1  0  0  0  0
 27 28  1  0  0  0  0
  2 29  1  0  0  0  0
  3 30  1  0  0  0  0
  4 31  1  0  0  0  0
  5 32  1  0  0  0  0
 10 33  1  0  0  0  0
 10 34  1  0  0  0  0
 13 35  1  0  0  0  0
 15 36  1  0  0  0  0
 16 37  1  0  0  0  0
 18 38  1  0  0  0  0
 19 39  1  0  0  0  0
 21 40  1  0  0  0  0
 24 41  1  0  0  0  0
 25 42  1  0  0  0  0
 25 43  1  0  0  0  0
 25 44  1  0  0  0  0
 26 45  1  0  0  0  0
 27 46  1  0  0  0  0
 27 47  1  0  0  0  0
 28 48  1  0  0  0  0
 28 49  1  0  0  0  0
M  END
> <Name>
33

> <IC50[uM]>
0.008

$$$$
33
  -OEChem-05192314333D
 Structure written by MMmdl.
 49 53  0     0  0  0  0  0  0999 V2000
   -6.3918   12.3765  -12.0158 C   0  0  0  0  0  0  0  0  0  0  0  0
   -6.5335   11.8201  -10.7317 C   0  0  0  0  0  0  0  0  0  0  0  0
   -7.7273   10.5795  -13.0319 C   0  0  0  0  0  0  0  0  0  0  0  0
   -7.0082   11.7773  -13.1176 C   0  0  0  0  0  0  0  0  0  0  0  0
   -7.8294   10.0116  -11.7546 C   0  0  0  0  0  0  0  0  0  0  0  0
   -7.2533   10.6299  -10.5984 C   0  0  0  0  0  0  0  0  0  0  0  0
   -7.6133    9.7501   -9.5115 C   0  0  0  0  0  0  0  0  0  0  0  0
   -8.2802    8.7340   -9.9853 N   0  0  0  0  0  0  0  0  0  0  0  0
   -8.4149    8.8602  -11.2994 N   0  0  0  0  0  0  0  0  0  0  0  0
   -7.3368    9.8898   -8.0240 C   0  0  0  0  0  0  0  0  0  0  0  0
   -4.3580   13.5891  -11.5451 N   0  0  0  0  0  0  0  0  0  0  0  0
   -5.5327   13.6029  -12.2131 C   0  0  0  0  0  0  0  0  0  0  0  0
   -5.8791   14.5089  -12.9726 O   0  0  0  0  0  0  0  0  0  0  0  0
   -5.9622   10.4818   -7.7351 C   0  0  0  0  0  0  0  0  0  0  0  0
   -5.8525   11.7570   -7.1642 C   0  0  0  0  0  0  0  0  0  0  0  0
   -4.5920   12.3049   -6.9193 C   0  0  0  0  0  0  0  0  0  0  0  0
   -3.4386   11.5825   -7.2408 C   0  0  0  0  0  0  0  0  0  0  0  0
   -3.5579   10.3128   -7.8038 C   0  0  0  0  0  0  0  0  0  0  0  0
   -4.8126    9.7642   -8.0521 C   0  0  0  0  0  0  0  0  0  0  0  0
   -2.0919   12.1643   -6.9829 C   0  0  0  0  0  0  0  0  0  0  0  0
   -1.7362   13.4287   -6.5051 C   0  0  0  0  0  0  0  0  0  0  0  0
   -0.4017   13.4552   -6.4435 N   0  0  0  0  0  0  0  0  0  0  0  0
    0.1850   12.3496   -6.8156 N   0  0  0  0  0  0  0  0  0  0  0  0
   -0.8078   11.5460   -7.1722 C   0  0  0  0  0  0  0  0  0  0  0  0
    0.4351   14.5688   -6.0125 C   0  0  0  0  0  0  0  0  0  0  0  0
   -3.3172   14.5865  -11.7755 C   0  0  0  0  0  0  0  0  0  0  0  0
   -1.8924   14.0513  -11.7355 C   0  0  0  0  0  0  0  0  0  0  0  0
   -2.3932   14.9579  -10.6450 C   0  0  0  0  0  0  0  0  0  0  0  0
   -6.0964   12.3014   -9.8693 H   0  0  0  0  0  0  0  0  0  0  0  0
   -8.1772   10.1197  -13.8994 H   0  0  0  0  0  0  0  0  0  0  0  0
   -7.7108   12.5246  -13.5150 H   0  0  0  0  0  0  0  0  0  0  0  0
   -6.2088   11.5987  -13.8518 H   0  0  0  0  0  0  0  0  0  0  0  0
   -8.1022   10.5457   -7.5837 H   0  0  0  0  0  0  0  0  0  0  0  0
   -7.3960    8.8943   -7.5599 H   0  0  0  0  0  0  0  0  0  0  0  0
   -5.2205   15.1935  -12.9707 H   0  0  0  0  0  0  0  0  0  0  0  0
   -6.7424   12.3154   -6.9139 H   0  0  0  0  0  0  0  0  0  0  0  0
   -4.5075   13.2883   -6.4808 H   0  0  0  0  0  0  0  0  0  0  0  0
   -2.6693    9.7502   -8.0493 H   0  0  0  0  0  0  0  0  0  0  0  0
   -4.8943    8.7808   -8.4911 H   0  0  0  0  0  0  0  0  0  0  0  0
   -2.4097   14.2294   -6.2375 H   0  0  0  0  0  0  0  0  0  0  0  0
   -0.6685   10.5471   -7.5584 H   0  0  0  0  0  0  0  0  0  0  0  0
    1.4941   14.2779   -6.0748 H   0  0  0  0  0  0  0  0  0  0  0  0
    0.2544   15.4366   -6.6639 H   0  0  0  0  0  0  0  0  0  0  0  0
    0.1879   14.8324   -4.9736 H   0  0  0  0  0  0  0  0  0  0  0  0
   -3.5215   15.3697  -12.5204 H   0  0  0  0  0  0  0  0  0  0  0  0
   -1.7095   12.9870  -11.5263 H   0  0  0  0  0  0  0  0  0  0  0  0
   -1.1463   14.4168  -12.4564 H   0  0  0  0  0  0  0  0  0  0  0  0
   -2.0084   15.9854  -10.5669 H   0  0  0  0  0  0  0  0  0  0  0  0
   -2.5716   14.5556   -9.6369 H   0  0  0  0  0  0  0  0  0  0  0  0
  1  2  2  0  0  0  0
  1  4  1  0  0  0  0
  1 12  1  0  0  0  0
  2  6  1  0  0  0  0
  3  4  1  0  0  0  0
  3  5  2  0  0  0  0
  5  6  1  0  0  0  0
  5  9  1  0  0  0  0
  6  7  2  0  0  0  0
  7  8  1  0  0  0  0
  7 10  1  0  0  0  0
  8  9  2  0  0  0  0
 10 14  1  0  0  0  0
 11 12  2  0  0  0  0
 11 26  1  0  0  0  0
 12 13  1  0  0  0  0
 14 15  2  0  0  0  0
 14 19  1  0  0  0  0
 15 16  1  0  0  0  0
 16 17  2  0  0  0  0
 17 18  1  0  0  0  0
 17 20  1  0  0  0  0
 18 19  2  0  0  0  0
 20 21  2  0  0  0  0
 20 24  1  0  0  0  0
 21 22  1  0  0  0  0
 22 23  1  0  0  0  0
 22 25  1  0  0  0  0
 23 24  2  0  0  0  0
 26 27  1  0  0  0  0
 26 28  1  0  0  0  0
 27 28  1  0  0  0  0
  2 29  1  0  0  0  0
  3 30  1  0  0  0  0
  4 31  1  0  0  0  0
  4 32  1  0  0  0  0
 10 33  1  0  0  0  0
 10 34  1  0  0  0  0
 13 35  1  0  0  0  0
 15 36  1  0  0  0  0
 16 37  1  0  0  0  0
 18 38  1  0  0  0  0
 19 39  1  0  0  0  0
 21 40  1  0  0  0  0
 24 41  1  0  0  0  0
 25 42  1  0  0  0  0
 25 43  1  0  0  0  0
 25 44  1  0  0  0  0
 26 45  1  0  0  0  0
 27 46  1  0  0  0  0
 27 47  1  0  0  0  0
 28 48  1  0  0  0  0
 28 49  1  0  0  0  0
M  END
> <Name>
33

> <IC50[uM]>
0.008

$$$$
33
  -OEChem-05192314333D
 Structure written by MMmdl.
 49 53  0     0  0  0  0  0  0999 V2000
   -6.3918   12.3765  -12.0158 C   0  0  0  0  0  0  0  0  0  0  0  0
   -6.5335   11.8201  -10.7317 C   0  0  0  0  0  0  0  0  0  0  0  0
   -7.7273   10.5795  -13.0319 C   0  0  0  0  0  0  0  0  0  0  0  0
   -7.0082   11.7773  -13.1176 C   0  0  0  0  0  0  0  0  0  0  0  0
   -7.8294   10.0116  -11.7546 C   0  0  0  0  0  0  0  0  0  0  0  0
   -7.2533   10.6299  -10.5984 C   0  0  0  0  0  0  0  0  0  0  0  0
   -7.6133    9.7501   -9.5115 C   0  0  0  0  0  0  0  0  0  0  0  0
   -8.2802    8.7340   -9.9853 N   0  0  0  0  0  0  0  0  0  0  0  0
   -8.4149    8.8602  -11.2994 N   0  0  0  0  0  0  0  0  0  0  0  0
   -7.3368    9.8898   -8.0240 C   0  0  0  0  0  0  0  0  0  0  0  0
   -4.3580   13.5891  -11.5451 N   0  0  0  0  0  0  0  0  0  0  0  0
   -5.5327   13.6029  -12.2131 C   0  0  0  0  0  0  0  0  0  0  0  0
   -5.8791   14.5089  -12.9726 O   0  0  0  0  0  0  0  0  0  0  0  0
   -5.9622   10.4818   -7.7351 C   0  0  0  0  0  0  0  0  0  0  0  0
   -5.8525   11.7570   -7.1642 C   0  0  0  0  0  0  0  0  0  0  0  0
   -4.5920   12.3049   -6.9193 C   0  0  0  0  0  0  0  0  0  0  0  0
   -3.4386   11.5825   -7.2408 C   0  0  0  0  0  0  0  0  0  0  0  0
   -3.5579   10.3128   -7.8038 C   0  0  0  0  0  0  0  0  0  0  0  0
   -4.8126    9.7642   -8.0521 C   0  0  0  0  0  0  0  0  0  0  0  0
   -2.0919   12.1643   -6.9829 C   0  0  0  0  0  0  0  0  0  0  0  0
   -1.7362   13.4287   -6.5051 C   0  0  0  0  0  0  0  0  0  0  0  0
   -0.4017   13.4552   -6.4435 N   0  0  0  0  0  0  0  0  0  0  0  0
    0.1850   12.3496   -6.8156 N   0  0  0  0  0  0  0  0  0  0  0  0
   -0.8078   11.5460   -7.1722 C   0  0  0  0  0  0  0  0  0  0  0  0
    0.4351   14.5688   -6.0125 C   0  0  0  0  0  0  0  0  0  0  0  0
   -3.3172   14.5865  -11.7755 C   0  0  0  0  0  0  0  0  0  0  0  0
   -1.8924   14.0513  -11.7355 C   0  0  0  0  0  0  0  0  0  0  0  0
   -2.3932   14.9579  -10.6450 C   0  0  0  0  0  0  0  0  0  0  0  0
   -5.5209   11.6327  -10.3450 H   0  0  0  0  0  0  0  0  0  0  0  0
   -7.0320   12.5735  -10.1041 H   0  0  0  0  0  0  0  0  0  0  0  0
   -8.1772   10.1197  -13.8994 H   0  0  0  0  0  0  0  0  0  0  0  0
   -6.9259   12.2608  -14.0798 H   0  0  0  0  0  0  0  0  0  0  0  0
   -8.1022   10.5457   -7.5837 H   0  0  0  0  0  0  0  0  0  0  0  0
   -7.3960    8.8943   -7.5599 H   0  0  0  0  0  0  0  0  0  0  0  0
   -5.2205   15.1935  -12.9707 H   0  0  0  0  0  0  0  0  0  0  0  0
   -6.7424   12.3154   -6.9139 H   0  0  0  0  0  0  0  0  0  0  0  0
   -4.5075   13.2883   -6.4808 H   0  0  0  0  0  0  0  0  0  0  0  0
   -2.6693    9.7502   -8.0493 H   0  0  0  0  0  0  0  0  0  0  0  0
   -4.8943    8.7808   -8.4911 H   0  0  0  0  0  0  0  0  0  0  0  0
   -2.4097   14.2294   -6.2375 H   0  0  0  0  0  0  0  0  0  0  0  0
   -0.6685   10.5471   -7.5584 H   0  0  0  0  0  0  0  0  0  0  0  0
    1.4941   14.2779   -6.0748 H   0  0  0  0  0  0  0  0  0  0  0  0
    0.2544   15.4366   -6.6639 H   0  0  0  0  0  0  0  0  0  0  0  0
    0.1879   14.8324   -4.9736 H   0  0  0  0  0  0  0  0  0  0  0  0
   -3.5215   15.3697  -12.5204 H   0  0  0  0  0  0  0  0  0  0  0  0
   -1.7095   12.9870  -11.5263 H   0  0  0  0  0  0  0  0  0  0  0  0
   -1.1463   14.4168  -12.4564 H   0  0  0  0  0  0  0  0  0  0  0  0
   -2.0084   15.9854  -10.5669 H   0  0  0  0  0  0  0  0  0  0  0  0
   -2.5716   14.5556   -9.6369 H   0  0  0  0  0  0  0  0  0  0  0  0
  1  2  1  0  0  0  0
  1  4  2  0  0  0  0
  1 12  1  0  0  0  0
  2  6  1  0  0  0  0
  3  4  1  0  0  0  0
  3  5  2  0  0  0  0
  5  6  1  0  0  0  0
  5  9  1  0  0  0  0
  6  7  2  0  0  0  0
  7  8  1  0  0  0  0
  7 10  1  0  0  0  0
  8  9  2  0  0  0  0
 10 14  1  0  0  0  0
 11 12  2  0  0  0  0
 11 26  1  0  0  0  0
 12 13  1  0  0  0  0
 14 15  2  0  0  0  0
 14 19  1  0  0  0  0
 15 16  1  0  0  0  0
 16 17  2  0  0  0  0
 17 18  1  0  0  0  0
 17 20  1  0  0  0  0
 18 19  2  0  0  0  0
 20 21  2  0  0  0  0
 20 24  1  0  0  0  0
 21 22  1  0  0  0  0
 22 23  1  0  0  0  0
 22 25  1  0  0  0  0
 23 24  2  0  0  0  0
 26 27  1  0  0  0  0
 26 28  1  0  0  0  0
 27 28  1  0  0  0  0
  2 29  1  0  0  0  0
  2 30  1  0  0  0  0
  3 31  1  0  0  0  0
  4 32  1  0  0  0  0
 10 33  1  0  0  0  0
 10 34  1  0  0  0  0
 13 35  1  0  0  0  0
 15 36  1  0  0  0  0
 16 37  1  0  0  0  0
 18 38  1  0  0  0  0
 19 39  1  0  0  0  0
 21 40  1  0  0  0  0
 24 41  1  0  0  0  0
 25 42  1  0  0  0  0
 25 43  1  0  0  0  0
 25 44  1  0  0  0  0
 26 45  1  0  0  0  0
 27 46  1  0  0  0  0
 27 47  1  0  0  0  0
 28 48  1  0  0  0  0
 28 49  1  0  0  0  0
M  END
> <Name>
33

> <IC50[uM]>
0.008

$$$$
33
  -OEChem-05192314333D
 Structure written by MMmdl.
 49 53  0     1  0  0  0  0  0999 V2000
   -6.3918   12.3765  -12.0158 C   0  0  0  0  0  0  0  0  0  0  0  0
   -6.5335   11.8201  -10.7317 C   0  0  0  0  0  0  0  0  0  0  0  0
   -7.7273   10.5795  -13.0319 C   0  0  0  0  0  0  0  0  0  0  0  0
   -7.0082   11.7773  -13.1176 C   0  0  0  0  0  0  0  0  0  0  0  0
   -7.8294   10.0116  -11.7546 C   0  0  0  0  0  0  0  0  0  0  0  0
   -7.2533   10.6299  -10.5984 C   0  0  3  0  0  0  0  0  0  0  0  0
   -7.6133    9.7501   -9.5115 C   0  0  0  0  0  0  0  0  0  0  0  0
   -8.2802    8.7340   -9.9853 N   0  0  0  0  0  0  0  0  0  0  0  0
   -8.4149    8.8602  -11.2994 N   0  0  0  0  0  0  0  0  0  0  0  0
   -7.3368    9.8898   -8.0240 C   0  0  0  0  0  0  0  0  0  0  0  0
   -4.3580   13.5891  -11.5451 N   0  0  0  0  0  0  0  0  0  0  0  0
   -5.5327   13.6029  -12.2131 C   0  0  0  0  0  0  0  0  0  0  0  0
   -5.8791   14.5089  -12.9726 O   0  0  0  0  0  0  0  0  0  0  0  0
   -5.9622   10.4818   -7.7351 C   0  0  0  0  0  0  0  0  0  0  0  0
   -5.8525   11.7570   -7.1642 C   0  0  0  0  0  0  0  0  0  0  0  0
   -4.5920   12.3049   -6.9193 C   0  0  0  0  0  0  0  0  0  0  0  0
   -3.4386   11.5825   -7.2408 C   0  0  0  0  0  0  0  0  0  0  0  0
   -3.5579   10.3128   -7.8038 C   0  0  0  0  0  0  0  0  0  0  0  0
   -4.8126    9.7642   -8.0521 C   0  0  0  0  0  0  0  0  0  0  0  0
   -2.0919   12.1643   -6.9829 C   0  0  0  0  0  0  0  0  0  0  0  0
   -1.7362   13.4287   -6.5051 C   0  0  0  0  0  0  0  0  0  0  0  0
   -0.4017   13.4552   -6.4435 N   0  0  0  0  0  0  0  0  0  0  0  0
    0.1850   12.3496   -6.8156 N   0  0  0  0  0  0  0  0  0  0  0  0
   -0.8078   11.5460   -7.1722 C   0  0  0  0  0  0  0  0  0  0  0  0
    0.4351   14.5688   -6.0125 C   0  0  0  0  0  0  0  0  0  0  0  0
   -3.3172   14.5865  -11.7755 C   0  0  0  0  0  0  0  0  0  0  0  0
   -1.8924   14.0513  -11.7355 C   0  0  0  0  0  0  0  0  0  0  0  0
   -2.3932   14.9579  -10.6450 C   0  0  0  0  0  0  0  0  0  0  0  0
   -6.0964   12.3014   -9.8693 H   0  0  0  0  0  0  0  0  0  0  0  0
   -8.1772   10.1197  -13.8994 H   0  0  0  0  0  0  0  0  0  0  0  0
   -6.9259   12.2608  -14.0798 H   0  0  0  0  0  0  0  0  0  0  0  0
   -8.1783   11.2044  -10.4423 H   0  0  0  0  0  0  0  0  0  0  0  0
   -8.6361    7.9747   -9.4405 H   0  0  0  0  0  0  0  0  0  0  0  0
   -8.0380    9.6010   -7.2550 H   0  0  0  0  0  0  0  0  0  0  0  0
   -5.2205   15.1935  -12.9707 H   0  0  0  0  0  0  0  0  0  0  0  0
   -6.7424   12.3154   -6.9139 H   0  0  0  0  0  0  0  0  0  0  0  0
   -4.5075   13.2883   -6.4808 H   0  0  0  0  0  0  0  0  0  0  0  0
   -2.6693    9.7502   -8.0493 H   0  0  0  0  0  0  0  0  0  0  0  0
   -4.8943    8.7808   -8.4911 H   0  0  0  0  0  0  0  0  0  0  0  0
   -2.4097   14.2294   -6.2375 H   0  0  0  0  0  0  0  0  0  0  0  0
   -0.6685   10.5471   -7.5584 H   0  0  0  0  0  0  0  0  0  0  0  0
    1.4941   14.2779   -6.0748 H   0  0  0  0  0  0  0  0  0  0  0  0
    0.2544   15.4366   -6.6639 H   0  0  0  0  0  0  0  0  0  0  0  0
    0.1879   14.8324   -4.9736 H   0  0  0  0  0  0  0  0  0  0  0  0
   -3.5215   15.3697  -12.5204 H   0  0  0  0  0  0  0  0  0  0  0  0
   -1.7095   12.9870  -11.5263 H   0  0  0  0  0  0  0  0  0  0  0  0
   -1.1463   14.4168  -12.4564 H   0  0  0  0  0  0  0  0  0  0  0  0
   -2.0084   15.9854  -10.5669 H   0  0  0  0  0  0  0  0  0  0  0  0
   -2.5716   14.5556   -9.6369 H   0  0  0  0  0  0  0  0  0  0  0  0
  1  2  2  0  0  0  0
  1  4  1  0  0  0  0
  1 12  1  0  0  0  0
  2  6  1  0  0  0  0
  3  4  2  0  0  0  0
  3  5  1  0  0  0  0
  5  6  1  0  0  0  0
  5  9  2  0  0  0  0
  6  7  1  0  0  0  0
  7  8  1  0  0  0  0
  7 10  2  3  0  0  0
  8  9  1  0  0  0  0
 10 14  1  0  0  0  0
 11 12  2  0  0  0  0
 11 26  1  0  0  0  0
 12 13  1  0  0  0  0
 14 15  2  0  0  0  0
 14 19  1  0  0  0  0
 15 16  1  0  0  0  0
 16 17  2  0  0  0  0
 17 18  1  0  0  0  0
 17 20  1  0  0  0  0
 18 19  2  0  0  0  0
 20 21  2  0  0  0  0
 20 24  1  0  0  0  0
 21 22  1  0  0  0  0
 22 23  1  0  0  0  0
 22 25  1  0  0  0  0
 23 24  2  0  0  0  0
 26 27  1  0  0  0  0
 26 28  1  0  0  0  0
 27 28  1  0  0  0  0
  2 29  1  0  0  0  0
  3 30  1  0  0  0  0
  4 31  1  0  0  0  0
  6 32  1  0  0  0  0
  8 33  1  0  0  0  0
 10 34  1  0  0  0  0
 13 35  1  0  0  0  0
 15 36  1  0  0  0  0
 16 37  1  0  0  0  0
 18 38  1  0  0  0  0
 19 39  1  0  0  0  0
 21 40  1  0  0  0  0
 24 41  1  0  0  0  0
 25 42  1  0  0  0  0
 25 43  1  0  0  0  0
 25 44  1  0  0  0  0
 26 45  1  0  0  0  0
 27 46  1  0  0  0  0
 27 47  1  0  0  0  0
 28 48  1  0  0  0  0
 28 49  1  0  0  0  0
M  END
> <Name>
33

> <IC50[uM]>
0.008

$$$$
33
  -OEChem-05192314333D
 Structure written by MMmdl.
 49 53  0     1  0  0  0  0  0999 V2000
   -6.3918   12.3765  -12.0158 C   0  0  0  0  0  0  0  0  0  0  0  0
   -6.5335   11.8201  -10.7317 C   0  0  0  0  0  0  0  0  0  0  0  0
   -7.7273   10.5795  -13.0319 C   0  0  0  0  0  0  0  0  0  0  0  0
   -7.0082   11.7773  -13.1176 C   0  0  0  0  0  0  0  0  0  0  0  0
   -7.8294   10.0116  -11.7546 C   0  0  0  0  0  0  0  0  0  0  0  0
   -7.2533   10.6299  -10.5984 C   0  0  0  0  0  0  0  0  0  0  0  0
   -7.6133    9.7501   -9.5115 C   0  0  0  0  0  0  0  0  0  0  0  0
   -8.2802    8.7340   -9.9853 N   0  0  0  0  0  0  0  0  0  0  0  0
   -8.4149    8.8602  -11.2994 N   0  0  0  0  0  0  0  0  0  0  0  0
   -7.3368    9.8898   -8.0240 C   0  0  0  0  0  0  0  0  0  0  0  0
   -4.3580   13.5891  -11.5451 N   0  0  0  0  0  0  0  0  0  0  0  0
   -5.5327   13.6029  -12.2131 C   0  0  0  0  0  0  0  0  0  0  0  0
   -5.8791   14.5089  -12.9726 O   0  0  0  0  0  0  0  0  0  0  0  0
   -5.9622   10.4818   -7.7351 C   0  0  0  0  0  0  0  0  0  0  0  0
   -5.8525   11.7570   -7.1642 C   0  0  0  0  0  0  0  0  0  0  0  0
   -4.5920   12.3049   -6.9193 C   0  0  0  0  0  0  0  0  0  0  0  0
   -3.4386   11.5825   -7.2408 C   0  0  0  0  0  0  0  0  0  0  0  0
   -3.5579   10.3128   -7.8038 C   0  0  0  0  0  0  0  0  0  0  0  0
   -4.8126    9.7642   -8.0521 C   0  0  0  0  0  0  0  0  0  0  0  0
   -2.0919   12.1643   -6.9829 C   0  0  0  0  0  0  0  0  0  0  0  0
   -1.7362   13.4287   -6.5051 C   0  0  0  0  0  0  0  0  0  0  0  0
   -0.4017   13.4552   -6.4435 N   0  0  3  0  0  0  0  0  0  0  0  0
    0.1850   12.3496   -6.8156 N   0  0  0  0  0  0  0  0  0  0  0  0
   -0.8078   11.5460   -7.1722 C   0  0  0  0  0  0  0  0  0  0  0  0
    0.4351   14.5688   -6.0125 C   0  0  0  0  0  0  0  0  0  0  0  0
   -3.3172   14.5865  -11.7755 C   0  0  0  0  0  0  0  0  0  0  0  0
   -1.8924   14.0513  -11.7355 C   0  0  0  0  0  0  0  0  0  0  0  0
   -2.3932   14.9579  -10.6450 C   0  0  0  0  0  0  0  0  0  0  0  0
   -6.0964   12.3014   -9.8693 H   0  0  0  0  0  0  0  0  0  0  0  0
   -8.1772   10.1197  -13.8994 H   0  0  0  0  0  0  0  0  0  0  0  0
   -6.9259   12.2608  -14.0798 H   0  0  0  0  0  0  0  0  0  0  0  0
   -8.0380    9.6010   -7.2550 H   0  0  0  0  0  0  0  0  0  0  0  0
   -4.1960   12.8702  -10.8691 H   0  0  0  0  0  0  0  0  0  0  0  0
   -5.9736   10.0292   -6.7326 H   0  0  0  0  0  0  0  0  0  0  0  0
   -6.7424   12.3154   -6.9139 H   0  0  0  0  0  0  0  0  0  0  0  0
   -4.5075   13.2883   -6.4808 H   0  0  0  0  0  0  0  0  0  0  0  0
   -2.6693    9.7502   -8.0493 H   0  0  0  0  0  0  0  0  0  0  0  0
   -4.8943    8.7808   -8.4911 H   0  0  0  0  0  0  0  0  0  0  0  0
   -2.0995   14.2088   -7.1903 H   0  0  0  0  0  0  0  0  0  0  0  0
   -2.1650   13.5904   -5.5051 H   0  0  0  0  0  0  0  0  0  0  0  0
   -0.6685   10.5471   -7.5584 H   0  0  0  0  0  0  0  0  0  0  0  0
    1.4941   14.2779   -6.0748 H   0  0  0  0  0  0  0  0  0  0  0  0
    0.2544   15.4366   -6.6639 H   0  0  0  0  0  0  0  0  0  0  0  0
    0.1879   14.8324   -4.9736 H   0  0  0  0  0  0  0  0  0  0  0  0
   -3.5215   15.3697  -12.5204 H   0  0  0  0  0  0  0  0  0  0  0  0
   -1.7095   12.9870  -11.5263 H   0  0  0  0  0  0  0  0  0  0  0  0
   -1.1463   14.4168  -12.4564 H   0  0  0  0  0  0  0  0  0  0  0  0
   -2.0084   15.9854  -10.5669 H   0  0  0  0  0  0  0  0  0  0  0  0
   -2.5716   14.5556   -9.6369 H   0  0  0  0  0  0  0  0  0  0  0  0
  1  2  2  0  0  0  0
  1  4  1  0  0  0  0
  1 12  1  0  0  0  0
  2  6  1  0  0  0  0
  3  4  2  0  0  0  0
  3  5  1  0  0  0  0
  5  6  2  0  0  0  0
  5  9  1  0  0  0  0
  6  7  1  0  0  0  0
  7  8  1  0  0  0  0
  7 10  2  3  0  0  0
  8  9  2  0  0  0  0
 10 14  1  0  0  0  0
 11 12  1  0  0  0  0
 11 26  1  0  0  0  0
 12 13  2  0  0  0  0
 14 15  1  0  0  0  0
 14 19  1  0  0  0  0
 15 16  2  0  0  0  0
 16 17  1  0  0  0  0
 17 18  1  0  0  0  0
 17 20  2  0  0  0  0
 18 19  2  0  0  0  0
 20 21  1  0  0  0  0
 20 24  1  0  0  0  0
 21 22  1  0  0  0  0
 22 23  1  0  0  0  0
 22 25  1  0  0  0  0
 23 24  2  0  0  0  0
 26 27  1  0  0  0  0
 26 28  1  0  0  0  0
 27 28  1  0  0  0  0
  2 29  1  0  0  0  0
  3 30  1  0  0  0  0
  4 31  1  0  0  0  0
 10 32  1  0  0  0  0
 11 33  1  0  0  0  0
 14 34  1  0  0  0  0
 15 35  1  0  0  0  0
 16 36  1  0  0  0  0
 18 37  1  0  0  0  0
 19 38  1  0  0  0  0
 21 39  1  0  0  0  0
 21 40  1  0  0  0  0
 24 41  1  0  0  0  0
 25 42  1  0  0  0  0
 25 43  1  0  0  0  0
 25 44  1  0  0  0  0
 26 45  1  0  0  0  0
 27 46  1  0  0  0  0
 27 47  1  0  0  0  0
 28 48  1  0  0  0  0
 28 49  1  0  0  0  0
M  END
> <Name>
33

> <IC50[uM]>
0.008

$$$$
33
  -OEChem-05192314333D
 Structure written by MMmdl.
 49 53  0     1  0  0  0  0  0999 V2000
   -6.3918   12.3765  -12.0158 C   0  0  0  0  0  0  0  0  0  0  0  0
   -6.5335   11.8201  -10.7317 C   0  0  0  0  0  0  0  0  0  0  0  0
   -7.7273   10.5795  -13.0319 C   0  0  0  0  0  0  0  0  0  0  0  0
   -7.0082   11.7773  -13.1176 C   0  0  0  0  0  0  0  0  0  0  0  0
   -7.8294   10.0116  -11.7546 C   0  0  0  0  0  0  0  0  0  0  0  0
   -7.2533   10.6299  -10.5984 C   0  0  0  0  0  0  0  0  0  0  0  0
   -7.6133    9.7501   -9.5115 C   0  0  0  0  0  0  0  0  0  0  0  0
   -8.2802    8.7340   -9.9853 N   0  0  0  0  0  0  0  0  0  0  0  0
   -8.4149    8.8602  -11.2994 N   0  0  0  0  0  0  0  0  0  0  0  0
   -7.3368    9.8898   -8.0240 C   0  0  0  0  0  0  0  0  0  0  0  0
   -4.3580   13.5891  -11.5451 N   0  0  0  0  0  0  0  0  0  0  0  0
   -5.5327   13.6029  -12.2131 C   0  0  0  0  0  0  0  0  0  0  0  0
   -5.8791   14.5089  -12.9726 O   0  0  0  0  0  0  0  0  0  0  0  0
   -5.9622   10.4818   -7.7351 C   0  0  0  0  0  0  0  0  0  0  0  0
   -5.8525   11.7570   -7.1642 C   0  0  0  0  0  0  0  0  0  0  0  0
   -4.5920   12.3049   -6.9193 C   0  0  0  0  0  0  0  0  0  0  0  0
   -3.4386   11.5825   -7.2408 C   0  0  0  0  0  0  0  0  0  0  0  0
   -3.5579   10.3128   -7.8038 C   0  0  0  0  0  0  0  0  0  0  0  0
   -4.8126    9.7642   -8.0521 C   0  0  0  0  0  0  0  0  0  0  0  0
   -2.0919   12.1643   -6.9829 C   0  0  0  0  0  0  0  0  0  0  0  0
   -1.7362   13.4287   -6.5051 C   0  0  0  0  0  0  0  0  0  0  0  0
   -0.4017   13.4552   -6.4435 N   0  0  3  0  0  0  0  0  0  0  0  0
    0.1850   12.3496   -6.8156 N   0  0  0  0  0  0  0  0  0  0  0  0
   -0.8078   11.5460   -7.1722 C   0  0  0  0  0  0  0  0  0  0  0  0
    0.4351   14.5688   -6.0125 C   0  0  0  0  0  0  0  0  0  0  0  0
   -3.3172   14.5865  -11.7755 C   0  0  0  0  0  0  0  0  0  0  0  0
   -1.8924   14.0513  -11.7355 C   0  0  0  0  0  0  0  0  0  0  0  0
   -2.3932   14.9579  -10.6450 C   0  0  0  0  0  0  0  0  0  0  0  0
   -6.0964   12.3014   -9.8693 H   0  0  0  0  0  0  0  0  0  0  0  0
   -8.1772   10.1197  -13.8994 H   0  0  0  0  0  0  0  0  0  0  0  0
   -6.9259   12.2608  -14.0798 H   0  0  0  0  0  0  0  0  0  0  0  0
   -8.0380    9.6010   -7.2550 H   0  0  0  0  0  0  0  0  0  0  0  0
   -4.1960   12.8702  -10.8691 H   0  0  0  0  0  0  0  0  0  0  0  0
   -6.7424   12.3154   -6.9139 H   0  0  0  0  0  0  0  0  0  0  0  0
   -4.5419   13.2489   -7.4818 H   0  0  0  0  0  0  0  0  0  0  0  0
   -4.5427   12.5174   -5.8412 H   0  0  0  0  0  0  0  0  0  0  0  0
   -2.6693    9.7502   -8.0493 H   0  0  0  0  0  0  0  0  0  0  0  0
   -4.8943    8.7808   -8.4911 H   0  0  0  0  0  0  0  0  0  0  0  0
   -2.0995   14.2088   -7.1903 H   0  0  0  0  0  0  0  0  0  0  0  0
   -2.1650   13.5904   -5.5051 H   0  0  0  0  0  0  0  0  0  0  0  0
   -0.6685   10.5471   -7.5584 H   0  0  0  0  0  0  0  0  0  0  0  0
    1.4941   14.2779   -6.0748 H   0  0  0  0  0  0  0  0  0  0  0  0
    0.2544   15.4366   -6.6639 H   0  0  0  0  0  0  0  0  0  0  0  0
    0.1879   14.8324   -4.9736 H   0  0  0  0  0  0  0  0  0  0  0  0
   -3.5215   15.3697  -12.5204 H   0  0  0  0  0  0  0  0  0  0  0  0
   -1.7095   12.9870  -11.5263 H   0  0  0  0  0  0  0  0  0  0  0  0
   -1.1463   14.4168  -12.4564 H   0  0  0  0  0  0  0  0  0  0  0  0
   -2.0084   15.9854  -10.5669 H   0  0  0  0  0  0  0  0  0  0  0  0
   -2.5716   14.5556   -9.6369 H   0  0  0  0  0  0  0  0  0  0  0  0
  1  2  2  0  0  0  0
  1  4  1  0  0  0  0
  1 12  1  0  0  0  0
  2  6  1  0  0  0  0
  3  4  2  0  0  0  0
  3  5  1  0  0  0  0
  5  6  2  0  0  0  0
  5  9  1  0  0  0  0
  6  7  1  0  0  0  0
  7  8  1  0  0  0  0
  7 10  2  3  0  0  0
  8  9  2  0  0  0  0
 10 14  1  0  0  0  0
 11 12  1  0  0  0  0
 11 26  1  0  0  0  0
 12 13  2  0  0  0  0
 14 15  2  0  0  0  0
 14 19  1  0  0  0  0
 15 16  1  0  0  0  0
 16 17  1  0  0  0  0
 17 18  1  0  0  0  0
 17 20  2  0  0  0  0
 18 19  2  0  0  0  0
 20 21  1  0  0  0  0
 20 24  1  0  0  0  0
 21 22  1  0  0  0  0
 22 23  1  0  0  0  0
 22 25  1  0  0  0  0
 23 24  2  0  0  0  0
 26 27  1  0  0  0  0
 26 28  1  0  0  0  0
 27 28  1  0  0  0  0
  2 29  1  0  0  0  0
  3 30  1  0  0  0  0
  4 31  1  0  0  0  0
 10 32  1  0  0  0  0
 11 33  1  0  0  0  0
 15 34  1  0  0  0  0
 16 35  1  0  0  0  0
 16 36  1  0  0  0  0
 18 37  1  0  0  0  0
 19 38  1  0  0  0  0
 21 39  1  0  0  0  0
 21 40  1  0  0  0  0
 24 41  1  0  0  0  0
 25 42  1  0  0  0  0
 25 43  1  0  0  0  0
 25 44  1  0  0  0  0
 26 45  1  0  0  0  0
 27 46  1  0  0  0  0
 27 47  1  0  0  0  0
 28 48  1  0  0  0  0
 28 49  1  0  0  0  0
M  END
> <Name>
33

> <IC50[uM]>
0.008

$$$$
33
  -OEChem-05192314333D
 Structure written by MMmdl.
 49 53  0     1  0  0  0  0  0999 V2000
   -6.3918   12.3765  -12.0158 C   0  0  0  0  0  0  0  0  0  0  0  0
   -6.5335   11.8201  -10.7317 C   0  0  0  0  0  0  0  0  0  0  0  0
   -7.7273   10.5795  -13.0319 C   0  0  0  0  0  0  0  0  0  0  0  0
   -7.0082   11.7773  -13.1176 C   0  0  0  0  0  0  0  0  0  0  0  0
   -7.8294   10.0116  -11.7546 C   0  0  0  0  0  0  0  0  0  0  0  0
   -7.2533   10.6299  -10.5984 C   0  0  0  0  0  0  0  0  0  0  0  0
   -7.6133    9.7501   -9.5115 C   0  0  0  0  0  0  0  0  0  0  0  0
   -8.2802    8.7340   -9.9853 N   0  0  0  0  0  0  0  0  0  0  0  0
   -8.4149    8.8602  -11.2994 N   0  0  0  0  0  0  0  0  0  0  0  0
   -7.3368    9.8898   -8.0240 C   0  0  0  0  0  0  0  0  0  0  0  0
   -4.3580   13.5891  -11.5451 N   0  0  0  0  0  0  0  0  0  0  0  0
   -5.5327   13.6029  -12.2131 C   0  0  0  0  0  0  0  0  0  0  0  0
   -5.8791   14.5089  -12.9726 O   0  0  0  0  0  0  0  0  0  0  0  0
   -5.9622   10.4818   -7.7351 C   0  0  0  0  0  0  0  0  0  0  0  0
   -5.8525   11.7570   -7.1642 C   0  0  0  0  0  0  0  0  0  0  0  0
   -4.5920   12.3049   -6.9193 C   0  0  0  0  0  0  0  0  0  0  0  0
   -3.4386   11.5825   -7.2408 C   0  0  0  0  0  0  0  0  0  0  0  0
   -3.5579   10.3128   -7.8038 C   0  0  0  0  0  0  0  0  0  0  0  0
   -4.8126    9.7642   -8.0521 C   0  0  0  0  0  0  0  0  0  0  0  0
   -2.0919   12.1643   -6.9829 C   0  0  0  0  0  0  0  0  0  0  0  0
   -1.7362   13.4287   -6.5051 C   0  0  0  0  0  0  0  0  0  0  0  0
   -0.4017   13.4552   -6.4435 N   0  0  3  0  0  0  0  0  0  0  0  0
    0.1850   12.3496   -6.8156 N   0  0  0  0  0  0  0  0  0  0  0  0
   -0.8078   11.5460   -7.1722 C   0  0  0  0  0  0  0  0  0  0  0  0
    0.4351   14.5688   -6.0125 C   0  0  0  0  0  0  0  0  0  0  0  0
   -3.3172   14.5865  -11.7755 C   0  0  0  0  0  0  0  0  0  0  0  0
   -1.8924   14.0513  -11.7355 C   0  0  0  0  0  0  0  0  0  0  0  0
   -2.3932   14.9579  -10.6450 C   0  0  0  0  0  0  0  0  0  0  0  0
   -6.0964   12.3014   -9.8693 H   0  0  0  0  0  0  0  0  0  0  0  0
   -8.1772   10.1197  -13.8994 H   0  0  0  0  0  0  0  0  0  0  0  0
   -6.9259   12.2608  -14.0798 H   0  0  0  0  0  0  0  0  0  0  0  0
   -8.0380    9.6010   -7.2550 H   0  0  0  0  0  0  0  0  0  0  0  0
   -5.2205   15.1935  -12.9707 H   0  0  0  0  0  0  0  0  0  0  0  0
   -5.9736   10.0292   -6.7326 H   0  0  0  0  0  0  0  0  0  0  0  0
   -6.7424   12.3154   -6.9139 H   0  0  0  0  0  0  0  0  0  0  0  0
   -4.5075   13.2883   -6.4808 H   0  0  0  0  0  0  0  0  0  0  0  0
   -2.6693    9.7502   -8.0493 H   0  0  0  0  0  0  0  0  0  0  0  0
   -4.8943    8.7808   -8.4911 H   0  0  0  0  0  0  0  0  0  0  0  0
   -2.0995   14.2088   -7.1903 H   0  0  0  0  0  0  0  0  0  0  0  0
   -2.1650   13.5904   -5.5051 H   0  0  0  0  0  0  0  0  0  0  0  0
   -0.6685   10.5471   -7.5584 H   0  0  0  0  0  0  0  0  0  0  0  0
    1.4941   14.2779   -6.0748 H   0  0  0  0  0  0  0  0  0  0  0  0
    0.2544   15.4366   -6.6639 H   0  0  0  0  0  0  0  0  0  0  0  0
    0.1879   14.8324   -4.9736 H   0  0  0  0  0  0  0  0  0  0  0  0
   -3.5215   15.3697  -12.5204 H   0  0  0  0  0  0  0  0  0  0  0  0
   -1.7095   12.9870  -11.5263 H   0  0  0  0  0  0  0  0  0  0  0  0
   -1.1463   14.4168  -12.4564 H   0  0  0  0  0  0  0  0  0  0  0  0
   -2.0084   15.9854  -10.5669 H   0  0  0  0  0  0  0  0  0  0  0  0
   -2.5716   14.5556   -9.6369 H   0  0  0  0  0  0  0  0  0  0  0  0
  1  2  2  0  0  0  0
  1  4  1  0  0  0  0
  1 12  1  0  0  0  0
  2  6  1  0  0  0  0
  3  4  2  0  0  0  0
  3  5  1  0  0  0  0
  5  6  2  0  0  0  0
  5  9  1  0  0  0  0
  6  7  1  0  0  0  0
  7  8  1  0  0  0  0
  7 10  2  3  0  0  0
  8  9  2  0  0  0  0
 10 14  1  0  0  0  0
 11 12  2  0  0  0  0
 11 26  1  0  0  0  0
 12 13  1  0  0  0  0
 14 15  1  0  0  0  0
 14 19  1  0  0  0  0
 15 16  2  0  0  0  0
 16 17  1  0  0  0  0
 17 18  1  0  0  0  0
 17 20  2  0  0  0  0
 18 19  2  0  0  0  0
 20 21  1  0  0  0  0
 20 24  1  0  0  0  0
 21 22  1  0  0  0  0
 22 23  1  0  0  0  0
 22 25  1  0  0  0  0
 23 24  2  0  0  0  0
 26 27  1  0  0  0  0
 26 28  1  0  0  0  0
 27 28  1  0  0  0  0
  2 29  1  0  0  0  0
  3 30  1  0  0  0  0
  4 31  1  0  0  0  0
 10 32  1  0  0  0  0
 13 33  1  0  0  0  0
 14 34  1  0  0  0  0
 15 35  1  0  0  0  0
 16 36  1  0  0  0  0
 18 37  1  0  0  0  0
 19 38  1  0  0  0  0
 21 39  1  0  0  0  0
 21 40  1  0  0  0  0
 24 41  1  0  0  0  0
 25 42  1  0  0  0  0
 25 43  1  0  0  0  0
 25 44  1  0  0  0  0
 26 45  1  0  0  0  0
 27 46  1  0  0  0  0
 27 47  1  0  0  0  0
 28 48  1  0  0  0  0
 28 49  1  0  0  0  0
M  END
> <Name>
33

> <IC50[uM]>
0.008

$$$$
33
  -OEChem-05192314333D
 Structure written by MMmdl.
 49 53  0     1  0  0  0  0  0999 V2000
   -6.3918   12.3765  -12.0158 C   0  0  0  0  0  0  0  0  0  0  0  0
   -6.5335   11.8201  -10.7317 C   0  0  0  0  0  0  0  0  0  0  0  0
   -7.7273   10.5795  -13.0319 C   0  0  0  0  0  0  0  0  0  0  0  0
   -7.0082   11.7773  -13.1176 C   0  0  0  0  0  0  0  0  0  0  0  0
   -7.8294   10.0116  -11.7546 C   0  0  0  0  0  0  0  0  0  0  0  0
   -7.2533   10.6299  -10.5984 C   0  0  0  0  0  0  0  0  0  0  0  0
   -7.6133    9.7501   -9.5115 C   0  0  0  0  0  0  0  0  0  0  0  0
   -8.2802    8.7340   -9.9853 N   0  0  0  0  0  0  0  0  0  0  0  0
   -8.4149    8.8602  -11.2994 N   0  0  0  0  0  0  0  0  0  0  0  0
   -7.3368    9.8898   -8.0240 C   0  0  0  0  0  0  0  0  0  0  0  0
   -4.3580   13.5891  -11.5451 N   0  0  0  0  0  0  0  0  0  0  0  0
   -5.5327   13.6029  -12.2131 C   0  0  0  0  0  0  0  0  0  0  0  0
   -5.8791   14.5089  -12.9726 O   0  0  0  0  0  0  0  0  0  0  0  0
   -5.9622   10.4818   -7.7351 C   0  0  0  0  0  0  0  0  0  0  0  0
   -5.8525   11.7570   -7.1642 C   0  0  0  0  0  0  0  0  0  0  0  0
   -4.5920   12.3049   -6.9193 C   0  0  0  0  0  0  0  0  0  0  0  0
   -3.4386   11.5825   -7.2408 C   0  0  0  0  0  0  0  0  0  0  0  0
   -3.5579   10.3128   -7.8038 C   0  0  0  0  0  0  0  0  0  0  0  0
   -4.8126    9.7642   -8.0521 C   0  0  0  0  0  0  0  0  0  0  0  0
   -2.0919   12.1643   -6.9829 C   0  0  0  0  0  0  0  0  0  0  0  0
   -1.7362   13.4287   -6.5051 C   0  0  0  0  0  0  0  0  0  0  0  0
   -0.4017   13.4552   -6.4435 N   0  0  3  0  0  0  0  0  0  0  0  0
    0.1850   12.3496   -6.8156 N   0  0  0  0  0  0  0  0  0  0  0  0
   -0.8078   11.5460   -7.1722 C   0  0  0  0  0  0  0  0  0  0  0  0
    0.4351   14.5688   -6.0125 C   0  0  0  0  0  0  0  0  0  0  0  0
   -3.3172   14.5865  -11.7755 C   0  0  0  0  0  0  0  0  0  0  0  0
   -1.8924   14.0513  -11.7355 C   0  0  0  0  0  0  0  0  0  0  0  0
   -2.3932   14.9579  -10.6450 C   0  0  0  0  0  0  0  0  0  0  0  0
   -6.0964   12.3014   -9.8693 H   0  0  0  0  0  0  0  0  0  0  0  0
   -8.1772   10.1197  -13.8994 H   0  0  0  0  0  0  0  0  0  0  0  0
   -6.9259   12.2608  -14.0798 H   0  0  0  0  0  0  0  0  0  0  0  0
   -8.0380    9.6010   -7.2550 H   0  0  0  0  0  0  0  0  0  0  0  0
   -5.2205   15.1935  -12.9707 H   0  0  0  0  0  0  0  0  0  0  0  0
   -6.7424   12.3154   -6.9139 H   0  0  0  0  0  0  0  0  0  0  0  0
   -4.5419   13.2489   -7.4818 H   0  0  0  0  0  0  0  0  0  0  0  0
   -4.5427   12.5174   -5.8412 H   0  0  0  0  0  0  0  0  0  0  0  0
   -2.6693    9.7502   -8.0493 H   0  0  0  0  0  0  0  0  0  0  0  0
   -4.8943    8.7808   -8.4911 H   0  0  0  0  0  0  0  0  0  0  0  0
   -2.0995   14.2088   -7.1903 H   0  0  0  0  0  0  0  0  0  0  0  0
   -2.1650   13.5904   -5.5051 H   0  0  0  0  0  0  0  0  0  0  0  0
   -0.6685   10.5471   -7.5584 H   0  0  0  0  0  0  0  0  0  0  0  0
    1.4941   14.2779   -6.0748 H   0  0  0  0  0  0  0  0  0  0  0  0
    0.2544   15.4366   -6.6639 H   0  0  0  0  0  0  0  0  0  0  0  0
    0.1879   14.8324   -4.9736 H   0  0  0  0  0  0  0  0  0  0  0  0
   -3.5215   15.3697  -12.5204 H   0  0  0  0  0  0  0  0  0  0  0  0
   -1.7095   12.9870  -11.5263 H   0  0  0  0  0  0  0  0  0  0  0  0
   -1.1463   14.4168  -12.4564 H   0  0  0  0  0  0  0  0  0  0  0  0
   -2.0084   15.9854  -10.5669 H   0  0  0  0  0  0  0  0  0  0  0  0
   -2.5716   14.5556   -9.6369 H   0  0  0  0  0  0  0  0  0  0  0  0
  1  2  2  0  0  0  0
  1  4  1  0  0  0  0
  1 12  1  0  0  0  0
  2  6  1  0  0  0  0
  3  4  2  0  0  0  0
  3  5  1  0  0  0  0
  5  6  2  0  0  0  0
  5  9  1  0  0  0  0
  6  7  1  0  0  0  0
  7  8  1  0  0  0  0
  7 10  2  3  0  0  0
  8  9  2  0  0  0  0
 10 14  1  0  0  0  0
 11 12  2  0  0  0  0
 11 26  1  0  0  0  0
 12 13  1  0  0  0  0
 14 15  2  0  0  0  0
 14 19  1  0  0  0  0
 15 16  1  0  0  0  0
 16 17  1  0  0  0  0
 17 18  1  0  0  0  0
 17 20  2  0  0  0  0
 18 19  2  0  0  0  0
 20 21  1  0  0  0  0
 20 24  1  0  0  0  0
 21 22  1  0  0  0  0
 22 23  1  0  0  0  0
 22 25  1  0  0  0  0
 23 24  2  0  0  0  0
 26 27  1  0  0  0  0
 26 28  1  0  0  0  0
 27 28  1  0  0  0  0
  2 29  1  0  0  0  0
  3 30  1  0  0  0  0
  4 31  1  0  0  0  0
 10 32  1  0  0  0  0
 13 33  1  0  0  0  0
 15 34  1  0  0  0  0
 16 35  1  0  0  0  0
 16 36  1  0  0  0  0
 18 37  1  0  0  0  0
 19 38  1  0  0  0  0
 21 39  1  0  0  0  0
 21 40  1  0  0  0  0
 24 41  1  0  0  0  0
 25 42  1  0  0  0  0
 25 43  1  0  0  0  0
 25 44  1  0  0  0  0
 26 45  1  0  0  0  0
 27 46  1  0  0  0  0
 27 47  1  0  0  0  0
 28 48  1  0  0  0  0
 28 49  1  0  0  0  0
M  END
> <Name>
33

> <IC50[uM]>
0.008

$$$$
33
  -OEChem-05192314333D
 Structure written by MMmdl.
 49 53  0     1  0  0  0  0  0999 V2000
   -6.3918   12.3765  -12.0158 C   0  0  3  0  0  0  0  0  0  0  0  0
   -6.5335   11.8201  -10.7317 C   0  0  0  0  0  0  0  0  0  0  0  0
   -7.7273   10.5795  -13.0319 C   0  0  0  0  0  0  0  0  0  0  0  0
   -7.0082   11.7773  -13.1176 C   0  0  0  0  0  0  0  0  0  0  0  0
   -7.8294   10.0116  -11.7546 C   0  0  0  0  0  0  0  0  0  0  0  0
   -7.2533   10.6299  -10.5984 C   0  0  0  0  0  0  0  0  0  0  0  0
   -7.6133    9.7501   -9.5115 C   0  0  0  0  0  0  0  0  0  0  0  0
   -8.2802    8.7340   -9.9853 N   0  0  0  0  0  0  0  0  0  0  0  0
   -8.4149    8.8602  -11.2994 N   0  0  0  0  0  0  0  0  0  0  0  0
   -7.3368    9.8898   -8.0240 C   0  0  0  0  0  0  0  0  0  0  0  0
   -4.3580   13.5891  -11.5451 N   0  0  0  0  0  0  0  0  0  0  0  0
   -5.5327   13.6029  -12.2131 C   0  0  0  0  0  0  0  0  0  0  0  0
   -5.8791   14.5089  -12.9726 O   0  0  0  0  0  0  0  0  0  0  0  0
   -5.9622   10.4818   -7.7351 C   0  0  0  0  0  0  0  0  0  0  0  0
   -5.8525   11.7570   -7.1642 C   0  0  0  0  0  0  0  0  0  0  0  0
   -4.5920   12.3049   -6.9193 C   0  0  0  0  0  0  0  0  0  0  0  0
   -3.4386   11.5825   -7.2408 C   0  0  0  0  0  0  0  0  0  0  0  0
   -3.5579   10.3128   -7.8038 C   0  0  0  0  0  0  0  0  0  0  0  0
   -4.8126    9.7642   -8.0521 C   0  0  0  0  0  0  0  0  0  0  0  0
   -2.0919   12.1643   -6.9829 C   0  0  0  0  0  0  0  0  0  0  0  0
   -1.7362   13.4287   -6.5051 C   0  0  0  0  0  0  0  0  0  0  0  0
   -0.4017   13.4552   -6.4435 N   0  0  3  0  0  0  0  0  0  0  0  0
    0.1850   12.3496   -6.8156 N   0  0  0  0  0  0  0  0  0  0  0  0
   -0.8078   11.5460   -7.1722 C   0  0  0  0  0  0  0  0  0  0  0  0
    0.4351   14.5688   -6.0125 C   0  0  0  0  0  0  0  0  0  0  0  0
   -3.3172   14.5865  -11.7755 C   0  0  0  0  0  0  0  0  0  0  0  0
   -1.8924   14.0513  -11.7355 C   0  0  0  0  0  0  0  0  0  0  0  0
   -2.3932   14.9579  -10.6450 C   0  0  0  0  0  0  0  0  0  0  0  0
   -7.2761   13.0097  -11.8512 H   0  0  0  0  0  0  0  0  0  0  0  0
   -6.0964   12.3014   -9.8693 H   0  0  0  0  0  0  0  0  0  0  0  0
   -8.1772   10.1197  -13.8994 H   0  0  0  0  0  0  0  0  0  0  0  0
   -6.9259   12.2608  -14.0798 H   0  0  0  0  0  0  0  0  0  0  0  0
   -8.0380    9.6010   -7.2550 H   0  0  0  0  0  0  0  0  0  0  0  0
   -4.1960   12.8702  -10.8691 H   0  0  0  0  0  0  0  0  0  0  0  0
   -6.7424   12.3154   -6.9139 H   0  0  0  0  0  0  0  0  0  0  0  0
   -4.5075   13.2883   -6.4808 H   0  0  0  0  0  0  0  0  0  0  0  0
   -2.6693    9.7502   -8.0493 H   0  0  0  0  0  0  0  0  0  0  0  0
   -4.8943    8.7808   -8.4911 H   0  0  0  0  0  0  0  0  0  0  0  0
   -2.0995   14.2088   -7.1903 H   0  0  0  0  0  0  0  0  0  0  0  0
   -2.1650   13.5904   -5.5051 H   0  0  0  0  0  0  0  0  0  0  0  0
   -0.6685   10.5471   -7.5584 H   0  0  0  0  0  0  0  0  0  0  0  0
    1.4941   14.2779   -6.0748 H   0  0  0  0  0  0  0  0  0  0  0  0
    0.2544   15.4366   -6.6639 H   0  0  0  0  0  0  0  0  0  0  0  0
    0.1879   14.8324   -4.9736 H   0  0  0  0  0  0  0  0  0  0  0  0
   -3.5215   15.3697  -12.5204 H   0  0  0  0  0  0  0  0  0  0  0  0
   -1.7095   12.9870  -11.5263 H   0  0  0  0  0  0  0  0  0  0  0  0
   -1.1463   14.4168  -12.4564 H   0  0  0  0  0  0  0  0  0  0  0  0
   -2.0084   15.9854  -10.5669 H   0  0  0  0  0  0  0  0  0  0  0  0
   -2.5716   14.5556   -9.6369 H   0  0  0  0  0  0  0  0  0  0  0  0
  1  2  1  0  0  0  0
  1  4  1  0  0  0  0
  1 12  1  0  0  0  0
  2  6  2  0  0  0  0
  3  4  2  0  0  0  0
  3  5  1  0  0  0  0
  5  6  1  0  0  0  0
  5  9  2  0  0  0  0
  6  7  1  0  0  0  0
  7  8  2  0  0  0  0
  7 10  1  0  0  0  0
  8  9  1  0  0  0  0
 10 14  2  0  0  0  0
 11 12  1  0  0  0  0
 11 26  1  0  0  0  0
 12 13  2  0  0  0  0
 14 15  1  0  0  0  0
 14 19  1  0  0  0  0
 15 16  2  0  0  0  0
 16 17  1  0  0  0  0
 17 18  1  0  0  0  0
 17 20  2  0  0  0  0
 18 19  2  0  0  0  0
 20 21  1  0  0  0  0
 20 24  1  0  0  0  0
 21 22  1  0  0  0  0
 22 23  1  0  0  0  0
 22 25  1  0  0  0  0
 23 24  2  0  0  0  0
 26 27  1  0  0  0  0
 26 28  1  0  0  0  0
 27 28  1  0  0  0  0
  1 29  1  0  0  0  0
  2 30  1  0  0  0  0
  3 31  1  0  0  0  0
  4 32  1  0  0  0  0
 10 33  1  0  0  0  0
 11 34  1  0  0  0  0
 15 35  1  0  0  0  0
 16 36  1  0  0  0  0
 18 37  1  0  0  0  0
 19 38  1  0  0  0  0
 21 39  1  0  0  0  0
 21 40  1  0  0  0  0
 24 41  1  0  0  0  0
 25 42  1  0  0  0  0
 25 43  1  0  0  0  0
 25 44  1  0  0  0  0
 26 45  1  0  0  0  0
 27 46  1  0  0  0  0
 27 47  1  0  0  0  0
 28 48  1  0  0  0  0
 28 49  1  0  0  0  0
M  END
> <Name>
33

> <IC50[uM]>
0.008

$$$$
33
  -OEChem-05192314333D
 Structure written by MMmdl.
 49 53  0     1  0  0  0  0  0999 V2000
   -6.3918   12.3765  -12.0158 C   0  0  0  0  0  0  0  0  0  0  0  0
   -6.5335   11.8201  -10.7317 C   0  0  0  0  0  0  0  0  0  0  0  0
   -7.7273   10.5795  -13.0319 C   0  0  0  0  0  0  0  0  0  0  0  0
   -7.0082   11.7773  -13.1176 C   0  0  0  0  0  0  0  0  0  0  0  0
   -7.8294   10.0116  -11.7546 C   0  0  0  0  0  0  0  0  0  0  0  0
   -7.2533   10.6299  -10.5984 C   0  0  3  0  0  0  0  0  0  0  0  0
   -7.6133    9.7501   -9.5115 C   0  0  0  0  0  0  0  0  0  0  0  0
   -8.2802    8.7340   -9.9853 N   0  0  0  0  0  0  0  0  0  0  0  0
   -8.4149    8.8602  -11.2994 N   0  0  0  0  0  0  0  0  0  0  0  0
   -7.3368    9.8898   -8.0240 C   0  0  0  0  0  0  0  0  0  0  0  0
   -4.3580   13.5891  -11.5451 N   0  0  0  0  0  0  0  0  0  0  0  0
   -5.5327   13.6029  -12.2131 C   0  0  0  0  0  0  0  0  0  0  0  0
   -5.8791   14.5089  -12.9726 O   0  0  0  0  0  0  0  0  0  0  0  0
   -5.9622   10.4818   -7.7351 C   0  0  0  0  0  0  0  0  0  0  0  0
   -5.8525   11.7570   -7.1642 C   0  0  0  0  0  0  0  0  0  0  0  0
   -4.5920   12.3049   -6.9193 C   0  0  0  0  0  0  0  0  0  0  0  0
   -3.4386   11.5825   -7.2408 C   0  0  0  0  0  0  0  0  0  0  0  0
   -3.5579   10.3128   -7.8038 C   0  0  0  0  0  0  0  0  0  0  0  0
   -4.8126    9.7642   -8.0521 C   0  0  0  0  0  0  0  0  0  0  0  0
   -2.0919   12.1643   -6.9829 C   0  0  0  0  0  0  0  0  0  0  0  0
   -1.7362   13.4287   -6.5051 C   0  0  0  0  0  0  0  0  0  0  0  0
   -0.4017   13.4552   -6.4435 N   0  0  3  0  0  0  0  0  0  0  0  0
    0.1850   12.3496   -6.8156 N   0  0  0  0  0  0  0  0  0  0  0  0
   -0.8078   11.5460   -7.1722 C   0  0  0  0  0  0  0  0  0  0  0  0
    0.4351   14.5688   -6.0125 C   0  0  0  0  0  0  0  0  0  0  0  0
   -3.3172   14.5865  -11.7755 C   0  0  0  0  0  0  0  0  0  0  0  0
   -1.8924   14.0513  -11.7355 C   0  0  0  0  0  0  0  0  0  0  0  0
   -2.3932   14.9579  -10.6450 C   0  0  0  0  0  0  0  0  0  0  0  0
   -6.0964   12.3014   -9.8693 H   0  0  0  0  0  0  0  0  0  0  0  0
   -8.1772   10.1197  -13.8994 H   0  0  0  0  0  0  0  0  0  0  0  0
   -6.9259   12.2608  -14.0798 H   0  0  0  0  0  0  0  0  0  0  0  0
   -8.1783   11.2044  -10.4423 H   0  0  0  0  0  0  0  0  0  0  0  0
   -8.0380    9.6010   -7.2550 H   0  0  0  0  0  0  0  0  0  0  0  0
   -4.1960   12.8702  -10.8691 H   0  0  0  0  0  0  0  0  0  0  0  0
   -6.7424   12.3154   -6.9139 H   0  0  0  0  0  0  0  0  0  0  0  0
   -4.5075   13.2883   -6.4808 H   0  0  0  0  0  0  0  0  0  0  0  0
   -2.6693    9.7502   -8.0493 H   0  0  0  0  0  0  0  0  0  0  0  0
   -4.8943    8.7808   -8.4911 H   0  0  0  0  0  0  0  0  0  0  0  0
   -2.0995   14.2088   -7.1903 H   0  0  0  0  0  0  0  0  0  0  0  0
   -2.1650   13.5904   -5.5051 H   0  0  0  0  0  0  0  0  0  0  0  0
   -0.6685   10.5471   -7.5584 H   0  0  0  0  0  0  0  0  0  0  0  0
    1.4941   14.2779   -6.0748 H   0  0  0  0  0  0  0  0  0  0  0  0
    0.2544   15.4366   -6.6639 H   0  0  0  0  0  0  0  0  0  0  0  0
    0.1879   14.8324   -4.9736 H   0  0  0  0  0  0  0  0  0  0  0  0
   -3.5215   15.3697  -12.5204 H   0  0  0  0  0  0  0  0  0  0  0  0
   -1.7095   12.9870  -11.5263 H   0  0  0  0  0  0  0  0  0  0  0  0
   -1.1463   14.4168  -12.4564 H   0  0  0  0  0  0  0  0  0  0  0  0
   -2.0084   15.9854  -10.5669 H   0  0  0  0  0  0  0  0  0  0  0  0
   -2.5716   14.5556   -9.6369 H   0  0  0  0  0  0  0  0  0  0  0  0
  1  2  2  0  0  0  0
  1  4  1  0  0  0  0
  1 12  1  0  0  0  0
  2  6  1  0  0  0  0
  3  4  2  0  0  0  0
  3  5  1  0  0  0  0
  5  6  1  0  0  0  0
  5  9  2  0  0  0  0
  6  7  1  0  0  0  0
  7  8  2  0  0  0  0
  7 10  1  0  0  0  0
  8  9  1  0  0  0  0
 10 14  2  0  0  0  0
 11 12  1  0  0  0  0
 11 26  1  0  0  0  0
 12 13  2  0  0  0  0
 14 15  1  0  0  0  0
 14 19  1  0  0  0  0
 15 16  2  0  0  0  0
 16 17  1  0  0  0  0
 17 18  1  0  0  0  0
 17 20  2  0  0  0  0
 18 19  2  0  0  0  0
 20 21  1  0  0  0  0
 20 24  1  0  0  0  0
 21 22  1  0  0  0  0
 22 23  1  0  0  0  0
 22 25  1  0  0  0  0
 23 24  2  0  0  0  0
 26 27  1  0  0  0  0
 26 28  1  0  0  0  0
 27 28  1  0  0  0  0
  2 29  1  0  0  0  0
  3 30  1  0  0  0  0
  4 31  1  0  0  0  0
  6 32  1  0  0  0  0
 10 33  1  0  0  0  0
 11 34  1  0  0  0  0
 15 35  1  0  0  0  0
 16 36  1  0  0  0  0
 18 37  1  0  0  0  0
 19 38  1  0  0  0  0
 21 39  1  0  0  0  0
 21 40  1  0  0  0  0
 24 41  1  0  0  0  0
 25 42  1  0  0  0  0
 25 43  1  0  0  0  0
 25 44  1  0  0  0  0
 26 45  1  0  0  0  0
 27 46  1  0  0  0  0
 27 47  1  0  0  0  0
 28 48  1  0  0  0  0
 28 49  1  0  0  0  0
M  END
> <Name>
33

> <IC50[uM]>
0.008

$$$$
33
  -OEChem-05192314333D
 Structure written by MMmdl.
 49 53  0     1  0  0  0  0  0999 V2000
   -6.3918   12.3765  -12.0158 C   0  0  0  0  0  0  0  0  0  0  0  0
   -6.5335   11.8201  -10.7317 C   0  0  0  0  0  0  0  0  0  0  0  0
   -7.7273   10.5795  -13.0319 C   0  0  0  0  0  0  0  0  0  0  0  0
   -7.0082   11.7773  -13.1176 C   0  0  0  0  0  0  0  0  0  0  0  0
   -7.8294   10.0116  -11.7546 C   0  0  0  0  0  0  0  0  0  0  0  0
   -7.2533   10.6299  -10.5984 C   0  0  0  0  0  0  0  0  0  0  0  0
   -7.6133    9.7501   -9.5115 C   0  0  0  0  0  0  0  0  0  0  0  0
   -8.2802    8.7340   -9.9853 N   0  0  0  0  0  0  0  0  0  0  0  0
   -8.4149    8.8602  -11.2994 N   0  0  0  0  0  0  0  0  0  0  0  0
   -7.3368    9.8898   -8.0240 C   0  0  0  0  0  0  0  0  0  0  0  0
   -4.3580   13.5891  -11.5451 N   0  0  0  0  0  0  0  0  0  0  0  0
   -5.5327   13.6029  -12.2131 C   0  0  0  0  0  0  0  0  0  0  0  0
   -5.8791   14.5089  -12.9726 O   0  0  0  0  0  0  0  0  0  0  0  0
   -5.9622   10.4818   -7.7351 C   0  0  0  0  0  0  0  0  0  0  0  0
   -5.8525   11.7570   -7.1642 C   0  0  0  0  0  0  0  0  0  0  0  0
   -4.5920   12.3049   -6.9193 C   0  0  0  0  0  0  0  0  0  0  0  0
   -3.4386   11.5825   -7.2408 C   0  0  0  0  0  0  0  0  0  0  0  0
   -3.5579   10.3128   -7.8038 C   0  0  0  0  0  0  0  0  0  0  0  0
   -4.8126    9.7642   -8.0521 C   0  0  0  0  0  0  0  0  0  0  0  0
   -2.0919   12.1643   -6.9829 C   0  0  0  0  0  0  0  0  0  0  0  0
   -1.7362   13.4287   -6.5051 C   0  0  0  0  0  0  0  0  0  0  0  0
   -0.4017   13.4552   -6.4435 N   0  0  3  0  0  0  0  0  0  0  0  0
    0.1850   12.3496   -6.8156 N   0  0  0  0  0  0  0  0  0  0  0  0
   -0.8078   11.5460   -7.1722 C   0  0  0  0  0  0  0  0  0  0  0  0
    0.4351   14.5688   -6.0125 C   0  0  0  0  0  0  0  0  0  0  0  0
   -3.3172   14.5865  -11.7755 C   0  0  0  0  0  0  0  0  0  0  0  0
   -1.8924   14.0513  -11.7355 C   0  0  0  0  0  0  0  0  0  0  0  0
   -2.3932   14.9579  -10.6450 C   0  0  0  0  0  0  0  0  0  0  0  0
   -6.0964   12.3014   -9.8693 H   0  0  0  0  0  0  0  0  0  0  0  0
   -8.7470   10.7729  -13.3962 H   0  0  0  0  0  0  0  0  0  0  0  0
   -7.2367    9.8453  -13.6879 H   0  0  0  0  0  0  0  0  0  0  0  0
   -6.9259   12.2608  -14.0798 H   0  0  0  0  0  0  0  0  0  0  0  0
   -8.0380    9.6010   -7.2550 H   0  0  0  0  0  0  0  0  0  0  0  0
   -4.1960   12.8702  -10.8691 H   0  0  0  0  0  0  0  0  0  0  0  0
   -6.7424   12.3154   -6.9139 H   0  0  0  0  0  0  0  0  0  0  0  0
   -4.5075   13.2883   -6.4808 H   0  0  0  0  0  0  0  0  0  0  0  0
   -2.6693    9.7502   -8.0493 H   0  0  0  0  0  0  0  0  0  0  0  0
   -4.8943    8.7808   -8.4911 H   0  0  0  0  0  0  0  0  0  0  0  0
   -2.0995   14.2088   -7.1903 H   0  0  0  0  0  0  0  0  0  0  0  0
   -2.1650   13.5904   -5.5051 H   0  0  0  0  0  0  0  0  0  0  0  0
   -0.6685   10.5471   -7.5584 H   0  0  0  0  0  0  0  0  0  0  0  0
    1.4941   14.2779   -6.0748 H   0  0  0  0  0  0  0  0  0  0  0  0
    0.2544   15.4366   -6.6639 H   0  0  0  0  0  0  0  0  0  0  0  0
    0.1879   14.8324   -4.9736 H   0  0  0  0  0  0  0  0  0  0  0  0
   -3.5215   15.3697  -12.5204 H   0  0  0  0  0  0  0  0  0  0  0  0
   -1.7095   12.9870  -11.5263 H   0  0  0  0  0  0  0  0  0  0  0  0
   -1.1463   14.4168  -12.4564 H   0  0  0  0  0  0  0  0  0  0  0  0
   -2.0084   15.9854  -10.5669 H   0  0  0  0  0  0  0  0  0  0  0  0
   -2.5716   14.5556   -9.6369 H   0  0  0  0  0  0  0  0  0  0  0  0
  1  2  1  0  0  0  0
  1  4  2  0  0  0  0
  1 12  1  0  0  0  0
  2  6  2  0  0  0  0
  3  4  1  0  0  0  0
  3  5  1  0  0  0  0
  5  6  1  0  0  0  0
  5  9  2  0  0  0  0
  6  7  1  0  0  0  0
  7  8  2  0  0  0  0
  7 10  1  0  0  0  0
  8  9  1  0  0  0  0
 10 14  2  0  0  0  0
 11 12  1  0  0  0  0
 11 26  1  0  0  0  0
 12 13  2  0  0  0  0
 14 15  1  0  0  0  0
 14 19  1  0  0  0  0
 15 16  2  0  0  0  0
 16 17  1  0  0  0  0
 17 18  1  0  0  0  0
 17 20  2  0  0  0  0
 18 19  2  0  0  0  0
 20 21  1  0  0  0  0
 20 24  1  0  0  0  0
 21 22  1  0  0  0  0
 22 23  1  0  0  0  0
 22 25  1  0  0  0  0
 23 24  2  0  0  0  0
 26 27  1  0  0  0  0
 26 28  1  0  0  0  0
 27 28  1  0  0  0  0
  2 29  1  0  0  0  0
  3 30  1  0  0  0  0
  3 31  1  0  0  0  0
  4 32  1  0  0  0  0
 10 33  1  0  0  0  0
 11 34  1  0  0  0  0
 15 35  1  0  0  0  0
 16 36  1  0  0  0  0
 18 37  1  0  0  0  0
 19 38  1  0  0  0  0
 21 39  1  0  0  0  0
 21 40  1  0  0  0  0
 24 41  1  0  0  0  0
 25 42  1  0  0  0  0
 25 43  1  0  0  0  0
 25 44  1  0  0  0  0
 26 45  1  0  0  0  0
 27 46  1  0  0  0  0
 27 47  1  0  0  0  0
 28 48  1  0  0  0  0
 28 49  1  0  0  0  0
M  END
> <Name>
33

> <IC50[uM]>
0.008

$$$$
33
  -OEChem-05192314333D
 Structure written by MMmdl.
 49 53  0     1  0  0  0  0  0999 V2000
   -6.3918   12.3765  -12.0158 C   0  0  3  0  0  0  0  0  0  0  0  0
   -6.5335   11.8201  -10.7317 C   0  0  0  0  0  0  0  0  0  0  0  0
   -7.7273   10.5795  -13.0319 C   0  0  0  0  0  0  0  0  0  0  0  0
   -7.0082   11.7773  -13.1176 C   0  0  0  0  0  0  0  0  0  0  0  0
   -7.8294   10.0116  -11.7546 C   0  0  0  0  0  0  0  0  0  0  0  0
   -7.2533   10.6299  -10.5984 C   0  0  0  0  0  0  0  0  0  0  0  0
   -7.6133    9.7501   -9.5115 C   0  0  0  0  0  0  0  0  0  0  0  0
   -8.2802    8.7340   -9.9853 N   0  0  0  0  0  0  0  0  0  0  0  0
   -8.4149    8.8602  -11.2994 N   0  0  0  0  0  0  0  0  0  0  0  0
   -7.3368    9.8898   -8.0240 C   0  0  0  0  0  0  0  0  0  0  0  0
   -4.3580   13.5891  -11.5451 N   0  0  0  0  0  0  0  0  0  0  0  0
   -5.5327   13.6029  -12.2131 C   0  0  0  0  0  0  0  0  0  0  0  0
   -5.8791   14.5089  -12.9726 O   0  0  0  0  0  0  0  0  0  0  0  0
   -5.9622   10.4818   -7.7351 C   0  0  0  0  0  0  0  0  0  0  0  0
   -5.8525   11.7570   -7.1642 C   0  0  0  0  0  0  0  0  0  0  0  0
   -4.5920   12.3049   -6.9193 C   0  0  0  0  0  0  0  0  0  0  0  0
   -3.4386   11.5825   -7.2408 C   0  0  0  0  0  0  0  0  0  0  0  0
   -3.5579   10.3128   -7.8038 C   0  0  0  0  0  0  0  0  0  0  0  0
   -4.8126    9.7642   -8.0521 C   0  0  0  0  0  0  0  0  0  0  0  0
   -2.0919   12.1643   -6.9829 C   0  0  0  0  0  0  0  0  0  0  0  0
   -1.7362   13.4287   -6.5051 C   0  0  0  0  0  0  0  0  0  0  0  0
   -0.4017   13.4552   -6.4435 N   0  0  3  0  0  0  0  0  0  0  0  0
    0.1850   12.3496   -6.8156 N   0  0  0  0  0  0  0  0  0  0  0  0
   -0.8078   11.5460   -7.1722 C   0  0  0  0  0  0  0  0  0  0  0  0
    0.4351   14.5688   -6.0125 C   0  0  0  0  0  0  0  0  0  0  0  0
   -3.3172   14.5865  -11.7755 C   0  0  0  0  0  0  0  0  0  0  0  0
   -1.8924   14.0513  -11.7355 C   0  0  0  0  0  0  0  0  0  0  0  0
   -2.3932   14.9579  -10.6450 C   0  0  0  0  0  0  0  0  0  0  0  0
   -7.2761   13.0097  -11.8512 H   0  0  0  0  0  0  0  0  0  0  0  0
   -6.0964   12.3014   -9.8693 H   0  0  0  0  0  0  0  0  0  0  0  0
   -8.1772   10.1197  -13.8994 H   0  0  0  0  0  0  0  0  0  0  0  0
   -6.9259   12.2608  -14.0798 H   0  0  0  0  0  0  0  0  0  0  0  0
   -8.0380    9.6010   -7.2550 H   0  0  0  0  0  0  0  0  0  0  0  0
   -5.2205   15.1935  -12.9707 H   0  0  0  0  0  0  0  0  0  0  0  0
   -6.7424   12.3154   -6.9139 H   0  0  0  0  0  0  0  0  0  0  0  0
   -4.5075   13.2883   -6.4808 H   0  0  0  0  0  0  0  0  0  0  0  0
   -2.6693    9.7502   -8.0493 H   0  0  0  0  0  0  0  0  0  0  0  0
   -4.8943    8.7808   -8.4911 H   0  0  0  0  0  0  0  0  0  0  0  0
   -2.0995   14.2088   -7.1903 H   0  0  0  0  0  0  0  0  0  0  0  0
   -2.1650   13.5904   -5.5051 H   0  0  0  0  0  0  0  0  0  0  0  0
   -0.6685   10.5471   -7.5584 H   0  0  0  0  0  0  0  0  0  0  0  0
    1.4941   14.2779   -6.0748 H   0  0  0  0  0  0  0  0  0  0  0  0
    0.2544   15.4366   -6.6639 H   0  0  0  0  0  0  0  0  0  0  0  0
    0.1879   14.8324   -4.9736 H   0  0  0  0  0  0  0  0  0  0  0  0
   -3.5215   15.3697  -12.5204 H   0  0  0  0  0  0  0  0  0  0  0  0
   -1.7095   12.9870  -11.5263 H   0  0  0  0  0  0  0  0  0  0  0  0
   -1.1463   14.4168  -12.4564 H   0  0  0  0  0  0  0  0  0  0  0  0
   -2.0084   15.9854  -10.5669 H   0  0  0  0  0  0  0  0  0  0  0  0
   -2.5716   14.5556   -9.6369 H   0  0  0  0  0  0  0  0  0  0  0  0
  1  2  1  0  0  0  0
  1  4  1  0  0  0  0
  1 12  1  0  0  0  0
  2  6  2  0  0  0  0
  3  4  2  0  0  0  0
  3  5  1  0  0  0  0
  5  6  1  0  0  0  0
  5  9  2  0  0  0  0
  6  7  1  0  0  0  0
  7  8  2  0  0  0  0
  7 10  1  0  0  0  0
  8  9  1  0  0  0  0
 10 14  2  0  0  0  0
 11 12  2  0  0  0  0
 11 26  1  0  0  0  0
 12 13  1  0  0  0  0
 14 15  1  0  0  0  0
 14 19  1  0  0  0  0
 15 16  2  0  0  0  0
 16 17  1  0  0  0  0
 17 18  1  0  0  0  0
 17 20  2  0  0  0  0
 18 19  2  0  0  0  0
 20 21  1  0  0  0  0
 20 24  1  0  0  0  0
 21 22  1  0  0  0  0
 22 23  1  0  0  0  0
 22 25  1  0  0  0  0
 23 24  2  0  0  0  0
 26 27  1  0  0  0  0
 26 28  1  0  0  0  0
 27 28  1  0  0  0  0
  1 29  1  0  0  0  0
  2 30  1  0  0  0  0
  3 31  1  0  0  0  0
  4 32  1  0  0  0  0
 10 33  1  0  0  0  0
 13 34  1  0  0  0  0
 15 35  1  0  0  0  0
 16 36  1  0  0  0  0
 18 37  1  0  0  0  0
 19 38  1  0  0  0  0
 21 39  1  0  0  0  0
 21 40  1  0  0  0  0
 24 41  1  0  0  0  0
 25 42  1  0  0  0  0
 25 43  1  0  0  0  0
 25 44  1  0  0  0  0
 26 45  1  0  0  0  0
 27 46  1  0  0  0  0
 27 47  1  0  0  0  0
 28 48  1  0  0  0  0
 28 49  1  0  0  0  0
M  END
> <Name>
33

> <IC50[uM]>
0.008

$$$$
33
  -OEChem-05192314333D
 Structure written by MMmdl.
 49 53  0     1  0  0  0  0  0999 V2000
   -6.3918   12.3765  -12.0158 C   0  0  0  0  0  0  0  0  0  0  0  0
   -6.5335   11.8201  -10.7317 C   0  0  0  0  0  0  0  0  0  0  0  0
   -7.7273   10.5795  -13.0319 C   0  0  0  0  0  0  0  0  0  0  0  0
   -7.0082   11.7773  -13.1176 C   0  0  0  0  0  0  0  0  0  0  0  0
   -7.8294   10.0116  -11.7546 C   0  0  0  0  0  0  0  0  0  0  0  0
   -7.2533   10.6299  -10.5984 C   0  0  3  0  0  0  0  0  0  0  0  0
   -7.6133    9.7501   -9.5115 C   0  0  0  0  0  0  0  0  0  0  0  0
   -8.2802    8.7340   -9.9853 N   0  0  0  0  0  0  0  0  0  0  0  0
   -8.4149    8.8602  -11.2994 N   0  0  0  0  0  0  0  0  0  0  0  0
   -7.3368    9.8898   -8.0240 C   0  0  0  0  0  0  0  0  0  0  0  0
   -4.3580   13.5891  -11.5451 N   0  0  0  0  0  0  0  0  0  0  0  0
   -5.5327   13.6029  -12.2131 C   0  0  0  0  0  0  0  0  0  0  0  0
   -5.8791   14.5089  -12.9726 O   0  0  0  0  0  0  0  0  0  0  0  0
   -5.9622   10.4818   -7.7351 C   0  0  0  0  0  0  0  0  0  0  0  0
   -5.8525   11.7570   -7.1642 C   0  0  0  0  0  0  0  0  0  0  0  0
   -4.5920   12.3049   -6.9193 C   0  0  0  0  0  0  0  0  0  0  0  0
   -3.4386   11.5825   -7.2408 C   0  0  0  0  0  0  0  0  0  0  0  0
   -3.5579   10.3128   -7.8038 C   0  0  0  0  0  0  0  0  0  0  0  0
   -4.8126    9.7642   -8.0521 C   0  0  0  0  0  0  0  0  0  0  0  0
   -2.0919   12.1643   -6.9829 C   0  0  0  0  0  0  0  0  0  0  0  0
   -1.7362   13.4287   -6.5051 C   0  0  0  0  0  0  0  0  0  0  0  0
   -0.4017   13.4552   -6.4435 N   0  0  3  0  0  0  0  0  0  0  0  0
    0.1850   12.3496   -6.8156 N   0  0  0  0  0  0  0  0  0  0  0  0
   -0.8078   11.5460   -7.1722 C   0  0  0  0  0  0  0  0  0  0  0  0
    0.4351   14.5688   -6.0125 C   0  0  0  0  0  0  0  0  0  0  0  0
   -3.3172   14.5865  -11.7755 C   0  0  0  0  0  0  0  0  0  0  0  0
   -1.8924   14.0513  -11.7355 C   0  0  0  0  0  0  0  0  0  0  0  0
   -2.3932   14.9579  -10.6450 C   0  0  0  0  0  0  0  0  0  0  0  0
   -6.0964   12.3014   -9.8693 H   0  0  0  0  0  0  0  0  0  0  0  0
   -8.1772   10.1197  -13.8994 H   0  0  0  0  0  0  0  0  0  0  0  0
   -6.9259   12.2608  -14.0798 H   0  0  0  0  0  0  0  0  0  0  0  0
   -8.1783   11.2044  -10.4423 H   0  0  0  0  0  0  0  0  0  0  0  0
   -8.0380    9.6010   -7.2550 H   0  0  0  0  0  0  0  0  0  0  0  0
   -5.2205   15.1935  -12.9707 H   0  0  0  0  0  0  0  0  0  0  0  0
   -6.7424   12.3154   -6.9139 H   0  0  0  0  0  0  0  0  0  0  0  0
   -4.5075   13.2883   -6.4808 H   0  0  0  0  0  0  0  0  0  0  0  0
   -2.6693    9.7502   -8.0493 H   0  0  0  0  0  0  0  0  0  0  0  0
   -4.8943    8.7808   -8.4911 H   0  0  0  0  0  0  0  0  0  0  0  0
   -2.0995   14.2088   -7.1903 H   0  0  0  0  0  0  0  0  0  0  0  0
   -2.1650   13.5904   -5.5051 H   0  0  0  0  0  0  0  0  0  0  0  0
   -0.6685   10.5471   -7.5584 H   0  0  0  0  0  0  0  0  0  0  0  0
    1.4941   14.2779   -6.0748 H   0  0  0  0  0  0  0  0  0  0  0  0
    0.2544   15.4366   -6.6639 H   0  0  0  0  0  0  0  0  0  0  0  0
    0.1879   14.8324   -4.9736 H   0  0  0  0  0  0  0  0  0  0  0  0
   -3.5215   15.3697  -12.5204 H   0  0  0  0  0  0  0  0  0  0  0  0
   -1.7095   12.9870  -11.5263 H   0  0  0  0  0  0  0  0  0  0  0  0
   -1.1463   14.4168  -12.4564 H   0  0  0  0  0  0  0  0  0  0  0  0
   -2.0084   15.9854  -10.5669 H   0  0  0  0  0  0  0  0  0  0  0  0
   -2.5716   14.5556   -9.6369 H   0  0  0  0  0  0  0  0  0  0  0  0
  1  2  2  0  0  0  0
  1  4  1  0  0  0  0
  1 12  1  0  0  0  0
  2  6  1  0  0  0  0
  3  4  2  0  0  0  0
  3  5  1  0  0  0  0
  5  6  1  0  0  0  0
  5  9  2  0  0  0  0
  6  7  1  0  0  0  0
  7  8  2  0  0  0  0
  7 10  1  0  0  0  0
  8  9  1  0  0  0  0
 10 14  2  0  0  0  0
 11 12  2  0  0  0  0
 11 26  1  0  0  0  0
 12 13  1  0  0  0  0
 14 15  1  0  0  0  0
 14 19  1  0  0  0  0
 15 16  2  0  0  0  0
 16 17  1  0  0  0  0
 17 18  1  0  0  0  0
 17 20  2  0  0  0  0
 18 19  2  0  0  0  0
 20 21  1  0  0  0  0
 20 24  1  0  0  0  0
 21 22  1  0  0  0  0
 22 23  1  0  0  0  0
 22 25  1  0  0  0  0
 23 24  2  0  0  0  0
 26 27  1  0  0  0  0
 26 28  1  0  0  0  0
 27 28  1  0  0  0  0
  2 29  1  0  0  0  0
  3 30  1  0  0  0  0
  4 31  1  0  0  0  0
  6 32  1  0  0  0  0
 10 33  1  0  0  0  0
 13 34  1  0  0  0  0
 15 35  1  0  0  0  0
 16 36  1  0  0  0  0
 18 37  1  0  0  0  0
 19 38  1  0  0  0  0
 21 39  1  0  0  0  0
 21 40  1  0  0  0  0
 24 41  1  0  0  0  0
 25 42  1  0  0  0  0
 25 43  1  0  0  0  0
 25 44  1  0  0  0  0
 26 45  1  0  0  0  0
 27 46  1  0  0  0  0
 27 47  1  0  0  0  0
 28 48  1  0  0  0  0
 28 49  1  0  0  0  0
M  END
> <Name>
33

> <IC50[uM]>
0.008

$$$$
33
  -OEChem-05192314333D
 Structure written by MMmdl.
 49 53  0     1  0  0  0  0  0999 V2000
   -6.3918   12.3765  -12.0158 C   0  0  0  0  0  0  0  0  0  0  0  0
   -6.5335   11.8201  -10.7317 C   0  0  0  0  0  0  0  0  0  0  0  0
   -7.7273   10.5795  -13.0319 C   0  0  0  0  0  0  0  0  0  0  0  0
   -7.0082   11.7773  -13.1176 C   0  0  0  0  0  0  0  0  0  0  0  0
   -7.8294   10.0116  -11.7546 C   0  0  0  0  0  0  0  0  0  0  0  0
   -7.2533   10.6299  -10.5984 C   0  0  0  0  0  0  0  0  0  0  0  0
   -7.6133    9.7501   -9.5115 C   0  0  0  0  0  0  0  0  0  0  0  0
   -8.2802    8.7340   -9.9853 N   0  0  0  0  0  0  0  0  0  0  0  0
   -8.4149    8.8602  -11.2994 N   0  0  0  0  0  0  0  0  0  0  0  0
   -7.3368    9.8898   -8.0240 C   0  0  0  0  0  0  0  0  0  0  0  0
   -4.3580   13.5891  -11.5451 N   0  0  0  0  0  0  0  0  0  0  0  0
   -5.5327   13.6029  -12.2131 C   0  0  0  0  0  0  0  0  0  0  0  0
   -5.8791   14.5089  -12.9726 O   0  0  0  0  0  0  0  0  0  0  0  0
   -5.9622   10.4818   -7.7351 C   0  0  0  0  0  0  0  0  0  0  0  0
   -5.8525   11.7570   -7.1642 C   0  0  0  0  0  0  0  0  0  0  0  0
   -4.5920   12.3049   -6.9193 C   0  0  0  0  0  0  0  0  0  0  0  0
   -3.4386   11.5825   -7.2408 C   0  0  0  0  0  0  0  0  0  0  0  0
   -3.5579   10.3128   -7.8038 C   0  0  0  0  0  0  0  0  0  0  0  0
   -4.8126    9.7642   -8.0521 C   0  0  0  0  0  0  0  0  0  0  0  0
   -2.0919   12.1643   -6.9829 C   0  0  0  0  0  0  0  0  0  0  0  0
   -1.7362   13.4287   -6.5051 C   0  0  0  0  0  0  0  0  0  0  0  0
   -0.4017   13.4552   -6.4435 N   0  0  3  0  0  0  0  0  0  0  0  0
    0.1850   12.3496   -6.8156 N   0  0  0  0  0  0  0  0  0  0  0  0
   -0.8078   11.5460   -7.1722 C   0  0  0  0  0  0  0  0  0  0  0  0
    0.4351   14.5688   -6.0125 C   0  0  0  0  0  0  0  0  0  0  0  0
   -3.3172   14.5865  -11.7755 C   0  0  0  0  0  0  0  0  0  0  0  0
   -1.8924   14.0513  -11.7355 C   0  0  0  0  0  0  0  0  0  0  0  0
   -2.3932   14.9579  -10.6450 C   0  0  0  0  0  0  0  0  0  0  0  0
   -6.0964   12.3014   -9.8693 H   0  0  0  0  0  0  0  0  0  0  0  0
   -8.7470   10.7729  -13.3962 H   0  0  0  0  0  0  0  0  0  0  0  0
   -7.2367    9.8453  -13.6879 H   0  0  0  0  0  0  0  0  0  0  0  0
   -6.9259   12.2608  -14.0798 H   0  0  0  0  0  0  0  0  0  0  0  0
   -8.0380    9.6010   -7.2550 H   0  0  0  0  0  0  0  0  0  0  0  0
   -5.2205   15.1935  -12.9707 H   0  0  0  0  0  0  0  0  0  0  0  0
   -6.7424   12.3154   -6.9139 H   0  0  0  0  0  0  0  0  0  0  0  0
   -4.5075   13.2883   -6.4808 H   0  0  0  0  0  0  0  0  0  0  0  0
   -2.6693    9.7502   -8.0493 H   0  0  0  0  0  0  0  0  0  0  0  0
   -4.8943    8.7808   -8.4911 H   0  0  0  0  0  0  0  0  0  0  0  0
   -2.0995   14.2088   -7.1903 H   0  0  0  0  0  0  0  0  0  0  0  0
   -2.1650   13.5904   -5.5051 H   0  0  0  0  0  0  0  0  0  0  0  0
   -0.6685   10.5471   -7.5584 H   0  0  0  0  0  0  0  0  0  0  0  0
    1.4941   14.2779   -6.0748 H   0  0  0  0  0  0  0  0  0  0  0  0
    0.2544   15.4366   -6.6639 H   0  0  0  0  0  0  0  0  0  0  0  0
    0.1879   14.8324   -4.9736 H   0  0  0  0  0  0  0  0  0  0  0  0
   -3.5215   15.3697  -12.5204 H   0  0  0  0  0  0  0  0  0  0  0  0
   -1.7095   12.9870  -11.5263 H   0  0  0  0  0  0  0  0  0  0  0  0
   -1.1463   14.4168  -12.4564 H   0  0  0  0  0  0  0  0  0  0  0  0
   -2.0084   15.9854  -10.5669 H   0  0  0  0  0  0  0  0  0  0  0  0
   -2.5716   14.5556   -9.6369 H   0  0  0  0  0  0  0  0  0  0  0  0
  1  2  1  0  0  0  0
  1  4  2  0  0  0  0
  1 12  1  0  0  0  0
  2  6  2  0  0  0  0
  3  4  1  0  0  0  0
  3  5  1  0  0  0  0
  5  6  1  0  0  0  0
  5  9  2  0  0  0  0
  6  7  1  0  0  0  0
  7  8  2  0  0  0  0
  7 10  1  0  0  0  0
  8  9  1  0  0  0  0
 10 14  2  0  0  0  0
 11 12  2  0  0  0  0
 11 26  1  0  0  0  0
 12 13  1  0  0  0  0
 14 15  1  0  0  0  0
 14 19  1  0  0  0  0
 15 16  2  0  0  0  0
 16 17  1  0  0  0  0
 17 18  1  0  0  0  0
 17 20  2  0  0  0  0
 18 19  2  0  0  0  0
 20 21  1  0  0  0  0
 20 24  1  0  0  0  0
 21 22  1  0  0  0  0
 22 23  1  0  0  0  0
 22 25  1  0  0  0  0
 23 24  2  0  0  0  0
 26 27  1  0  0  0  0
 26 28  1  0  0  0  0
 27 28  1  0  0  0  0
  2 29  1  0  0  0  0
  3 30  1  0  0  0  0
  3 31  1  0  0  0  0
  4 32  1  0  0  0  0
 10 33  1  0  0  0  0
 13 34  1  0  0  0  0
 15 35  1  0  0  0  0
 16 36  1  0  0  0  0
 18 37  1  0  0  0  0
 19 38  1  0  0  0  0
 21 39  1  0  0  0  0
 21 40  1  0  0  0  0
 24 41  1  0  0  0  0
 25 42  1  0  0  0  0
 25 43  1  0  0  0  0
 25 44  1  0  0  0  0
 26 45  1  0  0  0  0
 27 46  1  0  0  0  0
 27 47  1  0  0  0  0
 28 48  1  0  0  0  0
 28 49  1  0  0  0  0
M  END
> <Name>
33

> <IC50[uM]>
0.008

$$$$
33
  -OEChem-05192314333D
 Structure written by MMmdl.
 49 53  0     1  0  0  0  0  0999 V2000
   -6.3918   12.3765  -12.0158 C   0  0  0  0  0  0  0  0  0  0  0  0
   -6.5335   11.8201  -10.7317 C   0  0  0  0  0  0  0  0  0  0  0  0
   -7.7273   10.5795  -13.0319 C   0  0  0  0  0  0  0  0  0  0  0  0
   -7.0082   11.7773  -13.1176 C   0  0  0  0  0  0  0  0  0  0  0  0
   -7.8294   10.0116  -11.7546 C   0  0  3  0  0  0  0  0  0  0  0  0
   -7.2533   10.6299  -10.5984 C   0  0  0  0  0  0  0  0  0  0  0  0
   -7.6133    9.7501   -9.5115 C   0  0  0  0  0  0  0  0  0  0  0  0
   -8.2802    8.7340   -9.9853 N   0  0  0  0  0  0  0  0  0  0  0  0
   -8.4149    8.8602  -11.2994 N   0  0  0  0  0  0  0  0  0  0  0  0
   -7.3368    9.8898   -8.0240 C   0  0  0  0  0  0  0  0  0  0  0  0
   -4.3580   13.5891  -11.5451 N   0  0  0  0  0  0  0  0  0  0  0  0
   -5.5327   13.6029  -12.2131 C   0  0  0  0  0  0  0  0  0  0  0  0
   -5.8791   14.5089  -12.9726 O   0  0  0  0  0  0  0  0  0  0  0  0
   -5.9622   10.4818   -7.7351 C   0  0  0  0  0  0  0  0  0  0  0  0
   -5.8525   11.7570   -7.1642 C   0  0  0  0  0  0  0  0  0  0  0  0
   -4.5920   12.3049   -6.9193 C   0  0  0  0  0  0  0  0  0  0  0  0
   -3.4386   11.5825   -7.2408 C   0  0  0  0  0  0  0  0  0  0  0  0
   -3.5579   10.3128   -7.8038 C   0  0  0  0  0  0  0  0  0  0  0  0
   -4.8126    9.7642   -8.0521 C   0  0  0  0  0  0  0  0  0  0  0  0
   -2.0919   12.1643   -6.9829 C   0  0  0  0  0  0  0  0  0  0  0  0
   -1.7362   13.4287   -6.5051 C   0  0  0  0  0  0  0  0  0  0  0  0
   -0.4017   13.4552   -6.4435 N   0  0  3  0  0  0  0  0  0  0  0  0
    0.1850   12.3496   -6.8156 N   0  0  0  0  0  0  0  0  0  0  0  0
   -0.8078   11.5460   -7.1722 C   0  0  0  0  0  0  0  0  0  0  0  0
    0.4351   14.5688   -6.0125 C   0  0  0  0  0  0  0  0  0  0  0  0
   -3.3172   14.5865  -11.7755 C   0  0  0  0  0  0  0  0  0  0  0  0
   -1.8924   14.0513  -11.7355 C   0  0  0  0  0  0  0  0  0  0  0  0
   -2.3932   14.9579  -10.6450 C   0  0  0  0  0  0  0  0  0  0  0  0
   -6.0964   12.3014   -9.8693 H   0  0  0  0  0  0  0  0  0  0  0  0
   -8.1772   10.1197  -13.8994 H   0  0  0  0  0  0  0  0  0  0  0  0
   -6.9259   12.2608  -14.0798 H   0  0  0  0  0  0  0  0  0  0  0  0
   -8.7677   10.5596  -11.5832 H   0  0  0  0  0  0  0  0  0  0  0  0
   -8.0380    9.6010   -7.2550 H   0  0  0  0  0  0  0  0  0  0  0  0
   -4.1960   12.8702  -10.8691 H   0  0  0  0  0  0  0  0  0  0  0  0
   -6.7424   12.3154   -6.9139 H   0  0  0  0  0  0  0  0  0  0  0  0
   -4.5075   13.2883   -6.4808 H   0  0  0  0  0  0  0  0  0  0  0  0
   -2.6693    9.7502   -8.0493 H   0  0  0  0  0  0  0  0  0  0  0  0
   -4.8943    8.7808   -8.4911 H   0  0  0  0  0  0  0  0  0  0  0  0
   -2.0995   14.2088   -7.1903 H   0  0  0  0  0  0  0  0  0  0  0  0
   -2.1650   13.5904   -5.5051 H   0  0  0  0  0  0  0  0  0  0  0  0
   -0.6685   10.5471   -7.5584 H   0  0  0  0  0  0  0  0  0  0  0  0
    1.4941   14.2779   -6.0748 H   0  0  0  0  0  0  0  0  0  0  0  0
    0.2544   15.4366   -6.6639 H   0  0  0  0  0  0  0  0  0  0  0  0
    0.1879   14.8324   -4.9736 H   0  0  0  0  0  0  0  0  0  0  0  0
   -3.5215   15.3697  -12.5204 H   0  0  0  0  0  0  0  0  0  0  0  0
   -1.7095   12.9870  -11.5263 H   0  0  0  0  0  0  0  0  0  0  0  0
   -1.1463   14.4168  -12.4564 H   0  0  0  0  0  0  0  0  0  0  0  0
   -2.0084   15.9854  -10.5669 H   0  0  0  0  0  0  0  0  0  0  0  0
   -2.5716   14.5556   -9.6369 H   0  0  0  0  0  0  0  0  0  0  0  0
  1  2  2  0  0  0  0
  1  4  1  0  0  0  0
  1 12  1  0  0  0  0
  2  6  1  0  0  0  0
  3  4  2  0  0  0  0
  3  5  1  0  0  0  0
  5  6  1  0  0  0  0
  5  9  1  0  0  0  0
  6  7  2  0  0  0  0
  7  8  1  0  0  0  0
  7 10  1  0  0  0  0
  8  9  2  0  0  0  0
 10 14  2  0  0  0  0
 11 12  1  0  0  0  0
 11 26  1  0  0  0  0
 12 13  2  0  0  0  0
 14 15  1  0  0  0  0
 14 19  1  0  0  0  0
 15 16  2  0  0  0  0
 16 17  1  0  0  0  0
 17 18  1  0  0  0  0
 17 20  2  0  0  0  0
 18 19  2  0  0  0  0
 20 21  1  0  0  0  0
 20 24  1  0  0  0  0
 21 22  1  0  0  0  0
 22 23  1  0  0  0  0
 22 25  1  0  0  0  0
 23 24  2  0  0  0  0
 26 27  1  0  0  0  0
 26 28  1  0  0  0  0
 27 28  1  0  0  0  0
  2 29  1  0  0  0  0
  3 30  1  0  0  0  0
  4 31  1  0  0  0  0
  5 32  1  0  0  0  0
 10 33  1  0  0  0  0
 11 34  1  0  0  0  0
 15 35  1  0  0  0  0
 16 36  1  0  0  0  0
 18 37  1  0  0  0  0
 19 38  1  0  0  0  0
 21 39  1  0  0  0  0
 21 40  1  0  0  0  0
 24 41  1  0  0  0  0
 25 42  1  0  0  0  0
 25 43  1  0  0  0  0
 25 44  1  0  0  0  0
 26 45  1  0  0  0  0
 27 46  1  0  0  0  0
 27 47  1  0  0  0  0
 28 48  1  0  0  0  0
 28 49  1  0  0  0  0
M  END
> <Name>
33

> <IC50[uM]>
0.008

$$$$
33
  -OEChem-05192314333D
 Structure written by MMmdl.
 49 53  0     1  0  0  0  0  0999 V2000
   -6.3918   12.3765  -12.0158 C   0  0  0  0  0  0  0  0  0  0  0  0
   -6.5335   11.8201  -10.7317 C   0  0  0  0  0  0  0  0  0  0  0  0
   -7.7273   10.5795  -13.0319 C   0  0  0  0  0  0  0  0  0  0  0  0
   -7.0082   11.7773  -13.1176 C   0  0  0  0  0  0  0  0  0  0  0  0
   -7.8294   10.0116  -11.7546 C   0  0  0  0  0  0  0  0  0  0  0  0
   -7.2533   10.6299  -10.5984 C   0  0  0  0  0  0  0  0  0  0  0  0
   -7.6133    9.7501   -9.5115 C   0  0  0  0  0  0  0  0  0  0  0  0
   -8.2802    8.7340   -9.9853 N   0  0  0  0  0  0  0  0  0  0  0  0
   -8.4149    8.8602  -11.2994 N   0  0  0  0  0  0  0  0  0  0  0  0
   -7.3368    9.8898   -8.0240 C   0  0  0  0  0  0  0  0  0  0  0  0
   -4.3580   13.5891  -11.5451 N   0  0  0  0  0  0  0  0  0  0  0  0
   -5.5327   13.6029  -12.2131 C   0  0  0  0  0  0  0  0  0  0  0  0
   -5.8791   14.5089  -12.9726 O   0  0  0  0  0  0  0  0  0  0  0  0
   -5.9622   10.4818   -7.7351 C   0  0  0  0  0  0  0  0  0  0  0  0
   -5.8525   11.7570   -7.1642 C   0  0  0  0  0  0  0  0  0  0  0  0
   -4.5920   12.3049   -6.9193 C   0  0  0  0  0  0  0  0  0  0  0  0
   -3.4386   11.5825   -7.2408 C   0  0  0  0  0  0  0  0  0  0  0  0
   -3.5579   10.3128   -7.8038 C   0  0  0  0  0  0  0  0  0  0  0  0
   -4.8126    9.7642   -8.0521 C   0  0  0  0  0  0  0  0  0  0  0  0
   -2.0919   12.1643   -6.9829 C   0  0  0  0  0  0  0  0  0  0  0  0
   -1.7362   13.4287   -6.5051 C   0  0  0  0  0  0  0  0  0  0  0  0
   -0.4017   13.4552   -6.4435 N   0  0  3  0  0  0  0  0  0  0  0  0
    0.1850   12.3496   -6.8156 N   0  0  0  0  0  0  0  0  0  0  0  0
   -0.8078   11.5460   -7.1722 C   0  0  0  0  0  0  0  0  0  0  0  0
    0.4351   14.5688   -6.0125 C   0  0  0  0  0  0  0  0  0  0  0  0
   -3.3172   14.5865  -11.7755 C   0  0  0  0  0  0  0  0  0  0  0  0
   -1.8924   14.0513  -11.7355 C   0  0  0  0  0  0  0  0  0  0  0  0
   -2.3932   14.9579  -10.6450 C   0  0  0  0  0  0  0  0  0  0  0  0
   -6.0964   12.3014   -9.8693 H   0  0  0  0  0  0  0  0  0  0  0  0
   -8.1772   10.1197  -13.8994 H   0  0  0  0  0  0  0  0  0  0  0  0
   -7.7108   12.5246  -13.5150 H   0  0  0  0  0  0  0  0  0  0  0  0
   -6.2088   11.5987  -13.8518 H   0  0  0  0  0  0  0  0  0  0  0  0
   -8.0380    9.6010   -7.2550 H   0  0  0  0  0  0  0  0  0  0  0  0
   -4.1960   12.8702  -10.8691 H   0  0  0  0  0  0  0  0  0  0  0  0
   -6.7424   12.3154   -6.9139 H   0  0  0  0  0  0  0  0  0  0  0  0
   -4.5075   13.2883   -6.4808 H   0  0  0  0  0  0  0  0  0  0  0  0
   -2.6693    9.7502   -8.0493 H   0  0  0  0  0  0  0  0  0  0  0  0
   -4.8943    8.7808   -8.4911 H   0  0  0  0  0  0  0  0  0  0  0  0
   -2.0995   14.2088   -7.1903 H   0  0  0  0  0  0  0  0  0  0  0  0
   -2.1650   13.5904   -5.5051 H   0  0  0  0  0  0  0  0  0  0  0  0
   -0.6685   10.5471   -7.5584 H   0  0  0  0  0  0  0  0  0  0  0  0
    1.4941   14.2779   -6.0748 H   0  0  0  0  0  0  0  0  0  0  0  0
    0.2544   15.4366   -6.6639 H   0  0  0  0  0  0  0  0  0  0  0  0
    0.1879   14.8324   -4.9736 H   0  0  0  0  0  0  0  0  0  0  0  0
   -3.5215   15.3697  -12.5204 H   0  0  0  0  0  0  0  0  0  0  0  0
   -1.7095   12.9870  -11.5263 H   0  0  0  0  0  0  0  0  0  0  0  0
   -1.1463   14.4168  -12.4564 H   0  0  0  0  0  0  0  0  0  0  0  0
   -2.0084   15.9854  -10.5669 H   0  0  0  0  0  0  0  0  0  0  0  0
   -2.5716   14.5556   -9.6369 H   0  0  0  0  0  0  0  0  0  0  0  0
  1  2  2  0  0  0  0
  1  4  1  0  0  0  0
  1 12  1  0  0  0  0
  2  6  1  0  0  0  0
  3  4  1  0  0  0  0
  3  5  2  0  0  0  0
  5  6  1  0  0  0  0
  5  9  1  0  0  0  0
  6  7  2  0  0  0  0
  7  8  1  0  0  0  0
  7 10  1  0  0  0  0
  8  9  2  0  0  0  0
 10 14  2  0  0  0  0
 11 12  1  0  0  0  0
 11 26  1  0  0  0  0
 12 13  2  0  0  0  0
 14 15  1  0  0  0  0
 14 19  1  0  0  0  0
 15 16  2  0  0  0  0
 16 17  1  0  0  0  0
 17 18  1  0  0  0  0
 17 20  2  0  0  0  0
 18 19  2  0  0  0  0
 20 21  1  0  0  0  0
 20 24  1  0  0  0  0
 21 22  1  0  0  0  0
 22 23  1  0  0  0  0
 22 25  1  0  0  0  0
 23 24  2  0  0  0  0
 26 27  1  0  0  0  0
 26 28  1  0  0  0  0
 27 28  1  0  0  0  0
  2 29  1  0  0  0  0
  3 30  1  0  0  0  0
  4 31  1  0  0  0  0
  4 32  1  0  0  0  0
 10 33  1  0  0  0  0
 11 34  1  0  0  0  0
 15 35  1  0  0  0  0
 16 36  1  0  0  0  0
 18 37  1  0  0  0  0
 19 38  1  0  0  0  0
 21 39  1  0  0  0  0
 21 40  1  0  0  0  0
 24 41  1  0  0  0  0
 25 42  1  0  0  0  0
 25 43  1  0  0  0  0
 25 44  1  0  0  0  0
 26 45  1  0  0  0  0
 27 46  1  0  0  0  0
 27 47  1  0  0  0  0
 28 48  1  0  0  0  0
 28 49  1  0  0  0  0
M  END
> <Name>
33

> <IC50[uM]>
0.008

$$$$
33
  -OEChem-05192314333D
 Structure written by MMmdl.
 49 53  0     1  0  0  0  0  0999 V2000
   -6.3918   12.3765  -12.0158 C   0  0  0  0  0  0  0  0  0  0  0  0
   -6.5335   11.8201  -10.7317 C   0  0  0  0  0  0  0  0  0  0  0  0
   -7.7273   10.5795  -13.0319 C   0  0  0  0  0  0  0  0  0  0  0  0
   -7.0082   11.7773  -13.1176 C   0  0  0  0  0  0  0  0  0  0  0  0
   -7.8294   10.0116  -11.7546 C   0  0  0  0  0  0  0  0  0  0  0  0
   -7.2533   10.6299  -10.5984 C   0  0  0  0  0  0  0  0  0  0  0  0
   -7.6133    9.7501   -9.5115 C   0  0  0  0  0  0  0  0  0  0  0  0
   -8.2802    8.7340   -9.9853 N   0  0  0  0  0  0  0  0  0  0  0  0
   -8.4149    8.8602  -11.2994 N   0  0  0  0  0  0  0  0  0  0  0  0
   -7.3368    9.8898   -8.0240 C   0  0  0  0  0  0  0  0  0  0  0  0
   -4.3580   13.5891  -11.5451 N   0  0  0  0  0  0  0  0  0  0  0  0
   -5.5327   13.6029  -12.2131 C   0  0  0  0  0  0  0  0  0  0  0  0
   -5.8791   14.5089  -12.9726 O   0  0  0  0  0  0  0  0  0  0  0  0
   -5.9622   10.4818   -7.7351 C   0  0  0  0  0  0  0  0  0  0  0  0
   -5.8525   11.7570   -7.1642 C   0  0  0  0  0  0  0  0  0  0  0  0
   -4.5920   12.3049   -6.9193 C   0  0  0  0  0  0  0  0  0  0  0  0
   -3.4386   11.5825   -7.2408 C   0  0  0  0  0  0  0  0  0  0  0  0
   -3.5579   10.3128   -7.8038 C   0  0  0  0  0  0  0  0  0  0  0  0
   -4.8126    9.7642   -8.0521 C   0  0  0  0  0  0  0  0  0  0  0  0
   -2.0919   12.1643   -6.9829 C   0  0  0  0  0  0  0  0  0  0  0  0
   -1.7362   13.4287   -6.5051 C   0  0  0  0  0  0  0  0  0  0  0  0
   -0.4017   13.4552   -6.4435 N   0  0  3  0  0  0  0  0  0  0  0  0
    0.1850   12.3496   -6.8156 N   0  0  0  0  0  0  0  0  0  0  0  0
   -0.8078   11.5460   -7.1722 C   0  0  0  0  0  0  0  0  0  0  0  0
    0.4351   14.5688   -6.0125 C   0  0  0  0  0  0  0  0  0  0  0  0
   -3.3172   14.5865  -11.7755 C   0  0  0  0  0  0  0  0  0  0  0  0
   -1.8924   14.0513  -11.7355 C   0  0  0  0  0  0  0  0  0  0  0  0
   -2.3932   14.9579  -10.6450 C   0  0  0  0  0  0  0  0  0  0  0  0
   -5.5209   11.6327  -10.3450 H   0  0  0  0  0  0  0  0  0  0  0  0
   -7.0320   12.5735  -10.1041 H   0  0  0  0  0  0  0  0  0  0  0  0
   -8.1772   10.1197  -13.8994 H   0  0  0  0  0  0  0  0  0  0  0  0
   -6.9259   12.2608  -14.0798 H   0  0  0  0  0  0  0  0  0  0  0  0
   -8.0380    9.6010   -7.2550 H   0  0  0  0  0  0  0  0  0  0  0  0
   -4.1960   12.8702  -10.8691 H   0  0  0  0  0  0  0  0  0  0  0  0
   -6.7424   12.3154   -6.9139 H   0  0  0  0  0  0  0  0  0  0  0  0
   -4.5075   13.2883   -6.4808 H   0  0  0  0  0  0  0  0  0  0  0  0
   -2.6693    9.7502   -8.0493 H   0  0  0  0  0  0  0  0  0  0  0  0
   -4.8943    8.7808   -8.4911 H   0  0  0  0  0  0  0  0  0  0  0  0
   -2.0995   14.2088   -7.1903 H   0  0  0  0  0  0  0  0  0  0  0  0
   -2.1650   13.5904   -5.5051 H   0  0  0  0  0  0  0  0  0  0  0  0
   -0.6685   10.5471   -7.5584 H   0  0  0  0  0  0  0  0  0  0  0  0
    1.4941   14.2779   -6.0748 H   0  0  0  0  0  0  0  0  0  0  0  0
    0.2544   15.4366   -6.6639 H   0  0  0  0  0  0  0  0  0  0  0  0
    0.1879   14.8324   -4.9736 H   0  0  0  0  0  0  0  0  0  0  0  0
   -3.5215   15.3697  -12.5204 H   0  0  0  0  0  0  0  0  0  0  0  0
   -1.7095   12.9870  -11.5263 H   0  0  0  0  0  0  0  0  0  0  0  0
   -1.1463   14.4168  -12.4564 H   0  0  0  0  0  0  0  0  0  0  0  0
   -2.0084   15.9854  -10.5669 H   0  0  0  0  0  0  0  0  0  0  0  0
   -2.5716   14.5556   -9.6369 H   0  0  0  0  0  0  0  0  0  0  0  0
  1  2  1  0  0  0  0
  1  4  2  0  0  0  0
  1 12  1  0  0  0  0
  2  6  1  0  0  0  0
  3  4  1  0  0  0  0
  3  5  2  0  0  0  0
  5  6  1  0  0  0  0
  5  9  1  0  0  0  0
  6  7  2  0  0  0  0
  7  8  1  0  0  0  0
  7 10  1  0  0  0  0
  8  9  2  0  0  0  0
 10 14  2  0  0  0  0
 11 12  1  0  0  0  0
 11 26  1  0  0  0  0
 12 13  2  0  0  0  0
 14 15  1  0  0  0  0
 14 19  1  0  0  0  0
 15 16  2  0  0  0  0
 16 17  1  0  0  0  0
 17 18  1  0  0  0  0
 17 20  2  0  0  0  0
 18 19  2  0  0  0  0
 20 21  1  0  0  0  0
 20 24  1  0  0  0  0
 21 22  1  0  0  0  0
 22 23  1  0  0  0  0
 22 25  1  0  0  0  0
 23 24  2  0  0  0  0
 26 27  1  0  0  0  0
 26 28  1  0  0  0  0
 27 28  1  0  0  0  0
  2 29  1  0  0  0  0
  2 30  1  0  0  0  0
  3 31  1  0  0  0  0
  4 32  1  0  0  0  0
 10 33  1  0  0  0  0
 11 34  1  0  0  0  0
 15 35  1  0  0  0  0
 16 36  1  0  0  0  0
 18 37  1  0  0  0  0
 19 38  1  0  0  0  0
 21 39  1  0  0  0  0
 21 40  1  0  0  0  0
 24 41  1  0  0  0  0
 25 42  1  0  0  0  0
 25 43  1  0  0  0  0
 25 44  1  0  0  0  0
 26 45  1  0  0  0  0
 27 46  1  0  0  0  0
 27 47  1  0  0  0  0
 28 48  1  0  0  0  0
 28 49  1  0  0  0  0
M  END
> <Name>
33

> <IC50[uM]>
0.008

$$$$
33
  -OEChem-05192314333D
 Structure written by MMmdl.
 49 53  0     1  0  0  0  0  0999 V2000
   -6.3918   12.3765  -12.0158 C   0  0  0  0  0  0  0  0  0  0  0  0
   -6.5335   11.8201  -10.7317 C   0  0  0  0  0  0  0  0  0  0  0  0
   -7.7273   10.5795  -13.0319 C   0  0  0  0  0  0  0  0  0  0  0  0
   -7.0082   11.7773  -13.1176 C   0  0  0  0  0  0  0  0  0  0  0  0
   -7.8294   10.0116  -11.7546 C   0  0  3  0  0  0  0  0  0  0  0  0
   -7.2533   10.6299  -10.5984 C   0  0  0  0  0  0  0  0  0  0  0  0
   -7.6133    9.7501   -9.5115 C   0  0  0  0  0  0  0  0  0  0  0  0
   -8.2802    8.7340   -9.9853 N   0  0  0  0  0  0  0  0  0  0  0  0
   -8.4149    8.8602  -11.2994 N   0  0  0  0  0  0  0  0  0  0  0  0
   -7.3368    9.8898   -8.0240 C   0  0  0  0  0  0  0  0  0  0  0  0
   -4.3580   13.5891  -11.5451 N   0  0  0  0  0  0  0  0  0  0  0  0
   -5.5327   13.6029  -12.2131 C   0  0  0  0  0  0  0  0  0  0  0  0
   -5.8791   14.5089  -12.9726 O   0  0  0  0  0  0  0  0  0  0  0  0
   -5.9622   10.4818   -7.7351 C   0  0  0  0  0  0  0  0  0  0  0  0
   -5.8525   11.7570   -7.1642 C   0  0  0  0  0  0  0  0  0  0  0  0
   -4.5920   12.3049   -6.9193 C   0  0  0  0  0  0  0  0  0  0  0  0
   -3.4386   11.5825   -7.2408 C   0  0  0  0  0  0  0  0  0  0  0  0
   -3.5579   10.3128   -7.8038 C   0  0  0  0  0  0  0  0  0  0  0  0
   -4.8126    9.7642   -8.0521 C   0  0  0  0  0  0  0  0  0  0  0  0
   -2.0919   12.1643   -6.9829 C   0  0  0  0  0  0  0  0  0  0  0  0
   -1.7362   13.4287   -6.5051 C   0  0  0  0  0  0  0  0  0  0  0  0
   -0.4017   13.4552   -6.4435 N   0  0  3  0  0  0  0  0  0  0  0  0
    0.1850   12.3496   -6.8156 N   0  0  0  0  0  0  0  0  0  0  0  0
   -0.8078   11.5460   -7.1722 C   0  0  0  0  0  0  0  0  0  0  0  0
    0.4351   14.5688   -6.0125 C   0  0  0  0  0  0  0  0  0  0  0  0
   -3.3172   14.5865  -11.7755 C   0  0  0  0  0  0  0  0  0  0  0  0
   -1.8924   14.0513  -11.7355 C   0  0  0  0  0  0  0  0  0  0  0  0
   -2.3932   14.9579  -10.6450 C   0  0  0  0  0  0  0  0  0  0  0  0
   -6.0964   12.3014   -9.8693 H   0  0  0  0  0  0  0  0  0  0  0  0
   -8.1772   10.1197  -13.8994 H   0  0  0  0  0  0  0  0  0  0  0  0
   -6.9259   12.2608  -14.0798 H   0  0  0  0  0  0  0  0  0  0  0  0
   -8.7677   10.5596  -11.5832 H   0  0  0  0  0  0  0  0  0  0  0  0
   -8.0380    9.6010   -7.2550 H   0  0  0  0  0  0  0  0  0  0  0  0
   -5.2205   15.1935  -12.9707 H   0  0  0  0  0  0  0  0  0  0  0  0
   -6.7424   12.3154   -6.9139 H   0  0  0  0  0  0  0  0  0  0  0  0
   -4.5075   13.2883   -6.4808 H   0  0  0  0  0  0  0  0  0  0  0  0
   -2.6693    9.7502   -8.0493 H   0  0  0  0  0  0  0  0  0  0  0  0
   -4.8943    8.7808   -8.4911 H   0  0  0  0  0  0  0  0  0  0  0  0
   -2.0995   14.2088   -7.1903 H   0  0  0  0  0  0  0  0  0  0  0  0
   -2.1650   13.5904   -5.5051 H   0  0  0  0  0  0  0  0  0  0  0  0
   -0.6685   10.5471   -7.5584 H   0  0  0  0  0  0  0  0  0  0  0  0
    1.4941   14.2779   -6.0748 H   0  0  0  0  0  0  0  0  0  0  0  0
    0.2544   15.4366   -6.6639 H   0  0  0  0  0  0  0  0  0  0  0  0
    0.1879   14.8324   -4.9736 H   0  0  0  0  0  0  0  0  0  0  0  0
   -3.5215   15.3697  -12.5204 H   0  0  0  0  0  0  0  0  0  0  0  0
   -1.7095   12.9870  -11.5263 H   0  0  0  0  0  0  0  0  0  0  0  0
   -1.1463   14.4168  -12.4564 H   0  0  0  0  0  0  0  0  0  0  0  0
   -2.0084   15.9854  -10.5669 H   0  0  0  0  0  0  0  0  0  0  0  0
   -2.5716   14.5556   -9.6369 H   0  0  0  0  0  0  0  0  0  0  0  0
  1  2  2  0  0  0  0
  1  4  1  0  0  0  0
  1 12  1  0  0  0  0
  2  6  1  0  0  0  0
  3  4  2  0  0  0  0
  3  5  1  0  0  0  0
  5  6  1  0  0  0  0
  5  9  1  0  0  0  0
  6  7  2  0  0  0  0
  7  8  1  0  0  0  0
  7 10  1  0  0  0  0
  8  9  2  0  0  0  0
 10 14  2  0  0  0  0
 11 12  2  0  0  0  0
 11 26  1  0  0  0  0
 12 13  1  0  0  0  0
 14 15  1  0  0  0  0
 14 19  1  0  0  0  0
 15 16  2  0  0  0  0
 16 17  1  0  0  0  0
 17 18  1  0  0  0  0
 17 20  2  0  0  0  0
 18 19  2  0  0  0  0
 20 21  1  0  0  0  0
 20 24  1  0  0  0  0
 21 22  1  0  0  0  0
 22 23  1  0  0  0  0
 22 25  1  0  0  0  0
 23 24  2  0  0  0  0
 26 27  1  0  0  0  0
 26 28  1  0  0  0  0
 27 28  1  0  0  0  0
  2 29  1  0  0  0  0
  3 30  1  0  0  0  0
  4 31  1  0  0  0  0
  5 32  1  0  0  0  0
 10 33  1  0  0  0  0
 13 34  1  0  0  0  0
 15 35  1  0  0  0  0
 16 36  1  0  0  0  0
 18 37  1  0  0  0  0
 19 38  1  0  0  0  0
 21 39  1  0  0  0  0
 21 40  1  0  0  0  0
 24 41  1  0  0  0  0
 25 42  1  0  0  0  0
 25 43  1  0  0  0  0
 25 44  1  0  0  0  0
 26 45  1  0  0  0  0
 27 46  1  0  0  0  0
 27 47  1  0  0  0  0
 28 48  1  0  0  0  0
 28 49  1  0  0  0  0
M  END
> <Name>
33

> <IC50[uM]>
0.008

$$$$
33
  -OEChem-05192314333D
 Structure written by MMmdl.
 49 53  0     1  0  0  0  0  0999 V2000
   -6.3918   12.3765  -12.0158 C   0  0  0  0  0  0  0  0  0  0  0  0
   -6.5335   11.8201  -10.7317 C   0  0  0  0  0  0  0  0  0  0  0  0
   -7.7273   10.5795  -13.0319 C   0  0  0  0  0  0  0  0  0  0  0  0
   -7.0082   11.7773  -13.1176 C   0  0  0  0  0  0  0  0  0  0  0  0
   -7.8294   10.0116  -11.7546 C   0  0  0  0  0  0  0  0  0  0  0  0
   -7.2533   10.6299  -10.5984 C   0  0  0  0  0  0  0  0  0  0  0  0
   -7.6133    9.7501   -9.5115 C   0  0  0  0  0  0  0  0  0  0  0  0
   -8.2802    8.7340   -9.9853 N   0  0  0  0  0  0  0  0  0  0  0  0
   -8.4149    8.8602  -11.2994 N   0  0  0  0  0  0  0  0  0  0  0  0
   -7.3368    9.8898   -8.0240 C   0  0  0  0  0  0  0  0  0  0  0  0
   -4.3580   13.5891  -11.5451 N   0  0  0  0  0  0  0  0  0  0  0  0
   -5.5327   13.6029  -12.2131 C   0  0  0  0  0  0  0  0  0  0  0  0
   -5.8791   14.5089  -12.9726 O   0  0  0  0  0  0  0  0  0  0  0  0
   -5.9622   10.4818   -7.7351 C   0  0  0  0  0  0  0  0  0  0  0  0
   -5.8525   11.7570   -7.1642 C   0  0  0  0  0  0  0  0  0  0  0  0
   -4.5920   12.3049   -6.9193 C   0  0  0  0  0  0  0  0  0  0  0  0
   -3.4386   11.5825   -7.2408 C   0  0  0  0  0  0  0  0  0  0  0  0
   -3.5579   10.3128   -7.8038 C   0  0  0  0  0  0  0  0  0  0  0  0
   -4.8126    9.7642   -8.0521 C   0  0  0  0  0  0  0  0  0  0  0  0
   -2.0919   12.1643   -6.9829 C   0  0  0  0  0  0  0  0  0  0  0  0
   -1.7362   13.4287   -6.5051 C   0  0  0  0  0  0  0  0  0  0  0  0
   -0.4017   13.4552   -6.4435 N   0  0  3  0  0  0  0  0  0  0  0  0
    0.1850   12.3496   -6.8156 N   0  0  0  0  0  0  0  0  0  0  0  0
   -0.8078   11.5460   -7.1722 C   0  0  0  0  0  0  0  0  0  0  0  0
    0.4351   14.5688   -6.0125 C   0  0  0  0  0  0  0  0  0  0  0  0
   -3.3172   14.5865  -11.7755 C   0  0  0  0  0  0  0  0  0  0  0  0
   -1.8924   14.0513  -11.7355 C   0  0  0  0  0  0  0  0  0  0  0  0
   -2.3932   14.9579  -10.6450 C   0  0  0  0  0  0  0  0  0  0  0  0
   -6.0964   12.3014   -9.8693 H   0  0  0  0  0  0  0  0  0  0  0  0
   -8.1772   10.1197  -13.8994 H   0  0  0  0  0  0  0  0  0  0  0  0
   -7.7108   12.5246  -13.5150 H   0  0  0  0  0  0  0  0  0  0  0  0
   -6.2088   11.5987  -13.8518 H   0  0  0  0  0  0  0  0  0  0  0  0
   -8.0380    9.6010   -7.2550 H   0  0  0  0  0  0  0  0  0  0  0  0
   -5.2205   15.1935  -12.9707 H   0  0  0  0  0  0  0  0  0  0  0  0
   -6.7424   12.3154   -6.9139 H   0  0  0  0  0  0  0  0  0  0  0  0
   -4.5075   13.2883   -6.4808 H   0  0  0  0  0  0  0  0  0  0  0  0
   -2.6693    9.7502   -8.0493 H   0  0  0  0  0  0  0  0  0  0  0  0
   -4.8943    8.7808   -8.4911 H   0  0  0  0  0  0  0  0  0  0  0  0
   -2.0995   14.2088   -7.1903 H   0  0  0  0  0  0  0  0  0  0  0  0
   -2.1650   13.5904   -5.5051 H   0  0  0  0  0  0  0  0  0  0  0  0
   -0.6685   10.5471   -7.5584 H   0  0  0  0  0  0  0  0  0  0  0  0
    1.4941   14.2779   -6.0748 H   0  0  0  0  0  0  0  0  0  0  0  0
    0.2544   15.4366   -6.6639 H   0  0  0  0  0  0  0  0  0  0  0  0
    0.1879   14.8324   -4.9736 H   0  0  0  0  0  0  0  0  0  0  0  0
   -3.5215   15.3697  -12.5204 H   0  0  0  0  0  0  0  0  0  0  0  0
   -1.7095   12.9870  -11.5263 H   0  0  0  0  0  0  0  0  0  0  0  0
   -1.1463   14.4168  -12.4564 H   0  0  0  0  0  0  0  0  0  0  0  0
   -2.0084   15.9854  -10.5669 H   0  0  0  0  0  0  0  0  0  0  0  0
   -2.5716   14.5556   -9.6369 H   0  0  0  0  0  0  0  0  0  0  0  0
  1  2  2  0  0  0  0
  1  4  1  0  0  0  0
  1 12  1  0  0  0  0
  2  6  1  0  0  0  0
  3  4  1  0  0  0  0
  3  5  2  0  0  0  0
  5  6  1  0  0  0  0
  5  9  1  0  0  0  0
  6  7  2  0  0  0  0
  7  8  1  0  0  0  0
  7 10  1  0  0  0  0
  8  9  2  0  0  0  0
 10 14  2  0  0  0  0
 11 12  2  0  0  0  0
 11 26  1  0  0  0  0
 12 13  1  0  0  0  0
 14 15  1  0  0  0  0
 14 19  1  0  0  0  0
 15 16  2  0  0  0  0
 16 17  1  0  0  0  0
 17 18  1  0  0  0  0
 17 20  2  0  0  0  0
 18 19  2  0  0  0  0
 20 21  1  0  0  0  0
 20 24  1  0  0  0  0
 21 22  1  0  0  0  0
 22 23  1  0  0  0  0
 22 25  1  0  0  0  0
 23 24  2  0  0  0  0
 26 27  1  0  0  0  0
 26 28  1  0  0  0  0
 27 28  1  0  0  0  0
  2 29  1  0  0  0  0
  3 30  1  0  0  0  0
  4 31  1  0  0  0  0
  4 32  1  0  0  0  0
 10 33  1  0  0  0  0
 13 34  1  0  0  0  0
 15 35  1  0  0  0  0
 16 36  1  0  0  0  0
 18 37  1  0  0  0  0
 19 38  1  0  0  0  0
 21 39  1  0  0  0  0
 21 40  1  0  0  0  0
 24 41  1  0  0  0  0
 25 42  1  0  0  0  0
 25 43  1  0  0  0  0
 25 44  1  0  0  0  0
 26 45  1  0  0  0  0
 27 46  1  0  0  0  0
 27 47  1  0  0  0  0
 28 48  1  0  0  0  0
 28 49  1  0  0  0  0
M  END
> <Name>
33

> <IC50[uM]>
0.008

$$$$
33
  -OEChem-05192314333D
 Structure written by MMmdl.
 49 53  0     1  0  0  0  0  0999 V2000
   -6.3918   12.3765  -12.0158 C   0  0  0  0  0  0  0  0  0  0  0  0
   -6.5335   11.8201  -10.7317 C   0  0  0  0  0  0  0  0  0  0  0  0
   -7.7273   10.5795  -13.0319 C   0  0  0  0  0  0  0  0  0  0  0  0
   -7.0082   11.7773  -13.1176 C   0  0  0  0  0  0  0  0  0  0  0  0
   -7.8294   10.0116  -11.7546 C   0  0  0  0  0  0  0  0  0  0  0  0
   -7.2533   10.6299  -10.5984 C   0  0  0  0  0  0  0  0  0  0  0  0
   -7.6133    9.7501   -9.5115 C   0  0  0  0  0  0  0  0  0  0  0  0
   -8.2802    8.7340   -9.9853 N   0  0  0  0  0  0  0  0  0  0  0  0
   -8.4149    8.8602  -11.2994 N   0  0  0  0  0  0  0  0  0  0  0  0
   -7.3368    9.8898   -8.0240 C   0  0  0  0  0  0  0  0  0  0  0  0
   -4.3580   13.5891  -11.5451 N   0  0  0  0  0  0  0  0  0  0  0  0
   -5.5327   13.6029  -12.2131 C   0  0  0  0  0  0  0  0  0  0  0  0
   -5.8791   14.5089  -12.9726 O   0  0  0  0  0  0  0  0  0  0  0  0
   -5.9622   10.4818   -7.7351 C   0  0  0  0  0  0  0  0  0  0  0  0
   -5.8525   11.7570   -7.1642 C   0  0  0  0  0  0  0  0  0  0  0  0
   -4.5920   12.3049   -6.9193 C   0  0  0  0  0  0  0  0  0  0  0  0
   -3.4386   11.5825   -7.2408 C   0  0  0  0  0  0  0  0  0  0  0  0
   -3.5579   10.3128   -7.8038 C   0  0  0  0  0  0  0  0  0  0  0  0
   -4.8126    9.7642   -8.0521 C   0  0  0  0  0  0  0  0  0  0  0  0
   -2.0919   12.1643   -6.9829 C   0  0  0  0  0  0  0  0  0  0  0  0
   -1.7362   13.4287   -6.5051 C   0  0  0  0  0  0  0  0  0  0  0  0
   -0.4017   13.4552   -6.4435 N   0  0  3  0  0  0  0  0  0  0  0  0
    0.1850   12.3496   -6.8156 N   0  0  0  0  0  0  0  0  0  0  0  0
   -0.8078   11.5460   -7.1722 C   0  0  0  0  0  0  0  0  0  0  0  0
    0.4351   14.5688   -6.0125 C   0  0  0  0  0  0  0  0  0  0  0  0
   -3.3172   14.5865  -11.7755 C   0  0  0  0  0  0  0  0  0  0  0  0
   -1.8924   14.0513  -11.7355 C   0  0  0  0  0  0  0  0  0  0  0  0
   -2.3932   14.9579  -10.6450 C   0  0  0  0  0  0  0  0  0  0  0  0
   -5.5209   11.6327  -10.3450 H   0  0  0  0  0  0  0  0  0  0  0  0
   -7.0320   12.5735  -10.1041 H   0  0  0  0  0  0  0  0  0  0  0  0
   -8.1772   10.1197  -13.8994 H   0  0  0  0  0  0  0  0  0  0  0  0
   -6.9259   12.2608  -14.0798 H   0  0  0  0  0  0  0  0  0  0  0  0
   -8.0380    9.6010   -7.2550 H   0  0  0  0  0  0  0  0  0  0  0  0
   -5.2205   15.1935  -12.9707 H   0  0  0  0  0  0  0  0  0  0  0  0
   -6.7424   12.3154   -6.9139 H   0  0  0  0  0  0  0  0  0  0  0  0
   -4.5075   13.2883   -6.4808 H   0  0  0  0  0  0  0  0  0  0  0  0
   -2.6693    9.7502   -8.0493 H   0  0  0  0  0  0  0  0  0  0  0  0
   -4.8943    8.7808   -8.4911 H   0  0  0  0  0  0  0  0  0  0  0  0
   -2.0995   14.2088   -7.1903 H   0  0  0  0  0  0  0  0  0  0  0  0
   -2.1650   13.5904   -5.5051 H   0  0  0  0  0  0  0  0  0  0  0  0
   -0.6685   10.5471   -7.5584 H   0  0  0  0  0  0  0  0  0  0  0  0
    1.4941   14.2779   -6.0748 H   0  0  0  0  0  0  0  0  0  0  0  0
    0.2544   15.4366   -6.6639 H   0  0  0  0  0  0  0  0  0  0  0  0
    0.1879   14.8324   -4.9736 H   0  0  0  0  0  0  0  0  0  0  0  0
   -3.5215   15.3697  -12.5204 H   0  0  0  0  0  0  0  0  0  0  0  0
   -1.7095   12.9870  -11.5263 H   0  0  0  0  0  0  0  0  0  0  0  0
   -1.1463   14.4168  -12.4564 H   0  0  0  0  0  0  0  0  0  0  0  0
   -2.0084   15.9854  -10.5669 H   0  0  0  0  0  0  0  0  0  0  0  0
   -2.5716   14.5556   -9.6369 H   0  0  0  0  0  0  0  0  0  0  0  0
  1  2  1  0  0  0  0
  1  4  2  0  0  0  0
  1 12  1  0  0  0  0
  2  6  1  0  0  0  0
  3  4  1  0  0  0  0
  3  5  2  0  0  0  0
  5  6  1  0  0  0  0
  5  9  1  0  0  0  0
  6  7  2  0  0  0  0
  7  8  1  0  0  0  0
  7 10  1  0  0  0  0
  8  9  2  0  0  0  0
 10 14  2  0  0  0  0
 11 12  2  0  0  0  0
 11 26  1  0  0  0  0
 12 13  1  0  0  0  0
 14 15  1  0  0  0  0
 14 19  1  0  0  0  0
 15 16  2  0  0  0  0
 16 17  1  0  0  0  0
 17 18  1  0  0  0  0
 17 20  2  0  0  0  0
 18 19  2  0  0  0  0
 20 21  1  0  0  0  0
 20 24  1  0  0  0  0
 21 22  1  0  0  0  0
 22 23  1  0  0  0  0
 22 25  1  0  0  0  0
 23 24  2  0  0  0  0
 26 27  1  0  0  0  0
 26 28  1  0  0  0  0
 27 28  1  0  0  0  0
  2 29  1  0  0  0  0
  2 30  1  0  0  0  0
  3 31  1  0  0  0  0
  4 32  1  0  0  0  0
 10 33  1  0  0  0  0
 13 34  1  0  0  0  0
 15 35  1  0  0  0  0
 16 36  1  0  0  0  0
 18 37  1  0  0  0  0
 19 38  1  0  0  0  0
 21 39  1  0  0  0  0
 21 40  1  0  0  0  0
 24 41  1  0  0  0  0
 25 42  1  0  0  0  0
 25 43  1  0  0  0  0
 25 44  1  0  0  0  0
 26 45  1  0  0  0  0
 27 46  1  0  0  0  0
 27 47  1  0  0  0  0
 28 48  1  0  0  0  0
 28 49  1  0  0  0  0
M  END
> <Name>
33

> <IC50[uM]>
0.008

$$$$
33
  -OEChem-05192314333D
 Structure written by MMmdl.
 49 53  0     1  0  0  0  0  0999 V2000
   -6.3918   12.3765  -12.0158 C   0  0  3  0  0  0  0  0  0  0  0  0
   -6.5335   11.8201  -10.7317 C   0  0  0  0  0  0  0  0  0  0  0  0
   -7.7273   10.5795  -13.0319 C   0  0  0  0  0  0  0  0  0  0  0  0
   -7.0082   11.7773  -13.1176 C   0  0  0  0  0  0  0  0  0  0  0  0
   -7.8294   10.0116  -11.7546 C   0  0  0  0  0  0  0  0  0  0  0  0
   -7.2533   10.6299  -10.5984 C   0  0  0  0  0  0  0  0  0  0  0  0
   -7.6133    9.7501   -9.5115 C   0  0  0  0  0  0  0  0  0  0  0  0
   -8.2802    8.7340   -9.9853 N   0  0  0  0  0  0  0  0  0  0  0  0
   -8.4149    8.8602  -11.2994 N   0  0  0  0  0  0  0  0  0  0  0  0
   -7.3368    9.8898   -8.0240 C   0  0  0  0  0  0  0  0  0  0  0  0
   -4.3580   13.5891  -11.5451 N   0  0  0  0  0  0  0  0  0  0  0  0
   -5.5327   13.6029  -12.2131 C   0  0  0  0  0  0  0  0  0  0  0  0
   -5.8791   14.5089  -12.9726 O   0  0  0  0  0  0  0  0  0  0  0  0
   -5.9622   10.4818   -7.7351 C   0  0  0  0  0  0  0  0  0  0  0  0
   -5.8525   11.7570   -7.1642 C   0  0  0  0  0  0  0  0  0  0  0  0
   -4.5920   12.3049   -6.9193 C   0  0  0  0  0  0  0  0  0  0  0  0
   -3.4386   11.5825   -7.2408 C   0  0  0  0  0  0  0  0  0  0  0  0
   -3.5579   10.3128   -7.8038 C   0  0  0  0  0  0  0  0  0  0  0  0
   -4.8126    9.7642   -8.0521 C   0  0  0  0  0  0  0  0  0  0  0  0
   -2.0919   12.1643   -6.9829 C   0  0  0  0  0  0  0  0  0  0  0  0
   -1.7362   13.4287   -6.5051 C   0  0  0  0  0  0  0  0  0  0  0  0
   -0.4017   13.4552   -6.4435 N   0  0  0  0  0  0  0  0  0  0  0  0
    0.1850   12.3496   -6.8156 N   0  0  0  0  0  0  0  0  0  0  0  0
   -0.8078   11.5460   -7.1722 C   0  0  0  0  0  0  0  0  0  0  0  0
    0.4351   14.5688   -6.0125 C   0  0  0  0  0  0  0  0  0  0  0  0
   -3.3172   14.5865  -11.7755 C   0  0  0  0  0  0  0  0  0  0  0  0
   -1.8924   14.0513  -11.7355 C   0  0  0  0  0  0  0  0  0  0  0  0
   -2.3932   14.9579  -10.6450 C   0  0  0  0  0  0  0  0  0  0  0  0
   -7.2761   13.0097  -11.8512 H   0  0  0  0  0  0  0  0  0  0  0  0
   -6.0964   12.3014   -9.8693 H   0  0  0  0  0  0  0  0  0  0  0  0
   -8.1772   10.1197  -13.8994 H   0  0  0  0  0  0  0  0  0  0  0  0
   -6.9259   12.2608  -14.0798 H   0  0  0  0  0  0  0  0  0  0  0  0
   -8.0380    9.6010   -7.2550 H   0  0  0  0  0  0  0  0  0  0  0  0
   -4.1960   12.8702  -10.8691 H   0  0  0  0  0  0  0  0  0  0  0  0
   -6.7424   12.3154   -6.9139 H   0  0  0  0  0  0  0  0  0  0  0  0
   -4.5075   13.2883   -6.4808 H   0  0  0  0  0  0  0  0  0  0  0  0
   -3.4391   12.0287   -8.2463 H   0  0  0  0  0  0  0  0  0  0  0  0
   -2.6693    9.7502   -8.0493 H   0  0  0  0  0  0  0  0  0  0  0  0
   -4.8943    8.7808   -8.4911 H   0  0  0  0  0  0  0  0  0  0  0  0
   -2.4097   14.2294   -6.2375 H   0  0  0  0  0  0  0  0  0  0  0  0
   -0.6685   10.5471   -7.5584 H   0  0  0  0  0  0  0  0  0  0  0  0
    1.4941   14.2779   -6.0748 H   0  0  0  0  0  0  0  0  0  0  0  0
    0.2544   15.4366   -6.6639 H   0  0  0  0  0  0  0  0  0  0  0  0
    0.1879   14.8324   -4.9736 H   0  0  0  0  0  0  0  0  0  0  0  0
   -3.5215   15.3697  -12.5204 H   0  0  0  0  0  0  0  0  0  0  0  0
   -1.7095   12.9870  -11.5263 H   0  0  0  0  0  0  0  0  0  0  0  0
   -1.1463   14.4168  -12.4564 H   0  0  0  0  0  0  0  0  0  0  0  0
   -2.0084   15.9854  -10.5669 H   0  0  0  0  0  0  0  0  0  0  0  0
   -2.5716   14.5556   -9.6369 H   0  0  0  0  0  0  0  0  0  0  0  0
  1  2  1  0  0  0  0
  1  4  1  0  0  0  0
  1 12  1  0  0  0  0
  2  6  2  0  0  0  0
  3  4  2  0  0  0  0
  3  5  1  0  0  0  0
  5  6  1  0  0  0  0
  5  9  2  0  0  0  0
  6  7  1  0  0  0  0
  7  8  2  0  0  0  0
  7 10  1  0  0  0  0
  8  9  1  0  0  0  0
 10 14  2  0  0  0  0
 11 12  1  0  0  0  0
 11 26  1  0  0  0  0
 12 13  2  0  0  0  0
 14 15  1  0  0  0  0
 14 19  1  0  0  0  0
 15 16  2  0  0  0  0
 16 17  1  0  0  0  0
 17 18  1  0  0  0  0
 17 20  1  0  0  0  0
 18 19  2  0  0  0  0
 20 21  2  0  0  0  0
 20 24  1  0  0  0  0
 21 22  1  0  0  0  0
 22 23  1  0  0  0  0
 22 25  1  0  0  0  0
 23 24  2  0  0  0  0
 26 27  1  0  0  0  0
 26 28  1  0  0  0  0
 27 28  1  0  0  0  0
  1 29  1  0  0  0  0
  2 30  1  0  0  0  0
  3 31  1  0  0  0  0
  4 32  1  0  0  0  0
 10 33  1  0  0  0  0
 11 34  1  0  0  0  0
 15 35  1  0  0  0  0
 16 36  1  0  0  0  0
 17 37  1  0  0  0  0
 18 38  1  0  0  0  0
 19 39  1  0  0  0  0
 21 40  1  0  0  0  0
 24 41  1  0  0  0  0
 25 42  1  0  0  0  0
 25 43  1  0  0  0  0
 25 44  1  0  0  0  0
 26 45  1  0  0  0  0
 27 46  1  0  0  0  0
 27 47  1  0  0  0  0
 28 48  1  0  0  0  0
 28 49  1  0  0  0  0
M  END
> <Name>
33

> <IC50[uM]>
0.008

$$$$
33
  -OEChem-05192314333D
 Structure written by MMmdl.
 49 53  0     1  0  0  0  0  0999 V2000
   -6.3918   12.3765  -12.0158 C   0  0  0  0  0  0  0  0  0  0  0  0
   -6.5335   11.8201  -10.7317 C   0  0  0  0  0  0  0  0  0  0  0  0
   -7.7273   10.5795  -13.0319 C   0  0  0  0  0  0  0  0  0  0  0  0
   -7.0082   11.7773  -13.1176 C   0  0  0  0  0  0  0  0  0  0  0  0
   -7.8294   10.0116  -11.7546 C   0  0  0  0  0  0  0  0  0  0  0  0
   -7.2533   10.6299  -10.5984 C   0  0  3  0  0  0  0  0  0  0  0  0
   -7.6133    9.7501   -9.5115 C   0  0  0  0  0  0  0  0  0  0  0  0
   -8.2802    8.7340   -9.9853 N   0  0  0  0  0  0  0  0  0  0  0  0
   -8.4149    8.8602  -11.2994 N   0  0  0  0  0  0  0  0  0  0  0  0
   -7.3368    9.8898   -8.0240 C   0  0  0  0  0  0  0  0  0  0  0  0
   -4.3580   13.5891  -11.5451 N   0  0  0  0  0  0  0  0  0  0  0  0
   -5.5327   13.6029  -12.2131 C   0  0  0  0  0  0  0  0  0  0  0  0
   -5.8791   14.5089  -12.9726 O   0  0  0  0  0  0  0  0  0  0  0  0
   -5.9622   10.4818   -7.7351 C   0  0  0  0  0  0  0  0  0  0  0  0
   -5.8525   11.7570   -7.1642 C   0  0  0  0  0  0  0  0  0  0  0  0
   -4.5920   12.3049   -6.9193 C   0  0  0  0  0  0  0  0  0  0  0  0
   -3.4386   11.5825   -7.2408 C   0  0  0  0  0  0  0  0  0  0  0  0
   -3.5579   10.3128   -7.8038 C   0  0  0  0  0  0  0  0  0  0  0  0
   -4.8126    9.7642   -8.0521 C   0  0  0  0  0  0  0  0  0  0  0  0
   -2.0919   12.1643   -6.9829 C   0  0  0  0  0  0  0  0  0  0  0  0
   -1.7362   13.4287   -6.5051 C   0  0  0  0  0  0  0  0  0  0  0  0
   -0.4017   13.4552   -6.4435 N   0  0  0  0  0  0  0  0  0  0  0  0
    0.1850   12.3496   -6.8156 N   0  0  0  0  0  0  0  0  0  0  0  0
   -0.8078   11.5460   -7.1722 C   0  0  0  0  0  0  0  0  0  0  0  0
    0.4351   14.5688   -6.0125 C   0  0  0  0  0  0  0  0  0  0  0  0
   -3.3172   14.5865  -11.7755 C   0  0  0  0  0  0  0  0  0  0  0  0
   -1.8924   14.0513  -11.7355 C   0  0  0  0  0  0  0  0  0  0  0  0
   -2.3932   14.9579  -10.6450 C   0  0  0  0  0  0  0  0  0  0  0  0
   -6.0964   12.3014   -9.8693 H   0  0  0  0  0  0  0  0  0  0  0  0
   -8.1772   10.1197  -13.8994 H   0  0  0  0  0  0  0  0  0  0  0  0
   -6.9259   12.2608  -14.0798 H   0  0  0  0  0  0  0  0  0  0  0  0
   -8.1783   11.2044  -10.4423 H   0  0  0  0  0  0  0  0  0  0  0  0
   -8.0380    9.6010   -7.2550 H   0  0  0  0  0  0  0  0  0  0  0  0
   -4.1960   12.8702  -10.8691 H   0  0  0  0  0  0  0  0  0  0  0  0
   -6.7424   12.3154   -6.9139 H   0  0  0  0  0  0  0  0  0  0  0  0
   -4.5075   13.2883   -6.4808 H   0  0  0  0  0  0  0  0  0  0  0  0
   -3.4391   12.0287   -8.2463 H   0  0  0  0  0  0  0  0  0  0  0  0
   -2.6693    9.7502   -8.0493 H   0  0  0  0  0  0  0  0  0  0  0  0
   -4.8943    8.7808   -8.4911 H   0  0  0  0  0  0  0  0  0  0  0  0
   -2.4097   14.2294   -6.2375 H   0  0  0  0  0  0  0  0  0  0  0  0
   -0.6685   10.5471   -7.5584 H   0  0  0  0  0  0  0  0  0  0  0  0
    1.4941   14.2779   -6.0748 H   0  0  0  0  0  0  0  0  0  0  0  0
    0.2544   15.4366   -6.6639 H   0  0  0  0  0  0  0  0  0  0  0  0
    0.1879   14.8324   -4.9736 H   0  0  0  0  0  0  0  0  0  0  0  0
   -3.5215   15.3697  -12.5204 H   0  0  0  0  0  0  0  0  0  0  0  0
   -1.7095   12.9870  -11.5263 H   0  0  0  0  0  0  0  0  0  0  0  0
   -1.1463   14.4168  -12.4564 H   0  0  0  0  0  0  0  0  0  0  0  0
   -2.0084   15.9854  -10.5669 H   0  0  0  0  0  0  0  0  0  0  0  0
   -2.5716   14.5556   -9.6369 H   0  0  0  0  0  0  0  0  0  0  0  0
  1  2  2  0  0  0  0
  1  4  1  0  0  0  0
  1 12  1  0  0  0  0
  2  6  1  0  0  0  0
  3  4  2  0  0  0  0
  3  5  1  0  0  0  0
  5  6  1  0  0  0  0
  5  9  2  0  0  0  0
  6  7  1  0  0  0  0
  7  8  2  0  0  0  0
  7 10  1  0  0  0  0
  8  9  1  0  0  0  0
 10 14  2  0  0  0  0
 11 12  1  0  0  0  0
 11 26  1  0  0  0  0
 12 13  2  0  0  0  0
 14 15  1  0  0  0  0
 14 19  1  0  0  0  0
 15 16  2  0  0  0  0
 16 17  1  0  0  0  0
 17 18  1  0  0  0  0
 17 20  1  0  0  0  0
 18 19  2  0  0  0  0
 20 21  2  0  0  0  0
 20 24  1  0  0  0  0
 21 22  1  0  0  0  0
 22 23  1  0  0  0  0
 22 25  1  0  0  0  0
 23 24  2  0  0  0  0
 26 27  1  0  0  0  0
 26 28  1  0  0  0  0
 27 28  1  0  0  0  0
  2 29  1  0  0  0  0
  3 30  1  0  0  0  0
  4 31  1  0  0  0  0
  6 32  1  0  0  0  0
 10 33  1  0  0  0  0
 11 34  1  0  0  0  0
 15 35  1  0  0  0  0
 16 36  1  0  0  0  0
 17 37  1  0  0  0  0
 18 38  1  0  0  0  0
 19 39  1  0  0  0  0
 21 40  1  0  0  0  0
 24 41  1  0  0  0  0
 25 42  1  0  0  0  0
 25 43  1  0  0  0  0
 25 44  1  0  0  0  0
 26 45  1  0  0  0  0
 27 46  1  0  0  0  0
 27 47  1  0  0  0  0
 28 48  1  0  0  0  0
 28 49  1  0  0  0  0
M  END
> <Name>
33

> <IC50[uM]>
0.008

$$$$
33
  -OEChem-05192314333D
 Structure written by MMmdl.
 49 53  0     0  0  0  0  0  0999 V2000
   -6.3918   12.3765  -12.0158 C   0  0  0  0  0  0  0  0  0  0  0  0
   -6.5335   11.8201  -10.7317 C   0  0  0  0  0  0  0  0  0  0  0  0
   -7.7273   10.5795  -13.0319 C   0  0  0  0  0  0  0  0  0  0  0  0
   -7.0082   11.7773  -13.1176 C   0  0  0  0  0  0  0  0  0  0  0  0
   -7.8294   10.0116  -11.7546 C   0  0  0  0  0  0  0  0  0  0  0  0
   -7.2533   10.6299  -10.5984 C   0  0  0  0  0  0  0  0  0  0  0  0
   -7.6133    9.7501   -9.5115 C   0  0  0  0  0  0  0  0  0  0  0  0
   -8.2802    8.7340   -9.9853 N   0  0  0  0  0  0  0  0  0  0  0  0
   -8.4149    8.8602  -11.2994 N   0  0  0  0  0  0  0  0  0  0  0  0
   -7.3368    9.8898   -8.0240 C   0  0  0  0  0  0  0  0  0  0  0  0
   -4.3580   13.5891  -11.5451 N   0  0  0  0  0  0  0  0  0  0  0  0
   -5.5327   13.6029  -12.2131 C   0  0  0  0  0  0  0  0  0  0  0  0
   -5.8791   14.5089  -12.9726 O   0  0  0  0  0  0  0  0  0  0  0  0
   -5.9622   10.4818   -7.7351 C   0  0  0  0  0  0  0  0  0  0  0  0
   -5.8525   11.7570   -7.1642 C   0  0  0  0  0  0  0  0  0  0  0  0
   -4.5920   12.3049   -6.9193 C   0  0  0  0  0  0  0  0  0  0  0  0
   -3.4386   11.5825   -7.2408 C   0  0  0  0  0  0  0  0  0  0  0  0
   -3.5579   10.3128   -7.8038 C   0  0  0  0  0  0  0  0  0  0  0  0
   -4.8126    9.7642   -8.0521 C   0  0  0  0  0  0  0  0  0  0  0  0
   -2.0919   12.1643   -6.9829 C   0  0  0  0  0  0  0  0  0  0  0  0
   -1.7362   13.4287   -6.5051 C   0  0  0  0  0  0  0  0  0  0  0  0
   -0.4017   13.4552   -6.4435 N   0  0  0  0  0  0  0  0  0  0  0  0
    0.1850   12.3496   -6.8156 N   0  0  0  0  0  0  0  0  0  0  0  0
   -0.8078   11.5460   -7.1722 C   0  0  0  0  0  0  0  0  0  0  0  0
    0.4351   14.5688   -6.0125 C   0  0  0  0  0  0  0  0  0  0  0  0
   -3.3172   14.5865  -11.7755 C   0  0  0  0  0  0  0  0  0  0  0  0
   -1.8924   14.0513  -11.7355 C   0  0  0  0  0  0  0  0  0  0  0  0
   -2.3932   14.9579  -10.6450 C   0  0  0  0  0  0  0  0  0  0  0  0
   -6.0964   12.3014   -9.8693 H   0  0  0  0  0  0  0  0  0  0  0  0
   -8.7470   10.7729  -13.3962 H   0  0  0  0  0  0  0  0  0  0  0  0
   -7.2367    9.8453  -13.6879 H   0  0  0  0  0  0  0  0  0  0  0  0
   -6.9259   12.2608  -14.0798 H   0  0  0  0  0  0  0  0  0  0  0  0
   -8.0380    9.6010   -7.2550 H   0  0  0  0  0  0  0  0  0  0  0  0
   -4.1960   12.8702  -10.8691 H   0  0  0  0  0  0  0  0  0  0  0  0
   -6.7424   12.3154   -6.9139 H   0  0  0  0  0  0  0  0  0  0  0  0
   -4.5075   13.2883   -6.4808 H   0  0  0  0  0  0  0  0  0  0  0  0
   -3.4391   12.0287   -8.2463 H   0  0  0  0  0  0  0  0  0  0  0  0
   -2.6693    9.7502   -8.0493 H   0  0  0  0  0  0  0  0  0  0  0  0
   -4.8943    8.7808   -8.4911 H   0  0  0  0  0  0  0  0  0  0  0  0
   -2.4097   14.2294   -6.2375 H   0  0  0  0  0  0  0  0  0  0  0  0
   -0.6685   10.5471   -7.5584 H   0  0  0  0  0  0  0  0  0  0  0  0
    1.4941   14.2779   -6.0748 H   0  0  0  0  0  0  0  0  0  0  0  0
    0.2544   15.4366   -6.6639 H   0  0  0  0  0  0  0  0  0  0  0  0
    0.1879   14.8324   -4.9736 H   0  0  0  0  0  0  0  0  0  0  0  0
   -3.5215   15.3697  -12.5204 H   0  0  0  0  0  0  0  0  0  0  0  0
   -1.7095   12.9870  -11.5263 H   0  0  0  0  0  0  0  0  0  0  0  0
   -1.1463   14.4168  -12.4564 H   0  0  0  0  0  0  0  0  0  0  0  0
   -2.0084   15.9854  -10.5669 H   0  0  0  0  0  0  0  0  0  0  0  0
   -2.5716   14.5556   -9.6369 H   0  0  0  0  0  0  0  0  0  0  0  0
  1  2  1  0  0  0  0
  1  4  2  0  0  0  0
  1 12  1  0  0  0  0
  2  6  2  0  0  0  0
  3  4  1  0  0  0  0
  3  5  1  0  0  0  0
  5  6  1  0  0  0  0
  5  9  2  0  0  0  0
  6  7  1  0  0  0  0
  7  8  2  0  0  0  0
  7 10  1  0  0  0  0
  8  9  1  0  0  0  0
 10 14  2  0  0  0  0
 11 12  1  0  0  0  0
 11 26  1  0  0  0  0
 12 13  2  0  0  0  0
 14 15  1  0  0  0  0
 14 19  1  0  0  0  0
 15 16  2  0  0  0  0
 16 17  1  0  0  0  0
 17 18  1  0  0  0  0
 17 20  1  0  0  0  0
 18 19  2  0  0  0  0
 20 21  2  0  0  0  0
 20 24  1  0  0  0  0
 21 22  1  0  0  0  0
 22 23  1  0  0  0  0
 22 25  1  0  0  0  0
 23 24  2  0  0  0  0
 26 27  1  0  0  0  0
 26 28  1  0  0  0  0
 27 28  1  0  0  0  0
  2 29  1  0  0  0  0
  3 30  1  0  0  0  0
  3 31  1  0  0  0  0
  4 32  1  0  0  0  0
 10 33  1  0  0  0  0
 11 34  1  0  0  0  0
 15 35  1  0  0  0  0
 16 36  1  0  0  0  0
 17 37  1  0  0  0  0
 18 38  1  0  0  0  0
 19 39  1  0  0  0  0
 21 40  1  0  0  0  0
 24 41  1  0  0  0  0
 25 42  1  0  0  0  0
 25 43  1  0  0  0  0
 25 44  1  0  0  0  0
 26 45  1  0  0  0  0
 27 46  1  0  0  0  0
 27 47  1  0  0  0  0
 28 48  1  0  0  0  0
 28 49  1  0  0  0  0
M  END
> <Name>
33

> <IC50[uM]>
0.008

$$$$
33
  -OEChem-05192314333D
 Structure written by MMmdl.
 49 53  0     1  0  0  0  0  0999 V2000
   -6.3918   12.3765  -12.0158 C   0  0  3  0  0  0  0  0  0  0  0  0
   -6.5335   11.8201  -10.7317 C   0  0  0  0  0  0  0  0  0  0  0  0
   -7.7273   10.5795  -13.0319 C   0  0  0  0  0  0  0  0  0  0  0  0
   -7.0082   11.7773  -13.1176 C   0  0  0  0  0  0  0  0  0  0  0  0
   -7.8294   10.0116  -11.7546 C   0  0  0  0  0  0  0  0  0  0  0  0
   -7.2533   10.6299  -10.5984 C   0  0  0  0  0  0  0  0  0  0  0  0
   -7.6133    9.7501   -9.5115 C   0  0  0  0  0  0  0  0  0  0  0  0
   -8.2802    8.7340   -9.9853 N   0  0  0  0  0  0  0  0  0  0  0  0
   -8.4149    8.8602  -11.2994 N   0  0  0  0  0  0  0  0  0  0  0  0
   -7.3368    9.8898   -8.0240 C   0  0  0  0  0  0  0  0  0  0  0  0
   -4.3580   13.5891  -11.5451 N   0  0  0  0  0  0  0  0  0  0  0  0
   -5.5327   13.6029  -12.2131 C   0  0  0  0  0  0  0  0  0  0  0  0
   -5.8791   14.5089  -12.9726 O   0  0  0  0  0  0  0  0  0  0  0  0
   -5.9622   10.4818   -7.7351 C   0  0  0  0  0  0  0  0  0  0  0  0
   -5.8525   11.7570   -7.1642 C   0  0  0  0  0  0  0  0  0  0  0  0
   -4.5920   12.3049   -6.9193 C   0  0  0  0  0  0  0  0  0  0  0  0
   -3.4386   11.5825   -7.2408 C   0  0  0  0  0  0  0  0  0  0  0  0
   -3.5579   10.3128   -7.8038 C   0  0  0  0  0  0  0  0  0  0  0  0
   -4.8126    9.7642   -8.0521 C   0  0  0  0  0  0  0  0  0  0  0  0
   -2.0919   12.1643   -6.9829 C   0  0  0  0  0  0  0  0  0  0  0  0
   -1.7362   13.4287   -6.5051 C   0  0  0  0  0  0  0  0  0  0  0  0
   -0.4017   13.4552   -6.4435 N   0  0  0  0  0  0  0  0  0  0  0  0
    0.1850   12.3496   -6.8156 N   0  0  0  0  0  0  0  0  0  0  0  0
   -0.8078   11.5460   -7.1722 C   0  0  0  0  0  0  0  0  0  0  0  0
    0.4351   14.5688   -6.0125 C   0  0  0  0  0  0  0  0  0  0  0  0
   -3.3172   14.5865  -11.7755 C   0  0  0  0  0  0  0  0  0  0  0  0
   -1.8924   14.0513  -11.7355 C   0  0  0  0  0  0  0  0  0  0  0  0
   -2.3932   14.9579  -10.6450 C   0  0  0  0  0  0  0  0  0  0  0  0
   -7.2761   13.0097  -11.8512 H   0  0  0  0  0  0  0  0  0  0  0  0
   -6.0964   12.3014   -9.8693 H   0  0  0  0  0  0  0  0  0  0  0  0
   -8.1772   10.1197  -13.8994 H   0  0  0  0  0  0  0  0  0  0  0  0
   -6.9259   12.2608  -14.0798 H   0  0  0  0  0  0  0  0  0  0  0  0
   -8.0380    9.6010   -7.2550 H   0  0  0  0  0  0  0  0  0  0  0  0
   -4.1960   12.8702  -10.8691 H   0  0  0  0  0  0  0  0  0  0  0  0
   -6.7424   12.3154   -6.9139 H   0  0  0  0  0  0  0  0  0  0  0  0
   -4.5075   13.2883   -6.4808 H   0  0  0  0  0  0  0  0  0  0  0  0
   -2.6693    9.7502   -8.0493 H   0  0  0  0  0  0  0  0  0  0  0  0
   -4.8629    8.8200   -7.4901 H   0  0  0  0  0  0  0  0  0  0  0  0
   -4.8583    9.5519   -9.1305 H   0  0  0  0  0  0  0  0  0  0  0  0
   -2.4097   14.2294   -6.2375 H   0  0  0  0  0  0  0  0  0  0  0  0
   -0.6685   10.5471   -7.5584 H   0  0  0  0  0  0  0  0  0  0  0  0
    1.4941   14.2779   -6.0748 H   0  0  0  0  0  0  0  0  0  0  0  0
    0.2544   15.4366   -6.6639 H   0  0  0  0  0  0  0  0  0  0  0  0
    0.1879   14.8324   -4.9736 H   0  0  0  0  0  0  0  0  0  0  0  0
   -3.5215   15.3697  -12.5204 H   0  0  0  0  0  0  0  0  0  0  0  0
   -1.7095   12.9870  -11.5263 H   0  0  0  0  0  0  0  0  0  0  0  0
   -1.1463   14.4168  -12.4564 H   0  0  0  0  0  0  0  0  0  0  0  0
   -2.0084   15.9854  -10.5669 H   0  0  0  0  0  0  0  0  0  0  0  0
   -2.5716   14.5556   -9.6369 H   0  0  0  0  0  0  0  0  0  0  0  0
  1  2  1  0  0  0  0
  1  4  1  0  0  0  0
  1 12  1  0  0  0  0
  2  6  2  0  0  0  0
  3  4  2  0  0  0  0
  3  5  1  0  0  0  0
  5  6  1  0  0  0  0
  5  9  2  0  0  0  0
  6  7  1  0  0  0  0
  7  8  2  0  0  0  0
  7 10  1  0  0  0  0
  8  9  1  0  0  0  0
 10 14  2  3  0  0  0
 11 12  1  0  0  0  0
 11 26  1  0  0  0  0
 12 13  2  0  0  0  0
 14 15  1  0  0  0  0
 14 19  1  0  0  0  0
 15 16  2  0  0  0  0
 16 17  1  0  0  0  0
 17 18  2  0  0  0  0
 17 20  1  0  0  0  0
 18 19  1  0  0  0  0
 20 21  2  0  0  0  0
 20 24  1  0  0  0  0
 21 22  1  0  0  0  0
 22 23  1  0  0  0  0
 22 25  1  0  0  0  0
 23 24  2  0  0  0  0
 26 27  1  0  0  0  0
 26 28  1  0  0  0  0
 27 28  1  0  0  0  0
  1 29  1  0  0  0  0
  2 30  1  0  0  0  0
  3 31  1  0  0  0  0
  4 32  1  0  0  0  0
 10 33  1  0  0  0  0
 11 34  1  0  0  0  0
 15 35  1  0  0  0  0
 16 36  1  0  0  0  0
 18 37  1  0  0  0  0
 19 38  1  0  0  0  0
 19 39  1  0  0  0  0
 21 40  1  0  0  0  0
 24 41  1  0  0  0  0
 25 42  1  0  0  0  0
 25 43  1  0  0  0  0
 25 44  1  0  0  0  0
 26 45  1  0  0  0  0
 27 46  1  0  0  0  0
 27 47  1  0  0  0  0
 28 48  1  0  0  0  0
 28 49  1  0  0  0  0
M  END
> <Name>
33

> <IC50[uM]>
0.008

$$$$
33
  -OEChem-05192314333D
 Structure written by MMmdl.
 49 53  0     1  0  0  0  0  0999 V2000
   -6.3918   12.3765  -12.0158 C   0  0  0  0  0  0  0  0  0  0  0  0
   -6.5335   11.8201  -10.7317 C   0  0  0  0  0  0  0  0  0  0  0  0
   -7.7273   10.5795  -13.0319 C   0  0  0  0  0  0  0  0  0  0  0  0
   -7.0082   11.7773  -13.1176 C   0  0  0  0  0  0  0  0  0  0  0  0
   -7.8294   10.0116  -11.7546 C   0  0  0  0  0  0  0  0  0  0  0  0
   -7.2533   10.6299  -10.5984 C   0  0  3  0  0  0  0  0  0  0  0  0
   -7.6133    9.7501   -9.5115 C   0  0  0  0  0  0  0  0  0  0  0  0
   -8.2802    8.7340   -9.9853 N   0  0  0  0  0  0  0  0  0  0  0  0
   -8.4149    8.8602  -11.2994 N   0  0  0  0  0  0  0  0  0  0  0  0
   -7.3368    9.8898   -8.0240 C   0  0  0  0  0  0  0  0  0  0  0  0
   -4.3580   13.5891  -11.5451 N   0  0  0  0  0  0  0  0  0  0  0  0
   -5.5327   13.6029  -12.2131 C   0  0  0  0  0  0  0  0  0  0  0  0
   -5.8791   14.5089  -12.9726 O   0  0  0  0  0  0  0  0  0  0  0  0
   -5.9622   10.4818   -7.7351 C   0  0  0  0  0  0  0  0  0  0  0  0
   -5.8525   11.7570   -7.1642 C   0  0  0  0  0  0  0  0  0  0  0  0
   -4.5920   12.3049   -6.9193 C   0  0  0  0  0  0  0  0  0  0  0  0
   -3.4386   11.5825   -7.2408 C   0  0  0  0  0  0  0  0  0  0  0  0
   -3.5579   10.3128   -7.8038 C   0  0  0  0  0  0  0  0  0  0  0  0
   -4.8126    9.7642   -8.0521 C   0  0  0  0  0  0  0  0  0  0  0  0
   -2.0919   12.1643   -6.9829 C   0  0  0  0  0  0  0  0  0  0  0  0
   -1.7362   13.4287   -6.5051 C   0  0  0  0  0  0  0  0  0  0  0  0
   -0.4017   13.4552   -6.4435 N   0  0  0  0  0  0  0  0  0  0  0  0
    0.1850   12.3496   -6.8156 N   0  0  0  0  0  0  0  0  0  0  0  0
   -0.8078   11.5460   -7.1722 C   0  0  0  0  0  0  0  0  0  0  0  0
    0.4351   14.5688   -6.0125 C   0  0  0  0  0  0  0  0  0  0  0  0
   -3.3172   14.5865  -11.7755 C   0  0  0  0  0  0  0  0  0  0  0  0
   -1.8924   14.0513  -11.7355 C   0  0  0  0  0  0  0  0  0  0  0  0
   -2.3932   14.9579  -10.6450 C   0  0  0  0  0  0  0  0  0  0  0  0
   -6.0964   12.3014   -9.8693 H   0  0  0  0  0  0  0  0  0  0  0  0
   -8.1772   10.1197  -13.8994 H   0  0  0  0  0  0  0  0  0  0  0  0
   -6.9259   12.2608  -14.0798 H   0  0  0  0  0  0  0  0  0  0  0  0
   -8.1783   11.2044  -10.4423 H   0  0  0  0  0  0  0  0  0  0  0  0
   -8.0380    9.6010   -7.2550 H   0  0  0  0  0  0  0  0  0  0  0  0
   -4.1960   12.8702  -10.8691 H   0  0  0  0  0  0  0  0  0  0  0  0
   -6.7424   12.3154   -6.9139 H   0  0  0  0  0  0  0  0  0  0  0  0
   -4.5075   13.2883   -6.4808 H   0  0  0  0  0  0  0  0  0  0  0  0
   -2.6693    9.7502   -8.0493 H   0  0  0  0  0  0  0  0  0  0  0  0
   -4.8629    8.8200   -7.4901 H   0  0  0  0  0  0  0  0  0  0  0  0
   -4.8583    9.5519   -9.1305 H   0  0  0  0  0  0  0  0  0  0  0  0
   -2.4097   14.2294   -6.2375 H   0  0  0  0  0  0  0  0  0  0  0  0
   -0.6685   10.5471   -7.5584 H   0  0  0  0  0  0  0  0  0  0  0  0
    1.4941   14.2779   -6.0748 H   0  0  0  0  0  0  0  0  0  0  0  0
    0.2544   15.4366   -6.6639 H   0  0  0  0  0  0  0  0  0  0  0  0
    0.1879   14.8324   -4.9736 H   0  0  0  0  0  0  0  0  0  0  0  0
   -3.5215   15.3697  -12.5204 H   0  0  0  0  0  0  0  0  0  0  0  0
   -1.7095   12.9870  -11.5263 H   0  0  0  0  0  0  0  0  0  0  0  0
   -1.1463   14.4168  -12.4564 H   0  0  0  0  0  0  0  0  0  0  0  0
   -2.0084   15.9854  -10.5669 H   0  0  0  0  0  0  0  0  0  0  0  0
   -2.5716   14.5556   -9.6369 H   0  0  0  0  0  0  0  0  0  0  0  0
  1  2  2  0  0  0  0
  1  4  1  0  0  0  0
  1 12  1  0  0  0  0
  2  6  1  0  0  0  0
  3  4  2  0  0  0  0
  3  5  1  0  0  0  0
  5  6  1  0  0  0  0
  5  9  2  0  0  0  0
  6  7  1  0  0  0  0
  7  8  2  0  0  0  0
  7 10  1  0  0  0  0
  8  9  1  0  0  0  0
 10 14  2  3  0  0  0
 11 12  1  0  0  0  0
 11 26  1  0  0  0  0
 12 13  2  0  0  0  0
 14 15  1  0  0  0  0
 14 19  1  0  0  0  0
 15 16  2  0  0  0  0
 16 17  1  0  0  0  0
 17 18  2  0  0  0  0
 17 20  1  0  0  0  0
 18 19  1  0  0  0  0
 20 21  2  0  0  0  0
 20 24  1  0  0  0  0
 21 22  1  0  0  0  0
 22 23  1  0  0  0  0
 22 25  1  0  0  0  0
 23 24  2  0  0  0  0
 26 27  1  0  0  0  0
 26 28  1  0  0  0  0
 27 28  1  0  0  0  0
  2 29  1  0  0  0  0
  3 30  1  0  0  0  0
  4 31  1  0  0  0  0
  6 32  1  0  0  0  0
 10 33  1  0  0  0  0
 11 34  1  0  0  0  0
 15 35  1  0  0  0  0
 16 36  1  0  0  0  0
 18 37  1  0  0  0  0
 19 38  1  0  0  0  0
 19 39  1  0  0  0  0
 21 40  1  0  0  0  0
 24 41  1  0  0  0  0
 25 42  1  0  0  0  0
 25 43  1  0  0  0  0
 25 44  1  0  0  0  0
 26 45  1  0  0  0  0
 27 46  1  0  0  0  0
 27 47  1  0  0  0  0
 28 48  1  0  0  0  0
 28 49  1  0  0  0  0
M  END
> <Name>
33

> <IC50[uM]>
0.008

$$$$
33
  -OEChem-05192314333D
 Structure written by MMmdl.
 49 53  0     0  0  0  0  0  0999 V2000
   -6.3918   12.3765  -12.0158 C   0  0  0  0  0  0  0  0  0  0  0  0
   -6.5335   11.8201  -10.7317 C   0  0  0  0  0  0  0  0  0  0  0  0
   -7.7273   10.5795  -13.0319 C   0  0  0  0  0  0  0  0  0  0  0  0
   -7.0082   11.7773  -13.1176 C   0  0  0  0  0  0  0  0  0  0  0  0
   -7.8294   10.0116  -11.7546 C   0  0  0  0  0  0  0  0  0  0  0  0
   -7.2533   10.6299  -10.5984 C   0  0  0  0  0  0  0  0  0  0  0  0
   -7.6133    9.7501   -9.5115 C   0  0  0  0  0  0  0  0  0  0  0  0
   -8.2802    8.7340   -9.9853 N   0  0  0  0  0  0  0  0  0  0  0  0
   -8.4149    8.8602  -11.2994 N   0  0  0  0  0  0  0  0  0  0  0  0
   -7.3368    9.8898   -8.0240 C   0  0  0  0  0  0  0  0  0  0  0  0
   -4.3580   13.5891  -11.5451 N   0  0  0  0  0  0  0  0  0  0  0  0
   -5.5327   13.6029  -12.2131 C   0  0  0  0  0  0  0  0  0  0  0  0
   -5.8791   14.5089  -12.9726 O   0  0  0  0  0  0  0  0  0  0  0  0
   -5.9622   10.4818   -7.7351 C   0  0  0  0  0  0  0  0  0  0  0  0
   -5.8525   11.7570   -7.1642 C   0  0  0  0  0  0  0  0  0  0  0  0
   -4.5920   12.3049   -6.9193 C   0  0  0  0  0  0  0  0  0  0  0  0
   -3.4386   11.5825   -7.2408 C   0  0  0  0  0  0  0  0  0  0  0  0
   -3.5579   10.3128   -7.8038 C   0  0  0  0  0  0  0  0  0  0  0  0
   -4.8126    9.7642   -8.0521 C   0  0  0  0  0  0  0  0  0  0  0  0
   -2.0919   12.1643   -6.9829 C   0  0  0  0  0  0  0  0  0  0  0  0
   -1.7362   13.4287   -6.5051 C   0  0  0  0  0  0  0  0  0  0  0  0
   -0.4017   13.4552   -6.4435 N   0  0  0  0  0  0  0  0  0  0  0  0
    0.1850   12.3496   -6.8156 N   0  0  0  0  0  0  0  0  0  0  0  0
   -0.8078   11.5460   -7.1722 C   0  0  0  0  0  0  0  0  0  0  0  0
    0.4351   14.5688   -6.0125 C   0  0  0  0  0  0  0  0  0  0  0  0
   -3.3172   14.5865  -11.7755 C   0  0  0  0  0  0  0  0  0  0  0  0
   -1.8924   14.0513  -11.7355 C   0  0  0  0  0  0  0  0  0  0  0  0
   -2.3932   14.9579  -10.6450 C   0  0  0  0  0  0  0  0  0  0  0  0
   -6.0964   12.3014   -9.8693 H   0  0  0  0  0  0  0  0  0  0  0  0
   -8.7470   10.7729  -13.3962 H   0  0  0  0  0  0  0  0  0  0  0  0
   -7.2367    9.8453  -13.6879 H   0  0  0  0  0  0  0  0  0  0  0  0
   -6.9259   12.2608  -14.0798 H   0  0  0  0  0  0  0  0  0  0  0  0
   -8.0380    9.6010   -7.2550 H   0  0  0  0  0  0  0  0  0  0  0  0
   -4.1960   12.8702  -10.8691 H   0  0  0  0  0  0  0  0  0  0  0  0
   -6.7424   12.3154   -6.9139 H   0  0  0  0  0  0  0  0  0  0  0  0
   -4.5075   13.2883   -6.4808 H   0  0  0  0  0  0  0  0  0  0  0  0
   -2.6693    9.7502   -8.0493 H   0  0  0  0  0  0  0  0  0  0  0  0
   -4.8629    8.8200   -7.4901 H   0  0  0  0  0  0  0  0  0  0  0  0
   -4.8583    9.5519   -9.1305 H   0  0  0  0  0  0  0  0  0  0  0  0
   -2.4097   14.2294   -6.2375 H   0  0  0  0  0  0  0  0  0  0  0  0
   -0.6685   10.5471   -7.5584 H   0  0  0  0  0  0  0  0  0  0  0  0
    1.4941   14.2779   -6.0748 H   0  0  0  0  0  0  0  0  0  0  0  0
    0.2544   15.4366   -6.6639 H   0  0  0  0  0  0  0  0  0  0  0  0
    0.1879   14.8324   -4.9736 H   0  0  0  0  0  0  0  0  0  0  0  0
   -3.5215   15.3697  -12.5204 H   0  0  0  0  0  0  0  0  0  0  0  0
   -1.7095   12.9870  -11.5263 H   0  0  0  0  0  0  0  0  0  0  0  0
   -1.1463   14.4168  -12.4564 H   0  0  0  0  0  0  0  0  0  0  0  0
   -2.0084   15.9854  -10.5669 H   0  0  0  0  0  0  0  0  0  0  0  0
   -2.5716   14.5556   -9.6369 H   0  0  0  0  0  0  0  0  0  0  0  0
  1  2  1  0  0  0  0
  1  4  2  0  0  0  0
  1 12  1  0  0  0  0
  2  6  2  0  0  0  0
  3  4  1  0  0  0  0
  3  5  1  0  0  0  0
  5  6  1  0  0  0  0
  5  9  2  0  0  0  0
  6  7  1  0  0  0  0
  7  8  2  0  0  0  0
  7 10  1  0  0  0  0
  8  9  1  0  0  0  0
 10 14  2  3  0  0  0
 11 12  1  0  0  0  0
 11 26  1  0  0  0  0
 12 13  2  0  0  0  0
 14 15  1  0  0  0  0
 14 19  1  0  0  0  0
 15 16  2  0  0  0  0
 16 17  1  0  0  0  0
 17 18  2  0  0  0  0
 17 20  1  0  0  0  0
 18 19  1  0  0  0  0
 20 21  2  0  0  0  0
 20 24  1  0  0  0  0
 21 22  1  0  0  0  0
 22 23  1  0  0  0  0
 22 25  1  0  0  0  0
 23 24  2  0  0  0  0
 26 27  1  0  0  0  0
 26 28  1  0  0  0  0
 27 28  1  0  0  0  0
  2 29  1  0  0  0  0
  3 30  1  0  0  0  0
  3 31  1  0  0  0  0
  4 32  1  0  0  0  0
 10 33  1  0  0  0  0
 11 34  1  0  0  0  0
 15 35  1  0  0  0  0
 16 36  1  0  0  0  0
 18 37  1  0  0  0  0
 19 38  1  0  0  0  0
 19 39  1  0  0  0  0
 21 40  1  0  0  0  0
 24 41  1  0  0  0  0
 25 42  1  0  0  0  0
 25 43  1  0  0  0  0
 25 44  1  0  0  0  0
 26 45  1  0  0  0  0
 27 46  1  0  0  0  0
 27 47  1  0  0  0  0
 28 48  1  0  0  0  0
 28 49  1  0  0  0  0
M  END
> <Name>
33

> <IC50[uM]>
0.008

$$$$
33
  -OEChem-05192314333D
 Structure written by MMmdl.
 49 53  0     1  0  0  0  0  0999 V2000
   -6.3918   12.3765  -12.0158 C   0  0  3  0  0  0  0  0  0  0  0  0
   -6.5335   11.8201  -10.7317 C   0  0  0  0  0  0  0  0  0  0  0  0
   -7.7273   10.5795  -13.0319 C   0  0  0  0  0  0  0  0  0  0  0  0
   -7.0082   11.7773  -13.1176 C   0  0  0  0  0  0  0  0  0  0  0  0
   -7.8294   10.0116  -11.7546 C   0  0  0  0  0  0  0  0  0  0  0  0
   -7.2533   10.6299  -10.5984 C   0  0  0  0  0  0  0  0  0  0  0  0
   -7.6133    9.7501   -9.5115 C   0  0  0  0  0  0  0  0  0  0  0  0
   -8.2802    8.7340   -9.9853 N   0  0  0  0  0  0  0  0  0  0  0  0
   -8.4149    8.8602  -11.2994 N   0  0  0  0  0  0  0  0  0  0  0  0
   -7.3368    9.8898   -8.0240 C   0  0  0  0  0  0  0  0  0  0  0  0
   -4.3580   13.5891  -11.5451 N   0  0  0  0  0  0  0  0  0  0  0  0
   -5.5327   13.6029  -12.2131 C   0  0  0  0  0  0  0  0  0  0  0  0
   -5.8791   14.5089  -12.9726 O   0  0  0  0  0  0  0  0  0  0  0  0
   -5.9622   10.4818   -7.7351 C   0  0  0  0  0  0  0  0  0  0  0  0
   -5.8525   11.7570   -7.1642 C   0  0  0  0  0  0  0  0  0  0  0  0
   -4.5920   12.3049   -6.9193 C   0  0  0  0  0  0  0  0  0  0  0  0
   -3.4386   11.5825   -7.2408 C   0  0  0  0  0  0  0  0  0  0  0  0
   -3.5579   10.3128   -7.8038 C   0  0  0  0  0  0  0  0  0  0  0  0
   -4.8126    9.7642   -8.0521 C   0  0  0  0  0  0  0  0  0  0  0  0
   -2.0919   12.1643   -6.9829 C   0  0  0  0  0  0  0  0  0  0  0  0
   -1.7362   13.4287   -6.5051 C   0  0  0  0  0  0  0  0  0  0  0  0
   -0.4017   13.4552   -6.4435 N   0  0  0  0  0  0  0  0  0  0  0  0
    0.1850   12.3496   -6.8156 N   0  0  0  0  0  0  0  0  0  0  0  0
   -0.8078   11.5460   -7.1722 C   0  0  0  0  0  0  0  0  0  0  0  0
    0.4351   14.5688   -6.0125 C   0  0  0  0  0  0  0  0  0  0  0  0
   -3.3172   14.5865  -11.7755 C   0  0  0  0  0  0  0  0  0  0  0  0
   -1.8924   14.0513  -11.7355 C   0  0  0  0  0  0  0  0  0  0  0  0
   -2.3932   14.9579  -10.6450 C   0  0  0  0  0  0  0  0  0  0  0  0
   -7.2761   13.0097  -11.8512 H   0  0  0  0  0  0  0  0  0  0  0  0
   -6.0964   12.3014   -9.8693 H   0  0  0  0  0  0  0  0  0  0  0  0
   -8.1772   10.1197  -13.8994 H   0  0  0  0  0  0  0  0  0  0  0  0
   -6.9259   12.2608  -14.0798 H   0  0  0  0  0  0  0  0  0  0  0  0
   -8.0380    9.6010   -7.2550 H   0  0  0  0  0  0  0  0  0  0  0  0
   -5.2205   15.1935  -12.9707 H   0  0  0  0  0  0  0  0  0  0  0  0
   -6.7424   12.3154   -6.9139 H   0  0  0  0  0  0  0  0  0  0  0  0
   -4.5075   13.2883   -6.4808 H   0  0  0  0  0  0  0  0  0  0  0  0
   -3.4391   12.0287   -8.2463 H   0  0  0  0  0  0  0  0  0  0  0  0
   -2.6693    9.7502   -8.0493 H   0  0  0  0  0  0  0  0  0  0  0  0
   -4.8943    8.7808   -8.4911 H   0  0  0  0  0  0  0  0  0  0  0  0
   -2.4097   14.2294   -6.2375 H   0  0  0  0  0  0  0  0  0  0  0  0
   -0.6685   10.5471   -7.5584 H   0  0  0  0  0  0  0  0  0  0  0  0
    1.4941   14.2779   -6.0748 H   0  0  0  0  0  0  0  0  0  0  0  0
    0.2544   15.4366   -6.6639 H   0  0  0  0  0  0  0  0  0  0  0  0
    0.1879   14.8324   -4.9736 H   0  0  0  0  0  0  0  0  0  0  0  0
   -3.5215   15.3697  -12.5204 H   0  0  0  0  0  0  0  0  0  0  0  0
   -1.7095   12.9870  -11.5263 H   0  0  0  0  0  0  0  0  0  0  0  0
   -1.1463   14.4168  -12.4564 H   0  0  0  0  0  0  0  0  0  0  0  0
   -2.0084   15.9854  -10.5669 H   0  0  0  0  0  0  0  0  0  0  0  0
   -2.5716   14.5556   -9.6369 H   0  0  0  0  0  0  0  0  0  0  0  0
  1  2  1  0  0  0  0
  1  4  1  0  0  0  0
  1 12  1  0  0  0  0
  2  6  2  0  0  0  0
  3  4  2  0  0  0  0
  3  5  1  0  0  0  0
  5  6  1  0  0  0  0
  5  9  2  0  0  0  0
  6  7  1  0  0  0  0
  7  8  2  0  0  0  0
  7 10  1  0  0  0  0
  8  9  1  0  0  0  0
 10 14  2  0  0  0  0
 11 12  2  0  0  0  0
 11 26  1  0  0  0  0
 12 13  1  0  0  0  0
 14 15  1  0  0  0  0
 14 19  1  0  0  0  0
 15 16  2  0  0  0  0
 16 17  1  0  0  0  0
 17 18  1  0  0  0  0
 17 20  1  0  0  0  0
 18 19  2  0  0  0  0
 20 21  2  0  0  0  0
 20 24  1  0  0  0  0
 21 22  1  0  0  0  0
 22 23  1  0  0  0  0
 22 25  1  0  0  0  0
 23 24  2  0  0  0  0
 26 27  1  0  0  0  0
 26 28  1  0  0  0  0
 27 28  1  0  0  0  0
  1 29  1  0  0  0  0
  2 30  1  0  0  0  0
  3 31  1  0  0  0  0
  4 32  1  0  0  0  0
 10 33  1  0  0  0  0
 13 34  1  0  0  0  0
 15 35  1  0  0  0  0
 16 36  1  0  0  0  0
 17 37  1  0  0  0  0
 18 38  1  0  0  0  0
 19 39  1  0  0  0  0
 21 40  1  0  0  0  0
 24 41  1  0  0  0  0
 25 42  1  0  0  0  0
 25 43  1  0  0  0  0
 25 44  1  0  0  0  0
 26 45  1  0  0  0  0
 27 46  1  0  0  0  0
 27 47  1  0  0  0  0
 28 48  1  0  0  0  0
 28 49  1  0  0  0  0
M  END
> <Name>
33

> <IC50[uM]>
0.008

$$$$
33
  -OEChem-05192314333D
 Structure written by MMmdl.
 49 53  0     1  0  0  0  0  0999 V2000
   -6.3918   12.3765  -12.0158 C   0  0  0  0  0  0  0  0  0  0  0  0
   -6.5335   11.8201  -10.7317 C   0  0  0  0  0  0  0  0  0  0  0  0
   -7.7273   10.5795  -13.0319 C   0  0  0  0  0  0  0  0  0  0  0  0
   -7.0082   11.7773  -13.1176 C   0  0  0  0  0  0  0  0  0  0  0  0
   -7.8294   10.0116  -11.7546 C   0  0  0  0  0  0  0  0  0  0  0  0
   -7.2533   10.6299  -10.5984 C   0  0  3  0  0  0  0  0  0  0  0  0
   -7.6133    9.7501   -9.5115 C   0  0  0  0  0  0  0  0  0  0  0  0
   -8.2802    8.7340   -9.9853 N   0  0  0  0  0  0  0  0  0  0  0  0
   -8.4149    8.8602  -11.2994 N   0  0  0  0  0  0  0  0  0  0  0  0
   -7.3368    9.8898   -8.0240 C   0  0  0  0  0  0  0  0  0  0  0  0
   -4.3580   13.5891  -11.5451 N   0  0  0  0  0  0  0  0  0  0  0  0
   -5.5327   13.6029  -12.2131 C   0  0  0  0  0  0  0  0  0  0  0  0
   -5.8791   14.5089  -12.9726 O   0  0  0  0  0  0  0  0  0  0  0  0
   -5.9622   10.4818   -7.7351 C   0  0  0  0  0  0  0  0  0  0  0  0
   -5.8525   11.7570   -7.1642 C   0  0  0  0  0  0  0  0  0  0  0  0
   -4.5920   12.3049   -6.9193 C   0  0  0  0  0  0  0  0  0  0  0  0
   -3.4386   11.5825   -7.2408 C   0  0  0  0  0  0  0  0  0  0  0  0
   -3.5579   10.3128   -7.8038 C   0  0  0  0  0  0  0  0  0  0  0  0
   -4.8126    9.7642   -8.0521 C   0  0  0  0  0  0  0  0  0  0  0  0
   -2.0919   12.1643   -6.9829 C   0  0  0  0  0  0  0  0  0  0  0  0
   -1.7362   13.4287   -6.5051 C   0  0  0  0  0  0  0  0  0  0  0  0
   -0.4017   13.4552   -6.4435 N   0  0  0  0  0  0  0  0  0  0  0  0
    0.1850   12.3496   -6.8156 N   0  0  0  0  0  0  0  0  0  0  0  0
   -0.8078   11.5460   -7.1722 C   0  0  0  0  0  0  0  0  0  0  0  0
    0.4351   14.5688   -6.0125 C   0  0  0  0  0  0  0  0  0  0  0  0
   -3.3172   14.5865  -11.7755 C   0  0  0  0  0  0  0  0  0  0  0  0
   -1.8924   14.0513  -11.7355 C   0  0  0  0  0  0  0  0  0  0  0  0
   -2.3932   14.9579  -10.6450 C   0  0  0  0  0  0  0  0  0  0  0  0
   -6.0964   12.3014   -9.8693 H   0  0  0  0  0  0  0  0  0  0  0  0
   -8.1772   10.1197  -13.8994 H   0  0  0  0  0  0  0  0  0  0  0  0
   -6.9259   12.2608  -14.0798 H   0  0  0  0  0  0  0  0  0  0  0  0
   -8.1783   11.2044  -10.4423 H   0  0  0  0  0  0  0  0  0  0  0  0
   -8.0380    9.6010   -7.2550 H   0  0  0  0  0  0  0  0  0  0  0  0
   -5.2205   15.1935  -12.9707 H   0  0  0  0  0  0  0  0  0  0  0  0
   -6.7424   12.3154   -6.9139 H   0  0  0  0  0  0  0  0  0  0  0  0
   -4.5075   13.2883   -6.4808 H   0  0  0  0  0  0  0  0  0  0  0  0
   -3.4391   12.0287   -8.2463 H   0  0  0  0  0  0  0  0  0  0  0  0
   -2.6693    9.7502   -8.0493 H   0  0  0  0  0  0  0  0  0  0  0  0
   -4.8943    8.7808   -8.4911 H   0  0  0  0  0  0  0  0  0  0  0  0
   -2.4097   14.2294   -6.2375 H   0  0  0  0  0  0  0  0  0  0  0  0
   -0.6685   10.5471   -7.5584 H   0  0  0  0  0  0  0  0  0  0  0  0
    1.4941   14.2779   -6.0748 H   0  0  0  0  0  0  0  0  0  0  0  0
    0.2544   15.4366   -6.6639 H   0  0  0  0  0  0  0  0  0  0  0  0
    0.1879   14.8324   -4.9736 H   0  0  0  0  0  0  0  0  0  0  0  0
   -3.5215   15.3697  -12.5204 H   0  0  0  0  0  0  0  0  0  0  0  0
   -1.7095   12.9870  -11.5263 H   0  0  0  0  0  0  0  0  0  0  0  0
   -1.1463   14.4168  -12.4564 H   0  0  0  0  0  0  0  0  0  0  0  0
   -2.0084   15.9854  -10.5669 H   0  0  0  0  0  0  0  0  0  0  0  0
   -2.5716   14.5556   -9.6369 H   0  0  0  0  0  0  0  0  0  0  0  0
  1  2  2  0  0  0  0
  1  4  1  0  0  0  0
  1 12  1  0  0  0  0
  2  6  1  0  0  0  0
  3  4  2  0  0  0  0
  3  5  1  0  0  0  0
  5  6  1  0  0  0  0
  5  9  2  0  0  0  0
  6  7  1  0  0  0  0
  7  8  2  0  0  0  0
  7 10  1  0  0  0  0
  8  9  1  0  0  0  0
 10 14  2  0  0  0  0
 11 12  2  0  0  0  0
 11 26  1  0  0  0  0
 12 13  1  0  0  0  0
 14 15  1  0  0  0  0
 14 19  1  0  0  0  0
 15 16  2  0  0  0  0
 16 17  1  0  0  0  0
 17 18  1  0  0  0  0
 17 20  1  0  0  0  0
 18 19  2  0  0  0  0
 20 21  2  0  0  0  0
 20 24  1  0  0  0  0
 21 22  1  0  0  0  0
 22 23  1  0  0  0  0
 22 25  1  0  0  0  0
 23 24  2  0  0  0  0
 26 27  1  0  0  0  0
 26 28  1  0  0  0  0
 27 28  1  0  0  0  0
  2 29  1  0  0  0  0
  3 30  1  0  0  0  0
  4 31  1  0  0  0  0
  6 32  1  0  0  0  0
 10 33  1  0  0  0  0
 13 34  1  0  0  0  0
 15 35  1  0  0  0  0
 16 36  1  0  0  0  0
 17 37  1  0  0  0  0
 18 38  1  0  0  0  0
 19 39  1  0  0  0  0
 21 40  1  0  0  0  0
 24 41  1  0  0  0  0
 25 42  1  0  0  0  0
 25 43  1  0  0  0  0
 25 44  1  0  0  0  0
 26 45  1  0  0  0  0
 27 46  1  0  0  0  0
 27 47  1  0  0  0  0
 28 48  1  0  0  0  0
 28 49  1  0  0  0  0
M  END
> <Name>
33

> <IC50[uM]>
0.008

$$$$
33
  -OEChem-05192314333D
 Structure written by MMmdl.
 49 53  0     0  0  0  0  0  0999 V2000
   -6.3918   12.3765  -12.0158 C   0  0  0  0  0  0  0  0  0  0  0  0
   -6.5335   11.8201  -10.7317 C   0  0  0  0  0  0  0  0  0  0  0  0
   -7.7273   10.5795  -13.0319 C   0  0  0  0  0  0  0  0  0  0  0  0
   -7.0082   11.7773  -13.1176 C   0  0  0  0  0  0  0  0  0  0  0  0
   -7.8294   10.0116  -11.7546 C   0  0  0  0  0  0  0  0  0  0  0  0
   -7.2533   10.6299  -10.5984 C   0  0  0  0  0  0  0  0  0  0  0  0
   -7.6133    9.7501   -9.5115 C   0  0  0  0  0  0  0  0  0  0  0  0
   -8.2802    8.7340   -9.9853 N   0  0  0  0  0  0  0  0  0  0  0  0
   -8.4149    8.8602  -11.2994 N   0  0  0  0  0  0  0  0  0  0  0  0
   -7.3368    9.8898   -8.0240 C   0  0  0  0  0  0  0  0  0  0  0  0
   -4.3580   13.5891  -11.5451 N   0  0  0  0  0  0  0  0  0  0  0  0
   -5.5327   13.6029  -12.2131 C   0  0  0  0  0  0  0  0  0  0  0  0
   -5.8791   14.5089  -12.9726 O   0  0  0  0  0  0  0  0  0  0  0  0
   -5.9622   10.4818   -7.7351 C   0  0  0  0  0  0  0  0  0  0  0  0
   -5.8525   11.7570   -7.1642 C   0  0  0  0  0  0  0  0  0  0  0  0
   -4.5920   12.3049   -6.9193 C   0  0  0  0  0  0  0  0  0  0  0  0
   -3.4386   11.5825   -7.2408 C   0  0  0  0  0  0  0  0  0  0  0  0
   -3.5579   10.3128   -7.8038 C   0  0  0  0  0  0  0  0  0  0  0  0
   -4.8126    9.7642   -8.0521 C   0  0  0  0  0  0  0  0  0  0  0  0
   -2.0919   12.1643   -6.9829 C   0  0  0  0  0  0  0  0  0  0  0  0
   -1.7362   13.4287   -6.5051 C   0  0  0  0  0  0  0  0  0  0  0  0
   -0.4017   13.4552   -6.4435 N   0  0  0  0  0  0  0  0  0  0  0  0
    0.1850   12.3496   -6.8156 N   0  0  0  0  0  0  0  0  0  0  0  0
   -0.8078   11.5460   -7.1722 C   0  0  0  0  0  0  0  0  0  0  0  0
    0.4351   14.5688   -6.0125 C   0  0  0  0  0  0  0  0  0  0  0  0
   -3.3172   14.5865  -11.7755 C   0  0  0  0  0  0  0  0  0  0  0  0
   -1.8924   14.0513  -11.7355 C   0  0  0  0  0  0  0  0  0  0  0  0
   -2.3932   14.9579  -10.6450 C   0  0  0  0  0  0  0  0  0  0  0  0
   -6.0964   12.3014   -9.8693 H   0  0  0  0  0  0  0  0  0  0  0  0
   -8.7470   10.7729  -13.3962 H   0  0  0  0  0  0  0  0  0  0  0  0
   -7.2367    9.8453  -13.6879 H   0  0  0  0  0  0  0  0  0  0  0  0
   -6.9259   12.2608  -14.0798 H   0  0  0  0  0  0  0  0  0  0  0  0
   -8.0380    9.6010   -7.2550 H   0  0  0  0  0  0  0  0  0  0  0  0
   -5.2205   15.1935  -12.9707 H   0  0  0  0  0  0  0  0  0  0  0  0
   -6.7424   12.3154   -6.9139 H   0  0  0  0  0  0  0  0  0  0  0  0
   -4.5075   13.2883   -6.4808 H   0  0  0  0  0  0  0  0  0  0  0  0
   -3.4391   12.0287   -8.2463 H   0  0  0  0  0  0  0  0  0  0  0  0
   -2.6693    9.7502   -8.0493 H   0  0  0  0  0  0  0  0  0  0  0  0
   -4.8943    8.7808   -8.4911 H   0  0  0  0  0  0  0  0  0  0  0  0
   -2.4097   14.2294   -6.2375 H   0  0  0  0  0  0  0  0  0  0  0  0
   -0.6685   10.5471   -7.5584 H   0  0  0  0  0  0  0  0  0  0  0  0
    1.4941   14.2779   -6.0748 H   0  0  0  0  0  0  0  0  0  0  0  0
    0.2544   15.4366   -6.6639 H   0  0  0  0  0  0  0  0  0  0  0  0
    0.1879   14.8324   -4.9736 H   0  0  0  0  0  0  0  0  0  0  0  0
   -3.5215   15.3697  -12.5204 H   0  0  0  0  0  0  0  0  0  0  0  0
   -1.7095   12.9870  -11.5263 H   0  0  0  0  0  0  0  0  0  0  0  0
   -1.1463   14.4168  -12.4564 H   0  0  0  0  0  0  0  0  0  0  0  0
   -2.0084   15.9854  -10.5669 H   0  0  0  0  0  0  0  0  0  0  0  0
   -2.5716   14.5556   -9.6369 H   0  0  0  0  0  0  0  0  0  0  0  0
  1  2  1  0  0  0  0
  1  4  2  0  0  0  0
  1 12  1  0  0  0  0
  2  6  2  0  0  0  0
  3  4  1  0  0  0  0
  3  5  1  0  0  0  0
  5  6  1  0  0  0  0
  5  9  2  0  0  0  0
  6  7  1  0  0  0  0
  7  8  2  0  0  0  0
  7 10  1  0  0  0  0
  8  9  1  0  0  0  0
 10 14  2  0  0  0  0
 11 12  2  0  0  0  0
 11 26  1  0  0  0  0
 12 13  1  0  0  0  0
 14 15  1  0  0  0  0
 14 19  1  0  0  0  0
 15 16  2  0  0  0  0
 16 17  1  0  0  0  0
 17 18  1  0  0  0  0
 17 20  1  0  0  0  0
 18 19  2  0  0  0  0
 20 21  2  0  0  0  0
 20 24  1  0  0  0  0
 21 22  1  0  0  0  0
 22 23  1  0  0  0  0
 22 25  1  0  0  0  0
 23 24  2  0  0  0  0
 26 27  1  0  0  0  0
 26 28  1  0  0  0  0
 27 28  1  0  0  0  0
  2 29  1  0  0  0  0
  3 30  1  0  0  0  0
  3 31  1  0  0  0  0
  4 32  1  0  0  0  0
 10 33  1  0  0  0  0
 13 34  1  0  0  0  0
 15 35  1  0  0  0  0
 16 36  1  0  0  0  0
 17 37  1  0  0  0  0
 18 38  1  0  0  0  0
 19 39  1  0  0  0  0
 21 40  1  0  0  0  0
 24 41  1  0  0  0  0
 25 42  1  0  0  0  0
 25 43  1  0  0  0  0
 25 44  1  0  0  0  0
 26 45  1  0  0  0  0
 27 46  1  0  0  0  0
 27 47  1  0  0  0  0
 28 48  1  0  0  0  0
 28 49  1  0  0  0  0
M  END
> <Name>
33

> <IC50[uM]>
0.008

$$$$
33
  -OEChem-05192314333D
 Structure written by MMmdl.
 49 53  0     1  0  0  0  0  0999 V2000
   -6.3918   12.3765  -12.0158 C   0  0  3  0  0  0  0  0  0  0  0  0
   -6.5335   11.8201  -10.7317 C   0  0  0  0  0  0  0  0  0  0  0  0
   -7.7273   10.5795  -13.0319 C   0  0  0  0  0  0  0  0  0  0  0  0
   -7.0082   11.7773  -13.1176 C   0  0  0  0  0  0  0  0  0  0  0  0
   -7.8294   10.0116  -11.7546 C   0  0  0  0  0  0  0  0  0  0  0  0
   -7.2533   10.6299  -10.5984 C   0  0  0  0  0  0  0  0  0  0  0  0
   -7.6133    9.7501   -9.5115 C   0  0  0  0  0  0  0  0  0  0  0  0
   -8.2802    8.7340   -9.9853 N   0  0  0  0  0  0  0  0  0  0  0  0
   -8.4149    8.8602  -11.2994 N   0  0  0  0  0  0  0  0  0  0  0  0
   -7.3368    9.8898   -8.0240 C   0  0  0  0  0  0  0  0  0  0  0  0
   -4.3580   13.5891  -11.5451 N   0  0  0  0  0  0  0  0  0  0  0  0
   -5.5327   13.6029  -12.2131 C   0  0  0  0  0  0  0  0  0  0  0  0
   -5.8791   14.5089  -12.9726 O   0  0  0  0  0  0  0  0  0  0  0  0
   -5.9622   10.4818   -7.7351 C   0  0  0  0  0  0  0  0  0  0  0  0
   -5.8525   11.7570   -7.1642 C   0  0  0  0  0  0  0  0  0  0  0  0
   -4.5920   12.3049   -6.9193 C   0  0  0  0  0  0  0  0  0  0  0  0
   -3.4386   11.5825   -7.2408 C   0  0  0  0  0  0  0  0  0  0  0  0
   -3.5579   10.3128   -7.8038 C   0  0  0  0  0  0  0  0  0  0  0  0
   -4.8126    9.7642   -8.0521 C   0  0  0  0  0  0  0  0  0  0  0  0
   -2.0919   12.1643   -6.9829 C   0  0  0  0  0  0  0  0  0  0  0  0
   -1.7362   13.4287   -6.5051 C   0  0  0  0  0  0  0  0  0  0  0  0
   -0.4017   13.4552   -6.4435 N   0  0  0  0  0  0  0  0  0  0  0  0
    0.1850   12.3496   -6.8156 N   0  0  0  0  0  0  0  0  0  0  0  0
   -0.8078   11.5460   -7.1722 C   0  0  0  0  0  0  0  0  0  0  0  0
    0.4351   14.5688   -6.0125 C   0  0  0  0  0  0  0  0  0  0  0  0
   -3.3172   14.5865  -11.7755 C   0  0  0  0  0  0  0  0  0  0  0  0
   -1.8924   14.0513  -11.7355 C   0  0  0  0  0  0  0  0  0  0  0  0
   -2.3932   14.9579  -10.6450 C   0  0  0  0  0  0  0  0  0  0  0  0
   -7.2761   13.0097  -11.8512 H   0  0  0  0  0  0  0  0  0  0  0  0
   -6.0964   12.3014   -9.8693 H   0  0  0  0  0  0  0  0  0  0  0  0
   -8.1772   10.1197  -13.8994 H   0  0  0  0  0  0  0  0  0  0  0  0
   -6.9259   12.2608  -14.0798 H   0  0  0  0  0  0  0  0  0  0  0  0
   -8.0380    9.6010   -7.2550 H   0  0  0  0  0  0  0  0  0  0  0  0
   -5.2205   15.1935  -12.9707 H   0  0  0  0  0  0  0  0  0  0  0  0
   -6.7424   12.3154   -6.9139 H   0  0  0  0  0  0  0  0  0  0  0  0
   -4.5075   13.2883   -6.4808 H   0  0  0  0  0  0  0  0  0  0  0  0
   -2.6693    9.7502   -8.0493 H   0  0  0  0  0  0  0  0  0  0  0  0
   -4.8629    8.8200   -7.4901 H   0  0  0  0  0  0  0  0  0  0  0  0
   -4.8583    9.5519   -9.1305 H   0  0  0  0  0  0  0  0  0  0  0  0
   -2.4097   14.2294   -6.2375 H   0  0  0  0  0  0  0  0  0  0  0  0
   -0.6685   10.5471   -7.5584 H   0  0  0  0  0  0  0  0  0  0  0  0
    1.4941   14.2779   -6.0748 H   0  0  0  0  0  0  0  0  0  0  0  0
    0.2544   15.4366   -6.6639 H   0  0  0  0  0  0  0  0  0  0  0  0
    0.1879   14.8324   -4.9736 H   0  0  0  0  0  0  0  0  0  0  0  0
   -3.5215   15.3697  -12.5204 H   0  0  0  0  0  0  0  0  0  0  0  0
   -1.7095   12.9870  -11.5263 H   0  0  0  0  0  0  0  0  0  0  0  0
   -1.1463   14.4168  -12.4564 H   0  0  0  0  0  0  0  0  0  0  0  0
   -2.0084   15.9854  -10.5669 H   0  0  0  0  0  0  0  0  0  0  0  0
   -2.5716   14.5556   -9.6369 H   0  0  0  0  0  0  0  0  0  0  0  0
  1  2  1  0  0  0  0
  1  4  1  0  0  0  0
  1 12  1  0  0  0  0
  2  6  2  0  0  0  0
  3  4  2  0  0  0  0
  3  5  1  0  0  0  0
  5  6  1  0  0  0  0
  5  9  2  0  0  0  0
  6  7  1  0  0  0  0
  7  8  2  0  0  0  0
  7 10  1  0  0  0  0
  8  9  1  0  0  0  0
 10 14  2  3  0  0  0
 11 12  2  0  0  0  0
 11 26  1  0  0  0  0
 12 13  1  0  0  0  0
 14 15  1  0  0  0  0
 14 19  1  0  0  0  0
 15 16  2  0  0  0  0
 16 17  1  0  0  0  0
 17 18  2  0  0  0  0
 17 20  1  0  0  0  0
 18 19  1  0  0  0  0
 20 21  2  0  0  0  0
 20 24  1  0  0  0  0
 21 22  1  0  0  0  0
 22 23  1  0  0  0  0
 22 25  1  0  0  0  0
 23 24  2  0  0  0  0
 26 27  1  0  0  0  0
 26 28  1  0  0  0  0
 27 28  1  0  0  0  0
  1 29  1  0  0  0  0
  2 30  1  0  0  0  0
  3 31  1  0  0  0  0
  4 32  1  0  0  0  0
 10 33  1  0  0  0  0
 13 34  1  0  0  0  0
 15 35  1  0  0  0  0
 16 36  1  0  0  0  0
 18 37  1  0  0  0  0
 19 38  1  0  0  0  0
 19 39  1  0  0  0  0
 21 40  1  0  0  0  0
 24 41  1  0  0  0  0
 25 42  1  0  0  0  0
 25 43  1  0  0  0  0
 25 44  1  0  0  0  0
 26 45  1  0  0  0  0
 27 46  1  0  0  0  0
 27 47  1  0  0  0  0
 28 48  1  0  0  0  0
 28 49  1  0  0  0  0
M  END
> <Name>
33

> <IC50[uM]>
0.008

$$$$
33
  -OEChem-05192314333D
 Structure written by MMmdl.
 49 53  0     1  0  0  0  0  0999 V2000
   -6.3918   12.3765  -12.0158 C   0  0  0  0  0  0  0  0  0  0  0  0
   -6.5335   11.8201  -10.7317 C   0  0  0  0  0  0  0  0  0  0  0  0
   -7.7273   10.5795  -13.0319 C   0  0  0  0  0  0  0  0  0  0  0  0
   -7.0082   11.7773  -13.1176 C   0  0  0  0  0  0  0  0  0  0  0  0
   -7.8294   10.0116  -11.7546 C   0  0  0  0  0  0  0  0  0  0  0  0
   -7.2533   10.6299  -10.5984 C   0  0  3  0  0  0  0  0  0  0  0  0
   -7.6133    9.7501   -9.5115 C   0  0  0  0  0  0  0  0  0  0  0  0
   -8.2802    8.7340   -9.9853 N   0  0  0  0  0  0  0  0  0  0  0  0
   -8.4149    8.8602  -11.2994 N   0  0  0  0  0  0  0  0  0  0  0  0
   -7.3368    9.8898   -8.0240 C   0  0  0  0  0  0  0  0  0  0  0  0
   -4.3580   13.5891  -11.5451 N   0  0  0  0  0  0  0  0  0  0  0  0
   -5.5327   13.6029  -12.2131 C   0  0  0  0  0  0  0  0  0  0  0  0
   -5.8791   14.5089  -12.9726 O   0  0  0  0  0  0  0  0  0  0  0  0
   -5.9622   10.4818   -7.7351 C   0  0  0  0  0  0  0  0  0  0  0  0
   -5.8525   11.7570   -7.1642 C   0  0  0  0  0  0  0  0  0  0  0  0
   -4.5920   12.3049   -6.9193 C   0  0  0  0  0  0  0  0  0  0  0  0
   -3.4386   11.5825   -7.2408 C   0  0  0  0  0  0  0  0  0  0  0  0
   -3.5579   10.3128   -7.8038 C   0  0  0  0  0  0  0  0  0  0  0  0
   -4.8126    9.7642   -8.0521 C   0  0  0  0  0  0  0  0  0  0  0  0
   -2.0919   12.1643   -6.9829 C   0  0  0  0  0  0  0  0  0  0  0  0
   -1.7362   13.4287   -6.5051 C   0  0  0  0  0  0  0  0  0  0  0  0
   -0.4017   13.4552   -6.4435 N   0  0  0  0  0  0  0  0  0  0  0  0
    0.1850   12.3496   -6.8156 N   0  0  0  0  0  0  0  0  0  0  0  0
   -0.8078   11.5460   -7.1722 C   0  0  0  0  0  0  0  0  0  0  0  0
    0.4351   14.5688   -6.0125 C   0  0  0  0  0  0  0  0  0  0  0  0
   -3.3172   14.5865  -11.7755 C   0  0  0  0  0  0  0  0  0  0  0  0
   -1.8924   14.0513  -11.7355 C   0  0  0  0  0  0  0  0  0  0  0  0
   -2.3932   14.9579  -10.6450 C   0  0  0  0  0  0  0  0  0  0  0  0
   -6.0964   12.3014   -9.8693 H   0  0  0  0  0  0  0  0  0  0  0  0
   -8.1772   10.1197  -13.8994 H   0  0  0  0  0  0  0  0  0  0  0  0
   -6.9259   12.2608  -14.0798 H   0  0  0  0  0  0  0  0  0  0  0  0
   -8.1783   11.2044  -10.4423 H   0  0  0  0  0  0  0  0  0  0  0  0
   -8.0380    9.6010   -7.2550 H   0  0  0  0  0  0  0  0  0  0  0  0
   -5.2205   15.1935  -12.9707 H   0  0  0  0  0  0  0  0  0  0  0  0
   -6.7424   12.3154   -6.9139 H   0  0  0  0  0  0  0  0  0  0  0  0
   -4.5075   13.2883   -6.4808 H   0  0  0  0  0  0  0  0  0  0  0  0
   -2.6693    9.7502   -8.0493 H   0  0  0  0  0  0  0  0  0  0  0  0
   -4.8629    8.8200   -7.4901 H   0  0  0  0  0  0  0  0  0  0  0  0
   -4.8583    9.5519   -9.1305 H   0  0  0  0  0  0  0  0  0  0  0  0
   -2.4097   14.2294   -6.2375 H   0  0  0  0  0  0  0  0  0  0  0  0
   -0.6685   10.5471   -7.5584 H   0  0  0  0  0  0  0  0  0  0  0  0
    1.4941   14.2779   -6.0748 H   0  0  0  0  0  0  0  0  0  0  0  0
    0.2544   15.4366   -6.6639 H   0  0  0  0  0  0  0  0  0  0  0  0
    0.1879   14.8324   -4.9736 H   0  0  0  0  0  0  0  0  0  0  0  0
   -3.5215   15.3697  -12.5204 H   0  0  0  0  0  0  0  0  0  0  0  0
   -1.7095   12.9870  -11.5263 H   0  0  0  0  0  0  0  0  0  0  0  0
   -1.1463   14.4168  -12.4564 H   0  0  0  0  0  0  0  0  0  0  0  0
   -2.0084   15.9854  -10.5669 H   0  0  0  0  0  0  0  0  0  0  0  0
   -2.5716   14.5556   -9.6369 H   0  0  0  0  0  0  0  0  0  0  0  0
  1  2  2  0  0  0  0
  1  4  1  0  0  0  0
  1 12  1  0  0  0  0
  2  6  1  0  0  0  0
  3  4  2  0  0  0  0
  3  5  1  0  0  0  0
  5  6  1  0  0  0  0
  5  9  2  0  0  0  0
  6  7  1  0  0  0  0
  7  8  2  0  0  0  0
  7 10  1  0  0  0  0
  8  9  1  0  0  0  0
 10 14  2  3  0  0  0
 11 12  2  0  0  0  0
 11 26  1  0  0  0  0
 12 13  1  0  0  0  0
 14 15  1  0  0  0  0
 14 19  1  0  0  0  0
 15 16  2  0  0  0  0
 16 17  1  0  0  0  0
 17 18  2  0  0  0  0
 17 20  1  0  0  0  0
 18 19  1  0  0  0  0
 20 21  2  0  0  0  0
 20 24  1  0  0  0  0
 21 22  1  0  0  0  0
 22 23  1  0  0  0  0
 22 25  1  0  0  0  0
 23 24  2  0  0  0  0
 26 27  1  0  0  0  0
 26 28  1  0  0  0  0
 27 28  1  0  0  0  0
  2 29  1  0  0  0  0
  3 30  1  0  0  0  0
  4 31  1  0  0  0  0
  6 32  1  0  0  0  0
 10 33  1  0  0  0  0
 13 34  1  0  0  0  0
 15 35  1  0  0  0  0
 16 36  1  0  0  0  0
 18 37  1  0  0  0  0
 19 38  1  0  0  0  0
 19 39  1  0  0  0  0
 21 40  1  0  0  0  0
 24 41  1  0  0  0  0
 25 42  1  0  0  0  0
 25 43  1  0  0  0  0
 25 44  1  0  0  0  0
 26 45  1  0  0  0  0
 27 46  1  0  0  0  0
 27 47  1  0  0  0  0
 28 48  1  0  0  0  0
 28 49  1  0  0  0  0
M  END
> <Name>
33

> <IC50[uM]>
0.008

$$$$
33
  -OEChem-05192314333D
 Structure written by MMmdl.
 49 53  0     0  0  0  0  0  0999 V2000
   -6.3918   12.3765  -12.0158 C   0  0  0  0  0  0  0  0  0  0  0  0
   -6.5335   11.8201  -10.7317 C   0  0  0  0  0  0  0  0  0  0  0  0
   -7.7273   10.5795  -13.0319 C   0  0  0  0  0  0  0  0  0  0  0  0
   -7.0082   11.7773  -13.1176 C   0  0  0  0  0  0  0  0  0  0  0  0
   -7.8294   10.0116  -11.7546 C   0  0  0  0  0  0  0  0  0  0  0  0
   -7.2533   10.6299  -10.5984 C   0  0  0  0  0  0  0  0  0  0  0  0
   -7.6133    9.7501   -9.5115 C   0  0  0  0  0  0  0  0  0  0  0  0
   -8.2802    8.7340   -9.9853 N   0  0  0  0  0  0  0  0  0  0  0  0
   -8.4149    8.8602  -11.2994 N   0  0  0  0  0  0  0  0  0  0  0  0
   -7.3368    9.8898   -8.0240 C   0  0  0  0  0  0  0  0  0  0  0  0
   -4.3580   13.5891  -11.5451 N   0  0  0  0  0  0  0  0  0  0  0  0
   -5.5327   13.6029  -12.2131 C   0  0  0  0  0  0  0  0  0  0  0  0
   -5.8791   14.5089  -12.9726 O   0  0  0  0  0  0  0  0  0  0  0  0
   -5.9622   10.4818   -7.7351 C   0  0  0  0  0  0  0  0  0  0  0  0
   -5.8525   11.7570   -7.1642 C   0  0  0  0  0  0  0  0  0  0  0  0
   -4.5920   12.3049   -6.9193 C   0  0  0  0  0  0  0  0  0  0  0  0
   -3.4386   11.5825   -7.2408 C   0  0  0  0  0  0  0  0  0  0  0  0
   -3.5579   10.3128   -7.8038 C   0  0  0  0  0  0  0  0  0  0  0  0
   -4.8126    9.7642   -8.0521 C   0  0  0  0  0  0  0  0  0  0  0  0
   -2.0919   12.1643   -6.9829 C   0  0  0  0  0  0  0  0  0  0  0  0
   -1.7362   13.4287   -6.5051 C   0  0  0  0  0  0  0  0  0  0  0  0
   -0.4017   13.4552   -6.4435 N   0  0  0  0  0  0  0  0  0  0  0  0
    0.1850   12.3496   -6.8156 N   0  0  0  0  0  0  0  0  0  0  0  0
   -0.8078   11.5460   -7.1722 C   0  0  0  0  0  0  0  0  0  0  0  0
    0.4351   14.5688   -6.0125 C   0  0  0  0  0  0  0  0  0  0  0  0
   -3.3172   14.5865  -11.7755 C   0  0  0  0  0  0  0  0  0  0  0  0
   -1.8924   14.0513  -11.7355 C   0  0  0  0  0  0  0  0  0  0  0  0
   -2.3932   14.9579  -10.6450 C   0  0  0  0  0  0  0  0  0  0  0  0
   -6.0964   12.3014   -9.8693 H   0  0  0  0  0  0  0  0  0  0  0  0
   -8.7470   10.7729  -13.3962 H   0  0  0  0  0  0  0  0  0  0  0  0
   -7.2367    9.8453  -13.6879 H   0  0  0  0  0  0  0  0  0  0  0  0
   -6.9259   12.2608  -14.0798 H   0  0  0  0  0  0  0  0  0  0  0  0
   -8.0380    9.6010   -7.2550 H   0  0  0  0  0  0  0  0  0  0  0  0
   -5.2205   15.1935  -12.9707 H   0  0  0  0  0  0  0  0  0  0  0  0
   -6.7424   12.3154   -6.9139 H   0  0  0  0  0  0  0  0  0  0  0  0
   -4.5075   13.2883   -6.4808 H   0  0  0  0  0  0  0  0  0  0  0  0
   -2.6693    9.7502   -8.0493 H   0  0  0  0  0  0  0  0  0  0  0  0
   -4.8629    8.8200   -7.4901 H   0  0  0  0  0  0  0  0  0  0  0  0
   -4.8583    9.5519   -9.1305 H   0  0  0  0  0  0  0  0  0  0  0  0
   -2.4097   14.2294   -6.2375 H   0  0  0  0  0  0  0  0  0  0  0  0
   -0.6685   10.5471   -7.5584 H   0  0  0  0  0  0  0  0  0  0  0  0
    1.4941   14.2779   -6.0748 H   0  0  0  0  0  0  0  0  0  0  0  0
    0.2544   15.4366   -6.6639 H   0  0  0  0  0  0  0  0  0  0  0  0
    0.1879   14.8324   -4.9736 H   0  0  0  0  0  0  0  0  0  0  0  0
   -3.5215   15.3697  -12.5204 H   0  0  0  0  0  0  0  0  0  0  0  0
   -1.7095   12.9870  -11.5263 H   0  0  0  0  0  0  0  0  0  0  0  0
   -1.1463   14.4168  -12.4564 H   0  0  0  0  0  0  0  0  0  0  0  0
   -2.0084   15.9854  -10.5669 H   0  0  0  0  0  0  0  0  0  0  0  0
   -2.5716   14.5556   -9.6369 H   0  0  0  0  0  0  0  0  0  0  0  0
  1  2  1  0  0  0  0
  1  4  2  0  0  0  0
  1 12  1  0  0  0  0
  2  6  2  0  0  0  0
  3  4  1  0  0  0  0
  3  5  1  0  0  0  0
  5  6  1  0  0  0  0
  5  9  2  0  0  0  0
  6  7  1  0  0  0  0
  7  8  2  0  0  0  0
  7 10  1  0  0  0  0
  8  9  1  0  0  0  0
 10 14  2  3  0  0  0
 11 12  2  0  0  0  0
 11 26  1  0  0  0  0
 12 13  1  0  0  0  0
 14 15  1  0  0  0  0
 14 19  1  0  0  0  0
 15 16  2  0  0  0  0
 16 17  1  0  0  0  0
 17 18  2  0  0  0  0
 17 20  1  0  0  0  0
 18 19  1  0  0  0  0
 20 21  2  0  0  0  0
 20 24  1  0  0  0  0
 21 22  1  0  0  0  0
 22 23  1  0  0  0  0
 22 25  1  0  0  0  0
 23 24  2  0  0  0  0
 26 27  1  0  0  0  0
 26 28  1  0  0  0  0
 27 28  1  0  0  0  0
  2 29  1  0  0  0  0
  3 30  1  0  0  0  0
  3 31  1  0  0  0  0
  4 32  1  0  0  0  0
 10 33  1  0  0  0  0
 13 34  1  0  0  0  0
 15 35  1  0  0  0  0
 16 36  1  0  0  0  0
 18 37  1  0  0  0  0
 19 38  1  0  0  0  0
 19 39  1  0  0  0  0
 21 40  1  0  0  0  0
 24 41  1  0  0  0  0
 25 42  1  0  0  0  0
 25 43  1  0  0  0  0
 25 44  1  0  0  0  0
 26 45  1  0  0  0  0
 27 46  1  0  0  0  0
 27 47  1  0  0  0  0
 28 48  1  0  0  0  0
 28 49  1  0  0  0  0
M  END
> <Name>
33

> <IC50[uM]>
0.008

$$$$
33
  -OEChem-05192314333D
 Structure written by MMmdl.
 49 53  0     1  0  0  0  0  0999 V2000
   -6.3918   12.3765  -12.0158 C   0  0  0  0  0  0  0  0  0  0  0  0
   -6.5335   11.8201  -10.7317 C   0  0  0  0  0  0  0  0  0  0  0  0
   -7.7273   10.5795  -13.0319 C   0  0  0  0  0  0  0  0  0  0  0  0
   -7.0082   11.7773  -13.1176 C   0  0  0  0  0  0  0  0  0  0  0  0
   -7.8294   10.0116  -11.7546 C   0  0  3  0  0  0  0  0  0  0  0  0
   -7.2533   10.6299  -10.5984 C   0  0  0  0  0  0  0  0  0  0  0  0
   -7.6133    9.7501   -9.5115 C   0  0  0  0  0  0  0  0  0  0  0  0
   -8.2802    8.7340   -9.9853 N   0  0  0  0  0  0  0  0  0  0  0  0
   -8.4149    8.8602  -11.2994 N   0  0  0  0  0  0  0  0  0  0  0  0
   -7.3368    9.8898   -8.0240 C   0  0  0  0  0  0  0  0  0  0  0  0
   -4.3580   13.5891  -11.5451 N   0  0  0  0  0  0  0  0  0  0  0  0
   -5.5327   13.6029  -12.2131 C   0  0  0  0  0  0  0  0  0  0  0  0
   -5.8791   14.5089  -12.9726 O   0  0  0  0  0  0  0  0  0  0  0  0
   -5.9622   10.4818   -7.7351 C   0  0  0  0  0  0  0  0  0  0  0  0
   -5.8525   11.7570   -7.1642 C   0  0  0  0  0  0  0  0  0  0  0  0
   -4.5920   12.3049   -6.9193 C   0  0  0  0  0  0  0  0  0  0  0  0
   -3.4386   11.5825   -7.2408 C   0  0  0  0  0  0  0  0  0  0  0  0
   -3.5579   10.3128   -7.8038 C   0  0  0  0  0  0  0  0  0  0  0  0
   -4.8126    9.7642   -8.0521 C   0  0  0  0  0  0  0  0  0  0  0  0
   -2.0919   12.1643   -6.9829 C   0  0  0  0  0  0  0  0  0  0  0  0
   -1.7362   13.4287   -6.5051 C   0  0  0  0  0  0  0  0  0  0  0  0
   -0.4017   13.4552   -6.4435 N   0  0  0  0  0  0  0  0  0  0  0  0
    0.1850   12.3496   -6.8156 N   0  0  0  0  0  0  0  0  0  0  0  0
   -0.8078   11.5460   -7.1722 C   0  0  0  0  0  0  0  0  0  0  0  0
    0.4351   14.5688   -6.0125 C   0  0  0  0  0  0  0  0  0  0  0  0
   -3.3172   14.5865  -11.7755 C   0  0  0  0  0  0  0  0  0  0  0  0
   -1.8924   14.0513  -11.7355 C   0  0  0  0  0  0  0  0  0  0  0  0
   -2.3932   14.9579  -10.6450 C   0  0  0  0  0  0  0  0  0  0  0  0
   -6.0964   12.3014   -9.8693 H   0  0  0  0  0  0  0  0  0  0  0  0
   -8.1772   10.1197  -13.8994 H   0  0  0  0  0  0  0  0  0  0  0  0
   -6.9259   12.2608  -14.0798 H   0  0  0  0  0  0  0  0  0  0  0  0
   -8.7677   10.5596  -11.5832 H   0  0  0  0  0  0  0  0  0  0  0  0
   -8.0380    9.6010   -7.2550 H   0  0  0  0  0  0  0  0  0  0  0  0
   -4.1960   12.8702  -10.8691 H   0  0  0  0  0  0  0  0  0  0  0  0
   -6.7424   12.3154   -6.9139 H   0  0  0  0  0  0  0  0  0  0  0  0
   -4.5075   13.2883   -6.4808 H   0  0  0  0  0  0  0  0  0  0  0  0
   -3.4391   12.0287   -8.2463 H   0  0  0  0  0  0  0  0  0  0  0  0
   -2.6693    9.7502   -8.0493 H   0  0  0  0  0  0  0  0  0  0  0  0
   -4.8943    8.7808   -8.4911 H   0  0  0  0  0  0  0  0  0  0  0  0
   -2.4097   14.2294   -6.2375 H   0  0  0  0  0  0  0  0  0  0  0  0
   -0.6685   10.5471   -7.5584 H   0  0  0  0  0  0  0  0  0  0  0  0
    1.4941   14.2779   -6.0748 H   0  0  0  0  0  0  0  0  0  0  0  0
    0.2544   15.4366   -6.6639 H   0  0  0  0  0  0  0  0  0  0  0  0
    0.1879   14.8324   -4.9736 H   0  0  0  0  0  0  0  0  0  0  0  0
   -3.5215   15.3697  -12.5204 H   0  0  0  0  0  0  0  0  0  0  0  0
   -1.7095   12.9870  -11.5263 H   0  0  0  0  0  0  0  0  0  0  0  0
   -1.1463   14.4168  -12.4564 H   0  0  0  0  0  0  0  0  0  0  0  0
   -2.0084   15.9854  -10.5669 H   0  0  0  0  0  0  0  0  0  0  0  0
   -2.5716   14.5556   -9.6369 H   0  0  0  0  0  0  0  0  0  0  0  0
  1  2  2  0  0  0  0
  1  4  1  0  0  0  0
  1 12  1  0  0  0  0
  2  6  1  0  0  0  0
  3  4  2  0  0  0  0
  3  5  1  0  0  0  0
  5  6  1  0  0  0  0
  5  9  1  0  0  0  0
  6  7  2  0  0  0  0
  7  8  1  0  0  0  0
  7 10  1  0  0  0  0
  8  9  2  0  0  0  0
 10 14  2  0  0  0  0
 11 12  1  0  0  0  0
 11 26  1  0  0  0  0
 12 13  2  0  0  0  0
 14 15  1  0  0  0  0
 14 19  1  0  0  0  0
 15 16  2  0  0  0  0
 16 17  1  0  0  0  0
 17 18  1  0  0  0  0
 17 20  1  0  0  0  0
 18 19  2  0  0  0  0
 20 21  2  0  0  0  0
 20 24  1  0  0  0  0
 21 22  1  0  0  0  0
 22 23  1  0  0  0  0
 22 25  1  0  0  0  0
 23 24  2  0  0  0  0
 26 27  1  0  0  0  0
 26 28  1  0  0  0  0
 27 28  1  0  0  0  0
  2 29  1  0  0  0  0
  3 30  1  0  0  0  0
  4 31  1  0  0  0  0
  5 32  1  0  0  0  0
 10 33  1  0  0  0  0
 11 34  1  0  0  0  0
 15 35  1  0  0  0  0
 16 36  1  0  0  0  0
 17 37  1  0  0  0  0
 18 38  1  0  0  0  0
 19 39  1  0  0  0  0
 21 40  1  0  0  0  0
 24 41  1  0  0  0  0
 25 42  1  0  0  0  0
 25 43  1  0  0  0  0
 25 44  1  0  0  0  0
 26 45  1  0  0  0  0
 27 46  1  0  0  0  0
 27 47  1  0  0  0  0
 28 48  1  0  0  0  0
 28 49  1  0  0  0  0
M  END
> <Name>
33

> <IC50[uM]>
0.008

$$$$
33
  -OEChem-05192314333D
 Structure written by MMmdl.
 49 53  0     0  0  0  0  0  0999 V2000
   -6.3918   12.3765  -12.0158 C   0  0  0  0  0  0  0  0  0  0  0  0
   -6.5335   11.8201  -10.7317 C   0  0  0  0  0  0  0  0  0  0  0  0
   -7.7273   10.5795  -13.0319 C   0  0  0  0  0  0  0  0  0  0  0  0
   -7.0082   11.7773  -13.1176 C   0  0  0  0  0  0  0  0  0  0  0  0
   -7.8294   10.0116  -11.7546 C   0  0  0  0  0  0  0  0  0  0  0  0
   -7.2533   10.6299  -10.5984 C   0  0  0  0  0  0  0  0  0  0  0  0
   -7.6133    9.7501   -9.5115 C   0  0  0  0  0  0  0  0  0  0  0  0
   -8.2802    8.7340   -9.9853 N   0  0  0  0  0  0  0  0  0  0  0  0
   -8.4149    8.8602  -11.2994 N   0  0  0  0  0  0  0  0  0  0  0  0
   -7.3368    9.8898   -8.0240 C   0  0  0  0  0  0  0  0  0  0  0  0
   -4.3580   13.5891  -11.5451 N   0  0  0  0  0  0  0  0  0  0  0  0
   -5.5327   13.6029  -12.2131 C   0  0  0  0  0  0  0  0  0  0  0  0
   -5.8791   14.5089  -12.9726 O   0  0  0  0  0  0  0  0  0  0  0  0
   -5.9622   10.4818   -7.7351 C   0  0  0  0  0  0  0  0  0  0  0  0
   -5.8525   11.7570   -7.1642 C   0  0  0  0  0  0  0  0  0  0  0  0
   -4.5920   12.3049   -6.9193 C   0  0  0  0  0  0  0  0  0  0  0  0
   -3.4386   11.5825   -7.2408 C   0  0  0  0  0  0  0  0  0  0  0  0
   -3.5579   10.3128   -7.8038 C   0  0  0  0  0  0  0  0  0  0  0  0
   -4.8126    9.7642   -8.0521 C   0  0  0  0  0  0  0  0  0  0  0  0
   -2.0919   12.1643   -6.9829 C   0  0  0  0  0  0  0  0  0  0  0  0
   -1.7362   13.4287   -6.5051 C   0  0  0  0  0  0  0  0  0  0  0  0
   -0.4017   13.4552   -6.4435 N   0  0  0  0  0  0  0  0  0  0  0  0
    0.1850   12.3496   -6.8156 N   0  0  0  0  0  0  0  0  0  0  0  0
   -0.8078   11.5460   -7.1722 C   0  0  0  0  0  0  0  0  0  0  0  0
    0.4351   14.5688   -6.0125 C   0  0  0  0  0  0  0  0  0  0  0  0
   -3.3172   14.5865  -11.7755 C   0  0  0  0  0  0  0  0  0  0  0  0
   -1.8924   14.0513  -11.7355 C   0  0  0  0  0  0  0  0  0  0  0  0
   -2.3932   14.9579  -10.6450 C   0  0  0  0  0  0  0  0  0  0  0  0
   -6.0964   12.3014   -9.8693 H   0  0  0  0  0  0  0  0  0  0  0  0
   -8.1772   10.1197  -13.8994 H   0  0  0  0  0  0  0  0  0  0  0  0
   -7.7108   12.5246  -13.5150 H   0  0  0  0  0  0  0  0  0  0  0  0
   -6.2088   11.5987  -13.8518 H   0  0  0  0  0  0  0  0  0  0  0  0
   -8.0380    9.6010   -7.2550 H   0  0  0  0  0  0  0  0  0  0  0  0
   -4.1960   12.8702  -10.8691 H   0  0  0  0  0  0  0  0  0  0  0  0
   -6.7424   12.3154   -6.9139 H   0  0  0  0  0  0  0  0  0  0  0  0
   -4.5075   13.2883   -6.4808 H   0  0  0  0  0  0  0  0  0  0  0  0
   -3.4391   12.0287   -8.2463 H   0  0  0  0  0  0  0  0  0  0  0  0
   -2.6693    9.7502   -8.0493 H   0  0  0  0  0  0  0  0  0  0  0  0
   -4.8943    8.7808   -8.4911 H   0  0  0  0  0  0  0  0  0  0  0  0
   -2.4097   14.2294   -6.2375 H   0  0  0  0  0  0  0  0  0  0  0  0
   -0.6685   10.5471   -7.5584 H   0  0  0  0  0  0  0  0  0  0  0  0
    1.4941   14.2779   -6.0748 H   0  0  0  0  0  0  0  0  0  0  0  0
    0.2544   15.4366   -6.6639 H   0  0  0  0  0  0  0  0  0  0  0  0
    0.1879   14.8324   -4.9736 H   0  0  0  0  0  0  0  0  0  0  0  0
   -3.5215   15.3697  -12.5204 H   0  0  0  0  0  0  0  0  0  0  0  0
   -1.7095   12.9870  -11.5263 H   0  0  0  0  0  0  0  0  0  0  0  0
   -1.1463   14.4168  -12.4564 H   0  0  0  0  0  0  0  0  0  0  0  0
   -2.0084   15.9854  -10.5669 H   0  0  0  0  0  0  0  0  0  0  0  0
   -2.5716   14.5556   -9.6369 H   0  0  0  0  0  0  0  0  0  0  0  0
  1  2  2  0  0  0  0
  1  4  1  0  0  0  0
  1 12  1  0  0  0  0
  2  6  1  0  0  0  0
  3  4  1  0  0  0  0
  3  5  2  0  0  0  0
  5  6  1  0  0  0  0
  5  9  1  0  0  0  0
  6  7  2  0  0  0  0
  7  8  1  0  0  0  0
  7 10  1  0  0  0  0
  8  9  2  0  0  0  0
 10 14  2  0  0  0  0
 11 12  1  0  0  0  0
 11 26  1  0  0  0  0
 12 13  2  0  0  0  0
 14 15  1  0  0  0  0
 14 19  1  0  0  0  0
 15 16  2  0  0  0  0
 16 17  1  0  0  0  0
 17 18  1  0  0  0  0
 17 20  1  0  0  0  0
 18 19  2  0  0  0  0
 20 21  2  0  0  0  0
 20 24  1  0  0  0  0
 21 22  1  0  0  0  0
 22 23  1  0  0  0  0
 22 25  1  0  0  0  0
 23 24  2  0  0  0  0
 26 27  1  0  0  0  0
 26 28  1  0  0  0  0
 27 28  1  0  0  0  0
  2 29  1  0  0  0  0
  3 30  1  0  0  0  0
  4 31  1  0  0  0  0
  4 32  1  0  0  0  0
 10 33  1  0  0  0  0
 11 34  1  0  0  0  0
 15 35  1  0  0  0  0
 16 36  1  0  0  0  0
 17 37  1  0  0  0  0
 18 38  1  0  0  0  0
 19 39  1  0  0  0  0
 21 40  1  0  0  0  0
 24 41  1  0  0  0  0
 25 42  1  0  0  0  0
 25 43  1  0  0  0  0
 25 44  1  0  0  0  0
 26 45  1  0  0  0  0
 27 46  1  0  0  0  0
 27 47  1  0  0  0  0
 28 48  1  0  0  0  0
 28 49  1  0  0  0  0
M  END
> <Name>
33

> <IC50[uM]>
0.008

$$$$
33
  -OEChem-05192314333D
 Structure written by MMmdl.
 49 53  0     1  0  0  0  0  0999 V2000
   -6.3918   12.3765  -12.0158 C   0  0  0  0  0  0  0  0  0  0  0  0
   -6.5335   11.8201  -10.7317 C   0  0  0  0  0  0  0  0  0  0  0  0
   -7.7273   10.5795  -13.0319 C   0  0  0  0  0  0  0  0  0  0  0  0
   -7.0082   11.7773  -13.1176 C   0  0  0  0  0  0  0  0  0  0  0  0
   -7.8294   10.0116  -11.7546 C   0  0  3  0  0  0  0  0  0  0  0  0
   -7.2533   10.6299  -10.5984 C   0  0  0  0  0  0  0  0  0  0  0  0
   -7.6133    9.7501   -9.5115 C   0  0  0  0  0  0  0  0  0  0  0  0
   -8.2802    8.7340   -9.9853 N   0  0  0  0  0  0  0  0  0  0  0  0
   -8.4149    8.8602  -11.2994 N   0  0  0  0  0  0  0  0  0  0  0  0
   -7.3368    9.8898   -8.0240 C   0  0  0  0  0  0  0  0  0  0  0  0
   -4.3580   13.5891  -11.5451 N   0  0  0  0  0  0  0  0  0  0  0  0
   -5.5327   13.6029  -12.2131 C   0  0  0  0  0  0  0  0  0  0  0  0
   -5.8791   14.5089  -12.9726 O   0  0  0  0  0  0  0  0  0  0  0  0
   -5.9622   10.4818   -7.7351 C   0  0  0  0  0  0  0  0  0  0  0  0
   -5.8525   11.7570   -7.1642 C   0  0  0  0  0  0  0  0  0  0  0  0
   -4.5920   12.3049   -6.9193 C   0  0  0  0  0  0  0  0  0  0  0  0
   -3.4386   11.5825   -7.2408 C   0  0  0  0  0  0  0  0  0  0  0  0
   -3.5579   10.3128   -7.8038 C   0  0  0  0  0  0  0  0  0  0  0  0
   -4.8126    9.7642   -8.0521 C   0  0  0  0  0  0  0  0  0  0  0  0
   -2.0919   12.1643   -6.9829 C   0  0  0  0  0  0  0  0  0  0  0  0
   -1.7362   13.4287   -6.5051 C   0  0  0  0  0  0  0  0  0  0  0  0
   -0.4017   13.4552   -6.4435 N   0  0  0  0  0  0  0  0  0  0  0  0
    0.1850   12.3496   -6.8156 N   0  0  0  0  0  0  0  0  0  0  0  0
   -0.8078   11.5460   -7.1722 C   0  0  0  0  0  0  0  0  0  0  0  0
    0.4351   14.5688   -6.0125 C   0  0  0  0  0  0  0  0  0  0  0  0
   -3.3172   14.5865  -11.7755 C   0  0  0  0  0  0  0  0  0  0  0  0
   -1.8924   14.0513  -11.7355 C   0  0  0  0  0  0  0  0  0  0  0  0
   -2.3932   14.9579  -10.6450 C   0  0  0  0  0  0  0  0  0  0  0  0
   -6.0964   12.3014   -9.8693 H   0  0  0  0  0  0  0  0  0  0  0  0
   -8.1772   10.1197  -13.8994 H   0  0  0  0  0  0  0  0  0  0  0  0
   -6.9259   12.2608  -14.0798 H   0  0  0  0  0  0  0  0  0  0  0  0
   -8.7677   10.5596  -11.5832 H   0  0  0  0  0  0  0  0  0  0  0  0
   -8.0380    9.6010   -7.2550 H   0  0  0  0  0  0  0  0  0  0  0  0
   -4.1960   12.8702  -10.8691 H   0  0  0  0  0  0  0  0  0  0  0  0
   -6.7424   12.3154   -6.9139 H   0  0  0  0  0  0  0  0  0  0  0  0
   -4.5075   13.2883   -6.4808 H   0  0  0  0  0  0  0  0  0  0  0  0
   -2.6693    9.7502   -8.0493 H   0  0  0  0  0  0  0  0  0  0  0  0
   -4.8629    8.8200   -7.4901 H   0  0  0  0  0  0  0  0  0  0  0  0
   -4.8583    9.5519   -9.1305 H   0  0  0  0  0  0  0  0  0  0  0  0
   -2.4097   14.2294   -6.2375 H   0  0  0  0  0  0  0  0  0  0  0  0
   -0.6685   10.5471   -7.5584 H   0  0  0  0  0  0  0  0  0  0  0  0
    1.4941   14.2779   -6.0748 H   0  0  0  0  0  0  0  0  0  0  0  0
    0.2544   15.4366   -6.6639 H   0  0  0  0  0  0  0  0  0  0  0  0
    0.1879   14.8324   -4.9736 H   0  0  0  0  0  0  0  0  0  0  0  0
   -3.5215   15.3697  -12.5204 H   0  0  0  0  0  0  0  0  0  0  0  0
   -1.7095   12.9870  -11.5263 H   0  0  0  0  0  0  0  0  0  0  0  0
   -1.1463   14.4168  -12.4564 H   0  0  0  0  0  0  0  0  0  0  0  0
   -2.0084   15.9854  -10.5669 H   0  0  0  0  0  0  0  0  0  0  0  0
   -2.5716   14.5556   -9.6369 H   0  0  0  0  0  0  0  0  0  0  0  0
  1  2  2  0  0  0  0
  1  4  1  0  0  0  0
  1 12  1  0  0  0  0
  2  6  1  0  0  0  0
  3  4  2  0  0  0  0
  3  5  1  0  0  0  0
  5  6  1  0  0  0  0
  5  9  1  0  0  0  0
  6  7  2  0  0  0  0
  7  8  1  0  0  0  0
  7 10  1  0  0  0  0
  8  9  2  0  0  0  0
 10 14  2  3  0  0  0
 11 12  1  0  0  0  0
 11 26  1  0  0  0  0
 12 13  2  0  0  0  0
 14 15  1  0  0  0  0
 14 19  1  0  0  0  0
 15 16  2  0  0  0  0
 16 17  1  0  0  0  0
 17 18  2  0  0  0  0
 17 20  1  0  0  0  0
 18 19  1  0  0  0  0
 20 21  2  0  0  0  0
 20 24  1  0  0  0  0
 21 22  1  0  0  0  0
 22 23  1  0  0  0  0
 22 25  1  0  0  0  0
 23 24  2  0  0  0  0
 26 27  1  0  0  0  0
 26 28  1  0  0  0  0
 27 28  1  0  0  0  0
  2 29  1  0  0  0  0
  3 30  1  0  0  0  0
  4 31  1  0  0  0  0
  5 32  1  0  0  0  0
 10 33  1  0  0  0  0
 11 34  1  0  0  0  0
 15 35  1  0  0  0  0
 16 36  1  0  0  0  0
 18 37  1  0  0  0  0
 19 38  1  0  0  0  0
 19 39  1  0  0  0  0
 21 40  1  0  0  0  0
 24 41  1  0  0  0  0
 25 42  1  0  0  0  0
 25 43  1  0  0  0  0
 25 44  1  0  0  0  0
 26 45  1  0  0  0  0
 27 46  1  0  0  0  0
 27 47  1  0  0  0  0
 28 48  1  0  0  0  0
 28 49  1  0  0  0  0
M  END
> <Name>
33

> <IC50[uM]>
0.008

$$$$
33
  -OEChem-05192314333D
 Structure written by MMmdl.
 49 53  0     0  0  0  0  0  0999 V2000
   -6.3918   12.3765  -12.0158 C   0  0  0  0  0  0  0  0  0  0  0  0
   -6.5335   11.8201  -10.7317 C   0  0  0  0  0  0  0  0  0  0  0  0
   -7.7273   10.5795  -13.0319 C   0  0  0  0  0  0  0  0  0  0  0  0
   -7.0082   11.7773  -13.1176 C   0  0  0  0  0  0  0  0  0  0  0  0
   -7.8294   10.0116  -11.7546 C   0  0  0  0  0  0  0  0  0  0  0  0
   -7.2533   10.6299  -10.5984 C   0  0  0  0  0  0  0  0  0  0  0  0
   -7.6133    9.7501   -9.5115 C   0  0  0  0  0  0  0  0  0  0  0  0
   -8.2802    8.7340   -9.9853 N   0  0  0  0  0  0  0  0  0  0  0  0
   -8.4149    8.8602  -11.2994 N   0  0  0  0  0  0  0  0  0  0  0  0
   -7.3368    9.8898   -8.0240 C   0  0  0  0  0  0  0  0  0  0  0  0
   -4.3580   13.5891  -11.5451 N   0  0  0  0  0  0  0  0  0  0  0  0
   -5.5327   13.6029  -12.2131 C   0  0  0  0  0  0  0  0  0  0  0  0
   -5.8791   14.5089  -12.9726 O   0  0  0  0  0  0  0  0  0  0  0  0
   -5.9622   10.4818   -7.7351 C   0  0  0  0  0  0  0  0  0  0  0  0
   -5.8525   11.7570   -7.1642 C   0  0  0  0  0  0  0  0  0  0  0  0
   -4.5920   12.3049   -6.9193 C   0  0  0  0  0  0  0  0  0  0  0  0
   -3.4386   11.5825   -7.2408 C   0  0  0  0  0  0  0  0  0  0  0  0
   -3.5579   10.3128   -7.8038 C   0  0  0  0  0  0  0  0  0  0  0  0
   -4.8126    9.7642   -8.0521 C   0  0  0  0  0  0  0  0  0  0  0  0
   -2.0919   12.1643   -6.9829 C   0  0  0  0  0  0  0  0  0  0  0  0
   -1.7362   13.4287   -6.5051 C   0  0  0  0  0  0  0  0  0  0  0  0
   -0.4017   13.4552   -6.4435 N   0  0  0  0  0  0  0  0  0  0  0  0
    0.1850   12.3496   -6.8156 N   0  0  0  0  0  0  0  0  0  0  0  0
   -0.8078   11.5460   -7.1722 C   0  0  0  0  0  0  0  0  0  0  0  0
    0.4351   14.5688   -6.0125 C   0  0  0  0  0  0  0  0  0  0  0  0
   -3.3172   14.5865  -11.7755 C   0  0  0  0  0  0  0  0  0  0  0  0
   -1.8924   14.0513  -11.7355 C   0  0  0  0  0  0  0  0  0  0  0  0
   -2.3932   14.9579  -10.6450 C   0  0  0  0  0  0  0  0  0  0  0  0
   -6.0964   12.3014   -9.8693 H   0  0  0  0  0  0  0  0  0  0  0  0
   -8.1772   10.1197  -13.8994 H   0  0  0  0  0  0  0  0  0  0  0  0
   -7.7108   12.5246  -13.5150 H   0  0  0  0  0  0  0  0  0  0  0  0
   -6.2088   11.5987  -13.8518 H   0  0  0  0  0  0  0  0  0  0  0  0
   -8.0380    9.6010   -7.2550 H   0  0  0  0  0  0  0  0  0  0  0  0
   -4.1960   12.8702  -10.8691 H   0  0  0  0  0  0  0  0  0  0  0  0
   -6.7424   12.3154   -6.9139 H   0  0  0  0  0  0  0  0  0  0  0  0
   -4.5075   13.2883   -6.4808 H   0  0  0  0  0  0  0  0  0  0  0  0
   -2.6693    9.7502   -8.0493 H   0  0  0  0  0  0  0  0  0  0  0  0
   -4.8629    8.8200   -7.4901 H   0  0  0  0  0  0  0  0  0  0  0  0
   -4.8583    9.5519   -9.1305 H   0  0  0  0  0  0  0  0  0  0  0  0
   -2.4097   14.2294   -6.2375 H   0  0  0  0  0  0  0  0  0  0  0  0
   -0.6685   10.5471   -7.5584 H   0  0  0  0  0  0  0  0  0  0  0  0
    1.4941   14.2779   -6.0748 H   0  0  0  0  0  0  0  0  0  0  0  0
    0.2544   15.4366   -6.6639 H   0  0  0  0  0  0  0  0  0  0  0  0
    0.1879   14.8324   -4.9736 H   0  0  0  0  0  0  0  0  0  0  0  0
   -3.5215   15.3697  -12.5204 H   0  0  0  0  0  0  0  0  0  0  0  0
   -1.7095   12.9870  -11.5263 H   0  0  0  0  0  0  0  0  0  0  0  0
   -1.1463   14.4168  -12.4564 H   0  0  0  0  0  0  0  0  0  0  0  0
   -2.0084   15.9854  -10.5669 H   0  0  0  0  0  0  0  0  0  0  0  0
   -2.5716   14.5556   -9.6369 H   0  0  0  0  0  0  0  0  0  0  0  0
  1  2  2  0  0  0  0
  1  4  1  0  0  0  0
  1 12  1  0  0  0  0
  2  6  1  0  0  0  0
  3  4  1  0  0  0  0
  3  5  2  0  0  0  0
  5  6  1  0  0  0  0
  5  9  1  0  0  0  0
  6  7  2  0  0  0  0
  7  8  1  0  0  0  0
  7 10  1  0  0  0  0
  8  9  2  0  0  0  0
 10 14  2  3  0  0  0
 11 12  1  0  0  0  0
 11 26  1  0  0  0  0
 12 13  2  0  0  0  0
 14 15  1  0  0  0  0
 14 19  1  0  0  0  0
 15 16  2  0  0  0  0
 16 17  1  0  0  0  0
 17 18  2  0  0  0  0
 17 20  1  0  0  0  0
 18 19  1  0  0  0  0
 20 21  2  0  0  0  0
 20 24  1  0  0  0  0
 21 22  1  0  0  0  0
 22 23  1  0  0  0  0
 22 25  1  0  0  0  0
 23 24  2  0  0  0  0
 26 27  1  0  0  0  0
 26 28  1  0  0  0  0
 27 28  1  0  0  0  0
  2 29  1  0  0  0  0
  3 30  1  0  0  0  0
  4 31  1  0  0  0  0
  4 32  1  0  0  0  0
 10 33  1  0  0  0  0
 11 34  1  0  0  0  0
 15 35  1  0  0  0  0
 16 36  1  0  0  0  0
 18 37  1  0  0  0  0
 19 38  1  0  0  0  0
 19 39  1  0  0  0  0
 21 40  1  0  0  0  0
 24 41  1  0  0  0  0
 25 42  1  0  0  0  0
 25 43  1  0  0  0  0
 25 44  1  0  0  0  0
 26 45  1  0  0  0  0
 27 46  1  0  0  0  0
 27 47  1  0  0  0  0
 28 48  1  0  0  0  0
 28 49  1  0  0  0  0
M  END
> <Name>
33

> <IC50[uM]>
0.008

$$$$
33
  -OEChem-05192314333D
 Structure written by MMmdl.
 49 53  0     0  0  0  0  0  0999 V2000
   -6.3918   12.3765  -12.0158 C   0  0  0  0  0  0  0  0  0  0  0  0
   -6.5335   11.8201  -10.7317 C   0  0  0  0  0  0  0  0  0  0  0  0
   -7.7273   10.5795  -13.0319 C   0  0  0  0  0  0  0  0  0  0  0  0
   -7.0082   11.7773  -13.1176 C   0  0  0  0  0  0  0  0  0  0  0  0
   -7.8294   10.0116  -11.7546 C   0  0  0  0  0  0  0  0  0  0  0  0
   -7.2533   10.6299  -10.5984 C   0  0  0  0  0  0  0  0  0  0  0  0
   -7.6133    9.7501   -9.5115 C   0  0  0  0  0  0  0  0  0  0  0  0
   -8.2802    8.7340   -9.9853 N   0  0  0  0  0  0  0  0  0  0  0  0
   -8.4149    8.8602  -11.2994 N   0  0  0  0  0  0  0  0  0  0  0  0
   -7.3368    9.8898   -8.0240 C   0  0  0  0  0  0  0  0  0  0  0  0
   -4.3580   13.5891  -11.5451 N   0  0  0  0  0  0  0  0  0  0  0  0
   -5.5327   13.6029  -12.2131 C   0  0  0  0  0  0  0  0  0  0  0  0
   -5.8791   14.5089  -12.9726 O   0  0  0  0  0  0  0  0  0  0  0  0
   -5.9622   10.4818   -7.7351 C   0  0  0  0  0  0  0  0  0  0  0  0
   -5.8525   11.7570   -7.1642 C   0  0  0  0  0  0  0  0  0  0  0  0
   -4.5920   12.3049   -6.9193 C   0  0  0  0  0  0  0  0  0  0  0  0
   -3.4386   11.5825   -7.2408 C   0  0  0  0  0  0  0  0  0  0  0  0
   -3.5579   10.3128   -7.8038 C   0  0  0  0  0  0  0  0  0  0  0  0
   -4.8126    9.7642   -8.0521 C   0  0  0  0  0  0  0  0  0  0  0  0
   -2.0919   12.1643   -6.9829 C   0  0  0  0  0  0  0  0  0  0  0  0
   -1.7362   13.4287   -6.5051 C   0  0  0  0  0  0  0  0  0  0  0  0
   -0.4017   13.4552   -6.4435 N   0  0  0  0  0  0  0  0  0  0  0  0
    0.1850   12.3496   -6.8156 N   0  0  0  0  0  0  0  0  0  0  0  0
   -0.8078   11.5460   -7.1722 C   0  0  0  0  0  0  0  0  0  0  0  0
    0.4351   14.5688   -6.0125 C   0  0  0  0  0  0  0  0  0  0  0  0
   -3.3172   14.5865  -11.7755 C   0  0  0  0  0  0  0  0  0  0  0  0
   -1.8924   14.0513  -11.7355 C   0  0  0  0  0  0  0  0  0  0  0  0
   -2.3932   14.9579  -10.6450 C   0  0  0  0  0  0  0  0  0  0  0  0
   -5.5209   11.6327  -10.3450 H   0  0  0  0  0  0  0  0  0  0  0  0
   -7.0320   12.5735  -10.1041 H   0  0  0  0  0  0  0  0  0  0  0  0
   -8.1772   10.1197  -13.8994 H   0  0  0  0  0  0  0  0  0  0  0  0
   -6.9259   12.2608  -14.0798 H   0  0  0  0  0  0  0  0  0  0  0  0
   -8.0380    9.6010   -7.2550 H   0  0  0  0  0  0  0  0  0  0  0  0
   -4.1960   12.8702  -10.8691 H   0  0  0  0  0  0  0  0  0  0  0  0
   -6.7424   12.3154   -6.9139 H   0  0  0  0  0  0  0  0  0  0  0  0
   -4.5075   13.2883   -6.4808 H   0  0  0  0  0  0  0  0  0  0  0  0
   -3.4391   12.0287   -8.2463 H   0  0  0  0  0  0  0  0  0  0  0  0
   -2.6693    9.7502   -8.0493 H   0  0  0  0  0  0  0  0  0  0  0  0
   -4.8943    8.7808   -8.4911 H   0  0  0  0  0  0  0  0  0  0  0  0
   -2.4097   14.2294   -6.2375 H   0  0  0  0  0  0  0  0  0  0  0  0
   -0.6685   10.5471   -7.5584 H   0  0  0  0  0  0  0  0  0  0  0  0
    1.4941   14.2779   -6.0748 H   0  0  0  0  0  0  0  0  0  0  0  0
    0.2544   15.4366   -6.6639 H   0  0  0  0  0  0  0  0  0  0  0  0
    0.1879   14.8324   -4.9736 H   0  0  0  0  0  0  0  0  0  0  0  0
   -3.5215   15.3697  -12.5204 H   0  0  0  0  0  0  0  0  0  0  0  0
   -1.7095   12.9870  -11.5263 H   0  0  0  0  0  0  0  0  0  0  0  0
   -1.1463   14.4168  -12.4564 H   0  0  0  0  0  0  0  0  0  0  0  0
   -2.0084   15.9854  -10.5669 H   0  0  0  0  0  0  0  0  0  0  0  0
   -2.5716   14.5556   -9.6369 H   0  0  0  0  0  0  0  0  0  0  0  0
  1  2  1  0  0  0  0
  1  4  2  0  0  0  0
  1 12  1  0  0  0  0
  2  6  1  0  0  0  0
  3  4  1  0  0  0  0
  3  5  2  0  0  0  0
  5  6  1  0  0  0  0
  5  9  1  0  0  0  0
  6  7  2  0  0  0  0
  7  8  1  0  0  0  0
  7 10  1  0  0  0  0
  8  9  2  0  0  0  0
 10 14  2  0  0  0  0
 11 12  1  0  0  0  0
 11 26  1  0  0  0  0
 12 13  2  0  0  0  0
 14 15  1  0  0  0  0
 14 19  1  0  0  0  0
 15 16  2  0  0  0  0
 16 17  1  0  0  0  0
 17 18  1  0  0  0  0
 17 20  1  0  0  0  0
 18 19  2  0  0  0  0
 20 21  2  0  0  0  0
 20 24  1  0  0  0  0
 21 22  1  0  0  0  0
 22 23  1  0  0  0  0
 22 25  1  0  0  0  0
 23 24  2  0  0  0  0
 26 27  1  0  0  0  0
 26 28  1  0  0  0  0
 27 28  1  0  0  0  0
  2 29  1  0  0  0  0
  2 30  1  0  0  0  0
  3 31  1  0  0  0  0
  4 32  1  0  0  0  0
 10 33  1  0  0  0  0
 11 34  1  0  0  0  0
 15 35  1  0  0  0  0
 16 36  1  0  0  0  0
 17 37  1  0  0  0  0
 18 38  1  0  0  0  0
 19 39  1  0  0  0  0
 21 40  1  0  0  0  0
 24 41  1  0  0  0  0
 25 42  1  0  0  0  0
 25 43  1  0  0  0  0
 25 44  1  0  0  0  0
 26 45  1  0  0  0  0
 27 46  1  0  0  0  0
 27 47  1  0  0  0  0
 28 48  1  0  0  0  0
 28 49  1  0  0  0  0
M  END
> <Name>
33

> <IC50[uM]>
0.008

$$$$
33
  -OEChem-05192314333D
 Structure written by MMmdl.
 49 53  0     0  0  0  0  0  0999 V2000
   -6.3918   12.3765  -12.0158 C   0  0  0  0  0  0  0  0  0  0  0  0
   -6.5335   11.8201  -10.7317 C   0  0  0  0  0  0  0  0  0  0  0  0
   -7.7273   10.5795  -13.0319 C   0  0  0  0  0  0  0  0  0  0  0  0
   -7.0082   11.7773  -13.1176 C   0  0  0  0  0  0  0  0  0  0  0  0
   -7.8294   10.0116  -11.7546 C   0  0  0  0  0  0  0  0  0  0  0  0
   -7.2533   10.6299  -10.5984 C   0  0  0  0  0  0  0  0  0  0  0  0
   -7.6133    9.7501   -9.5115 C   0  0  0  0  0  0  0  0  0  0  0  0
   -8.2802    8.7340   -9.9853 N   0  0  0  0  0  0  0  0  0  0  0  0
   -8.4149    8.8602  -11.2994 N   0  0  0  0  0  0  0  0  0  0  0  0
   -7.3368    9.8898   -8.0240 C   0  0  0  0  0  0  0  0  0  0  0  0
   -4.3580   13.5891  -11.5451 N   0  0  0  0  0  0  0  0  0  0  0  0
   -5.5327   13.6029  -12.2131 C   0  0  0  0  0  0  0  0  0  0  0  0
   -5.8791   14.5089  -12.9726 O   0  0  0  0  0  0  0  0  0  0  0  0
   -5.9622   10.4818   -7.7351 C   0  0  0  0  0  0  0  0  0  0  0  0
   -5.8525   11.7570   -7.1642 C   0  0  0  0  0  0  0  0  0  0  0  0
   -4.5920   12.3049   -6.9193 C   0  0  0  0  0  0  0  0  0  0  0  0
   -3.4386   11.5825   -7.2408 C   0  0  0  0  0  0  0  0  0  0  0  0
   -3.5579   10.3128   -7.8038 C   0  0  0  0  0  0  0  0  0  0  0  0
   -4.8126    9.7642   -8.0521 C   0  0  0  0  0  0  0  0  0  0  0  0
   -2.0919   12.1643   -6.9829 C   0  0  0  0  0  0  0  0  0  0  0  0
   -1.7362   13.4287   -6.5051 C   0  0  0  0  0  0  0  0  0  0  0  0
   -0.4017   13.4552   -6.4435 N   0  0  0  0  0  0  0  0  0  0  0  0
    0.1850   12.3496   -6.8156 N   0  0  0  0  0  0  0  0  0  0  0  0
   -0.8078   11.5460   -7.1722 C   0  0  0  0  0  0  0  0  0  0  0  0
    0.4351   14.5688   -6.0125 C   0  0  0  0  0  0  0  0  0  0  0  0
   -3.3172   14.5865  -11.7755 C   0  0  0  0  0  0  0  0  0  0  0  0
   -1.8924   14.0513  -11.7355 C   0  0  0  0  0  0  0  0  0  0  0  0
   -2.3932   14.9579  -10.6450 C   0  0  0  0  0  0  0  0  0  0  0  0
   -5.5209   11.6327  -10.3450 H   0  0  0  0  0  0  0  0  0  0  0  0
   -7.0320   12.5735  -10.1041 H   0  0  0  0  0  0  0  0  0  0  0  0
   -8.1772   10.1197  -13.8994 H   0  0  0  0  0  0  0  0  0  0  0  0
   -6.9259   12.2608  -14.0798 H   0  0  0  0  0  0  0  0  0  0  0  0
   -8.0380    9.6010   -7.2550 H   0  0  0  0  0  0  0  0  0  0  0  0
   -4.1960   12.8702  -10.8691 H   0  0  0  0  0  0  0  0  0  0  0  0
   -6.7424   12.3154   -6.9139 H   0  0  0  0  0  0  0  0  0  0  0  0
   -4.5075   13.2883   -6.4808 H   0  0  0  0  0  0  0  0  0  0  0  0
   -2.6693    9.7502   -8.0493 H   0  0  0  0  0  0  0  0  0  0  0  0
   -4.8629    8.8200   -7.4901 H   0  0  0  0  0  0  0  0  0  0  0  0
   -4.8583    9.5519   -9.1305 H   0  0  0  0  0  0  0  0  0  0  0  0
   -2.4097   14.2294   -6.2375 H   0  0  0  0  0  0  0  0  0  0  0  0
   -0.6685   10.5471   -7.5584 H   0  0  0  0  0  0  0  0  0  0  0  0
    1.4941   14.2779   -6.0748 H   0  0  0  0  0  0  0  0  0  0  0  0
    0.2544   15.4366   -6.6639 H   0  0  0  0  0  0  0  0  0  0  0  0
    0.1879   14.8324   -4.9736 H   0  0  0  0  0  0  0  0  0  0  0  0
   -3.5215   15.3697  -12.5204 H   0  0  0  0  0  0  0  0  0  0  0  0
   -1.7095   12.9870  -11.5263 H   0  0  0  0  0  0  0  0  0  0  0  0
   -1.1463   14.4168  -12.4564 H   0  0  0  0  0  0  0  0  0  0  0  0
   -2.0084   15.9854  -10.5669 H   0  0  0  0  0  0  0  0  0  0  0  0
   -2.5716   14.5556   -9.6369 H   0  0  0  0  0  0  0  0  0  0  0  0
  1  2  1  0  0  0  0
  1  4  2  0  0  0  0
  1 12  1  0  0  0  0
  2  6  1  0  0  0  0
  3  4  1  0  0  0  0
  3  5  2  0  0  0  0
  5  6  1  0  0  0  0
  5  9  1  0  0  0  0
  6  7  2  0  0  0  0
  7  8  1  0  0  0  0
  7 10  1  0  0  0  0
  8  9  2  0  0  0  0
 10 14  2  3  0  0  0
 11 12  1  0  0  0  0
 11 26  1  0  0  0  0
 12 13  2  0  0  0  0
 14 15  1  0  0  0  0
 14 19  1  0  0  0  0
 15 16  2  0  0  0  0
 16 17  1  0  0  0  0
 17 18  2  0  0  0  0
 17 20  1  0  0  0  0
 18 19  1  0  0  0  0
 20 21  2  0  0  0  0
 20 24  1  0  0  0  0
 21 22  1  0  0  0  0
 22 23  1  0  0  0  0
 22 25  1  0  0  0  0
 23 24  2  0  0  0  0
 26 27  1  0  0  0  0
 26 28  1  0  0  0  0
 27 28  1  0  0  0  0
  2 29  1  0  0  0  0
  2 30  1  0  0  0  0
  3 31  1  0  0  0  0
  4 32  1  0  0  0  0
 10 33  1  0  0  0  0
 11 34  1  0  0  0  0
 15 35  1  0  0  0  0
 16 36  1  0  0  0  0
 18 37  1  0  0  0  0
 19 38  1  0  0  0  0
 19 39  1  0  0  0  0
 21 40  1  0  0  0  0
 24 41  1  0  0  0  0
 25 42  1  0  0  0  0
 25 43  1  0  0  0  0
 25 44  1  0  0  0  0
 26 45  1  0  0  0  0
 27 46  1  0  0  0  0
 27 47  1  0  0  0  0
 28 48  1  0  0  0  0
 28 49  1  0  0  0  0
M  END
> <Name>
33

> <IC50[uM]>
0.008

$$$$
33
  -OEChem-05192314333D
 Structure written by MMmdl.
 49 53  0     1  0  0  0  0  0999 V2000
   -6.3918   12.3765  -12.0158 C   0  0  0  0  0  0  0  0  0  0  0  0
   -6.5335   11.8201  -10.7317 C   0  0  0  0  0  0  0  0  0  0  0  0
   -7.7273   10.5795  -13.0319 C   0  0  0  0  0  0  0  0  0  0  0  0
   -7.0082   11.7773  -13.1176 C   0  0  0  0  0  0  0  0  0  0  0  0
   -7.8294   10.0116  -11.7546 C   0  0  3  0  0  0  0  0  0  0  0  0
   -7.2533   10.6299  -10.5984 C   0  0  0  0  0  0  0  0  0  0  0  0
   -7.6133    9.7501   -9.5115 C   0  0  0  0  0  0  0  0  0  0  0  0
   -8.2802    8.7340   -9.9853 N   0  0  0  0  0  0  0  0  0  0  0  0
   -8.4149    8.8602  -11.2994 N   0  0  0  0  0  0  0  0  0  0  0  0
   -7.3368    9.8898   -8.0240 C   0  0  0  0  0  0  0  0  0  0  0  0
   -4.3580   13.5891  -11.5451 N   0  0  0  0  0  0  0  0  0  0  0  0
   -5.5327   13.6029  -12.2131 C   0  0  0  0  0  0  0  0  0  0  0  0
   -5.8791   14.5089  -12.9726 O   0  0  0  0  0  0  0  0  0  0  0  0
   -5.9622   10.4818   -7.7351 C   0  0  0  0  0  0  0  0  0  0  0  0
   -5.8525   11.7570   -7.1642 C   0  0  0  0  0  0  0  0  0  0  0  0
   -4.5920   12.3049   -6.9193 C   0  0  0  0  0  0  0  0  0  0  0  0
   -3.4386   11.5825   -7.2408 C   0  0  0  0  0  0  0  0  0  0  0  0
   -3.5579   10.3128   -7.8038 C   0  0  0  0  0  0  0  0  0  0  0  0
   -4.8126    9.7642   -8.0521 C   0  0  0  0  0  0  0  0  0  0  0  0
   -2.0919   12.1643   -6.9829 C   0  0  0  0  0  0  0  0  0  0  0  0
   -1.7362   13.4287   -6.5051 C   0  0  0  0  0  0  0  0  0  0  0  0
   -0.4017   13.4552   -6.4435 N   0  0  0  0  0  0  0  0  0  0  0  0
    0.1850   12.3496   -6.8156 N   0  0  0  0  0  0  0  0  0  0  0  0
   -0.8078   11.5460   -7.1722 C   0  0  0  0  0  0  0  0  0  0  0  0
    0.4351   14.5688   -6.0125 C   0  0  0  0  0  0  0  0  0  0  0  0
   -3.3172   14.5865  -11.7755 C   0  0  0  0  0  0  0  0  0  0  0  0
   -1.8924   14.0513  -11.7355 C   0  0  0  0  0  0  0  0  0  0  0  0
   -2.3932   14.9579  -10.6450 C   0  0  0  0  0  0  0  0  0  0  0  0
   -6.0964   12.3014   -9.8693 H   0  0  0  0  0  0  0  0  0  0  0  0
   -8.1772   10.1197  -13.8994 H   0  0  0  0  0  0  0  0  0  0  0  0
   -6.9259   12.2608  -14.0798 H   0  0  0  0  0  0  0  0  0  0  0  0
   -8.7677   10.5596  -11.5832 H   0  0  0  0  0  0  0  0  0  0  0  0
   -8.0380    9.6010   -7.2550 H   0  0  0  0  0  0  0  0  0  0  0  0
   -5.2205   15.1935  -12.9707 H   0  0  0  0  0  0  0  0  0  0  0  0
   -6.7424   12.3154   -6.9139 H   0  0  0  0  0  0  0  0  0  0  0  0
   -4.5075   13.2883   -6.4808 H   0  0  0  0  0  0  0  0  0  0  0  0
   -3.4391   12.0287   -8.2463 H   0  0  0  0  0  0  0  0  0  0  0  0
   -2.6693    9.7502   -8.0493 H   0  0  0  0  0  0  0  0  0  0  0  0
   -4.8943    8.7808   -8.4911 H   0  0  0  0  0  0  0  0  0  0  0  0
   -2.4097   14.2294   -6.2375 H   0  0  0  0  0  0  0  0  0  0  0  0
   -0.6685   10.5471   -7.5584 H   0  0  0  0  0  0  0  0  0  0  0  0
    1.4941   14.2779   -6.0748 H   0  0  0  0  0  0  0  0  0  0  0  0
    0.2544   15.4366   -6.6639 H   0  0  0  0  0  0  0  0  0  0  0  0
    0.1879   14.8324   -4.9736 H   0  0  0  0  0  0  0  0  0  0  0  0
   -3.5215   15.3697  -12.5204 H   0  0  0  0  0  0  0  0  0  0  0  0
   -1.7095   12.9870  -11.5263 H   0  0  0  0  0  0  0  0  0  0  0  0
   -1.1463   14.4168  -12.4564 H   0  0  0  0  0  0  0  0  0  0  0  0
   -2.0084   15.9854  -10.5669 H   0  0  0  0  0  0  0  0  0  0  0  0
   -2.5716   14.5556   -9.6369 H   0  0  0  0  0  0  0  0  0  0  0  0
  1  2  2  0  0  0  0
  1  4  1  0  0  0  0
  1 12  1  0  0  0  0
  2  6  1  0  0  0  0
  3  4  2  0  0  0  0
  3  5  1  0  0  0  0
  5  6  1  0  0  0  0
  5  9  1  0  0  0  0
  6  7  2  0  0  0  0
  7  8  1  0  0  0  0
  7 10  1  0  0  0  0
  8  9  2  0  0  0  0
 10 14  2  0  0  0  0
 11 12  2  0  0  0  0
 11 26  1  0  0  0  0
 12 13  1  0  0  0  0
 14 15  1  0  0  0  0
 14 19  1  0  0  0  0
 15 16  2  0  0  0  0
 16 17  1  0  0  0  0
 17 18  1  0  0  0  0
 17 20  1  0  0  0  0
 18 19  2  0  0  0  0
 20 21  2  0  0  0  0
 20 24  1  0  0  0  0
 21 22  1  0  0  0  0
 22 23  1  0  0  0  0
 22 25  1  0  0  0  0
 23 24  2  0  0  0  0
 26 27  1  0  0  0  0
 26 28  1  0  0  0  0
 27 28  1  0  0  0  0
  2 29  1  0  0  0  0
  3 30  1  0  0  0  0
  4 31  1  0  0  0  0
  5 32  1  0  0  0  0
 10 33  1  0  0  0  0
 13 34  1  0  0  0  0
 15 35  1  0  0  0  0
 16 36  1  0  0  0  0
 17 37  1  0  0  0  0
 18 38  1  0  0  0  0
 19 39  1  0  0  0  0
 21 40  1  0  0  0  0
 24 41  1  0  0  0  0
 25 42  1  0  0  0  0
 25 43  1  0  0  0  0
 25 44  1  0  0  0  0
 26 45  1  0  0  0  0
 27 46  1  0  0  0  0
 27 47  1  0  0  0  0
 28 48  1  0  0  0  0
 28 49  1  0  0  0  0
M  END
> <Name>
33

> <IC50[uM]>
0.008

$$$$
33
  -OEChem-05192314333D
 Structure written by MMmdl.
 49 53  0     0  0  0  0  0  0999 V2000
   -6.3918   12.3765  -12.0158 C   0  0  0  0  0  0  0  0  0  0  0  0
   -6.5335   11.8201  -10.7317 C   0  0  0  0  0  0  0  0  0  0  0  0
   -7.7273   10.5795  -13.0319 C   0  0  0  0  0  0  0  0  0  0  0  0
   -7.0082   11.7773  -13.1176 C   0  0  0  0  0  0  0  0  0  0  0  0
   -7.8294   10.0116  -11.7546 C   0  0  0  0  0  0  0  0  0  0  0  0
   -7.2533   10.6299  -10.5984 C   0  0  0  0  0  0  0  0  0  0  0  0
   -7.6133    9.7501   -9.5115 C   0  0  0  0  0  0  0  0  0  0  0  0
   -8.2802    8.7340   -9.9853 N   0  0  0  0  0  0  0  0  0  0  0  0
   -8.4149    8.8602  -11.2994 N   0  0  0  0  0  0  0  0  0  0  0  0
   -7.3368    9.8898   -8.0240 C   0  0  0  0  0  0  0  0  0  0  0  0
   -4.3580   13.5891  -11.5451 N   0  0  0  0  0  0  0  0  0  0  0  0
   -5.5327   13.6029  -12.2131 C   0  0  0  0  0  0  0  0  0  0  0  0
   -5.8791   14.5089  -12.9726 O   0  0  0  0  0  0  0  0  0  0  0  0
   -5.9622   10.4818   -7.7351 C   0  0  0  0  0  0  0  0  0  0  0  0
   -5.8525   11.7570   -7.1642 C   0  0  0  0  0  0  0  0  0  0  0  0
   -4.5920   12.3049   -6.9193 C   0  0  0  0  0  0  0  0  0  0  0  0
   -3.4386   11.5825   -7.2408 C   0  0  0  0  0  0  0  0  0  0  0  0
   -3.5579   10.3128   -7.8038 C   0  0  0  0  0  0  0  0  0  0  0  0
   -4.8126    9.7642   -8.0521 C   0  0  0  0  0  0  0  0  0  0  0  0
   -2.0919   12.1643   -6.9829 C   0  0  0  0  0  0  0  0  0  0  0  0
   -1.7362   13.4287   -6.5051 C   0  0  0  0  0  0  0  0  0  0  0  0
   -0.4017   13.4552   -6.4435 N   0  0  0  0  0  0  0  0  0  0  0  0
    0.1850   12.3496   -6.8156 N   0  0  0  0  0  0  0  0  0  0  0  0
   -0.8078   11.5460   -7.1722 C   0  0  0  0  0  0  0  0  0  0  0  0
    0.4351   14.5688   -6.0125 C   0  0  0  0  0  0  0  0  0  0  0  0
   -3.3172   14.5865  -11.7755 C   0  0  0  0  0  0  0  0  0  0  0  0
   -1.8924   14.0513  -11.7355 C   0  0  0  0  0  0  0  0  0  0  0  0
   -2.3932   14.9579  -10.6450 C   0  0  0  0  0  0  0  0  0  0  0  0
   -6.0964   12.3014   -9.8693 H   0  0  0  0  0  0  0  0  0  0  0  0
   -8.1772   10.1197  -13.8994 H   0  0  0  0  0  0  0  0  0  0  0  0
   -7.7108   12.5246  -13.5150 H   0  0  0  0  0  0  0  0  0  0  0  0
   -6.2088   11.5987  -13.8518 H   0  0  0  0  0  0  0  0  0  0  0  0
   -8.0380    9.6010   -7.2550 H   0  0  0  0  0  0  0  0  0  0  0  0
   -5.2205   15.1935  -12.9707 H   0  0  0  0  0  0  0  0  0  0  0  0
   -6.7424   12.3154   -6.9139 H   0  0  0  0  0  0  0  0  0  0  0  0
   -4.5075   13.2883   -6.4808 H   0  0  0  0  0  0  0  0  0  0  0  0
   -3.4391   12.0287   -8.2463 H   0  0  0  0  0  0  0  0  0  0  0  0
   -2.6693    9.7502   -8.0493 H   0  0  0  0  0  0  0  0  0  0  0  0
   -4.8943    8.7808   -8.4911 H   0  0  0  0  0  0  0  0  0  0  0  0
   -2.4097   14.2294   -6.2375 H   0  0  0  0  0  0  0  0  0  0  0  0
   -0.6685   10.5471   -7.5584 H   0  0  0  0  0  0  0  0  0  0  0  0
    1.4941   14.2779   -6.0748 H   0  0  0  0  0  0  0  0  0  0  0  0
    0.2544   15.4366   -6.6639 H   0  0  0  0  0  0  0  0  0  0  0  0
    0.1879   14.8324   -4.9736 H   0  0  0  0  0  0  0  0  0  0  0  0
   -3.5215   15.3697  -12.5204 H   0  0  0  0  0  0  0  0  0  0  0  0
   -1.7095   12.9870  -11.5263 H   0  0  0  0  0  0  0  0  0  0  0  0
   -1.1463   14.4168  -12.4564 H   0  0  0  0  0  0  0  0  0  0  0  0
   -2.0084   15.9854  -10.5669 H   0  0  0  0  0  0  0  0  0  0  0  0
   -2.5716   14.5556   -9.6369 H   0  0  0  0  0  0  0  0  0  0  0  0
  1  2  2  0  0  0  0
  1  4  1  0  0  0  0
  1 12  1  0  0  0  0
  2  6  1  0  0  0  0
  3  4  1  0  0  0  0
  3  5  2  0  0  0  0
  5  6  1  0  0  0  0
  5  9  1  0  0  0  0
  6  7  2  0  0  0  0
  7  8  1  0  0  0  0
  7 10  1  0  0  0  0
  8  9  2  0  0  0  0
 10 14  2  0  0  0  0
 11 12  2  0  0  0  0
 11 26  1  0  0  0  0
 12 13  1  0  0  0  0
 14 15  1  0  0  0  0
 14 19  1  0  0  0  0
 15 16  2  0  0  0  0
 16 17  1  0  0  0  0
 17 18  1  0  0  0  0
 17 20  1  0  0  0  0
 18 19  2  0  0  0  0
 20 21  2  0  0  0  0
 20 24  1  0  0  0  0
 21 22  1  0  0  0  0
 22 23  1  0  0  0  0
 22 25  1  0  0  0  0
 23 24  2  0  0  0  0
 26 27  1  0  0  0  0
 26 28  1  0  0  0  0
 27 28  1  0  0  0  0
  2 29  1  0  0  0  0
  3 30  1  0  0  0  0
  4 31  1  0  0  0  0
  4 32  1  0  0  0  0
 10 33  1  0  0  0  0
 13 34  1  0  0  0  0
 15 35  1  0  0  0  0
 16 36  1  0  0  0  0
 17 37  1  0  0  0  0
 18 38  1  0  0  0  0
 19 39  1  0  0  0  0
 21 40  1  0  0  0  0
 24 41  1  0  0  0  0
 25 42  1  0  0  0  0
 25 43  1  0  0  0  0
 25 44  1  0  0  0  0
 26 45  1  0  0  0  0
 27 46  1  0  0  0  0
 27 47  1  0  0  0  0
 28 48  1  0  0  0  0
 28 49  1  0  0  0  0
M  END
> <Name>
33

> <IC50[uM]>
0.008

$$$$
33
  -OEChem-05192314333D
 Structure written by MMmdl.
 49 53  0     1  0  0  0  0  0999 V2000
   -6.3918   12.3765  -12.0158 C   0  0  0  0  0  0  0  0  0  0  0  0
   -6.5335   11.8201  -10.7317 C   0  0  0  0  0  0  0  0  0  0  0  0
   -7.7273   10.5795  -13.0319 C   0  0  0  0  0  0  0  0  0  0  0  0
   -7.0082   11.7773  -13.1176 C   0  0  0  0  0  0  0  0  0  0  0  0
   -7.8294   10.0116  -11.7546 C   0  0  3  0  0  0  0  0  0  0  0  0
   -7.2533   10.6299  -10.5984 C   0  0  0  0  0  0  0  0  0  0  0  0
   -7.6133    9.7501   -9.5115 C   0  0  0  0  0  0  0  0  0  0  0  0
   -8.2802    8.7340   -9.9853 N   0  0  0  0  0  0  0  0  0  0  0  0
   -8.4149    8.8602  -11.2994 N   0  0  0  0  0  0  0  0  0  0  0  0
   -7.3368    9.8898   -8.0240 C   0  0  0  0  0  0  0  0  0  0  0  0
   -4.3580   13.5891  -11.5451 N   0  0  0  0  0  0  0  0  0  0  0  0
   -5.5327   13.6029  -12.2131 C   0  0  0  0  0  0  0  0  0  0  0  0
   -5.8791   14.5089  -12.9726 O   0  0  0  0  0  0  0  0  0  0  0  0
   -5.9622   10.4818   -7.7351 C   0  0  0  0  0  0  0  0  0  0  0  0
   -5.8525   11.7570   -7.1642 C   0  0  0  0  0  0  0  0  0  0  0  0
   -4.5920   12.3049   -6.9193 C   0  0  0  0  0  0  0  0  0  0  0  0
   -3.4386   11.5825   -7.2408 C   0  0  0  0  0  0  0  0  0  0  0  0
   -3.5579   10.3128   -7.8038 C   0  0  0  0  0  0  0  0  0  0  0  0
   -4.8126    9.7642   -8.0521 C   0  0  0  0  0  0  0  0  0  0  0  0
   -2.0919   12.1643   -6.9829 C   0  0  0  0  0  0  0  0  0  0  0  0
   -1.7362   13.4287   -6.5051 C   0  0  0  0  0  0  0  0  0  0  0  0
   -0.4017   13.4552   -6.4435 N   0  0  0  0  0  0  0  0  0  0  0  0
    0.1850   12.3496   -6.8156 N   0  0  0  0  0  0  0  0  0  0  0  0
   -0.8078   11.5460   -7.1722 C   0  0  0  0  0  0  0  0  0  0  0  0
    0.4351   14.5688   -6.0125 C   0  0  0  0  0  0  0  0  0  0  0  0
   -3.3172   14.5865  -11.7755 C   0  0  0  0  0  0  0  0  0  0  0  0
   -1.8924   14.0513  -11.7355 C   0  0  0  0  0  0  0  0  0  0  0  0
   -2.3932   14.9579  -10.6450 C   0  0  0  0  0  0  0  0  0  0  0  0
   -6.0964   12.3014   -9.8693 H   0  0  0  0  0  0  0  0  0  0  0  0
   -8.1772   10.1197  -13.8994 H   0  0  0  0  0  0  0  0  0  0  0  0
   -6.9259   12.2608  -14.0798 H   0  0  0  0  0  0  0  0  0  0  0  0
   -8.7677   10.5596  -11.5832 H   0  0  0  0  0  0  0  0  0  0  0  0
   -8.0380    9.6010   -7.2550 H   0  0  0  0  0  0  0  0  0  0  0  0
   -5.2205   15.1935  -12.9707 H   0  0  0  0  0  0  0  0  0  0  0  0
   -6.7424   12.3154   -6.9139 H   0  0  0  0  0  0  0  0  0  0  0  0
   -4.5075   13.2883   -6.4808 H   0  0  0  0  0  0  0  0  0  0  0  0
   -2.6693    9.7502   -8.0493 H   0  0  0  0  0  0  0  0  0  0  0  0
   -4.8629    8.8200   -7.4901 H   0  0  0  0  0  0  0  0  0  0  0  0
   -4.8583    9.5519   -9.1305 H   0  0  0  0  0  0  0  0  0  0  0  0
   -2.4097   14.2294   -6.2375 H   0  0  0  0  0  0  0  0  0  0  0  0
   -0.6685   10.5471   -7.5584 H   0  0  0  0  0  0  0  0  0  0  0  0
    1.4941   14.2779   -6.0748 H   0  0  0  0  0  0  0  0  0  0  0  0
    0.2544   15.4366   -6.6639 H   0  0  0  0  0  0  0  0  0  0  0  0
    0.1879   14.8324   -4.9736 H   0  0  0  0  0  0  0  0  0  0  0  0
   -3.5215   15.3697  -12.5204 H   0  0  0  0  0  0  0  0  0  0  0  0
   -1.7095   12.9870  -11.5263 H   0  0  0  0  0  0  0  0  0  0  0  0
   -1.1463   14.4168  -12.4564 H   0  0  0  0  0  0  0  0  0  0  0  0
   -2.0084   15.9854  -10.5669 H   0  0  0  0  0  0  0  0  0  0  0  0
   -2.5716   14.5556   -9.6369 H   0  0  0  0  0  0  0  0  0  0  0  0
  1  2  2  0  0  0  0
  1  4  1  0  0  0  0
  1 12  1  0  0  0  0
  2  6  1  0  0  0  0
  3  4  2  0  0  0  0
  3  5  1  0  0  0  0
  5  6  1  0  0  0  0
  5  9  1  0  0  0  0
  6  7  2  0  0  0  0
  7  8  1  0  0  0  0
  7 10  1  0  0  0  0
  8  9  2  0  0  0  0
 10 14  2  3  0  0  0
 11 12  2  0  0  0  0
 11 26  1  0  0  0  0
 12 13  1  0  0  0  0
 14 15  1  0  0  0  0
 14 19  1  0  0  0  0
 15 16  2  0  0  0  0
 16 17  1  0  0  0  0
 17 18  2  0  0  0  0
 17 20  1  0  0  0  0
 18 19  1  0  0  0  0
 20 21  2  0  0  0  0
 20 24  1  0  0  0  0
 21 22  1  0  0  0  0
 22 23  1  0  0  0  0
 22 25  1  0  0  0  0
 23 24  2  0  0  0  0
 26 27  1  0  0  0  0
 26 28  1  0  0  0  0
 27 28  1  0  0  0  0
  2 29  1  0  0  0  0
  3 30  1  0  0  0  0
  4 31  1  0  0  0  0
  5 32  1  0  0  0  0
 10 33  1  0  0  0  0
 13 34  1  0  0  0  0
 15 35  1  0  0  0  0
 16 36  1  0  0  0  0
 18 37  1  0  0  0  0
 19 38  1  0  0  0  0
 19 39  1  0  0  0  0
 21 40  1  0  0  0  0
 24 41  1  0  0  0  0
 25 42  1  0  0  0  0
 25 43  1  0  0  0  0
 25 44  1  0  0  0  0
 26 45  1  0  0  0  0
 27 46  1  0  0  0  0
 27 47  1  0  0  0  0
 28 48  1  0  0  0  0
 28 49  1  0  0  0  0
M  END
> <Name>
33

> <IC50[uM]>
0.008

$$$$
33
  -OEChem-05192314333D
 Structure written by MMmdl.
 49 53  0     0  0  0  0  0  0999 V2000
   -6.3918   12.3765  -12.0158 C   0  0  0  0  0  0  0  0  0  0  0  0
   -6.5335   11.8201  -10.7317 C   0  0  0  0  0  0  0  0  0  0  0  0
   -7.7273   10.5795  -13.0319 C   0  0  0  0  0  0  0  0  0  0  0  0
   -7.0082   11.7773  -13.1176 C   0  0  0  0  0  0  0  0  0  0  0  0
   -7.8294   10.0116  -11.7546 C   0  0  0  0  0  0  0  0  0  0  0  0
   -7.2533   10.6299  -10.5984 C   0  0  0  0  0  0  0  0  0  0  0  0
   -7.6133    9.7501   -9.5115 C   0  0  0  0  0  0  0  0  0  0  0  0
   -8.2802    8.7340   -9.9853 N   0  0  0  0  0  0  0  0  0  0  0  0
   -8.4149    8.8602  -11.2994 N   0  0  0  0  0  0  0  0  0  0  0  0
   -7.3368    9.8898   -8.0240 C   0  0  0  0  0  0  0  0  0  0  0  0
   -4.3580   13.5891  -11.5451 N   0  0  0  0  0  0  0  0  0  0  0  0
   -5.5327   13.6029  -12.2131 C   0  0  0  0  0  0  0  0  0  0  0  0
   -5.8791   14.5089  -12.9726 O   0  0  0  0  0  0  0  0  0  0  0  0
   -5.9622   10.4818   -7.7351 C   0  0  0  0  0  0  0  0  0  0  0  0
   -5.8525   11.7570   -7.1642 C   0  0  0  0  0  0  0  0  0  0  0  0
   -4.5920   12.3049   -6.9193 C   0  0  0  0  0  0  0  0  0  0  0  0
   -3.4386   11.5825   -7.2408 C   0  0  0  0  0  0  0  0  0  0  0  0
   -3.5579   10.3128   -7.8038 C   0  0  0  0  0  0  0  0  0  0  0  0
   -4.8126    9.7642   -8.0521 C   0  0  0  0  0  0  0  0  0  0  0  0
   -2.0919   12.1643   -6.9829 C   0  0  0  0  0  0  0  0  0  0  0  0
   -1.7362   13.4287   -6.5051 C   0  0  0  0  0  0  0  0  0  0  0  0
   -0.4017   13.4552   -6.4435 N   0  0  0  0  0  0  0  0  0  0  0  0
    0.1850   12.3496   -6.8156 N   0  0  0  0  0  0  0  0  0  0  0  0
   -0.8078   11.5460   -7.1722 C   0  0  0  0  0  0  0  0  0  0  0  0
    0.4351   14.5688   -6.0125 C   0  0  0  0  0  0  0  0  0  0  0  0
   -3.3172   14.5865  -11.7755 C   0  0  0  0  0  0  0  0  0  0  0  0
   -1.8924   14.0513  -11.7355 C   0  0  0  0  0  0  0  0  0  0  0  0
   -2.3932   14.9579  -10.6450 C   0  0  0  0  0  0  0  0  0  0  0  0
   -6.0964   12.3014   -9.8693 H   0  0  0  0  0  0  0  0  0  0  0  0
   -8.1772   10.1197  -13.8994 H   0  0  0  0  0  0  0  0  0  0  0  0
   -7.7108   12.5246  -13.5150 H   0  0  0  0  0  0  0  0  0  0  0  0
   -6.2088   11.5987  -13.8518 H   0  0  0  0  0  0  0  0  0  0  0  0
   -8.0380    9.6010   -7.2550 H   0  0  0  0  0  0  0  0  0  0  0  0
   -5.2205   15.1935  -12.9707 H   0  0  0  0  0  0  0  0  0  0  0  0
   -6.7424   12.3154   -6.9139 H   0  0  0  0  0  0  0  0  0  0  0  0
   -4.5075   13.2883   -6.4808 H   0  0  0  0  0  0  0  0  0  0  0  0
   -2.6693    9.7502   -8.0493 H   0  0  0  0  0  0  0  0  0  0  0  0
   -4.8629    8.8200   -7.4901 H   0  0  0  0  0  0  0  0  0  0  0  0
   -4.8583    9.5519   -9.1305 H   0  0  0  0  0  0  0  0  0  0  0  0
   -2.4097   14.2294   -6.2375 H   0  0  0  0  0  0  0  0  0  0  0  0
   -0.6685   10.5471   -7.5584 H   0  0  0  0  0  0  0  0  0  0  0  0
    1.4941   14.2779   -6.0748 H   0  0  0  0  0  0  0  0  0  0  0  0
    0.2544   15.4366   -6.6639 H   0  0  0  0  0  0  0  0  0  0  0  0
    0.1879   14.8324   -4.9736 H   0  0  0  0  0  0  0  0  0  0  0  0
   -3.5215   15.3697  -12.5204 H   0  0  0  0  0  0  0  0  0  0  0  0
   -1.7095   12.9870  -11.5263 H   0  0  0  0  0  0  0  0  0  0  0  0
   -1.1463   14.4168  -12.4564 H   0  0  0  0  0  0  0  0  0  0  0  0
   -2.0084   15.9854  -10.5669 H   0  0  0  0  0  0  0  0  0  0  0  0
   -2.5716   14.5556   -9.6369 H   0  0  0  0  0  0  0  0  0  0  0  0
  1  2  2  0  0  0  0
  1  4  1  0  0  0  0
  1 12  1  0  0  0  0
  2  6  1  0  0  0  0
  3  4  1  0  0  0  0
  3  5  2  0  0  0  0
  5  6  1  0  0  0  0
  5  9  1  0  0  0  0
  6  7  2  0  0  0  0
  7  8  1  0  0  0  0
  7 10  1  0  0  0  0
  8  9  2  0  0  0  0
 10 14  2  3  0  0  0
 11 12  2  0  0  0  0
 11 26  1  0  0  0  0
 12 13  1  0  0  0  0
 14 15  1  0  0  0  0
 14 19  1  0  0  0  0
 15 16  2  0  0  0  0
 16 17  1  0  0  0  0
 17 18  2  0  0  0  0
 17 20  1  0  0  0  0
 18 19  1  0  0  0  0
 20 21  2  0  0  0  0
 20 24  1  0  0  0  0
 21 22  1  0  0  0  0
 22 23  1  0  0  0  0
 22 25  1  0  0  0  0
 23 24  2  0  0  0  0
 26 27  1  0  0  0  0
 26 28  1  0  0  0  0
 27 28  1  0  0  0  0
  2 29  1  0  0  0  0
  3 30  1  0  0  0  0
  4 31  1  0  0  0  0
  4 32  1  0  0  0  0
 10 33  1  0  0  0  0
 13 34  1  0  0  0  0
 15 35  1  0  0  0  0
 16 36  1  0  0  0  0
 18 37  1  0  0  0  0
 19 38  1  0  0  0  0
 19 39  1  0  0  0  0
 21 40  1  0  0  0  0
 24 41  1  0  0  0  0
 25 42  1  0  0  0  0
 25 43  1  0  0  0  0
 25 44  1  0  0  0  0
 26 45  1  0  0  0  0
 27 46  1  0  0  0  0
 27 47  1  0  0  0  0
 28 48  1  0  0  0  0
 28 49  1  0  0  0  0
M  END
> <Name>
33

> <IC50[uM]>
0.008

$$$$
33
  -OEChem-05192314333D
 Structure written by MMmdl.
 49 53  0     0  0  0  0  0  0999 V2000
   -6.3918   12.3765  -12.0158 C   0  0  0  0  0  0  0  0  0  0  0  0
   -6.5335   11.8201  -10.7317 C   0  0  0  0  0  0  0  0  0  0  0  0
   -7.7273   10.5795  -13.0319 C   0  0  0  0  0  0  0  0  0  0  0  0
   -7.0082   11.7773  -13.1176 C   0  0  0  0  0  0  0  0  0  0  0  0
   -7.8294   10.0116  -11.7546 C   0  0  0  0  0  0  0  0  0  0  0  0
   -7.2533   10.6299  -10.5984 C   0  0  0  0  0  0  0  0  0  0  0  0
   -7.6133    9.7501   -9.5115 C   0  0  0  0  0  0  0  0  0  0  0  0
   -8.2802    8.7340   -9.9853 N   0  0  0  0  0  0  0  0  0  0  0  0
   -8.4149    8.8602  -11.2994 N   0  0  0  0  0  0  0  0  0  0  0  0
   -7.3368    9.8898   -8.0240 C   0  0  0  0  0  0  0  0  0  0  0  0
   -4.3580   13.5891  -11.5451 N   0  0  0  0  0  0  0  0  0  0  0  0
   -5.5327   13.6029  -12.2131 C   0  0  0  0  0  0  0  0  0  0  0  0
   -5.8791   14.5089  -12.9726 O   0  0  0  0  0  0  0  0  0  0  0  0
   -5.9622   10.4818   -7.7351 C   0  0  0  0  0  0  0  0  0  0  0  0
   -5.8525   11.7570   -7.1642 C   0  0  0  0  0  0  0  0  0  0  0  0
   -4.5920   12.3049   -6.9193 C   0  0  0  0  0  0  0  0  0  0  0  0
   -3.4386   11.5825   -7.2408 C   0  0  0  0  0  0  0  0  0  0  0  0
   -3.5579   10.3128   -7.8038 C   0  0  0  0  0  0  0  0  0  0  0  0
   -4.8126    9.7642   -8.0521 C   0  0  0  0  0  0  0  0  0  0  0  0
   -2.0919   12.1643   -6.9829 C   0  0  0  0  0  0  0  0  0  0  0  0
   -1.7362   13.4287   -6.5051 C   0  0  0  0  0  0  0  0  0  0  0  0
   -0.4017   13.4552   -6.4435 N   0  0  0  0  0  0  0  0  0  0  0  0
    0.1850   12.3496   -6.8156 N   0  0  0  0  0  0  0  0  0  0  0  0
   -0.8078   11.5460   -7.1722 C   0  0  0  0  0  0  0  0  0  0  0  0
    0.4351   14.5688   -6.0125 C   0  0  0  0  0  0  0  0  0  0  0  0
   -3.3172   14.5865  -11.7755 C   0  0  0  0  0  0  0  0  0  0  0  0
   -1.8924   14.0513  -11.7355 C   0  0  0  0  0  0  0  0  0  0  0  0
   -2.3932   14.9579  -10.6450 C   0  0  0  0  0  0  0  0  0  0  0  0
   -5.5209   11.6327  -10.3450 H   0  0  0  0  0  0  0  0  0  0  0  0
   -7.0320   12.5735  -10.1041 H   0  0  0  0  0  0  0  0  0  0  0  0
   -8.1772   10.1197  -13.8994 H   0  0  0  0  0  0  0  0  0  0  0  0
   -6.9259   12.2608  -14.0798 H   0  0  0  0  0  0  0  0  0  0  0  0
   -8.0380    9.6010   -7.2550 H   0  0  0  0  0  0  0  0  0  0  0  0
   -5.2205   15.1935  -12.9707 H   0  0  0  0  0  0  0  0  0  0  0  0
   -6.7424   12.3154   -6.9139 H   0  0  0  0  0  0  0  0  0  0  0  0
   -4.5075   13.2883   -6.4808 H   0  0  0  0  0  0  0  0  0  0  0  0
   -3.4391   12.0287   -8.2463 H   0  0  0  0  0  0  0  0  0  0  0  0
   -2.6693    9.7502   -8.0493 H   0  0  0  0  0  0  0  0  0  0  0  0
   -4.8943    8.7808   -8.4911 H   0  0  0  0  0  0  0  0  0  0  0  0
   -2.4097   14.2294   -6.2375 H   0  0  0  0  0  0  0  0  0  0  0  0
   -0.6685   10.5471   -7.5584 H   0  0  0  0  0  0  0  0  0  0  0  0
    1.4941   14.2779   -6.0748 H   0  0  0  0  0  0  0  0  0  0  0  0
    0.2544   15.4366   -6.6639 H   0  0  0  0  0  0  0  0  0  0  0  0
    0.1879   14.8324   -4.9736 H   0  0  0  0  0  0  0  0  0  0  0  0
   -3.5215   15.3697  -12.5204 H   0  0  0  0  0  0  0  0  0  0  0  0
   -1.7095   12.9870  -11.5263 H   0  0  0  0  0  0  0  0  0  0  0  0
   -1.1463   14.4168  -12.4564 H   0  0  0  0  0  0  0  0  0  0  0  0
   -2.0084   15.9854  -10.5669 H   0  0  0  0  0  0  0  0  0  0  0  0
   -2.5716   14.5556   -9.6369 H   0  0  0  0  0  0  0  0  0  0  0  0
  1  2  1  0  0  0  0
  1  4  2  0  0  0  0
  1 12  1  0  0  0  0
  2  6  1  0  0  0  0
  3  4  1  0  0  0  0
  3  5  2  0  0  0  0
  5  6  1  0  0  0  0
  5  9  1  0  0  0  0
  6  7  2  0  0  0  0
  7  8  1  0  0  0  0
  7 10  1  0  0  0  0
  8  9  2  0  0  0  0
 10 14  2  0  0  0  0
 11 12  2  0  0  0  0
 11 26  1  0  0  0  0
 12 13  1  0  0  0  0
 14 15  1  0  0  0  0
 14 19  1  0  0  0  0
 15 16  2  0  0  0  0
 16 17  1  0  0  0  0
 17 18  1  0  0  0  0
 17 20  1  0  0  0  0
 18 19  2  0  0  0  0
 20 21  2  0  0  0  0
 20 24  1  0  0  0  0
 21 22  1  0  0  0  0
 22 23  1  0  0  0  0
 22 25  1  0  0  0  0
 23 24  2  0  0  0  0
 26 27  1  0  0  0  0
 26 28  1  0  0  0  0
 27 28  1  0  0  0  0
  2 29  1  0  0  0  0
  2 30  1  0  0  0  0
  3 31  1  0  0  0  0
  4 32  1  0  0  0  0
 10 33  1  0  0  0  0
 13 34  1  0  0  0  0
 15 35  1  0  0  0  0
 16 36  1  0  0  0  0
 17 37  1  0  0  0  0
 18 38  1  0  0  0  0
 19 39  1  0  0  0  0
 21 40  1  0  0  0  0
 24 41  1  0  0  0  0
 25 42  1  0  0  0  0
 25 43  1  0  0  0  0
 25 44  1  0  0  0  0
 26 45  1  0  0  0  0
 27 46  1  0  0  0  0
 27 47  1  0  0  0  0
 28 48  1  0  0  0  0
 28 49  1  0  0  0  0
M  END
> <Name>
33

> <IC50[uM]>
0.008

$$$$
33
  -OEChem-05192314333D
 Structure written by MMmdl.
 49 53  0     0  0  0  0  0  0999 V2000
   -6.3918   12.3765  -12.0158 C   0  0  0  0  0  0  0  0  0  0  0  0
   -6.5335   11.8201  -10.7317 C   0  0  0  0  0  0  0  0  0  0  0  0
   -7.7273   10.5795  -13.0319 C   0  0  0  0  0  0  0  0  0  0  0  0
   -7.0082   11.7773  -13.1176 C   0  0  0  0  0  0  0  0  0  0  0  0
   -7.8294   10.0116  -11.7546 C   0  0  0  0  0  0  0  0  0  0  0  0
   -7.2533   10.6299  -10.5984 C   0  0  0  0  0  0  0  0  0  0  0  0
   -7.6133    9.7501   -9.5115 C   0  0  0  0  0  0  0  0  0  0  0  0
   -8.2802    8.7340   -9.9853 N   0  0  0  0  0  0  0  0  0  0  0  0
   -8.4149    8.8602  -11.2994 N   0  0  0  0  0  0  0  0  0  0  0  0
   -7.3368    9.8898   -8.0240 C   0  0  0  0  0  0  0  0  0  0  0  0
   -4.3580   13.5891  -11.5451 N   0  0  0  0  0  0  0  0  0  0  0  0
   -5.5327   13.6029  -12.2131 C   0  0  0  0  0  0  0  0  0  0  0  0
   -5.8791   14.5089  -12.9726 O   0  0  0  0  0  0  0  0  0  0  0  0
   -5.9622   10.4818   -7.7351 C   0  0  0  0  0  0  0  0  0  0  0  0
   -5.8525   11.7570   -7.1642 C   0  0  0  0  0  0  0  0  0  0  0  0
   -4.5920   12.3049   -6.9193 C   0  0  0  0  0  0  0  0  0  0  0  0
   -3.4386   11.5825   -7.2408 C   0  0  0  0  0  0  0  0  0  0  0  0
   -3.5579   10.3128   -7.8038 C   0  0  0  0  0  0  0  0  0  0  0  0
   -4.8126    9.7642   -8.0521 C   0  0  0  0  0  0  0  0  0  0  0  0
   -2.0919   12.1643   -6.9829 C   0  0  0  0  0  0  0  0  0  0  0  0
   -1.7362   13.4287   -6.5051 C   0  0  0  0  0  0  0  0  0  0  0  0
   -0.4017   13.4552   -6.4435 N   0  0  0  0  0  0  0  0  0  0  0  0
    0.1850   12.3496   -6.8156 N   0  0  0  0  0  0  0  0  0  0  0  0
   -0.8078   11.5460   -7.1722 C   0  0  0  0  0  0  0  0  0  0  0  0
    0.4351   14.5688   -6.0125 C   0  0  0  0  0  0  0  0  0  0  0  0
   -3.3172   14.5865  -11.7755 C   0  0  0  0  0  0  0  0  0  0  0  0
   -1.8924   14.0513  -11.7355 C   0  0  0  0  0  0  0  0  0  0  0  0
   -2.3932   14.9579  -10.6450 C   0  0  0  0  0  0  0  0  0  0  0  0
   -5.5209   11.6327  -10.3450 H   0  0  0  0  0  0  0  0  0  0  0  0
   -7.0320   12.5735  -10.1041 H   0  0  0  0  0  0  0  0  0  0  0  0
   -8.1772   10.1197  -13.8994 H   0  0  0  0  0  0  0  0  0  0  0  0
   -6.9259   12.2608  -14.0798 H   0  0  0  0  0  0  0  0  0  0  0  0
   -8.0380    9.6010   -7.2550 H   0  0  0  0  0  0  0  0  0  0  0  0
   -5.2205   15.1935  -12.9707 H   0  0  0  0  0  0  0  0  0  0  0  0
   -6.7424   12.3154   -6.9139 H   0  0  0  0  0  0  0  0  0  0  0  0
   -4.5075   13.2883   -6.4808 H   0  0  0  0  0  0  0  0  0  0  0  0
   -2.6693    9.7502   -8.0493 H   0  0  0  0  0  0  0  0  0  0  0  0
   -4.8629    8.8200   -7.4901 H   0  0  0  0  0  0  0  0  0  0  0  0
   -4.8583    9.5519   -9.1305 H   0  0  0  0  0  0  0  0  0  0  0  0
   -2.4097   14.2294   -6.2375 H   0  0  0  0  0  0  0  0  0  0  0  0
   -0.6685   10.5471   -7.5584 H   0  0  0  0  0  0  0  0  0  0  0  0
    1.4941   14.2779   -6.0748 H   0  0  0  0  0  0  0  0  0  0  0  0
    0.2544   15.4366   -6.6639 H   0  0  0  0  0  0  0  0  0  0  0  0
    0.1879   14.8324   -4.9736 H   0  0  0  0  0  0  0  0  0  0  0  0
   -3.5215   15.3697  -12.5204 H   0  0  0  0  0  0  0  0  0  0  0  0
   -1.7095   12.9870  -11.5263 H   0  0  0  0  0  0  0  0  0  0  0  0
   -1.1463   14.4168  -12.4564 H   0  0  0  0  0  0  0  0  0  0  0  0
   -2.0084   15.9854  -10.5669 H   0  0  0  0  0  0  0  0  0  0  0  0
   -2.5716   14.5556   -9.6369 H   0  0  0  0  0  0  0  0  0  0  0  0
  1  2  1  0  0  0  0
  1  4  2  0  0  0  0
  1 12  1  0  0  0  0
  2  6  1  0  0  0  0
  3  4  1  0  0  0  0
  3  5  2  0  0  0  0
  5  6  1  0  0  0  0
  5  9  1  0  0  0  0
  6  7  2  0  0  0  0
  7  8  1  0  0  0  0
  7 10  1  0  0  0  0
  8  9  2  0  0  0  0
 10 14  2  3  0  0  0
 11 12  2  0  0  0  0
 11 26  1  0  0  0  0
 12 13  1  0  0  0  0
 14 15  1  0  0  0  0
 14 19  1  0  0  0  0
 15 16  2  0  0  0  0
 16 17  1  0  0  0  0
 17 18  2  0  0  0  0
 17 20  1  0  0  0  0
 18 19  1  0  0  0  0
 20 21  2  0  0  0  0
 20 24  1  0  0  0  0
 21 22  1  0  0  0  0
 22 23  1  0  0  0  0
 22 25  1  0  0  0  0
 23 24  2  0  0  0  0
 26 27  1  0  0  0  0
 26 28  1  0  0  0  0
 27 28  1  0  0  0  0
  2 29  1  0  0  0  0
  2 30  1  0  0  0  0
  3 31  1  0  0  0  0
  4 32  1  0  0  0  0
 10 33  1  0  0  0  0
 13 34  1  0  0  0  0
 15 35  1  0  0  0  0
 16 36  1  0  0  0  0
 18 37  1  0  0  0  0
 19 38  1  0  0  0  0
 19 39  1  0  0  0  0
 21 40  1  0  0  0  0
 24 41  1  0  0  0  0
 25 42  1  0  0  0  0
 25 43  1  0  0  0  0
 25 44  1  0  0  0  0
 26 45  1  0  0  0  0
 27 46  1  0  0  0  0
 27 47  1  0  0  0  0
 28 48  1  0  0  0  0
 28 49  1  0  0  0  0
M  END
> <Name>
33

> <IC50[uM]>
0.008

$$$$
33
  -OEChem-05192314333D
 Structure written by MMmdl.
 49 53  0     0  0  0  0  0  0999 V2000
   -6.3918   12.3765  -12.0158 C   0  0  0  0  0  0  0  0  0  0  0  0
   -6.5335   11.8201  -10.7317 C   0  0  0  0  0  0  0  0  0  0  0  0
   -7.7273   10.5795  -13.0319 C   0  0  0  0  0  0  0  0  0  0  0  0
   -7.0082   11.7773  -13.1176 C   0  0  0  0  0  0  0  0  0  0  0  0
   -7.8294   10.0116  -11.7546 C   0  0  0  0  0  0  0  0  0  0  0  0
   -7.2533   10.6299  -10.5984 C   0  0  0  0  0  0  0  0  0  0  0  0
   -7.6133    9.7501   -9.5115 C   0  0  0  0  0  0  0  0  0  0  0  0
   -8.2802    8.7340   -9.9853 N   0  0  0  0  0  0  0  0  0  0  0  0
   -8.4149    8.8602  -11.2994 N   0  0  0  0  0  0  0  0  0  0  0  0
   -7.3368    9.8898   -8.0240 C   0  0  0  0  0  0  0  0  0  0  0  0
   -4.3580   13.5891  -11.5451 N   0  0  0  0  0  0  0  0  0  0  0  0
   -5.5327   13.6029  -12.2131 C   0  0  0  0  0  0  0  0  0  0  0  0
   -5.8791   14.5089  -12.9726 O   0  0  0  0  0  0  0  0  0  0  0  0
   -5.9622   10.4818   -7.7351 C   0  0  0  0  0  0  0  0  0  0  0  0
   -5.8525   11.7570   -7.1642 C   0  0  0  0  0  0  0  0  0  0  0  0
   -4.5920   12.3049   -6.9193 C   0  0  0  0  0  0  0  0  0  0  0  0
   -3.4386   11.5825   -7.2408 C   0  0  0  0  0  0  0  0  0  0  0  0
   -3.5579   10.3128   -7.8038 C   0  0  0  0  0  0  0  0  0  0  0  0
   -4.8126    9.7642   -8.0521 C   0  0  0  0  0  0  0  0  0  0  0  0
   -2.0919   12.1643   -6.9829 C   0  0  0  0  0  0  0  0  0  0  0  0
   -1.7362   13.4287   -6.5051 C   0  0  0  0  0  0  0  0  0  0  0  0
   -0.4017   13.4552   -6.4435 N   0  0  0  0  0  0  0  0  0  0  0  0
    0.1850   12.3496   -6.8156 N   0  0  0  0  0  0  0  0  0  0  0  0
   -0.8078   11.5460   -7.1722 C   0  0  0  0  0  0  0  0  0  0  0  0
    0.4351   14.5688   -6.0125 C   0  0  0  0  0  0  0  0  0  0  0  0
   -3.3172   14.5865  -11.7755 C   0  0  0  0  0  0  0  0  0  0  0  0
   -1.8924   14.0513  -11.7355 C   0  0  0  0  0  0  0  0  0  0  0  0
   -2.3932   14.9579  -10.6450 C   0  0  0  0  0  0  0  0  0  0  0  0
   -6.0964   12.3014   -9.8693 H   0  0  0  0  0  0  0  0  0  0  0  0
   -8.1772   10.1197  -13.8994 H   0  0  0  0  0  0  0  0  0  0  0  0
   -6.9259   12.2608  -14.0798 H   0  0  0  0  0  0  0  0  0  0  0  0
   -8.6361    7.9747   -9.4405 H   0  0  0  0  0  0  0  0  0  0  0  0
   -8.0380    9.6010   -7.2550 H   0  0  0  0  0  0  0  0  0  0  0  0
   -4.5892   13.6471  -10.5739 H   0  0  0  0  0  0  0  0  0  0  0  0
   -5.2205   15.1935  -12.9707 H   0  0  0  0  0  0  0  0  0  0  0  0
   -6.7424   12.3154   -6.9139 H   0  0  0  0  0  0  0  0  0  0  0  0
   -4.5075   13.2883   -6.4808 H   0  0  0  0  0  0  0  0  0  0  0  0
   -2.6693    9.7502   -8.0493 H   0  0  0  0  0  0  0  0  0  0  0  0
   -4.8943    8.7808   -8.4911 H   0  0  0  0  0  0  0  0  0  0  0  0
   -2.4097   14.2294   -6.2375 H   0  0  0  0  0  0  0  0  0  0  0  0
   -0.6685   10.5471   -7.5584 H   0  0  0  0  0  0  0  0  0  0  0  0
    1.4941   14.2779   -6.0748 H   0  0  0  0  0  0  0  0  0  0  0  0
    0.2544   15.4366   -6.6639 H   0  0  0  0  0  0  0  0  0  0  0  0
    0.1879   14.8324   -4.9736 H   0  0  0  0  0  0  0  0  0  0  0  0
   -3.5215   15.3697  -12.5204 H   0  0  0  0  0  0  0  0  0  0  0  0
   -1.7095   12.9870  -11.5263 H   0  0  0  0  0  0  0  0  0  0  0  0
   -1.1463   14.4168  -12.4564 H   0  0  0  0  0  0  0  0  0  0  0  0
   -2.0084   15.9854  -10.5669 H   0  0  0  0  0  0  0  0  0  0  0  0
   -2.5716   14.5556   -9.6369 H   0  0  0  0  0  0  0  0  0  0  0  0
  1  2  1  0  0  0  0
  1  4  1  0  0  0  0
  1 12  2  3  0  0  0
  2  6  2  0  0  0  0
  3  4  2  0  0  0  0
  3  5  1  0  0  0  0
  5  6  1  0  0  0  0
  5  9  2  0  0  0  0
  6  7  1  0  0  0  0
  7  8  1  0  0  0  0
  7 10  2  3  0  0  0
  8  9  1  0  0  0  0
 10 14  1  0  0  0  0
 11 12  1  0  0  0  0
 11 26  1  0  0  0  0
 12 13  1  0  0  0  0
 14 15  2  0  0  0  0
 14 19  1  0  0  0  0
 15 16  1  0  0  0  0
 16 17  2  0  0  0  0
 17 18  1  0  0  0  0
 17 20  1  0  0  0  0
 18 19  2  0  0  0  0
 20 21  2  0  0  0  0
 20 24  1  0  0  0  0
 21 22  1  0  0  0  0
 22 23  1  0  0  0  0
 22 25  1  0  0  0  0
 23 24  2  0  0  0  0
 26 27  1  0  0  0  0
 26 28  1  0  0  0  0
 27 28  1  0  0  0  0
  2 29  1  0  0  0  0
  3 30  1  0  0  0  0
  4 31  1  0  0  0  0
  8 32  1  0  0  0  0
 10 33  1  0  0  0  0
 11 34  1  0  0  0  0
 13 35  1  0  0  0  0
 15 36  1  0  0  0  0
 16 37  1  0  0  0  0
 18 38  1  0  0  0  0
 19 39  1  0  0  0  0
 21 40  1  0  0  0  0
 24 41  1  0  0  0  0
 25 42  1  0  0  0  0
 25 43  1  0  0  0  0
 25 44  1  0  0  0  0
 26 45  1  0  0  0  0
 27 46  1  0  0  0  0
 27 47  1  0  0  0  0
 28 48  1  0  0  0  0
 28 49  1  0  0  0  0
M  END
> <Name>
33

> <IC50[uM]>
0.008

$$$$
33
  -OEChem-05192314333D
 Structure written by MMmdl.
 49 53  0     1  0  0  0  0  0999 V2000
   -6.3918   12.3765  -12.0158 C   0  0  0  0  0  0  0  0  0  0  0  0
   -6.5335   11.8201  -10.7317 C   0  0  0  0  0  0  0  0  0  0  0  0
   -7.7273   10.5795  -13.0319 C   0  0  0  0  0  0  0  0  0  0  0  0
   -7.0082   11.7773  -13.1176 C   0  0  0  0  0  0  0  0  0  0  0  0
   -7.8294   10.0116  -11.7546 C   0  0  0  0  0  0  0  0  0  0  0  0
   -7.2533   10.6299  -10.5984 C   0  0  0  0  0  0  0  0  0  0  0  0
   -7.6133    9.7501   -9.5115 C   0  0  0  0  0  0  0  0  0  0  0  0
   -8.2802    8.7340   -9.9853 N   0  0  0  0  0  0  0  0  0  0  0  0
   -8.4149    8.8602  -11.2994 N   0  0  0  0  0  0  0  0  0  0  0  0
   -7.3368    9.8898   -8.0240 C   0  0  0  0  0  0  0  0  0  0  0  0
   -4.3580   13.5891  -11.5451 N   0  0  0  0  0  0  0  0  0  0  0  0
   -5.5327   13.6029  -12.2131 C   0  0  3  0  0  0  0  0  0  0  0  0
   -5.8791   14.5089  -12.9726 O   0  0  0  0  0  0  0  0  0  0  0  0
   -5.9622   10.4818   -7.7351 C   0  0  0  0  0  0  0  0  0  0  0  0
   -5.8525   11.7570   -7.1642 C   0  0  0  0  0  0  0  0  0  0  0  0
   -4.5920   12.3049   -6.9193 C   0  0  0  0  0  0  0  0  0  0  0  0
   -3.4386   11.5825   -7.2408 C   0  0  0  0  0  0  0  0  0  0  0  0
   -3.5579   10.3128   -7.8038 C   0  0  0  0  0  0  0  0  0  0  0  0
   -4.8126    9.7642   -8.0521 C   0  0  0  0  0  0  0  0  0  0  0  0
   -2.0919   12.1643   -6.9829 C   0  0  0  0  0  0  0  0  0  0  0  0
   -1.7362   13.4287   -6.5051 C   0  0  0  0  0  0  0  0  0  0  0  0
   -0.4017   13.4552   -6.4435 N   0  0  0  0  0  0  0  0  0  0  0  0
    0.1850   12.3496   -6.8156 N   0  0  0  0  0  0  0  0  0  0  0  0
   -0.8078   11.5460   -7.1722 C   0  0  0  0  0  0  0  0  0  0  0  0
    0.4351   14.5688   -6.0125 C   0  0  0  0  0  0  0  0  0  0  0  0
   -3.3172   14.5865  -11.7755 C   0  0  0  0  0  0  0  0  0  0  0  0
   -1.8924   14.0513  -11.7355 C   0  0  0  0  0  0  0  0  0  0  0  0
   -2.3932   14.9579  -10.6450 C   0  0  0  0  0  0  0  0  0  0  0  0
   -6.0964   12.3014   -9.8693 H   0  0  0  0  0  0  0  0  0  0  0  0
   -8.1772   10.1197  -13.8994 H   0  0  0  0  0  0  0  0  0  0  0  0
   -6.9259   12.2608  -14.0798 H   0  0  0  0  0  0  0  0  0  0  0  0
   -8.0380    9.6010   -7.2550 H   0  0  0  0  0  0  0  0  0  0  0  0
   -4.5892   13.6471  -10.5739 H   0  0  0  0  0  0  0  0  0  0  0  0
   -6.0262   14.1017  -11.3659 H   0  0  0  0  0  0  0  0  0  0  0  0
   -5.2205   15.1935  -12.9707 H   0  0  0  0  0  0  0  0  0  0  0  0
   -6.7424   12.3154   -6.9139 H   0  0  0  0  0  0  0  0  0  0  0  0
   -4.5075   13.2883   -6.4808 H   0  0  0  0  0  0  0  0  0  0  0  0
   -2.6693    9.7502   -8.0493 H   0  0  0  0  0  0  0  0  0  0  0  0
   -4.8943    8.7808   -8.4911 H   0  0  0  0  0  0  0  0  0  0  0  0
   -2.4097   14.2294   -6.2375 H   0  0  0  0  0  0  0  0  0  0  0  0
   -0.6685   10.5471   -7.5584 H   0  0  0  0  0  0  0  0  0  0  0  0
    1.4941   14.2779   -6.0748 H   0  0  0  0  0  0  0  0  0  0  0  0
    0.2544   15.4366   -6.6639 H   0  0  0  0  0  0  0  0  0  0  0  0
    0.1879   14.8324   -4.9736 H   0  0  0  0  0  0  0  0  0  0  0  0
   -3.5215   15.3697  -12.5204 H   0  0  0  0  0  0  0  0  0  0  0  0
   -1.7095   12.9870  -11.5263 H   0  0  0  0  0  0  0  0  0  0  0  0
   -1.1463   14.4168  -12.4564 H   0  0  0  0  0  0  0  0  0  0  0  0
   -2.0084   15.9854  -10.5669 H   0  0  0  0  0  0  0  0  0  0  0  0
   -2.5716   14.5556   -9.6369 H   0  0  0  0  0  0  0  0  0  0  0  0
  1  2  2  0  0  0  0
  1  4  1  0  0  0  0
  1 12  1  0  0  0  0
  2  6  1  0  0  0  0
  3  4  2  0  0  0  0
  3  5  1  0  0  0  0
  5  6  2  0  0  0  0
  5  9  1  0  0  0  0
  6  7  1  0  0  0  0
  7  8  1  0  0  0  0
  7 10  2  3  0  0  0
  8  9  2  0  0  0  0
 10 14  1  0  0  0  0
 11 12  1  0  0  0  0
 11 26  1  0  0  0  0
 12 13  1  0  0  0  0
 14 15  2  0  0  0  0
 14 19  1  0  0  0  0
 15 16  1  0  0  0  0
 16 17  2  0  0  0  0
 17 18  1  0  0  0  0
 17 20  1  0  0  0  0
 18 19  2  0  0  0  0
 20 21  2  0  0  0  0
 20 24  1  0  0  0  0
 21 22  1  0  0  0  0
 22 23  1  0  0  0  0
 22 25  1  0  0  0  0
 23 24  2  0  0  0  0
 26 27  1  0  0  0  0
 26 28  1  0  0  0  0
 27 28  1  0  0  0  0
  2 29  1  0  0  0  0
  3 30  1  0  0  0  0
  4 31  1  0  0  0  0
 10 32  1  0  0  0  0
 11 33  1  0  0  0  0
 12 34  1  0  0  0  0
 13 35  1  0  0  0  0
 15 36  1  0  0  0  0
 16 37  1  0  0  0  0
 18 38  1  0  0  0  0
 19 39  1  0  0  0  0
 21 40  1  0  0  0  0
 24 41  1  0  0  0  0
 25 42  1  0  0  0  0
 25 43  1  0  0  0  0
 25 44  1  0  0  0  0
 26 45  1  0  0  0  0
 27 46  1  0  0  0  0
 27 47  1  0  0  0  0
 28 48  1  0  0  0  0
 28 49  1  0  0  0  0
M  END
> <Name>
33

> <IC50[uM]>
0.008

$$$$
33
  -OEChem-05192314333D
 Structure written by MMmdl.
 49 53  0     0  0  0  0  0  0999 V2000
   -6.3918   12.3765  -12.0158 C   0  0  0  0  0  0  0  0  0  0  0  0
   -6.5335   11.8201  -10.7317 C   0  0  0  0  0  0  0  0  0  0  0  0
   -7.7273   10.5795  -13.0319 C   0  0  0  0  0  0  0  0  0  0  0  0
   -7.0082   11.7773  -13.1176 C   0  0  0  0  0  0  0  0  0  0  0  0
   -7.8294   10.0116  -11.7546 C   0  0  0  0  0  0  0  0  0  0  0  0
   -7.2533   10.6299  -10.5984 C   0  0  0  0  0  0  0  0  0  0  0  0
   -7.6133    9.7501   -9.5115 C   0  0  0  0  0  0  0  0  0  0  0  0
   -8.2802    8.7340   -9.9853 N   0  0  0  0  0  0  0  0  0  0  0  0
   -8.4149    8.8602  -11.2994 N   0  0  0  0  0  0  0  0  0  0  0  0
   -7.3368    9.8898   -8.0240 C   0  0  0  0  0  0  0  0  0  0  0  0
   -4.3580   13.5891  -11.5451 N   0  0  0  0  0  0  0  0  0  0  0  0
   -5.5327   13.6029  -12.2131 C   0  0  0  0  0  0  0  0  0  0  0  0
   -5.8791   14.5089  -12.9726 O   0  0  0  0  0  0  0  0  0  0  0  0
   -5.9622   10.4818   -7.7351 C   0  0  0  0  0  0  0  0  0  0  0  0
   -5.8525   11.7570   -7.1642 C   0  0  0  0  0  0  0  0  0  0  0  0
   -4.5920   12.3049   -6.9193 C   0  0  0  0  0  0  0  0  0  0  0  0
   -3.4386   11.5825   -7.2408 C   0  0  0  0  0  0  0  0  0  0  0  0
   -3.5579   10.3128   -7.8038 C   0  0  0  0  0  0  0  0  0  0  0  0
   -4.8126    9.7642   -8.0521 C   0  0  0  0  0  0  0  0  0  0  0  0
   -2.0919   12.1643   -6.9829 C   0  0  0  0  0  0  0  0  0  0  0  0
   -1.7362   13.4287   -6.5051 C   0  0  0  0  0  0  0  0  0  0  0  0
   -0.4017   13.4552   -6.4435 N   0  0  0  0  0  0  0  0  0  0  0  0
    0.1850   12.3496   -6.8156 N   0  0  0  0  0  0  0  0  0  0  0  0
   -0.8078   11.5460   -7.1722 C   0  0  0  0  0  0  0  0  0  0  0  0
    0.4351   14.5688   -6.0125 C   0  0  0  0  0  0  0  0  0  0  0  0
   -3.3172   14.5865  -11.7755 C   0  0  0  0  0  0  0  0  0  0  0  0
   -1.8924   14.0513  -11.7355 C   0  0  0  0  0  0  0  0  0  0  0  0
   -2.3932   14.9579  -10.6450 C   0  0  0  0  0  0  0  0  0  0  0  0
   -6.0964   12.3014   -9.8693 H   0  0  0  0  0  0  0  0  0  0  0  0
   -8.1772   10.1197  -13.8994 H   0  0  0  0  0  0  0  0  0  0  0  0
   -6.9259   12.2608  -14.0798 H   0  0  0  0  0  0  0  0  0  0  0  0
   -8.1022   10.5457   -7.5837 H   0  0  0  0  0  0  0  0  0  0  0  0
   -7.3960    8.8943   -7.5599 H   0  0  0  0  0  0  0  0  0  0  0  0
   -4.5892   13.6471  -10.5739 H   0  0  0  0  0  0  0  0  0  0  0  0
   -5.2205   15.1935  -12.9707 H   0  0  0  0  0  0  0  0  0  0  0  0
   -6.7424   12.3154   -6.9139 H   0  0  0  0  0  0  0  0  0  0  0  0
   -4.5075   13.2883   -6.4808 H   0  0  0  0  0  0  0  0  0  0  0  0
   -2.6693    9.7502   -8.0493 H   0  0  0  0  0  0  0  0  0  0  0  0
   -4.8943    8.7808   -8.4911 H   0  0  0  0  0  0  0  0  0  0  0  0
   -2.4097   14.2294   -6.2375 H   0  0  0  0  0  0  0  0  0  0  0  0
   -0.6685   10.5471   -7.5584 H   0  0  0  0  0  0  0  0  0  0  0  0
    1.4941   14.2779   -6.0748 H   0  0  0  0  0  0  0  0  0  0  0  0
    0.2544   15.4366   -6.6639 H   0  0  0  0  0  0  0  0  0  0  0  0
    0.1879   14.8324   -4.9736 H   0  0  0  0  0  0  0  0  0  0  0  0
   -3.5215   15.3697  -12.5204 H   0  0  0  0  0  0  0  0  0  0  0  0
   -1.7095   12.9870  -11.5263 H   0  0  0  0  0  0  0  0  0  0  0  0
   -1.1463   14.4168  -12.4564 H   0  0  0  0  0  0  0  0  0  0  0  0
   -2.0084   15.9854  -10.5669 H   0  0  0  0  0  0  0  0  0  0  0  0
   -2.5716   14.5556   -9.6369 H   0  0  0  0  0  0  0  0  0  0  0  0
  1  2  1  0  0  0  0
  1  4  1  0  0  0  0
  1 12  2  3  0  0  0
  2  6  2  0  0  0  0
  3  4  2  0  0  0  0
  3  5  1  0  0  0  0
  5  6  1  0  0  0  0
  5  9  2  0  0  0  0
  6  7  1  0  0  0  0
  7  8  2  0  0  0  0
  7 10  1  0  0  0  0
  8  9  1  0  0  0  0
 10 14  1  0  0  0  0
 11 12  1  0  0  0  0
 11 26  1  0  0  0  0
 12 13  1  0  0  0  0
 14 15  2  0  0  0  0
 14 19  1  0  0  0  0
 15 16  1  0  0  0  0
 16 17  2  0  0  0  0
 17 18  1  0  0  0  0
 17 20  1  0  0  0  0
 18 19  2  0  0  0  0
 20 21  2  0  0  0  0
 20 24  1  0  0  0  0
 21 22  1  0  0  0  0
 22 23  1  0  0  0  0
 22 25  1  0  0  0  0
 23 24  2  0  0  0  0
 26 27  1  0  0  0  0
 26 28  1  0  0  0  0
 27 28  1  0  0  0  0
  2 29  1  0  0  0  0
  3 30  1  0  0  0  0
  4 31  1  0  0  0  0
 10 32  1  0  0  0  0
 10 33  1  0  0  0  0
 11 34  1  0  0  0  0
 13 35  1  0  0  0  0
 15 36  1  0  0  0  0
 16 37  1  0  0  0  0
 18 38  1  0  0  0  0
 19 39  1  0  0  0  0
 21 40  1  0  0  0  0
 24 41  1  0  0  0  0
 25 42  1  0  0  0  0
 25 43  1  0  0  0  0
 25 44  1  0  0  0  0
 26 45  1  0  0  0  0
 27 46  1  0  0  0  0
 27 47  1  0  0  0  0
 28 48  1  0  0  0  0
 28 49  1  0  0  0  0
M  END
> <Name>
33

> <IC50[uM]>
0.008

$$$$
33
  -OEChem-05192314333D
 Structure written by MMmdl.
 49 53  0     1  0  0  0  0  0999 V2000
   -6.3918   12.3765  -12.0158 C   0  0  0  0  0  0  0  0  0  0  0  0
   -6.5335   11.8201  -10.7317 C   0  0  0  0  0  0  0  0  0  0  0  0
   -7.7273   10.5795  -13.0319 C   0  0  0  0  0  0  0  0  0  0  0  0
   -7.0082   11.7773  -13.1176 C   0  0  0  0  0  0  0  0  0  0  0  0
   -7.8294   10.0116  -11.7546 C   0  0  0  0  0  0  0  0  0  0  0  0
   -7.2533   10.6299  -10.5984 C   0  0  0  0  0  0  0  0  0  0  0  0
   -7.6133    9.7501   -9.5115 C   0  0  0  0  0  0  0  0  0  0  0  0
   -8.2802    8.7340   -9.9853 N   0  0  0  0  0  0  0  0  0  0  0  0
   -8.4149    8.8602  -11.2994 N   0  0  0  0  0  0  0  0  0  0  0  0
   -7.3368    9.8898   -8.0240 C   0  0  0  0  0  0  0  0  0  0  0  0
   -4.3580   13.5891  -11.5451 N   0  0  0  0  0  0  0  0  0  0  0  0
   -5.5327   13.6029  -12.2131 C   0  0  0  0  0  0  0  0  0  0  0  0
   -5.8791   14.5089  -12.9726 O   0  0  0  0  0  0  0  0  0  0  0  0
   -5.9622   10.4818   -7.7351 C   0  0  0  0  0  0  0  0  0  0  0  0
   -5.8525   11.7570   -7.1642 C   0  0  0  0  0  0  0  0  0  0  0  0
   -4.5920   12.3049   -6.9193 C   0  0  0  0  0  0  0  0  0  0  0  0
   -3.4386   11.5825   -7.2408 C   0  0  0  0  0  0  0  0  0  0  0  0
   -3.5579   10.3128   -7.8038 C   0  0  0  0  0  0  0  0  0  0  0  0
   -4.8126    9.7642   -8.0521 C   0  0  0  0  0  0  0  0  0  0  0  0
   -2.0919   12.1643   -6.9829 C   0  0  0  0  0  0  0  0  0  0  0  0
   -1.7362   13.4287   -6.5051 C   0  0  0  0  0  0  0  0  0  0  0  0
   -0.4017   13.4552   -6.4435 N   0  0  3  0  0  0  0  0  0  0  0  0
    0.1850   12.3496   -6.8156 N   0  0  0  0  0  0  0  0  0  0  0  0
   -0.8078   11.5460   -7.1722 C   0  0  0  0  0  0  0  0  0  0  0  0
    0.4351   14.5688   -6.0125 C   0  0  0  0  0  0  0  0  0  0  0  0
   -3.3172   14.5865  -11.7755 C   0  0  0  0  0  0  0  0  0  0  0  0
   -1.8924   14.0513  -11.7355 C   0  0  0  0  0  0  0  0  0  0  0  0
   -2.3932   14.9579  -10.6450 C   0  0  0  0  0  0  0  0  0  0  0  0
   -6.0964   12.3014   -9.8693 H   0  0  0  0  0  0  0  0  0  0  0  0
   -8.1772   10.1197  -13.8994 H   0  0  0  0  0  0  0  0  0  0  0  0
   -6.9259   12.2608  -14.0798 H   0  0  0  0  0  0  0  0  0  0  0  0
   -8.0380    9.6010   -7.2550 H   0  0  0  0  0  0  0  0  0  0  0  0
   -4.5892   13.6471  -10.5739 H   0  0  0  0  0  0  0  0  0  0  0  0
   -5.2205   15.1935  -12.9707 H   0  0  0  0  0  0  0  0  0  0  0  0
   -6.7424   12.3154   -6.9139 H   0  0  0  0  0  0  0  0  0  0  0  0
   -4.5075   13.2883   -6.4808 H   0  0  0  0  0  0  0  0  0  0  0  0
   -2.6693    9.7502   -8.0493 H   0  0  0  0  0  0  0  0  0  0  0  0
   -4.8943    8.7808   -8.4911 H   0  0  0  0  0  0  0  0  0  0  0  0
   -2.0995   14.2088   -7.1903 H   0  0  0  0  0  0  0  0  0  0  0  0
   -2.1650   13.5904   -5.5051 H   0  0  0  0  0  0  0  0  0  0  0  0
   -0.6685   10.5471   -7.5584 H   0  0  0  0  0  0  0  0  0  0  0  0
    1.4941   14.2779   -6.0748 H   0  0  0  0  0  0  0  0  0  0  0  0
    0.2544   15.4366   -6.6639 H   0  0  0  0  0  0  0  0  0  0  0  0
    0.1879   14.8324   -4.9736 H   0  0  0  0  0  0  0  0  0  0  0  0
   -3.5215   15.3697  -12.5204 H   0  0  0  0  0  0  0  0  0  0  0  0
   -1.7095   12.9870  -11.5263 H   0  0  0  0  0  0  0  0  0  0  0  0
   -1.1463   14.4168  -12.4564 H   0  0  0  0  0  0  0  0  0  0  0  0
   -2.0084   15.9854  -10.5669 H   0  0  0  0  0  0  0  0  0  0  0  0
   -2.5716   14.5556   -9.6369 H   0  0  0  0  0  0  0  0  0  0  0  0
  1  2  1  0  0  0  0
  1  4  1  0  0  0  0
  1 12  2  3  0  0  0
  2  6  2  0  0  0  0
  3  4  2  0  0  0  0
  3  5  1  0  0  0  0
  5  6  1  0  0  0  0
  5  9  2  0  0  0  0
  6  7  1  0  0  0  0
  7  8  2  0  0  0  0
  7 10  1  0  0  0  0
  8  9  1  0  0  0  0
 10 14  2  0  0  0  0
 11 12  1  0  0  0  0
 11 26  1  0  0  0  0
 12 13  1  0  0  0  0
 14 15  1  0  0  0  0
 14 19  1  0  0  0  0
 15 16  2  0  0  0  0
 16 17  1  0  0  0  0
 17 18  1  0  0  0  0
 17 20  2  0  0  0  0
 18 19  2  0  0  0  0
 20 21  1  0  0  0  0
 20 24  1  0  0  0  0
 21 22  1  0  0  0  0
 22 23  1  0  0  0  0
 22 25  1  0  0  0  0
 23 24  2  0  0  0  0
 26 27  1  0  0  0  0
 26 28  1  0  0  0  0
 27 28  1  0  0  0  0
  2 29  1  0  0  0  0
  3 30  1  0  0  0  0
  4 31  1  0  0  0  0
 10 32  1  0  0  0  0
 11 33  1  0  0  0  0
 13 34  1  0  0  0  0
 15 35  1  0  0  0  0
 16 36  1  0  0  0  0
 18 37  1  0  0  0  0
 19 38  1  0  0  0  0
 21 39  1  0  0  0  0
 21 40  1  0  0  0  0
 24 41  1  0  0  0  0
 25 42  1  0  0  0  0
 25 43  1  0  0  0  0
 25 44  1  0  0  0  0
 26 45  1  0  0  0  0
 27 46  1  0  0  0  0
 27 47  1  0  0  0  0
 28 48  1  0  0  0  0
 28 49  1  0  0  0  0
M  END
> <Name>
33

> <IC50[uM]>
0.008

$$$$
33
  -OEChem-05192314333D
 Structure written by MMmdl.
 49 53  0     1  0  0  0  0  0999 V2000
   -6.3918   12.3765  -12.0158 C   0  0  0  0  0  0  0  0  0  0  0  0
   -6.5335   11.8201  -10.7317 C   0  0  0  0  0  0  0  0  0  0  0  0
   -7.7273   10.5795  -13.0319 C   0  0  0  0  0  0  0  0  0  0  0  0
   -7.0082   11.7773  -13.1176 C   0  0  0  0  0  0  0  0  0  0  0  0
   -7.8294   10.0116  -11.7546 C   0  0  3  0  0  0  0  0  0  0  0  0
   -7.2533   10.6299  -10.5984 C   0  0  0  0  0  0  0  0  0  0  0  0
   -7.6133    9.7501   -9.5115 C   0  0  0  0  0  0  0  0  0  0  0  0
   -8.2802    8.7340   -9.9853 N   0  0  0  0  0  0  0  0  0  0  0  0
   -8.4149    8.8602  -11.2994 N   0  0  0  0  0  0  0  0  0  0  0  0
   -7.3368    9.8898   -8.0240 C   0  0  0  0  0  0  0  0  0  0  0  0
   -4.3580   13.5891  -11.5451 N   0  0  0  0  0  0  0  0  0  0  0  0
   -5.5327   13.6029  -12.2131 C   0  0  0  0  0  0  0  0  0  0  0  0
   -5.8791   14.5089  -12.9726 O   0  0  0  0  0  0  0  0  0  0  0  0
   -5.9622   10.4818   -7.7351 C   0  0  0  0  0  0  0  0  0  0  0  0
   -5.8525   11.7570   -7.1642 C   0  0  0  0  0  0  0  0  0  0  0  0
   -4.5920   12.3049   -6.9193 C   0  0  0  0  0  0  0  0  0  0  0  0
   -3.4386   11.5825   -7.2408 C   0  0  0  0  0  0  0  0  0  0  0  0
   -3.5579   10.3128   -7.8038 C   0  0  0  0  0  0  0  0  0  0  0  0
   -4.8126    9.7642   -8.0521 C   0  0  0  0  0  0  0  0  0  0  0  0
   -2.0919   12.1643   -6.9829 C   0  0  0  0  0  0  0  0  0  0  0  0
   -1.7362   13.4287   -6.5051 C   0  0  0  0  0  0  0  0  0  0  0  0
   -0.4017   13.4552   -6.4435 N   0  0  0  0  0  0  0  0  0  0  0  0
    0.1850   12.3496   -6.8156 N   0  0  0  0  0  0  0  0  0  0  0  0
   -0.8078   11.5460   -7.1722 C   0  0  0  0  0  0  0  0  0  0  0  0
    0.4351   14.5688   -6.0125 C   0  0  0  0  0  0  0  0  0  0  0  0
   -3.3172   14.5865  -11.7755 C   0  0  0  0  0  0  0  0  0  0  0  0
   -1.8924   14.0513  -11.7355 C   0  0  0  0  0  0  0  0  0  0  0  0
   -2.3932   14.9579  -10.6450 C   0  0  0  0  0  0  0  0  0  0  0  0
   -6.0964   12.3014   -9.8693 H   0  0  0  0  0  0  0  0  0  0  0  0
   -8.1772   10.1197  -13.8994 H   0  0  0  0  0  0  0  0  0  0  0  0
   -6.9259   12.2608  -14.0798 H   0  0  0  0  0  0  0  0  0  0  0  0
   -8.7677   10.5596  -11.5832 H   0  0  0  0  0  0  0  0  0  0  0  0
   -8.0380    9.6010   -7.2550 H   0  0  0  0  0  0  0  0  0  0  0  0
   -4.5892   13.6471  -10.5739 H   0  0  0  0  0  0  0  0  0  0  0  0
   -5.2205   15.1935  -12.9707 H   0  0  0  0  0  0  0  0  0  0  0  0
   -6.7424   12.3154   -6.9139 H   0  0  0  0  0  0  0  0  0  0  0  0
   -4.5075   13.2883   -6.4808 H   0  0  0  0  0  0  0  0  0  0  0  0
   -2.6693    9.7502   -8.0493 H   0  0  0  0  0  0  0  0  0  0  0  0
   -4.8943    8.7808   -8.4911 H   0  0  0  0  0  0  0  0  0  0  0  0
   -2.4097   14.2294   -6.2375 H   0  0  0  0  0  0  0  0  0  0  0  0
   -0.6685   10.5471   -7.5584 H   0  0  0  0  0  0  0  0  0  0  0  0
    1.4941   14.2779   -6.0748 H   0  0  0  0  0  0  0  0  0  0  0  0
    0.2544   15.4366   -6.6639 H   0  0  0  0  0  0  0  0  0  0  0  0
    0.1879   14.8324   -4.9736 H   0  0  0  0  0  0  0  0  0  0  0  0
   -3.5215   15.3697  -12.5204 H   0  0  0  0  0  0  0  0  0  0  0  0
   -1.7095   12.9870  -11.5263 H   0  0  0  0  0  0  0  0  0  0  0  0
   -1.1463   14.4168  -12.4564 H   0  0  0  0  0  0  0  0  0  0  0  0
   -2.0084   15.9854  -10.5669 H   0  0  0  0  0  0  0  0  0  0  0  0
   -2.5716   14.5556   -9.6369 H   0  0  0  0  0  0  0  0  0  0  0  0
  1  2  1  0  0  0  0
  1  4  1  0  0  0  0
  1 12  2  3  0  0  0
  2  6  2  0  0  0  0
  3  4  2  0  0  0  0
  3  5  1  0  0  0  0
  5  6  1  0  0  0  0
  5  9  1  0  0  0  0
  6  7  1  0  0  0  0
  7  8  1  0  0  0  0
  7 10  2  3  0  0  0
  8  9  2  0  0  0  0
 10 14  1  0  0  0  0
 11 12  1  0  0  0  0
 11 26  1  0  0  0  0
 12 13  1  0  0  0  0
 14 15  2  0  0  0  0
 14 19  1  0  0  0  0
 15 16  1  0  0  0  0
 16 17  2  0  0  0  0
 17 18  1  0  0  0  0
 17 20  1  0  0  0  0
 18 19  2  0  0  0  0
 20 21  2  0  0  0  0
 20 24  1  0  0  0  0
 21 22  1  0  0  0  0
 22 23  1  0  0  0  0
 22 25  1  0  0  0  0
 23 24  2  0  0  0  0
 26 27  1  0  0  0  0
 26 28  1  0  0  0  0
 27 28  1  0  0  0  0
  2 29  1  0  0  0  0
  3 30  1  0  0  0  0
  4 31  1  0  0  0  0
  5 32  1  0  0  0  0
 10 33  1  0  0  0  0
 11 34  1  0  0  0  0
 13 35  1  0  0  0  0
 15 36  1  0  0  0  0
 16 37  1  0  0  0  0
 18 38  1  0  0  0  0
 19 39  1  0  0  0  0
 21 40  1  0  0  0  0
 24 41  1  0  0  0  0
 25 42  1  0  0  0  0
 25 43  1  0  0  0  0
 25 44  1  0  0  0  0
 26 45  1  0  0  0  0
 27 46  1  0  0  0  0
 27 47  1  0  0  0  0
 28 48  1  0  0  0  0
 28 49  1  0  0  0  0
M  END
> <Name>
33

> <IC50[uM]>
0.008

$$$$
33
  -OEChem-05192314333D
 Structure written by MMmdl.
 49 53  0     0  0  0  0  0  0999 V2000
   -6.3918   12.3765  -12.0158 C   0  0  0  0  0  0  0  0  0  0  0  0
   -6.5335   11.8201  -10.7317 C   0  0  0  0  0  0  0  0  0  0  0  0
   -7.7273   10.5795  -13.0319 C   0  0  0  0  0  0  0  0  0  0  0  0
   -7.0082   11.7773  -13.1176 C   0  0  0  0  0  0  0  0  0  0  0  0
   -7.8294   10.0116  -11.7546 C   0  0  0  0  0  0  0  0  0  0  0  0
   -7.2533   10.6299  -10.5984 C   0  0  0  0  0  0  0  0  0  0  0  0
   -7.6133    9.7501   -9.5115 C   0  0  0  0  0  0  0  0  0  0  0  0
   -8.2802    8.7340   -9.9853 N   0  0  0  0  0  0  0  0  0  0  0  0
   -8.4149    8.8602  -11.2994 N   0  0  0  0  0  0  0  0  0  0  0  0
   -7.3368    9.8898   -8.0240 C   0  0  0  0  0  0  0  0  0  0  0  0
   -4.3580   13.5891  -11.5451 N   0  0  0  0  0  0  0  0  0  0  0  0
   -5.5327   13.6029  -12.2131 C   0  0  0  0  0  0  0  0  0  0  0  0
   -5.8791   14.5089  -12.9726 O   0  0  0  0  0  0  0  0  0  0  0  0
   -5.9622   10.4818   -7.7351 C   0  0  0  0  0  0  0  0  0  0  0  0
   -5.8525   11.7570   -7.1642 C   0  0  0  0  0  0  0  0  0  0  0  0
   -4.5920   12.3049   -6.9193 C   0  0  0  0  0  0  0  0  0  0  0  0
   -3.4386   11.5825   -7.2408 C   0  0  0  0  0  0  0  0  0  0  0  0
   -3.5579   10.3128   -7.8038 C   0  0  0  0  0  0  0  0  0  0  0  0
   -4.8126    9.7642   -8.0521 C   0  0  0  0  0  0  0  0  0  0  0  0
   -2.0919   12.1643   -6.9829 C   0  0  0  0  0  0  0  0  0  0  0  0
   -1.7362   13.4287   -6.5051 C   0  0  0  0  0  0  0  0  0  0  0  0
   -0.4017   13.4552   -6.4435 N   0  0  0  0  0  0  0  0  0  0  0  0
    0.1850   12.3496   -6.8156 N   0  0  0  0  0  0  0  0  0  0  0  0
   -0.8078   11.5460   -7.1722 C   0  0  0  0  0  0  0  0  0  0  0  0
    0.4351   14.5688   -6.0125 C   0  0  0  0  0  0  0  0  0  0  0  0
   -3.3172   14.5865  -11.7755 C   0  0  0  0  0  0  0  0  0  0  0  0
   -1.8924   14.0513  -11.7355 C   0  0  0  0  0  0  0  0  0  0  0  0
   -2.3932   14.9579  -10.6450 C   0  0  0  0  0  0  0  0  0  0  0  0
   -6.0964   12.3014   -9.8693 H   0  0  0  0  0  0  0  0  0  0  0  0
   -8.1772   10.1197  -13.8994 H   0  0  0  0  0  0  0  0  0  0  0  0
   -7.7108   12.5246  -13.5150 H   0  0  0  0  0  0  0  0  0  0  0  0
   -6.2088   11.5987  -13.8518 H   0  0  0  0  0  0  0  0  0  0  0  0
   -8.0380    9.6010   -7.2550 H   0  0  0  0  0  0  0  0  0  0  0  0
   -4.5892   13.6471  -10.5739 H   0  0  0  0  0  0  0  0  0  0  0  0
   -5.2205   15.1935  -12.9707 H   0  0  0  0  0  0  0  0  0  0  0  0
   -6.7424   12.3154   -6.9139 H   0  0  0  0  0  0  0  0  0  0  0  0
   -4.5075   13.2883   -6.4808 H   0  0  0  0  0  0  0  0  0  0  0  0
   -2.6693    9.7502   -8.0493 H   0  0  0  0  0  0  0  0  0  0  0  0
   -4.8943    8.7808   -8.4911 H   0  0  0  0  0  0  0  0  0  0  0  0
   -2.4097   14.2294   -6.2375 H   0  0  0  0  0  0  0  0  0  0  0  0
   -0.6685   10.5471   -7.5584 H   0  0  0  0  0  0  0  0  0  0  0  0
    1.4941   14.2779   -6.0748 H   0  0  0  0  0  0  0  0  0  0  0  0
    0.2544   15.4366   -6.6639 H   0  0  0  0  0  0  0  0  0  0  0  0
    0.1879   14.8324   -4.9736 H   0  0  0  0  0  0  0  0  0  0  0  0
   -3.5215   15.3697  -12.5204 H   0  0  0  0  0  0  0  0  0  0  0  0
   -1.7095   12.9870  -11.5263 H   0  0  0  0  0  0  0  0  0  0  0  0
   -1.1463   14.4168  -12.4564 H   0  0  0  0  0  0  0  0  0  0  0  0
   -2.0084   15.9854  -10.5669 H   0  0  0  0  0  0  0  0  0  0  0  0
   -2.5716   14.5556   -9.6369 H   0  0  0  0  0  0  0  0  0  0  0  0
  1  2  1  0  0  0  0
  1  4  1  0  0  0  0
  1 12  2  3  0  0  0
  2  6  2  0  0  0  0
  3  4  1  0  0  0  0
  3  5  2  0  0  0  0
  5  6  1  0  0  0  0
  5  9  1  0  0  0  0
  6  7  1  0  0  0  0
  7  8  1  0  0  0  0
  7 10  2  3  0  0  0
  8  9  2  0  0  0  0
 10 14  1  0  0  0  0
 11 12  1  0  0  0  0
 11 26  1  0  0  0  0
 12 13  1  0  0  0  0
 14 15  2  0  0  0  0
 14 19  1  0  0  0  0
 15 16  1  0  0  0  0
 16 17  2  0  0  0  0
 17 18  1  0  0  0  0
 17 20  1  0  0  0  0
 18 19  2  0  0  0  0
 20 21  2  0  0  0  0
 20 24  1  0  0  0  0
 21 22  1  0  0  0  0
 22 23  1  0  0  0  0
 22 25  1  0  0  0  0
 23 24  2  0  0  0  0
 26 27  1  0  0  0  0
 26 28  1  0  0  0  0
 27 28  1  0  0  0  0
  2 29  1  0  0  0  0
  3 30  1  0  0  0  0
  4 31  1  0  0  0  0
  4 32  1  0  0  0  0
 10 33  1  0  0  0  0
 11 34  1  0  0  0  0
 13 35  1  0  0  0  0
 15 36  1  0  0  0  0
 16 37  1  0  0  0  0
 18 38  1  0  0  0  0
 19 39  1  0  0  0  0
 21 40  1  0  0  0  0
 24 41  1  0  0  0  0
 25 42  1  0  0  0  0
 25 43  1  0  0  0  0
 25 44  1  0  0  0  0
 26 45  1  0  0  0  0
 27 46  1  0  0  0  0
 27 47  1  0  0  0  0
 28 48  1  0  0  0  0
 28 49  1  0  0  0  0
M  END
> <Name>
33

> <IC50[uM]>
0.008

$$$$
33
  -OEChem-05192314333D
 Structure written by MMmdl.
 49 53  0     0  0  0  0  0  0999 V2000
   -6.3918   12.3765  -12.0158 C   0  0  0  0  0  0  0  0  0  0  0  0
   -6.5335   11.8201  -10.7317 C   0  0  0  0  0  0  0  0  0  0  0  0
   -7.7273   10.5795  -13.0319 C   0  0  0  0  0  0  0  0  0  0  0  0
   -7.0082   11.7773  -13.1176 C   0  0  0  0  0  0  0  0  0  0  0  0
   -7.8294   10.0116  -11.7546 C   0  0  0  0  0  0  0  0  0  0  0  0
   -7.2533   10.6299  -10.5984 C   0  0  0  0  0  0  0  0  0  0  0  0
   -7.6133    9.7501   -9.5115 C   0  0  0  0  0  0  0  0  0  0  0  0
   -8.2802    8.7340   -9.9853 N   0  0  0  0  0  0  0  0  0  0  0  0
   -8.4149    8.8602  -11.2994 N   0  0  0  0  0  0  0  0  0  0  0  0
   -7.3368    9.8898   -8.0240 C   0  0  0  0  0  0  0  0  0  0  0  0
   -4.3580   13.5891  -11.5451 N   0  0  0  0  0  0  0  0  0  0  0  0
   -5.5327   13.6029  -12.2131 C   0  0  0  0  0  0  0  0  0  0  0  0
   -5.8791   14.5089  -12.9726 O   0  0  0  0  0  0  0  0  0  0  0  0
   -5.9622   10.4818   -7.7351 C   0  0  0  0  0  0  0  0  0  0  0  0
   -5.8525   11.7570   -7.1642 C   0  0  0  0  0  0  0  0  0  0  0  0
   -4.5920   12.3049   -6.9193 C   0  0  0  0  0  0  0  0  0  0  0  0
   -3.4386   11.5825   -7.2408 C   0  0  0  0  0  0  0  0  0  0  0  0
   -3.5579   10.3128   -7.8038 C   0  0  0  0  0  0  0  0  0  0  0  0
   -4.8126    9.7642   -8.0521 C   0  0  0  0  0  0  0  0  0  0  0  0
   -2.0919   12.1643   -6.9829 C   0  0  0  0  0  0  0  0  0  0  0  0
   -1.7362   13.4287   -6.5051 C   0  0  0  0  0  0  0  0  0  0  0  0
   -0.4017   13.4552   -6.4435 N   0  0  0  0  0  0  0  0  0  0  0  0
    0.1850   12.3496   -6.8156 N   0  0  0  0  0  0  0  0  0  0  0  0
   -0.8078   11.5460   -7.1722 C   0  0  0  0  0  0  0  0  0  0  0  0
    0.4351   14.5688   -6.0125 C   0  0  0  0  0  0  0  0  0  0  0  0
   -3.3172   14.5865  -11.7755 C   0  0  0  0  0  0  0  0  0  0  0  0
   -1.8924   14.0513  -11.7355 C   0  0  0  0  0  0  0  0  0  0  0  0
   -2.3932   14.9579  -10.6450 C   0  0  0  0  0  0  0  0  0  0  0  0
   -5.5209   11.6327  -10.3450 H   0  0  0  0  0  0  0  0  0  0  0  0
   -7.0320   12.5735  -10.1041 H   0  0  0  0  0  0  0  0  0  0  0  0
   -8.1772   10.1197  -13.8994 H   0  0  0  0  0  0  0  0  0  0  0  0
   -6.9259   12.2608  -14.0798 H   0  0  0  0  0  0  0  0  0  0  0  0
   -8.0380    9.6010   -7.2550 H   0  0  0  0  0  0  0  0  0  0  0  0
   -4.5892   13.6471  -10.5739 H   0  0  0  0  0  0  0  0  0  0  0  0
   -5.2205   15.1935  -12.9707 H   0  0  0  0  0  0  0  0  0  0  0  0
   -6.7424   12.3154   -6.9139 H   0  0  0  0  0  0  0  0  0  0  0  0
   -4.5075   13.2883   -6.4808 H   0  0  0  0  0  0  0  0  0  0  0  0
   -2.6693    9.7502   -8.0493 H   0  0  0  0  0  0  0  0  0  0  0  0
   -4.8943    8.7808   -8.4911 H   0  0  0  0  0  0  0  0  0  0  0  0
   -2.4097   14.2294   -6.2375 H   0  0  0  0  0  0  0  0  0  0  0  0
   -0.6685   10.5471   -7.5584 H   0  0  0  0  0  0  0  0  0  0  0  0
    1.4941   14.2779   -6.0748 H   0  0  0  0  0  0  0  0  0  0  0  0
    0.2544   15.4366   -6.6639 H   0  0  0  0  0  0  0  0  0  0  0  0
    0.1879   14.8324   -4.9736 H   0  0  0  0  0  0  0  0  0  0  0  0
   -3.5215   15.3697  -12.5204 H   0  0  0  0  0  0  0  0  0  0  0  0
   -1.7095   12.9870  -11.5263 H   0  0  0  0  0  0  0  0  0  0  0  0
   -1.1463   14.4168  -12.4564 H   0  0  0  0  0  0  0  0  0  0  0  0
   -2.0084   15.9854  -10.5669 H   0  0  0  0  0  0  0  0  0  0  0  0
   -2.5716   14.5556   -9.6369 H   0  0  0  0  0  0  0  0  0  0  0  0
  1  2  1  0  0  0  0
  1  4  1  0  0  0  0
  1 12  2  3  0  0  0
  2  6  1  0  0  0  0
  3  4  2  0  0  0  0
  3  5  1  0  0  0  0
  5  6  2  0  0  0  0
  5  9  1  0  0  0  0
  6  7  1  0  0  0  0
  7  8  1  0  0  0  0
  7 10  2  3  0  0  0
  8  9  2  0  0  0  0
 10 14  1  0  0  0  0
 11 12  1  0  0  0  0
 11 26  1  0  0  0  0
 12 13  1  0  0  0  0
 14 15  2  0  0  0  0
 14 19  1  0  0  0  0
 15 16  1  0  0  0  0
 16 17  2  0  0  0  0
 17 18  1  0  0  0  0
 17 20  1  0  0  0  0
 18 19  2  0  0  0  0
 20 21  2  0  0  0  0
 20 24  1  0  0  0  0
 21 22  1  0  0  0  0
 22 23  1  0  0  0  0
 22 25  1  0  0  0  0
 23 24  2  0  0  0  0
 26 27  1  0  0  0  0
 26 28  1  0  0  0  0
 27 28  1  0  0  0  0
  2 29  1  0  0  0  0
  2 30  1  0  0  0  0
  3 31  1  0  0  0  0
  4 32  1  0  0  0  0
 10 33  1  0  0  0  0
 11 34  1  0  0  0  0
 13 35  1  0  0  0  0
 15 36  1  0  0  0  0
 16 37  1  0  0  0  0
 18 38  1  0  0  0  0
 19 39  1  0  0  0  0
 21 40  1  0  0  0  0
 24 41  1  0  0  0  0
 25 42  1  0  0  0  0
 25 43  1  0  0  0  0
 25 44  1  0  0  0  0
 26 45  1  0  0  0  0
 27 46  1  0  0  0  0
 27 47  1  0  0  0  0
 28 48  1  0  0  0  0
 28 49  1  0  0  0  0
M  END
> <Name>
33

> <IC50[uM]>
0.008

$$$$
33
  -OEChem-05192314333D
 Structure written by MMmdl.
 49 53  0     0  0  0  0  0  0999 V2000
   -6.3918   12.3765  -12.0158 C   0  0  0  0  0  0  0  0  0  0  0  0
   -6.5335   11.8201  -10.7317 C   0  0  0  0  0  0  0  0  0  0  0  0
   -7.7273   10.5795  -13.0319 C   0  0  0  0  0  0  0  0  0  0  0  0
   -7.0082   11.7773  -13.1176 C   0  0  0  0  0  0  0  0  0  0  0  0
   -7.8294   10.0116  -11.7546 C   0  0  0  0  0  0  0  0  0  0  0  0
   -7.2533   10.6299  -10.5984 C   0  0  0  0  0  0  0  0  0  0  0  0
   -7.6133    9.7501   -9.5115 C   0  0  0  0  0  0  0  0  0  0  0  0
   -8.2802    8.7340   -9.9853 N   0  0  0  0  0  0  0  0  0  0  0  0
   -8.4149    8.8602  -11.2994 N   0  0  0  0  0  0  0  0  0  0  0  0
   -7.3368    9.8898   -8.0240 C   0  0  0  0  0  0  0  0  0  0  0  0
   -4.3580   13.5891  -11.5451 N   0  0  0  0  0  0  0  0  0  0  0  0
   -5.5327   13.6029  -12.2131 C   0  0  0  0  0  0  0  0  0  0  0  0
   -5.8791   14.5089  -12.9726 O   0  0  0  0  0  0  0  0  0  0  0  0
   -5.9622   10.4818   -7.7351 C   0  0  0  0  0  0  0  0  0  0  0  0
   -5.8525   11.7570   -7.1642 C   0  0  0  0  0  0  0  0  0  0  0  0
   -4.5920   12.3049   -6.9193 C   0  0  0  0  0  0  0  0  0  0  0  0
   -3.4386   11.5825   -7.2408 C   0  0  0  0  0  0  0  0  0  0  0  0
   -3.5579   10.3128   -7.8038 C   0  0  0  0  0  0  0  0  0  0  0  0
   -4.8126    9.7642   -8.0521 C   0  0  0  0  0  0  0  0  0  0  0  0
   -2.0919   12.1643   -6.9829 C   0  0  0  0  0  0  0  0  0  0  0  0
   -1.7362   13.4287   -6.5051 C   0  0  0  0  0  0  0  0  0  0  0  0
   -0.4017   13.4552   -6.4435 N   0  0  0  0  0  0  0  0  0  0  0  0
    0.1850   12.3496   -6.8156 N   0  0  0  0  0  0  0  0  0  0  0  0
   -0.8078   11.5460   -7.1722 C   0  0  0  0  0  0  0  0  0  0  0  0
    0.4351   14.5688   -6.0125 C   0  0  0  0  0  0  0  0  0  0  0  0
   -3.3172   14.5865  -11.7755 C   0  0  0  0  0  0  0  0  0  0  0  0
   -1.8924   14.0513  -11.7355 C   0  0  0  0  0  0  0  0  0  0  0  0
   -2.3932   14.9579  -10.6450 C   0  0  0  0  0  0  0  0  0  0  0  0
   -6.0964   12.3014   -9.8693 H   0  0  0  0  0  0  0  0  0  0  0  0
   -8.1772   10.1197  -13.8994 H   0  0  0  0  0  0  0  0  0  0  0  0
   -6.9259   12.2608  -14.0798 H   0  0  0  0  0  0  0  0  0  0  0  0
   -8.0380    9.6010   -7.2550 H   0  0  0  0  0  0  0  0  0  0  0  0
   -4.5892   13.6471  -10.5739 H   0  0  0  0  0  0  0  0  0  0  0  0
   -5.2205   15.1935  -12.9707 H   0  0  0  0  0  0  0  0  0  0  0  0
   -6.7424   12.3154   -6.9139 H   0  0  0  0  0  0  0  0  0  0  0  0
   -4.5075   13.2883   -6.4808 H   0  0  0  0  0  0  0  0  0  0  0  0
   -3.4391   12.0287   -8.2463 H   0  0  0  0  0  0  0  0  0  0  0  0
   -2.6693    9.7502   -8.0493 H   0  0  0  0  0  0  0  0  0  0  0  0
   -4.8943    8.7808   -8.4911 H   0  0  0  0  0  0  0  0  0  0  0  0
   -2.4097   14.2294   -6.2375 H   0  0  0  0  0  0  0  0  0  0  0  0
   -0.6685   10.5471   -7.5584 H   0  0  0  0  0  0  0  0  0  0  0  0
    1.4941   14.2779   -6.0748 H   0  0  0  0  0  0  0  0  0  0  0  0
    0.2544   15.4366   -6.6639 H   0  0  0  0  0  0  0  0  0  0  0  0
    0.1879   14.8324   -4.9736 H   0  0  0  0  0  0  0  0  0  0  0  0
   -3.5215   15.3697  -12.5204 H   0  0  0  0  0  0  0  0  0  0  0  0
   -1.7095   12.9870  -11.5263 H   0  0  0  0  0  0  0  0  0  0  0  0
   -1.1463   14.4168  -12.4564 H   0  0  0  0  0  0  0  0  0  0  0  0
   -2.0084   15.9854  -10.5669 H   0  0  0  0  0  0  0  0  0  0  0  0
   -2.5716   14.5556   -9.6369 H   0  0  0  0  0  0  0  0  0  0  0  0
  1  2  1  0  0  0  0
  1  4  1  0  0  0  0
  1 12  2  3  0  0  0
  2  6  2  0  0  0  0
  3  4  2  0  0  0  0
  3  5  1  0  0  0  0
  5  6  1  0  0  0  0
  5  9  2  0  0  0  0
  6  7  1  0  0  0  0
  7  8  2  0  0  0  0
  7 10  1  0  0  0  0
  8  9  1  0  0  0  0
 10 14  2  0  0  0  0
 11 12  1  0  0  0  0
 11 26  1  0  0  0  0
 12 13  1  0  0  0  0
 14 15  1  0  0  0  0
 14 19  1  0  0  0  0
 15 16  2  0  0  0  0
 16 17  1  0  0  0  0
 17 18  1  0  0  0  0
 17 20  1  0  0  0  0
 18 19  2  0  0  0  0
 20 21  2  0  0  0  0
 20 24  1  0  0  0  0
 21 22  1  0  0  0  0
 22 23  1  0  0  0  0
 22 25  1  0  0  0  0
 23 24  2  0  0  0  0
 26 27  1  0  0  0  0
 26 28  1  0  0  0  0
 27 28  1  0  0  0  0
  2 29  1  0  0  0  0
  3 30  1  0  0  0  0
  4 31  1  0  0  0  0
 10 32  1  0  0  0  0
 11 33  1  0  0  0  0
 13 34  1  0  0  0  0
 15 35  1  0  0  0  0
 16 36  1  0  0  0  0
 17 37  1  0  0  0  0
 18 38  1  0  0  0  0
 19 39  1  0  0  0  0
 21 40  1  0  0  0  0
 24 41  1  0  0  0  0
 25 42  1  0  0  0  0
 25 43  1  0  0  0  0
 25 44  1  0  0  0  0
 26 45  1  0  0  0  0
 27 46  1  0  0  0  0
 27 47  1  0  0  0  0
 28 48  1  0  0  0  0
 28 49  1  0  0  0  0
M  END
> <Name>
33

> <IC50[uM]>
0.008

$$$$
33
  -OEChem-05192314333D
 Structure written by MMmdl.
 49 53  0     0  0  0  0  0  0999 V2000
   -6.3918   12.3765  -12.0158 C   0  0  0  0  0  0  0  0  0  0  0  0
   -6.5335   11.8201  -10.7317 C   0  0  0  0  0  0  0  0  0  0  0  0
   -7.7273   10.5795  -13.0319 C   0  0  0  0  0  0  0  0  0  0  0  0
   -7.0082   11.7773  -13.1176 C   0  0  0  0  0  0  0  0  0  0  0  0
   -7.8294   10.0116  -11.7546 C   0  0  0  0  0  0  0  0  0  0  0  0
   -7.2533   10.6299  -10.5984 C   0  0  0  0  0  0  0  0  0  0  0  0
   -7.6133    9.7501   -9.5115 C   0  0  0  0  0  0  0  0  0  0  0  0
   -8.2802    8.7340   -9.9853 N   0  0  0  0  0  0  0  0  0  0  0  0
   -8.4149    8.8602  -11.2994 N   0  0  0  0  0  0  0  0  0  0  0  0
   -7.3368    9.8898   -8.0240 C   0  0  0  0  0  0  0  0  0  0  0  0
   -4.3580   13.5891  -11.5451 N   0  0  0  0  0  0  0  0  0  0  0  0
   -5.5327   13.6029  -12.2131 C   0  0  0  0  0  0  0  0  0  0  0  0
   -5.8791   14.5089  -12.9726 O   0  0  0  0  0  0  0  0  0  0  0  0
   -5.9622   10.4818   -7.7351 C   0  0  0  0  0  0  0  0  0  0  0  0
   -5.8525   11.7570   -7.1642 C   0  0  0  0  0  0  0  0  0  0  0  0
   -4.5920   12.3049   -6.9193 C   0  0  0  0  0  0  0  0  0  0  0  0
   -3.4386   11.5825   -7.2408 C   0  0  0  0  0  0  0  0  0  0  0  0
   -3.5579   10.3128   -7.8038 C   0  0  0  0  0  0  0  0  0  0  0  0
   -4.8126    9.7642   -8.0521 C   0  0  0  0  0  0  0  0  0  0  0  0
   -2.0919   12.1643   -6.9829 C   0  0  0  0  0  0  0  0  0  0  0  0
   -1.7362   13.4287   -6.5051 C   0  0  0  0  0  0  0  0  0  0  0  0
   -0.4017   13.4552   -6.4435 N   0  0  0  0  0  0  0  0  0  0  0  0
    0.1850   12.3496   -6.8156 N   0  0  0  0  0  0  0  0  0  0  0  0
   -0.8078   11.5460   -7.1722 C   0  0  0  0  0  0  0  0  0  0  0  0
    0.4351   14.5688   -6.0125 C   0  0  0  0  0  0  0  0  0  0  0  0
   -3.3172   14.5865  -11.7755 C   0  0  0  0  0  0  0  0  0  0  0  0
   -1.8924   14.0513  -11.7355 C   0  0  0  0  0  0  0  0  0  0  0  0
   -2.3932   14.9579  -10.6450 C   0  0  0  0  0  0  0  0  0  0  0  0
   -6.0964   12.3014   -9.8693 H   0  0  0  0  0  0  0  0  0  0  0  0
   -8.1772   10.1197  -13.8994 H   0  0  0  0  0  0  0  0  0  0  0  0
   -6.9259   12.2608  -14.0798 H   0  0  0  0  0  0  0  0  0  0  0  0
   -8.0380    9.6010   -7.2550 H   0  0  0  0  0  0  0  0  0  0  0  0
   -4.5892   13.6471  -10.5739 H   0  0  0  0  0  0  0  0  0  0  0  0
   -5.2205   15.1935  -12.9707 H   0  0  0  0  0  0  0  0  0  0  0  0
   -6.7424   12.3154   -6.9139 H   0  0  0  0  0  0  0  0  0  0  0  0
   -4.5075   13.2883   -6.4808 H   0  0  0  0  0  0  0  0  0  0  0  0
   -2.6693    9.7502   -8.0493 H   0  0  0  0  0  0  0  0  0  0  0  0
   -4.8629    8.8200   -7.4901 H   0  0  0  0  0  0  0  0  0  0  0  0
   -4.8583    9.5519   -9.1305 H   0  0  0  0  0  0  0  0  0  0  0  0
   -2.4097   14.2294   -6.2375 H   0  0  0  0  0  0  0  0  0  0  0  0
   -0.6685   10.5471   -7.5584 H   0  0  0  0  0  0  0  0  0  0  0  0
    1.4941   14.2779   -6.0748 H   0  0  0  0  0  0  0  0  0  0  0  0
    0.2544   15.4366   -6.6639 H   0  0  0  0  0  0  0  0  0  0  0  0
    0.1879   14.8324   -4.9736 H   0  0  0  0  0  0  0  0  0  0  0  0
   -3.5215   15.3697  -12.5204 H   0  0  0  0  0  0  0  0  0  0  0  0
   -1.7095   12.9870  -11.5263 H   0  0  0  0  0  0  0  0  0  0  0  0
   -1.1463   14.4168  -12.4564 H   0  0  0  0  0  0  0  0  0  0  0  0
   -2.0084   15.9854  -10.5669 H   0  0  0  0  0  0  0  0  0  0  0  0
   -2.5716   14.5556   -9.6369 H   0  0  0  0  0  0  0  0  0  0  0  0
  1  2  1  0  0  0  0
  1  4  1  0  0  0  0
  1 12  2  3  0  0  0
  2  6  2  0  0  0  0
  3  4  2  0  0  0  0
  3  5  1  0  0  0  0
  5  6  1  0  0  0  0
  5  9  2  0  0  0  0
  6  7  1  0  0  0  0
  7  8  2  0  0  0  0
  7 10  1  0  0  0  0
  8  9  1  0  0  0  0
 10 14  2  3  0  0  0
 11 12  1  0  0  0  0
 11 26  1  0  0  0  0
 12 13  1  0  0  0  0
 14 15  1  0  0  0  0
 14 19  1  0  0  0  0
 15 16  2  0  0  0  0
 16 17  1  0  0  0  0
 17 18  2  0  0  0  0
 17 20  1  0  0  0  0
 18 19  1  0  0  0  0
 20 21  2  0  0  0  0
 20 24  1  0  0  0  0
 21 22  1  0  0  0  0
 22 23  1  0  0  0  0
 22 25  1  0  0  0  0
 23 24  2  0  0  0  0
 26 27  1  0  0  0  0
 26 28  1  0  0  0  0
 27 28  1  0  0  0  0
  2 29  1  0  0  0  0
  3 30  1  0  0  0  0
  4 31  1  0  0  0  0
 10 32  1  0  0  0  0
 11 33  1  0  0  0  0
 13 34  1  0  0  0  0
 15 35  1  0  0  0  0
 16 36  1  0  0  0  0
 18 37  1  0  0  0  0
 19 38  1  0  0  0  0
 19 39  1  0  0  0  0
 21 40  1  0  0  0  0
 24 41  1  0  0  0  0
 25 42  1  0  0  0  0
 25 43  1  0  0  0  0
 25 44  1  0  0  0  0
 26 45  1  0  0  0  0
 27 46  1  0  0  0  0
 27 47  1  0  0  0  0
 28 48  1  0  0  0  0
 28 49  1  0  0  0  0
M  END
> <Name>
33

> <IC50[uM]>
0.008

$$$$
