14
  -OEChem-05192314333D
 Structure written by MMmdl.
 34 35  0     0  0  0  0  0  0999 V2000
   -6.3887   12.3647  -12.0798 C   0  0  0  0  0  0  0  0  0  0  0  0
   -6.4962   11.8202  -10.8023 C   0  0  0  0  0  0  0  0  0  0  0  0
   -7.7456   10.5858  -13.0568 C   0  0  0  0  0  0  0  0  0  0  0  0
   -7.0126   11.7716  -13.1776 C   0  0  0  0  0  0  0  0  0  0  0  0
   -7.8340   10.0285  -11.7877 C   0  0  0  0  0  0  0  0  0  0  0  0
   -7.2471   10.6293  -10.6255 C   0  0  0  0  0  0  0  0  0  0  0  0
   -7.6099    9.7738   -9.5366 C   0  0  0  0  0  0  0  0  0  0  0  0
   -8.2971    8.7499   -9.9997 N   0  0  0  0  0  0  0  0  0  0  0  0
   -8.4324    8.8805  -11.3156 N   0  0  0  0  0  0  0  0  0  0  0  0
   -7.3321    9.9039   -8.0386 C   0  0  0  0  0  0  0  0  0  0  0  0
   -4.4077   13.6374  -11.5161 N   0  0  0  0  0  0  0  0  0  0  0  0
   -3.4400   14.7362  -11.5603 C   0  0  0  0  0  0  0  0  0  0  0  0
   -5.5080   13.5935  -12.2349 C   0  0  0  0  0  0  0  0  0  0  0  0
   -5.8585   14.4899  -13.0509 O   0  0  0  0  0  0  0  0  0  0  0  0
   -5.9274   10.4444   -7.6346 C   0  0  0  0  0  0  0  0  0  0  0  0
   -4.7880    9.9988   -8.5813 C   0  0  0  0  0  0  0  0  0  0  0  0
   -5.9224   11.9644   -7.3345 C   0  0  0  0  0  0  0  0  0  0  0  0
   -6.0160   12.2965   -9.9603 H   0  0  0  0  0  0  0  0  0  0  0  0
   -8.2205   10.1254  -13.9106 H   0  0  0  0  0  0  0  0  0  0  0  0
   -6.9276   12.2403  -14.1469 H   0  0  0  0  0  0  0  0  0  0  0  0
   -8.9125    8.2223  -11.8954 H   0  0  0  0  0  0  0  0  0  0  0  0
   -8.0859   10.5853   -7.6172 H   0  0  0  0  0  0  0  0  0  0  0  0
   -7.4478    8.9063   -7.5897 H   0  0  0  0  0  0  0  0  0  0  0  0
   -4.2197   12.8722  -10.9003 H   0  0  0  0  0  0  0  0  0  0  0  0
   -2.6137   14.5259  -10.8653 H   0  0  0  0  0  0  0  0  0  0  0  0
   -3.0438   14.8348  -12.5817 H   0  0  0  0  0  0  0  0  0  0  0  0
   -3.9359   15.6734  -11.2673 H   0  0  0  0  0  0  0  0  0  0  0  0
   -5.7040    9.9624   -6.6714 H   0  0  0  0  0  0  0  0  0  0  0  0
   -3.8338   10.4189   -8.2306 H   0  0  0  0  0  0  0  0  0  0  0  0
   -4.7249    8.9006   -8.5873 H   0  0  0  0  0  0  0  0  0  0  0  0
   -4.9952   10.3598   -9.5995 H   0  0  0  0  0  0  0  0  0  0  0  0
   -4.9060   12.2805   -7.0569 H   0  0  0  0  0  0  0  0  0  0  0  0
   -6.2462   12.5158   -8.2296 H   0  0  0  0  0  0  0  0  0  0  0  0
   -6.6118   12.1763   -6.5040 H   0  0  0  0  0  0  0  0  0  0  0  0
  1  2  2  0  0  0  0
  1  4  1  0  0  0  0
  1 13  1  0  0  0  0
  2  6  1  0  0  0  0
  3  4  2  0  0  0  0
  3  5  1  0  0  0  0
  5  6  2  0  0  0  0
  5  9  1  0  0  0  0
  6  7  1  0  0  0  0
  7  8  2  0  0  0  0
  7 10  1  0  0  0  0
  8  9  1  0  0  0  0
 10 15  1  0  0  0  0
 11 12  1  0  0  0  0
 11 13  1  0  0  0  0
 13 14  2  0  0  0  0
 15 16  1  0  0  0  0
 15 17  1  0  0  0  0
  2 18  1  0  0  0  0
  3 19  1  0  0  0  0
  4 20  1  0  0  0  0
  9 21  1  0  0  0  0
 10 22  1  0  0  0  0
 10 23  1  0  0  0  0
 11 24  1  0  0  0  0
 12 25  1  0  0  0  0
 12 26  1  0  0  0  0
 12 27  1  0  0  0  0
 15 28  1  0  0  0  0
 16 29  1  0  0  0  0
 16 30  1  0  0  0  0
 16 31  1  0  0  0  0
 17 32  1  0  0  0  0
 17 33  1  0  0  0  0
 17 34  1  0  0  0  0
M  END
> <Name>
14

> <IC50[uM]>
0.84

$$$$
14
  -OEChem-05192314333D
 Structure written by MMmdl.
 34 35  0     0  0  0  0  0  0999 V2000
   -6.3887   12.3647  -12.0798 C   0  0  0  0  0  0  0  0  0  0  0  0
   -6.4962   11.8202  -10.8023 C   0  0  0  0  0  0  0  0  0  0  0  0
   -7.7456   10.5858  -13.0568 C   0  0  0  0  0  0  0  0  0  0  0  0
   -7.0126   11.7716  -13.1776 C   0  0  0  0  0  0  0  0  0  0  0  0
   -7.8340   10.0285  -11.7877 C   0  0  0  0  0  0  0  0  0  0  0  0
   -7.2471   10.6293  -10.6255 C   0  0  0  0  0  0  0  0  0  0  0  0
   -7.6099    9.7738   -9.5366 C   0  0  0  0  0  0  0  0  0  0  0  0
   -8.2971    8.7499   -9.9997 N   0  0  0  0  0  0  0  0  0  0  0  0
   -8.4324    8.8805  -11.3156 N   0  0  0  0  0  0  0  0  0  0  0  0
   -7.3321    9.9039   -8.0386 C   0  0  0  0  0  0  0  0  0  0  0  0
   -4.4077   13.6374  -11.5161 N   0  0  0  0  0  0  0  0  0  0  0  0
   -3.4400   14.7362  -11.5603 C   0  0  0  0  0  0  0  0  0  0  0  0
   -5.5080   13.5935  -12.2349 C   0  0  0  0  0  0  0  0  0  0  0  0
   -5.8585   14.4899  -13.0509 O   0  0  0  0  0  0  0  0  0  0  0  0
   -5.9274   10.4444   -7.6346 C   0  0  0  0  0  0  0  0  0  0  0  0
   -4.7880    9.9988   -8.5813 C   0  0  0  0  0  0  0  0  0  0  0  0
   -5.9224   11.9644   -7.3345 C   0  0  0  0  0  0  0  0  0  0  0  0
   -6.0160   12.2965   -9.9603 H   0  0  0  0  0  0  0  0  0  0  0  0
   -8.2205   10.1254  -13.9106 H   0  0  0  0  0  0  0  0  0  0  0  0
   -6.9276   12.2403  -14.1469 H   0  0  0  0  0  0  0  0  0  0  0  0
   -8.6584    7.9965   -9.4504 H   0  0  0  0  0  0  0  0  0  0  0  0
   -8.0859   10.5853   -7.6172 H   0  0  0  0  0  0  0  0  0  0  0  0
   -7.4478    8.9063   -7.5897 H   0  0  0  0  0  0  0  0  0  0  0  0
   -4.2197   12.8722  -10.9003 H   0  0  0  0  0  0  0  0  0  0  0  0
   -2.6137   14.5259  -10.8653 H   0  0  0  0  0  0  0  0  0  0  0  0
   -3.0438   14.8348  -12.5817 H   0  0  0  0  0  0  0  0  0  0  0  0
   -3.9359   15.6734  -11.2673 H   0  0  0  0  0  0  0  0  0  0  0  0
   -5.7040    9.9624   -6.6714 H   0  0  0  0  0  0  0  0  0  0  0  0
   -3.8338   10.4189   -8.2306 H   0  0  0  0  0  0  0  0  0  0  0  0
   -4.7249    8.9006   -8.5873 H   0  0  0  0  0  0  0  0  0  0  0  0
   -4.9952   10.3598   -9.5995 H   0  0  0  0  0  0  0  0  0  0  0  0
   -4.9060   12.2805   -7.0569 H   0  0  0  0  0  0  0  0  0  0  0  0
   -6.2462   12.5158   -8.2296 H   0  0  0  0  0  0  0  0  0  0  0  0
   -6.6118   12.1763   -6.5040 H   0  0  0  0  0  0  0  0  0  0  0  0
  1  2  2  0  0  0  0
  1  4  1  0  0  0  0
  1 13  1  0  0  0  0
  2  6  1  0  0  0  0
  3  4  2  0  0  0  0
  3  5  1  0  0  0  0
  5  6  1  0  0  0  0
  5  9  2  0  0  0  0
  6  7  2  0  0  0  0
  7  8  1  0  0  0  0
  7 10  1  0  0  0  0
  8  9  1  0  0  0  0
 10 15  1  0  0  0  0
 11 12  1  0  0  0  0
 11 13  1  0  0  0  0
 13 14  2  0  0  0  0
 15 16  1  0  0  0  0
 15 17  1  0  0  0  0
  2 18  1  0  0  0  0
  3 19  1  0  0  0  0
  4 20  1  0  0  0  0
  8 21  1  0  0  0  0
 10 22  1  0  0  0  0
 10 23  1  0  0  0  0
 11 24  1  0  0  0  0
 12 25  1  0  0  0  0
 12 26  1  0  0  0  0
 12 27  1  0  0  0  0
 15 28  1  0  0  0  0
 16 29  1  0  0  0  0
 16 30  1  0  0  0  0
 16 31  1  0  0  0  0
 17 32  1  0  0  0  0
 17 33  1  0  0  0  0
 17 34  1  0  0  0  0
M  END
> <Name>
14

> <IC50[uM]>
0.84

$$$$
14
  -OEChem-05192314333D
 Structure written by MMmdl.
 34 35  0     0  0  0  0  0  0999 V2000
   -6.3887   12.3647  -12.0798 C   0  0  0  0  0  0  0  0  0  0  0  0
   -6.4962   11.8202  -10.8023 C   0  0  0  0  0  0  0  0  0  0  0  0
   -7.7456   10.5858  -13.0568 C   0  0  0  0  0  0  0  0  0  0  0  0
   -7.0126   11.7716  -13.1776 C   0  0  0  0  0  0  0  0  0  0  0  0
   -7.8340   10.0285  -11.7877 C   0  0  0  0  0  0  0  0  0  0  0  0
   -7.2471   10.6293  -10.6255 C   0  0  0  0  0  0  0  0  0  0  0  0
   -7.6099    9.7738   -9.5366 C   0  0  0  0  0  0  0  0  0  0  0  0
   -8.2971    8.7499   -9.9997 N   0  0  0  0  0  0  0  0  0  0  0  0
   -8.4324    8.8805  -11.3156 N   0  0  0  0  0  0  0  0  0  0  0  0
   -7.3321    9.9039   -8.0386 C   0  0  0  0  0  0  0  0  0  0  0  0
   -4.4077   13.6374  -11.5161 N   0  0  0  0  0  0  0  0  0  0  0  0
   -3.4400   14.7362  -11.5603 C   0  0  0  0  0  0  0  0  0  0  0  0
   -5.5080   13.5935  -12.2349 C   0  0  0  0  0  0  0  0  0  0  0  0
   -5.8585   14.4899  -13.0509 O   0  0  0  0  0  0  0  0  0  0  0  0
   -5.9274   10.4444   -7.6346 C   0  0  0  0  0  0  0  0  0  0  0  0
   -4.7880    9.9988   -8.5813 C   0  0  0  0  0  0  0  0  0  0  0  0
   -5.9224   11.9644   -7.3345 C   0  0  0  0  0  0  0  0  0  0  0  0
   -6.0160   12.2965   -9.9603 H   0  0  0  0  0  0  0  0  0  0  0  0
   -8.2205   10.1254  -13.9106 H   0  0  0  0  0  0  0  0  0  0  0  0
   -6.9276   12.2403  -14.1469 H   0  0  0  0  0  0  0  0  0  0  0  0
   -8.9125    8.2223  -11.8954 H   0  0  0  0  0  0  0  0  0  0  0  0
   -8.0859   10.5853   -7.6172 H   0  0  0  0  0  0  0  0  0  0  0  0
   -7.4478    8.9063   -7.5897 H   0  0  0  0  0  0  0  0  0  0  0  0
   -2.6137   14.5259  -10.8653 H   0  0  0  0  0  0  0  0  0  0  0  0
   -3.0438   14.8348  -12.5817 H   0  0  0  0  0  0  0  0  0  0  0  0
   -3.9359   15.6734  -11.2673 H   0  0  0  0  0  0  0  0  0  0  0  0
   -5.2194   15.1927  -13.0438 H   0  0  0  0  0  0  0  0  0  0  0  0
   -5.7040    9.9624   -6.6714 H   0  0  0  0  0  0  0  0  0  0  0  0
   -3.8338   10.4189   -8.2306 H   0  0  0  0  0  0  0  0  0  0  0  0
   -4.7249    8.9006   -8.5873 H   0  0  0  0  0  0  0  0  0  0  0  0
   -4.9952   10.3598   -9.5995 H   0  0  0  0  0  0  0  0  0  0  0  0
   -4.9060   12.2805   -7.0569 H   0  0  0  0  0  0  0  0  0  0  0  0
   -6.2462   12.5158   -8.2296 H   0  0  0  0  0  0  0  0  0  0  0  0
   -6.6118   12.1763   -6.5040 H   0  0  0  0  0  0  0  0  0  0  0  0
  1  2  2  0  0  0  0
  1  4  1  0  0  0  0
  1 13  1  0  0  0  0
  2  6  1  0  0  0  0
  3  4  2  0  0  0  0
  3  5  1  0  0  0  0
  5  6  2  0  0  0  0
  5  9  1  0  0  0  0
  6  7  1  0  0  0  0
  7  8  2  0  0  0  0
  7 10  1  0  0  0  0
  8  9  1  0  0  0  0
 10 15  1  0  0  0  0
 11 12  1  0  0  0  0
 11 13  2  0  0  0  0
 13 14  1  0  0  0  0
 15 16  1  0  0  0  0
 15 17  1  0  0  0  0
  2 18  1  0  0  0  0
  3 19  1  0  0  0  0
  4 20  1  0  0  0  0
  9 21  1  0  0  0  0
 10 22  1  0  0  0  0
 10 23  1  0  0  0  0
 12 24  1  0  0  0  0
 12 25  1  0  0  0  0
 12 26  1  0  0  0  0
 14 27  1  0  0  0  0
 15 28  1  0  0  0  0
 16 29  1  0  0  0  0
 16 30  1  0  0  0  0
 16 31  1  0  0  0  0
 17 32  1  0  0  0  0
 17 33  1  0  0  0  0
 17 34  1  0  0  0  0
M  END
> <Name>
14

> <IC50[uM]>
0.84

$$$$
14
  -OEChem-05192314333D
 Structure written by MMmdl.
 34 35  0     0  0  0  0  0  0999 V2000
   -6.3887   12.3647  -12.0798 C   0  0  0  0  0  0  0  0  0  0  0  0
   -6.4962   11.8202  -10.8023 C   0  0  0  0  0  0  0  0  0  0  0  0
   -7.7456   10.5858  -13.0568 C   0  0  0  0  0  0  0  0  0  0  0  0
   -7.0126   11.7716  -13.1776 C   0  0  0  0  0  0  0  0  0  0  0  0
   -7.8340   10.0285  -11.7877 C   0  0  0  0  0  0  0  0  0  0  0  0
   -7.2471   10.6293  -10.6255 C   0  0  0  0  0  0  0  0  0  0  0  0
   -7.6099    9.7738   -9.5366 C   0  0  0  0  0  0  0  0  0  0  0  0
   -8.2971    8.7499   -9.9997 N   0  0  0  0  0  0  0  0  0  0  0  0
   -8.4324    8.8805  -11.3156 N   0  0  0  0  0  0  0  0  0  0  0  0
   -7.3321    9.9039   -8.0386 C   0  0  0  0  0  0  0  0  0  0  0  0
   -4.4077   13.6374  -11.5161 N   0  0  0  0  0  0  0  0  0  0  0  0
   -3.4400   14.7362  -11.5603 C   0  0  0  0  0  0  0  0  0  0  0  0
   -5.5080   13.5935  -12.2349 C   0  0  0  0  0  0  0  0  0  0  0  0
   -5.8585   14.4899  -13.0509 O   0  0  0  0  0  0  0  0  0  0  0  0
   -5.9274   10.4444   -7.6346 C   0  0  0  0  0  0  0  0  0  0  0  0
   -4.7880    9.9988   -8.5813 C   0  0  0  0  0  0  0  0  0  0  0  0
   -5.9224   11.9644   -7.3345 C   0  0  0  0  0  0  0  0  0  0  0  0
   -6.0160   12.2965   -9.9603 H   0  0  0  0  0  0  0  0  0  0  0  0
   -8.2205   10.1254  -13.9106 H   0  0  0  0  0  0  0  0  0  0  0  0
   -6.9276   12.2403  -14.1469 H   0  0  0  0  0  0  0  0  0  0  0  0
   -8.6584    7.9965   -9.4504 H   0  0  0  0  0  0  0  0  0  0  0  0
   -8.0859   10.5853   -7.6172 H   0  0  0  0  0  0  0  0  0  0  0  0
   -7.4478    8.9063   -7.5897 H   0  0  0  0  0  0  0  0  0  0  0  0
   -2.6137   14.5259  -10.8653 H   0  0  0  0  0  0  0  0  0  0  0  0
   -3.0438   14.8348  -12.5817 H   0  0  0  0  0  0  0  0  0  0  0  0
   -3.9359   15.6734  -11.2673 H   0  0  0  0  0  0  0  0  0  0  0  0
   -5.2194   15.1927  -13.0438 H   0  0  0  0  0  0  0  0  0  0  0  0
   -5.7040    9.9624   -6.6714 H   0  0  0  0  0  0  0  0  0  0  0  0
   -3.8338   10.4189   -8.2306 H   0  0  0  0  0  0  0  0  0  0  0  0
   -4.7249    8.9006   -8.5873 H   0  0  0  0  0  0  0  0  0  0  0  0
   -4.9952   10.3598   -9.5995 H   0  0  0  0  0  0  0  0  0  0  0  0
   -4.9060   12.2805   -7.0569 H   0  0  0  0  0  0  0  0  0  0  0  0
   -6.2462   12.5158   -8.2296 H   0  0  0  0  0  0  0  0  0  0  0  0
   -6.6118   12.1763   -6.5040 H   0  0  0  0  0  0  0  0  0  0  0  0
  1  2  2  0  0  0  0
  1  4  1  0  0  0  0
  1 13  1  0  0  0  0
  2  6  1  0  0  0  0
  3  4  2  0  0  0  0
  3  5  1  0  0  0  0
  5  6  1  0  0  0  0
  5  9  2  0  0  0  0
  6  7  2  0  0  0  0
  7  8  1  0  0  0  0
  7 10  1  0  0  0  0
  8  9  1  0  0  0  0
 10 15  1  0  0  0  0
 11 12  1  0  0  0  0
 11 13  2  0  0  0  0
 13 14  1  0  0  0  0
 15 16  1  0  0  0  0
 15 17  1  0  0  0  0
  2 18  1  0  0  0  0
  3 19  1  0  0  0  0
  4 20  1  0  0  0  0
  8 21  1  0  0  0  0
 10 22  1  0  0  0  0
 10 23  1  0  0  0  0
 12 24  1  0  0  0  0
 12 25  1  0  0  0  0
 12 26  1  0  0  0  0
 14 27  1  0  0  0  0
 15 28  1  0  0  0  0
 16 29  1  0  0  0  0
 16 30  1  0  0  0  0
 16 31  1  0  0  0  0
 17 32  1  0  0  0  0
 17 33  1  0  0  0  0
 17 34  1  0  0  0  0
M  END
> <Name>
14

> <IC50[uM]>
0.84

$$$$
14
  -OEChem-05192314333D
 Structure written by MMmdl.
 34 35  0     1  0  0  0  0  0999 V2000
   -6.3887   12.3647  -12.0798 C   0  0  0  0  0  0  0  0  0  0  0  0
   -6.4962   11.8202  -10.8023 C   0  0  0  0  0  0  0  0  0  0  0  0
   -7.7456   10.5858  -13.0568 C   0  0  0  0  0  0  0  0  0  0  0  0
   -7.0126   11.7716  -13.1776 C   0  0  0  0  0  0  0  0  0  0  0  0
   -7.8340   10.0285  -11.7877 C   0  0  0  0  0  0  0  0  0  0  0  0
   -7.2471   10.6293  -10.6255 C   0  0  0  0  0  0  0  0  0  0  0  0
   -7.6099    9.7738   -9.5366 C   0  0  3  0  0  0  0  0  0  0  0  0
   -8.2971    8.7499   -9.9997 N   0  0  0  0  0  0  0  0  0  0  0  0
   -8.4324    8.8805  -11.3156 N   0  0  0  0  0  0  0  0  0  0  0  0
   -7.3321    9.9039   -8.0386 C   0  0  0  0  0  0  0  0  0  0  0  0
   -4.4077   13.6374  -11.5161 N   0  0  0  0  0  0  0  0  0  0  0  0
   -3.4400   14.7362  -11.5603 C   0  0  0  0  0  0  0  0  0  0  0  0
   -5.5080   13.5935  -12.2349 C   0  0  0  0  0  0  0  0  0  0  0  0
   -5.8585   14.4899  -13.0509 O   0  0  0  0  0  0  0  0  0  0  0  0
   -5.9274   10.4444   -7.6346 C   0  0  0  0  0  0  0  0  0  0  0  0
   -4.7880    9.9988   -8.5813 C   0  0  0  0  0  0  0  0  0  0  0  0
   -5.9224   11.9644   -7.3345 C   0  0  0  0  0  0  0  0  0  0  0  0
   -6.0160   12.2965   -9.9603 H   0  0  0  0  0  0  0  0  0  0  0  0
   -8.2205   10.1254  -13.9106 H   0  0  0  0  0  0  0  0  0  0  0  0
   -6.9276   12.2403  -14.1469 H   0  0  0  0  0  0  0  0  0  0  0  0
   -6.6748    9.2088   -9.6643 H   0  0  0  0  0  0  0  0  0  0  0  0
   -8.0859   10.5853   -7.6172 H   0  0  0  0  0  0  0  0  0  0  0  0
   -7.4478    8.9063   -7.5897 H   0  0  0  0  0  0  0  0  0  0  0  0
   -4.2197   12.8722  -10.9003 H   0  0  0  0  0  0  0  0  0  0  0  0
   -2.6137   14.5259  -10.8653 H   0  0  0  0  0  0  0  0  0  0  0  0
   -3.0438   14.8348  -12.5817 H   0  0  0  0  0  0  0  0  0  0  0  0
   -3.9359   15.6734  -11.2673 H   0  0  0  0  0  0  0  0  0  0  0  0
   -5.7040    9.9624   -6.6714 H   0  0  0  0  0  0  0  0  0  0  0  0
   -3.8338   10.4189   -8.2306 H   0  0  0  0  0  0  0  0  0  0  0  0
   -4.7249    8.9006   -8.5873 H   0  0  0  0  0  0  0  0  0  0  0  0
   -4.9952   10.3598   -9.5995 H   0  0  0  0  0  0  0  0  0  0  0  0
   -4.9060   12.2805   -7.0569 H   0  0  0  0  0  0  0  0  0  0  0  0
   -6.2462   12.5158   -8.2296 H   0  0  0  0  0  0  0  0  0  0  0  0
   -6.6118   12.1763   -6.5040 H   0  0  0  0  0  0  0  0  0  0  0  0
  1  2  2  0  0  0  0
  1  4  1  0  0  0  0
  1 13  1  0  0  0  0
  2  6  1  0  0  0  0
  3  4  2  0  0  0  0
  3  5  1  0  0  0  0
  5  6  2  0  0  0  0
  5  9  1  0  0  0  0
  6  7  1  0  0  0  0
  7  8  1  0  0  0  0
  7 10  1  0  0  0  0
  8  9  2  0  0  0  0
 10 15  1  0  0  0  0
 11 12  1  0  0  0  0
 11 13  1  0  0  0  0
 13 14  2  0  0  0  0
 15 16  1  0  0  0  0
 15 17  1  0  0  0  0
  2 18  1  0  0  0  0
  3 19  1  0  0  0  0
  4 20  1  0  0  0  0
  7 21  1  0  0  0  0
 10 22  1  0  0  0  0
 10 23  1  0  0  0  0
 11 24  1  0  0  0  0
 12 25  1  0  0  0  0
 12 26  1  0  0  0  0
 12 27  1  0  0  0  0
 15 28  1  0  0  0  0
 16 29  1  0  0  0  0
 16 30  1  0  0  0  0
 16 31  1  0  0  0  0
 17 32  1  0  0  0  0
 17 33  1  0  0  0  0
 17 34  1  0  0  0  0
M  END
> <Name>
14

> <IC50[uM]>
0.84

$$$$
14
  -OEChem-05192314333D
 Structure written by MMmdl.
 34 35  0     1  0  0  0  0  0999 V2000
   -6.3887   12.3647  -12.0798 C   0  0  0  0  0  0  0  0  0  0  0  0
   -6.4962   11.8202  -10.8023 C   0  0  0  0  0  0  0  0  0  0  0  0
   -7.7456   10.5858  -13.0568 C   0  0  0  0  0  0  0  0  0  0  0  0
   -7.0126   11.7716  -13.1776 C   0  0  0  0  0  0  0  0  0  0  0  0
   -7.8340   10.0285  -11.7877 C   0  0  0  0  0  0  0  0  0  0  0  0
   -7.2471   10.6293  -10.6255 C   0  0  0  0  0  0  0  0  0  0  0  0
   -7.6099    9.7738   -9.5366 C   0  0  3  0  0  0  0  0  0  0  0  0
   -8.2971    8.7499   -9.9997 N   0  0  0  0  0  0  0  0  0  0  0  0
   -8.4324    8.8805  -11.3156 N   0  0  0  0  0  0  0  0  0  0  0  0
   -7.3321    9.9039   -8.0386 C   0  0  0  0  0  0  0  0  0  0  0  0
   -4.4077   13.6374  -11.5161 N   0  0  0  0  0  0  0  0  0  0  0  0
   -3.4400   14.7362  -11.5603 C   0  0  0  0  0  0  0  0  0  0  0  0
   -5.5080   13.5935  -12.2349 C   0  0  0  0  0  0  0  0  0  0  0  0
   -5.8585   14.4899  -13.0509 O   0  0  0  0  0  0  0  0  0  0  0  0
   -5.9274   10.4444   -7.6346 C   0  0  0  0  0  0  0  0  0  0  0  0
   -4.7880    9.9988   -8.5813 C   0  0  0  0  0  0  0  0  0  0  0  0
   -5.9224   11.9644   -7.3345 C   0  0  0  0  0  0  0  0  0  0  0  0
   -6.0160   12.2965   -9.9603 H   0  0  0  0  0  0  0  0  0  0  0  0
   -8.2205   10.1254  -13.9106 H   0  0  0  0  0  0  0  0  0  0  0  0
   -6.9276   12.2403  -14.1469 H   0  0  0  0  0  0  0  0  0  0  0  0
   -6.6748    9.2088   -9.6643 H   0  0  0  0  0  0  0  0  0  0  0  0
   -8.0859   10.5853   -7.6172 H   0  0  0  0  0  0  0  0  0  0  0  0
   -7.4478    8.9063   -7.5897 H   0  0  0  0  0  0  0  0  0  0  0  0
   -2.6137   14.5259  -10.8653 H   0  0  0  0  0  0  0  0  0  0  0  0
   -3.0438   14.8348  -12.5817 H   0  0  0  0  0  0  0  0  0  0  0  0
   -3.9359   15.6734  -11.2673 H   0  0  0  0  0  0  0  0  0  0  0  0
   -5.2194   15.1927  -13.0438 H   0  0  0  0  0  0  0  0  0  0  0  0
   -5.7040    9.9624   -6.6714 H   0  0  0  0  0  0  0  0  0  0  0  0
   -3.8338   10.4189   -8.2306 H   0  0  0  0  0  0  0  0  0  0  0  0
   -4.7249    8.9006   -8.5873 H   0  0  0  0  0  0  0  0  0  0  0  0
   -4.9952   10.3598   -9.5995 H   0  0  0  0  0  0  0  0  0  0  0  0
   -4.9060   12.2805   -7.0569 H   0  0  0  0  0  0  0  0  0  0  0  0
   -6.2462   12.5158   -8.2296 H   0  0  0  0  0  0  0  0  0  0  0  0
   -6.6118   12.1763   -6.5040 H   0  0  0  0  0  0  0  0  0  0  0  0
  1  2  2  0  0  0  0
  1  4  1  0  0  0  0
  1 13  1  0  0  0  0
  2  6  1  0  0  0  0
  3  4  2  0  0  0  0
  3  5  1  0  0  0  0
  5  6  2  0  0  0  0
  5  9  1  0  0  0  0
  6  7  1  0  0  0  0
  7  8  1  0  0  0  0
  7 10  1  0  0  0  0
  8  9  2  0  0  0  0
 10 15  1  0  0  0  0
 11 12  1  0  0  0  0
 11 13  2  0  0  0  0
 13 14  1  0  0  0  0
 15 16  1  0  0  0  0
 15 17  1  0  0  0  0
  2 18  1  0  0  0  0
  3 19  1  0  0  0  0
  4 20  1  0  0  0  0
  7 21  1  0  0  0  0
 10 22  1  0  0  0  0
 10 23  1  0  0  0  0
 12 24  1  0  0  0  0
 12 25  1  0  0  0  0
 12 26  1  0  0  0  0
 14 27  1  0  0  0  0
 15 28  1  0  0  0  0
 16 29  1  0  0  0  0
 16 30  1  0  0  0  0
 16 31  1  0  0  0  0
 17 32  1  0  0  0  0
 17 33  1  0  0  0  0
 17 34  1  0  0  0  0
M  END
> <Name>
14

> <IC50[uM]>
0.84

$$$$
14
  -OEChem-05192314333D
 Structure written by MMmdl.
 34 35  0     0  0  0  0  0  0999 V2000
   -6.3887   12.3647  -12.0798 C   0  0  0  0  0  0  0  0  0  0  0  0
   -6.4962   11.8202  -10.8023 C   0  0  0  0  0  0  0  0  0  0  0  0
   -7.7456   10.5858  -13.0568 C   0  0  0  0  0  0  0  0  0  0  0  0
   -7.0126   11.7716  -13.1776 C   0  0  0  0  0  0  0  0  0  0  0  0
   -7.8340   10.0285  -11.7877 C   0  0  0  0  0  0  0  0  0  0  0  0
   -7.2471   10.6293  -10.6255 C   0  0  0  0  0  0  0  0  0  0  0  0
   -7.6099    9.7738   -9.5366 C   0  0  0  0  0  0  0  0  0  0  0  0
   -8.2971    8.7499   -9.9997 N   0  0  0  0  0  0  0  0  0  0  0  0
   -8.4324    8.8805  -11.3156 N   0  0  0  0  0  0  0  0  0  0  0  0
   -7.3321    9.9039   -8.0386 C   0  0  0  0  0  0  0  0  0  0  0  0
   -4.4077   13.6374  -11.5161 N   0  0  0  0  0  0  0  0  0  0  0  0
   -3.4400   14.7362  -11.5603 C   0  0  0  0  0  0  0  0  0  0  0  0
   -5.5080   13.5935  -12.2349 C   0  0  0  0  0  0  0  0  0  0  0  0
   -5.8585   14.4899  -13.0509 O   0  0  0  0  0  0  0  0  0  0  0  0
   -5.9274   10.4444   -7.6346 C   0  0  0  0  0  0  0  0  0  0  0  0
   -4.7880    9.9988   -8.5813 C   0  0  0  0  0  0  0  0  0  0  0  0
   -5.9224   11.9644   -7.3345 C   0  0  0  0  0  0  0  0  0  0  0  0
   -6.0160   12.2965   -9.9603 H   0  0  0  0  0  0  0  0  0  0  0  0
   -8.2205   10.1254  -13.9106 H   0  0  0  0  0  0  0  0  0  0  0  0
   -6.9276   12.2403  -14.1469 H   0  0  0  0  0  0  0  0  0  0  0  0
   -7.8116    7.8999   -9.7951 H   0  0  0  0  0  0  0  0  0  0  0  0
   -9.4069    8.9101  -11.5380 H   0  0  0  0  0  0  0  0  0  0  0  0
   -8.0714    9.6350   -7.2986 H   0  0  0  0  0  0  0  0  0  0  0  0
   -4.2197   12.8722  -10.9003 H   0  0  0  0  0  0  0  0  0  0  0  0
   -2.6137   14.5259  -10.8653 H   0  0  0  0  0  0  0  0  0  0  0  0
   -3.0438   14.8348  -12.5817 H   0  0  0  0  0  0  0  0  0  0  0  0
   -3.9359   15.6734  -11.2673 H   0  0  0  0  0  0  0  0  0  0  0  0
   -5.7040    9.9624   -6.6714 H   0  0  0  0  0  0  0  0  0  0  0  0
   -3.8338   10.4189   -8.2306 H   0  0  0  0  0  0  0  0  0  0  0  0
   -4.7249    8.9006   -8.5873 H   0  0  0  0  0  0  0  0  0  0  0  0
   -4.9952   10.3598   -9.5995 H   0  0  0  0  0  0  0  0  0  0  0  0
   -4.9060   12.2805   -7.0569 H   0  0  0  0  0  0  0  0  0  0  0  0
   -6.2462   12.5158   -8.2296 H   0  0  0  0  0  0  0  0  0  0  0  0
   -6.6118   12.1763   -6.5040 H   0  0  0  0  0  0  0  0  0  0  0  0
  1  2  2  0  0  0  0
  1  4  1  0  0  0  0
  1 13  1  0  0  0  0
  2  6  1  0  0  0  0
  3  4  2  0  0  0  0
  3  5  1  0  0  0  0
  5  6  2  0  0  0  0
  5  9  1  0  0  0  0
  6  7  1  0  0  0  0
  7  8  1  0  0  0  0
  7 10  2  3  0  0  0
  8  9  1  0  0  0  0
 10 15  1  0  0  0  0
 11 12  1  0  0  0  0
 11 13  1  0  0  0  0
 13 14  2  0  0  0  0
 15 16  1  0  0  0  0
 15 17  1  0  0  0  0
  2 18  1  0  0  0  0
  3 19  1  0  0  0  0
  4 20  1  0  0  0  0
  8 21  1  0  0  0  0
  9 22  1  0  0  0  0
 10 23  1  0  0  0  0
 11 24  1  0  0  0  0
 12 25  1  0  0  0  0
 12 26  1  0  0  0  0
 12 27  1  0  0  0  0
 15 28  1  0  0  0  0
 16 29  1  0  0  0  0
 16 30  1  0  0  0  0
 16 31  1  0  0  0  0
 17 32  1  0  0  0  0
 17 33  1  0  0  0  0
 17 34  1  0  0  0  0
M  END
> <Name>
14

> <IC50[uM]>
0.84

$$$$
14
  -OEChem-05192314333D
 Structure written by MMmdl.
 34 35  0     0  0  0  0  0  0999 V2000
   -6.3887   12.3647  -12.0798 C   0  0  0  0  0  0  0  0  0  0  0  0
   -6.4962   11.8202  -10.8023 C   0  0  0  0  0  0  0  0  0  0  0  0
   -7.7456   10.5858  -13.0568 C   0  0  0  0  0  0  0  0  0  0  0  0
   -7.0126   11.7716  -13.1776 C   0  0  0  0  0  0  0  0  0  0  0  0
   -7.8340   10.0285  -11.7877 C   0  0  0  0  0  0  0  0  0  0  0  0
   -7.2471   10.6293  -10.6255 C   0  0  0  0  0  0  0  0  0  0  0  0
   -7.6099    9.7738   -9.5366 C   0  0  0  0  0  0  0  0  0  0  0  0
   -8.2971    8.7499   -9.9997 N   0  0  0  0  0  0  0  0  0  0  0  0
   -8.4324    8.8805  -11.3156 N   0  0  0  0  0  0  0  0  0  0  0  0
   -7.3321    9.9039   -8.0386 C   0  0  0  0  0  0  0  0  0  0  0  0
   -4.4077   13.6374  -11.5161 N   0  0  0  0  0  0  0  0  0  0  0  0
   -3.4400   14.7362  -11.5603 C   0  0  0  0  0  0  0  0  0  0  0  0
   -5.5080   13.5935  -12.2349 C   0  0  0  0  0  0  0  0  0  0  0  0
   -5.8585   14.4899  -13.0509 O   0  0  0  0  0  0  0  0  0  0  0  0
   -5.9274   10.4444   -7.6346 C   0  0  0  0  0  0  0  0  0  0  0  0
   -4.7880    9.9988   -8.5813 C   0  0  0  0  0  0  0  0  0  0  0  0
   -5.9224   11.9644   -7.3345 C   0  0  0  0  0  0  0  0  0  0  0  0
   -6.0160   12.2965   -9.9603 H   0  0  0  0  0  0  0  0  0  0  0  0
   -8.2205   10.1254  -13.9106 H   0  0  0  0  0  0  0  0  0  0  0  0
   -6.9276   12.2403  -14.1469 H   0  0  0  0  0  0  0  0  0  0  0  0
   -7.8116    7.8999   -9.7951 H   0  0  0  0  0  0  0  0  0  0  0  0
   -9.4069    8.9101  -11.5380 H   0  0  0  0  0  0  0  0  0  0  0  0
   -8.0714    9.6350   -7.2986 H   0  0  0  0  0  0  0  0  0  0  0  0
   -2.6137   14.5259  -10.8653 H   0  0  0  0  0  0  0  0  0  0  0  0
   -3.0438   14.8348  -12.5817 H   0  0  0  0  0  0  0  0  0  0  0  0
   -3.9359   15.6734  -11.2673 H   0  0  0  0  0  0  0  0  0  0  0  0
   -5.2194   15.1927  -13.0438 H   0  0  0  0  0  0  0  0  0  0  0  0
   -5.7040    9.9624   -6.6714 H   0  0  0  0  0  0  0  0  0  0  0  0
   -3.8338   10.4189   -8.2306 H   0  0  0  0  0  0  0  0  0  0  0  0
   -4.7249    8.9006   -8.5873 H   0  0  0  0  0  0  0  0  0  0  0  0
   -4.9952   10.3598   -9.5995 H   0  0  0  0  0  0  0  0  0  0  0  0
   -4.9060   12.2805   -7.0569 H   0  0  0  0  0  0  0  0  0  0  0  0
   -6.2462   12.5158   -8.2296 H   0  0  0  0  0  0  0  0  0  0  0  0
   -6.6118   12.1763   -6.5040 H   0  0  0  0  0  0  0  0  0  0  0  0
  1  2  2  0  0  0  0
  1  4  1  0  0  0  0
  1 13  1  0  0  0  0
  2  6  1  0  0  0  0
  3  4  2  0  0  0  0
  3  5  1  0  0  0  0
  5  6  2  0  0  0  0
  5  9  1  0  0  0  0
  6  7  1  0  0  0  0
  7  8  1  0  0  0  0
  7 10  2  3  0  0  0
  8  9  1  0  0  0  0
 10 15  1  0  0  0  0
 11 12  1  0  0  0  0
 11 13  2  0  0  0  0
 13 14  1  0  0  0  0
 15 16  1  0  0  0  0
 15 17  1  0  0  0  0
  2 18  1  0  0  0  0
  3 19  1  0  0  0  0
  4 20  1  0  0  0  0
  8 21  1  0  0  0  0
  9 22  1  0  0  0  0
 10 23  1  0  0  0  0
 12 24  1  0  0  0  0
 12 25  1  0  0  0  0
 12 26  1  0  0  0  0
 14 27  1  0  0  0  0
 15 28  1  0  0  0  0
 16 29  1  0  0  0  0
 16 30  1  0  0  0  0
 16 31  1  0  0  0  0
 17 32  1  0  0  0  0
 17 33  1  0  0  0  0
 17 34  1  0  0  0  0
M  END
> <Name>
14

> <IC50[uM]>
0.84

$$$$
14
  -OEChem-05192314333D
 Structure written by MMmdl.
 34 35  0     1  0  0  0  0  0999 V2000
   -6.3887   12.3647  -12.0798 C   0  0  3  0  0  0  0  0  0  0  0  0
   -6.4962   11.8202  -10.8023 C   0  0  0  0  0  0  0  0  0  0  0  0
   -7.7456   10.5858  -13.0568 C   0  0  0  0  0  0  0  0  0  0  0  0
   -7.0126   11.7716  -13.1776 C   0  0  0  0  0  0  0  0  0  0  0  0
   -7.8340   10.0285  -11.7877 C   0  0  0  0  0  0  0  0  0  0  0  0
   -7.2471   10.6293  -10.6255 C   0  0  0  0  0  0  0  0  0  0  0  0
   -7.6099    9.7738   -9.5366 C   0  0  0  0  0  0  0  0  0  0  0  0
   -8.2971    8.7499   -9.9997 N   0  0  0  0  0  0  0  0  0  0  0  0
   -8.4324    8.8805  -11.3156 N   0  0  0  0  0  0  0  0  0  0  0  0
   -7.3321    9.9039   -8.0386 C   0  0  0  0  0  0  0  0  0  0  0  0
   -4.4077   13.6374  -11.5161 N   0  0  0  0  0  0  0  0  0  0  0  0
   -3.4400   14.7362  -11.5603 C   0  0  0  0  0  0  0  0  0  0  0  0
   -5.5080   13.5935  -12.2349 C   0  0  0  0  0  0  0  0  0  0  0  0
   -5.8585   14.4899  -13.0509 O   0  0  0  0  0  0  0  0  0  0  0  0
   -5.9274   10.4444   -7.6346 C   0  0  0  0  0  0  0  0  0  0  0  0
   -4.7880    9.9988   -8.5813 C   0  0  0  0  0  0  0  0  0  0  0  0
   -5.9224   11.9644   -7.3345 C   0  0  0  0  0  0  0  0  0  0  0  0
   -7.2692   12.9995  -11.9014 H   0  0  0  0  0  0  0  0  0  0  0  0
   -6.0160   12.2965   -9.9603 H   0  0  0  0  0  0  0  0  0  0  0  0
   -8.2205   10.1254  -13.9106 H   0  0  0  0  0  0  0  0  0  0  0  0
   -6.9276   12.2403  -14.1469 H   0  0  0  0  0  0  0  0  0  0  0  0
   -8.6584    7.9965   -9.4504 H   0  0  0  0  0  0  0  0  0  0  0  0
   -8.0714    9.6350   -7.2986 H   0  0  0  0  0  0  0  0  0  0  0  0
   -4.2197   12.8722  -10.9003 H   0  0  0  0  0  0  0  0  0  0  0  0
   -2.6137   14.5259  -10.8653 H   0  0  0  0  0  0  0  0  0  0  0  0
   -3.0438   14.8348  -12.5817 H   0  0  0  0  0  0  0  0  0  0  0  0
   -3.9359   15.6734  -11.2673 H   0  0  0  0  0  0  0  0  0  0  0  0
   -5.7040    9.9624   -6.6714 H   0  0  0  0  0  0  0  0  0  0  0  0
   -3.8338   10.4189   -8.2306 H   0  0  0  0  0  0  0  0  0  0  0  0
   -4.7249    8.9006   -8.5873 H   0  0  0  0  0  0  0  0  0  0  0  0
   -4.9952   10.3598   -9.5995 H   0  0  0  0  0  0  0  0  0  0  0  0
   -4.9060   12.2805   -7.0569 H   0  0  0  0  0  0  0  0  0  0  0  0
   -6.2462   12.5158   -8.2296 H   0  0  0  0  0  0  0  0  0  0  0  0
   -6.6118   12.1763   -6.5040 H   0  0  0  0  0  0  0  0  0  0  0  0
  1  2  1  0  0  0  0
  1  4  1  0  0  0  0
  1 13  1  0  0  0  0
  2  6  2  0  0  0  0
  3  4  2  0  0  0  0
  3  5  1  0  0  0  0
  5  6  1  0  0  0  0
  5  9  2  0  0  0  0
  6  7  1  0  0  0  0
  7  8  1  0  0  0  0
  7 10  2  3  0  0  0
  8  9  1  0  0  0  0
 10 15  1  0  0  0  0
 11 12  1  0  0  0  0
 11 13  1  0  0  0  0
 13 14  2  0  0  0  0
 15 16  1  0  0  0  0
 15 17  1  0  0  0  0
  1 18  1  0  0  0  0
  2 19  1  0  0  0  0
  3 20  1  0  0  0  0
  4 21  1  0  0  0  0
  8 22  1  0  0  0  0
 10 23  1  0  0  0  0
 11 24  1  0  0  0  0
 12 25  1  0  0  0  0
 12 26  1  0  0  0  0
 12 27  1  0  0  0  0
 15 28  1  0  0  0  0
 16 29  1  0  0  0  0
 16 30  1  0  0  0  0
 16 31  1  0  0  0  0
 17 32  1  0  0  0  0
 17 33  1  0  0  0  0
 17 34  1  0  0  0  0
M  END
> <Name>
14

> <IC50[uM]>
0.84

$$$$
14
  -OEChem-05192314333D
 Structure written by MMmdl.
 34 35  0     0  0  0  0  0  0999 V2000
   -6.3887   12.3647  -12.0798 C   0  0  0  0  0  0  0  0  0  0  0  0
   -6.4962   11.8202  -10.8023 C   0  0  0  0  0  0  0  0  0  0  0  0
   -7.7456   10.5858  -13.0568 C   0  0  0  0  0  0  0  0  0  0  0  0
   -7.0126   11.7716  -13.1776 C   0  0  0  0  0  0  0  0  0  0  0  0
   -7.8340   10.0285  -11.7877 C   0  0  0  0  0  0  0  0  0  0  0  0
   -7.2471   10.6293  -10.6255 C   0  0  0  0  0  0  0  0  0  0  0  0
   -7.6099    9.7738   -9.5366 C   0  0  0  0  0  0  0  0  0  0  0  0
   -8.2971    8.7499   -9.9997 N   0  0  0  0  0  0  0  0  0  0  0  0
   -8.4324    8.8805  -11.3156 N   0  0  0  0  0  0  0  0  0  0  0  0
   -7.3321    9.9039   -8.0386 C   0  0  0  0  0  0  0  0  0  0  0  0
   -4.4077   13.6374  -11.5161 N   0  0  0  0  0  0  0  0  0  0  0  0
   -3.4400   14.7362  -11.5603 C   0  0  0  0  0  0  0  0  0  0  0  0
   -5.5080   13.5935  -12.2349 C   0  0  0  0  0  0  0  0  0  0  0  0
   -5.8585   14.4899  -13.0509 O   0  0  0  0  0  0  0  0  0  0  0  0
   -5.9274   10.4444   -7.6346 C   0  0  0  0  0  0  0  0  0  0  0  0
   -4.7880    9.9988   -8.5813 C   0  0  0  0  0  0  0  0  0  0  0  0
   -5.9224   11.9644   -7.3345 C   0  0  0  0  0  0  0  0  0  0  0  0
   -6.0160   12.2965   -9.9603 H   0  0  0  0  0  0  0  0  0  0  0  0
   -8.7697   10.7916  -13.4015 H   0  0  0  0  0  0  0  0  0  0  0  0
   -7.2799    9.8386  -13.7162 H   0  0  0  0  0  0  0  0  0  0  0  0
   -6.9276   12.2403  -14.1469 H   0  0  0  0  0  0  0  0  0  0  0  0
   -8.6584    7.9965   -9.4504 H   0  0  0  0  0  0  0  0  0  0  0  0
   -8.0714    9.6350   -7.2986 H   0  0  0  0  0  0  0  0  0  0  0  0
   -4.2197   12.8722  -10.9003 H   0  0  0  0  0  0  0  0  0  0  0  0
   -2.6137   14.5259  -10.8653 H   0  0  0  0  0  0  0  0  0  0  0  0
   -3.0438   14.8348  -12.5817 H   0  0  0  0  0  0  0  0  0  0  0  0
   -3.9359   15.6734  -11.2673 H   0  0  0  0  0  0  0  0  0  0  0  0
   -5.7040    9.9624   -6.6714 H   0  0  0  0  0  0  0  0  0  0  0  0
   -3.8338   10.4189   -8.2306 H   0  0  0  0  0  0  0  0  0  0  0  0
   -4.7249    8.9006   -8.5873 H   0  0  0  0  0  0  0  0  0  0  0  0
   -4.9952   10.3598   -9.5995 H   0  0  0  0  0  0  0  0  0  0  0  0
   -4.9060   12.2805   -7.0569 H   0  0  0  0  0  0  0  0  0  0  0  0
   -6.2462   12.5158   -8.2296 H   0  0  0  0  0  0  0  0  0  0  0  0
   -6.6118   12.1763   -6.5040 H   0  0  0  0  0  0  0  0  0  0  0  0
  1  2  1  0  0  0  0
  1  4  2  0  0  0  0
  1 13  1  0  0  0  0
  2  6  2  0  0  0  0
  3  4  1  0  0  0  0
  3  5  1  0  0  0  0
  5  6  1  0  0  0  0
  5  9  2  0  0  0  0
  6  7  1  0  0  0  0
  7  8  1  0  0  0  0
  7 10  2  3  0  0  0
  8  9  1  0  0  0  0
 10 15  1  0  0  0  0
 11 12  1  0  0  0  0
 11 13  1  0  0  0  0
 13 14  2  0  0  0  0
 15 16  1  0  0  0  0
 15 17  1  0  0  0  0
  2 18  1  0  0  0  0
  3 19  1  0  0  0  0
  3 20  1  0  0  0  0
  4 21  1  0  0  0  0
  8 22  1  0  0  0  0
 10 23  1  0  0  0  0
 11 24  1  0  0  0  0
 12 25  1  0  0  0  0
 12 26  1  0  0  0  0
 12 27  1  0  0  0  0
 15 28  1  0  0  0  0
 16 29  1  0  0  0  0
 16 30  1  0  0  0  0
 16 31  1  0  0  0  0
 17 32  1  0  0  0  0
 17 33  1  0  0  0  0
 17 34  1  0  0  0  0
M  END
> <Name>
14

> <IC50[uM]>
0.84

$$$$
14
  -OEChem-05192314333D
 Structure written by MMmdl.
 34 35  0     1  0  0  0  0  0999 V2000
   -6.3887   12.3647  -12.0798 C   0  0  3  0  0  0  0  0  0  0  0  0
   -6.4962   11.8202  -10.8023 C   0  0  0  0  0  0  0  0  0  0  0  0
   -7.7456   10.5858  -13.0568 C   0  0  0  0  0  0  0  0  0  0  0  0
   -7.0126   11.7716  -13.1776 C   0  0  0  0  0  0  0  0  0  0  0  0
   -7.8340   10.0285  -11.7877 C   0  0  0  0  0  0  0  0  0  0  0  0
   -7.2471   10.6293  -10.6255 C   0  0  0  0  0  0  0  0  0  0  0  0
   -7.6099    9.7738   -9.5366 C   0  0  0  0  0  0  0  0  0  0  0  0
   -8.2971    8.7499   -9.9997 N   0  0  0  0  0  0  0  0  0  0  0  0
   -8.4324    8.8805  -11.3156 N   0  0  0  0  0  0  0  0  0  0  0  0
   -7.3321    9.9039   -8.0386 C   0  0  0  0  0  0  0  0  0  0  0  0
   -4.4077   13.6374  -11.5161 N   0  0  0  0  0  0  0  0  0  0  0  0
   -3.4400   14.7362  -11.5603 C   0  0  0  0  0  0  0  0  0  0  0  0
   -5.5080   13.5935  -12.2349 C   0  0  0  0  0  0  0  0  0  0  0  0
   -5.8585   14.4899  -13.0509 O   0  0  0  0  0  0  0  0  0  0  0  0
   -5.9274   10.4444   -7.6346 C   0  0  0  0  0  0  0  0  0  0  0  0
   -4.7880    9.9988   -8.5813 C   0  0  0  0  0  0  0  0  0  0  0  0
   -5.9224   11.9644   -7.3345 C   0  0  0  0  0  0  0  0  0  0  0  0
   -7.2692   12.9995  -11.9014 H   0  0  0  0  0  0  0  0  0  0  0  0
   -6.0160   12.2965   -9.9603 H   0  0  0  0  0  0  0  0  0  0  0  0
   -8.2205   10.1254  -13.9106 H   0  0  0  0  0  0  0  0  0  0  0  0
   -6.9276   12.2403  -14.1469 H   0  0  0  0  0  0  0  0  0  0  0  0
   -8.6584    7.9965   -9.4504 H   0  0  0  0  0  0  0  0  0  0  0  0
   -8.0714    9.6350   -7.2986 H   0  0  0  0  0  0  0  0  0  0  0  0
   -2.6137   14.5259  -10.8653 H   0  0  0  0  0  0  0  0  0  0  0  0
   -3.0438   14.8348  -12.5817 H   0  0  0  0  0  0  0  0  0  0  0  0
   -3.9359   15.6734  -11.2673 H   0  0  0  0  0  0  0  0  0  0  0  0
   -5.2194   15.1927  -13.0438 H   0  0  0  0  0  0  0  0  0  0  0  0
   -5.7040    9.9624   -6.6714 H   0  0  0  0  0  0  0  0  0  0  0  0
   -3.8338   10.4189   -8.2306 H   0  0  0  0  0  0  0  0  0  0  0  0
   -4.7249    8.9006   -8.5873 H   0  0  0  0  0  0  0  0  0  0  0  0
   -4.9952   10.3598   -9.5995 H   0  0  0  0  0  0  0  0  0  0  0  0
   -4.9060   12.2805   -7.0569 H   0  0  0  0  0  0  0  0  0  0  0  0
   -6.2462   12.5158   -8.2296 H   0  0  0  0  0  0  0  0  0  0  0  0
   -6.6118   12.1763   -6.5040 H   0  0  0  0  0  0  0  0  0  0  0  0
  1  2  1  0  0  0  0
  1  4  1  0  0  0  0
  1 13  1  0  0  0  0
  2  6  2  0  0  0  0
  3  4  2  0  0  0  0
  3  5  1  0  0  0  0
  5  6  1  0  0  0  0
  5  9  2  0  0  0  0
  6  7  1  0  0  0  0
  7  8  1  0  0  0  0
  7 10  2  3  0  0  0
  8  9  1  0  0  0  0
 10 15  1  0  0  0  0
 11 12  1  0  0  0  0
 11 13  2  0  0  0  0
 13 14  1  0  0  0  0
 15 16  1  0  0  0  0
 15 17  1  0  0  0  0
  1 18  1  0  0  0  0
  2 19  1  0  0  0  0
  3 20  1  0  0  0  0
  4 21  1  0  0  0  0
  8 22  1  0  0  0  0
 10 23  1  0  0  0  0
 12 24  1  0  0  0  0
 12 25  1  0  0  0  0
 12 26  1  0  0  0  0
 14 27  1  0  0  0  0
 15 28  1  0  0  0  0
 16 29  1  0  0  0  0
 16 30  1  0  0  0  0
 16 31  1  0  0  0  0
 17 32  1  0  0  0  0
 17 33  1  0  0  0  0
 17 34  1  0  0  0  0
M  END
> <Name>
14

> <IC50[uM]>
0.84

$$$$
14
  -OEChem-05192314333D
 Structure written by MMmdl.
 34 35  0     0  0  0  0  0  0999 V2000
   -6.3887   12.3647  -12.0798 C   0  0  0  0  0  0  0  0  0  0  0  0
   -6.4962   11.8202  -10.8023 C   0  0  0  0  0  0  0  0  0  0  0  0
   -7.7456   10.5858  -13.0568 C   0  0  0  0  0  0  0  0  0  0  0  0
   -7.0126   11.7716  -13.1776 C   0  0  0  0  0  0  0  0  0  0  0  0
   -7.8340   10.0285  -11.7877 C   0  0  0  0  0  0  0  0  0  0  0  0
   -7.2471   10.6293  -10.6255 C   0  0  0  0  0  0  0  0  0  0  0  0
   -7.6099    9.7738   -9.5366 C   0  0  0  0  0  0  0  0  0  0  0  0
   -8.2971    8.7499   -9.9997 N   0  0  0  0  0  0  0  0  0  0  0  0
   -8.4324    8.8805  -11.3156 N   0  0  0  0  0  0  0  0  0  0  0  0
   -7.3321    9.9039   -8.0386 C   0  0  0  0  0  0  0  0  0  0  0  0
   -4.4077   13.6374  -11.5161 N   0  0  0  0  0  0  0  0  0  0  0  0
   -3.4400   14.7362  -11.5603 C   0  0  0  0  0  0  0  0  0  0  0  0
   -5.5080   13.5935  -12.2349 C   0  0  0  0  0  0  0  0  0  0  0  0
   -5.8585   14.4899  -13.0509 O   0  0  0  0  0  0  0  0  0  0  0  0
   -5.9274   10.4444   -7.6346 C   0  0  0  0  0  0  0  0  0  0  0  0
   -4.7880    9.9988   -8.5813 C   0  0  0  0  0  0  0  0  0  0  0  0
   -5.9224   11.9644   -7.3345 C   0  0  0  0  0  0  0  0  0  0  0  0
   -6.0160   12.2965   -9.9603 H   0  0  0  0  0  0  0  0  0  0  0  0
   -8.7697   10.7916  -13.4015 H   0  0  0  0  0  0  0  0  0  0  0  0
   -7.2799    9.8386  -13.7162 H   0  0  0  0  0  0  0  0  0  0  0  0
   -6.9276   12.2403  -14.1469 H   0  0  0  0  0  0  0  0  0  0  0  0
   -8.6584    7.9965   -9.4504 H   0  0  0  0  0  0  0  0  0  0  0  0
   -8.0714    9.6350   -7.2986 H   0  0  0  0  0  0  0  0  0  0  0  0
   -2.6137   14.5259  -10.8653 H   0  0  0  0  0  0  0  0  0  0  0  0
   -3.0438   14.8348  -12.5817 H   0  0  0  0  0  0  0  0  0  0  0  0
   -3.9359   15.6734  -11.2673 H   0  0  0  0  0  0  0  0  0  0  0  0
   -5.2194   15.1927  -13.0438 H   0  0  0  0  0  0  0  0  0  0  0  0
   -5.7040    9.9624   -6.6714 H   0  0  0  0  0  0  0  0  0  0  0  0
   -3.8338   10.4189   -8.2306 H   0  0  0  0  0  0  0  0  0  0  0  0
   -4.7249    8.9006   -8.5873 H   0  0  0  0  0  0  0  0  0  0  0  0
   -4.9952   10.3598   -9.5995 H   0  0  0  0  0  0  0  0  0  0  0  0
   -4.9060   12.2805   -7.0569 H   0  0  0  0  0  0  0  0  0  0  0  0
   -6.2462   12.5158   -8.2296 H   0  0  0  0  0  0  0  0  0  0  0  0
   -6.6118   12.1763   -6.5040 H   0  0  0  0  0  0  0  0  0  0  0  0
  1  2  1  0  0  0  0
  1  4  2  0  0  0  0
  1 13  1  0  0  0  0
  2  6  2  0  0  0  0
  3  4  1  0  0  0  0
  3  5  1  0  0  0  0
  5  6  1  0  0  0  0
  5  9  2  0  0  0  0
  6  7  1  0  0  0  0
  7  8  1  0  0  0  0
  7 10  2  3  0  0  0
  8  9  1  0  0  0  0
 10 15  1  0  0  0  0
 11 12  1  0  0  0  0
 11 13  2  0  0  0  0
 13 14  1  0  0  0  0
 15 16  1  0  0  0  0
 15 17  1  0  0  0  0
  2 18  1  0  0  0  0
  3 19  1  0  0  0  0
  3 20  1  0  0  0  0
  4 21  1  0  0  0  0
  8 22  1  0  0  0  0
 10 23  1  0  0  0  0
 12 24  1  0  0  0  0
 12 25  1  0  0  0  0
 12 26  1  0  0  0  0
 14 27  1  0  0  0  0
 15 28  1  0  0  0  0
 16 29  1  0  0  0  0
 16 30  1  0  0  0  0
 16 31  1  0  0  0  0
 17 32  1  0  0  0  0
 17 33  1  0  0  0  0
 17 34  1  0  0  0  0
M  END
> <Name>
14

> <IC50[uM]>
0.84

$$$$
14
  -OEChem-05192314333D
 Structure written by MMmdl.
 34 35  0     1  0  0  0  0  0999 V2000
   -6.3887   12.3647  -12.0798 C   0  0  3  0  0  0  0  0  0  0  0  0
   -6.4962   11.8202  -10.8023 C   0  0  0  0  0  0  0  0  0  0  0  0
   -7.7456   10.5858  -13.0568 C   0  0  0  0  0  0  0  0  0  0  0  0
   -7.0126   11.7716  -13.1776 C   0  0  0  0  0  0  0  0  0  0  0  0
   -7.8340   10.0285  -11.7877 C   0  0  0  0  0  0  0  0  0  0  0  0
   -7.2471   10.6293  -10.6255 C   0  0  0  0  0  0  0  0  0  0  0  0
   -7.6099    9.7738   -9.5366 C   0  0  0  0  0  0  0  0  0  0  0  0
   -8.2971    8.7499   -9.9997 N   0  0  0  0  0  0  0  0  0  0  0  0
   -8.4324    8.8805  -11.3156 N   0  0  0  0  0  0  0  0  0  0  0  0
   -7.3321    9.9039   -8.0386 C   0  0  0  0  0  0  0  0  0  0  0  0
   -4.4077   13.6374  -11.5161 N   0  0  0  0  0  0  0  0  0  0  0  0
   -3.4400   14.7362  -11.5603 C   0  0  0  0  0  0  0  0  0  0  0  0
   -5.5080   13.5935  -12.2349 C   0  0  0  0  0  0  0  0  0  0  0  0
   -5.8585   14.4899  -13.0509 O   0  0  0  0  0  0  0  0  0  0  0  0
   -5.9274   10.4444   -7.6346 C   0  0  0  0  0  0  0  0  0  0  0  0
   -4.7880    9.9988   -8.5813 C   0  0  0  0  0  0  0  0  0  0  0  0
   -5.9224   11.9644   -7.3345 C   0  0  0  0  0  0  0  0  0  0  0  0
   -7.2692   12.9995  -11.9014 H   0  0  0  0  0  0  0  0  0  0  0  0
   -6.0160   12.2965   -9.9603 H   0  0  0  0  0  0  0  0  0  0  0  0
   -8.2205   10.1254  -13.9106 H   0  0  0  0  0  0  0  0  0  0  0  0
   -6.9276   12.2403  -14.1469 H   0  0  0  0  0  0  0  0  0  0  0  0
   -8.0859   10.5853   -7.6172 H   0  0  0  0  0  0  0  0  0  0  0  0
   -7.4478    8.9063   -7.5897 H   0  0  0  0  0  0  0  0  0  0  0  0
   -4.2197   12.8722  -10.9003 H   0  0  0  0  0  0  0  0  0  0  0  0
   -2.6137   14.5259  -10.8653 H   0  0  0  0  0  0  0  0  0  0  0  0
   -3.0438   14.8348  -12.5817 H   0  0  0  0  0  0  0  0  0  0  0  0
   -3.9359   15.6734  -11.2673 H   0  0  0  0  0  0  0  0  0  0  0  0
   -5.7040    9.9624   -6.6714 H   0  0  0  0  0  0  0  0  0  0  0  0
   -3.8338   10.4189   -8.2306 H   0  0  0  0  0  0  0  0  0  0  0  0
   -4.7249    8.9006   -8.5873 H   0  0  0  0  0  0  0  0  0  0  0  0
   -4.9952   10.3598   -9.5995 H   0  0  0  0  0  0  0  0  0  0  0  0
   -4.9060   12.2805   -7.0569 H   0  0  0  0  0  0  0  0  0  0  0  0
   -6.2462   12.5158   -8.2296 H   0  0  0  0  0  0  0  0  0  0  0  0
   -6.6118   12.1763   -6.5040 H   0  0  0  0  0  0  0  0  0  0  0  0
  1  2  1  0  0  0  0
  1  4  1  0  0  0  0
  1 13  1  0  0  0  0
  2  6  2  0  0  0  0
  3  4  2  0  0  0  0
  3  5  1  0  0  0  0
  5  6  1  0  0  0  0
  5  9  2  0  0  0  0
  6  7  1  0  0  0  0
  7  8  2  0  0  0  0
  7 10  1  0  0  0  0
  8  9  1  0  0  0  0
 10 15  1  0  0  0  0
 11 12  1  0  0  0  0
 11 13  1  0  0  0  0
 13 14  2  0  0  0  0
 15 16  1  0  0  0  0
 15 17  1  0  0  0  0
  1 18  1  0  0  0  0
  2 19  1  0  0  0  0
  3 20  1  0  0  0  0
  4 21  1  0  0  0  0
 10 22  1  0  0  0  0
 10 23  1  0  0  0  0
 11 24  1  0  0  0  0
 12 25  1  0  0  0  0
 12 26  1  0  0  0  0
 12 27  1  0  0  0  0
 15 28  1  0  0  0  0
 16 29  1  0  0  0  0
 16 30  1  0  0  0  0
 16 31  1  0  0  0  0
 17 32  1  0  0  0  0
 17 33  1  0  0  0  0
 17 34  1  0  0  0  0
M  END
> <Name>
14

> <IC50[uM]>
0.84

$$$$
14
  -OEChem-05192314333D
 Structure written by MMmdl.
 34 35  0     1  0  0  0  0  0999 V2000
   -6.3887   12.3647  -12.0798 C   0  0  0  0  0  0  0  0  0  0  0  0
   -6.4962   11.8202  -10.8023 C   0  0  0  0  0  0  0  0  0  0  0  0
   -7.7456   10.5858  -13.0568 C   0  0  0  0  0  0  0  0  0  0  0  0
   -7.0126   11.7716  -13.1776 C   0  0  0  0  0  0  0  0  0  0  0  0
   -7.8340   10.0285  -11.7877 C   0  0  0  0  0  0  0  0  0  0  0  0
   -7.2471   10.6293  -10.6255 C   0  0  3  0  0  0  0  0  0  0  0  0
   -7.6099    9.7738   -9.5366 C   0  0  0  0  0  0  0  0  0  0  0  0
   -8.2971    8.7499   -9.9997 N   0  0  0  0  0  0  0  0  0  0  0  0
   -8.4324    8.8805  -11.3156 N   0  0  0  0  0  0  0  0  0  0  0  0
   -7.3321    9.9039   -8.0386 C   0  0  0  0  0  0  0  0  0  0  0  0
   -4.4077   13.6374  -11.5161 N   0  0  0  0  0  0  0  0  0  0  0  0
   -3.4400   14.7362  -11.5603 C   0  0  0  0  0  0  0  0  0  0  0  0
   -5.5080   13.5935  -12.2349 C   0  0  0  0  0  0  0  0  0  0  0  0
   -5.8585   14.4899  -13.0509 O   0  0  0  0  0  0  0  0  0  0  0  0
   -5.9274   10.4444   -7.6346 C   0  0  0  0  0  0  0  0  0  0  0  0
   -4.7880    9.9988   -8.5813 C   0  0  0  0  0  0  0  0  0  0  0  0
   -5.9224   11.9644   -7.3345 C   0  0  0  0  0  0  0  0  0  0  0  0
   -6.0160   12.2965   -9.9603 H   0  0  0  0  0  0  0  0  0  0  0  0
   -8.2205   10.1254  -13.9106 H   0  0  0  0  0  0  0  0  0  0  0  0
   -6.9276   12.2403  -14.1469 H   0  0  0  0  0  0  0  0  0  0  0  0
   -8.1592   11.2235  -10.4675 H   0  0  0  0  0  0  0  0  0  0  0  0
   -8.0859   10.5853   -7.6172 H   0  0  0  0  0  0  0  0  0  0  0  0
   -7.4478    8.9063   -7.5897 H   0  0  0  0  0  0  0  0  0  0  0  0
   -4.2197   12.8722  -10.9003 H   0  0  0  0  0  0  0  0  0  0  0  0
   -2.6137   14.5259  -10.8653 H   0  0  0  0  0  0  0  0  0  0  0  0
   -3.0438   14.8348  -12.5817 H   0  0  0  0  0  0  0  0  0  0  0  0
   -3.9359   15.6734  -11.2673 H   0  0  0  0  0  0  0  0  0  0  0  0
   -5.7040    9.9624   -6.6714 H   0  0  0  0  0  0  0  0  0  0  0  0
   -3.8338   10.4189   -8.2306 H   0  0  0  0  0  0  0  0  0  0  0  0
   -4.7249    8.9006   -8.5873 H   0  0  0  0  0  0  0  0  0  0  0  0
   -4.9952   10.3598   -9.5995 H   0  0  0  0  0  0  0  0  0  0  0  0
   -4.9060   12.2805   -7.0569 H   0  0  0  0  0  0  0  0  0  0  0  0
   -6.2462   12.5158   -8.2296 H   0  0  0  0  0  0  0  0  0  0  0  0
   -6.6118   12.1763   -6.5040 H   0  0  0  0  0  0  0  0  0  0  0  0
  1  2  2  0  0  0  0
  1  4  1  0  0  0  0
  1 13  1  0  0  0  0
  2  6  1  0  0  0  0
  3  4  2  0  0  0  0
  3  5  1  0  0  0  0
  5  6  1  0  0  0  0
  5  9  2  0  0  0  0
  6  7  1  0  0  0  0
  7  8  2  0  0  0  0
  7 10  1  0  0  0  0
  8  9  1  0  0  0  0
 10 15  1  0  0  0  0
 11 12  1  0  0  0  0
 11 13  1  0  0  0  0
 13 14  2  0  0  0  0
 15 16  1  0  0  0  0
 15 17  1  0  0  0  0
  2 18  1  0  0  0  0
  3 19  1  0  0  0  0
  4 20  1  0  0  0  0
  6 21  1  0  0  0  0
 10 22  1  0  0  0  0
 10 23  1  0  0  0  0
 11 24  1  0  0  0  0
 12 25  1  0  0  0  0
 12 26  1  0  0  0  0
 12 27  1  0  0  0  0
 15 28  1  0  0  0  0
 16 29  1  0  0  0  0
 16 30  1  0  0  0  0
 16 31  1  0  0  0  0
 17 32  1  0  0  0  0
 17 33  1  0  0  0  0
 17 34  1  0  0  0  0
M  END
> <Name>
14

> <IC50[uM]>
0.84

$$$$
14
  -OEChem-05192314333D
 Structure written by MMmdl.
 34 35  0     0  0  0  0  0  0999 V2000
   -6.3887   12.3647  -12.0798 C   0  0  0  0  0  0  0  0  0  0  0  0
   -6.4962   11.8202  -10.8023 C   0  0  0  0  0  0  0  0  0  0  0  0
   -7.7456   10.5858  -13.0568 C   0  0  0  0  0  0  0  0  0  0  0  0
   -7.0126   11.7716  -13.1776 C   0  0  0  0  0  0  0  0  0  0  0  0
   -7.8340   10.0285  -11.7877 C   0  0  0  0  0  0  0  0  0  0  0  0
   -7.2471   10.6293  -10.6255 C   0  0  0  0  0  0  0  0  0  0  0  0
   -7.6099    9.7738   -9.5366 C   0  0  0  0  0  0  0  0  0  0  0  0
   -8.2971    8.7499   -9.9997 N   0  0  0  0  0  0  0  0  0  0  0  0
   -8.4324    8.8805  -11.3156 N   0  0  0  0  0  0  0  0  0  0  0  0
   -7.3321    9.9039   -8.0386 C   0  0  0  0  0  0  0  0  0  0  0  0
   -4.4077   13.6374  -11.5161 N   0  0  0  0  0  0  0  0  0  0  0  0
   -3.4400   14.7362  -11.5603 C   0  0  0  0  0  0  0  0  0  0  0  0
   -5.5080   13.5935  -12.2349 C   0  0  0  0  0  0  0  0  0  0  0  0
   -5.8585   14.4899  -13.0509 O   0  0  0  0  0  0  0  0  0  0  0  0
   -5.9274   10.4444   -7.6346 C   0  0  0  0  0  0  0  0  0  0  0  0
   -4.7880    9.9988   -8.5813 C   0  0  0  0  0  0  0  0  0  0  0  0
   -5.9224   11.9644   -7.3345 C   0  0  0  0  0  0  0  0  0  0  0  0
   -6.0160   12.2965   -9.9603 H   0  0  0  0  0  0  0  0  0  0  0  0
   -8.7697   10.7916  -13.4015 H   0  0  0  0  0  0  0  0  0  0  0  0
   -7.2799    9.8386  -13.7162 H   0  0  0  0  0  0  0  0  0  0  0  0
   -6.9276   12.2403  -14.1469 H   0  0  0  0  0  0  0  0  0  0  0  0
   -8.0859   10.5853   -7.6172 H   0  0  0  0  0  0  0  0  0  0  0  0
   -7.4478    8.9063   -7.5897 H   0  0  0  0  0  0  0  0  0  0  0  0
   -4.2197   12.8722  -10.9003 H   0  0  0  0  0  0  0  0  0  0  0  0
   -2.6137   14.5259  -10.8653 H   0  0  0  0  0  0  0  0  0  0  0  0
   -3.0438   14.8348  -12.5817 H   0  0  0  0  0  0  0  0  0  0  0  0
   -3.9359   15.6734  -11.2673 H   0  0  0  0  0  0  0  0  0  0  0  0
   -5.7040    9.9624   -6.6714 H   0  0  0  0  0  0  0  0  0  0  0  0
   -3.8338   10.4189   -8.2306 H   0  0  0  0  0  0  0  0  0  0  0  0
   -4.7249    8.9006   -8.5873 H   0  0  0  0  0  0  0  0  0  0  0  0
   -4.9952   10.3598   -9.5995 H   0  0  0  0  0  0  0  0  0  0  0  0
   -4.9060   12.2805   -7.0569 H   0  0  0  0  0  0  0  0  0  0  0  0
   -6.2462   12.5158   -8.2296 H   0  0  0  0  0  0  0  0  0  0  0  0
   -6.6118   12.1763   -6.5040 H   0  0  0  0  0  0  0  0  0  0  0  0
  1  2  1  0  0  0  0
  1  4  2  0  0  0  0
  1 13  1  0  0  0  0
  2  6  2  0  0  0  0
  3  4  1  0  0  0  0
  3  5  1  0  0  0  0
  5  6  1  0  0  0  0
  5  9  2  0  0  0  0
  6  7  1  0  0  0  0
  7  8  2  0  0  0  0
  7 10  1  0  0  0  0
  8  9  1  0  0  0  0
 10 15  1  0  0  0  0
 11 12  1  0  0  0  0
 11 13  1  0  0  0  0
 13 14  2  0  0  0  0
 15 16  1  0  0  0  0
 15 17  1  0  0  0  0
  2 18  1  0  0  0  0
  3 19  1  0  0  0  0
  3 20  1  0  0  0  0
  4 21  1  0  0  0  0
 10 22  1  0  0  0  0
 10 23  1  0  0  0  0
 11 24  1  0  0  0  0
 12 25  1  0  0  0  0
 12 26  1  0  0  0  0
 12 27  1  0  0  0  0
 15 28  1  0  0  0  0
 16 29  1  0  0  0  0
 16 30  1  0  0  0  0
 16 31  1  0  0  0  0
 17 32  1  0  0  0  0
 17 33  1  0  0  0  0
 17 34  1  0  0  0  0
M  END
> <Name>
14

> <IC50[uM]>
0.84

$$$$
14
  -OEChem-05192314333D
 Structure written by MMmdl.
 34 35  0     1  0  0  0  0  0999 V2000
   -6.3887   12.3647  -12.0798 C   0  0  3  0  0  0  0  0  0  0  0  0
   -6.4962   11.8202  -10.8023 C   0  0  0  0  0  0  0  0  0  0  0  0
   -7.7456   10.5858  -13.0568 C   0  0  0  0  0  0  0  0  0  0  0  0
   -7.0126   11.7716  -13.1776 C   0  0  0  0  0  0  0  0  0  0  0  0
   -7.8340   10.0285  -11.7877 C   0  0  0  0  0  0  0  0  0  0  0  0
   -7.2471   10.6293  -10.6255 C   0  0  0  0  0  0  0  0  0  0  0  0
   -7.6099    9.7738   -9.5366 C   0  0  0  0  0  0  0  0  0  0  0  0
   -8.2971    8.7499   -9.9997 N   0  0  0  0  0  0  0  0  0  0  0  0
   -8.4324    8.8805  -11.3156 N   0  0  0  0  0  0  0  0  0  0  0  0
   -7.3321    9.9039   -8.0386 C   0  0  0  0  0  0  0  0  0  0  0  0
   -4.4077   13.6374  -11.5161 N   0  0  0  0  0  0  0  0  0  0  0  0
   -3.4400   14.7362  -11.5603 C   0  0  0  0  0  0  0  0  0  0  0  0
   -5.5080   13.5935  -12.2349 C   0  0  0  0  0  0  0  0  0  0  0  0
   -5.8585   14.4899  -13.0509 O   0  0  0  0  0  0  0  0  0  0  0  0
   -5.9274   10.4444   -7.6346 C   0  0  0  0  0  0  0  0  0  0  0  0
   -4.7880    9.9988   -8.5813 C   0  0  0  0  0  0  0  0  0  0  0  0
   -5.9224   11.9644   -7.3345 C   0  0  0  0  0  0  0  0  0  0  0  0
   -7.2692   12.9995  -11.9014 H   0  0  0  0  0  0  0  0  0  0  0  0
   -6.0160   12.2965   -9.9603 H   0  0  0  0  0  0  0  0  0  0  0  0
   -8.2205   10.1254  -13.9106 H   0  0  0  0  0  0  0  0  0  0  0  0
   -6.9276   12.2403  -14.1469 H   0  0  0  0  0  0  0  0  0  0  0  0
   -8.0859   10.5853   -7.6172 H   0  0  0  0  0  0  0  0  0  0  0  0
   -7.4478    8.9063   -7.5897 H   0  0  0  0  0  0  0  0  0  0  0  0
   -2.6137   14.5259  -10.8653 H   0  0  0  0  0  0  0  0  0  0  0  0
   -3.0438   14.8348  -12.5817 H   0  0  0  0  0  0  0  0  0  0  0  0
   -3.9359   15.6734  -11.2673 H   0  0  0  0  0  0  0  0  0  0  0  0
   -5.2194   15.1927  -13.0438 H   0  0  0  0  0  0  0  0  0  0  0  0
   -5.7040    9.9624   -6.6714 H   0  0  0  0  0  0  0  0  0  0  0  0
   -3.8338   10.4189   -8.2306 H   0  0  0  0  0  0  0  0  0  0  0  0
   -4.7249    8.9006   -8.5873 H   0  0  0  0  0  0  0  0  0  0  0  0
   -4.9952   10.3598   -9.5995 H   0  0  0  0  0  0  0  0  0  0  0  0
   -4.9060   12.2805   -7.0569 H   0  0  0  0  0  0  0  0  0  0  0  0
   -6.2462   12.5158   -8.2296 H   0  0  0  0  0  0  0  0  0  0  0  0
   -6.6118   12.1763   -6.5040 H   0  0  0  0  0  0  0  0  0  0  0  0
  1  2  1  0  0  0  0
  1  4  1  0  0  0  0
  1 13  1  0  0  0  0
  2  6  2  0  0  0  0
  3  4  2  0  0  0  0
  3  5  1  0  0  0  0
  5  6  1  0  0  0  0
  5  9  2  0  0  0  0
  6  7  1  0  0  0  0
  7  8  2  0  0  0  0
  7 10  1  0  0  0  0
  8  9  1  0  0  0  0
 10 15  1  0  0  0  0
 11 12  1  0  0  0  0
 11 13  2  0  0  0  0
 13 14  1  0  0  0  0
 15 16  1  0  0  0  0
 15 17  1  0  0  0  0
  1 18  1  0  0  0  0
  2 19  1  0  0  0  0
  3 20  1  0  0  0  0
  4 21  1  0  0  0  0
 10 22  1  0  0  0  0
 10 23  1  0  0  0  0
 12 24  1  0  0  0  0
 12 25  1  0  0  0  0
 12 26  1  0  0  0  0
 14 27  1  0  0  0  0
 15 28  1  0  0  0  0
 16 29  1  0  0  0  0
 16 30  1  0  0  0  0
 16 31  1  0  0  0  0
 17 32  1  0  0  0  0
 17 33  1  0  0  0  0
 17 34  1  0  0  0  0
M  END
> <Name>
14

> <IC50[uM]>
0.84

$$$$
14
  -OEChem-05192314333D
 Structure written by MMmdl.
 34 35  0     1  0  0  0  0  0999 V2000
   -6.3887   12.3647  -12.0798 C   0  0  0  0  0  0  0  0  0  0  0  0
   -6.4962   11.8202  -10.8023 C   0  0  0  0  0  0  0  0  0  0  0  0
   -7.7456   10.5858  -13.0568 C   0  0  0  0  0  0  0  0  0  0  0  0
   -7.0126   11.7716  -13.1776 C   0  0  0  0  0  0  0  0  0  0  0  0
   -7.8340   10.0285  -11.7877 C   0  0  0  0  0  0  0  0  0  0  0  0
   -7.2471   10.6293  -10.6255 C   0  0  3  0  0  0  0  0  0  0  0  0
   -7.6099    9.7738   -9.5366 C   0  0  0  0  0  0  0  0  0  0  0  0
   -8.2971    8.7499   -9.9997 N   0  0  0  0  0  0  0  0  0  0  0  0
   -8.4324    8.8805  -11.3156 N   0  0  0  0  0  0  0  0  0  0  0  0
   -7.3321    9.9039   -8.0386 C   0  0  0  0  0  0  0  0  0  0  0  0
   -4.4077   13.6374  -11.5161 N   0  0  0  0  0  0  0  0  0  0  0  0
   -3.4400   14.7362  -11.5603 C   0  0  0  0  0  0  0  0  0  0  0  0
   -5.5080   13.5935  -12.2349 C   0  0  0  0  0  0  0  0  0  0  0  0
   -5.8585   14.4899  -13.0509 O   0  0  0  0  0  0  0  0  0  0  0  0
   -5.9274   10.4444   -7.6346 C   0  0  0  0  0  0  0  0  0  0  0  0
   -4.7880    9.9988   -8.5813 C   0  0  0  0  0  0  0  0  0  0  0  0
   -5.9224   11.9644   -7.3345 C   0  0  0  0  0  0  0  0  0  0  0  0
   -6.0160   12.2965   -9.9603 H   0  0  0  0  0  0  0  0  0  0  0  0
   -8.2205   10.1254  -13.9106 H   0  0  0  0  0  0  0  0  0  0  0  0
   -6.9276   12.2403  -14.1469 H   0  0  0  0  0  0  0  0  0  0  0  0
   -8.1592   11.2235  -10.4675 H   0  0  0  0  0  0  0  0  0  0  0  0
   -8.0859   10.5853   -7.6172 H   0  0  0  0  0  0  0  0  0  0  0  0
   -7.4478    8.9063   -7.5897 H   0  0  0  0  0  0  0  0  0  0  0  0
   -2.6137   14.5259  -10.8653 H   0  0  0  0  0  0  0  0  0  0  0  0
   -3.0438   14.8348  -12.5817 H   0  0  0  0  0  0  0  0  0  0  0  0
   -3.9359   15.6734  -11.2673 H   0  0  0  0  0  0  0  0  0  0  0  0
   -5.2194   15.1927  -13.0438 H   0  0  0  0  0  0  0  0  0  0  0  0
   -5.7040    9.9624   -6.6714 H   0  0  0  0  0  0  0  0  0  0  0  0
   -3.8338   10.4189   -8.2306 H   0  0  0  0  0  0  0  0  0  0  0  0
   -4.7249    8.9006   -8.5873 H   0  0  0  0  0  0  0  0  0  0  0  0
   -4.9952   10.3598   -9.5995 H   0  0  0  0  0  0  0  0  0  0  0  0
   -4.9060   12.2805   -7.0569 H   0  0  0  0  0  0  0  0  0  0  0  0
   -6.2462   12.5158   -8.2296 H   0  0  0  0  0  0  0  0  0  0  0  0
   -6.6118   12.1763   -6.5040 H   0  0  0  0  0  0  0  0  0  0  0  0
  1  2  2  0  0  0  0
  1  4  1  0  0  0  0
  1 13  1  0  0  0  0
  2  6  1  0  0  0  0
  3  4  2  0  0  0  0
  3  5  1  0  0  0  0
  5  6  1  0  0  0  0
  5  9  2  0  0  0  0
  6  7  1  0  0  0  0
  7  8  2  0  0  0  0
  7 10  1  0  0  0  0
  8  9  1  0  0  0  0
 10 15  1  0  0  0  0
 11 12  1  0  0  0  0
 11 13  2  0  0  0  0
 13 14  1  0  0  0  0
 15 16  1  0  0  0  0
 15 17  1  0  0  0  0
  2 18  1  0  0  0  0
  3 19  1  0  0  0  0
  4 20  1  0  0  0  0
  6 21  1  0  0  0  0
 10 22  1  0  0  0  0
 10 23  1  0  0  0  0
 12 24  1  0  0  0  0
 12 25  1  0  0  0  0
 12 26  1  0  0  0  0
 14 27  1  0  0  0  0
 15 28  1  0  0  0  0
 16 29  1  0  0  0  0
 16 30  1  0  0  0  0
 16 31  1  0  0  0  0
 17 32  1  0  0  0  0
 17 33  1  0  0  0  0
 17 34  1  0  0  0  0
M  END
> <Name>
14

> <IC50[uM]>
0.84

$$$$
14
  -OEChem-05192314333D
 Structure written by MMmdl.
 34 35  0     0  0  0  0  0  0999 V2000
   -6.3887   12.3647  -12.0798 C   0  0  0  0  0  0  0  0  0  0  0  0
   -6.4962   11.8202  -10.8023 C   0  0  0  0  0  0  0  0  0  0  0  0
   -7.7456   10.5858  -13.0568 C   0  0  0  0  0  0  0  0  0  0  0  0
   -7.0126   11.7716  -13.1776 C   0  0  0  0  0  0  0  0  0  0  0  0
   -7.8340   10.0285  -11.7877 C   0  0  0  0  0  0  0  0  0  0  0  0
   -7.2471   10.6293  -10.6255 C   0  0  0  0  0  0  0  0  0  0  0  0
   -7.6099    9.7738   -9.5366 C   0  0  0  0  0  0  0  0  0  0  0  0
   -8.2971    8.7499   -9.9997 N   0  0  0  0  0  0  0  0  0  0  0  0
   -8.4324    8.8805  -11.3156 N   0  0  0  0  0  0  0  0  0  0  0  0
   -7.3321    9.9039   -8.0386 C   0  0  0  0  0  0  0  0  0  0  0  0
   -4.4077   13.6374  -11.5161 N   0  0  0  0  0  0  0  0  0  0  0  0
   -3.4400   14.7362  -11.5603 C   0  0  0  0  0  0  0  0  0  0  0  0
   -5.5080   13.5935  -12.2349 C   0  0  0  0  0  0  0  0  0  0  0  0
   -5.8585   14.4899  -13.0509 O   0  0  0  0  0  0  0  0  0  0  0  0
   -5.9274   10.4444   -7.6346 C   0  0  0  0  0  0  0  0  0  0  0  0
   -4.7880    9.9988   -8.5813 C   0  0  0  0  0  0  0  0  0  0  0  0
   -5.9224   11.9644   -7.3345 C   0  0  0  0  0  0  0  0  0  0  0  0
   -6.0160   12.2965   -9.9603 H   0  0  0  0  0  0  0  0  0  0  0  0
   -8.7697   10.7916  -13.4015 H   0  0  0  0  0  0  0  0  0  0  0  0
   -7.2799    9.8386  -13.7162 H   0  0  0  0  0  0  0  0  0  0  0  0
   -6.9276   12.2403  -14.1469 H   0  0  0  0  0  0  0  0  0  0  0  0
   -8.0859   10.5853   -7.6172 H   0  0  0  0  0  0  0  0  0  0  0  0
   -7.4478    8.9063   -7.5897 H   0  0  0  0  0  0  0  0  0  0  0  0
   -2.6137   14.5259  -10.8653 H   0  0  0  0  0  0  0  0  0  0  0  0
   -3.0438   14.8348  -12.5817 H   0  0  0  0  0  0  0  0  0  0  0  0
   -3.9359   15.6734  -11.2673 H   0  0  0  0  0  0  0  0  0  0  0  0
   -5.2194   15.1927  -13.0438 H   0  0  0  0  0  0  0  0  0  0  0  0
   -5.7040    9.9624   -6.6714 H   0  0  0  0  0  0  0  0  0  0  0  0
   -3.8338   10.4189   -8.2306 H   0  0  0  0  0  0  0  0  0  0  0  0
   -4.7249    8.9006   -8.5873 H   0  0  0  0  0  0  0  0  0  0  0  0
   -4.9952   10.3598   -9.5995 H   0  0  0  0  0  0  0  0  0  0  0  0
   -4.9060   12.2805   -7.0569 H   0  0  0  0  0  0  0  0  0  0  0  0
   -6.2462   12.5158   -8.2296 H   0  0  0  0  0  0  0  0  0  0  0  0
   -6.6118   12.1763   -6.5040 H   0  0  0  0  0  0  0  0  0  0  0  0
  1  2  1  0  0  0  0
  1  4  2  0  0  0  0
  1 13  1  0  0  0  0
  2  6  2  0  0  0  0
  3  4  1  0  0  0  0
  3  5  1  0  0  0  0
  5  6  1  0  0  0  0
  5  9  2  0  0  0  0
  6  7  1  0  0  0  0
  7  8  2  0  0  0  0
  7 10  1  0  0  0  0
  8  9  1  0  0  0  0
 10 15  1  0  0  0  0
 11 12  1  0  0  0  0
 11 13  2  0  0  0  0
 13 14  1  0  0  0  0
 15 16  1  0  0  0  0
 15 17  1  0  0  0  0
  2 18  1  0  0  0  0
  3 19  1  0  0  0  0
  3 20  1  0  0  0  0
  4 21  1  0  0  0  0
 10 22  1  0  0  0  0
 10 23  1  0  0  0  0
 12 24  1  0  0  0  0
 12 25  1  0  0  0  0
 12 26  1  0  0  0  0
 14 27  1  0  0  0  0
 15 28  1  0  0  0  0
 16 29  1  0  0  0  0
 16 30  1  0  0  0  0
 16 31  1  0  0  0  0
 17 32  1  0  0  0  0
 17 33  1  0  0  0  0
 17 34  1  0  0  0  0
M  END
> <Name>
14

> <IC50[uM]>
0.84

$$$$
14
  -OEChem-05192314333D
 Structure written by MMmdl.
 34 35  0     1  0  0  0  0  0999 V2000
   -6.3887   12.3647  -12.0798 C   0  0  3  0  0  0  0  0  0  0  0  0
   -6.4962   11.8202  -10.8023 C   0  0  0  0  0  0  0  0  0  0  0  0
   -7.7456   10.5858  -13.0568 C   0  0  0  0  0  0  0  0  0  0  0  0
   -7.0126   11.7716  -13.1776 C   0  0  0  0  0  0  0  0  0  0  0  0
   -7.8340   10.0285  -11.7877 C   0  0  3  0  0  0  0  0  0  0  0  0
   -7.2471   10.6293  -10.6255 C   0  0  0  0  0  0  0  0  0  0  0  0
   -7.6099    9.7738   -9.5366 C   0  0  0  0  0  0  0  0  0  0  0  0
   -8.2971    8.7499   -9.9997 N   0  0  0  0  0  0  0  0  0  0  0  0
   -8.4324    8.8805  -11.3156 N   0  0  0  0  0  0  0  0  0  0  0  0
   -7.3321    9.9039   -8.0386 C   0  0  0  0  0  0  0  0  0  0  0  0
   -4.4077   13.6374  -11.5161 N   0  0  0  0  0  0  0  0  0  0  0  0
   -3.4400   14.7362  -11.5603 C   0  0  0  0  0  0  0  0  0  0  0  0
   -5.5080   13.5935  -12.2349 C   0  0  0  0  0  0  0  0  0  0  0  0
   -5.8585   14.4899  -13.0509 O   0  0  0  0  0  0  0  0  0  0  0  0
   -5.9274   10.4444   -7.6346 C   0  0  0  0  0  0  0  0  0  0  0  0
   -4.7880    9.9988   -8.5813 C   0  0  0  0  0  0  0  0  0  0  0  0
   -5.9224   11.9644   -7.3345 C   0  0  0  0  0  0  0  0  0  0  0  0
   -7.2692   12.9995  -11.9014 H   0  0  0  0  0  0  0  0  0  0  0  0
   -6.0160   12.2965   -9.9603 H   0  0  0  0  0  0  0  0  0  0  0  0
   -8.2205   10.1254  -13.9106 H   0  0  0  0  0  0  0  0  0  0  0  0
   -6.9276   12.2403  -14.1469 H   0  0  0  0  0  0  0  0  0  0  0  0
   -6.9040    9.4695  -11.9684 H   0  0  0  0  0  0  0  0  0  0  0  0
   -8.0714    9.6350   -7.2986 H   0  0  0  0  0  0  0  0  0  0  0  0
   -4.2197   12.8722  -10.9003 H   0  0  0  0  0  0  0  0  0  0  0  0
   -2.6137   14.5259  -10.8653 H   0  0  0  0  0  0  0  0  0  0  0  0
   -3.0438   14.8348  -12.5817 H   0  0  0  0  0  0  0  0  0  0  0  0
   -3.9359   15.6734  -11.2673 H   0  0  0  0  0  0  0  0  0  0  0  0
   -5.7040    9.9624   -6.6714 H   0  0  0  0  0  0  0  0  0  0  0  0
   -3.8338   10.4189   -8.2306 H   0  0  0  0  0  0  0  0  0  0  0  0
   -4.7249    8.9006   -8.5873 H   0  0  0  0  0  0  0  0  0  0  0  0
   -4.9952   10.3598   -9.5995 H   0  0  0  0  0  0  0  0  0  0  0  0
   -4.9060   12.2805   -7.0569 H   0  0  0  0  0  0  0  0  0  0  0  0
   -6.2462   12.5158   -8.2296 H   0  0  0  0  0  0  0  0  0  0  0  0
   -6.6118   12.1763   -6.5040 H   0  0  0  0  0  0  0  0  0  0  0  0
  1  2  1  0  0  0  0
  1  4  1  0  0  0  0
  1 13  1  0  0  0  0
  2  6  2  0  0  0  0
  3  4  2  0  0  0  0
  3  5  1  0  0  0  0
  5  6  1  0  0  0  0
  5  9  1  0  0  0  0
  6  7  1  0  0  0  0
  7  8  1  0  0  0  0
  7 10  2  3  0  0  0
  8  9  2  0  0  0  0
 10 15  1  0  0  0  0
 11 12  1  0  0  0  0
 11 13  1  0  0  0  0
 13 14  2  0  0  0  0
 15 16  1  0  0  0  0
 15 17  1  0  0  0  0
  1 18  1  0  0  0  0
  2 19  1  0  0  0  0
  3 20  1  0  0  0  0
  4 21  1  0  0  0  0
  5 22  1  0  0  0  0
 10 23  1  0  0  0  0
 11 24  1  0  0  0  0
 12 25  1  0  0  0  0
 12 26  1  0  0  0  0
 12 27  1  0  0  0  0
 15 28  1  0  0  0  0
 16 29  1  0  0  0  0
 16 30  1  0  0  0  0
 16 31  1  0  0  0  0
 17 32  1  0  0  0  0
 17 33  1  0  0  0  0
 17 34  1  0  0  0  0
M  END
> <Name>
14

> <IC50[uM]>
0.84

$$$$
14
  -OEChem-05192314333D
 Structure written by MMmdl.
 34 35  0     1  0  0  0  0  0999 V2000
   -6.3887   12.3647  -12.0798 C   0  0  0  0  0  0  0  0  0  0  0  0
   -6.4962   11.8202  -10.8023 C   0  0  0  0  0  0  0  0  0  0  0  0
   -7.7456   10.5858  -13.0568 C   0  0  0  0  0  0  0  0  0  0  0  0
   -7.0126   11.7716  -13.1776 C   0  0  0  0  0  0  0  0  0  0  0  0
   -7.8340   10.0285  -11.7877 C   0  0  3  0  0  0  0  0  0  0  0  0
   -7.2471   10.6293  -10.6255 C   0  0  3  0  0  0  0  0  0  0  0  0
   -7.6099    9.7738   -9.5366 C   0  0  0  0  0  0  0  0  0  0  0  0
   -8.2971    8.7499   -9.9997 N   0  0  0  0  0  0  0  0  0  0  0  0
   -8.4324    8.8805  -11.3156 N   0  0  0  0  0  0  0  0  0  0  0  0
   -7.3321    9.9039   -8.0386 C   0  0  0  0  0  0  0  0  0  0  0  0
   -4.4077   13.6374  -11.5161 N   0  0  0  0  0  0  0  0  0  0  0  0
   -3.4400   14.7362  -11.5603 C   0  0  0  0  0  0  0  0  0  0  0  0
   -5.5080   13.5935  -12.2349 C   0  0  0  0  0  0  0  0  0  0  0  0
   -5.8585   14.4899  -13.0509 O   0  0  0  0  0  0  0  0  0  0  0  0
   -5.9274   10.4444   -7.6346 C   0  0  0  0  0  0  0  0  0  0  0  0
   -4.7880    9.9988   -8.5813 C   0  0  0  0  0  0  0  0  0  0  0  0
   -5.9224   11.9644   -7.3345 C   0  0  0  0  0  0  0  0  0  0  0  0
   -6.0160   12.2965   -9.9603 H   0  0  0  0  0  0  0  0  0  0  0  0
   -8.2205   10.1254  -13.9106 H   0  0  0  0  0  0  0  0  0  0  0  0
   -6.9276   12.2403  -14.1469 H   0  0  0  0  0  0  0  0  0  0  0  0
   -6.9040    9.4695  -11.9684 H   0  0  0  0  0  0  0  0  0  0  0  0
   -8.1592   11.2235  -10.4675 H   0  0  0  0  0  0  0  0  0  0  0  0
   -8.0714    9.6350   -7.2986 H   0  0  0  0  0  0  0  0  0  0  0  0
   -4.2197   12.8722  -10.9003 H   0  0  0  0  0  0  0  0  0  0  0  0
   -2.6137   14.5259  -10.8653 H   0  0  0  0  0  0  0  0  0  0  0  0
   -3.0438   14.8348  -12.5817 H   0  0  0  0  0  0  0  0  0  0  0  0
   -3.9359   15.6734  -11.2673 H   0  0  0  0  0  0  0  0  0  0  0  0
   -5.7040    9.9624   -6.6714 H   0  0  0  0  0  0  0  0  0  0  0  0
   -3.8338   10.4189   -8.2306 H   0  0  0  0  0  0  0  0  0  0  0  0
   -4.7249    8.9006   -8.5873 H   0  0  0  0  0  0  0  0  0  0  0  0
   -4.9952   10.3598   -9.5995 H   0  0  0  0  0  0  0  0  0  0  0  0
   -4.9060   12.2805   -7.0569 H   0  0  0  0  0  0  0  0  0  0  0  0
   -6.2462   12.5158   -8.2296 H   0  0  0  0  0  0  0  0  0  0  0  0
   -6.6118   12.1763   -6.5040 H   0  0  0  0  0  0  0  0  0  0  0  0
  1  2  2  0  0  0  0
  1  4  1  0  0  0  0
  1 13  1  0  0  0  0
  2  6  1  0  0  0  0
  3  4  2  0  0  0  0
  3  5  1  0  0  0  0
  5  6  1  0  0  0  0
  5  9  1  0  0  0  0
  6  7  1  0  0  0  0
  7  8  1  0  0  0  0
  7 10  2  3  0  0  0
  8  9  2  0  0  0  0
 10 15  1  0  0  0  0
 11 12  1  0  0  0  0
 11 13  1  0  0  0  0
 13 14  2  0  0  0  0
 15 16  1  0  0  0  0
 15 17  1  0  0  0  0
  2 18  1  0  0  0  0
  3 19  1  0  0  0  0
  4 20  1  0  0  0  0
  5 21  1  0  0  0  0
  6 22  1  0  0  0  0
 10 23  1  0  0  0  0
 11 24  1  0  0  0  0
 12 25  1  0  0  0  0
 12 26  1  0  0  0  0
 12 27  1  0  0  0  0
 15 28  1  0  0  0  0
 16 29  1  0  0  0  0
 16 30  1  0  0  0  0
 16 31  1  0  0  0  0
 17 32  1  0  0  0  0
 17 33  1  0  0  0  0
 17 34  1  0  0  0  0
M  END
> <Name>
14

> <IC50[uM]>
0.84

$$$$
14
  -OEChem-05192314333D
 Structure written by MMmdl.
 34 35  0     1  0  0  0  0  0999 V2000
   -6.3887   12.3647  -12.0798 C   0  0  0  0  0  0  0  0  0  0  0  0
   -6.4962   11.8202  -10.8023 C   0  0  0  0  0  0  0  0  0  0  0  0
   -7.7456   10.5858  -13.0568 C   0  0  0  0  0  0  0  0  0  0  0  0
   -7.0126   11.7716  -13.1776 C   0  0  0  0  0  0  0  0  0  0  0  0
   -7.8340   10.0285  -11.7877 C   0  0  3  0  0  0  0  0  0  0  0  0
   -7.2471   10.6293  -10.6255 C   0  0  0  0  0  0  0  0  0  0  0  0
   -7.6099    9.7738   -9.5366 C   0  0  0  0  0  0  0  0  0  0  0  0
   -8.2971    8.7499   -9.9997 N   0  0  0  0  0  0  0  0  0  0  0  0
   -8.4324    8.8805  -11.3156 N   0  0  0  0  0  0  0  0  0  0  0  0
   -7.3321    9.9039   -8.0386 C   0  0  0  0  0  0  0  0  0  0  0  0
   -4.4077   13.6374  -11.5161 N   0  0  0  0  0  0  0  0  0  0  0  0
   -3.4400   14.7362  -11.5603 C   0  0  0  0  0  0  0  0  0  0  0  0
   -5.5080   13.5935  -12.2349 C   0  0  0  0  0  0  0  0  0  0  0  0
   -5.8585   14.4899  -13.0509 O   0  0  0  0  0  0  0  0  0  0  0  0
   -5.9274   10.4444   -7.6346 C   0  0  0  0  0  0  0  0  0  0  0  0
   -4.7880    9.9988   -8.5813 C   0  0  0  0  0  0  0  0  0  0  0  0
   -5.9224   11.9644   -7.3345 C   0  0  0  0  0  0  0  0  0  0  0  0
   -6.0160   12.2965   -9.9603 H   0  0  0  0  0  0  0  0  0  0  0  0
   -8.2205   10.1254  -13.9106 H   0  0  0  0  0  0  0  0  0  0  0  0
   -6.9276   12.2403  -14.1469 H   0  0  0  0  0  0  0  0  0  0  0  0
   -6.9040    9.4695  -11.9684 H   0  0  0  0  0  0  0  0  0  0  0  0
   -8.0859   10.5853   -7.6172 H   0  0  0  0  0  0  0  0  0  0  0  0
   -7.4478    8.9063   -7.5897 H   0  0  0  0  0  0  0  0  0  0  0  0
   -4.2197   12.8722  -10.9003 H   0  0  0  0  0  0  0  0  0  0  0  0
   -2.6137   14.5259  -10.8653 H   0  0  0  0  0  0  0  0  0  0  0  0
   -3.0438   14.8348  -12.5817 H   0  0  0  0  0  0  0  0  0  0  0  0
   -3.9359   15.6734  -11.2673 H   0  0  0  0  0  0  0  0  0  0  0  0
   -5.7040    9.9624   -6.6714 H   0  0  0  0  0  0  0  0  0  0  0  0
   -3.8338   10.4189   -8.2306 H   0  0  0  0  0  0  0  0  0  0  0  0
   -4.7249    8.9006   -8.5873 H   0  0  0  0  0  0  0  0  0  0  0  0
   -4.9952   10.3598   -9.5995 H   0  0  0  0  0  0  0  0  0  0  0  0
   -4.9060   12.2805   -7.0569 H   0  0  0  0  0  0  0  0  0  0  0  0
   -6.2462   12.5158   -8.2296 H   0  0  0  0  0  0  0  0  0  0  0  0
   -6.6118   12.1763   -6.5040 H   0  0  0  0  0  0  0  0  0  0  0  0
  1  2  2  0  0  0  0
  1  4  1  0  0  0  0
  1 13  1  0  0  0  0
  2  6  1  0  0  0  0
  3  4  2  0  0  0  0
  3  5  1  0  0  0  0
  5  6  1  0  0  0  0
  5  9  1  0  0  0  0
  6  7  2  0  0  0  0
  7  8  1  0  0  0  0
  7 10  1  0  0  0  0
  8  9  2  0  0  0  0
 10 15  1  0  0  0  0
 11 12  1  0  0  0  0
 11 13  1  0  0  0  0
 13 14  2  0  0  0  0
 15 16  1  0  0  0  0
 15 17  1  0  0  0  0
  2 18  1  0  0  0  0
  3 19  1  0  0  0  0
  4 20  1  0  0  0  0
  5 21  1  0  0  0  0
 10 22  1  0  0  0  0
 10 23  1  0  0  0  0
 11 24  1  0  0  0  0
 12 25  1  0  0  0  0
 12 26  1  0  0  0  0
 12 27  1  0  0  0  0
 15 28  1  0  0  0  0
 16 29  1  0  0  0  0
 16 30  1  0  0  0  0
 16 31  1  0  0  0  0
 17 32  1  0  0  0  0
 17 33  1  0  0  0  0
 17 34  1  0  0  0  0
M  END
> <Name>
14

> <IC50[uM]>
0.84

$$$$
14
  -OEChem-05192314333D
 Structure written by MMmdl.
 34 35  0     1  0  0  0  0  0999 V2000
   -6.3887   12.3647  -12.0798 C   0  0  0  0  0  0  0  0  0  0  0  0
   -6.4962   11.8202  -10.8023 C   0  0  0  0  0  0  0  0  0  0  0  0
   -7.7456   10.5858  -13.0568 C   0  0  0  0  0  0  0  0  0  0  0  0
   -7.0126   11.7716  -13.1776 C   0  0  0  0  0  0  0  0  0  0  0  0
   -7.8340   10.0285  -11.7877 C   0  0  3  0  0  0  0  0  0  0  0  0
   -7.2471   10.6293  -10.6255 C   0  0  0  0  0  0  0  0  0  0  0  0
   -7.6099    9.7738   -9.5366 C   0  0  0  0  0  0  0  0  0  0  0  0
   -8.2971    8.7499   -9.9997 N   0  0  0  0  0  0  0  0  0  0  0  0
   -8.4324    8.8805  -11.3156 N   0  0  0  0  0  0  0  0  0  0  0  0
   -7.3321    9.9039   -8.0386 C   0  0  0  0  0  0  0  0  0  0  0  0
   -4.4077   13.6374  -11.5161 N   0  0  0  0  0  0  0  0  0  0  0  0
   -3.4400   14.7362  -11.5603 C   0  0  0  0  0  0  0  0  0  0  0  0
   -5.5080   13.5935  -12.2349 C   0  0  0  0  0  0  0  0  0  0  0  0
   -5.8585   14.4899  -13.0509 O   0  0  0  0  0  0  0  0  0  0  0  0
   -5.9274   10.4444   -7.6346 C   0  0  0  0  0  0  0  0  0  0  0  0
   -4.7880    9.9988   -8.5813 C   0  0  0  0  0  0  0  0  0  0  0  0
   -5.9224   11.9644   -7.3345 C   0  0  0  0  0  0  0  0  0  0  0  0
   -6.0160   12.2965   -9.9603 H   0  0  0  0  0  0  0  0  0  0  0  0
   -8.7697   10.7916  -13.4015 H   0  0  0  0  0  0  0  0  0  0  0  0
   -7.2799    9.8386  -13.7162 H   0  0  0  0  0  0  0  0  0  0  0  0
   -6.9276   12.2403  -14.1469 H   0  0  0  0  0  0  0  0  0  0  0  0
   -6.9040    9.4695  -11.9684 H   0  0  0  0  0  0  0  0  0  0  0  0
   -8.0714    9.6350   -7.2986 H   0  0  0  0  0  0  0  0  0  0  0  0
   -4.2197   12.8722  -10.9003 H   0  0  0  0  0  0  0  0  0  0  0  0
   -2.6137   14.5259  -10.8653 H   0  0  0  0  0  0  0  0  0  0  0  0
   -3.0438   14.8348  -12.5817 H   0  0  0  0  0  0  0  0  0  0  0  0
   -3.9359   15.6734  -11.2673 H   0  0  0  0  0  0  0  0  0  0  0  0
   -5.7040    9.9624   -6.6714 H   0  0  0  0  0  0  0  0  0  0  0  0
   -3.8338   10.4189   -8.2306 H   0  0  0  0  0  0  0  0  0  0  0  0
   -4.7249    8.9006   -8.5873 H   0  0  0  0  0  0  0  0  0  0  0  0
   -4.9952   10.3598   -9.5995 H   0  0  0  0  0  0  0  0  0  0  0  0
   -4.9060   12.2805   -7.0569 H   0  0  0  0  0  0  0  0  0  0  0  0
   -6.2462   12.5158   -8.2296 H   0  0  0  0  0  0  0  0  0  0  0  0
   -6.6118   12.1763   -6.5040 H   0  0  0  0  0  0  0  0  0  0  0  0
  1  2  1  0  0  0  0
  1  4  2  0  0  0  0
  1 13  1  0  0  0  0
  2  6  2  0  0  0  0
  3  4  1  0  0  0  0
  3  5  1  0  0  0  0
  5  6  1  0  0  0  0
  5  9  1  0  0  0  0
  6  7  1  0  0  0  0
  7  8  1  0  0  0  0
  7 10  2  3  0  0  0
  8  9  2  0  0  0  0
 10 15  1  0  0  0  0
 11 12  1  0  0  0  0
 11 13  1  0  0  0  0
 13 14  2  0  0  0  0
 15 16  1  0  0  0  0
 15 17  1  0  0  0  0
  2 18  1  0  0  0  0
  3 19  1  0  0  0  0
  3 20  1  0  0  0  0
  4 21  1  0  0  0  0
  5 22  1  0  0  0  0
 10 23  1  0  0  0  0
 11 24  1  0  0  0  0
 12 25  1  0  0  0  0
 12 26  1  0  0  0  0
 12 27  1  0  0  0  0
 15 28  1  0  0  0  0
 16 29  1  0  0  0  0
 16 30  1  0  0  0  0
 16 31  1  0  0  0  0
 17 32  1  0  0  0  0
 17 33  1  0  0  0  0
 17 34  1  0  0  0  0
M  END
> <Name>
14

> <IC50[uM]>
0.84

$$$$
14
  -OEChem-05192314333D
 Structure written by MMmdl.
 34 35  0     1  0  0  0  0  0999 V2000
   -6.3887   12.3647  -12.0798 C   0  0  3  0  0  0  0  0  0  0  0  0
   -6.4962   11.8202  -10.8023 C   0  0  0  0  0  0  0  0  0  0  0  0
   -7.7456   10.5858  -13.0568 C   0  0  0  0  0  0  0  0  0  0  0  0
   -7.0126   11.7716  -13.1776 C   0  0  0  0  0  0  0  0  0  0  0  0
   -7.8340   10.0285  -11.7877 C   0  0  0  0  0  0  0  0  0  0  0  0
   -7.2471   10.6293  -10.6255 C   0  0  0  0  0  0  0  0  0  0  0  0
   -7.6099    9.7738   -9.5366 C   0  0  0  0  0  0  0  0  0  0  0  0
   -8.2971    8.7499   -9.9997 N   0  0  0  0  0  0  0  0  0  0  0  0
   -8.4324    8.8805  -11.3156 N   0  0  0  0  0  0  0  0  0  0  0  0
   -7.3321    9.9039   -8.0386 C   0  0  0  0  0  0  0  0  0  0  0  0
   -4.4077   13.6374  -11.5161 N   0  0  0  0  0  0  0  0  0  0  0  0
   -3.4400   14.7362  -11.5603 C   0  0  0  0  0  0  0  0  0  0  0  0
   -5.5080   13.5935  -12.2349 C   0  0  0  0  0  0  0  0  0  0  0  0
   -5.8585   14.4899  -13.0509 O   0  0  0  0  0  0  0  0  0  0  0  0
   -5.9274   10.4444   -7.6346 C   0  0  0  0  0  0  0  0  0  0  0  0
   -4.7880    9.9988   -8.5813 C   0  0  0  0  0  0  0  0  0  0  0  0
   -5.9224   11.9644   -7.3345 C   0  0  0  0  0  0  0  0  0  0  0  0
   -7.2692   12.9995  -11.9014 H   0  0  0  0  0  0  0  0  0  0  0  0
   -6.0160   12.2965   -9.9603 H   0  0  0  0  0  0  0  0  0  0  0  0
   -8.2205   10.1254  -13.9106 H   0  0  0  0  0  0  0  0  0  0  0  0
   -7.7059   12.5235  -13.5825 H   0  0  0  0  0  0  0  0  0  0  0  0
   -6.2193   11.5709  -13.9127 H   0  0  0  0  0  0  0  0  0  0  0  0
   -8.0714    9.6350   -7.2986 H   0  0  0  0  0  0  0  0  0  0  0  0
   -4.2197   12.8722  -10.9003 H   0  0  0  0  0  0  0  0  0  0  0  0
   -2.6137   14.5259  -10.8653 H   0  0  0  0  0  0  0  0  0  0  0  0
   -3.0438   14.8348  -12.5817 H   0  0  0  0  0  0  0  0  0  0  0  0
   -3.9359   15.6734  -11.2673 H   0  0  0  0  0  0  0  0  0  0  0  0
   -5.7040    9.9624   -6.6714 H   0  0  0  0  0  0  0  0  0  0  0  0
   -3.8338   10.4189   -8.2306 H   0  0  0  0  0  0  0  0  0  0  0  0
   -4.7249    8.9006   -8.5873 H   0  0  0  0  0  0  0  0  0  0  0  0
   -4.9952   10.3598   -9.5995 H   0  0  0  0  0  0  0  0  0  0  0  0
   -4.9060   12.2805   -7.0569 H   0  0  0  0  0  0  0  0  0  0  0  0
   -6.2462   12.5158   -8.2296 H   0  0  0  0  0  0  0  0  0  0  0  0
   -6.6118   12.1763   -6.5040 H   0  0  0  0  0  0  0  0  0  0  0  0
  1  2  1  0  0  0  0
  1  4  1  0  0  0  0
  1 13  1  0  0  0  0
  2  6  2  0  0  0  0
  3  4  1  0  0  0  0
  3  5  2  0  0  0  0
  5  6  1  0  0  0  0
  5  9  1  0  0  0  0
  6  7  1  0  0  0  0
  7  8  1  0  0  0  0
  7 10  2  3  0  0  0
  8  9  2  0  0  0  0
 10 15  1  0  0  0  0
 11 12  1  0  0  0  0
 11 13  1  0  0  0  0
 13 14  2  0  0  0  0
 15 16  1  0  0  0  0
 15 17  1  0  0  0  0
  1 18  1  0  0  0  0
  2 19  1  0  0  0  0
  3 20  1  0  0  0  0
  4 21  1  0  0  0  0
  4 22  1  0  0  0  0
 10 23  1  0  0  0  0
 11 24  1  0  0  0  0
 12 25  1  0  0  0  0
 12 26  1  0  0  0  0
 12 27  1  0  0  0  0
 15 28  1  0  0  0  0
 16 29  1  0  0  0  0
 16 30  1  0  0  0  0
 16 31  1  0  0  0  0
 17 32  1  0  0  0  0
 17 33  1  0  0  0  0
 17 34  1  0  0  0  0
M  END
> <Name>
14

> <IC50[uM]>
0.84

$$$$
14
  -OEChem-05192314333D
 Structure written by MMmdl.
 34 35  0     1  0  0  0  0  0999 V2000
   -6.3887   12.3647  -12.0798 C   0  0  0  0  0  0  0  0  0  0  0  0
   -6.4962   11.8202  -10.8023 C   0  0  0  0  0  0  0  0  0  0  0  0
   -7.7456   10.5858  -13.0568 C   0  0  0  0  0  0  0  0  0  0  0  0
   -7.0126   11.7716  -13.1776 C   0  0  0  0  0  0  0  0  0  0  0  0
   -7.8340   10.0285  -11.7877 C   0  0  0  0  0  0  0  0  0  0  0  0
   -7.2471   10.6293  -10.6255 C   0  0  3  0  0  0  0  0  0  0  0  0
   -7.6099    9.7738   -9.5366 C   0  0  0  0  0  0  0  0  0  0  0  0
   -8.2971    8.7499   -9.9997 N   0  0  0  0  0  0  0  0  0  0  0  0
   -8.4324    8.8805  -11.3156 N   0  0  0  0  0  0  0  0  0  0  0  0
   -7.3321    9.9039   -8.0386 C   0  0  0  0  0  0  0  0  0  0  0  0
   -4.4077   13.6374  -11.5161 N   0  0  0  0  0  0  0  0  0  0  0  0
   -3.4400   14.7362  -11.5603 C   0  0  0  0  0  0  0  0  0  0  0  0
   -5.5080   13.5935  -12.2349 C   0  0  0  0  0  0  0  0  0  0  0  0
   -5.8585   14.4899  -13.0509 O   0  0  0  0  0  0  0  0  0  0  0  0
   -5.9274   10.4444   -7.6346 C   0  0  0  0  0  0  0  0  0  0  0  0
   -4.7880    9.9988   -8.5813 C   0  0  0  0  0  0  0  0  0  0  0  0
   -5.9224   11.9644   -7.3345 C   0  0  0  0  0  0  0  0  0  0  0  0
   -6.0160   12.2965   -9.9603 H   0  0  0  0  0  0  0  0  0  0  0  0
   -8.2205   10.1254  -13.9106 H   0  0  0  0  0  0  0  0  0  0  0  0
   -7.7059   12.5235  -13.5825 H   0  0  0  0  0  0  0  0  0  0  0  0
   -6.2193   11.5709  -13.9127 H   0  0  0  0  0  0  0  0  0  0  0  0
   -8.1592   11.2235  -10.4675 H   0  0  0  0  0  0  0  0  0  0  0  0
   -8.0714    9.6350   -7.2986 H   0  0  0  0  0  0  0  0  0  0  0  0
   -4.2197   12.8722  -10.9003 H   0  0  0  0  0  0  0  0  0  0  0  0
   -2.6137   14.5259  -10.8653 H   0  0  0  0  0  0  0  0  0  0  0  0
   -3.0438   14.8348  -12.5817 H   0  0  0  0  0  0  0  0  0  0  0  0
   -3.9359   15.6734  -11.2673 H   0  0  0  0  0  0  0  0  0  0  0  0
   -5.7040    9.9624   -6.6714 H   0  0  0  0  0  0  0  0  0  0  0  0
   -3.8338   10.4189   -8.2306 H   0  0  0  0  0  0  0  0  0  0  0  0
   -4.7249    8.9006   -8.5873 H   0  0  0  0  0  0  0  0  0  0  0  0
   -4.9952   10.3598   -9.5995 H   0  0  0  0  0  0  0  0  0  0  0  0
   -4.9060   12.2805   -7.0569 H   0  0  0  0  0  0  0  0  0  0  0  0
   -6.2462   12.5158   -8.2296 H   0  0  0  0  0  0  0  0  0  0  0  0
   -6.6118   12.1763   -6.5040 H   0  0  0  0  0  0  0  0  0  0  0  0
  1  2  2  0  0  0  0
  1  4  1  0  0  0  0
  1 13  1  0  0  0  0
  2  6  1  0  0  0  0
  3  4  1  0  0  0  0
  3  5  2  0  0  0  0
  5  6  1  0  0  0  0
  5  9  1  0  0  0  0
  6  7  1  0  0  0  0
  7  8  1  0  0  0  0
  7 10  2  3  0  0  0
  8  9  2  0  0  0  0
 10 15  1  0  0  0  0
 11 12  1  0  0  0  0
 11 13  1  0  0  0  0
 13 14  2  0  0  0  0
 15 16  1  0  0  0  0
 15 17  1  0  0  0  0
  2 18  1  0  0  0  0
  3 19  1  0  0  0  0
  4 20  1  0  0  0  0
  4 21  1  0  0  0  0
  6 22  1  0  0  0  0
 10 23  1  0  0  0  0
 11 24  1  0  0  0  0
 12 25  1  0  0  0  0
 12 26  1  0  0  0  0
 12 27  1  0  0  0  0
 15 28  1  0  0  0  0
 16 29  1  0  0  0  0
 16 30  1  0  0  0  0
 16 31  1  0  0  0  0
 17 32  1  0  0  0  0
 17 33  1  0  0  0  0
 17 34  1  0  0  0  0
M  END
> <Name>
14

> <IC50[uM]>
0.84

$$$$
14
  -OEChem-05192314333D
 Structure written by MMmdl.
 34 35  0     0  0  0  0  0  0999 V2000
   -6.3887   12.3647  -12.0798 C   0  0  0  0  0  0  0  0  0  0  0  0
   -6.4962   11.8202  -10.8023 C   0  0  0  0  0  0  0  0  0  0  0  0
   -7.7456   10.5858  -13.0568 C   0  0  0  0  0  0  0  0  0  0  0  0
   -7.0126   11.7716  -13.1776 C   0  0  0  0  0  0  0  0  0  0  0  0
   -7.8340   10.0285  -11.7877 C   0  0  0  0  0  0  0  0  0  0  0  0
   -7.2471   10.6293  -10.6255 C   0  0  0  0  0  0  0  0  0  0  0  0
   -7.6099    9.7738   -9.5366 C   0  0  0  0  0  0  0  0  0  0  0  0
   -8.2971    8.7499   -9.9997 N   0  0  0  0  0  0  0  0  0  0  0  0
   -8.4324    8.8805  -11.3156 N   0  0  0  0  0  0  0  0  0  0  0  0
   -7.3321    9.9039   -8.0386 C   0  0  0  0  0  0  0  0  0  0  0  0
   -4.4077   13.6374  -11.5161 N   0  0  0  0  0  0  0  0  0  0  0  0
   -3.4400   14.7362  -11.5603 C   0  0  0  0  0  0  0  0  0  0  0  0
   -5.5080   13.5935  -12.2349 C   0  0  0  0  0  0  0  0  0  0  0  0
   -5.8585   14.4899  -13.0509 O   0  0  0  0  0  0  0  0  0  0  0  0
   -5.9274   10.4444   -7.6346 C   0  0  0  0  0  0  0  0  0  0  0  0
   -4.7880    9.9988   -8.5813 C   0  0  0  0  0  0  0  0  0  0  0  0
   -5.9224   11.9644   -7.3345 C   0  0  0  0  0  0  0  0  0  0  0  0
   -6.0160   12.2965   -9.9603 H   0  0  0  0  0  0  0  0  0  0  0  0
   -8.2205   10.1254  -13.9106 H   0  0  0  0  0  0  0  0  0  0  0  0
   -7.7059   12.5235  -13.5825 H   0  0  0  0  0  0  0  0  0  0  0  0
   -6.2193   11.5709  -13.9127 H   0  0  0  0  0  0  0  0  0  0  0  0
   -8.0859   10.5853   -7.6172 H   0  0  0  0  0  0  0  0  0  0  0  0
   -7.4478    8.9063   -7.5897 H   0  0  0  0  0  0  0  0  0  0  0  0
   -4.2197   12.8722  -10.9003 H   0  0  0  0  0  0  0  0  0  0  0  0
   -2.6137   14.5259  -10.8653 H   0  0  0  0  0  0  0  0  0  0  0  0
   -3.0438   14.8348  -12.5817 H   0  0  0  0  0  0  0  0  0  0  0  0
   -3.9359   15.6734  -11.2673 H   0  0  0  0  0  0  0  0  0  0  0  0
   -5.7040    9.9624   -6.6714 H   0  0  0  0  0  0  0  0  0  0  0  0
   -3.8338   10.4189   -8.2306 H   0  0  0  0  0  0  0  0  0  0  0  0
   -4.7249    8.9006   -8.5873 H   0  0  0  0  0  0  0  0  0  0  0  0
   -4.9952   10.3598   -9.5995 H   0  0  0  0  0  0  0  0  0  0  0  0
   -4.9060   12.2805   -7.0569 H   0  0  0  0  0  0  0  0  0  0  0  0
   -6.2462   12.5158   -8.2296 H   0  0  0  0  0  0  0  0  0  0  0  0
   -6.6118   12.1763   -6.5040 H   0  0  0  0  0  0  0  0  0  0  0  0
  1  2  2  0  0  0  0
  1  4  1  0  0  0  0
  1 13  1  0  0  0  0
  2  6  1  0  0  0  0
  3  4  1  0  0  0  0
  3  5  2  0  0  0  0
  5  6  1  0  0  0  0
  5  9  1  0  0  0  0
  6  7  2  0  0  0  0
  7  8  1  0  0  0  0
  7 10  1  0  0  0  0
  8  9  2  0  0  0  0
 10 15  1  0  0  0  0
 11 12  1  0  0  0  0
 11 13  1  0  0  0  0
 13 14  2  0  0  0  0
 15 16  1  0  0  0  0
 15 17  1  0  0  0  0
  2 18  1  0  0  0  0
  3 19  1  0  0  0  0
  4 20  1  0  0  0  0
  4 21  1  0  0  0  0
 10 22  1  0  0  0  0
 10 23  1  0  0  0  0
 11 24  1  0  0  0  0
 12 25  1  0  0  0  0
 12 26  1  0  0  0  0
 12 27  1  0  0  0  0
 15 28  1  0  0  0  0
 16 29  1  0  0  0  0
 16 30  1  0  0  0  0
 16 31  1  0  0  0  0
 17 32  1  0  0  0  0
 17 33  1  0  0  0  0
 17 34  1  0  0  0  0
M  END
> <Name>
14

> <IC50[uM]>
0.84

$$$$
14
  -OEChem-05192314333D
 Structure written by MMmdl.
 34 35  0     0  0  0  0  0  0999 V2000
   -6.3887   12.3647  -12.0798 C   0  0  0  0  0  0  0  0  0  0  0  0
   -6.4962   11.8202  -10.8023 C   0  0  0  0  0  0  0  0  0  0  0  0
   -7.7456   10.5858  -13.0568 C   0  0  0  0  0  0  0  0  0  0  0  0
   -7.0126   11.7716  -13.1776 C   0  0  0  0  0  0  0  0  0  0  0  0
   -7.8340   10.0285  -11.7877 C   0  0  0  0  0  0  0  0  0  0  0  0
   -7.2471   10.6293  -10.6255 C   0  0  0  0  0  0  0  0  0  0  0  0
   -7.6099    9.7738   -9.5366 C   0  0  0  0  0  0  0  0  0  0  0  0
   -8.2971    8.7499   -9.9997 N   0  0  0  0  0  0  0  0  0  0  0  0
   -8.4324    8.8805  -11.3156 N   0  0  0  0  0  0  0  0  0  0  0  0
   -7.3321    9.9039   -8.0386 C   0  0  0  0  0  0  0  0  0  0  0  0
   -4.4077   13.6374  -11.5161 N   0  0  0  0  0  0  0  0  0  0  0  0
   -3.4400   14.7362  -11.5603 C   0  0  0  0  0  0  0  0  0  0  0  0
   -5.5080   13.5935  -12.2349 C   0  0  0  0  0  0  0  0  0  0  0  0
   -5.8585   14.4899  -13.0509 O   0  0  0  0  0  0  0  0  0  0  0  0
   -5.9274   10.4444   -7.6346 C   0  0  0  0  0  0  0  0  0  0  0  0
   -4.7880    9.9988   -8.5813 C   0  0  0  0  0  0  0  0  0  0  0  0
   -5.9224   11.9644   -7.3345 C   0  0  0  0  0  0  0  0  0  0  0  0
   -6.0160   12.2965   -9.9603 H   0  0  0  0  0  0  0  0  0  0  0  0
   -8.7697   10.7916  -13.4015 H   0  0  0  0  0  0  0  0  0  0  0  0
   -7.2799    9.8386  -13.7162 H   0  0  0  0  0  0  0  0  0  0  0  0
   -7.7059   12.5235  -13.5825 H   0  0  0  0  0  0  0  0  0  0  0  0
   -6.2193   11.5709  -13.9127 H   0  0  0  0  0  0  0  0  0  0  0  0
   -8.0714    9.6350   -7.2986 H   0  0  0  0  0  0  0  0  0  0  0  0
   -4.2197   12.8722  -10.9003 H   0  0  0  0  0  0  0  0  0  0  0  0
   -2.6137   14.5259  -10.8653 H   0  0  0  0  0  0  0  0  0  0  0  0
   -3.0438   14.8348  -12.5817 H   0  0  0  0  0  0  0  0  0  0  0  0
   -3.9359   15.6734  -11.2673 H   0  0  0  0  0  0  0  0  0  0  0  0
   -5.7040    9.9624   -6.6714 H   0  0  0  0  0  0  0  0  0  0  0  0
   -3.8338   10.4189   -8.2306 H   0  0  0  0  0  0  0  0  0  0  0  0
   -4.7249    8.9006   -8.5873 H   0  0  0  0  0  0  0  0  0  0  0  0
   -4.9952   10.3598   -9.5995 H   0  0  0  0  0  0  0  0  0  0  0  0
   -4.9060   12.2805   -7.0569 H   0  0  0  0  0  0  0  0  0  0  0  0
   -6.2462   12.5158   -8.2296 H   0  0  0  0  0  0  0  0  0  0  0  0
   -6.6118   12.1763   -6.5040 H   0  0  0  0  0  0  0  0  0  0  0  0
  1  2  2  0  0  0  0
  1  4  1  0  0  0  0
  1 13  1  0  0  0  0
  2  6  1  0  0  0  0
  3  4  1  0  0  0  0
  3  5  1  0  0  0  0
  5  6  2  0  0  0  0
  5  9  1  0  0  0  0
  6  7  1  0  0  0  0
  7  8  1  0  0  0  0
  7 10  2  3  0  0  0
  8  9  2  0  0  0  0
 10 15  1  0  0  0  0
 11 12  1  0  0  0  0
 11 13  1  0  0  0  0
 13 14  2  0  0  0  0
 15 16  1  0  0  0  0
 15 17  1  0  0  0  0
  2 18  1  0  0  0  0
  3 19  1  0  0  0  0
  3 20  1  0  0  0  0
  4 21  1  0  0  0  0
  4 22  1  0  0  0  0
 10 23  1  0  0  0  0
 11 24  1  0  0  0  0
 12 25  1  0  0  0  0
 12 26  1  0  0  0  0
 12 27  1  0  0  0  0
 15 28  1  0  0  0  0
 16 29  1  0  0  0  0
 16 30  1  0  0  0  0
 16 31  1  0  0  0  0
 17 32  1  0  0  0  0
 17 33  1  0  0  0  0
 17 34  1  0  0  0  0
M  END
> <Name>
14

> <IC50[uM]>
0.84

$$$$
14
  -OEChem-05192314333D
 Structure written by MMmdl.
 34 35  0     1  0  0  0  0  0999 V2000
   -6.3887   12.3647  -12.0798 C   0  0  3  0  0  0  0  0  0  0  0  0
   -6.4962   11.8202  -10.8023 C   0  0  0  0  0  0  0  0  0  0  0  0
   -7.7456   10.5858  -13.0568 C   0  0  0  0  0  0  0  0  0  0  0  0
   -7.0126   11.7716  -13.1776 C   0  0  0  0  0  0  0  0  0  0  0  0
   -7.8340   10.0285  -11.7877 C   0  0  0  0  0  0  0  0  0  0  0  0
   -7.2471   10.6293  -10.6255 C   0  0  0  0  0  0  0  0  0  0  0  0
   -7.6099    9.7738   -9.5366 C   0  0  0  0  0  0  0  0  0  0  0  0
   -8.2971    8.7499   -9.9997 N   0  0  0  0  0  0  0  0  0  0  0  0
   -8.4324    8.8805  -11.3156 N   0  0  0  0  0  0  0  0  0  0  0  0
   -7.3321    9.9039   -8.0386 C   0  0  0  0  0  0  0  0  0  0  0  0
   -4.4077   13.6374  -11.5161 N   0  0  0  0  0  0  0  0  0  0  0  0
   -3.4400   14.7362  -11.5603 C   0  0  0  0  0  0  0  0  0  0  0  0
   -5.5080   13.5935  -12.2349 C   0  0  0  0  0  0  0  0  0  0  0  0
   -5.8585   14.4899  -13.0509 O   0  0  0  0  0  0  0  0  0  0  0  0
   -5.9274   10.4444   -7.6346 C   0  0  0  0  0  0  0  0  0  0  0  0
   -4.7880    9.9988   -8.5813 C   0  0  0  0  0  0  0  0  0  0  0  0
   -5.9224   11.9644   -7.3345 C   0  0  0  0  0  0  0  0  0  0  0  0
   -7.2692   12.9995  -11.9014 H   0  0  0  0  0  0  0  0  0  0  0  0
   -5.4741   11.6122  -10.4530 H   0  0  0  0  0  0  0  0  0  0  0  0
   -6.9536   12.5884  -10.1614 H   0  0  0  0  0  0  0  0  0  0  0  0
   -8.2205   10.1254  -13.9106 H   0  0  0  0  0  0  0  0  0  0  0  0
   -6.9276   12.2403  -14.1469 H   0  0  0  0  0  0  0  0  0  0  0  0
   -8.0714    9.6350   -7.2986 H   0  0  0  0  0  0  0  0  0  0  0  0
   -4.2197   12.8722  -10.9003 H   0  0  0  0  0  0  0  0  0  0  0  0
   -2.6137   14.5259  -10.8653 H   0  0  0  0  0  0  0  0  0  0  0  0
   -3.0438   14.8348  -12.5817 H   0  0  0  0  0  0  0  0  0  0  0  0
   -3.9359   15.6734  -11.2673 H   0  0  0  0  0  0  0  0  0  0  0  0
   -5.7040    9.9624   -6.6714 H   0  0  0  0  0  0  0  0  0  0  0  0
   -3.8338   10.4189   -8.2306 H   0  0  0  0  0  0  0  0  0  0  0  0
   -4.7249    8.9006   -8.5873 H   0  0  0  0  0  0  0  0  0  0  0  0
   -4.9952   10.3598   -9.5995 H   0  0  0  0  0  0  0  0  0  0  0  0
   -4.9060   12.2805   -7.0569 H   0  0  0  0  0  0  0  0  0  0  0  0
   -6.2462   12.5158   -8.2296 H   0  0  0  0  0  0  0  0  0  0  0  0
   -6.6118   12.1763   -6.5040 H   0  0  0  0  0  0  0  0  0  0  0  0
  1  2  1  0  0  0  0
  1  4  1  0  0  0  0
  1 13  1  0  0  0  0
  2  6  1  0  0  0  0
  3  4  2  0  0  0  0
  3  5  1  0  0  0  0
  5  6  2  0  0  0  0
  5  9  1  0  0  0  0
  6  7  1  0  0  0  0
  7  8  1  0  0  0  0
  7 10  2  3  0  0  0
  8  9  2  0  0  0  0
 10 15  1  0  0  0  0
 11 12  1  0  0  0  0
 11 13  1  0  0  0  0
 13 14  2  0  0  0  0
 15 16  1  0  0  0  0
 15 17  1  0  0  0  0
  1 18  1  0  0  0  0
  2 19  1  0  0  0  0
  2 20  1  0  0  0  0
  3 21  1  0  0  0  0
  4 22  1  0  0  0  0
 10 23  1  0  0  0  0
 11 24  1  0  0  0  0
 12 25  1  0  0  0  0
 12 26  1  0  0  0  0
 12 27  1  0  0  0  0
 15 28  1  0  0  0  0
 16 29  1  0  0  0  0
 16 30  1  0  0  0  0
 16 31  1  0  0  0  0
 17 32  1  0  0  0  0
 17 33  1  0  0  0  0
 17 34  1  0  0  0  0
M  END
> <Name>
14

> <IC50[uM]>
0.84

$$$$
14
  -OEChem-05192314333D
 Structure written by MMmdl.
 34 35  0     1  0  0  0  0  0999 V2000
   -6.3887   12.3647  -12.0798 C   0  0  0  0  0  0  0  0  0  0  0  0
   -6.4962   11.8202  -10.8023 C   0  0  0  0  0  0  0  0  0  0  0  0
   -7.7456   10.5858  -13.0568 C   0  0  0  0  0  0  0  0  0  0  0  0
   -7.0126   11.7716  -13.1776 C   0  0  0  0  0  0  0  0  0  0  0  0
   -7.8340   10.0285  -11.7877 C   0  0  0  0  0  0  0  0  0  0  0  0
   -7.2471   10.6293  -10.6255 C   0  0  3  0  0  0  0  0  0  0  0  0
   -7.6099    9.7738   -9.5366 C   0  0  0  0  0  0  0  0  0  0  0  0
   -8.2971    8.7499   -9.9997 N   0  0  0  0  0  0  0  0  0  0  0  0
   -8.4324    8.8805  -11.3156 N   0  0  0  0  0  0  0  0  0  0  0  0
   -7.3321    9.9039   -8.0386 C   0  0  0  0  0  0  0  0  0  0  0  0
   -4.4077   13.6374  -11.5161 N   0  0  0  0  0  0  0  0  0  0  0  0
   -3.4400   14.7362  -11.5603 C   0  0  0  0  0  0  0  0  0  0  0  0
   -5.5080   13.5935  -12.2349 C   0  0  0  0  0  0  0  0  0  0  0  0
   -5.8585   14.4899  -13.0509 O   0  0  0  0  0  0  0  0  0  0  0  0
   -5.9274   10.4444   -7.6346 C   0  0  0  0  0  0  0  0  0  0  0  0
   -4.7880    9.9988   -8.5813 C   0  0  0  0  0  0  0  0  0  0  0  0
   -5.9224   11.9644   -7.3345 C   0  0  0  0  0  0  0  0  0  0  0  0
   -5.4741   11.6122  -10.4530 H   0  0  0  0  0  0  0  0  0  0  0  0
   -6.9536   12.5884  -10.1614 H   0  0  0  0  0  0  0  0  0  0  0  0
   -8.2205   10.1254  -13.9106 H   0  0  0  0  0  0  0  0  0  0  0  0
   -6.9276   12.2403  -14.1469 H   0  0  0  0  0  0  0  0  0  0  0  0
   -8.1592   11.2235  -10.4675 H   0  0  0  0  0  0  0  0  0  0  0  0
   -8.0714    9.6350   -7.2986 H   0  0  0  0  0  0  0  0  0  0  0  0
   -4.2197   12.8722  -10.9003 H   0  0  0  0  0  0  0  0  0  0  0  0
   -2.6137   14.5259  -10.8653 H   0  0  0  0  0  0  0  0  0  0  0  0
   -3.0438   14.8348  -12.5817 H   0  0  0  0  0  0  0  0  0  0  0  0
   -3.9359   15.6734  -11.2673 H   0  0  0  0  0  0  0  0  0  0  0  0
   -5.7040    9.9624   -6.6714 H   0  0  0  0  0  0  0  0  0  0  0  0
   -3.8338   10.4189   -8.2306 H   0  0  0  0  0  0  0  0  0  0  0  0
   -4.7249    8.9006   -8.5873 H   0  0  0  0  0  0  0  0  0  0  0  0
   -4.9952   10.3598   -9.5995 H   0  0  0  0  0  0  0  0  0  0  0  0
   -4.9060   12.2805   -7.0569 H   0  0  0  0  0  0  0  0  0  0  0  0
   -6.2462   12.5158   -8.2296 H   0  0  0  0  0  0  0  0  0  0  0  0
   -6.6118   12.1763   -6.5040 H   0  0  0  0  0  0  0  0  0  0  0  0
  1  2  1  0  0  0  0
  1  4  2  0  0  0  0
  1 13  1  0  0  0  0
  2  6  1  0  0  0  0
  3  4  1  0  0  0  0
  3  5  2  0  0  0  0
  5  6  1  0  0  0  0
  5  9  1  0  0  0  0
  6  7  1  0  0  0  0
  7  8  1  0  0  0  0
  7 10  2  3  0  0  0
  8  9  2  0  0  0  0
 10 15  1  0  0  0  0
 11 12  1  0  0  0  0
 11 13  1  0  0  0  0
 13 14  2  0  0  0  0
 15 16  1  0  0  0  0
 15 17  1  0  0  0  0
  2 18  1  0  0  0  0
  2 19  1  0  0  0  0
  3 20  1  0  0  0  0
  4 21  1  0  0  0  0
  6 22  1  0  0  0  0
 10 23  1  0  0  0  0
 11 24  1  0  0  0  0
 12 25  1  0  0  0  0
 12 26  1  0  0  0  0
 12 27  1  0  0  0  0
 15 28  1  0  0  0  0
 16 29  1  0  0  0  0
 16 30  1  0  0  0  0
 16 31  1  0  0  0  0
 17 32  1  0  0  0  0
 17 33  1  0  0  0  0
 17 34  1  0  0  0  0
M  END
> <Name>
14

> <IC50[uM]>
0.84

$$$$
14
  -OEChem-05192314333D
 Structure written by MMmdl.
 34 35  0     0  0  0  0  0  0999 V2000
   -6.3887   12.3647  -12.0798 C   0  0  0  0  0  0  0  0  0  0  0  0
   -6.4962   11.8202  -10.8023 C   0  0  0  0  0  0  0  0  0  0  0  0
   -7.7456   10.5858  -13.0568 C   0  0  0  0  0  0  0  0  0  0  0  0
   -7.0126   11.7716  -13.1776 C   0  0  0  0  0  0  0  0  0  0  0  0
   -7.8340   10.0285  -11.7877 C   0  0  0  0  0  0  0  0  0  0  0  0
   -7.2471   10.6293  -10.6255 C   0  0  0  0  0  0  0  0  0  0  0  0
   -7.6099    9.7738   -9.5366 C   0  0  0  0  0  0  0  0  0  0  0  0
   -8.2971    8.7499   -9.9997 N   0  0  0  0  0  0  0  0  0  0  0  0
   -8.4324    8.8805  -11.3156 N   0  0  0  0  0  0  0  0  0  0  0  0
   -7.3321    9.9039   -8.0386 C   0  0  0  0  0  0  0  0  0  0  0  0
   -4.4077   13.6374  -11.5161 N   0  0  0  0  0  0  0  0  0  0  0  0
   -3.4400   14.7362  -11.5603 C   0  0  0  0  0  0  0  0  0  0  0  0
   -5.5080   13.5935  -12.2349 C   0  0  0  0  0  0  0  0  0  0  0  0
   -5.8585   14.4899  -13.0509 O   0  0  0  0  0  0  0  0  0  0  0  0
   -5.9274   10.4444   -7.6346 C   0  0  0  0  0  0  0  0  0  0  0  0
   -4.7880    9.9988   -8.5813 C   0  0  0  0  0  0  0  0  0  0  0  0
   -5.9224   11.9644   -7.3345 C   0  0  0  0  0  0  0  0  0  0  0  0
   -5.4741   11.6122  -10.4530 H   0  0  0  0  0  0  0  0  0  0  0  0
   -6.9536   12.5884  -10.1614 H   0  0  0  0  0  0  0  0  0  0  0  0
   -8.2205   10.1254  -13.9106 H   0  0  0  0  0  0  0  0  0  0  0  0
   -6.9276   12.2403  -14.1469 H   0  0  0  0  0  0  0  0  0  0  0  0
   -8.0859   10.5853   -7.6172 H   0  0  0  0  0  0  0  0  0  0  0  0
   -7.4478    8.9063   -7.5897 H   0  0  0  0  0  0  0  0  0  0  0  0
   -4.2197   12.8722  -10.9003 H   0  0  0  0  0  0  0  0  0  0  0  0
   -2.6137   14.5259  -10.8653 H   0  0  0  0  0  0  0  0  0  0  0  0
   -3.0438   14.8348  -12.5817 H   0  0  0  0  0  0  0  0  0  0  0  0
   -3.9359   15.6734  -11.2673 H   0  0  0  0  0  0  0  0  0  0  0  0
   -5.7040    9.9624   -6.6714 H   0  0  0  0  0  0  0  0  0  0  0  0
   -3.8338   10.4189   -8.2306 H   0  0  0  0  0  0  0  0  0  0  0  0
   -4.7249    8.9006   -8.5873 H   0  0  0  0  0  0  0  0  0  0  0  0
   -4.9952   10.3598   -9.5995 H   0  0  0  0  0  0  0  0  0  0  0  0
   -4.9060   12.2805   -7.0569 H   0  0  0  0  0  0  0  0  0  0  0  0
   -6.2462   12.5158   -8.2296 H   0  0  0  0  0  0  0  0  0  0  0  0
   -6.6118   12.1763   -6.5040 H   0  0  0  0  0  0  0  0  0  0  0  0
  1  2  1  0  0  0  0
  1  4  2  0  0  0  0
  1 13  1  0  0  0  0
  2  6  1  0  0  0  0
  3  4  1  0  0  0  0
  3  5  2  0  0  0  0
  5  6  1  0  0  0  0
  5  9  1  0  0  0  0
  6  7  2  0  0  0  0
  7  8  1  0  0  0  0
  7 10  1  0  0  0  0
  8  9  2  0  0  0  0
 10 15  1  0  0  0  0
 11 12  1  0  0  0  0
 11 13  1  0  0  0  0
 13 14  2  0  0  0  0
 15 16  1  0  0  0  0
 15 17  1  0  0  0  0
  2 18  1  0  0  0  0
  2 19  1  0  0  0  0
  3 20  1  0  0  0  0
  4 21  1  0  0  0  0
 10 22  1  0  0  0  0
 10 23  1  0  0  0  0
 11 24  1  0  0  0  0
 12 25  1  0  0  0  0
 12 26  1  0  0  0  0
 12 27  1  0  0  0  0
 15 28  1  0  0  0  0
 16 29  1  0  0  0  0
 16 30  1  0  0  0  0
 16 31  1  0  0  0  0
 17 32  1  0  0  0  0
 17 33  1  0  0  0  0
 17 34  1  0  0  0  0
M  END
> <Name>
14

> <IC50[uM]>
0.84

$$$$
14
  -OEChem-05192314333D
 Structure written by MMmdl.
 34 35  0     0  0  0  0  0  0999 V2000
   -6.3887   12.3647  -12.0798 C   0  0  0  0  0  0  0  0  0  0  0  0
   -6.4962   11.8202  -10.8023 C   0  0  0  0  0  0  0  0  0  0  0  0
   -7.7456   10.5858  -13.0568 C   0  0  0  0  0  0  0  0  0  0  0  0
   -7.0126   11.7716  -13.1776 C   0  0  0  0  0  0  0  0  0  0  0  0
   -7.8340   10.0285  -11.7877 C   0  0  0  0  0  0  0  0  0  0  0  0
   -7.2471   10.6293  -10.6255 C   0  0  0  0  0  0  0  0  0  0  0  0
   -7.6099    9.7738   -9.5366 C   0  0  0  0  0  0  0  0  0  0  0  0
   -8.2971    8.7499   -9.9997 N   0  0  0  0  0  0  0  0  0  0  0  0
   -8.4324    8.8805  -11.3156 N   0  0  0  0  0  0  0  0  0  0  0  0
   -7.3321    9.9039   -8.0386 C   0  0  0  0  0  0  0  0  0  0  0  0
   -4.4077   13.6374  -11.5161 N   0  0  0  0  0  0  0  0  0  0  0  0
   -3.4400   14.7362  -11.5603 C   0  0  0  0  0  0  0  0  0  0  0  0
   -5.5080   13.5935  -12.2349 C   0  0  0  0  0  0  0  0  0  0  0  0
   -5.8585   14.4899  -13.0509 O   0  0  0  0  0  0  0  0  0  0  0  0
   -5.9274   10.4444   -7.6346 C   0  0  0  0  0  0  0  0  0  0  0  0
   -4.7880    9.9988   -8.5813 C   0  0  0  0  0  0  0  0  0  0  0  0
   -5.9224   11.9644   -7.3345 C   0  0  0  0  0  0  0  0  0  0  0  0
   -5.4741   11.6122  -10.4530 H   0  0  0  0  0  0  0  0  0  0  0  0
   -6.9536   12.5884  -10.1614 H   0  0  0  0  0  0  0  0  0  0  0  0
   -8.7697   10.7916  -13.4015 H   0  0  0  0  0  0  0  0  0  0  0  0
   -7.2799    9.8386  -13.7162 H   0  0  0  0  0  0  0  0  0  0  0  0
   -6.9276   12.2403  -14.1469 H   0  0  0  0  0  0  0  0  0  0  0  0
   -8.0714    9.6350   -7.2986 H   0  0  0  0  0  0  0  0  0  0  0  0
   -4.2197   12.8722  -10.9003 H   0  0  0  0  0  0  0  0  0  0  0  0
   -2.6137   14.5259  -10.8653 H   0  0  0  0  0  0  0  0  0  0  0  0
   -3.0438   14.8348  -12.5817 H   0  0  0  0  0  0  0  0  0  0  0  0
   -3.9359   15.6734  -11.2673 H   0  0  0  0  0  0  0  0  0  0  0  0
   -5.7040    9.9624   -6.6714 H   0  0  0  0  0  0  0  0  0  0  0  0
   -3.8338   10.4189   -8.2306 H   0  0  0  0  0  0  0  0  0  0  0  0
   -4.7249    8.9006   -8.5873 H   0  0  0  0  0  0  0  0  0  0  0  0
   -4.9952   10.3598   -9.5995 H   0  0  0  0  0  0  0  0  0  0  0  0
   -4.9060   12.2805   -7.0569 H   0  0  0  0  0  0  0  0  0  0  0  0
   -6.2462   12.5158   -8.2296 H   0  0  0  0  0  0  0  0  0  0  0  0
   -6.6118   12.1763   -6.5040 H   0  0  0  0  0  0  0  0  0  0  0  0
  1  2  1  0  0  0  0
  1  4  2  0  0  0  0
  1 13  1  0  0  0  0
  2  6  1  0  0  0  0
  3  4  1  0  0  0  0
  3  5  1  0  0  0  0
  5  6  2  0  0  0  0
  5  9  1  0  0  0  0
  6  7  1  0  0  0  0
  7  8  1  0  0  0  0
  7 10  2  3  0  0  0
  8  9  2  0  0  0  0
 10 15  1  0  0  0  0
 11 12  1  0  0  0  0
 11 13  1  0  0  0  0
 13 14  2  0  0  0  0
 15 16  1  0  0  0  0
 15 17  1  0  0  0  0
  2 18  1  0  0  0  0
  2 19  1  0  0  0  0
  3 20  1  0  0  0  0
  3 21  1  0  0  0  0
  4 22  1  0  0  0  0
 10 23  1  0  0  0  0
 11 24  1  0  0  0  0
 12 25  1  0  0  0  0
 12 26  1  0  0  0  0
 12 27  1  0  0  0  0
 15 28  1  0  0  0  0
 16 29  1  0  0  0  0
 16 30  1  0  0  0  0
 16 31  1  0  0  0  0
 17 32  1  0  0  0  0
 17 33  1  0  0  0  0
 17 34  1  0  0  0  0
M  END
> <Name>
14

> <IC50[uM]>
0.84

$$$$
14
  -OEChem-05192314333D
 Structure written by MMmdl.
 34 35  0     1  0  0  0  0  0999 V2000
   -6.3887   12.3647  -12.0798 C   0  0  0  0  0  0  0  0  0  0  0  0
   -6.4962   11.8202  -10.8023 C   0  0  0  0  0  0  0  0  0  0  0  0
   -7.7456   10.5858  -13.0568 C   0  0  0  0  0  0  0  0  0  0  0  0
   -7.0126   11.7716  -13.1776 C   0  0  0  0  0  0  0  0  0  0  0  0
   -7.8340   10.0285  -11.7877 C   0  0  0  0  0  0  0  0  0  0  0  0
   -7.2471   10.6293  -10.6255 C   0  0  3  0  0  0  0  0  0  0  0  0
   -7.6099    9.7738   -9.5366 C   0  0  0  0  0  0  0  0  0  0  0  0
   -8.2971    8.7499   -9.9997 N   0  0  0  0  0  0  0  0  0  0  0  0
   -8.4324    8.8805  -11.3156 N   0  0  0  0  0  0  0  0  0  0  0  0
   -7.3321    9.9039   -8.0386 C   0  0  0  0  0  0  0  0  0  0  0  0
   -4.4077   13.6374  -11.5161 N   0  0  0  0  0  0  0  0  0  0  0  0
   -3.4400   14.7362  -11.5603 C   0  0  0  0  0  0  0  0  0  0  0  0
   -5.5080   13.5935  -12.2349 C   0  0  0  0  0  0  0  0  0  0  0  0
   -5.8585   14.4899  -13.0509 O   0  0  0  0  0  0  0  0  0  0  0  0
   -5.9274   10.4444   -7.6346 C   0  0  0  0  0  0  0  0  0  0  0  0
   -4.7880    9.9988   -8.5813 C   0  0  0  0  0  0  0  0  0  0  0  0
   -5.9224   11.9644   -7.3345 C   0  0  0  0  0  0  0  0  0  0  0  0
   -6.0160   12.2965   -9.9603 H   0  0  0  0  0  0  0  0  0  0  0  0
   -8.2205   10.1254  -13.9106 H   0  0  0  0  0  0  0  0  0  0  0  0
   -6.9276   12.2403  -14.1469 H   0  0  0  0  0  0  0  0  0  0  0  0
   -8.1592   11.2235  -10.4675 H   0  0  0  0  0  0  0  0  0  0  0  0
   -8.6584    7.9965   -9.4504 H   0  0  0  0  0  0  0  0  0  0  0  0
   -8.0714    9.6350   -7.2986 H   0  0  0  0  0  0  0  0  0  0  0  0
   -4.2197   12.8722  -10.9003 H   0  0  0  0  0  0  0  0  0  0  0  0
   -2.6137   14.5259  -10.8653 H   0  0  0  0  0  0  0  0  0  0  0  0
   -3.0438   14.8348  -12.5817 H   0  0  0  0  0  0  0  0  0  0  0  0
   -3.9359   15.6734  -11.2673 H   0  0  0  0  0  0  0  0  0  0  0  0
   -5.7040    9.9624   -6.6714 H   0  0  0  0  0  0  0  0  0  0  0  0
   -3.8338   10.4189   -8.2306 H   0  0  0  0  0  0  0  0  0  0  0  0
   -4.7249    8.9006   -8.5873 H   0  0  0  0  0  0  0  0  0  0  0  0
   -4.9952   10.3598   -9.5995 H   0  0  0  0  0  0  0  0  0  0  0  0
   -4.9060   12.2805   -7.0569 H   0  0  0  0  0  0  0  0  0  0  0  0
   -6.2462   12.5158   -8.2296 H   0  0  0  0  0  0  0  0  0  0  0  0
   -6.6118   12.1763   -6.5040 H   0  0  0  0  0  0  0  0  0  0  0  0
  1  2  2  0  0  0  0
  1  4  1  0  0  0  0
  1 13  1  0  0  0  0
  2  6  1  0  0  0  0
  3  4  2  0  0  0  0
  3  5  1  0  0  0  0
  5  6  1  0  0  0  0
  5  9  2  0  0  0  0
  6  7  1  0  0  0  0
  7  8  1  0  0  0  0
  7 10  2  3  0  0  0
  8  9  1  0  0  0  0
 10 15  1  0  0  0  0
 11 12  1  0  0  0  0
 11 13  1  0  0  0  0
 13 14  2  0  0  0  0
 15 16  1  0  0  0  0
 15 17  1  0  0  0  0
  2 18  1  0  0  0  0
  3 19  1  0  0  0  0
  4 20  1  0  0  0  0
  6 21  1  0  0  0  0
  8 22  1  0  0  0  0
 10 23  1  0  0  0  0
 11 24  1  0  0  0  0
 12 25  1  0  0  0  0
 12 26  1  0  0  0  0
 12 27  1  0  0  0  0
 15 28  1  0  0  0  0
 16 29  1  0  0  0  0
 16 30  1  0  0  0  0
 16 31  1  0  0  0  0
 17 32  1  0  0  0  0
 17 33  1  0  0  0  0
 17 34  1  0  0  0  0
M  END
> <Name>
14

> <IC50[uM]>
0.84

$$$$
14
  -OEChem-05192314333D
 Structure written by MMmdl.
 34 35  0     1  0  0  0  0  0999 V2000
   -6.3887   12.3647  -12.0798 C   0  0  3  0  0  0  0  0  0  0  0  0
   -6.4962   11.8202  -10.8023 C   0  0  0  0  0  0  0  0  0  0  0  0
   -7.7456   10.5858  -13.0568 C   0  0  0  0  0  0  0  0  0  0  0  0
   -7.0126   11.7716  -13.1776 C   0  0  0  0  0  0  0  0  0  0  0  0
   -7.8340   10.0285  -11.7877 C   0  0  3  0  0  0  0  0  0  0  0  0
   -7.2471   10.6293  -10.6255 C   0  0  0  0  0  0  0  0  0  0  0  0
   -7.6099    9.7738   -9.5366 C   0  0  0  0  0  0  0  0  0  0  0  0
   -8.2971    8.7499   -9.9997 N   0  0  0  0  0  0  0  0  0  0  0  0
   -8.4324    8.8805  -11.3156 N   0  0  0  0  0  0  0  0  0  0  0  0
   -7.3321    9.9039   -8.0386 C   0  0  0  0  0  0  0  0  0  0  0  0
   -4.4077   13.6374  -11.5161 N   0  0  0  0  0  0  0  0  0  0  0  0
   -3.4400   14.7362  -11.5603 C   0  0  0  0  0  0  0  0  0  0  0  0
   -5.5080   13.5935  -12.2349 C   0  0  0  0  0  0  0  0  0  0  0  0
   -5.8585   14.4899  -13.0509 O   0  0  0  0  0  0  0  0  0  0  0  0
   -5.9274   10.4444   -7.6346 C   0  0  0  0  0  0  0  0  0  0  0  0
   -4.7880    9.9988   -8.5813 C   0  0  0  0  0  0  0  0  0  0  0  0
   -5.9224   11.9644   -7.3345 C   0  0  0  0  0  0  0  0  0  0  0  0
   -7.2692   12.9995  -11.9014 H   0  0  0  0  0  0  0  0  0  0  0  0
   -6.0160   12.2965   -9.9603 H   0  0  0  0  0  0  0  0  0  0  0  0
   -8.2205   10.1254  -13.9106 H   0  0  0  0  0  0  0  0  0  0  0  0
   -6.9276   12.2403  -14.1469 H   0  0  0  0  0  0  0  0  0  0  0  0
   -6.9040    9.4695  -11.9684 H   0  0  0  0  0  0  0  0  0  0  0  0
   -8.0714    9.6350   -7.2986 H   0  0  0  0  0  0  0  0  0  0  0  0
   -2.6137   14.5259  -10.8653 H   0  0  0  0  0  0  0  0  0  0  0  0
   -3.0438   14.8348  -12.5817 H   0  0  0  0  0  0  0  0  0  0  0  0
   -3.9359   15.6734  -11.2673 H   0  0  0  0  0  0  0  0  0  0  0  0
   -5.2194   15.1927  -13.0438 H   0  0  0  0  0  0  0  0  0  0  0  0
   -5.7040    9.9624   -6.6714 H   0  0  0  0  0  0  0  0  0  0  0  0
   -3.8338   10.4189   -8.2306 H   0  0  0  0  0  0  0  0  0  0  0  0
   -4.7249    8.9006   -8.5873 H   0  0  0  0  0  0  0  0  0  0  0  0
   -4.9952   10.3598   -9.5995 H   0  0  0  0  0  0  0  0  0  0  0  0
   -4.9060   12.2805   -7.0569 H   0  0  0  0  0  0  0  0  0  0  0  0
   -6.2462   12.5158   -8.2296 H   0  0  0  0  0  0  0  0  0  0  0  0
   -6.6118   12.1763   -6.5040 H   0  0  0  0  0  0  0  0  0  0  0  0
  1  2  1  0  0  0  0
  1  4  1  0  0  0  0
  1 13  1  0  0  0  0
  2  6  2  0  0  0  0
  3  4  2  0  0  0  0
  3  5  1  0  0  0  0
  5  6  1  0  0  0  0
  5  9  1  0  0  0  0
  6  7  1  0  0  0  0
  7  8  1  0  0  0  0
  7 10  2  3  0  0  0
  8  9  2  0  0  0  0
 10 15  1  0  0  0  0
 11 12  1  0  0  0  0
 11 13  2  0  0  0  0
 13 14  1  0  0  0  0
 15 16  1  0  0  0  0
 15 17  1  0  0  0  0
  1 18  1  0  0  0  0
  2 19  1  0  0  0  0
  3 20  1  0  0  0  0
  4 21  1  0  0  0  0
  5 22  1  0  0  0  0
 10 23  1  0  0  0  0
 12 24  1  0  0  0  0
 12 25  1  0  0  0  0
 12 26  1  0  0  0  0
 14 27  1  0  0  0  0
 15 28  1  0  0  0  0
 16 29  1  0  0  0  0
 16 30  1  0  0  0  0
 16 31  1  0  0  0  0
 17 32  1  0  0  0  0
 17 33  1  0  0  0  0
 17 34  1  0  0  0  0
M  END
> <Name>
14

> <IC50[uM]>
0.84

$$$$
14
  -OEChem-05192314333D
 Structure written by MMmdl.
 34 35  0     1  0  0  0  0  0999 V2000
   -6.3887   12.3647  -12.0798 C   0  0  0  0  0  0  0  0  0  0  0  0
   -6.4962   11.8202  -10.8023 C   0  0  0  0  0  0  0  0  0  0  0  0
   -7.7456   10.5858  -13.0568 C   0  0  0  0  0  0  0  0  0  0  0  0
   -7.0126   11.7716  -13.1776 C   0  0  0  0  0  0  0  0  0  0  0  0
   -7.8340   10.0285  -11.7877 C   0  0  3  0  0  0  0  0  0  0  0  0
   -7.2471   10.6293  -10.6255 C   0  0  3  0  0  0  0  0  0  0  0  0
   -7.6099    9.7738   -9.5366 C   0  0  0  0  0  0  0  0  0  0  0  0
   -8.2971    8.7499   -9.9997 N   0  0  0  0  0  0  0  0  0  0  0  0
   -8.4324    8.8805  -11.3156 N   0  0  0  0  0  0  0  0  0  0  0  0
   -7.3321    9.9039   -8.0386 C   0  0  0  0  0  0  0  0  0  0  0  0
   -4.4077   13.6374  -11.5161 N   0  0  0  0  0  0  0  0  0  0  0  0
   -3.4400   14.7362  -11.5603 C   0  0  0  0  0  0  0  0  0  0  0  0
   -5.5080   13.5935  -12.2349 C   0  0  0  0  0  0  0  0  0  0  0  0
   -5.8585   14.4899  -13.0509 O   0  0  0  0  0  0  0  0  0  0  0  0
   -5.9274   10.4444   -7.6346 C   0  0  0  0  0  0  0  0  0  0  0  0
   -4.7880    9.9988   -8.5813 C   0  0  0  0  0  0  0  0  0  0  0  0
   -5.9224   11.9644   -7.3345 C   0  0  0  0  0  0  0  0  0  0  0  0
   -6.0160   12.2965   -9.9603 H   0  0  0  0  0  0  0  0  0  0  0  0
   -8.2205   10.1254  -13.9106 H   0  0  0  0  0  0  0  0  0  0  0  0
   -6.9276   12.2403  -14.1469 H   0  0  0  0  0  0  0  0  0  0  0  0
   -6.9040    9.4695  -11.9684 H   0  0  0  0  0  0  0  0  0  0  0  0
   -8.1592   11.2235  -10.4675 H   0  0  0  0  0  0  0  0  0  0  0  0
   -8.0714    9.6350   -7.2986 H   0  0  0  0  0  0  0  0  0  0  0  0
   -2.6137   14.5259  -10.8653 H   0  0  0  0  0  0  0  0  0  0  0  0
   -3.0438   14.8348  -12.5817 H   0  0  0  0  0  0  0  0  0  0  0  0
   -3.9359   15.6734  -11.2673 H   0  0  0  0  0  0  0  0  0  0  0  0
   -5.2194   15.1927  -13.0438 H   0  0  0  0  0  0  0  0  0  0  0  0
   -5.7040    9.9624   -6.6714 H   0  0  0  0  0  0  0  0  0  0  0  0
   -3.8338   10.4189   -8.2306 H   0  0  0  0  0  0  0  0  0  0  0  0
   -4.7249    8.9006   -8.5873 H   0  0  0  0  0  0  0  0  0  0  0  0
   -4.9952   10.3598   -9.5995 H   0  0  0  0  0  0  0  0  0  0  0  0
   -4.9060   12.2805   -7.0569 H   0  0  0  0  0  0  0  0  0  0  0  0
   -6.2462   12.5158   -8.2296 H   0  0  0  0  0  0  0  0  0  0  0  0
   -6.6118   12.1763   -6.5040 H   0  0  0  0  0  0  0  0  0  0  0  0
  1  2  2  0  0  0  0
  1  4  1  0  0  0  0
  1 13  1  0  0  0  0
  2  6  1  0  0  0  0
  3  4  2  0  0  0  0
  3  5  1  0  0  0  0
  5  6  1  0  0  0  0
  5  9  1  0  0  0  0
  6  7  1  0  0  0  0
  7  8  1  0  0  0  0
  7 10  2  3  0  0  0
  8  9  2  0  0  0  0
 10 15  1  0  0  0  0
 11 12  1  0  0  0  0
 11 13  2  0  0  0  0
 13 14  1  0  0  0  0
 15 16  1  0  0  0  0
 15 17  1  0  0  0  0
  2 18  1  0  0  0  0
  3 19  1  0  0  0  0
  4 20  1  0  0  0  0
  5 21  1  0  0  0  0
  6 22  1  0  0  0  0
 10 23  1  0  0  0  0
 12 24  1  0  0  0  0
 12 25  1  0  0  0  0
 12 26  1  0  0  0  0
 14 27  1  0  0  0  0
 15 28  1  0  0  0  0
 16 29  1  0  0  0  0
 16 30  1  0  0  0  0
 16 31  1  0  0  0  0
 17 32  1  0  0  0  0
 17 33  1  0  0  0  0
 17 34  1  0  0  0  0
M  END
> <Name>
14

> <IC50[uM]>
0.84

$$$$
14
  -OEChem-05192314333D
 Structure written by MMmdl.
 34 35  0     1  0  0  0  0  0999 V2000
   -6.3887   12.3647  -12.0798 C   0  0  0  0  0  0  0  0  0  0  0  0
   -6.4962   11.8202  -10.8023 C   0  0  0  0  0  0  0  0  0  0  0  0
   -7.7456   10.5858  -13.0568 C   0  0  0  0  0  0  0  0  0  0  0  0
   -7.0126   11.7716  -13.1776 C   0  0  0  0  0  0  0  0  0  0  0  0
   -7.8340   10.0285  -11.7877 C   0  0  3  0  0  0  0  0  0  0  0  0
   -7.2471   10.6293  -10.6255 C   0  0  0  0  0  0  0  0  0  0  0  0
   -7.6099    9.7738   -9.5366 C   0  0  0  0  0  0  0  0  0  0  0  0
   -8.2971    8.7499   -9.9997 N   0  0  0  0  0  0  0  0  0  0  0  0
   -8.4324    8.8805  -11.3156 N   0  0  0  0  0  0  0  0  0  0  0  0
   -7.3321    9.9039   -8.0386 C   0  0  0  0  0  0  0  0  0  0  0  0
   -4.4077   13.6374  -11.5161 N   0  0  0  0  0  0  0  0  0  0  0  0
   -3.4400   14.7362  -11.5603 C   0  0  0  0  0  0  0  0  0  0  0  0
   -5.5080   13.5935  -12.2349 C   0  0  0  0  0  0  0  0  0  0  0  0
   -5.8585   14.4899  -13.0509 O   0  0  0  0  0  0  0  0  0  0  0  0
   -5.9274   10.4444   -7.6346 C   0  0  0  0  0  0  0  0  0  0  0  0
   -4.7880    9.9988   -8.5813 C   0  0  0  0  0  0  0  0  0  0  0  0
   -5.9224   11.9644   -7.3345 C   0  0  0  0  0  0  0  0  0  0  0  0
   -6.0160   12.2965   -9.9603 H   0  0  0  0  0  0  0  0  0  0  0  0
   -8.2205   10.1254  -13.9106 H   0  0  0  0  0  0  0  0  0  0  0  0
   -6.9276   12.2403  -14.1469 H   0  0  0  0  0  0  0  0  0  0  0  0
   -6.9040    9.4695  -11.9684 H   0  0  0  0  0  0  0  0  0  0  0  0
   -8.0859   10.5853   -7.6172 H   0  0  0  0  0  0  0  0  0  0  0  0
   -7.4478    8.9063   -7.5897 H   0  0  0  0  0  0  0  0  0  0  0  0
   -2.6137   14.5259  -10.8653 H   0  0  0  0  0  0  0  0  0  0  0  0
   -3.0438   14.8348  -12.5817 H   0  0  0  0  0  0  0  0  0  0  0  0
   -3.9359   15.6734  -11.2673 H   0  0  0  0  0  0  0  0  0  0  0  0
   -5.2194   15.1927  -13.0438 H   0  0  0  0  0  0  0  0  0  0  0  0
   -5.7040    9.9624   -6.6714 H   0  0  0  0  0  0  0  0  0  0  0  0
   -3.8338   10.4189   -8.2306 H   0  0  0  0  0  0  0  0  0  0  0  0
   -4.7249    8.9006   -8.5873 H   0  0  0  0  0  0  0  0  0  0  0  0
   -4.9952   10.3598   -9.5995 H   0  0  0  0  0  0  0  0  0  0  0  0
   -4.9060   12.2805   -7.0569 H   0  0  0  0  0  0  0  0  0  0  0  0
   -6.2462   12.5158   -8.2296 H   0  0  0  0  0  0  0  0  0  0  0  0
   -6.6118   12.1763   -6.5040 H   0  0  0  0  0  0  0  0  0  0  0  0
  1  2  2  0  0  0  0
  1  4  1  0  0  0  0
  1 13  1  0  0  0  0
  2  6  1  0  0  0  0
  3  4  2  0  0  0  0
  3  5  1  0  0  0  0
  5  6  1  0  0  0  0
  5  9  1  0  0  0  0
  6  7  2  0  0  0  0
  7  8  1  0  0  0  0
  7 10  1  0  0  0  0
  8  9  2  0  0  0  0
 10 15  1  0  0  0  0
 11 12  1  0  0  0  0
 11 13  2  0  0  0  0
 13 14  1  0  0  0  0
 15 16  1  0  0  0  0
 15 17  1  0  0  0  0
  2 18  1  0  0  0  0
  3 19  1  0  0  0  0
  4 20  1  0  0  0  0
  5 21  1  0  0  0  0
 10 22  1  0  0  0  0
 10 23  1  0  0  0  0
 12 24  1  0  0  0  0
 12 25  1  0  0  0  0
 12 26  1  0  0  0  0
 14 27  1  0  0  0  0
 15 28  1  0  0  0  0
 16 29  1  0  0  0  0
 16 30  1  0  0  0  0
 16 31  1  0  0  0  0
 17 32  1  0  0  0  0
 17 33  1  0  0  0  0
 17 34  1  0  0  0  0
M  END
> <Name>
14

> <IC50[uM]>
0.84

$$$$
14
  -OEChem-05192314333D
 Structure written by MMmdl.
 34 35  0     1  0  0  0  0  0999 V2000
   -6.3887   12.3647  -12.0798 C   0  0  0  0  0  0  0  0  0  0  0  0
   -6.4962   11.8202  -10.8023 C   0  0  0  0  0  0  0  0  0  0  0  0
   -7.7456   10.5858  -13.0568 C   0  0  0  0  0  0  0  0  0  0  0  0
   -7.0126   11.7716  -13.1776 C   0  0  0  0  0  0  0  0  0  0  0  0
   -7.8340   10.0285  -11.7877 C   0  0  3  0  0  0  0  0  0  0  0  0
   -7.2471   10.6293  -10.6255 C   0  0  0  0  0  0  0  0  0  0  0  0
   -7.6099    9.7738   -9.5366 C   0  0  0  0  0  0  0  0  0  0  0  0
   -8.2971    8.7499   -9.9997 N   0  0  0  0  0  0  0  0  0  0  0  0
   -8.4324    8.8805  -11.3156 N   0  0  0  0  0  0  0  0  0  0  0  0
   -7.3321    9.9039   -8.0386 C   0  0  0  0  0  0  0  0  0  0  0  0
   -4.4077   13.6374  -11.5161 N   0  0  0  0  0  0  0  0  0  0  0  0
   -3.4400   14.7362  -11.5603 C   0  0  0  0  0  0  0  0  0  0  0  0
   -5.5080   13.5935  -12.2349 C   0  0  0  0  0  0  0  0  0  0  0  0
   -5.8585   14.4899  -13.0509 O   0  0  0  0  0  0  0  0  0  0  0  0
   -5.9274   10.4444   -7.6346 C   0  0  0  0  0  0  0  0  0  0  0  0
   -4.7880    9.9988   -8.5813 C   0  0  0  0  0  0  0  0  0  0  0  0
   -5.9224   11.9644   -7.3345 C   0  0  0  0  0  0  0  0  0  0  0  0
   -6.0160   12.2965   -9.9603 H   0  0  0  0  0  0  0  0  0  0  0  0
   -8.7697   10.7916  -13.4015 H   0  0  0  0  0  0  0  0  0  0  0  0
   -7.2799    9.8386  -13.7162 H   0  0  0  0  0  0  0  0  0  0  0  0
   -6.9276   12.2403  -14.1469 H   0  0  0  0  0  0  0  0  0  0  0  0
   -6.9040    9.4695  -11.9684 H   0  0  0  0  0  0  0  0  0  0  0  0
   -8.0714    9.6350   -7.2986 H   0  0  0  0  0  0  0  0  0  0  0  0
   -2.6137   14.5259  -10.8653 H   0  0  0  0  0  0  0  0  0  0  0  0
   -3.0438   14.8348  -12.5817 H   0  0  0  0  0  0  0  0  0  0  0  0
   -3.9359   15.6734  -11.2673 H   0  0  0  0  0  0  0  0  0  0  0  0
   -5.2194   15.1927  -13.0438 H   0  0  0  0  0  0  0  0  0  0  0  0
   -5.7040    9.9624   -6.6714 H   0  0  0  0  0  0  0  0  0  0  0  0
   -3.8338   10.4189   -8.2306 H   0  0  0  0  0  0  0  0  0  0  0  0
   -4.7249    8.9006   -8.5873 H   0  0  0  0  0  0  0  0  0  0  0  0
   -4.9952   10.3598   -9.5995 H   0  0  0  0  0  0  0  0  0  0  0  0
   -4.9060   12.2805   -7.0569 H   0  0  0  0  0  0  0  0  0  0  0  0
   -6.2462   12.5158   -8.2296 H   0  0  0  0  0  0  0  0  0  0  0  0
   -6.6118   12.1763   -6.5040 H   0  0  0  0  0  0  0  0  0  0  0  0
  1  2  1  0  0  0  0
  1  4  2  0  0  0  0
  1 13  1  0  0  0  0
  2  6  2  0  0  0  0
  3  4  1  0  0  0  0
  3  5  1  0  0  0  0
  5  6  1  0  0  0  0
  5  9  1  0  0  0  0
  6  7  1  0  0  0  0
  7  8  1  0  0  0  0
  7 10  2  3  0  0  0
  8  9  2  0  0  0  0
 10 15  1  0  0  0  0
 11 12  1  0  0  0  0
 11 13  2  0  0  0  0
 13 14  1  0  0  0  0
 15 16  1  0  0  0  0
 15 17  1  0  0  0  0
  2 18  1  0  0  0  0
  3 19  1  0  0  0  0
  3 20  1  0  0  0  0
  4 21  1  0  0  0  0
  5 22  1  0  0  0  0
 10 23  1  0  0  0  0
 12 24  1  0  0  0  0
 12 25  1  0  0  0  0
 12 26  1  0  0  0  0
 14 27  1  0  0  0  0
 15 28  1  0  0  0  0
 16 29  1  0  0  0  0
 16 30  1  0  0  0  0
 16 31  1  0  0  0  0
 17 32  1  0  0  0  0
 17 33  1  0  0  0  0
 17 34  1  0  0  0  0
M  END
> <Name>
14

> <IC50[uM]>
0.84

$$$$
14
  -OEChem-05192314333D
 Structure written by MMmdl.
 34 35  0     1  0  0  0  0  0999 V2000
   -6.3887   12.3647  -12.0798 C   0  0  3  0  0  0  0  0  0  0  0  0
   -6.4962   11.8202  -10.8023 C   0  0  0  0  0  0  0  0  0  0  0  0
   -7.7456   10.5858  -13.0568 C   0  0  0  0  0  0  0  0  0  0  0  0
   -7.0126   11.7716  -13.1776 C   0  0  0  0  0  0  0  0  0  0  0  0
   -7.8340   10.0285  -11.7877 C   0  0  0  0  0  0  0  0  0  0  0  0
   -7.2471   10.6293  -10.6255 C   0  0  0  0  0  0  0  0  0  0  0  0
   -7.6099    9.7738   -9.5366 C   0  0  0  0  0  0  0  0  0  0  0  0
   -8.2971    8.7499   -9.9997 N   0  0  0  0  0  0  0  0  0  0  0  0
   -8.4324    8.8805  -11.3156 N   0  0  0  0  0  0  0  0  0  0  0  0
   -7.3321    9.9039   -8.0386 C   0  0  0  0  0  0  0  0  0  0  0  0
   -4.4077   13.6374  -11.5161 N   0  0  0  0  0  0  0  0  0  0  0  0
   -3.4400   14.7362  -11.5603 C   0  0  0  0  0  0  0  0  0  0  0  0
   -5.5080   13.5935  -12.2349 C   0  0  0  0  0  0  0  0  0  0  0  0
   -5.8585   14.4899  -13.0509 O   0  0  0  0  0  0  0  0  0  0  0  0
   -5.9274   10.4444   -7.6346 C   0  0  0  0  0  0  0  0  0  0  0  0
   -4.7880    9.9988   -8.5813 C   0  0  0  0  0  0  0  0  0  0  0  0
   -5.9224   11.9644   -7.3345 C   0  0  0  0  0  0  0  0  0  0  0  0
   -7.2692   12.9995  -11.9014 H   0  0  0  0  0  0  0  0  0  0  0  0
   -6.0160   12.2965   -9.9603 H   0  0  0  0  0  0  0  0  0  0  0  0
   -8.2205   10.1254  -13.9106 H   0  0  0  0  0  0  0  0  0  0  0  0
   -7.7059   12.5235  -13.5825 H   0  0  0  0  0  0  0  0  0  0  0  0
   -6.2193   11.5709  -13.9127 H   0  0  0  0  0  0  0  0  0  0  0  0
   -8.0714    9.6350   -7.2986 H   0  0  0  0  0  0  0  0  0  0  0  0
   -2.6137   14.5259  -10.8653 H   0  0  0  0  0  0  0  0  0  0  0  0
   -3.0438   14.8348  -12.5817 H   0  0  0  0  0  0  0  0  0  0  0  0
   -3.9359   15.6734  -11.2673 H   0  0  0  0  0  0  0  0  0  0  0  0
   -5.2194   15.1927  -13.0438 H   0  0  0  0  0  0  0  0  0  0  0  0
   -5.7040    9.9624   -6.6714 H   0  0  0  0  0  0  0  0  0  0  0  0
   -3.8338   10.4189   -8.2306 H   0  0  0  0  0  0  0  0  0  0  0  0
   -4.7249    8.9006   -8.5873 H   0  0  0  0  0  0  0  0  0  0  0  0
   -4.9952   10.3598   -9.5995 H   0  0  0  0  0  0  0  0  0  0  0  0
   -4.9060   12.2805   -7.0569 H   0  0  0  0  0  0  0  0  0  0  0  0
   -6.2462   12.5158   -8.2296 H   0  0  0  0  0  0  0  0  0  0  0  0
   -6.6118   12.1763   -6.5040 H   0  0  0  0  0  0  0  0  0  0  0  0
  1  2  1  0  0  0  0
  1  4  1  0  0  0  0
  1 13  1  0  0  0  0
  2  6  2  0  0  0  0
  3  4  1  0  0  0  0
  3  5  2  0  0  0  0
  5  6  1  0  0  0  0
  5  9  1  0  0  0  0
  6  7  1  0  0  0  0
  7  8  1  0  0  0  0
  7 10  2  3  0  0  0
  8  9  2  0  0  0  0
 10 15  1  0  0  0  0
 11 12  1  0  0  0  0
 11 13  2  0  0  0  0
 13 14  1  0  0  0  0
 15 16  1  0  0  0  0
 15 17  1  0  0  0  0
  1 18  1  0  0  0  0
  2 19  1  0  0  0  0
  3 20  1  0  0  0  0
  4 21  1  0  0  0  0
  4 22  1  0  0  0  0
 10 23  1  0  0  0  0
 12 24  1  0  0  0  0
 12 25  1  0  0  0  0
 12 26  1  0  0  0  0
 14 27  1  0  0  0  0
 15 28  1  0  0  0  0
 16 29  1  0  0  0  0
 16 30  1  0  0  0  0
 16 31  1  0  0  0  0
 17 32  1  0  0  0  0
 17 33  1  0  0  0  0
 17 34  1  0  0  0  0
M  END
> <Name>
14

> <IC50[uM]>
0.84

$$$$
14
  -OEChem-05192314333D
 Structure written by MMmdl.
 34 35  0     1  0  0  0  0  0999 V2000
   -6.3887   12.3647  -12.0798 C   0  0  0  0  0  0  0  0  0  0  0  0
   -6.4962   11.8202  -10.8023 C   0  0  0  0  0  0  0  0  0  0  0  0
   -7.7456   10.5858  -13.0568 C   0  0  0  0  0  0  0  0  0  0  0  0
   -7.0126   11.7716  -13.1776 C   0  0  0  0  0  0  0  0  0  0  0  0
   -7.8340   10.0285  -11.7877 C   0  0  0  0  0  0  0  0  0  0  0  0
   -7.2471   10.6293  -10.6255 C   0  0  3  0  0  0  0  0  0  0  0  0
   -7.6099    9.7738   -9.5366 C   0  0  0  0  0  0  0  0  0  0  0  0
   -8.2971    8.7499   -9.9997 N   0  0  0  0  0  0  0  0  0  0  0  0
   -8.4324    8.8805  -11.3156 N   0  0  0  0  0  0  0  0  0  0  0  0
   -7.3321    9.9039   -8.0386 C   0  0  0  0  0  0  0  0  0  0  0  0
   -4.4077   13.6374  -11.5161 N   0  0  0  0  0  0  0  0  0  0  0  0
   -3.4400   14.7362  -11.5603 C   0  0  0  0  0  0  0  0  0  0  0  0
   -5.5080   13.5935  -12.2349 C   0  0  0  0  0  0  0  0  0  0  0  0
   -5.8585   14.4899  -13.0509 O   0  0  0  0  0  0  0  0  0  0  0  0
   -5.9274   10.4444   -7.6346 C   0  0  0  0  0  0  0  0  0  0  0  0
   -4.7880    9.9988   -8.5813 C   0  0  0  0  0  0  0  0  0  0  0  0
   -5.9224   11.9644   -7.3345 C   0  0  0  0  0  0  0  0  0  0  0  0
   -6.0160   12.2965   -9.9603 H   0  0  0  0  0  0  0  0  0  0  0  0
   -8.2205   10.1254  -13.9106 H   0  0  0  0  0  0  0  0  0  0  0  0
   -7.7059   12.5235  -13.5825 H   0  0  0  0  0  0  0  0  0  0  0  0
   -6.2193   11.5709  -13.9127 H   0  0  0  0  0  0  0  0  0  0  0  0
   -8.1592   11.2235  -10.4675 H   0  0  0  0  0  0  0  0  0  0  0  0
   -8.0714    9.6350   -7.2986 H   0  0  0  0  0  0  0  0  0  0  0  0
   -2.6137   14.5259  -10.8653 H   0  0  0  0  0  0  0  0  0  0  0  0
   -3.0438   14.8348  -12.5817 H   0  0  0  0  0  0  0  0  0  0  0  0
   -3.9359   15.6734  -11.2673 H   0  0  0  0  0  0  0  0  0  0  0  0
   -5.2194   15.1927  -13.0438 H   0  0  0  0  0  0  0  0  0  0  0  0
   -5.7040    9.9624   -6.6714 H   0  0  0  0  0  0  0  0  0  0  0  0
   -3.8338   10.4189   -8.2306 H   0  0  0  0  0  0  0  0  0  0  0  0
   -4.7249    8.9006   -8.5873 H   0  0  0  0  0  0  0  0  0  0  0  0
   -4.9952   10.3598   -9.5995 H   0  0  0  0  0  0  0  0  0  0  0  0
   -4.9060   12.2805   -7.0569 H   0  0  0  0  0  0  0  0  0  0  0  0
   -6.2462   12.5158   -8.2296 H   0  0  0  0  0  0  0  0  0  0  0  0
   -6.6118   12.1763   -6.5040 H   0  0  0  0  0  0  0  0  0  0  0  0
  1  2  2  0  0  0  0
  1  4  1  0  0  0  0
  1 13  1  0  0  0  0
  2  6  1  0  0  0  0
  3  4  1  0  0  0  0
  3  5  2  0  0  0  0
  5  6  1  0  0  0  0
  5  9  1  0  0  0  0
  6  7  1  0  0  0  0
  7  8  1  0  0  0  0
  7 10  2  3  0  0  0
  8  9  2  0  0  0  0
 10 15  1  0  0  0  0
 11 12  1  0  0  0  0
 11 13  2  0  0  0  0
 13 14  1  0  0  0  0
 15 16  1  0  0  0  0
 15 17  1  0  0  0  0
  2 18  1  0  0  0  0
  3 19  1  0  0  0  0
  4 20  1  0  0  0  0
  4 21  1  0  0  0  0
  6 22  1  0  0  0  0
 10 23  1  0  0  0  0
 12 24  1  0  0  0  0
 12 25  1  0  0  0  0
 12 26  1  0  0  0  0
 14 27  1  0  0  0  0
 15 28  1  0  0  0  0
 16 29  1  0  0  0  0
 16 30  1  0  0  0  0
 16 31  1  0  0  0  0
 17 32  1  0  0  0  0
 17 33  1  0  0  0  0
 17 34  1  0  0  0  0
M  END
> <Name>
14

> <IC50[uM]>
0.84

$$$$
14
  -OEChem-05192314333D
 Structure written by MMmdl.
 34 35  0     0  0  0  0  0  0999 V2000
   -6.3887   12.3647  -12.0798 C   0  0  0  0  0  0  0  0  0  0  0  0
   -6.4962   11.8202  -10.8023 C   0  0  0  0  0  0  0  0  0  0  0  0
   -7.7456   10.5858  -13.0568 C   0  0  0  0  0  0  0  0  0  0  0  0
   -7.0126   11.7716  -13.1776 C   0  0  0  0  0  0  0  0  0  0  0  0
   -7.8340   10.0285  -11.7877 C   0  0  0  0  0  0  0  0  0  0  0  0
   -7.2471   10.6293  -10.6255 C   0  0  0  0  0  0  0  0  0  0  0  0
   -7.6099    9.7738   -9.5366 C   0  0  0  0  0  0  0  0  0  0  0  0
   -8.2971    8.7499   -9.9997 N   0  0  0  0  0  0  0  0  0  0  0  0
   -8.4324    8.8805  -11.3156 N   0  0  0  0  0  0  0  0  0  0  0  0
   -7.3321    9.9039   -8.0386 C   0  0  0  0  0  0  0  0  0  0  0  0
   -4.4077   13.6374  -11.5161 N   0  0  0  0  0  0  0  0  0  0  0  0
   -3.4400   14.7362  -11.5603 C   0  0  0  0  0  0  0  0  0  0  0  0
   -5.5080   13.5935  -12.2349 C   0  0  0  0  0  0  0  0  0  0  0  0
   -5.8585   14.4899  -13.0509 O   0  0  0  0  0  0  0  0  0  0  0  0
   -5.9274   10.4444   -7.6346 C   0  0  0  0  0  0  0  0  0  0  0  0
   -4.7880    9.9988   -8.5813 C   0  0  0  0  0  0  0  0  0  0  0  0
   -5.9224   11.9644   -7.3345 C   0  0  0  0  0  0  0  0  0  0  0  0
   -6.0160   12.2965   -9.9603 H   0  0  0  0  0  0  0  0  0  0  0  0
   -8.2205   10.1254  -13.9106 H   0  0  0  0  0  0  0  0  0  0  0  0
   -7.7059   12.5235  -13.5825 H   0  0  0  0  0  0  0  0  0  0  0  0
   -6.2193   11.5709  -13.9127 H   0  0  0  0  0  0  0  0  0  0  0  0
   -8.0859   10.5853   -7.6172 H   0  0  0  0  0  0  0  0  0  0  0  0
   -7.4478    8.9063   -7.5897 H   0  0  0  0  0  0  0  0  0  0  0  0
   -2.6137   14.5259  -10.8653 H   0  0  0  0  0  0  0  0  0  0  0  0
   -3.0438   14.8348  -12.5817 H   0  0  0  0  0  0  0  0  0  0  0  0
   -3.9359   15.6734  -11.2673 H   0  0  0  0  0  0  0  0  0  0  0  0
   -5.2194   15.1927  -13.0438 H   0  0  0  0  0  0  0  0  0  0  0  0
   -5.7040    9.9624   -6.6714 H   0  0  0  0  0  0  0  0  0  0  0  0
   -3.8338   10.4189   -8.2306 H   0  0  0  0  0  0  0  0  0  0  0  0
   -4.7249    8.9006   -8.5873 H   0  0  0  0  0  0  0  0  0  0  0  0
   -4.9952   10.3598   -9.5995 H   0  0  0  0  0  0  0  0  0  0  0  0
   -4.9060   12.2805   -7.0569 H   0  0  0  0  0  0  0  0  0  0  0  0
   -6.2462   12.5158   -8.2296 H   0  0  0  0  0  0  0  0  0  0  0  0
   -6.6118   12.1763   -6.5040 H   0  0  0  0  0  0  0  0  0  0  0  0
  1  2  2  0  0  0  0
  1  4  1  0  0  0  0
  1 13  1  0  0  0  0
  2  6  1  0  0  0  0
  3  4  1  0  0  0  0
  3  5  2  0  0  0  0
  5  6  1  0  0  0  0
  5  9  1  0  0  0  0
  6  7  2  0  0  0  0
  7  8  1  0  0  0  0
  7 10  1  0  0  0  0
  8  9  2  0  0  0  0
 10 15  1  0  0  0  0
 11 12  1  0  0  0  0
 11 13  2  0  0  0  0
 13 14  1  0  0  0  0
 15 16  1  0  0  0  0
 15 17  1  0  0  0  0
  2 18  1  0  0  0  0
  3 19  1  0  0  0  0
  4 20  1  0  0  0  0
  4 21  1  0  0  0  0
 10 22  1  0  0  0  0
 10 23  1  0  0  0  0
 12 24  1  0  0  0  0
 12 25  1  0  0  0  0
 12 26  1  0  0  0  0
 14 27  1  0  0  0  0
 15 28  1  0  0  0  0
 16 29  1  0  0  0  0
 16 30  1  0  0  0  0
 16 31  1  0  0  0  0
 17 32  1  0  0  0  0
 17 33  1  0  0  0  0
 17 34  1  0  0  0  0
M  END
> <Name>
14

> <IC50[uM]>
0.84

$$$$
14
  -OEChem-05192314333D
 Structure written by MMmdl.
 34 35  0     0  0  0  0  0  0999 V2000
   -6.3887   12.3647  -12.0798 C   0  0  0  0  0  0  0  0  0  0  0  0
   -6.4962   11.8202  -10.8023 C   0  0  0  0  0  0  0  0  0  0  0  0
   -7.7456   10.5858  -13.0568 C   0  0  0  0  0  0  0  0  0  0  0  0
   -7.0126   11.7716  -13.1776 C   0  0  0  0  0  0  0  0  0  0  0  0
   -7.8340   10.0285  -11.7877 C   0  0  0  0  0  0  0  0  0  0  0  0
   -7.2471   10.6293  -10.6255 C   0  0  0  0  0  0  0  0  0  0  0  0
   -7.6099    9.7738   -9.5366 C   0  0  0  0  0  0  0  0  0  0  0  0
   -8.2971    8.7499   -9.9997 N   0  0  0  0  0  0  0  0  0  0  0  0
   -8.4324    8.8805  -11.3156 N   0  0  0  0  0  0  0  0  0  0  0  0
   -7.3321    9.9039   -8.0386 C   0  0  0  0  0  0  0  0  0  0  0  0
   -4.4077   13.6374  -11.5161 N   0  0  0  0  0  0  0  0  0  0  0  0
   -3.4400   14.7362  -11.5603 C   0  0  0  0  0  0  0  0  0  0  0  0
   -5.5080   13.5935  -12.2349 C   0  0  0  0  0  0  0  0  0  0  0  0
   -5.8585   14.4899  -13.0509 O   0  0  0  0  0  0  0  0  0  0  0  0
   -5.9274   10.4444   -7.6346 C   0  0  0  0  0  0  0  0  0  0  0  0
   -4.7880    9.9988   -8.5813 C   0  0  0  0  0  0  0  0  0  0  0  0
   -5.9224   11.9644   -7.3345 C   0  0  0  0  0  0  0  0  0  0  0  0
   -6.0160   12.2965   -9.9603 H   0  0  0  0  0  0  0  0  0  0  0  0
   -8.7697   10.7916  -13.4015 H   0  0  0  0  0  0  0  0  0  0  0  0
   -7.2799    9.8386  -13.7162 H   0  0  0  0  0  0  0  0  0  0  0  0
   -7.7059   12.5235  -13.5825 H   0  0  0  0  0  0  0  0  0  0  0  0
   -6.2193   11.5709  -13.9127 H   0  0  0  0  0  0  0  0  0  0  0  0
   -8.0714    9.6350   -7.2986 H   0  0  0  0  0  0  0  0  0  0  0  0
   -2.6137   14.5259  -10.8653 H   0  0  0  0  0  0  0  0  0  0  0  0
   -3.0438   14.8348  -12.5817 H   0  0  0  0  0  0  0  0  0  0  0  0
   -3.9359   15.6734  -11.2673 H   0  0  0  0  0  0  0  0  0  0  0  0
   -5.2194   15.1927  -13.0438 H   0  0  0  0  0  0  0  0  0  0  0  0
   -5.7040    9.9624   -6.6714 H   0  0  0  0  0  0  0  0  0  0  0  0
   -3.8338   10.4189   -8.2306 H   0  0  0  0  0  0  0  0  0  0  0  0
   -4.7249    8.9006   -8.5873 H   0  0  0  0  0  0  0  0  0  0  0  0
   -4.9952   10.3598   -9.5995 H   0  0  0  0  0  0  0  0  0  0  0  0
   -4.9060   12.2805   -7.0569 H   0  0  0  0  0  0  0  0  0  0  0  0
   -6.2462   12.5158   -8.2296 H   0  0  0  0  0  0  0  0  0  0  0  0
   -6.6118   12.1763   -6.5040 H   0  0  0  0  0  0  0  0  0  0  0  0
  1  2  2  0  0  0  0
  1  4  1  0  0  0  0
  1 13  1  0  0  0  0
  2  6  1  0  0  0  0
  3  4  1  0  0  0  0
  3  5  1  0  0  0  0
  5  6  2  0  0  0  0
  5  9  1  0  0  0  0
  6  7  1  0  0  0  0
  7  8  1  0  0  0  0
  7 10  2  3  0  0  0
  8  9  2  0  0  0  0
 10 15  1  0  0  0  0
 11 12  1  0  0  0  0
 11 13  2  0  0  0  0
 13 14  1  0  0  0  0
 15 16  1  0  0  0  0
 15 17  1  0  0  0  0
  2 18  1  0  0  0  0
  3 19  1  0  0  0  0
  3 20  1  0  0  0  0
  4 21  1  0  0  0  0
  4 22  1  0  0  0  0
 10 23  1  0  0  0  0
 12 24  1  0  0  0  0
 12 25  1  0  0  0  0
 12 26  1  0  0  0  0
 14 27  1  0  0  0  0
 15 28  1  0  0  0  0
 16 29  1  0  0  0  0
 16 30  1  0  0  0  0
 16 31  1  0  0  0  0
 17 32  1  0  0  0  0
 17 33  1  0  0  0  0
 17 34  1  0  0  0  0
M  END
> <Name>
14

> <IC50[uM]>
0.84

$$$$
14
  -OEChem-05192314333D
 Structure written by MMmdl.
 34 35  0     1  0  0  0  0  0999 V2000
   -6.3887   12.3647  -12.0798 C   0  0  3  0  0  0  0  0  0  0  0  0
   -6.4962   11.8202  -10.8023 C   0  0  0  0  0  0  0  0  0  0  0  0
   -7.7456   10.5858  -13.0568 C   0  0  0  0  0  0  0  0  0  0  0  0
   -7.0126   11.7716  -13.1776 C   0  0  0  0  0  0  0  0  0  0  0  0
   -7.8340   10.0285  -11.7877 C   0  0  0  0  0  0  0  0  0  0  0  0
   -7.2471   10.6293  -10.6255 C   0  0  0  0  0  0  0  0  0  0  0  0
   -7.6099    9.7738   -9.5366 C   0  0  0  0  0  0  0  0  0  0  0  0
   -8.2971    8.7499   -9.9997 N   0  0  0  0  0  0  0  0  0  0  0  0
   -8.4324    8.8805  -11.3156 N   0  0  0  0  0  0  0  0  0  0  0  0
   -7.3321    9.9039   -8.0386 C   0  0  0  0  0  0  0  0  0  0  0  0
   -4.4077   13.6374  -11.5161 N   0  0  0  0  0  0  0  0  0  0  0  0
   -3.4400   14.7362  -11.5603 C   0  0  0  0  0  0  0  0  0  0  0  0
   -5.5080   13.5935  -12.2349 C   0  0  0  0  0  0  0  0  0  0  0  0
   -5.8585   14.4899  -13.0509 O   0  0  0  0  0  0  0  0  0  0  0  0
   -5.9274   10.4444   -7.6346 C   0  0  0  0  0  0  0  0  0  0  0  0
   -4.7880    9.9988   -8.5813 C   0  0  0  0  0  0  0  0  0  0  0  0
   -5.9224   11.9644   -7.3345 C   0  0  0  0  0  0  0  0  0  0  0  0
   -7.2692   12.9995  -11.9014 H   0  0  0  0  0  0  0  0  0  0  0  0
   -5.4741   11.6122  -10.4530 H   0  0  0  0  0  0  0  0  0  0  0  0
   -6.9536   12.5884  -10.1614 H   0  0  0  0  0  0  0  0  0  0  0  0
   -8.2205   10.1254  -13.9106 H   0  0  0  0  0  0  0  0  0  0  0  0
   -6.9276   12.2403  -14.1469 H   0  0  0  0  0  0  0  0  0  0  0  0
   -8.0714    9.6350   -7.2986 H   0  0  0  0  0  0  0  0  0  0  0  0
   -2.6137   14.5259  -10.8653 H   0  0  0  0  0  0  0  0  0  0  0  0
   -3.0438   14.8348  -12.5817 H   0  0  0  0  0  0  0  0  0  0  0  0
   -3.9359   15.6734  -11.2673 H   0  0  0  0  0  0  0  0  0  0  0  0
   -5.2194   15.1927  -13.0438 H   0  0  0  0  0  0  0  0  0  0  0  0
   -5.7040    9.9624   -6.6714 H   0  0  0  0  0  0  0  0  0  0  0  0
   -3.8338   10.4189   -8.2306 H   0  0  0  0  0  0  0  0  0  0  0  0
   -4.7249    8.9006   -8.5873 H   0  0  0  0  0  0  0  0  0  0  0  0
   -4.9952   10.3598   -9.5995 H   0  0  0  0  0  0  0  0  0  0  0  0
   -4.9060   12.2805   -7.0569 H   0  0  0  0  0  0  0  0  0  0  0  0
   -6.2462   12.5158   -8.2296 H   0  0  0  0  0  0  0  0  0  0  0  0
   -6.6118   12.1763   -6.5040 H   0  0  0  0  0  0  0  0  0  0  0  0
  1  2  1  0  0  0  0
  1  4  1  0  0  0  0
  1 13  1  0  0  0  0
  2  6  1  0  0  0  0
  3  4  2  0  0  0  0
  3  5  1  0  0  0  0
  5  6  2  0  0  0  0
  5  9  1  0  0  0  0
  6  7  1  0  0  0  0
  7  8  1  0  0  0  0
  7 10  2  3  0  0  0
  8  9  2  0  0  0  0
 10 15  1  0  0  0  0
 11 12  1  0  0  0  0
 11 13  2  0  0  0  0
 13 14  1  0  0  0  0
 15 16  1  0  0  0  0
 15 17  1  0  0  0  0
  1 18  1  0  0  0  0
  2 19  1  0  0  0  0
  2 20  1  0  0  0  0
  3 21  1  0  0  0  0
  4 22  1  0  0  0  0
 10 23  1  0  0  0  0
 12 24  1  0  0  0  0
 12 25  1  0  0  0  0
 12 26  1  0  0  0  0
 14 27  1  0  0  0  0
 15 28  1  0  0  0  0
 16 29  1  0  0  0  0
 16 30  1  0  0  0  0
 16 31  1  0  0  0  0
 17 32  1  0  0  0  0
 17 33  1  0  0  0  0
 17 34  1  0  0  0  0
M  END
> <Name>
14

> <IC50[uM]>
0.84

$$$$
14
  -OEChem-05192314333D
 Structure written by MMmdl.
 34 35  0     1  0  0  0  0  0999 V2000
   -6.3887   12.3647  -12.0798 C   0  0  0  0  0  0  0  0  0  0  0  0
   -6.4962   11.8202  -10.8023 C   0  0  0  0  0  0  0  0  0  0  0  0
   -7.7456   10.5858  -13.0568 C   0  0  0  0  0  0  0  0  0  0  0  0
   -7.0126   11.7716  -13.1776 C   0  0  0  0  0  0  0  0  0  0  0  0
   -7.8340   10.0285  -11.7877 C   0  0  0  0  0  0  0  0  0  0  0  0
   -7.2471   10.6293  -10.6255 C   0  0  3  0  0  0  0  0  0  0  0  0
   -7.6099    9.7738   -9.5366 C   0  0  0  0  0  0  0  0  0  0  0  0
   -8.2971    8.7499   -9.9997 N   0  0  0  0  0  0  0  0  0  0  0  0
   -8.4324    8.8805  -11.3156 N   0  0  0  0  0  0  0  0  0  0  0  0
   -7.3321    9.9039   -8.0386 C   0  0  0  0  0  0  0  0  0  0  0  0
   -4.4077   13.6374  -11.5161 N   0  0  0  0  0  0  0  0  0  0  0  0
   -3.4400   14.7362  -11.5603 C   0  0  0  0  0  0  0  0  0  0  0  0
   -5.5080   13.5935  -12.2349 C   0  0  0  0  0  0  0  0  0  0  0  0
   -5.8585   14.4899  -13.0509 O   0  0  0  0  0  0  0  0  0  0  0  0
   -5.9274   10.4444   -7.6346 C   0  0  0  0  0  0  0  0  0  0  0  0
   -4.7880    9.9988   -8.5813 C   0  0  0  0  0  0  0  0  0  0  0  0
   -5.9224   11.9644   -7.3345 C   0  0  0  0  0  0  0  0  0  0  0  0
   -5.4741   11.6122  -10.4530 H   0  0  0  0  0  0  0  0  0  0  0  0
   -6.9536   12.5884  -10.1614 H   0  0  0  0  0  0  0  0  0  0  0  0
   -8.2205   10.1254  -13.9106 H   0  0  0  0  0  0  0  0  0  0  0  0
   -6.9276   12.2403  -14.1469 H   0  0  0  0  0  0  0  0  0  0  0  0
   -8.1592   11.2235  -10.4675 H   0  0  0  0  0  0  0  0  0  0  0  0
   -8.0714    9.6350   -7.2986 H   0  0  0  0  0  0  0  0  0  0  0  0
   -2.6137   14.5259  -10.8653 H   0  0  0  0  0  0  0  0  0  0  0  0
   -3.0438   14.8348  -12.5817 H   0  0  0  0  0  0  0  0  0  0  0  0
   -3.9359   15.6734  -11.2673 H   0  0  0  0  0  0  0  0  0  0  0  0
   -5.2194   15.1927  -13.0438 H   0  0  0  0  0  0  0  0  0  0  0  0
   -5.7040    9.9624   -6.6714 H   0  0  0  0  0  0  0  0  0  0  0  0
   -3.8338   10.4189   -8.2306 H   0  0  0  0  0  0  0  0  0  0  0  0
   -4.7249    8.9006   -8.5873 H   0  0  0  0  0  0  0  0  0  0  0  0
   -4.9952   10.3598   -9.5995 H   0  0  0  0  0  0  0  0  0  0  0  0
   -4.9060   12.2805   -7.0569 H   0  0  0  0  0  0  0  0  0  0  0  0
   -6.2462   12.5158   -8.2296 H   0  0  0  0  0  0  0  0  0  0  0  0
   -6.6118   12.1763   -6.5040 H   0  0  0  0  0  0  0  0  0  0  0  0
  1  2  1  0  0  0  0
  1  4  2  0  0  0  0
  1 13  1  0  0  0  0
  2  6  1  0  0  0  0
  3  4  1  0  0  0  0
  3  5  2  0  0  0  0
  5  6  1  0  0  0  0
  5  9  1  0  0  0  0
  6  7  1  0  0  0  0
  7  8  1  0  0  0  0
  7 10  2  3  0  0  0
  8  9  2  0  0  0  0
 10 15  1  0  0  0  0
 11 12  1  0  0  0  0
 11 13  2  0  0  0  0
 13 14  1  0  0  0  0
 15 16  1  0  0  0  0
 15 17  1  0  0  0  0
  2 18  1  0  0  0  0
  2 19  1  0  0  0  0
  3 20  1  0  0  0  0
  4 21  1  0  0  0  0
  6 22  1  0  0  0  0
 10 23  1  0  0  0  0
 12 24  1  0  0  0  0
 12 25  1  0  0  0  0
 12 26  1  0  0  0  0
 14 27  1  0  0  0  0
 15 28  1  0  0  0  0
 16 29  1  0  0  0  0
 16 30  1  0  0  0  0
 16 31  1  0  0  0  0
 17 32  1  0  0  0  0
 17 33  1  0  0  0  0
 17 34  1  0  0  0  0
M  END
> <Name>
14

> <IC50[uM]>
0.84

$$$$
14
  -OEChem-05192314333D
 Structure written by MMmdl.
 34 35  0     0  0  0  0  0  0999 V2000
   -6.3887   12.3647  -12.0798 C   0  0  0  0  0  0  0  0  0  0  0  0
   -6.4962   11.8202  -10.8023 C   0  0  0  0  0  0  0  0  0  0  0  0
   -7.7456   10.5858  -13.0568 C   0  0  0  0  0  0  0  0  0  0  0  0
   -7.0126   11.7716  -13.1776 C   0  0  0  0  0  0  0  0  0  0  0  0
   -7.8340   10.0285  -11.7877 C   0  0  0  0  0  0  0  0  0  0  0  0
   -7.2471   10.6293  -10.6255 C   0  0  0  0  0  0  0  0  0  0  0  0
   -7.6099    9.7738   -9.5366 C   0  0  0  0  0  0  0  0  0  0  0  0
   -8.2971    8.7499   -9.9997 N   0  0  0  0  0  0  0  0  0  0  0  0
   -8.4324    8.8805  -11.3156 N   0  0  0  0  0  0  0  0  0  0  0  0
   -7.3321    9.9039   -8.0386 C   0  0  0  0  0  0  0  0  0  0  0  0
   -4.4077   13.6374  -11.5161 N   0  0  0  0  0  0  0  0  0  0  0  0
   -3.4400   14.7362  -11.5603 C   0  0  0  0  0  0  0  0  0  0  0  0
   -5.5080   13.5935  -12.2349 C   0  0  0  0  0  0  0  0  0  0  0  0
   -5.8585   14.4899  -13.0509 O   0  0  0  0  0  0  0  0  0  0  0  0
   -5.9274   10.4444   -7.6346 C   0  0  0  0  0  0  0  0  0  0  0  0
   -4.7880    9.9988   -8.5813 C   0  0  0  0  0  0  0  0  0  0  0  0
   -5.9224   11.9644   -7.3345 C   0  0  0  0  0  0  0  0  0  0  0  0
   -5.4741   11.6122  -10.4530 H   0  0  0  0  0  0  0  0  0  0  0  0
   -6.9536   12.5884  -10.1614 H   0  0  0  0  0  0  0  0  0  0  0  0
   -8.2205   10.1254  -13.9106 H   0  0  0  0  0  0  0  0  0  0  0  0
   -6.9276   12.2403  -14.1469 H   0  0  0  0  0  0  0  0  0  0  0  0
   -8.0859   10.5853   -7.6172 H   0  0  0  0  0  0  0  0  0  0  0  0
   -7.4478    8.9063   -7.5897 H   0  0  0  0  0  0  0  0  0  0  0  0
   -2.6137   14.5259  -10.8653 H   0  0  0  0  0  0  0  0  0  0  0  0
   -3.0438   14.8348  -12.5817 H   0  0  0  0  0  0  0  0  0  0  0  0
   -3.9359   15.6734  -11.2673 H   0  0  0  0  0  0  0  0  0  0  0  0
   -5.2194   15.1927  -13.0438 H   0  0  0  0  0  0  0  0  0  0  0  0
   -5.7040    9.9624   -6.6714 H   0  0  0  0  0  0  0  0  0  0  0  0
   -3.8338   10.4189   -8.2306 H   0  0  0  0  0  0  0  0  0  0  0  0
   -4.7249    8.9006   -8.5873 H   0  0  0  0  0  0  0  0  0  0  0  0
   -4.9952   10.3598   -9.5995 H   0  0  0  0  0  0  0  0  0  0  0  0
   -4.9060   12.2805   -7.0569 H   0  0  0  0  0  0  0  0  0  0  0  0
   -6.2462   12.5158   -8.2296 H   0  0  0  0  0  0  0  0  0  0  0  0
   -6.6118   12.1763   -6.5040 H   0  0  0  0  0  0  0  0  0  0  0  0
  1  2  1  0  0  0  0
  1  4  2  0  0  0  0
  1 13  1  0  0  0  0
  2  6  1  0  0  0  0
  3  4  1  0  0  0  0
  3  5  2  0  0  0  0
  5  6  1  0  0  0  0
  5  9  1  0  0  0  0
  6  7  2  0  0  0  0
  7  8  1  0  0  0  0
  7 10  1  0  0  0  0
  8  9  2  0  0  0  0
 10 15  1  0  0  0  0
 11 12  1  0  0  0  0
 11 13  2  0  0  0  0
 13 14  1  0  0  0  0
 15 16  1  0  0  0  0
 15 17  1  0  0  0  0
  2 18  1  0  0  0  0
  2 19  1  0  0  0  0
  3 20  1  0  0  0  0
  4 21  1  0  0  0  0
 10 22  1  0  0  0  0
 10 23  1  0  0  0  0
 12 24  1  0  0  0  0
 12 25  1  0  0  0  0
 12 26  1  0  0  0  0
 14 27  1  0  0  0  0
 15 28  1  0  0  0  0
 16 29  1  0  0  0  0
 16 30  1  0  0  0  0
 16 31  1  0  0  0  0
 17 32  1  0  0  0  0
 17 33  1  0  0  0  0
 17 34  1  0  0  0  0
M  END
> <Name>
14

> <IC50[uM]>
0.84

$$$$
14
  -OEChem-05192314333D
 Structure written by MMmdl.
 34 35  0     0  0  0  0  0  0999 V2000
   -6.3887   12.3647  -12.0798 C   0  0  0  0  0  0  0  0  0  0  0  0
   -6.4962   11.8202  -10.8023 C   0  0  0  0  0  0  0  0  0  0  0  0
   -7.7456   10.5858  -13.0568 C   0  0  0  0  0  0  0  0  0  0  0  0
   -7.0126   11.7716  -13.1776 C   0  0  0  0  0  0  0  0  0  0  0  0
   -7.8340   10.0285  -11.7877 C   0  0  0  0  0  0  0  0  0  0  0  0
   -7.2471   10.6293  -10.6255 C   0  0  0  0  0  0  0  0  0  0  0  0
   -7.6099    9.7738   -9.5366 C   0  0  0  0  0  0  0  0  0  0  0  0
   -8.2971    8.7499   -9.9997 N   0  0  0  0  0  0  0  0  0  0  0  0
   -8.4324    8.8805  -11.3156 N   0  0  0  0  0  0  0  0  0  0  0  0
   -7.3321    9.9039   -8.0386 C   0  0  0  0  0  0  0  0  0  0  0  0
   -4.4077   13.6374  -11.5161 N   0  0  0  0  0  0  0  0  0  0  0  0
   -3.4400   14.7362  -11.5603 C   0  0  0  0  0  0  0  0  0  0  0  0
   -5.5080   13.5935  -12.2349 C   0  0  0  0  0  0  0  0  0  0  0  0
   -5.8585   14.4899  -13.0509 O   0  0  0  0  0  0  0  0  0  0  0  0
   -5.9274   10.4444   -7.6346 C   0  0  0  0  0  0  0  0  0  0  0  0
   -4.7880    9.9988   -8.5813 C   0  0  0  0  0  0  0  0  0  0  0  0
   -5.9224   11.9644   -7.3345 C   0  0  0  0  0  0  0  0  0  0  0  0
   -5.4741   11.6122  -10.4530 H   0  0  0  0  0  0  0  0  0  0  0  0
   -6.9536   12.5884  -10.1614 H   0  0  0  0  0  0  0  0  0  0  0  0
   -8.7697   10.7916  -13.4015 H   0  0  0  0  0  0  0  0  0  0  0  0
   -7.2799    9.8386  -13.7162 H   0  0  0  0  0  0  0  0  0  0  0  0
   -6.9276   12.2403  -14.1469 H   0  0  0  0  0  0  0  0  0  0  0  0
   -8.0714    9.6350   -7.2986 H   0  0  0  0  0  0  0  0  0  0  0  0
   -2.6137   14.5259  -10.8653 H   0  0  0  0  0  0  0  0  0  0  0  0
   -3.0438   14.8348  -12.5817 H   0  0  0  0  0  0  0  0  0  0  0  0
   -3.9359   15.6734  -11.2673 H   0  0  0  0  0  0  0  0  0  0  0  0
   -5.2194   15.1927  -13.0438 H   0  0  0  0  0  0  0  0  0  0  0  0
   -5.7040    9.9624   -6.6714 H   0  0  0  0  0  0  0  0  0  0  0  0
   -3.8338   10.4189   -8.2306 H   0  0  0  0  0  0  0  0  0  0  0  0
   -4.7249    8.9006   -8.5873 H   0  0  0  0  0  0  0  0  0  0  0  0
   -4.9952   10.3598   -9.5995 H   0  0  0  0  0  0  0  0  0  0  0  0
   -4.9060   12.2805   -7.0569 H   0  0  0  0  0  0  0  0  0  0  0  0
   -6.2462   12.5158   -8.2296 H   0  0  0  0  0  0  0  0  0  0  0  0
   -6.6118   12.1763   -6.5040 H   0  0  0  0  0  0  0  0  0  0  0  0
  1  2  1  0  0  0  0
  1  4  2  0  0  0  0
  1 13  1  0  0  0  0
  2  6  1  0  0  0  0
  3  4  1  0  0  0  0
  3  5  1  0  0  0  0
  5  6  2  0  0  0  0
  5  9  1  0  0  0  0
  6  7  1  0  0  0  0
  7  8  1  0  0  0  0
  7 10  2  3  0  0  0
  8  9  2  0  0  0  0
 10 15  1  0  0  0  0
 11 12  1  0  0  0  0
 11 13  2  0  0  0  0
 13 14  1  0  0  0  0
 15 16  1  0  0  0  0
 15 17  1  0  0  0  0
  2 18  1  0  0  0  0
  2 19  1  0  0  0  0
  3 20  1  0  0  0  0
  3 21  1  0  0  0  0
  4 22  1  0  0  0  0
 10 23  1  0  0  0  0
 12 24  1  0  0  0  0
 12 25  1  0  0  0  0
 12 26  1  0  0  0  0
 14 27  1  0  0  0  0
 15 28  1  0  0  0  0
 16 29  1  0  0  0  0
 16 30  1  0  0  0  0
 16 31  1  0  0  0  0
 17 32  1  0  0  0  0
 17 33  1  0  0  0  0
 17 34  1  0  0  0  0
M  END
> <Name>
14

> <IC50[uM]>
0.84

$$$$
14
  -OEChem-05192314333D
 Structure written by MMmdl.
 34 35  0     1  0  0  0  0  0999 V2000
   -6.3887   12.3647  -12.0798 C   0  0  0  0  0  0  0  0  0  0  0  0
   -6.4962   11.8202  -10.8023 C   0  0  0  0  0  0  0  0  0  0  0  0
   -7.7456   10.5858  -13.0568 C   0  0  0  0  0  0  0  0  0  0  0  0
   -7.0126   11.7716  -13.1776 C   0  0  0  0  0  0  0  0  0  0  0  0
   -7.8340   10.0285  -11.7877 C   0  0  0  0  0  0  0  0  0  0  0  0
   -7.2471   10.6293  -10.6255 C   0  0  3  0  0  0  0  0  0  0  0  0
   -7.6099    9.7738   -9.5366 C   0  0  0  0  0  0  0  0  0  0  0  0
   -8.2971    8.7499   -9.9997 N   0  0  0  0  0  0  0  0  0  0  0  0
   -8.4324    8.8805  -11.3156 N   0  0  0  0  0  0  0  0  0  0  0  0
   -7.3321    9.9039   -8.0386 C   0  0  0  0  0  0  0  0  0  0  0  0
   -4.4077   13.6374  -11.5161 N   0  0  0  0  0  0  0  0  0  0  0  0
   -3.4400   14.7362  -11.5603 C   0  0  0  0  0  0  0  0  0  0  0  0
   -5.5080   13.5935  -12.2349 C   0  0  0  0  0  0  0  0  0  0  0  0
   -5.8585   14.4899  -13.0509 O   0  0  0  0  0  0  0  0  0  0  0  0
   -5.9274   10.4444   -7.6346 C   0  0  0  0  0  0  0  0  0  0  0  0
   -4.7880    9.9988   -8.5813 C   0  0  0  0  0  0  0  0  0  0  0  0
   -5.9224   11.9644   -7.3345 C   0  0  0  0  0  0  0  0  0  0  0  0
   -6.0160   12.2965   -9.9603 H   0  0  0  0  0  0  0  0  0  0  0  0
   -8.2205   10.1254  -13.9106 H   0  0  0  0  0  0  0  0  0  0  0  0
   -6.9276   12.2403  -14.1469 H   0  0  0  0  0  0  0  0  0  0  0  0
   -8.1592   11.2235  -10.4675 H   0  0  0  0  0  0  0  0  0  0  0  0
   -8.6584    7.9965   -9.4504 H   0  0  0  0  0  0  0  0  0  0  0  0
   -8.0714    9.6350   -7.2986 H   0  0  0  0  0  0  0  0  0  0  0  0
   -2.6137   14.5259  -10.8653 H   0  0  0  0  0  0  0  0  0  0  0  0
   -3.0438   14.8348  -12.5817 H   0  0  0  0  0  0  0  0  0  0  0  0
   -3.9359   15.6734  -11.2673 H   0  0  0  0  0  0  0  0  0  0  0  0
   -5.2194   15.1927  -13.0438 H   0  0  0  0  0  0  0  0  0  0  0  0
   -5.7040    9.9624   -6.6714 H   0  0  0  0  0  0  0  0  0  0  0  0
   -3.8338   10.4189   -8.2306 H   0  0  0  0  0  0  0  0  0  0  0  0
   -4.7249    8.9006   -8.5873 H   0  0  0  0  0  0  0  0  0  0  0  0
   -4.9952   10.3598   -9.5995 H   0  0  0  0  0  0  0  0  0  0  0  0
   -4.9060   12.2805   -7.0569 H   0  0  0  0  0  0  0  0  0  0  0  0
   -6.2462   12.5158   -8.2296 H   0  0  0  0  0  0  0  0  0  0  0  0
   -6.6118   12.1763   -6.5040 H   0  0  0  0  0  0  0  0  0  0  0  0
  1  2  2  0  0  0  0
  1  4  1  0  0  0  0
  1 13  1  0  0  0  0
  2  6  1  0  0  0  0
  3  4  2  0  0  0  0
  3  5  1  0  0  0  0
  5  6  1  0  0  0  0
  5  9  2  0  0  0  0
  6  7  1  0  0  0  0
  7  8  1  0  0  0  0
  7 10  2  3  0  0  0
  8  9  1  0  0  0  0
 10 15  1  0  0  0  0
 11 12  1  0  0  0  0
 11 13  2  0  0  0  0
 13 14  1  0  0  0  0
 15 16  1  0  0  0  0
 15 17  1  0  0  0  0
  2 18  1  0  0  0  0
  3 19  1  0  0  0  0
  4 20  1  0  0  0  0
  6 21  1  0  0  0  0
  8 22  1  0  0  0  0
 10 23  1  0  0  0  0
 12 24  1  0  0  0  0
 12 25  1  0  0  0  0
 12 26  1  0  0  0  0
 14 27  1  0  0  0  0
 15 28  1  0  0  0  0
 16 29  1  0  0  0  0
 16 30  1  0  0  0  0
 16 31  1  0  0  0  0
 17 32  1  0  0  0  0
 17 33  1  0  0  0  0
 17 34  1  0  0  0  0
M  END
> <Name>
14

> <IC50[uM]>
0.84

$$$$
14
  -OEChem-05192314333D
 Structure written by MMmdl.
 34 35  0     0  0  0  0  0  0999 V2000
   -6.3887   12.3647  -12.0798 C   0  0  0  0  0  0  0  0  0  0  0  0
   -6.4962   11.8202  -10.8023 C   0  0  0  0  0  0  0  0  0  0  0  0
   -7.7456   10.5858  -13.0568 C   0  0  0  0  0  0  0  0  0  0  0  0
   -7.0126   11.7716  -13.1776 C   0  0  0  0  0  0  0  0  0  0  0  0
   -7.8340   10.0285  -11.7877 C   0  0  0  0  0  0  0  0  0  0  0  0
   -7.2471   10.6293  -10.6255 C   0  0  0  0  0  0  0  0  0  0  0  0
   -7.6099    9.7738   -9.5366 C   0  0  0  0  0  0  0  0  0  0  0  0
   -8.2971    8.7499   -9.9997 N   0  0  0  0  0  0  0  0  0  0  0  0
   -8.4324    8.8805  -11.3156 N   0  0  0  0  0  0  0  0  0  0  0  0
   -7.3321    9.9039   -8.0386 C   0  0  0  0  0  0  0  0  0  0  0  0
   -4.4077   13.6374  -11.5161 N   0  0  0  0  0  0  0  0  0  0  0  0
   -3.4400   14.7362  -11.5603 C   0  0  0  0  0  0  0  0  0  0  0  0
   -5.5080   13.5935  -12.2349 C   0  0  0  0  0  0  0  0  0  0  0  0
   -5.8585   14.4899  -13.0509 O   0  0  0  0  0  0  0  0  0  0  0  0
   -5.9274   10.4444   -7.6346 C   0  0  0  0  0  0  0  0  0  0  0  0
   -4.7880    9.9988   -8.5813 C   0  0  0  0  0  0  0  0  0  0  0  0
   -5.9224   11.9644   -7.3345 C   0  0  0  0  0  0  0  0  0  0  0  0
   -6.0160   12.2965   -9.9603 H   0  0  0  0  0  0  0  0  0  0  0  0
   -8.2205   10.1254  -13.9106 H   0  0  0  0  0  0  0  0  0  0  0  0
   -6.9276   12.2403  -14.1469 H   0  0  0  0  0  0  0  0  0  0  0  0
   -8.6584    7.9965   -9.4504 H   0  0  0  0  0  0  0  0  0  0  0  0
   -8.0714    9.6350   -7.2986 H   0  0  0  0  0  0  0  0  0  0  0  0
   -3.8936   12.8145  -11.7580 H   0  0  0  0  0  0  0  0  0  0  0  0
   -2.6137   14.5259  -10.8653 H   0  0  0  0  0  0  0  0  0  0  0  0
   -3.0438   14.8348  -12.5817 H   0  0  0  0  0  0  0  0  0  0  0  0
   -3.9359   15.6734  -11.2673 H   0  0  0  0  0  0  0  0  0  0  0  0
   -5.2194   15.1927  -13.0438 H   0  0  0  0  0  0  0  0  0  0  0  0
   -5.7040    9.9624   -6.6714 H   0  0  0  0  0  0  0  0  0  0  0  0
   -3.8338   10.4189   -8.2306 H   0  0  0  0  0  0  0  0  0  0  0  0
   -4.7249    8.9006   -8.5873 H   0  0  0  0  0  0  0  0  0  0  0  0
   -4.9952   10.3598   -9.5995 H   0  0  0  0  0  0  0  0  0  0  0  0
   -4.9060   12.2805   -7.0569 H   0  0  0  0  0  0  0  0  0  0  0  0
   -6.2462   12.5158   -8.2296 H   0  0  0  0  0  0  0  0  0  0  0  0
   -6.6118   12.1763   -6.5040 H   0  0  0  0  0  0  0  0  0  0  0  0
  1  2  1  0  0  0  0
  1  4  1  0  0  0  0
  1 13  2  3  0  0  0
  2  6  2  0  0  0  0
  3  4  2  0  0  0  0
  3  5  1  0  0  0  0
  5  6  1  0  0  0  0
  5  9  2  0  0  0  0
  6  7  1  0  0  0  0
  7  8  1  0  0  0  0
  7 10  2  3  0  0  0
  8  9  1  0  0  0  0
 10 15  1  0  0  0  0
 11 12  1  0  0  0  0
 11 13  1  0  0  0  0
 13 14  1  0  0  0  0
 15 16  1  0  0  0  0
 15 17  1  0  0  0  0
  2 18  1  0  0  0  0
  3 19  1  0  0  0  0
  4 20  1  0  0  0  0
  8 21  1  0  0  0  0
 10 22  1  0  0  0  0
 11 23  1  0  0  0  0
 12 24  1  0  0  0  0
 12 25  1  0  0  0  0
 12 26  1  0  0  0  0
 14 27  1  0  0  0  0
 15 28  1  0  0  0  0
 16 29  1  0  0  0  0
 16 30  1  0  0  0  0
 16 31  1  0  0  0  0
 17 32  1  0  0  0  0
 17 33  1  0  0  0  0
 17 34  1  0  0  0  0
M  END
> <Name>
14

> <IC50[uM]>
0.84

$$$$
14
  -OEChem-05192314333D
 Structure written by MMmdl.
 34 35  0     1  0  0  0  0  0999 V2000
   -6.3887   12.3647  -12.0798 C   0  0  0  0  0  0  0  0  0  0  0  0
   -6.4962   11.8202  -10.8023 C   0  0  0  0  0  0  0  0  0  0  0  0
   -7.7456   10.5858  -13.0568 C   0  0  0  0  0  0  0  0  0  0  0  0
   -7.0126   11.7716  -13.1776 C   0  0  0  0  0  0  0  0  0  0  0  0
   -7.8340   10.0285  -11.7877 C   0  0  0  0  0  0  0  0  0  0  0  0
   -7.2471   10.6293  -10.6255 C   0  0  0  0  0  0  0  0  0  0  0  0
   -7.6099    9.7738   -9.5366 C   0  0  0  0  0  0  0  0  0  0  0  0
   -8.2971    8.7499   -9.9997 N   0  0  0  0  0  0  0  0  0  0  0  0
   -8.4324    8.8805  -11.3156 N   0  0  0  0  0  0  0  0  0  0  0  0
   -7.3321    9.9039   -8.0386 C   0  0  0  0  0  0  0  0  0  0  0  0
   -4.4077   13.6374  -11.5161 N   0  0  0  0  0  0  0  0  0  0  0  0
   -3.4400   14.7362  -11.5603 C   0  0  0  0  0  0  0  0  0  0  0  0
   -5.5080   13.5935  -12.2349 C   0  0  3  0  0  0  0  0  0  0  0  0
   -5.8585   14.4899  -13.0509 O   0  0  0  0  0  0  0  0  0  0  0  0
   -5.9274   10.4444   -7.6346 C   0  0  0  0  0  0  0  0  0  0  0  0
   -4.7880    9.9988   -8.5813 C   0  0  0  0  0  0  0  0  0  0  0  0
   -5.9224   11.9644   -7.3345 C   0  0  0  0  0  0  0  0  0  0  0  0
   -6.0160   12.2965   -9.9603 H   0  0  0  0  0  0  0  0  0  0  0  0
   -8.2205   10.1254  -13.9106 H   0  0  0  0  0  0  0  0  0  0  0  0
   -6.9276   12.2403  -14.1469 H   0  0  0  0  0  0  0  0  0  0  0  0
   -8.0714    9.6350   -7.2986 H   0  0  0  0  0  0  0  0  0  0  0  0
   -3.8936   12.8145  -11.7580 H   0  0  0  0  0  0  0  0  0  0  0  0
   -2.6137   14.5259  -10.8653 H   0  0  0  0  0  0  0  0  0  0  0  0
   -3.0438   14.8348  -12.5817 H   0  0  0  0  0  0  0  0  0  0  0  0
   -3.9359   15.6734  -11.2673 H   0  0  0  0  0  0  0  0  0  0  0  0
   -6.0619   14.0993  -11.4303 H   0  0  0  0  0  0  0  0  0  0  0  0
   -5.2194   15.1927  -13.0438 H   0  0  0  0  0  0  0  0  0  0  0  0
   -5.7040    9.9624   -6.6714 H   0  0  0  0  0  0  0  0  0  0  0  0
   -3.8338   10.4189   -8.2306 H   0  0  0  0  0  0  0  0  0  0  0  0
   -4.7249    8.9006   -8.5873 H   0  0  0  0  0  0  0  0  0  0  0  0
   -4.9952   10.3598   -9.5995 H   0  0  0  0  0  0  0  0  0  0  0  0
   -4.9060   12.2805   -7.0569 H   0  0  0  0  0  0  0  0  0  0  0  0
   -6.2462   12.5158   -8.2296 H   0  0  0  0  0  0  0  0  0  0  0  0
   -6.6118   12.1763   -6.5040 H   0  0  0  0  0  0  0  0  0  0  0  0
  1  2  2  0  0  0  0
  1  4  1  0  0  0  0
  1 13  1  0  0  0  0
  2  6  1  0  0  0  0
  3  4  2  0  0  0  0
  3  5  1  0  0  0  0
  5  6  2  0  0  0  0
  5  9  1  0  0  0  0
  6  7  1  0  0  0  0
  7  8  1  0  0  0  0
  7 10  2  3  0  0  0
  8  9  2  0  0  0  0
 10 15  1  0  0  0  0
 11 12  1  0  0  0  0
 11 13  1  0  0  0  0
 13 14  1  0  0  0  0
 15 16  1  0  0  0  0
 15 17  1  0  0  0  0
  2 18  1  0  0  0  0
  3 19  1  0  0  0  0
  4 20  1  0  0  0  0
 10 21  1  0  0  0  0
 11 22  1  0  0  0  0
 12 23  1  0  0  0  0
 12 24  1  0  0  0  0
 12 25  1  0  0  0  0
 13 26  1  0  0  0  0
 14 27  1  0  0  0  0
 15 28  1  0  0  0  0
 16 29  1  0  0  0  0
 16 30  1  0  0  0  0
 16 31  1  0  0  0  0
 17 32  1  0  0  0  0
 17 33  1  0  0  0  0
 17 34  1  0  0  0  0
M  END
> <Name>
14

> <IC50[uM]>
0.84

$$$$
14
  -OEChem-05192314333D
 Structure written by MMmdl.
 34 35  0     0  0  0  0  0  0999 V2000
   -6.3887   12.3647  -12.0798 C   0  0  0  0  0  0  0  0  0  0  0  0
   -6.4962   11.8202  -10.8023 C   0  0  0  0  0  0  0  0  0  0  0  0
   -7.7456   10.5858  -13.0568 C   0  0  0  0  0  0  0  0  0  0  0  0
   -7.0126   11.7716  -13.1776 C   0  0  0  0  0  0  0  0  0  0  0  0
   -7.8340   10.0285  -11.7877 C   0  0  0  0  0  0  0  0  0  0  0  0
   -7.2471   10.6293  -10.6255 C   0  0  0  0  0  0  0  0  0  0  0  0
   -7.6099    9.7738   -9.5366 C   0  0  0  0  0  0  0  0  0  0  0  0
   -8.2971    8.7499   -9.9997 N   0  0  0  0  0  0  0  0  0  0  0  0
   -8.4324    8.8805  -11.3156 N   0  0  0  0  0  0  0  0  0  0  0  0
   -7.3321    9.9039   -8.0386 C   0  0  0  0  0  0  0  0  0  0  0  0
   -4.4077   13.6374  -11.5161 N   0  0  0  0  0  0  0  0  0  0  0  0
   -3.4400   14.7362  -11.5603 C   0  0  0  0  0  0  0  0  0  0  0  0
   -5.5080   13.5935  -12.2349 C   0  0  0  0  0  0  0  0  0  0  0  0
   -5.8585   14.4899  -13.0509 O   0  0  0  0  0  0  0  0  0  0  0  0
   -5.9274   10.4444   -7.6346 C   0  0  0  0  0  0  0  0  0  0  0  0
   -4.7880    9.9988   -8.5813 C   0  0  0  0  0  0  0  0  0  0  0  0
   -5.9224   11.9644   -7.3345 C   0  0  0  0  0  0  0  0  0  0  0  0
   -6.0160   12.2965   -9.9603 H   0  0  0  0  0  0  0  0  0  0  0  0
   -8.2205   10.1254  -13.9106 H   0  0  0  0  0  0  0  0  0  0  0  0
   -6.9276   12.2403  -14.1469 H   0  0  0  0  0  0  0  0  0  0  0  0
   -8.0859   10.5853   -7.6172 H   0  0  0  0  0  0  0  0  0  0  0  0
   -7.4478    8.9063   -7.5897 H   0  0  0  0  0  0  0  0  0  0  0  0
   -3.8936   12.8145  -11.7580 H   0  0  0  0  0  0  0  0  0  0  0  0
   -2.6137   14.5259  -10.8653 H   0  0  0  0  0  0  0  0  0  0  0  0
   -3.0438   14.8348  -12.5817 H   0  0  0  0  0  0  0  0  0  0  0  0
   -3.9359   15.6734  -11.2673 H   0  0  0  0  0  0  0  0  0  0  0  0
   -5.2194   15.1927  -13.0438 H   0  0  0  0  0  0  0  0  0  0  0  0
   -5.7040    9.9624   -6.6714 H   0  0  0  0  0  0  0  0  0  0  0  0
   -3.8338   10.4189   -8.2306 H   0  0  0  0  0  0  0  0  0  0  0  0
   -4.7249    8.9006   -8.5873 H   0  0  0  0  0  0  0  0  0  0  0  0
   -4.9952   10.3598   -9.5995 H   0  0  0  0  0  0  0  0  0  0  0  0
   -4.9060   12.2805   -7.0569 H   0  0  0  0  0  0  0  0  0  0  0  0
   -6.2462   12.5158   -8.2296 H   0  0  0  0  0  0  0  0  0  0  0  0
   -6.6118   12.1763   -6.5040 H   0  0  0  0  0  0  0  0  0  0  0  0
  1  2  1  0  0  0  0
  1  4  1  0  0  0  0
  1 13  2  3  0  0  0
  2  6  2  0  0  0  0
  3  4  2  0  0  0  0
  3  5  1  0  0  0  0
  5  6  1  0  0  0  0
  5  9  2  0  0  0  0
  6  7  1  0  0  0  0
  7  8  2  0  0  0  0
  7 10  1  0  0  0  0
  8  9  1  0  0  0  0
 10 15  1  0  0  0  0
 11 12  1  0  0  0  0
 11 13  1  0  0  0  0
 13 14  1  0  0  0  0
 15 16  1  0  0  0  0
 15 17  1  0  0  0  0
  2 18  1  0  0  0  0
  3 19  1  0  0  0  0
  4 20  1  0  0  0  0
 10 21  1  0  0  0  0
 10 22  1  0  0  0  0
 11 23  1  0  0  0  0
 12 24  1  0  0  0  0
 12 25  1  0  0  0  0
 12 26  1  0  0  0  0
 14 27  1  0  0  0  0
 15 28  1  0  0  0  0
 16 29  1  0  0  0  0
 16 30  1  0  0  0  0
 16 31  1  0  0  0  0
 17 32  1  0  0  0  0
 17 33  1  0  0  0  0
 17 34  1  0  0  0  0
M  END
> <Name>
14

> <IC50[uM]>
0.84

$$$$
14
  -OEChem-05192314333D
 Structure written by MMmdl.
 34 35  0     1  0  0  0  0  0999 V2000
   -6.3887   12.3647  -12.0798 C   0  0  0  0  0  0  0  0  0  0  0  0
   -6.4962   11.8202  -10.8023 C   0  0  0  0  0  0  0  0  0  0  0  0
   -7.7456   10.5858  -13.0568 C   0  0  0  0  0  0  0  0  0  0  0  0
   -7.0126   11.7716  -13.1776 C   0  0  0  0  0  0  0  0  0  0  0  0
   -7.8340   10.0285  -11.7877 C   0  0  3  0  0  0  0  0  0  0  0  0
   -7.2471   10.6293  -10.6255 C   0  0  0  0  0  0  0  0  0  0  0  0
   -7.6099    9.7738   -9.5366 C   0  0  0  0  0  0  0  0  0  0  0  0
   -8.2971    8.7499   -9.9997 N   0  0  0  0  0  0  0  0  0  0  0  0
   -8.4324    8.8805  -11.3156 N   0  0  0  0  0  0  0  0  0  0  0  0
   -7.3321    9.9039   -8.0386 C   0  0  0  0  0  0  0  0  0  0  0  0
   -4.4077   13.6374  -11.5161 N   0  0  0  0  0  0  0  0  0  0  0  0
   -3.4400   14.7362  -11.5603 C   0  0  0  0  0  0  0  0  0  0  0  0
   -5.5080   13.5935  -12.2349 C   0  0  0  0  0  0  0  0  0  0  0  0
   -5.8585   14.4899  -13.0509 O   0  0  0  0  0  0  0  0  0  0  0  0
   -5.9274   10.4444   -7.6346 C   0  0  0  0  0  0  0  0  0  0  0  0
   -4.7880    9.9988   -8.5813 C   0  0  0  0  0  0  0  0  0  0  0  0
   -5.9224   11.9644   -7.3345 C   0  0  0  0  0  0  0  0  0  0  0  0
   -6.0160   12.2965   -9.9603 H   0  0  0  0  0  0  0  0  0  0  0  0
   -8.2205   10.1254  -13.9106 H   0  0  0  0  0  0  0  0  0  0  0  0
   -6.9276   12.2403  -14.1469 H   0  0  0  0  0  0  0  0  0  0  0  0
   -6.9040    9.4695  -11.9684 H   0  0  0  0  0  0  0  0  0  0  0  0
   -8.0714    9.6350   -7.2986 H   0  0  0  0  0  0  0  0  0  0  0  0
   -3.8936   12.8145  -11.7580 H   0  0  0  0  0  0  0  0  0  0  0  0
   -2.6137   14.5259  -10.8653 H   0  0  0  0  0  0  0  0  0  0  0  0
   -3.0438   14.8348  -12.5817 H   0  0  0  0  0  0  0  0  0  0  0  0
   -3.9359   15.6734  -11.2673 H   0  0  0  0  0  0  0  0  0  0  0  0
   -5.2194   15.1927  -13.0438 H   0  0  0  0  0  0  0  0  0  0  0  0
   -5.7040    9.9624   -6.6714 H   0  0  0  0  0  0  0  0  0  0  0  0
   -3.8338   10.4189   -8.2306 H   0  0  0  0  0  0  0  0  0  0  0  0
   -4.7249    8.9006   -8.5873 H   0  0  0  0  0  0  0  0  0  0  0  0
   -4.9952   10.3598   -9.5995 H   0  0  0  0  0  0  0  0  0  0  0  0
   -4.9060   12.2805   -7.0569 H   0  0  0  0  0  0  0  0  0  0  0  0
   -6.2462   12.5158   -8.2296 H   0  0  0  0  0  0  0  0  0  0  0  0
   -6.6118   12.1763   -6.5040 H   0  0  0  0  0  0  0  0  0  0  0  0
  1  2  1  0  0  0  0
  1  4  1  0  0  0  0
  1 13  2  3  0  0  0
  2  6  2  0  0  0  0
  3  4  2  0  0  0  0
  3  5  1  0  0  0  0
  5  6  1  0  0  0  0
  5  9  1  0  0  0  0
  6  7  1  0  0  0  0
  7  8  1  0  0  0  0
  7 10  2  3  0  0  0
  8  9  2  0  0  0  0
 10 15  1  0  0  0  0
 11 12  1  0  0  0  0
 11 13  1  0  0  0  0
 13 14  1  0  0  0  0
 15 16  1  0  0  0  0
 15 17  1  0  0  0  0
  2 18  1  0  0  0  0
  3 19  1  0  0  0  0
  4 20  1  0  0  0  0
  5 21  1  0  0  0  0
 10 22  1  0  0  0  0
 11 23  1  0  0  0  0
 12 24  1  0  0  0  0
 12 25  1  0  0  0  0
 12 26  1  0  0  0  0
 14 27  1  0  0  0  0
 15 28  1  0  0  0  0
 16 29  1  0  0  0  0
 16 30  1  0  0  0  0
 16 31  1  0  0  0  0
 17 32  1  0  0  0  0
 17 33  1  0  0  0  0
 17 34  1  0  0  0  0
M  END
> <Name>
14

> <IC50[uM]>
0.84

$$$$
14
  -OEChem-05192314333D
 Structure written by MMmdl.
 34 35  0     0  0  0  0  0  0999 V2000
   -6.3887   12.3647  -12.0798 C   0  0  0  0  0  0  0  0  0  0  0  0
   -6.4962   11.8202  -10.8023 C   0  0  0  0  0  0  0  0  0  0  0  0
   -7.7456   10.5858  -13.0568 C   0  0  0  0  0  0  0  0  0  0  0  0
   -7.0126   11.7716  -13.1776 C   0  0  0  0  0  0  0  0  0  0  0  0
   -7.8340   10.0285  -11.7877 C   0  0  0  0  0  0  0  0  0  0  0  0
   -7.2471   10.6293  -10.6255 C   0  0  0  0  0  0  0  0  0  0  0  0
   -7.6099    9.7738   -9.5366 C   0  0  0  0  0  0  0  0  0  0  0  0
   -8.2971    8.7499   -9.9997 N   0  0  0  0  0  0  0  0  0  0  0  0
   -8.4324    8.8805  -11.3156 N   0  0  0  0  0  0  0  0  0  0  0  0
   -7.3321    9.9039   -8.0386 C   0  0  0  0  0  0  0  0  0  0  0  0
   -4.4077   13.6374  -11.5161 N   0  0  0  0  0  0  0  0  0  0  0  0
   -3.4400   14.7362  -11.5603 C   0  0  0  0  0  0  0  0  0  0  0  0
   -5.5080   13.5935  -12.2349 C   0  0  0  0  0  0  0  0  0  0  0  0
   -5.8585   14.4899  -13.0509 O   0  0  0  0  0  0  0  0  0  0  0  0
   -5.9274   10.4444   -7.6346 C   0  0  0  0  0  0  0  0  0  0  0  0
   -4.7880    9.9988   -8.5813 C   0  0  0  0  0  0  0  0  0  0  0  0
   -5.9224   11.9644   -7.3345 C   0  0  0  0  0  0  0  0  0  0  0  0
   -6.0160   12.2965   -9.9603 H   0  0  0  0  0  0  0  0  0  0  0  0
   -8.2205   10.1254  -13.9106 H   0  0  0  0  0  0  0  0  0  0  0  0
   -7.7059   12.5235  -13.5825 H   0  0  0  0  0  0  0  0  0  0  0  0
   -6.2193   11.5709  -13.9127 H   0  0  0  0  0  0  0  0  0  0  0  0
   -8.0714    9.6350   -7.2986 H   0  0  0  0  0  0  0  0  0  0  0  0
   -3.8936   12.8145  -11.7580 H   0  0  0  0  0  0  0  0  0  0  0  0
   -2.6137   14.5259  -10.8653 H   0  0  0  0  0  0  0  0  0  0  0  0
   -3.0438   14.8348  -12.5817 H   0  0  0  0  0  0  0  0  0  0  0  0
   -3.9359   15.6734  -11.2673 H   0  0  0  0  0  0  0  0  0  0  0  0
   -5.2194   15.1927  -13.0438 H   0  0  0  0  0  0  0  0  0  0  0  0
   -5.7040    9.9624   -6.6714 H   0  0  0  0  0  0  0  0  0  0  0  0
   -3.8338   10.4189   -8.2306 H   0  0  0  0  0  0  0  0  0  0  0  0
   -4.7249    8.9006   -8.5873 H   0  0  0  0  0  0  0  0  0  0  0  0
   -4.9952   10.3598   -9.5995 H   0  0  0  0  0  0  0  0  0  0  0  0
   -4.9060   12.2805   -7.0569 H   0  0  0  0  0  0  0  0  0  0  0  0
   -6.2462   12.5158   -8.2296 H   0  0  0  0  0  0  0  0  0  0  0  0
   -6.6118   12.1763   -6.5040 H   0  0  0  0  0  0  0  0  0  0  0  0
  1  2  1  0  0  0  0
  1  4  1  0  0  0  0
  1 13  2  3  0  0  0
  2  6  2  0  0  0  0
  3  4  1  0  0  0  0
  3  5  2  0  0  0  0
  5  6  1  0  0  0  0
  5  9  1  0  0  0  0
  6  7  1  0  0  0  0
  7  8  1  0  0  0  0
  7 10  2  3  0  0  0
  8  9  2  0  0  0  0
 10 15  1  0  0  0  0
 11 12  1  0  0  0  0
 11 13  1  0  0  0  0
 13 14  1  0  0  0  0
 15 16  1  0  0  0  0
 15 17  1  0  0  0  0
  2 18  1  0  0  0  0
  3 19  1  0  0  0  0
  4 20  1  0  0  0  0
  4 21  1  0  0  0  0
 10 22  1  0  0  0  0
 11 23  1  0  0  0  0
 12 24  1  0  0  0  0
 12 25  1  0  0  0  0
 12 26  1  0  0  0  0
 14 27  1  0  0  0  0
 15 28  1  0  0  0  0
 16 29  1  0  0  0  0
 16 30  1  0  0  0  0
 16 31  1  0  0  0  0
 17 32  1  0  0  0  0
 17 33  1  0  0  0  0
 17 34  1  0  0  0  0
M  END
> <Name>
14

> <IC50[uM]>
0.84

$$$$
14
  -OEChem-05192314333D
 Structure written by MMmdl.
 34 35  0     0  0  0  0  0  0999 V2000
   -6.3887   12.3647  -12.0798 C   0  0  0  0  0  0  0  0  0  0  0  0
   -6.4962   11.8202  -10.8023 C   0  0  0  0  0  0  0  0  0  0  0  0
   -7.7456   10.5858  -13.0568 C   0  0  0  0  0  0  0  0  0  0  0  0
   -7.0126   11.7716  -13.1776 C   0  0  0  0  0  0  0  0  0  0  0  0
   -7.8340   10.0285  -11.7877 C   0  0  0  0  0  0  0  0  0  0  0  0
   -7.2471   10.6293  -10.6255 C   0  0  0  0  0  0  0  0  0  0  0  0
   -7.6099    9.7738   -9.5366 C   0  0  0  0  0  0  0  0  0  0  0  0
   -8.2971    8.7499   -9.9997 N   0  0  0  0  0  0  0  0  0  0  0  0
   -8.4324    8.8805  -11.3156 N   0  0  0  0  0  0  0  0  0  0  0  0
   -7.3321    9.9039   -8.0386 C   0  0  0  0  0  0  0  0  0  0  0  0
   -4.4077   13.6374  -11.5161 N   0  0  0  0  0  0  0  0  0  0  0  0
   -3.4400   14.7362  -11.5603 C   0  0  0  0  0  0  0  0  0  0  0  0
   -5.5080   13.5935  -12.2349 C   0  0  0  0  0  0  0  0  0  0  0  0
   -5.8585   14.4899  -13.0509 O   0  0  0  0  0  0  0  0  0  0  0  0
   -5.9274   10.4444   -7.6346 C   0  0  0  0  0  0  0  0  0  0  0  0
   -4.7880    9.9988   -8.5813 C   0  0  0  0  0  0  0  0  0  0  0  0
   -5.9224   11.9644   -7.3345 C   0  0  0  0  0  0  0  0  0  0  0  0
   -5.4741   11.6122  -10.4530 H   0  0  0  0  0  0  0  0  0  0  0  0
   -6.9536   12.5884  -10.1614 H   0  0  0  0  0  0  0  0  0  0  0  0
   -8.2205   10.1254  -13.9106 H   0  0  0  0  0  0  0  0  0  0  0  0
   -6.9276   12.2403  -14.1469 H   0  0  0  0  0  0  0  0  0  0  0  0
   -8.0714    9.6350   -7.2986 H   0  0  0  0  0  0  0  0  0  0  0  0
   -3.8936   12.8145  -11.7580 H   0  0  0  0  0  0  0  0  0  0  0  0
   -2.6137   14.5259  -10.8653 H   0  0  0  0  0  0  0  0  0  0  0  0
   -3.0438   14.8348  -12.5817 H   0  0  0  0  0  0  0  0  0  0  0  0
   -3.9359   15.6734  -11.2673 H   0  0  0  0  0  0  0  0  0  0  0  0
   -5.2194   15.1927  -13.0438 H   0  0  0  0  0  0  0  0  0  0  0  0
   -5.7040    9.9624   -6.6714 H   0  0  0  0  0  0  0  0  0  0  0  0
   -3.8338   10.4189   -8.2306 H   0  0  0  0  0  0  0  0  0  0  0  0
   -4.7249    8.9006   -8.5873 H   0  0  0  0  0  0  0  0  0  0  0  0
   -4.9952   10.3598   -9.5995 H   0  0  0  0  0  0  0  0  0  0  0  0
   -4.9060   12.2805   -7.0569 H   0  0  0  0  0  0  0  0  0  0  0  0
   -6.2462   12.5158   -8.2296 H   0  0  0  0  0  0  0  0  0  0  0  0
   -6.6118   12.1763   -6.5040 H   0  0  0  0  0  0  0  0  0  0  0  0
  1  2  1  0  0  0  0
  1  4  1  0  0  0  0
  1 13  2  3  0  0  0
  2  6  1  0  0  0  0
  3  4  2  0  0  0  0
  3  5  1  0  0  0  0
  5  6  2  0  0  0  0
  5  9  1  0  0  0  0
  6  7  1  0  0  0  0
  7  8  1  0  0  0  0
  7 10  2  3  0  0  0
  8  9  2  0  0  0  0
 10 15  1  0  0  0  0
 11 12  1  0  0  0  0
 11 13  1  0  0  0  0
 13 14  1  0  0  0  0
 15 16  1  0  0  0  0
 15 17  1  0  0  0  0
  2 18  1  0  0  0  0
  2 19  1  0  0  0  0
  3 20  1  0  0  0  0
  4 21  1  0  0  0  0
 10 22  1  0  0  0  0
 11 23  1  0  0  0  0
 12 24  1  0  0  0  0
 12 25  1  0  0  0  0
 12 26  1  0  0  0  0
 14 27  1  0  0  0  0
 15 28  1  0  0  0  0
 16 29  1  0  0  0  0
 16 30  1  0  0  0  0
 16 31  1  0  0  0  0
 17 32  1  0  0  0  0
 17 33  1  0  0  0  0
 17 34  1  0  0  0  0
M  END
> <Name>
14

> <IC50[uM]>
0.84

$$$$
