31
  -OEChem-05192314333D
 Structure written by MMmdl.
 53 57  0     1  0  0  0  0  0999 V2000
   -6.3709   12.3579  -12.0062 C   0  0  0  0  0  0  0  0  0  0  0  0
   -6.5187   11.8083  -10.7296 C   0  0  0  0  0  0  0  0  0  0  0  0
   -7.7194   10.5704  -13.0321 C   0  0  0  0  0  0  0  0  0  0  0  0
   -6.9838   11.7645  -13.1240 C   0  0  0  0  0  0  0  0  0  0  0  0
   -7.8186   10.0073  -11.7576 C   0  0  0  0  0  0  0  0  0  0  0  0
   -7.2434   10.6206  -10.5991 C   0  0  0  0  0  0  0  0  0  0  0  0
   -7.6160    9.7494   -9.5117 C   0  0  0  0  0  0  0  0  0  0  0  0
   -8.2808    8.7336   -9.9894 N   0  0  0  0  0  0  0  0  0  0  0  0
   -8.4141    8.8594  -11.3008 N   0  0  0  0  0  0  0  0  0  0  0  0
   -7.3385    9.8886   -8.0248 C   0  0  0  0  0  0  0  0  0  0  0  0
   -4.3631   13.7190  -11.4993 N   0  0  0  0  0  0  0  0  0  0  0  0
   -5.5500   13.6364  -12.1907 C   0  0  0  0  0  0  0  0  0  0  0  0
   -5.9462   14.5251  -12.9474 O   0  0  0  0  0  0  0  0  0  0  0  0
   -5.9607   10.4852   -7.7356 C   0  0  0  0  0  0  0  0  0  0  0  0
   -4.8097    9.7639   -8.0527 C   0  0  0  0  0  0  0  0  0  0  0  0
   -3.5522   10.3124   -7.8024 C   0  0  0  0  0  0  0  0  0  0  0  0
   -3.4444   11.5885   -7.2376 C   0  0  0  0  0  0  0  0  0  0  0  0
   -4.5952   12.3052   -6.9174 C   0  0  0  0  0  0  0  0  0  0  0  0
   -5.8509   11.7557   -7.1626 C   0  0  0  0  0  0  0  0  0  0  0  0
   -2.1000   12.1783   -6.9759 C   0  0  0  0  0  0  0  0  0  0  0  0
   -1.7654   13.4353   -6.4786 C   0  0  0  0  0  0  0  0  0  0  0  0
   -0.4305   13.4892   -6.4172 N   0  0  0  0  0  0  0  0  0  0  0  0
    0.1699   12.4025   -6.8093 N   0  0  0  0  0  0  0  0  0  0  0  0
   -0.8029   11.5856   -7.1770 C   0  0  0  0  0  0  0  0  0  0  0  0
    0.3883   14.6074   -5.9669 C   0  0  0  0  0  0  0  0  0  0  0  0
   -3.5134   14.9066  -11.6049 C   0  0  0  0  0  0  0  0  0  0  0  0
   -2.2037   14.4678  -10.9376 C   0  0  1  0  0  0  0  0  0  0  0  0
   -2.2231   12.9442  -10.9826 C   0  0  0  0  0  0  0  0  0  0  0  0
   -3.7200   12.5740  -10.8214 C   0  0  0  0  0  0  0  0  0  0  0  0
   -1.0475   15.0410  -11.4860 O   0  0  0  0  0  0  0  0  0  0  0  0
   -6.0839   12.2893   -9.8659 H   0  0  0  0  0  0  0  0  0  0  0  0
   -8.1807   10.1150  -13.8959 H   0  0  0  0  0  0  0  0  0  0  0  0
   -6.8858   12.2432  -14.0871 H   0  0  0  0  0  0  0  0  0  0  0  0
   -8.6367    7.9732   -9.4461 H   0  0  0  0  0  0  0  0  0  0  0  0
   -8.1050   10.5425   -7.5834 H   0  0  0  0  0  0  0  0  0  0  0  0
   -7.3952    8.8926   -7.5614 H   0  0  0  0  0  0  0  0  0  0  0  0
   -4.8924    8.7808   -8.4920 H   0  0  0  0  0  0  0  0  0  0  0  0
   -2.6611    9.7523   -8.0445 H   0  0  0  0  0  0  0  0  0  0  0  0
   -4.5133   13.2885   -6.4783 H   0  0  0  0  0  0  0  0  0  0  0  0
   -6.7415   12.3119   -6.9097 H   0  0  0  0  0  0  0  0  0  0  0  0
   -2.4535   14.2183   -6.1960 H   0  0  0  0  0  0  0  0  0  0  0  0
   -0.6442   10.5957   -7.5787 H   0  0  0  0  0  0  0  0  0  0  0  0
    1.4518   14.3348   -6.0355 H   0  0  0  0  0  0  0  0  0  0  0  0
    0.1929   15.4840   -6.6021 H   0  0  0  0  0  0  0  0  0  0  0  0
    0.1381   14.8479   -4.9231 H   0  0  0  0  0  0  0  0  0  0  0  0
   -3.3468   15.1789  -12.6576 H   0  0  0  0  0  0  0  0  0  0  0  0
   -3.9603   15.7589  -11.0720 H   0  0  0  0  0  0  0  0  0  0  0  0
   -2.2706   14.7595   -9.8791 H   0  0  0  0  0  0  0  0  0  0  0  0
   -1.8326   12.5779  -11.9435 H   0  0  0  0  0  0  0  0  0  0  0  0
   -1.6269   12.5226  -10.1599 H   0  0  0  0  0  0  0  0  0  0  0  0
   -4.0107   12.5154   -9.7621 H   0  0  0  0  0  0  0  0  0  0  0  0
   -3.9577   11.6228  -11.3200 H   0  0  0  0  0  0  0  0  0  0  0  0
   -0.2836   14.7209  -11.0208 H   0  0  0  0  0  0  0  0  0  0  0  0
  1  2  2  0  0  0  0
  1  4  1  0  0  0  0
  1 12  1  0  0  0  0
  2  6  1  0  0  0  0
  3  4  2  0  0  0  0
  3  5  1  0  0  0  0
  5  6  1  0  0  0  0
  5  9  2  0  0  0  0
  6  7  2  0  0  0  0
  7  8  1  0  0  0  0
  7 10  1  0  0  0  0
  8  9  1  0  0  0  0
 10 14  1  0  0  0  0
 11 12  1  0  0  0  0
 11 26  1  0  0  0  0
 11 29  1  0  0  0  0
 12 13  2  0  0  0  0
 14 15  2  0  0  0  0
 14 19  1  0  0  0  0
 15 16  1  0  0  0  0
 16 17  2  0  0  0  0
 17 18  1  0  0  0  0
 17 20  1  0  0  0  0
 18 19  2  0  0  0  0
 20 21  2  0  0  0  0
 20 24  1  0  0  0  0
 21 22  1  0  0  0  0
 22 23  1  0  0  0  0
 22 25  1  0  0  0  0
 23 24  2  0  0  0  0
 26 27  1  0  0  0  0
 27 28  1  0  0  0  0
 27 30  1  0  0  0  0
 28 29  1  0  0  0  0
  2 31  1  0  0  0  0
  3 32  1  0  0  0  0
  4 33  1  0  0  0  0
  8 34  1  0  0  0  0
 10 35  1  0  0  0  0
 10 36  1  0  0  0  0
 15 37  1  0  0  0  0
 16 38  1  0  0  0  0
 18 39  1  0  0  0  0
 19 40  1  0  0  0  0
 21 41  1  0  0  0  0
 24 42  1  0  0  0  0
 25 43  1  0  0  0  0
 25 44  1  0  0  0  0
 25 45  1  0  0  0  0
 26 46  1  0  0  0  0
 26 47  1  0  0  0  0
 27 48  1  0  0  0  0
 28 49  1  0  0  0  0
 28 50  1  0  0  0  0
 29 51  1  0  0  0  0
 29 52  1  0  0  0  0
 30 53  1  0  0  0  0
M  END
> <Name>
31

> <IC50[uM]>
0.002

$$$$
31
  -OEChem-05192314333D
 Structure written by MMmdl.
 53 57  0     1  0  0  0  0  0999 V2000
   -6.3709   12.3579  -12.0062 C   0  0  0  0  0  0  0  0  0  0  0  0
   -6.5187   11.8083  -10.7296 C   0  0  0  0  0  0  0  0  0  0  0  0
   -7.7194   10.5704  -13.0321 C   0  0  0  0  0  0  0  0  0  0  0  0
   -6.9838   11.7645  -13.1240 C   0  0  0  0  0  0  0  0  0  0  0  0
   -7.8186   10.0073  -11.7576 C   0  0  0  0  0  0  0  0  0  0  0  0
   -7.2434   10.6206  -10.5991 C   0  0  0  0  0  0  0  0  0  0  0  0
   -7.6160    9.7494   -9.5117 C   0  0  0  0  0  0  0  0  0  0  0  0
   -8.2808    8.7336   -9.9894 N   0  0  0  0  0  0  0  0  0  0  0  0
   -8.4141    8.8594  -11.3008 N   0  0  0  0  0  0  0  0  0  0  0  0
   -7.3385    9.8886   -8.0248 C   0  0  0  0  0  0  0  0  0  0  0  0
   -4.3631   13.7190  -11.4993 N   0  0  0  0  0  0  0  0  0  0  0  0
   -5.5500   13.6364  -12.1907 C   0  0  0  0  0  0  0  0  0  0  0  0
   -5.9462   14.5251  -12.9474 O   0  0  0  0  0  0  0  0  0  0  0  0
   -5.9607   10.4852   -7.7356 C   0  0  0  0  0  0  0  0  0  0  0  0
   -4.8097    9.7639   -8.0527 C   0  0  0  0  0  0  0  0  0  0  0  0
   -3.5522   10.3124   -7.8024 C   0  0  0  0  0  0  0  0  0  0  0  0
   -3.4444   11.5885   -7.2376 C   0  0  0  0  0  0  0  0  0  0  0  0
   -4.5952   12.3052   -6.9174 C   0  0  0  0  0  0  0  0  0  0  0  0
   -5.8509   11.7557   -7.1626 C   0  0  0  0  0  0  0  0  0  0  0  0
   -2.1000   12.1783   -6.9759 C   0  0  0  0  0  0  0  0  0  0  0  0
   -1.7654   13.4353   -6.4786 C   0  0  0  0  0  0  0  0  0  0  0  0
   -0.4305   13.4892   -6.4172 N   0  0  0  0  0  0  0  0  0  0  0  0
    0.1699   12.4025   -6.8093 N   0  0  0  0  0  0  0  0  0  0  0  0
   -0.8029   11.5856   -7.1770 C   0  0  0  0  0  0  0  0  0  0  0  0
    0.3883   14.6074   -5.9669 C   0  0  0  0  0  0  0  0  0  0  0  0
   -3.5134   14.9066  -11.6049 C   0  0  0  0  0  0  0  0  0  0  0  0
   -2.2037   14.4678  -10.9376 C   0  0  1  0  0  0  0  0  0  0  0  0
   -2.2231   12.9442  -10.9826 C   0  0  0  0  0  0  0  0  0  0  0  0
   -3.7200   12.5740  -10.8214 C   0  0  0  0  0  0  0  0  0  0  0  0
   -1.0475   15.0410  -11.4860 O   0  0  0  0  0  0  0  0  0  0  0  0
   -6.0839   12.2893   -9.8659 H   0  0  0  0  0  0  0  0  0  0  0  0
   -8.1807   10.1150  -13.8959 H   0  0  0  0  0  0  0  0  0  0  0  0
   -6.8858   12.2432  -14.0871 H   0  0  0  0  0  0  0  0  0  0  0  0
   -8.8890    8.2007  -11.8844 H   0  0  0  0  0  0  0  0  0  0  0  0
   -8.1050   10.5425   -7.5834 H   0  0  0  0  0  0  0  0  0  0  0  0
   -7.3952    8.8926   -7.5614 H   0  0  0  0  0  0  0  0  0  0  0  0
   -4.8924    8.7808   -8.4920 H   0  0  0  0  0  0  0  0  0  0  0  0
   -2.6611    9.7523   -8.0445 H   0  0  0  0  0  0  0  0  0  0  0  0
   -4.5133   13.2885   -6.4783 H   0  0  0  0  0  0  0  0  0  0  0  0
   -6.7415   12.3119   -6.9097 H   0  0  0  0  0  0  0  0  0  0  0  0
   -2.4535   14.2183   -6.1960 H   0  0  0  0  0  0  0  0  0  0  0  0
   -0.6442   10.5957   -7.5787 H   0  0  0  0  0  0  0  0  0  0  0  0
    1.4518   14.3348   -6.0355 H   0  0  0  0  0  0  0  0  0  0  0  0
    0.1929   15.4840   -6.6021 H   0  0  0  0  0  0  0  0  0  0  0  0
    0.1381   14.8479   -4.9231 H   0  0  0  0  0  0  0  0  0  0  0  0
   -3.3468   15.1789  -12.6576 H   0  0  0  0  0  0  0  0  0  0  0  0
   -3.9603   15.7589  -11.0720 H   0  0  0  0  0  0  0  0  0  0  0  0
   -2.2706   14.7595   -9.8791 H   0  0  0  0  0  0  0  0  0  0  0  0
   -1.8326   12.5779  -11.9435 H   0  0  0  0  0  0  0  0  0  0  0  0
   -1.6269   12.5226  -10.1599 H   0  0  0  0  0  0  0  0  0  0  0  0
   -4.0107   12.5154   -9.7621 H   0  0  0  0  0  0  0  0  0  0  0  0
   -3.9577   11.6228  -11.3200 H   0  0  0  0  0  0  0  0  0  0  0  0
   -0.2836   14.7209  -11.0208 H   0  0  0  0  0  0  0  0  0  0  0  0
  1  2  2  0  0  0  0
  1  4  1  0  0  0  0
  1 12  1  0  0  0  0
  2  6  1  0  0  0  0
  3  4  2  0  0  0  0
  3  5  1  0  0  0  0
  5  6  2  0  0  0  0
  5  9  1  0  0  0  0
  6  7  1  0  0  0  0
  7  8  2  0  0  0  0
  7 10  1  0  0  0  0
  8  9  1  0  0  0  0
 10 14  1  0  0  0  0
 11 12  1  0  0  0  0
 11 26  1  0  0  0  0
 11 29  1  0  0  0  0
 12 13  2  0  0  0  0
 14 15  2  0  0  0  0
 14 19  1  0  0  0  0
 15 16  1  0  0  0  0
 16 17  2  0  0  0  0
 17 18  1  0  0  0  0
 17 20  1  0  0  0  0
 18 19  2  0  0  0  0
 20 21  2  0  0  0  0
 20 24  1  0  0  0  0
 21 22  1  0  0  0  0
 22 23  1  0  0  0  0
 22 25  1  0  0  0  0
 23 24  2  0  0  0  0
 26 27  1  0  0  0  0
 27 28  1  0  0  0  0
 27 30  1  0  0  0  0
 28 29  1  0  0  0  0
  2 31  1  0  0  0  0
  3 32  1  0  0  0  0
  4 33  1  0  0  0  0
  9 34  1  0  0  0  0
 10 35  1  0  0  0  0
 10 36  1  0  0  0  0
 15 37  1  0  0  0  0
 16 38  1  0  0  0  0
 18 39  1  0  0  0  0
 19 40  1  0  0  0  0
 21 41  1  0  0  0  0
 24 42  1  0  0  0  0
 25 43  1  0  0  0  0
 25 44  1  0  0  0  0
 25 45  1  0  0  0  0
 26 46  1  0  0  0  0
 26 47  1  0  0  0  0
 27 48  1  0  0  0  0
 28 49  1  0  0  0  0
 28 50  1  0  0  0  0
 29 51  1  0  0  0  0
 29 52  1  0  0  0  0
 30 53  1  0  0  0  0
M  END
> <Name>
31

> <IC50[uM]>
0.002

$$$$
31
  -OEChem-05192314333D
 Structure written by MMmdl.
 53 57  0     1  0  0  0  0  0999 V2000
   -6.3709   12.3579  -12.0062 C   0  0  0  0  0  0  0  0  0  0  0  0
   -6.5187   11.8083  -10.7296 C   0  0  0  0  0  0  0  0  0  0  0  0
   -7.7194   10.5704  -13.0321 C   0  0  0  0  0  0  0  0  0  0  0  0
   -6.9838   11.7645  -13.1240 C   0  0  0  0  0  0  0  0  0  0  0  0
   -7.8186   10.0073  -11.7576 C   0  0  0  0  0  0  0  0  0  0  0  0
   -7.2434   10.6206  -10.5991 C   0  0  0  0  0  0  0  0  0  0  0  0
   -7.6160    9.7494   -9.5117 C   0  0  0  0  0  0  0  0  0  0  0  0
   -8.2808    8.7336   -9.9894 N   0  0  0  0  0  0  0  0  0  0  0  0
   -8.4141    8.8594  -11.3008 N   0  0  0  0  0  0  0  0  0  0  0  0
   -7.3385    9.8886   -8.0248 C   0  0  0  0  0  0  0  0  0  0  0  0
   -4.3631   13.7190  -11.4993 N   0  0  0  0  0  0  0  0  0  0  0  0
   -5.5500   13.6364  -12.1907 C   0  0  0  0  0  0  0  0  0  0  0  0
   -5.9462   14.5251  -12.9474 O   0  0  0  0  0  0  0  0  0  0  0  0
   -5.9607   10.4852   -7.7356 C   0  0  0  0  0  0  0  0  0  0  0  0
   -4.8097    9.7639   -8.0527 C   0  0  0  0  0  0  0  0  0  0  0  0
   -3.5522   10.3124   -7.8024 C   0  0  0  0  0  0  0  0  0  0  0  0
   -3.4444   11.5885   -7.2376 C   0  0  0  0  0  0  0  0  0  0  0  0
   -4.5952   12.3052   -6.9174 C   0  0  0  0  0  0  0  0  0  0  0  0
   -5.8509   11.7557   -7.1626 C   0  0  0  0  0  0  0  0  0  0  0  0
   -2.1000   12.1783   -6.9759 C   0  0  0  0  0  0  0  0  0  0  0  0
   -1.7654   13.4353   -6.4786 C   0  0  0  0  0  0  0  0  0  0  0  0
   -0.4305   13.4892   -6.4172 N   0  0  0  0  0  0  0  0  0  0  0  0
    0.1699   12.4025   -6.8093 N   0  0  0  0  0  0  0  0  0  0  0  0
   -0.8029   11.5856   -7.1770 C   0  0  0  0  0  0  0  0  0  0  0  0
    0.3883   14.6074   -5.9669 C   0  0  0  0  0  0  0  0  0  0  0  0
   -3.5134   14.9066  -11.6049 C   0  0  0  0  0  0  0  0  0  0  0  0
   -2.2037   14.4678  -10.9376 C   0  0  1  0  0  0  0  0  0  0  0  0
   -2.2231   12.9442  -10.9826 C   0  0  0  0  0  0  0  0  0  0  0  0
   -3.7200   12.5740  -10.8214 C   0  0  0  0  0  0  0  0  0  0  0  0
   -1.0475   15.0410  -11.4860 O   0  0  0  0  0  0  0  0  0  0  0  0
   -6.0839   12.2893   -9.8659 H   0  0  0  0  0  0  0  0  0  0  0  0
   -8.1807   10.1150  -13.8959 H   0  0  0  0  0  0  0  0  0  0  0  0
   -6.8858   12.2432  -14.0871 H   0  0  0  0  0  0  0  0  0  0  0  0
   -6.6755    9.1924   -9.6353 H   0  0  0  0  0  0  0  0  0  0  0  0
   -8.1050   10.5425   -7.5834 H   0  0  0  0  0  0  0  0  0  0  0  0
   -7.3952    8.8926   -7.5614 H   0  0  0  0  0  0  0  0  0  0  0  0
   -4.8924    8.7808   -8.4920 H   0  0  0  0  0  0  0  0  0  0  0  0
   -2.6611    9.7523   -8.0445 H   0  0  0  0  0  0  0  0  0  0  0  0
   -4.5133   13.2885   -6.4783 H   0  0  0  0  0  0  0  0  0  0  0  0
   -6.7415   12.3119   -6.9097 H   0  0  0  0  0  0  0  0  0  0  0  0
   -2.4535   14.2183   -6.1960 H   0  0  0  0  0  0  0  0  0  0  0  0
   -0.6442   10.5957   -7.5787 H   0  0  0  0  0  0  0  0  0  0  0  0
    1.4518   14.3348   -6.0355 H   0  0  0  0  0  0  0  0  0  0  0  0
    0.1929   15.4840   -6.6021 H   0  0  0  0  0  0  0  0  0  0  0  0
    0.1381   14.8479   -4.9231 H   0  0  0  0  0  0  0  0  0  0  0  0
   -3.3468   15.1789  -12.6576 H   0  0  0  0  0  0  0  0  0  0  0  0
   -3.9603   15.7589  -11.0720 H   0  0  0  0  0  0  0  0  0  0  0  0
   -2.2706   14.7595   -9.8791 H   0  0  0  0  0  0  0  0  0  0  0  0
   -1.8326   12.5779  -11.9435 H   0  0  0  0  0  0  0  0  0  0  0  0
   -1.6269   12.5226  -10.1599 H   0  0  0  0  0  0  0  0  0  0  0  0
   -4.0107   12.5154   -9.7621 H   0  0  0  0  0  0  0  0  0  0  0  0
   -3.9577   11.6228  -11.3200 H   0  0  0  0  0  0  0  0  0  0  0  0
   -0.2836   14.7209  -11.0208 H   0  0  0  0  0  0  0  0  0  0  0  0
  1  2  2  0  0  0  0
  1  4  1  0  0  0  0
  1 12  1  0  0  0  0
  2  6  1  0  0  0  0
  3  4  2  0  0  0  0
  3  5  1  0  0  0  0
  5  6  2  0  0  0  0
  5  9  1  0  0  0  0
  6  7  1  0  0  0  0
  7  8  1  0  0  0  0
  7 10  1  0  0  0  0
  8  9  2  0  0  0  0
 10 14  1  0  0  0  0
 11 12  1  0  0  0  0
 11 26  1  0  0  0  0
 11 29  1  0  0  0  0
 12 13  2  0  0  0  0
 14 15  2  0  0  0  0
 14 19  1  0  0  0  0
 15 16  1  0  0  0  0
 16 17  2  0  0  0  0
 17 18  1  0  0  0  0
 17 20  1  0  0  0  0
 18 19  2  0  0  0  0
 20 21  2  0  0  0  0
 20 24  1  0  0  0  0
 21 22  1  0  0  0  0
 22 23  1  0  0  0  0
 22 25  1  0  0  0  0
 23 24  2  0  0  0  0
 26 27  1  0  0  0  0
 27 28  1  0  0  0  0
 27 30  1  0  0  0  0
 28 29  1  0  0  0  0
  2 31  1  0  0  0  0
  3 32  1  0  0  0  0
  4 33  1  0  0  0  0
  7 34  1  0  0  0  0
 10 35  1  0  0  0  0
 10 36  1  0  0  0  0
 15 37  1  0  0  0  0
 16 38  1  0  0  0  0
 18 39  1  0  0  0  0
 19 40  1  0  0  0  0
 21 41  1  0  0  0  0
 24 42  1  0  0  0  0
 25 43  1  0  0  0  0
 25 44  1  0  0  0  0
 25 45  1  0  0  0  0
 26 46  1  0  0  0  0
 26 47  1  0  0  0  0
 27 48  1  0  0  0  0
 28 49  1  0  0  0  0
 28 50  1  0  0  0  0
 29 51  1  0  0  0  0
 29 52  1  0  0  0  0
 30 53  1  0  0  0  0
M  END
> <Name>
31

> <IC50[uM]>
0.002

$$$$
31
  -OEChem-05192314333D
 Structure written by MMmdl.
 53 57  0     1  0  0  0  0  0999 V2000
   -6.3709   12.3579  -12.0062 C   0  0  0  0  0  0  0  0  0  0  0  0
   -6.5187   11.8083  -10.7296 C   0  0  0  0  0  0  0  0  0  0  0  0
   -7.7194   10.5704  -13.0321 C   0  0  0  0  0  0  0  0  0  0  0  0
   -6.9838   11.7645  -13.1240 C   0  0  0  0  0  0  0  0  0  0  0  0
   -7.8186   10.0073  -11.7576 C   0  0  0  0  0  0  0  0  0  0  0  0
   -7.2434   10.6206  -10.5991 C   0  0  0  0  0  0  0  0  0  0  0  0
   -7.6160    9.7494   -9.5117 C   0  0  0  0  0  0  0  0  0  0  0  0
   -8.2808    8.7336   -9.9894 N   0  0  0  0  0  0  0  0  0  0  0  0
   -8.4141    8.8594  -11.3008 N   0  0  0  0  0  0  0  0  0  0  0  0
   -7.3385    9.8886   -8.0248 C   0  0  0  0  0  0  0  0  0  0  0  0
   -4.3631   13.7190  -11.4993 N   0  0  0  0  0  0  0  0  0  0  0  0
   -5.5500   13.6364  -12.1907 C   0  0  0  0  0  0  0  0  0  0  0  0
   -5.9462   14.5251  -12.9474 O   0  0  0  0  0  0  0  0  0  0  0  0
   -5.9607   10.4852   -7.7356 C   0  0  0  0  0  0  0  0  0  0  0  0
   -4.8097    9.7639   -8.0527 C   0  0  0  0  0  0  0  0  0  0  0  0
   -3.5522   10.3124   -7.8024 C   0  0  0  0  0  0  0  0  0  0  0  0
   -3.4444   11.5885   -7.2376 C   0  0  0  0  0  0  0  0  0  0  0  0
   -4.5952   12.3052   -6.9174 C   0  0  0  0  0  0  0  0  0  0  0  0
   -5.8509   11.7557   -7.1626 C   0  0  0  0  0  0  0  0  0  0  0  0
   -2.1000   12.1783   -6.9759 C   0  0  0  0  0  0  0  0  0  0  0  0
   -1.7654   13.4353   -6.4786 C   0  0  0  0  0  0  0  0  0  0  0  0
   -0.4305   13.4892   -6.4172 N   0  0  0  0  0  0  0  0  0  0  0  0
    0.1699   12.4025   -6.8093 N   0  0  0  0  0  0  0  0  0  0  0  0
   -0.8029   11.5856   -7.1770 C   0  0  0  0  0  0  0  0  0  0  0  0
    0.3883   14.6074   -5.9669 C   0  0  0  0  0  0  0  0  0  0  0  0
   -3.5134   14.9066  -11.6049 C   0  0  0  0  0  0  0  0  0  0  0  0
   -2.2037   14.4678  -10.9376 C   0  0  1  0  0  0  0  0  0  0  0  0
   -2.2231   12.9442  -10.9826 C   0  0  0  0  0  0  0  0  0  0  0  0
   -3.7200   12.5740  -10.8214 C   0  0  0  0  0  0  0  0  0  0  0  0
   -1.0475   15.0410  -11.4860 O   0  0  0  0  0  0  0  0  0  0  0  0
   -6.0839   12.2893   -9.8659 H   0  0  0  0  0  0  0  0  0  0  0  0
   -8.1807   10.1150  -13.8959 H   0  0  0  0  0  0  0  0  0  0  0  0
   -6.8858   12.2432  -14.0871 H   0  0  0  0  0  0  0  0  0  0  0  0
   -7.7866    7.8884   -9.7858 H   0  0  0  0  0  0  0  0  0  0  0  0
   -9.3877    8.8857  -11.5276 H   0  0  0  0  0  0  0  0  0  0  0  0
   -8.0384    9.5978   -7.2554 H   0  0  0  0  0  0  0  0  0  0  0  0
   -4.8924    8.7808   -8.4920 H   0  0  0  0  0  0  0  0  0  0  0  0
   -2.6611    9.7523   -8.0445 H   0  0  0  0  0  0  0  0  0  0  0  0
   -4.5133   13.2885   -6.4783 H   0  0  0  0  0  0  0  0  0  0  0  0
   -6.7415   12.3119   -6.9097 H   0  0  0  0  0  0  0  0  0  0  0  0
   -2.4535   14.2183   -6.1960 H   0  0  0  0  0  0  0  0  0  0  0  0
   -0.6442   10.5957   -7.5787 H   0  0  0  0  0  0  0  0  0  0  0  0
    1.4518   14.3348   -6.0355 H   0  0  0  0  0  0  0  0  0  0  0  0
    0.1929   15.4840   -6.6021 H   0  0  0  0  0  0  0  0  0  0  0  0
    0.1381   14.8479   -4.9231 H   0  0  0  0  0  0  0  0  0  0  0  0
   -3.3468   15.1789  -12.6576 H   0  0  0  0  0  0  0  0  0  0  0  0
   -3.9603   15.7589  -11.0720 H   0  0  0  0  0  0  0  0  0  0  0  0
   -2.2706   14.7595   -9.8791 H   0  0  0  0  0  0  0  0  0  0  0  0
   -1.8326   12.5779  -11.9435 H   0  0  0  0  0  0  0  0  0  0  0  0
   -1.6269   12.5226  -10.1599 H   0  0  0  0  0  0  0  0  0  0  0  0
   -4.0107   12.5154   -9.7621 H   0  0  0  0  0  0  0  0  0  0  0  0
   -3.9577   11.6228  -11.3200 H   0  0  0  0  0  0  0  0  0  0  0  0
   -0.2836   14.7209  -11.0208 H   0  0  0  0  0  0  0  0  0  0  0  0
  1  2  2  0  0  0  0
  1  4  1  0  0  0  0
  1 12  1  0  0  0  0
  2  6  1  0  0  0  0
  3  4  2  0  0  0  0
  3  5  1  0  0  0  0
  5  6  2  0  0  0  0
  5  9  1  0  0  0  0
  6  7  1  0  0  0  0
  7  8  1  0  0  0  0
  7 10  2  0  0  0  0
  8  9  1  0  0  0  0
 10 14  1  0  0  0  0
 11 12  1  0  0  0  0
 11 26  1  0  0  0  0
 11 29  1  0  0  0  0
 12 13  2  0  0  0  0
 14 15  2  0  0  0  0
 14 19  1  0  0  0  0
 15 16  1  0  0  0  0
 16 17  2  0  0  0  0
 17 18  1  0  0  0  0
 17 20  1  0  0  0  0
 18 19  2  0  0  0  0
 20 21  2  0  0  0  0
 20 24  1  0  0  0  0
 21 22  1  0  0  0  0
 22 23  1  0  0  0  0
 22 25  1  0  0  0  0
 23 24  2  0  0  0  0
 26 27  1  0  0  0  0
 27 28  1  0  0  0  0
 27 30  1  0  0  0  0
 28 29  1  0  0  0  0
  2 31  1  0  0  0  0
  3 32  1  0  0  0  0
  4 33  1  0  0  0  0
  8 34  1  0  0  0  0
  9 35  1  0  0  0  0
 10 36  1  0  0  0  0
 15 37  1  0  0  0  0
 16 38  1  0  0  0  0
 18 39  1  0  0  0  0
 19 40  1  0  0  0  0
 21 41  1  0  0  0  0
 24 42  1  0  0  0  0
 25 43  1  0  0  0  0
 25 44  1  0  0  0  0
 25 45  1  0  0  0  0
 26 46  1  0  0  0  0
 26 47  1  0  0  0  0
 27 48  1  0  0  0  0
 28 49  1  0  0  0  0
 28 50  1  0  0  0  0
 29 51  1  0  0  0  0
 29 52  1  0  0  0  0
 30 53  1  0  0  0  0
M  END
> <Name>
31

> <IC50[uM]>
0.002

$$$$
31
  -OEChem-05192314333D
 Structure written by MMmdl.
 53 57  0     1  0  0  0  0  0999 V2000
   -6.3709   12.3579  -12.0062 C   0  0  0  0  0  0  0  0  0  0  0  0
   -6.5187   11.8083  -10.7296 C   0  0  0  0  0  0  0  0  0  0  0  0
   -7.7194   10.5704  -13.0321 C   0  0  0  0  0  0  0  0  0  0  0  0
   -6.9838   11.7645  -13.1240 C   0  0  0  0  0  0  0  0  0  0  0  0
   -7.8186   10.0073  -11.7576 C   0  0  0  0  0  0  0  0  0  0  0  0
   -7.2434   10.6206  -10.5991 C   0  0  0  0  0  0  0  0  0  0  0  0
   -7.6160    9.7494   -9.5117 C   0  0  0  0  0  0  0  0  0  0  0  0
   -8.2808    8.7336   -9.9894 N   0  0  0  0  0  0  0  0  0  0  0  0
   -8.4141    8.8594  -11.3008 N   0  0  0  0  0  0  0  0  0  0  0  0
   -7.3385    9.8886   -8.0248 C   0  0  0  0  0  0  0  0  0  0  0  0
   -4.3631   13.7190  -11.4993 N   0  0  0  0  0  0  0  0  0  0  0  0
   -5.5500   13.6364  -12.1907 C   0  0  0  0  0  0  0  0  0  0  0  0
   -5.9462   14.5251  -12.9474 O   0  0  0  0  0  0  0  0  0  0  0  0
   -5.9607   10.4852   -7.7356 C   0  0  0  0  0  0  0  0  0  0  0  0
   -4.8097    9.7639   -8.0527 C   0  0  0  0  0  0  0  0  0  0  0  0
   -3.5522   10.3124   -7.8024 C   0  0  0  0  0  0  0  0  0  0  0  0
   -3.4444   11.5885   -7.2376 C   0  0  0  0  0  0  0  0  0  0  0  0
   -4.5952   12.3052   -6.9174 C   0  0  0  0  0  0  0  0  0  0  0  0
   -5.8509   11.7557   -7.1626 C   0  0  0  0  0  0  0  0  0  0  0  0
   -2.1000   12.1783   -6.9759 C   0  0  0  0  0  0  0  0  0  0  0  0
   -1.7654   13.4353   -6.4786 C   0  0  0  0  0  0  0  0  0  0  0  0
   -0.4305   13.4892   -6.4172 N   0  0  0  0  0  0  0  0  0  0  0  0
    0.1699   12.4025   -6.8093 N   0  0  0  0  0  0  0  0  0  0  0  0
   -0.8029   11.5856   -7.1770 C   0  0  0  0  0  0  0  0  0  0  0  0
    0.3883   14.6074   -5.9669 C   0  0  0  0  0  0  0  0  0  0  0  0
   -3.5134   14.9066  -11.6049 C   0  0  0  0  0  0  0  0  0  0  0  0
   -2.2037   14.4678  -10.9376 C   0  0  1  0  0  0  0  0  0  0  0  0
   -2.2231   12.9442  -10.9826 C   0  0  0  0  0  0  0  0  0  0  0  0
   -3.7200   12.5740  -10.8214 C   0  0  0  0  0  0  0  0  0  0  0  0
   -1.0475   15.0410  -11.4860 O   0  0  0  0  0  0  0  0  0  0  0  0
   -5.4695   11.7492  -12.1702 H   0  0  0  0  0  0  0  0  0  0  0  0
   -6.0839   12.2893   -9.8659 H   0  0  0  0  0  0  0  0  0  0  0  0
   -8.1807   10.1150  -13.8959 H   0  0  0  0  0  0  0  0  0  0  0  0
   -6.8858   12.2432  -14.0871 H   0  0  0  0  0  0  0  0  0  0  0  0
   -8.6367    7.9732   -9.4461 H   0  0  0  0  0  0  0  0  0  0  0  0
   -8.0384    9.5978   -7.2554 H   0  0  0  0  0  0  0  0  0  0  0  0
   -4.8924    8.7808   -8.4920 H   0  0  0  0  0  0  0  0  0  0  0  0
   -2.6611    9.7523   -8.0445 H   0  0  0  0  0  0  0  0  0  0  0  0
   -4.5133   13.2885   -6.4783 H   0  0  0  0  0  0  0  0  0  0  0  0
   -6.7415   12.3119   -6.9097 H   0  0  0  0  0  0  0  0  0  0  0  0
   -2.4535   14.2183   -6.1960 H   0  0  0  0  0  0  0  0  0  0  0  0
   -0.6442   10.5957   -7.5787 H   0  0  0  0  0  0  0  0  0  0  0  0
    1.4518   14.3348   -6.0355 H   0  0  0  0  0  0  0  0  0  0  0  0
    0.1929   15.4840   -6.6021 H   0  0  0  0  0  0  0  0  0  0  0  0
    0.1381   14.8479   -4.9231 H   0  0  0  0  0  0  0  0  0  0  0  0
   -3.3468   15.1789  -12.6576 H   0  0  0  0  0  0  0  0  0  0  0  0
   -3.9603   15.7589  -11.0720 H   0  0  0  0  0  0  0  0  0  0  0  0
   -2.2706   14.7595   -9.8791 H   0  0  0  0  0  0  0  0  0  0  0  0
   -1.8326   12.5779  -11.9435 H   0  0  0  0  0  0  0  0  0  0  0  0
   -1.6269   12.5226  -10.1599 H   0  0  0  0  0  0  0  0  0  0  0  0
   -4.0107   12.5154   -9.7621 H   0  0  0  0  0  0  0  0  0  0  0  0
   -3.9577   11.6228  -11.3200 H   0  0  0  0  0  0  0  0  0  0  0  0
   -0.2836   14.7209  -11.0208 H   0  0  0  0  0  0  0  0  0  0  0  0
  1  2  1  0  0  0  0
  1  4  1  0  0  0  0
  1 12  1  0  0  0  0
  2  6  2  0  0  0  0
  3  4  2  0  0  0  0
  3  5  1  0  0  0  0
  5  6  1  0  0  0  0
  5  9  2  0  0  0  0
  6  7  1  0  0  0  0
  7  8  1  0  0  0  0
  7 10  2  0  0  0  0
  8  9  1  0  0  0  0
 10 14  1  0  0  0  0
 11 12  1  0  0  0  0
 11 26  1  0  0  0  0
 11 29  1  0  0  0  0
 12 13  2  0  0  0  0
 14 15  2  0  0  0  0
 14 19  1  0  0  0  0
 15 16  1  0  0  0  0
 16 17  2  0  0  0  0
 17 18  1  0  0  0  0
 17 20  1  0  0  0  0
 18 19  2  0  0  0  0
 20 21  2  0  0  0  0
 20 24  1  0  0  0  0
 21 22  1  0  0  0  0
 22 23  1  0  0  0  0
 22 25  1  0  0  0  0
 23 24  2  0  0  0  0
 26 27  1  0  0  0  0
 27 28  1  0  0  0  0
 27 30  1  0  0  0  0
 28 29  1  0  0  0  0
  1 31  1  0  0  0  0
  2 32  1  0  0  0  0
  3 33  1  0  0  0  0
  4 34  1  0  0  0  0
  8 35  1  0  0  0  0
 10 36  1  0  0  0  0
 15 37  1  0  0  0  0
 16 38  1  0  0  0  0
 18 39  1  0  0  0  0
 19 40  1  0  0  0  0
 21 41  1  0  0  0  0
 24 42  1  0  0  0  0
 25 43  1  0  0  0  0
 25 44  1  0  0  0  0
 25 45  1  0  0  0  0
 26 46  1  0  0  0  0
 26 47  1  0  0  0  0
 27 48  1  0  0  0  0
 28 49  1  0  0  0  0
 28 50  1  0  0  0  0
 29 51  1  0  0  0  0
 29 52  1  0  0  0  0
 30 53  1  0  0  0  0
M  END
> <Name>
31

> <IC50[uM]>
0.002

$$$$
31
  -OEChem-05192314333D
 Structure written by MMmdl.
 53 57  0     1  0  0  0  0  0999 V2000
   -6.3709   12.3579  -12.0062 C   0  0  0  0  0  0  0  0  0  0  0  0
   -6.5187   11.8083  -10.7296 C   0  0  0  0  0  0  0  0  0  0  0  0
   -7.7194   10.5704  -13.0321 C   0  0  0  0  0  0  0  0  0  0  0  0
   -6.9838   11.7645  -13.1240 C   0  0  0  0  0  0  0  0  0  0  0  0
   -7.8186   10.0073  -11.7576 C   0  0  0  0  0  0  0  0  0  0  0  0
   -7.2434   10.6206  -10.5991 C   0  0  0  0  0  0  0  0  0  0  0  0
   -7.6160    9.7494   -9.5117 C   0  0  0  0  0  0  0  0  0  0  0  0
   -8.2808    8.7336   -9.9894 N   0  0  0  0  0  0  0  0  0  0  0  0
   -8.4141    8.8594  -11.3008 N   0  0  0  0  0  0  0  0  0  0  0  0
   -7.3385    9.8886   -8.0248 C   0  0  0  0  0  0  0  0  0  0  0  0
   -4.3631   13.7190  -11.4993 N   0  0  0  0  0  0  0  0  0  0  0  0
   -5.5500   13.6364  -12.1907 C   0  0  0  0  0  0  0  0  0  0  0  0
   -5.9462   14.5251  -12.9474 O   0  0  0  0  0  0  0  0  0  0  0  0
   -5.9607   10.4852   -7.7356 C   0  0  0  0  0  0  0  0  0  0  0  0
   -4.8097    9.7639   -8.0527 C   0  0  0  0  0  0  0  0  0  0  0  0
   -3.5522   10.3124   -7.8024 C   0  0  0  0  0  0  0  0  0  0  0  0
   -3.4444   11.5885   -7.2376 C   0  0  0  0  0  0  0  0  0  0  0  0
   -4.5952   12.3052   -6.9174 C   0  0  0  0  0  0  0  0  0  0  0  0
   -5.8509   11.7557   -7.1626 C   0  0  0  0  0  0  0  0  0  0  0  0
   -2.1000   12.1783   -6.9759 C   0  0  0  0  0  0  0  0  0  0  0  0
   -1.7654   13.4353   -6.4786 C   0  0  0  0  0  0  0  0  0  0  0  0
   -0.4305   13.4892   -6.4172 N   0  0  0  0  0  0  0  0  0  0  0  0
    0.1699   12.4025   -6.8093 N   0  0  0  0  0  0  0  0  0  0  0  0
   -0.8029   11.5856   -7.1770 C   0  0  0  0  0  0  0  0  0  0  0  0
    0.3883   14.6074   -5.9669 C   0  0  0  0  0  0  0  0  0  0  0  0
   -3.5134   14.9066  -11.6049 C   0  0  0  0  0  0  0  0  0  0  0  0
   -2.2037   14.4678  -10.9376 C   0  0  1  0  0  0  0  0  0  0  0  0
   -2.2231   12.9442  -10.9826 C   0  0  0  0  0  0  0  0  0  0  0  0
   -3.7200   12.5740  -10.8214 C   0  0  0  0  0  0  0  0  0  0  0  0
   -1.0475   15.0410  -11.4860 O   0  0  0  0  0  0  0  0  0  0  0  0
   -6.0839   12.2893   -9.8659 H   0  0  0  0  0  0  0  0  0  0  0  0
   -8.7393   10.7754  -13.3895 H   0  0  0  0  0  0  0  0  0  0  0  0
   -7.2420    9.8299  -13.6907 H   0  0  0  0  0  0  0  0  0  0  0  0
   -6.8858   12.2432  -14.0871 H   0  0  0  0  0  0  0  0  0  0  0  0
   -8.6367    7.9732   -9.4461 H   0  0  0  0  0  0  0  0  0  0  0  0
   -8.0384    9.5978   -7.2554 H   0  0  0  0  0  0  0  0  0  0  0  0
   -4.8924    8.7808   -8.4920 H   0  0  0  0  0  0  0  0  0  0  0  0
   -2.6611    9.7523   -8.0445 H   0  0  0  0  0  0  0  0  0  0  0  0
   -4.5133   13.2885   -6.4783 H   0  0  0  0  0  0  0  0  0  0  0  0
   -6.7415   12.3119   -6.9097 H   0  0  0  0  0  0  0  0  0  0  0  0
   -2.4535   14.2183   -6.1960 H   0  0  0  0  0  0  0  0  0  0  0  0
   -0.6442   10.5957   -7.5787 H   0  0  0  0  0  0  0  0  0  0  0  0
    1.4518   14.3348   -6.0355 H   0  0  0  0  0  0  0  0  0  0  0  0
    0.1929   15.4840   -6.6021 H   0  0  0  0  0  0  0  0  0  0  0  0
    0.1381   14.8479   -4.9231 H   0  0  0  0  0  0  0  0  0  0  0  0
   -3.3468   15.1789  -12.6576 H   0  0  0  0  0  0  0  0  0  0  0  0
   -3.9603   15.7589  -11.0720 H   0  0  0  0  0  0  0  0  0  0  0  0
   -2.2706   14.7595   -9.8791 H   0  0  0  0  0  0  0  0  0  0  0  0
   -1.8326   12.5779  -11.9435 H   0  0  0  0  0  0  0  0  0  0  0  0
   -1.6269   12.5226  -10.1599 H   0  0  0  0  0  0  0  0  0  0  0  0
   -4.0107   12.5154   -9.7621 H   0  0  0  0  0  0  0  0  0  0  0  0
   -3.9577   11.6228  -11.3200 H   0  0  0  0  0  0  0  0  0  0  0  0
   -0.2836   14.7209  -11.0208 H   0  0  0  0  0  0  0  0  0  0  0  0
  1  2  1  0  0  0  0
  1  4  2  0  0  0  0
  1 12  1  0  0  0  0
  2  6  2  0  0  0  0
  3  4  1  0  0  0  0
  3  5  1  0  0  0  0
  5  6  1  0  0  0  0
  5  9  2  0  0  0  0
  6  7  1  0  0  0  0
  7  8  1  0  0  0  0
  7 10  2  0  0  0  0
  8  9  1  0  0  0  0
 10 14  1  0  0  0  0
 11 12  1  0  0  0  0
 11 26  1  0  0  0  0
 11 29  1  0  0  0  0
 12 13  2  0  0  0  0
 14 15  2  0  0  0  0
 14 19  1  0  0  0  0
 15 16  1  0  0  0  0
 16 17  2  0  0  0  0
 17 18  1  0  0  0  0
 17 20  1  0  0  0  0
 18 19  2  0  0  0  0
 20 21  2  0  0  0  0
 20 24  1  0  0  0  0
 21 22  1  0  0  0  0
 22 23  1  0  0  0  0
 22 25  1  0  0  0  0
 23 24  2  0  0  0  0
 26 27  1  0  0  0  0
 27 28  1  0  0  0  0
 27 30  1  0  0  0  0
 28 29  1  0  0  0  0
  2 31  1  0  0  0  0
  3 32  1  0  0  0  0
  3 33  1  0  0  0  0
  4 34  1  0  0  0  0
  8 35  1  0  0  0  0
 10 36  1  0  0  0  0
 15 37  1  0  0  0  0
 16 38  1  0  0  0  0
 18 39  1  0  0  0  0
 19 40  1  0  0  0  0
 21 41  1  0  0  0  0
 24 42  1  0  0  0  0
 25 43  1  0  0  0  0
 25 44  1  0  0  0  0
 25 45  1  0  0  0  0
 26 46  1  0  0  0  0
 26 47  1  0  0  0  0
 27 48  1  0  0  0  0
 28 49  1  0  0  0  0
 28 50  1  0  0  0  0
 29 51  1  0  0  0  0
 29 52  1  0  0  0  0
 30 53  1  0  0  0  0
M  END
> <Name>
31

> <IC50[uM]>
0.002

$$$$
31
  -OEChem-05192314333D
 Structure written by MMmdl.
 53 57  0     1  0  0  0  0  0999 V2000
   -6.3709   12.3579  -12.0062 C   0  0  0  0  0  0  0  0  0  0  0  0
   -6.5187   11.8083  -10.7296 C   0  0  0  0  0  0  0  0  0  0  0  0
   -7.7194   10.5704  -13.0321 C   0  0  0  0  0  0  0  0  0  0  0  0
   -6.9838   11.7645  -13.1240 C   0  0  0  0  0  0  0  0  0  0  0  0
   -7.8186   10.0073  -11.7576 C   0  0  0  0  0  0  0  0  0  0  0  0
   -7.2434   10.6206  -10.5991 C   0  0  0  0  0  0  0  0  0  0  0  0
   -7.6160    9.7494   -9.5117 C   0  0  0  0  0  0  0  0  0  0  0  0
   -8.2808    8.7336   -9.9894 N   0  0  0  0  0  0  0  0  0  0  0  0
   -8.4141    8.8594  -11.3008 N   0  0  0  0  0  0  0  0  0  0  0  0
   -7.3385    9.8886   -8.0248 C   0  0  0  0  0  0  0  0  0  0  0  0
   -4.3631   13.7190  -11.4993 N   0  0  0  0  0  0  0  0  0  0  0  0
   -5.5500   13.6364  -12.1907 C   0  0  0  0  0  0  0  0  0  0  0  0
   -5.9462   14.5251  -12.9474 O   0  0  0  0  0  0  0  0  0  0  0  0
   -5.9607   10.4852   -7.7356 C   0  0  0  0  0  0  0  0  0  0  0  0
   -4.8097    9.7639   -8.0527 C   0  0  0  0  0  0  0  0  0  0  0  0
   -3.5522   10.3124   -7.8024 C   0  0  0  0  0  0  0  0  0  0  0  0
   -3.4444   11.5885   -7.2376 C   0  0  0  0  0  0  0  0  0  0  0  0
   -4.5952   12.3052   -6.9174 C   0  0  0  0  0  0  0  0  0  0  0  0
   -5.8509   11.7557   -7.1626 C   0  0  0  0  0  0  0  0  0  0  0  0
   -2.1000   12.1783   -6.9759 C   0  0  0  0  0  0  0  0  0  0  0  0
   -1.7654   13.4353   -6.4786 C   0  0  0  0  0  0  0  0  0  0  0  0
   -0.4305   13.4892   -6.4172 N   0  0  0  0  0  0  0  0  0  0  0  0
    0.1699   12.4025   -6.8093 N   0  0  0  0  0  0  0  0  0  0  0  0
   -0.8029   11.5856   -7.1770 C   0  0  0  0  0  0  0  0  0  0  0  0
    0.3883   14.6074   -5.9669 C   0  0  0  0  0  0  0  0  0  0  0  0
   -3.5134   14.9066  -11.6049 C   0  0  0  0  0  0  0  0  0  0  0  0
   -2.2037   14.4678  -10.9376 C   0  0  1  0  0  0  0  0  0  0  0  0
   -2.2231   12.9442  -10.9826 C   0  0  0  0  0  0  0  0  0  0  0  0
   -3.7200   12.5740  -10.8214 C   0  0  0  0  0  0  0  0  0  0  0  0
   -1.0475   15.0410  -11.4860 O   0  0  0  0  0  0  0  0  0  0  0  0
   -6.0839   12.2893   -9.8659 H   0  0  0  0  0  0  0  0  0  0  0  0
   -8.1807   10.1150  -13.8959 H   0  0  0  0  0  0  0  0  0  0  0  0
   -6.8858   12.2432  -14.0871 H   0  0  0  0  0  0  0  0  0  0  0  0
   -8.6367    7.9732   -9.4461 H   0  0  0  0  0  0  0  0  0  0  0  0
   -8.0384    9.5978   -7.2554 H   0  0  0  0  0  0  0  0  0  0  0  0
   -4.8924    8.7808   -8.4920 H   0  0  0  0  0  0  0  0  0  0  0  0
   -2.6611    9.7523   -8.0445 H   0  0  0  0  0  0  0  0  0  0  0  0
   -4.5133   13.2885   -6.4783 H   0  0  0  0  0  0  0  0  0  0  0  0
   -6.7415   12.3119   -6.9097 H   0  0  0  0  0  0  0  0  0  0  0  0
   -2.1446   14.2201   -7.1496 H   0  0  0  0  0  0  0  0  0  0  0  0
   -2.1954   13.5713   -5.4753 H   0  0  0  0  0  0  0  0  0  0  0  0
   -0.6442   10.5957   -7.5787 H   0  0  0  0  0  0  0  0  0  0  0  0
    1.4518   14.3348   -6.0355 H   0  0  0  0  0  0  0  0  0  0  0  0
    0.1929   15.4840   -6.6021 H   0  0  0  0  0  0  0  0  0  0  0  0
    0.1381   14.8479   -4.9231 H   0  0  0  0  0  0  0  0  0  0  0  0
   -3.3468   15.1789  -12.6576 H   0  0  0  0  0  0  0  0  0  0  0  0
   -3.9603   15.7589  -11.0720 H   0  0  0  0  0  0  0  0  0  0  0  0
   -2.2706   14.7595   -9.8791 H   0  0  0  0  0  0  0  0  0  0  0  0
   -1.8326   12.5779  -11.9435 H   0  0  0  0  0  0  0  0  0  0  0  0
   -1.6269   12.5226  -10.1599 H   0  0  0  0  0  0  0  0  0  0  0  0
   -4.0107   12.5154   -9.7621 H   0  0  0  0  0  0  0  0  0  0  0  0
   -3.9577   11.6228  -11.3200 H   0  0  0  0  0  0  0  0  0  0  0  0
   -0.2836   14.7209  -11.0208 H   0  0  0  0  0  0  0  0  0  0  0  0
  1  2  2  0  0  0  0
  1  4  1  0  0  0  0
  1 12  1  0  0  0  0
  2  6  1  0  0  0  0
  3  4  2  0  0  0  0
  3  5  1  0  0  0  0
  5  6  1  0  0  0  0
  5  9  2  0  0  0  0
  6  7  2  0  0  0  0
  7  8  1  0  0  0  0
  7 10  1  0  0  0  0
  8  9  1  0  0  0  0
 10 14  2  0  0  0  0
 11 12  1  0  0  0  0
 11 26  1  0  0  0  0
 11 29  1  0  0  0  0
 12 13  2  0  0  0  0
 14 15  1  0  0  0  0
 14 19  1  0  0  0  0
 15 16  2  0  0  0  0
 16 17  1  0  0  0  0
 17 18  1  0  0  0  0
 17 20  2  0  0  0  0
 18 19  2  0  0  0  0
 20 21  1  0  0  0  0
 20 24  1  0  0  0  0
 21 22  1  0  0  0  0
 22 23  1  0  0  0  0
 22 25  1  0  0  0  0
 23 24  2  0  0  0  0
 26 27  1  0  0  0  0
 27 28  1  0  0  0  0
 27 30  1  0  0  0  0
 28 29  1  0  0  0  0
  2 31  1  0  0  0  0
  3 32  1  0  0  0  0
  4 33  1  0  0  0  0
  8 34  1  0  0  0  0
 10 35  1  0  0  0  0
 15 36  1  0  0  0  0
 16 37  1  0  0  0  0
 18 38  1  0  0  0  0
 19 39  1  0  0  0  0
 21 40  1  0  0  0  0
 21 41  1  0  0  0  0
 24 42  1  0  0  0  0
 25 43  1  0  0  0  0
 25 44  1  0  0  0  0
 25 45  1  0  0  0  0
 26 46  1  0  0  0  0
 26 47  1  0  0  0  0
 27 48  1  0  0  0  0
 28 49  1  0  0  0  0
 28 50  1  0  0  0  0
 29 51  1  0  0  0  0
 29 52  1  0  0  0  0
 30 53  1  0  0  0  0
M  END
> <Name>
31

> <IC50[uM]>
0.002

$$$$
31
  -OEChem-05192314333D
 Structure written by MMmdl.
 53 57  0     1  0  0  0  0  0999 V2000
   -6.3709   12.3579  -12.0062 C   0  0  0  0  0  0  0  0  0  0  0  0
   -6.5187   11.8083  -10.7296 C   0  0  0  0  0  0  0  0  0  0  0  0
   -7.7194   10.5704  -13.0321 C   0  0  0  0  0  0  0  0  0  0  0  0
   -6.9838   11.7645  -13.1240 C   0  0  0  0  0  0  0  0  0  0  0  0
   -7.8186   10.0073  -11.7576 C   0  0  0  0  0  0  0  0  0  0  0  0
   -7.2434   10.6206  -10.5991 C   0  0  0  0  0  0  0  0  0  0  0  0
   -7.6160    9.7494   -9.5117 C   0  0  0  0  0  0  0  0  0  0  0  0
   -8.2808    8.7336   -9.9894 N   0  0  0  0  0  0  0  0  0  0  0  0
   -8.4141    8.8594  -11.3008 N   0  0  0  0  0  0  0  0  0  0  0  0
   -7.3385    9.8886   -8.0248 C   0  0  0  0  0  0  0  0  0  0  0  0
   -4.3631   13.7190  -11.4993 N   0  0  0  0  0  0  0  0  0  0  0  0
   -5.5500   13.6364  -12.1907 C   0  0  0  0  0  0  0  0  0  0  0  0
   -5.9462   14.5251  -12.9474 O   0  0  0  0  0  0  0  0  0  0  0  0
   -5.9607   10.4852   -7.7356 C   0  0  0  0  0  0  0  0  0  0  0  0
   -4.8097    9.7639   -8.0527 C   0  0  0  0  0  0  0  0  0  0  0  0
   -3.5522   10.3124   -7.8024 C   0  0  0  0  0  0  0  0  0  0  0  0
   -3.4444   11.5885   -7.2376 C   0  0  0  0  0  0  0  0  0  0  0  0
   -4.5952   12.3052   -6.9174 C   0  0  0  0  0  0  0  0  0  0  0  0
   -5.8509   11.7557   -7.1626 C   0  0  0  0  0  0  0  0  0  0  0  0
   -2.1000   12.1783   -6.9759 C   0  0  0  0  0  0  0  0  0  0  0  0
   -1.7654   13.4353   -6.4786 C   0  0  0  0  0  0  0  0  0  0  0  0
   -0.4305   13.4892   -6.4172 N   0  0  0  0  0  0  0  0  0  0  0  0
    0.1699   12.4025   -6.8093 N   0  0  0  0  0  0  0  0  0  0  0  0
   -0.8029   11.5856   -7.1770 C   0  0  0  0  0  0  0  0  0  0  0  0
    0.3883   14.6074   -5.9669 C   0  0  0  0  0  0  0  0  0  0  0  0
   -3.5134   14.9066  -11.6049 C   0  0  0  0  0  0  0  0  0  0  0  0
   -2.2037   14.4678  -10.9376 C   0  0  1  0  0  0  0  0  0  0  0  0
   -2.2231   12.9442  -10.9826 C   0  0  0  0  0  0  0  0  0  0  0  0
   -3.7200   12.5740  -10.8214 C   0  0  0  0  0  0  0  0  0  0  0  0
   -1.0475   15.0410  -11.4860 O   0  0  0  0  0  0  0  0  0  0  0  0
   -6.0839   12.2893   -9.8659 H   0  0  0  0  0  0  0  0  0  0  0  0
   -8.1807   10.1150  -13.8959 H   0  0  0  0  0  0  0  0  0  0  0  0
   -6.8858   12.2432  -14.0871 H   0  0  0  0  0  0  0  0  0  0  0  0
   -8.8890    8.2007  -11.8844 H   0  0  0  0  0  0  0  0  0  0  0  0
   -8.0384    9.5978   -7.2554 H   0  0  0  0  0  0  0  0  0  0  0  0
   -4.8924    8.7808   -8.4920 H   0  0  0  0  0  0  0  0  0  0  0  0
   -2.6611    9.7523   -8.0445 H   0  0  0  0  0  0  0  0  0  0  0  0
   -4.5133   13.2885   -6.4783 H   0  0  0  0  0  0  0  0  0  0  0  0
   -6.7415   12.3119   -6.9097 H   0  0  0  0  0  0  0  0  0  0  0  0
   -2.1446   14.2201   -7.1496 H   0  0  0  0  0  0  0  0  0  0  0  0
   -2.1954   13.5713   -5.4753 H   0  0  0  0  0  0  0  0  0  0  0  0
   -0.6442   10.5957   -7.5787 H   0  0  0  0  0  0  0  0  0  0  0  0
    1.4518   14.3348   -6.0355 H   0  0  0  0  0  0  0  0  0  0  0  0
    0.1929   15.4840   -6.6021 H   0  0  0  0  0  0  0  0  0  0  0  0
    0.1381   14.8479   -4.9231 H   0  0  0  0  0  0  0  0  0  0  0  0
   -3.3468   15.1789  -12.6576 H   0  0  0  0  0  0  0  0  0  0  0  0
   -3.9603   15.7589  -11.0720 H   0  0  0  0  0  0  0  0  0  0  0  0
   -2.2706   14.7595   -9.8791 H   0  0  0  0  0  0  0  0  0  0  0  0
   -1.8326   12.5779  -11.9435 H   0  0  0  0  0  0  0  0  0  0  0  0
   -1.6269   12.5226  -10.1599 H   0  0  0  0  0  0  0  0  0  0  0  0
   -4.0107   12.5154   -9.7621 H   0  0  0  0  0  0  0  0  0  0  0  0
   -3.9577   11.6228  -11.3200 H   0  0  0  0  0  0  0  0  0  0  0  0
   -0.2836   14.7209  -11.0208 H   0  0  0  0  0  0  0  0  0  0  0  0
  1  2  2  0  0  0  0
  1  4  1  0  0  0  0
  1 12  1  0  0  0  0
  2  6  1  0  0  0  0
  3  4  2  0  0  0  0
  3  5  1  0  0  0  0
  5  6  2  0  0  0  0
  5  9  1  0  0  0  0
  6  7  1  0  0  0  0
  7  8  2  0  0  0  0
  7 10  1  0  0  0  0
  8  9  1  0  0  0  0
 10 14  2  0  0  0  0
 11 12  1  0  0  0  0
 11 26  1  0  0  0  0
 11 29  1  0  0  0  0
 12 13  2  0  0  0  0
 14 15  1  0  0  0  0
 14 19  1  0  0  0  0
 15 16  2  0  0  0  0
 16 17  1  0  0  0  0
 17 18  1  0  0  0  0
 17 20  2  0  0  0  0
 18 19  2  0  0  0  0
 20 21  1  0  0  0  0
 20 24  1  0  0  0  0
 21 22  1  0  0  0  0
 22 23  1  0  0  0  0
 22 25  1  0  0  0  0
 23 24  2  0  0  0  0
 26 27  1  0  0  0  0
 27 28  1  0  0  0  0
 27 30  1  0  0  0  0
 28 29  1  0  0  0  0
  2 31  1  0  0  0  0
  3 32  1  0  0  0  0
  4 33  1  0  0  0  0
  9 34  1  0  0  0  0
 10 35  1  0  0  0  0
 15 36  1  0  0  0  0
 16 37  1  0  0  0  0
 18 38  1  0  0  0  0
 19 39  1  0  0  0  0
 21 40  1  0  0  0  0
 21 41  1  0  0  0  0
 24 42  1  0  0  0  0
 25 43  1  0  0  0  0
 25 44  1  0  0  0  0
 25 45  1  0  0  0  0
 26 46  1  0  0  0  0
 26 47  1  0  0  0  0
 27 48  1  0  0  0  0
 28 49  1  0  0  0  0
 28 50  1  0  0  0  0
 29 51  1  0  0  0  0
 29 52  1  0  0  0  0
 30 53  1  0  0  0  0
M  END
> <Name>
31

> <IC50[uM]>
0.002

$$$$
31
  -OEChem-05192314333D
 Structure written by MMmdl.
 53 57  0     1  0  0  0  0  0999 V2000
   -6.3709   12.3579  -12.0062 C   0  0  0  0  0  0  0  0  0  0  0  0
   -6.5187   11.8083  -10.7296 C   0  0  0  0  0  0  0  0  0  0  0  0
   -7.7194   10.5704  -13.0321 C   0  0  0  0  0  0  0  0  0  0  0  0
   -6.9838   11.7645  -13.1240 C   0  0  0  0  0  0  0  0  0  0  0  0
   -7.8186   10.0073  -11.7576 C   0  0  0  0  0  0  0  0  0  0  0  0
   -7.2434   10.6206  -10.5991 C   0  0  0  0  0  0  0  0  0  0  0  0
   -7.6160    9.7494   -9.5117 C   0  0  0  0  0  0  0  0  0  0  0  0
   -8.2808    8.7336   -9.9894 N   0  0  0  0  0  0  0  0  0  0  0  0
   -8.4141    8.8594  -11.3008 N   0  0  0  0  0  0  0  0  0  0  0  0
   -7.3385    9.8886   -8.0248 C   0  0  0  0  0  0  0  0  0  0  0  0
   -4.3631   13.7190  -11.4993 N   0  0  0  0  0  0  0  0  0  0  0  0
   -5.5500   13.6364  -12.1907 C   0  0  0  0  0  0  0  0  0  0  0  0
   -5.9462   14.5251  -12.9474 O   0  0  0  0  0  0  0  0  0  0  0  0
   -5.9607   10.4852   -7.7356 C   0  0  0  0  0  0  0  0  0  0  0  0
   -4.8097    9.7639   -8.0527 C   0  0  0  0  0  0  0  0  0  0  0  0
   -3.5522   10.3124   -7.8024 C   0  0  0  0  0  0  0  0  0  0  0  0
   -3.4444   11.5885   -7.2376 C   0  0  0  0  0  0  0  0  0  0  0  0
   -4.5952   12.3052   -6.9174 C   0  0  0  0  0  0  0  0  0  0  0  0
   -5.8509   11.7557   -7.1626 C   0  0  0  0  0  0  0  0  0  0  0  0
   -2.1000   12.1783   -6.9759 C   0  0  0  0  0  0  0  0  0  0  0  0
   -1.7654   13.4353   -6.4786 C   0  0  0  0  0  0  0  0  0  0  0  0
   -0.4305   13.4892   -6.4172 N   0  0  0  0  0  0  0  0  0  0  0  0
    0.1699   12.4025   -6.8093 N   0  0  0  0  0  0  0  0  0  0  0  0
   -0.8029   11.5856   -7.1770 C   0  0  0  0  0  0  0  0  0  0  0  0
    0.3883   14.6074   -5.9669 C   0  0  0  0  0  0  0  0  0  0  0  0
   -3.5134   14.9066  -11.6049 C   0  0  0  0  0  0  0  0  0  0  0  0
   -2.2037   14.4678  -10.9376 C   0  0  1  0  0  0  0  0  0  0  0  0
   -2.2231   12.9442  -10.9826 C   0  0  0  0  0  0  0  0  0  0  0  0
   -3.7200   12.5740  -10.8214 C   0  0  0  0  0  0  0  0  0  0  0  0
   -1.0475   15.0410  -11.4860 O   0  0  0  0  0  0  0  0  0  0  0  0
   -6.0839   12.2893   -9.8659 H   0  0  0  0  0  0  0  0  0  0  0  0
   -8.1807   10.1150  -13.8959 H   0  0  0  0  0  0  0  0  0  0  0  0
   -6.8858   12.2432  -14.0871 H   0  0  0  0  0  0  0  0  0  0  0  0
   -8.6367    7.9732   -9.4461 H   0  0  0  0  0  0  0  0  0  0  0  0
   -8.0384    9.5978   -7.2554 H   0  0  0  0  0  0  0  0  0  0  0  0
   -4.8924    8.7808   -8.4920 H   0  0  0  0  0  0  0  0  0  0  0  0
   -2.6611    9.7523   -8.0445 H   0  0  0  0  0  0  0  0  0  0  0  0
   -3.4453   12.0346   -8.2431 H   0  0  0  0  0  0  0  0  0  0  0  0
   -4.5133   13.2885   -6.4783 H   0  0  0  0  0  0  0  0  0  0  0  0
   -6.7415   12.3119   -6.9097 H   0  0  0  0  0  0  0  0  0  0  0  0
   -2.4535   14.2183   -6.1960 H   0  0  0  0  0  0  0  0  0  0  0  0
   -0.6442   10.5957   -7.5787 H   0  0  0  0  0  0  0  0  0  0  0  0
    1.4518   14.3348   -6.0355 H   0  0  0  0  0  0  0  0  0  0  0  0
    0.1929   15.4840   -6.6021 H   0  0  0  0  0  0  0  0  0  0  0  0
    0.1381   14.8479   -4.9231 H   0  0  0  0  0  0  0  0  0  0  0  0
   -3.3468   15.1789  -12.6576 H   0  0  0  0  0  0  0  0  0  0  0  0
   -3.9603   15.7589  -11.0720 H   0  0  0  0  0  0  0  0  0  0  0  0
   -2.2706   14.7595   -9.8791 H   0  0  0  0  0  0  0  0  0  0  0  0
   -1.8326   12.5779  -11.9435 H   0  0  0  0  0  0  0  0  0  0  0  0
   -1.6269   12.5226  -10.1599 H   0  0  0  0  0  0  0  0  0  0  0  0
   -4.0107   12.5154   -9.7621 H   0  0  0  0  0  0  0  0  0  0  0  0
   -3.9577   11.6228  -11.3200 H   0  0  0  0  0  0  0  0  0  0  0  0
   -0.2836   14.7209  -11.0208 H   0  0  0  0  0  0  0  0  0  0  0  0
  1  2  2  0  0  0  0
  1  4  1  0  0  0  0
  1 12  1  0  0  0  0
  2  6  1  0  0  0  0
  3  4  2  0  0  0  0
  3  5  1  0  0  0  0
  5  6  1  0  0  0  0
  5  9  2  0  0  0  0
  6  7  2  0  0  0  0
  7  8  1  0  0  0  0
  7 10  1  0  0  0  0
  8  9  1  0  0  0  0
 10 14  2  0  0  0  0
 11 12  1  0  0  0  0
 11 26  1  0  0  0  0
 11 29  1  0  0  0  0
 12 13  2  0  0  0  0
 14 15  1  0  0  0  0
 14 19  1  0  0  0  0
 15 16  2  0  0  0  0
 16 17  1  0  0  0  0
 17 18  1  0  0  0  0
 17 20  1  0  0  0  0
 18 19  2  0  0  0  0
 20 21  2  0  0  0  0
 20 24  1  0  0  0  0
 21 22  1  0  0  0  0
 22 23  1  0  0  0  0
 22 25  1  0  0  0  0
 23 24  2  0  0  0  0
 26 27  1  0  0  0  0
 27 28  1  0  0  0  0
 27 30  1  0  0  0  0
 28 29  1  0  0  0  0
  2 31  1  0  0  0  0
  3 32  1  0  0  0  0
  4 33  1  0  0  0  0
  8 34  1  0  0  0  0
 10 35  1  0  0  0  0
 15 36  1  0  0  0  0
 16 37  1  0  0  0  0
 17 38  1  0  0  0  0
 18 39  1  0  0  0  0
 19 40  1  0  0  0  0
 21 41  1  0  0  0  0
 24 42  1  0  0  0  0
 25 43  1  0  0  0  0
 25 44  1  0  0  0  0
 25 45  1  0  0  0  0
 26 46  1  0  0  0  0
 26 47  1  0  0  0  0
 27 48  1  0  0  0  0
 28 49  1  0  0  0  0
 28 50  1  0  0  0  0
 29 51  1  0  0  0  0
 29 52  1  0  0  0  0
 30 53  1  0  0  0  0
M  END
> <Name>
31

> <IC50[uM]>
0.002

$$$$
31
  -OEChem-05192314333D
 Structure written by MMmdl.
 53 57  0     1  0  0  0  0  0999 V2000
   -6.3709   12.3579  -12.0062 C   0  0  0  0  0  0  0  0  0  0  0  0
   -6.5187   11.8083  -10.7296 C   0  0  0  0  0  0  0  0  0  0  0  0
   -7.7194   10.5704  -13.0321 C   0  0  0  0  0  0  0  0  0  0  0  0
   -6.9838   11.7645  -13.1240 C   0  0  0  0  0  0  0  0  0  0  0  0
   -7.8186   10.0073  -11.7576 C   0  0  0  0  0  0  0  0  0  0  0  0
   -7.2434   10.6206  -10.5991 C   0  0  0  0  0  0  0  0  0  0  0  0
   -7.6160    9.7494   -9.5117 C   0  0  0  0  0  0  0  0  0  0  0  0
   -8.2808    8.7336   -9.9894 N   0  0  0  0  0  0  0  0  0  0  0  0
   -8.4141    8.8594  -11.3008 N   0  0  0  0  0  0  0  0  0  0  0  0
   -7.3385    9.8886   -8.0248 C   0  0  0  0  0  0  0  0  0  0  0  0
   -4.3631   13.7190  -11.4993 N   0  0  0  0  0  0  0  0  0  0  0  0
   -5.5500   13.6364  -12.1907 C   0  0  0  0  0  0  0  0  0  0  0  0
   -5.9462   14.5251  -12.9474 O   0  0  0  0  0  0  0  0  0  0  0  0
   -5.9607   10.4852   -7.7356 C   0  0  0  0  0  0  0  0  0  0  0  0
   -4.8097    9.7639   -8.0527 C   0  0  0  0  0  0  0  0  0  0  0  0
   -3.5522   10.3124   -7.8024 C   0  0  0  0  0  0  0  0  0  0  0  0
   -3.4444   11.5885   -7.2376 C   0  0  0  0  0  0  0  0  0  0  0  0
   -4.5952   12.3052   -6.9174 C   0  0  0  0  0  0  0  0  0  0  0  0
   -5.8509   11.7557   -7.1626 C   0  0  0  0  0  0  0  0  0  0  0  0
   -2.1000   12.1783   -6.9759 C   0  0  0  0  0  0  0  0  0  0  0  0
   -1.7654   13.4353   -6.4786 C   0  0  0  0  0  0  0  0  0  0  0  0
   -0.4305   13.4892   -6.4172 N   0  0  0  0  0  0  0  0  0  0  0  0
    0.1699   12.4025   -6.8093 N   0  0  0  0  0  0  0  0  0  0  0  0
   -0.8029   11.5856   -7.1770 C   0  0  0  0  0  0  0  0  0  0  0  0
    0.3883   14.6074   -5.9669 C   0  0  0  0  0  0  0  0  0  0  0  0
   -3.5134   14.9066  -11.6049 C   0  0  0  0  0  0  0  0  0  0  0  0
   -2.2037   14.4678  -10.9376 C   0  0  1  0  0  0  0  0  0  0  0  0
   -2.2231   12.9442  -10.9826 C   0  0  0  0  0  0  0  0  0  0  0  0
   -3.7200   12.5740  -10.8214 C   0  0  0  0  0  0  0  0  0  0  0  0
   -1.0475   15.0410  -11.4860 O   0  0  0  0  0  0  0  0  0  0  0  0
   -6.0839   12.2893   -9.8659 H   0  0  0  0  0  0  0  0  0  0  0  0
   -8.1807   10.1150  -13.8959 H   0  0  0  0  0  0  0  0  0  0  0  0
   -6.8858   12.2432  -14.0871 H   0  0  0  0  0  0  0  0  0  0  0  0
   -8.8890    8.2007  -11.8844 H   0  0  0  0  0  0  0  0  0  0  0  0
   -8.0384    9.5978   -7.2554 H   0  0  0  0  0  0  0  0  0  0  0  0
   -4.8924    8.7808   -8.4920 H   0  0  0  0  0  0  0  0  0  0  0  0
   -2.6611    9.7523   -8.0445 H   0  0  0  0  0  0  0  0  0  0  0  0
   -3.4453   12.0346   -8.2431 H   0  0  0  0  0  0  0  0  0  0  0  0
   -4.5133   13.2885   -6.4783 H   0  0  0  0  0  0  0  0  0  0  0  0
   -6.7415   12.3119   -6.9097 H   0  0  0  0  0  0  0  0  0  0  0  0
   -2.4535   14.2183   -6.1960 H   0  0  0  0  0  0  0  0  0  0  0  0
   -0.6442   10.5957   -7.5787 H   0  0  0  0  0  0  0  0  0  0  0  0
    1.4518   14.3348   -6.0355 H   0  0  0  0  0  0  0  0  0  0  0  0
    0.1929   15.4840   -6.6021 H   0  0  0  0  0  0  0  0  0  0  0  0
    0.1381   14.8479   -4.9231 H   0  0  0  0  0  0  0  0  0  0  0  0
   -3.3468   15.1789  -12.6576 H   0  0  0  0  0  0  0  0  0  0  0  0
   -3.9603   15.7589  -11.0720 H   0  0  0  0  0  0  0  0  0  0  0  0
   -2.2706   14.7595   -9.8791 H   0  0  0  0  0  0  0  0  0  0  0  0
   -1.8326   12.5779  -11.9435 H   0  0  0  0  0  0  0  0  0  0  0  0
   -1.6269   12.5226  -10.1599 H   0  0  0  0  0  0  0  0  0  0  0  0
   -4.0107   12.5154   -9.7621 H   0  0  0  0  0  0  0  0  0  0  0  0
   -3.9577   11.6228  -11.3200 H   0  0  0  0  0  0  0  0  0  0  0  0
   -0.2836   14.7209  -11.0208 H   0  0  0  0  0  0  0  0  0  0  0  0
  1  2  2  0  0  0  0
  1  4  1  0  0  0  0
  1 12  1  0  0  0  0
  2  6  1  0  0  0  0
  3  4  2  0  0  0  0
  3  5  1  0  0  0  0
  5  6  2  0  0  0  0
  5  9  1  0  0  0  0
  6  7  1  0  0  0  0
  7  8  2  0  0  0  0
  7 10  1  0  0  0  0
  8  9  1  0  0  0  0
 10 14  2  0  0  0  0
 11 12  1  0  0  0  0
 11 26  1  0  0  0  0
 11 29  1  0  0  0  0
 12 13  2  0  0  0  0
 14 15  1  0  0  0  0
 14 19  1  0  0  0  0
 15 16  2  0  0  0  0
 16 17  1  0  0  0  0
 17 18  1  0  0  0  0
 17 20  1  0  0  0  0
 18 19  2  0  0  0  0
 20 21  2  0  0  0  0
 20 24  1  0  0  0  0
 21 22  1  0  0  0  0
 22 23  1  0  0  0  0
 22 25  1  0  0  0  0
 23 24  2  0  0  0  0
 26 27  1  0  0  0  0
 27 28  1  0  0  0  0
 27 30  1  0  0  0  0
 28 29  1  0  0  0  0
  2 31  1  0  0  0  0
  3 32  1  0  0  0  0
  4 33  1  0  0  0  0
  9 34  1  0  0  0  0
 10 35  1  0  0  0  0
 15 36  1  0  0  0  0
 16 37  1  0  0  0  0
 17 38  1  0  0  0  0
 18 39  1  0  0  0  0
 19 40  1  0  0  0  0
 21 41  1  0  0  0  0
 24 42  1  0  0  0  0
 25 43  1  0  0  0  0
 25 44  1  0  0  0  0
 25 45  1  0  0  0  0
 26 46  1  0  0  0  0
 26 47  1  0  0  0  0
 27 48  1  0  0  0  0
 28 49  1  0  0  0  0
 28 50  1  0  0  0  0
 29 51  1  0  0  0  0
 29 52  1  0  0  0  0
 30 53  1  0  0  0  0
M  END
> <Name>
31

> <IC50[uM]>
0.002

$$$$
31
  -OEChem-05192314333D
 Structure written by MMmdl.
 53 57  0     1  0  0  0  0  0999 V2000
   -6.3709   12.3579  -12.0062 C   0  0  0  0  0  0  0  0  0  0  0  0
   -6.5187   11.8083  -10.7296 C   0  0  0  0  0  0  0  0  0  0  0  0
   -7.7194   10.5704  -13.0321 C   0  0  0  0  0  0  0  0  0  0  0  0
   -6.9838   11.7645  -13.1240 C   0  0  0  0  0  0  0  0  0  0  0  0
   -7.8186   10.0073  -11.7576 C   0  0  0  0  0  0  0  0  0  0  0  0
   -7.2434   10.6206  -10.5991 C   0  0  0  0  0  0  0  0  0  0  0  0
   -7.6160    9.7494   -9.5117 C   0  0  0  0  0  0  0  0  0  0  0  0
   -8.2808    8.7336   -9.9894 N   0  0  0  0  0  0  0  0  0  0  0  0
   -8.4141    8.8594  -11.3008 N   0  0  0  0  0  0  0  0  0  0  0  0
   -7.3385    9.8886   -8.0248 C   0  0  0  0  0  0  0  0  0  0  0  0
   -4.3631   13.7190  -11.4993 N   0  0  0  0  0  0  0  0  0  0  0  0
   -5.5500   13.6364  -12.1907 C   0  0  0  0  0  0  0  0  0  0  0  0
   -5.9462   14.5251  -12.9474 O   0  0  0  0  0  0  0  0  0  0  0  0
   -5.9607   10.4852   -7.7356 C   0  0  0  0  0  0  0  0  0  0  0  0
   -4.8097    9.7639   -8.0527 C   0  0  0  0  0  0  0  0  0  0  0  0
   -3.5522   10.3124   -7.8024 C   0  0  0  0  0  0  0  0  0  0  0  0
   -3.4444   11.5885   -7.2376 C   0  0  0  0  0  0  0  0  0  0  0  0
   -4.5952   12.3052   -6.9174 C   0  0  0  0  0  0  0  0  0  0  0  0
   -5.8509   11.7557   -7.1626 C   0  0  0  0  0  0  0  0  0  0  0  0
   -2.1000   12.1783   -6.9759 C   0  0  0  0  0  0  0  0  0  0  0  0
   -1.7654   13.4353   -6.4786 C   0  0  0  0  0  0  0  0  0  0  0  0
   -0.4305   13.4892   -6.4172 N   0  0  0  0  0  0  0  0  0  0  0  0
    0.1699   12.4025   -6.8093 N   0  0  0  0  0  0  0  0  0  0  0  0
   -0.8029   11.5856   -7.1770 C   0  0  0  0  0  0  0  0  0  0  0  0
    0.3883   14.6074   -5.9669 C   0  0  0  0  0  0  0  0  0  0  0  0
   -3.5134   14.9066  -11.6049 C   0  0  0  0  0  0  0  0  0  0  0  0
   -2.2037   14.4678  -10.9376 C   0  0  1  0  0  0  0  0  0  0  0  0
   -2.2231   12.9442  -10.9826 C   0  0  0  0  0  0  0  0  0  0  0  0
   -3.7200   12.5740  -10.8214 C   0  0  0  0  0  0  0  0  0  0  0  0
   -1.0475   15.0410  -11.4860 O   0  0  0  0  0  0  0  0  0  0  0  0
   -6.0839   12.2893   -9.8659 H   0  0  0  0  0  0  0  0  0  0  0  0
   -8.1807   10.1150  -13.8959 H   0  0  0  0  0  0  0  0  0  0  0  0
   -6.8858   12.2432  -14.0871 H   0  0  0  0  0  0  0  0  0  0  0  0
   -8.6367    7.9732   -9.4461 H   0  0  0  0  0  0  0  0  0  0  0  0
   -8.0384    9.5978   -7.2554 H   0  0  0  0  0  0  0  0  0  0  0  0
   -4.8924    8.7808   -8.4920 H   0  0  0  0  0  0  0  0  0  0  0  0
   -2.6611    9.7523   -8.0445 H   0  0  0  0  0  0  0  0  0  0  0  0
   -4.5133   13.2885   -6.4783 H   0  0  0  0  0  0  0  0  0  0  0  0
   -6.3764   12.4521   -7.8326 H   0  0  0  0  0  0  0  0  0  0  0  0
   -6.3728   11.7134   -6.1952 H   0  0  0  0  0  0  0  0  0  0  0  0
   -2.4535   14.2183   -6.1960 H   0  0  0  0  0  0  0  0  0  0  0  0
   -0.6442   10.5957   -7.5787 H   0  0  0  0  0  0  0  0  0  0  0  0
    1.4518   14.3348   -6.0355 H   0  0  0  0  0  0  0  0  0  0  0  0
    0.1929   15.4840   -6.6021 H   0  0  0  0  0  0  0  0  0  0  0  0
    0.1381   14.8479   -4.9231 H   0  0  0  0  0  0  0  0  0  0  0  0
   -3.3468   15.1789  -12.6576 H   0  0  0  0  0  0  0  0  0  0  0  0
   -3.9603   15.7589  -11.0720 H   0  0  0  0  0  0  0  0  0  0  0  0
   -2.2706   14.7595   -9.8791 H   0  0  0  0  0  0  0  0  0  0  0  0
   -1.8326   12.5779  -11.9435 H   0  0  0  0  0  0  0  0  0  0  0  0
   -1.6269   12.5226  -10.1599 H   0  0  0  0  0  0  0  0  0  0  0  0
   -4.0107   12.5154   -9.7621 H   0  0  0  0  0  0  0  0  0  0  0  0
   -3.9577   11.6228  -11.3200 H   0  0  0  0  0  0  0  0  0  0  0  0
   -0.2836   14.7209  -11.0208 H   0  0  0  0  0  0  0  0  0  0  0  0
  1  2  2  0  0  0  0
  1  4  1  0  0  0  0
  1 12  1  0  0  0  0
  2  6  1  0  0  0  0
  3  4  2  0  0  0  0
  3  5  1  0  0  0  0
  5  6  1  0  0  0  0
  5  9  2  0  0  0  0
  6  7  2  0  0  0  0
  7  8  1  0  0  0  0
  7 10  1  0  0  0  0
  8  9  1  0  0  0  0
 10 14  2  0  0  0  0
 11 12  1  0  0  0  0
 11 26  1  0  0  0  0
 11 29  1  0  0  0  0
 12 13  2  0  0  0  0
 14 15  1  0  0  0  0
 14 19  1  0  0  0  0
 15 16  2  0  0  0  0
 16 17  1  0  0  0  0
 17 18  2  0  0  0  0
 17 20  1  0  0  0  0
 18 19  1  0  0  0  0
 20 21  2  0  0  0  0
 20 24  1  0  0  0  0
 21 22  1  0  0  0  0
 22 23  1  0  0  0  0
 22 25  1  0  0  0  0
 23 24  2  0  0  0  0
 26 27  1  0  0  0  0
 27 28  1  0  0  0  0
 27 30  1  0  0  0  0
 28 29  1  0  0  0  0
  2 31  1  0  0  0  0
  3 32  1  0  0  0  0
  4 33  1  0  0  0  0
  8 34  1  0  0  0  0
 10 35  1  0  0  0  0
 15 36  1  0  0  0  0
 16 37  1  0  0  0  0
 18 38  1  0  0  0  0
 19 39  1  0  0  0  0
 19 40  1  0  0  0  0
 21 41  1  0  0  0  0
 24 42  1  0  0  0  0
 25 43  1  0  0  0  0
 25 44  1  0  0  0  0
 25 45  1  0  0  0  0
 26 46  1  0  0  0  0
 26 47  1  0  0  0  0
 27 48  1  0  0  0  0
 28 49  1  0  0  0  0
 28 50  1  0  0  0  0
 29 51  1  0  0  0  0
 29 52  1  0  0  0  0
 30 53  1  0  0  0  0
M  END
> <Name>
31

> <IC50[uM]>
0.002

$$$$
31
  -OEChem-05192314333D
 Structure written by MMmdl.
 53 57  0     1  0  0  0  0  0999 V2000
   -6.3709   12.3579  -12.0062 C   0  0  0  0  0  0  0  0  0  0  0  0
   -6.5187   11.8083  -10.7296 C   0  0  0  0  0  0  0  0  0  0  0  0
   -7.7194   10.5704  -13.0321 C   0  0  0  0  0  0  0  0  0  0  0  0
   -6.9838   11.7645  -13.1240 C   0  0  0  0  0  0  0  0  0  0  0  0
   -7.8186   10.0073  -11.7576 C   0  0  0  0  0  0  0  0  0  0  0  0
   -7.2434   10.6206  -10.5991 C   0  0  0  0  0  0  0  0  0  0  0  0
   -7.6160    9.7494   -9.5117 C   0  0  0  0  0  0  0  0  0  0  0  0
   -8.2808    8.7336   -9.9894 N   0  0  0  0  0  0  0  0  0  0  0  0
   -8.4141    8.8594  -11.3008 N   0  0  0  0  0  0  0  0  0  0  0  0
   -7.3385    9.8886   -8.0248 C   0  0  0  0  0  0  0  0  0  0  0  0
   -4.3631   13.7190  -11.4993 N   0  0  0  0  0  0  0  0  0  0  0  0
   -5.5500   13.6364  -12.1907 C   0  0  0  0  0  0  0  0  0  0  0  0
   -5.9462   14.5251  -12.9474 O   0  0  0  0  0  0  0  0  0  0  0  0
   -5.9607   10.4852   -7.7356 C   0  0  0  0  0  0  0  0  0  0  0  0
   -4.8097    9.7639   -8.0527 C   0  0  0  0  0  0  0  0  0  0  0  0
   -3.5522   10.3124   -7.8024 C   0  0  0  0  0  0  0  0  0  0  0  0
   -3.4444   11.5885   -7.2376 C   0  0  0  0  0  0  0  0  0  0  0  0
   -4.5952   12.3052   -6.9174 C   0  0  0  0  0  0  0  0  0  0  0  0
   -5.8509   11.7557   -7.1626 C   0  0  0  0  0  0  0  0  0  0  0  0
   -2.1000   12.1783   -6.9759 C   0  0  0  0  0  0  0  0  0  0  0  0
   -1.7654   13.4353   -6.4786 C   0  0  0  0  0  0  0  0  0  0  0  0
   -0.4305   13.4892   -6.4172 N   0  0  0  0  0  0  0  0  0  0  0  0
    0.1699   12.4025   -6.8093 N   0  0  0  0  0  0  0  0  0  0  0  0
   -0.8029   11.5856   -7.1770 C   0  0  0  0  0  0  0  0  0  0  0  0
    0.3883   14.6074   -5.9669 C   0  0  0  0  0  0  0  0  0  0  0  0
   -3.5134   14.9066  -11.6049 C   0  0  0  0  0  0  0  0  0  0  0  0
   -2.2037   14.4678  -10.9376 C   0  0  1  0  0  0  0  0  0  0  0  0
   -2.2231   12.9442  -10.9826 C   0  0  0  0  0  0  0  0  0  0  0  0
   -3.7200   12.5740  -10.8214 C   0  0  0  0  0  0  0  0  0  0  0  0
   -1.0475   15.0410  -11.4860 O   0  0  0  0  0  0  0  0  0  0  0  0
   -6.0839   12.2893   -9.8659 H   0  0  0  0  0  0  0  0  0  0  0  0
   -8.1807   10.1150  -13.8959 H   0  0  0  0  0  0  0  0  0  0  0  0
   -6.8858   12.2432  -14.0871 H   0  0  0  0  0  0  0  0  0  0  0  0
   -8.8890    8.2007  -11.8844 H   0  0  0  0  0  0  0  0  0  0  0  0
   -8.0384    9.5978   -7.2554 H   0  0  0  0  0  0  0  0  0  0  0  0
   -4.8924    8.7808   -8.4920 H   0  0  0  0  0  0  0  0  0  0  0  0
   -2.6611    9.7523   -8.0445 H   0  0  0  0  0  0  0  0  0  0  0  0
   -4.5133   13.2885   -6.4783 H   0  0  0  0  0  0  0  0  0  0  0  0
   -6.3764   12.4521   -7.8326 H   0  0  0  0  0  0  0  0  0  0  0  0
   -6.3728   11.7134   -6.1952 H   0  0  0  0  0  0  0  0  0  0  0  0
   -2.4535   14.2183   -6.1960 H   0  0  0  0  0  0  0  0  0  0  0  0
   -0.6442   10.5957   -7.5787 H   0  0  0  0  0  0  0  0  0  0  0  0
    1.4518   14.3348   -6.0355 H   0  0  0  0  0  0  0  0  0  0  0  0
    0.1929   15.4840   -6.6021 H   0  0  0  0  0  0  0  0  0  0  0  0
    0.1381   14.8479   -4.9231 H   0  0  0  0  0  0  0  0  0  0  0  0
   -3.3468   15.1789  -12.6576 H   0  0  0  0  0  0  0  0  0  0  0  0
   -3.9603   15.7589  -11.0720 H   0  0  0  0  0  0  0  0  0  0  0  0
   -2.2706   14.7595   -9.8791 H   0  0  0  0  0  0  0  0  0  0  0  0
   -1.8326   12.5779  -11.9435 H   0  0  0  0  0  0  0  0  0  0  0  0
   -1.6269   12.5226  -10.1599 H   0  0  0  0  0  0  0  0  0  0  0  0
   -4.0107   12.5154   -9.7621 H   0  0  0  0  0  0  0  0  0  0  0  0
   -3.9577   11.6228  -11.3200 H   0  0  0  0  0  0  0  0  0  0  0  0
   -0.2836   14.7209  -11.0208 H   0  0  0  0  0  0  0  0  0  0  0  0
  1  2  2  0  0  0  0
  1  4  1  0  0  0  0
  1 12  1  0  0  0  0
  2  6  1  0  0  0  0
  3  4  2  0  0  0  0
  3  5  1  0  0  0  0
  5  6  2  0  0  0  0
  5  9  1  0  0  0  0
  6  7  1  0  0  0  0
  7  8  2  0  0  0  0
  7 10  1  0  0  0  0
  8  9  1  0  0  0  0
 10 14  2  0  0  0  0
 11 12  1  0  0  0  0
 11 26  1  0  0  0  0
 11 29  1  0  0  0  0
 12 13  2  0  0  0  0
 14 15  1  0  0  0  0
 14 19  1  0  0  0  0
 15 16  2  0  0  0  0
 16 17  1  0  0  0  0
 17 18  2  0  0  0  0
 17 20  1  0  0  0  0
 18 19  1  0  0  0  0
 20 21  2  0  0  0  0
 20 24  1  0  0  0  0
 21 22  1  0  0  0  0
 22 23  1  0  0  0  0
 22 25  1  0  0  0  0
 23 24  2  0  0  0  0
 26 27  1  0  0  0  0
 27 28  1  0  0  0  0
 27 30  1  0  0  0  0
 28 29  1  0  0  0  0
  2 31  1  0  0  0  0
  3 32  1  0  0  0  0
  4 33  1  0  0  0  0
  9 34  1  0  0  0  0
 10 35  1  0  0  0  0
 15 36  1  0  0  0  0
 16 37  1  0  0  0  0
 18 38  1  0  0  0  0
 19 39  1  0  0  0  0
 19 40  1  0  0  0  0
 21 41  1  0  0  0  0
 24 42  1  0  0  0  0
 25 43  1  0  0  0  0
 25 44  1  0  0  0  0
 25 45  1  0  0  0  0
 26 46  1  0  0  0  0
 26 47  1  0  0  0  0
 27 48  1  0  0  0  0
 28 49  1  0  0  0  0
 28 50  1  0  0  0  0
 29 51  1  0  0  0  0
 29 52  1  0  0  0  0
 30 53  1  0  0  0  0
M  END
> <Name>
31

> <IC50[uM]>
0.002

$$$$
31
  -OEChem-05192314333D
 Structure written by MMmdl.
 53 57  0     1  0  0  0  0  0999 V2000
   -6.3709   12.3579  -12.0062 C   0  0  0  0  0  0  0  0  0  0  0  0
   -6.5187   11.8083  -10.7296 C   0  0  0  0  0  0  0  0  0  0  0  0
   -7.7194   10.5704  -13.0321 C   0  0  0  0  0  0  0  0  0  0  0  0
   -6.9838   11.7645  -13.1240 C   0  0  0  0  0  0  0  0  0  0  0  0
   -7.8186   10.0073  -11.7576 C   0  0  0  0  0  0  0  0  0  0  0  0
   -7.2434   10.6206  -10.5991 C   0  0  0  0  0  0  0  0  0  0  0  0
   -7.6160    9.7494   -9.5117 C   0  0  0  0  0  0  0  0  0  0  0  0
   -8.2808    8.7336   -9.9894 N   0  0  0  0  0  0  0  0  0  0  0  0
   -8.4141    8.8594  -11.3008 N   0  0  0  0  0  0  0  0  0  0  0  0
   -7.3385    9.8886   -8.0248 C   0  0  0  0  0  0  0  0  0  0  0  0
   -4.3631   13.7190  -11.4993 N   0  0  0  0  0  0  0  0  0  0  0  0
   -5.5500   13.6364  -12.1907 C   0  0  0  0  0  0  0  0  0  0  0  0
   -5.9462   14.5251  -12.9474 O   0  0  0  0  0  0  0  0  0  0  0  0
   -5.9607   10.4852   -7.7356 C   0  0  0  0  0  0  0  0  0  0  0  0
   -4.8097    9.7639   -8.0527 C   0  0  0  0  0  0  0  0  0  0  0  0
   -3.5522   10.3124   -7.8024 C   0  0  0  0  0  0  0  0  0  0  0  0
   -3.4444   11.5885   -7.2376 C   0  0  0  0  0  0  0  0  0  0  0  0
   -4.5952   12.3052   -6.9174 C   0  0  0  0  0  0  0  0  0  0  0  0
   -5.8509   11.7557   -7.1626 C   0  0  0  0  0  0  0  0  0  0  0  0
   -2.1000   12.1783   -6.9759 C   0  0  0  0  0  0  0  0  0  0  0  0
   -1.7654   13.4353   -6.4786 C   0  0  0  0  0  0  0  0  0  0  0  0
   -0.4305   13.4892   -6.4172 N   0  0  0  0  0  0  0  0  0  0  0  0
    0.1699   12.4025   -6.8093 N   0  0  0  0  0  0  0  0  0  0  0  0
   -0.8029   11.5856   -7.1770 C   0  0  0  0  0  0  0  0  0  0  0  0
    0.3883   14.6074   -5.9669 C   0  0  0  0  0  0  0  0  0  0  0  0
   -3.5134   14.9066  -11.6049 C   0  0  0  0  0  0  0  0  0  0  0  0
   -2.2037   14.4678  -10.9376 C   0  0  1  0  0  0  0  0  0  0  0  0
   -2.2231   12.9442  -10.9826 C   0  0  0  0  0  0  0  0  0  0  0  0
   -3.7200   12.5740  -10.8214 C   0  0  0  0  0  0  0  0  0  0  0  0
   -1.0475   15.0410  -11.4860 O   0  0  0  0  0  0  0  0  0  0  0  0
   -6.0839   12.2893   -9.8659 H   0  0  0  0  0  0  0  0  0  0  0  0
   -8.1807   10.1150  -13.8959 H   0  0  0  0  0  0  0  0  0  0  0  0
   -6.8858   12.2432  -14.0871 H   0  0  0  0  0  0  0  0  0  0  0  0
   -8.0384    9.5978   -7.2554 H   0  0  0  0  0  0  0  0  0  0  0  0
   -4.8924    8.7808   -8.4920 H   0  0  0  0  0  0  0  0  0  0  0  0
   -2.6611    9.7523   -8.0445 H   0  0  0  0  0  0  0  0  0  0  0  0
   -4.5133   13.2885   -6.4783 H   0  0  0  0  0  0  0  0  0  0  0  0
   -6.7415   12.3119   -6.9097 H   0  0  0  0  0  0  0  0  0  0  0  0
   -2.1239   11.7790   -5.9512 H   0  0  0  0  0  0  0  0  0  0  0  0
   -2.1446   14.2201   -7.1496 H   0  0  0  0  0  0  0  0  0  0  0  0
   -2.1954   13.5713   -5.4753 H   0  0  0  0  0  0  0  0  0  0  0  0
   -0.6442   10.5957   -7.5787 H   0  0  0  0  0  0  0  0  0  0  0  0
    1.4518   14.3348   -6.0355 H   0  0  0  0  0  0  0  0  0  0  0  0
    0.1929   15.4840   -6.6021 H   0  0  0  0  0  0  0  0  0  0  0  0
    0.1381   14.8479   -4.9231 H   0  0  0  0  0  0  0  0  0  0  0  0
   -3.3468   15.1789  -12.6576 H   0  0  0  0  0  0  0  0  0  0  0  0
   -3.9603   15.7589  -11.0720 H   0  0  0  0  0  0  0  0  0  0  0  0
   -2.2706   14.7595   -9.8791 H   0  0  0  0  0  0  0  0  0  0  0  0
   -1.8326   12.5779  -11.9435 H   0  0  0  0  0  0  0  0  0  0  0  0
   -1.6269   12.5226  -10.1599 H   0  0  0  0  0  0  0  0  0  0  0  0
   -4.0107   12.5154   -9.7621 H   0  0  0  0  0  0  0  0  0  0  0  0
   -3.9577   11.6228  -11.3200 H   0  0  0  0  0  0  0  0  0  0  0  0
   -0.2836   14.7209  -11.0208 H   0  0  0  0  0  0  0  0  0  0  0  0
  1  2  2  0  0  0  0
  1  4  1  0  0  0  0
  1 12  1  0  0  0  0
  2  6  1  0  0  0  0
  3  4  2  0  0  0  0
  3  5  1  0  0  0  0
  5  6  2  0  0  0  0
  5  9  1  0  0  0  0
  6  7  1  0  0  0  0
  7  8  1  0  0  0  0
  7 10  2  0  0  0  0
  8  9  2  0  0  0  0
 10 14  1  0  0  0  0
 11 12  1  0  0  0  0
 11 26  1  0  0  0  0
 11 29  1  0  0  0  0
 12 13  2  0  0  0  0
 14 15  2  0  0  0  0
 14 19  1  0  0  0  0
 15 16  1  0  0  0  0
 16 17  2  0  0  0  0
 17 18  1  0  0  0  0
 17 20  1  0  0  0  0
 18 19  2  0  0  0  0
 20 21  1  0  0  0  0
 20 24  1  0  0  0  0
 21 22  1  0  0  0  0
 22 23  1  0  0  0  0
 22 25  1  0  0  0  0
 23 24  2  0  0  0  0
 26 27  1  0  0  0  0
 27 28  1  0  0  0  0
 27 30  1  0  0  0  0
 28 29  1  0  0  0  0
  2 31  1  0  0  0  0
  3 32  1  0  0  0  0
  4 33  1  0  0  0  0
 10 34  1  0  0  0  0
 15 35  1  0  0  0  0
 16 36  1  0  0  0  0
 18 37  1  0  0  0  0
 19 38  1  0  0  0  0
 20 39  1  0  0  0  0
 21 40  1  0  0  0  0
 21 41  1  0  0  0  0
 24 42  1  0  0  0  0
 25 43  1  0  0  0  0
 25 44  1  0  0  0  0
 25 45  1  0  0  0  0
 26 46  1  0  0  0  0
 26 47  1  0  0  0  0
 27 48  1  0  0  0  0
 28 49  1  0  0  0  0
 28 50  1  0  0  0  0
 29 51  1  0  0  0  0
 29 52  1  0  0  0  0
 30 53  1  0  0  0  0
M  END
> <Name>
31

> <IC50[uM]>
0.002

$$$$
31
  -OEChem-05192314333D
 Structure written by MMmdl.
 53 57  0     1  0  0  0  0  0999 V2000
   -6.3709   12.3579  -12.0062 C   0  0  0  0  0  0  0  0  0  0  0  0
   -6.5187   11.8083  -10.7296 C   0  0  0  0  0  0  0  0  0  0  0  0
   -7.7194   10.5704  -13.0321 C   0  0  0  0  0  0  0  0  0  0  0  0
   -6.9838   11.7645  -13.1240 C   0  0  0  0  0  0  0  0  0  0  0  0
   -7.8186   10.0073  -11.7576 C   0  0  0  0  0  0  0  0  0  0  0  0
   -7.2434   10.6206  -10.5991 C   0  0  0  0  0  0  0  0  0  0  0  0
   -7.6160    9.7494   -9.5117 C   0  0  0  0  0  0  0  0  0  0  0  0
   -8.2808    8.7336   -9.9894 N   0  0  0  0  0  0  0  0  0  0  0  0
   -8.4141    8.8594  -11.3008 N   0  0  0  0  0  0  0  0  0  0  0  0
   -7.3385    9.8886   -8.0248 C   0  0  0  0  0  0  0  0  0  0  0  0
   -4.3631   13.7190  -11.4993 N   0  0  0  0  0  0  0  0  0  0  0  0
   -5.5500   13.6364  -12.1907 C   0  0  0  0  0  0  0  0  0  0  0  0
   -5.9462   14.5251  -12.9474 O   0  0  0  0  0  0  0  0  0  0  0  0
   -5.9607   10.4852   -7.7356 C   0  0  0  0  0  0  0  0  0  0  0  0
   -4.8097    9.7639   -8.0527 C   0  0  0  0  0  0  0  0  0  0  0  0
   -3.5522   10.3124   -7.8024 C   0  0  0  0  0  0  0  0  0  0  0  0
   -3.4444   11.5885   -7.2376 C   0  0  0  0  0  0  0  0  0  0  0  0
   -4.5952   12.3052   -6.9174 C   0  0  0  0  0  0  0  0  0  0  0  0
   -5.8509   11.7557   -7.1626 C   0  0  0  0  0  0  0  0  0  0  0  0
   -2.1000   12.1783   -6.9759 C   0  0  0  0  0  0  0  0  0  0  0  0
   -1.7654   13.4353   -6.4786 C   0  0  0  0  0  0  0  0  0  0  0  0
   -0.4305   13.4892   -6.4172 N   0  0  0  0  0  0  0  0  0  0  0  0
    0.1699   12.4025   -6.8093 N   0  0  0  0  0  0  0  0  0  0  0  0
   -0.8029   11.5856   -7.1770 C   0  0  0  0  0  0  0  0  0  0  0  0
    0.3883   14.6074   -5.9669 C   0  0  0  0  0  0  0  0  0  0  0  0
   -3.5134   14.9066  -11.6049 C   0  0  0  0  0  0  0  0  0  0  0  0
   -2.2037   14.4678  -10.9376 C   0  0  1  0  0  0  0  0  0  0  0  0
   -2.2231   12.9442  -10.9826 C   0  0  0  0  0  0  0  0  0  0  0  0
   -3.7200   12.5740  -10.8214 C   0  0  0  0  0  0  0  0  0  0  0  0
   -1.0475   15.0410  -11.4860 O   0  0  0  0  0  0  0  0  0  0  0  0
   -6.0839   12.2893   -9.8659 H   0  0  0  0  0  0  0  0  0  0  0  0
   -8.1807   10.1150  -13.8959 H   0  0  0  0  0  0  0  0  0  0  0  0
   -6.8858   12.2432  -14.0871 H   0  0  0  0  0  0  0  0  0  0  0  0
   -8.0384    9.5978   -7.2554 H   0  0  0  0  0  0  0  0  0  0  0  0
   -4.8924    8.7808   -8.4920 H   0  0  0  0  0  0  0  0  0  0  0  0
   -2.6611    9.7523   -8.0445 H   0  0  0  0  0  0  0  0  0  0  0  0
   -4.5133   13.2885   -6.4783 H   0  0  0  0  0  0  0  0  0  0  0  0
   -6.7415   12.3119   -6.9097 H   0  0  0  0  0  0  0  0  0  0  0  0
   -2.4535   14.2183   -6.1960 H   0  0  0  0  0  0  0  0  0  0  0  0
    0.7768   12.5953   -7.5803 H   0  0  0  0  0  0  0  0  0  0  0  0
   -0.7368   10.6622   -6.5829 H   0  0  0  0  0  0  0  0  0  0  0  0
   -0.6823   11.3448   -8.2435 H   0  0  0  0  0  0  0  0  0  0  0  0
    1.4518   14.3356   -6.0377 H   0  0  0  0  0  0  0  0  0  0  0  0
    0.1912   15.4846   -6.6007 H   0  0  0  0  0  0  0  0  0  0  0  0
    0.1398   14.8464   -4.9223 H   0  0  0  0  0  0  0  0  0  0  0  0
   -3.3468   15.1789  -12.6576 H   0  0  0  0  0  0  0  0  0  0  0  0
   -3.9603   15.7589  -11.0720 H   0  0  0  0  0  0  0  0  0  0  0  0
   -2.2706   14.7595   -9.8791 H   0  0  0  0  0  0  0  0  0  0  0  0
   -1.8326   12.5779  -11.9435 H   0  0  0  0  0  0  0  0  0  0  0  0
   -1.6269   12.5226  -10.1599 H   0  0  0  0  0  0  0  0  0  0  0  0
   -4.0107   12.5154   -9.7621 H   0  0  0  0  0  0  0  0  0  0  0  0
   -3.9577   11.6228  -11.3200 H   0  0  0  0  0  0  0  0  0  0  0  0
   -0.2836   14.7209  -11.0208 H   0  0  0  0  0  0  0  0  0  0  0  0
  1  2  2  0  0  0  0
  1  4  1  0  0  0  0
  1 12  1  0  0  0  0
  2  6  1  0  0  0  0
  3  4  2  0  0  0  0
  3  5  1  0  0  0  0
  5  6  2  0  0  0  0
  5  9  1  0  0  0  0
  6  7  1  0  0  0  0
  7  8  1  0  0  0  0
  7 10  2  0  0  0  0
  8  9  2  0  0  0  0
 10 14  1  0  0  0  0
 11 12  1  0  0  0  0
 11 26  1  0  0  0  0
 11 29  1  0  0  0  0
 12 13  2  0  0  0  0
 14 15  2  0  0  0  0
 14 19  1  0  0  0  0
 15 16  1  0  0  0  0
 16 17  2  0  0  0  0
 17 18  1  0  0  0  0
 17 20  1  0  0  0  0
 18 19  2  0  0  0  0
 20 21  2  0  0  0  0
 20 24  1  0  0  0  0
 21 22  1  0  0  0  0
 22 23  1  0  0  0  0
 22 25  1  0  0  0  0
 23 24  1  0  0  0  0
 26 27  1  0  0  0  0
 27 28  1  0  0  0  0
 27 30  1  0  0  0  0
 28 29  1  0  0  0  0
  2 31  1  0  0  0  0
  3 32  1  0  0  0  0
  4 33  1  0  0  0  0
 10 34  1  0  0  0  0
 15 35  1  0  0  0  0
 16 36  1  0  0  0  0
 18 37  1  0  0  0  0
 19 38  1  0  0  0  0
 21 39  1  0  0  0  0
 23 40  1  0  0  0  0
 24 41  1  0  0  0  0
 24 42  1  0  0  0  0
 25 43  1  0  0  0  0
 25 44  1  0  0  0  0
 25 45  1  0  0  0  0
 26 46  1  0  0  0  0
 26 47  1  0  0  0  0
 27 48  1  0  0  0  0
 28 49  1  0  0  0  0
 28 50  1  0  0  0  0
 29 51  1  0  0  0  0
 29 52  1  0  0  0  0
 30 53  1  0  0  0  0
M  END
> <Name>
31

> <IC50[uM]>
0.002

$$$$
31
  -OEChem-05192314333D
 Structure written by MMmdl.
 53 57  0     1  0  0  0  0  0999 V2000
   -6.3709   12.3579  -12.0062 C   0  0  0  0  0  0  0  0  0  0  0  0
   -6.5187   11.8083  -10.7296 C   0  0  0  0  0  0  0  0  0  0  0  0
   -7.7194   10.5704  -13.0321 C   0  0  0  0  0  0  0  0  0  0  0  0
   -6.9838   11.7645  -13.1240 C   0  0  0  0  0  0  0  0  0  0  0  0
   -7.8186   10.0073  -11.7576 C   0  0  0  0  0  0  0  0  0  0  0  0
   -7.2434   10.6206  -10.5991 C   0  0  0  0  0  0  0  0  0  0  0  0
   -7.6160    9.7494   -9.5117 C   0  0  0  0  0  0  0  0  0  0  0  0
   -8.2808    8.7336   -9.9894 N   0  0  0  0  0  0  0  0  0  0  0  0
   -8.4141    8.8594  -11.3008 N   0  0  0  0  0  0  0  0  0  0  0  0
   -7.3385    9.8886   -8.0248 C   0  0  0  0  0  0  0  0  0  0  0  0
   -4.3631   13.7190  -11.4993 N   0  0  0  0  0  0  0  0  0  0  0  0
   -5.5500   13.6364  -12.1907 C   0  0  0  0  0  0  0  0  0  0  0  0
   -5.9462   14.5251  -12.9474 O   0  0  0  0  0  0  0  0  0  0  0  0
   -5.9607   10.4852   -7.7356 C   0  0  0  0  0  0  0  0  0  0  0  0
   -4.8097    9.7639   -8.0527 C   0  0  0  0  0  0  0  0  0  0  0  0
   -3.5522   10.3124   -7.8024 C   0  0  0  0  0  0  0  0  0  0  0  0
   -3.4444   11.5885   -7.2376 C   0  0  0  0  0  0  0  0  0  0  0  0
   -4.5952   12.3052   -6.9174 C   0  0  0  0  0  0  0  0  0  0  0  0
   -5.8509   11.7557   -7.1626 C   0  0  0  0  0  0  0  0  0  0  0  0
   -2.1000   12.1783   -6.9759 C   0  0  0  0  0  0  0  0  0  0  0  0
   -1.7654   13.4353   -6.4786 C   0  0  0  0  0  0  0  0  0  0  0  0
   -0.4305   13.4892   -6.4172 N   0  0  0  0  0  0  0  0  0  0  0  0
    0.1699   12.4025   -6.8093 N   0  0  0  0  0  0  0  0  0  0  0  0
   -0.8029   11.5856   -7.1770 C   0  0  0  0  0  0  0  0  0  0  0  0
    0.3883   14.6074   -5.9669 C   0  0  0  0  0  0  0  0  0  0  0  0
   -3.5134   14.9066  -11.6049 C   0  0  0  0  0  0  0  0  0  0  0  0
   -2.2037   14.4678  -10.9376 C   0  0  1  0  0  0  0  0  0  0  0  0
   -2.2231   12.9442  -10.9826 C   0  0  0  0  0  0  0  0  0  0  0  0
   -3.7200   12.5740  -10.8214 C   0  0  0  0  0  0  0  0  0  0  0  0
   -1.0475   15.0410  -11.4860 O   0  0  0  0  0  0  0  0  0  0  0  0
   -6.0839   12.2893   -9.8659 H   0  0  0  0  0  0  0  0  0  0  0  0
   -8.1807   10.1150  -13.8959 H   0  0  0  0  0  0  0  0  0  0  0  0
   -6.8858   12.2432  -14.0871 H   0  0  0  0  0  0  0  0  0  0  0  0
   -8.0384    9.5978   -7.2554 H   0  0  0  0  0  0  0  0  0  0  0  0
   -4.8924    8.7808   -8.4920 H   0  0  0  0  0  0  0  0  0  0  0  0
   -2.6611    9.7523   -8.0445 H   0  0  0  0  0  0  0  0  0  0  0  0
   -4.5133   13.2885   -6.4783 H   0  0  0  0  0  0  0  0  0  0  0  0
   -6.7415   12.3119   -6.9097 H   0  0  0  0  0  0  0  0  0  0  0  0
   -2.1446   14.2201   -7.1496 H   0  0  0  0  0  0  0  0  0  0  0  0
   -2.1954   13.5713   -5.4753 H   0  0  0  0  0  0  0  0  0  0  0  0
    0.7768   12.5953   -7.5803 H   0  0  0  0  0  0  0  0  0  0  0  0
   -0.6442   10.5957   -7.5787 H   0  0  0  0  0  0  0  0  0  0  0  0
    1.4518   14.3356   -6.0377 H   0  0  0  0  0  0  0  0  0  0  0  0
    0.1912   15.4846   -6.6007 H   0  0  0  0  0  0  0  0  0  0  0  0
    0.1398   14.8464   -4.9223 H   0  0  0  0  0  0  0  0  0  0  0  0
   -3.3468   15.1789  -12.6576 H   0  0  0  0  0  0  0  0  0  0  0  0
   -3.9603   15.7589  -11.0720 H   0  0  0  0  0  0  0  0  0  0  0  0
   -2.2706   14.7595   -9.8791 H   0  0  0  0  0  0  0  0  0  0  0  0
   -1.8326   12.5779  -11.9435 H   0  0  0  0  0  0  0  0  0  0  0  0
   -1.6269   12.5226  -10.1599 H   0  0  0  0  0  0  0  0  0  0  0  0
   -4.0107   12.5154   -9.7621 H   0  0  0  0  0  0  0  0  0  0  0  0
   -3.9577   11.6228  -11.3200 H   0  0  0  0  0  0  0  0  0  0  0  0
   -0.2836   14.7209  -11.0208 H   0  0  0  0  0  0  0  0  0  0  0  0
  1  2  2  0  0  0  0
  1  4  1  0  0  0  0
  1 12  1  0  0  0  0
  2  6  1  0  0  0  0
  3  4  2  0  0  0  0
  3  5  1  0  0  0  0
  5  6  2  0  0  0  0
  5  9  1  0  0  0  0
  6  7  1  0  0  0  0
  7  8  1  0  0  0  0
  7 10  2  0  0  0  0
  8  9  2  0  0  0  0
 10 14  1  0  0  0  0
 11 12  1  0  0  0  0
 11 26  1  0  0  0  0
 11 29  1  0  0  0  0
 12 13  2  0  0  0  0
 14 15  2  0  0  0  0
 14 19  1  0  0  0  0
 15 16  1  0  0  0  0
 16 17  2  0  0  0  0
 17 18  1  0  0  0  0
 17 20  1  0  0  0  0
 18 19  2  0  0  0  0
 20 21  1  0  0  0  0
 20 24  2  0  0  0  0
 21 22  1  0  0  0  0
 22 23  1  0  0  0  0
 22 25  1  0  0  0  0
 23 24  1  0  0  0  0
 26 27  1  0  0  0  0
 27 28  1  0  0  0  0
 27 30  1  0  0  0  0
 28 29  1  0  0  0  0
  2 31  1  0  0  0  0
  3 32  1  0  0  0  0
  4 33  1  0  0  0  0
 10 34  1  0  0  0  0
 15 35  1  0  0  0  0
 16 36  1  0  0  0  0
 18 37  1  0  0  0  0
 19 38  1  0  0  0  0
 21 39  1  0  0  0  0
 21 40  1  0  0  0  0
 23 41  1  0  0  0  0
 24 42  1  0  0  0  0
 25 43  1  0  0  0  0
 25 44  1  0  0  0  0
 25 45  1  0  0  0  0
 26 46  1  0  0  0  0
 26 47  1  0  0  0  0
 27 48  1  0  0  0  0
 28 49  1  0  0  0  0
 28 50  1  0  0  0  0
 29 51  1  0  0  0  0
 29 52  1  0  0  0  0
 30 53  1  0  0  0  0
M  END
> <Name>
31

> <IC50[uM]>
0.002

$$$$
31
  -OEChem-05192314333D
 Structure written by MMmdl.
 53 57  0     1  0  0  0  0  0999 V2000
   -6.3709   12.3579  -12.0062 C   0  0  0  0  0  0  0  0  0  0  0  0
   -6.5187   11.8083  -10.7296 C   0  0  0  0  0  0  0  0  0  0  0  0
   -7.7194   10.5704  -13.0321 C   0  0  0  0  0  0  0  0  0  0  0  0
   -6.9838   11.7645  -13.1240 C   0  0  0  0  0  0  0  0  0  0  0  0
   -7.8186   10.0073  -11.7576 C   0  0  0  0  0  0  0  0  0  0  0  0
   -7.2434   10.6206  -10.5991 C   0  0  0  0  0  0  0  0  0  0  0  0
   -7.6160    9.7494   -9.5117 C   0  0  0  0  0  0  0  0  0  0  0  0
   -8.2808    8.7336   -9.9894 N   0  0  0  0  0  0  0  0  0  0  0  0
   -8.4141    8.8594  -11.3008 N   0  0  0  0  0  0  0  0  0  0  0  0
   -7.3385    9.8886   -8.0248 C   0  0  0  0  0  0  0  0  0  0  0  0
   -4.3631   13.7190  -11.4993 N   0  0  0  0  0  0  0  0  0  0  0  0
   -5.5500   13.6364  -12.1907 C   0  0  0  0  0  0  0  0  0  0  0  0
   -5.9462   14.5251  -12.9474 O   0  0  0  0  0  0  0  0  0  0  0  0
   -5.9607   10.4852   -7.7356 C   0  0  0  0  0  0  0  0  0  0  0  0
   -4.8097    9.7639   -8.0527 C   0  0  0  0  0  0  0  0  0  0  0  0
   -3.5522   10.3124   -7.8024 C   0  0  0  0  0  0  0  0  0  0  0  0
   -3.4444   11.5885   -7.2376 C   0  0  0  0  0  0  0  0  0  0  0  0
   -4.5952   12.3052   -6.9174 C   0  0  0  0  0  0  0  0  0  0  0  0
   -5.8509   11.7557   -7.1626 C   0  0  0  0  0  0  0  0  0  0  0  0
   -2.1000   12.1783   -6.9759 C   0  0  0  0  0  0  0  0  0  0  0  0
   -1.7654   13.4353   -6.4786 C   0  0  0  0  0  0  0  0  0  0  0  0
   -0.4305   13.4892   -6.4172 N   0  0  0  0  0  0  0  0  0  0  0  0
    0.1699   12.4025   -6.8093 N   0  0  0  0  0  0  0  0  0  0  0  0
   -0.8029   11.5856   -7.1770 C   0  0  0  0  0  0  0  0  0  0  0  0
    0.3883   14.6074   -5.9669 C   0  0  0  0  0  0  0  0  0  0  0  0
   -3.5134   14.9066  -11.6049 C   0  0  0  0  0  0  0  0  0  0  0  0
   -2.2037   14.4678  -10.9376 C   0  0  1  0  0  0  0  0  0  0  0  0
   -2.2231   12.9442  -10.9826 C   0  0  0  0  0  0  0  0  0  0  0  0
   -3.7200   12.5740  -10.8214 C   0  0  0  0  0  0  0  0  0  0  0  0
   -1.0475   15.0410  -11.4860 O   0  0  0  0  0  0  0  0  0  0  0  0
   -6.0839   12.2893   -9.8659 H   0  0  0  0  0  0  0  0  0  0  0  0
   -8.1807   10.1150  -13.8959 H   0  0  0  0  0  0  0  0  0  0  0  0
   -6.8858   12.2432  -14.0871 H   0  0  0  0  0  0  0  0  0  0  0  0
   -6.6755    9.1924   -9.6353 H   0  0  0  0  0  0  0  0  0  0  0  0
   -8.0384    9.5978   -7.2554 H   0  0  0  0  0  0  0  0  0  0  0  0
   -4.8924    8.7808   -8.4920 H   0  0  0  0  0  0  0  0  0  0  0  0
   -2.6611    9.7523   -8.0445 H   0  0  0  0  0  0  0  0  0  0  0  0
   -4.5133   13.2885   -6.4783 H   0  0  0  0  0  0  0  0  0  0  0  0
   -6.7415   12.3119   -6.9097 H   0  0  0  0  0  0  0  0  0  0  0  0
   -2.1446   14.2201   -7.1496 H   0  0  0  0  0  0  0  0  0  0  0  0
   -2.1954   13.5713   -5.4753 H   0  0  0  0  0  0  0  0  0  0  0  0
   -0.6442   10.5957   -7.5787 H   0  0  0  0  0  0  0  0  0  0  0  0
    1.4518   14.3348   -6.0355 H   0  0  0  0  0  0  0  0  0  0  0  0
    0.1929   15.4840   -6.6021 H   0  0  0  0  0  0  0  0  0  0  0  0
    0.1381   14.8479   -4.9231 H   0  0  0  0  0  0  0  0  0  0  0  0
   -3.3468   15.1789  -12.6576 H   0  0  0  0  0  0  0  0  0  0  0  0
   -3.9603   15.7589  -11.0720 H   0  0  0  0  0  0  0  0  0  0  0  0
   -2.2706   14.7595   -9.8791 H   0  0  0  0  0  0  0  0  0  0  0  0
   -1.8326   12.5779  -11.9435 H   0  0  0  0  0  0  0  0  0  0  0  0
   -1.6269   12.5226  -10.1599 H   0  0  0  0  0  0  0  0  0  0  0  0
   -4.0107   12.5154   -9.7621 H   0  0  0  0  0  0  0  0  0  0  0  0
   -3.9577   11.6228  -11.3200 H   0  0  0  0  0  0  0  0  0  0  0  0
   -0.2836   14.7209  -11.0208 H   0  0  0  0  0  0  0  0  0  0  0  0
  1  2  2  0  0  0  0
  1  4  1  0  0  0  0
  1 12  1  0  0  0  0
  2  6  1  0  0  0  0
  3  4  2  0  0  0  0
  3  5  1  0  0  0  0
  5  6  2  0  0  0  0
  5  9  1  0  0  0  0
  6  7  1  0  0  0  0
  7  8  1  0  0  0  0
  7 10  1  0  0  0  0
  8  9  2  0  0  0  0
 10 14  2  0  0  0  0
 11 12  1  0  0  0  0
 11 26  1  0  0  0  0
 11 29  1  0  0  0  0
 12 13  2  0  0  0  0
 14 15  1  0  0  0  0
 14 19  1  0  0  0  0
 15 16  2  0  0  0  0
 16 17  1  0  0  0  0
 17 18  1  0  0  0  0
 17 20  2  0  0  0  0
 18 19  2  0  0  0  0
 20 21  1  0  0  0  0
 20 24  1  0  0  0  0
 21 22  1  0  0  0  0
 22 23  1  0  0  0  0
 22 25  1  0  0  0  0
 23 24  2  0  0  0  0
 26 27  1  0  0  0  0
 27 28  1  0  0  0  0
 27 30  1  0  0  0  0
 28 29  1  0  0  0  0
  2 31  1  0  0  0  0
  3 32  1  0  0  0  0
  4 33  1  0  0  0  0
  7 34  1  0  0  0  0
 10 35  1  0  0  0  0
 15 36  1  0  0  0  0
 16 37  1  0  0  0  0
 18 38  1  0  0  0  0
 19 39  1  0  0  0  0
 21 40  1  0  0  0  0
 21 41  1  0  0  0  0
 24 42  1  0  0  0  0
 25 43  1  0  0  0  0
 25 44  1  0  0  0  0
 25 45  1  0  0  0  0
 26 46  1  0  0  0  0
 26 47  1  0  0  0  0
 27 48  1  0  0  0  0
 28 49  1  0  0  0  0
 28 50  1  0  0  0  0
 29 51  1  0  0  0  0
 29 52  1  0  0  0  0
 30 53  1  0  0  0  0
M  END
> <Name>
31

> <IC50[uM]>
0.002

$$$$
31
  -OEChem-05192314333D
 Structure written by MMmdl.
 53 57  0     1  0  0  0  0  0999 V2000
   -6.3709   12.3579  -12.0062 C   0  0  0  0  0  0  0  0  0  0  0  0
   -6.5187   11.8083  -10.7296 C   0  0  0  0  0  0  0  0  0  0  0  0
   -7.7194   10.5704  -13.0321 C   0  0  0  0  0  0  0  0  0  0  0  0
   -6.9838   11.7645  -13.1240 C   0  0  0  0  0  0  0  0  0  0  0  0
   -7.8186   10.0073  -11.7576 C   0  0  0  0  0  0  0  0  0  0  0  0
   -7.2434   10.6206  -10.5991 C   0  0  0  0  0  0  0  0  0  0  0  0
   -7.6160    9.7494   -9.5117 C   0  0  0  0  0  0  0  0  0  0  0  0
   -8.2808    8.7336   -9.9894 N   0  0  0  0  0  0  0  0  0  0  0  0
   -8.4141    8.8594  -11.3008 N   0  0  0  0  0  0  0  0  0  0  0  0
   -7.3385    9.8886   -8.0248 C   0  0  0  0  0  0  0  0  0  0  0  0
   -4.3631   13.7190  -11.4993 N   0  0  0  0  0  0  0  0  0  0  0  0
   -5.5500   13.6364  -12.1907 C   0  0  0  0  0  0  0  0  0  0  0  0
   -5.9462   14.5251  -12.9474 O   0  0  0  0  0  0  0  0  0  0  0  0
   -5.9607   10.4852   -7.7356 C   0  0  0  0  0  0  0  0  0  0  0  0
   -4.8097    9.7639   -8.0527 C   0  0  0  0  0  0  0  0  0  0  0  0
   -3.5522   10.3124   -7.8024 C   0  0  0  0  0  0  0  0  0  0  0  0
   -3.4444   11.5885   -7.2376 C   0  0  0  0  0  0  0  0  0  0  0  0
   -4.5952   12.3052   -6.9174 C   0  0  0  0  0  0  0  0  0  0  0  0
   -5.8509   11.7557   -7.1626 C   0  0  0  0  0  0  0  0  0  0  0  0
   -2.1000   12.1783   -6.9759 C   0  0  0  0  0  0  0  0  0  0  0  0
   -1.7654   13.4353   -6.4786 C   0  0  0  0  0  0  0  0  0  0  0  0
   -0.4305   13.4892   -6.4172 N   0  0  0  0  0  0  0  0  0  0  0  0
    0.1699   12.4025   -6.8093 N   0  0  0  0  0  0  0  0  0  0  0  0
   -0.8029   11.5856   -7.1770 C   0  0  0  0  0  0  0  0  0  0  0  0
    0.3883   14.6074   -5.9669 C   0  0  0  0  0  0  0  0  0  0  0  0
   -3.5134   14.9066  -11.6049 C   0  0  0  0  0  0  0  0  0  0  0  0
   -2.2037   14.4678  -10.9376 C   0  0  1  0  0  0  0  0  0  0  0  0
   -2.2231   12.9442  -10.9826 C   0  0  0  0  0  0  0  0  0  0  0  0
   -3.7200   12.5740  -10.8214 C   0  0  0  0  0  0  0  0  0  0  0  0
   -1.0475   15.0410  -11.4860 O   0  0  0  0  0  0  0  0  0  0  0  0
   -5.4695   11.7492  -12.1702 H   0  0  0  0  0  0  0  0  0  0  0  0
   -6.0839   12.2893   -9.8659 H   0  0  0  0  0  0  0  0  0  0  0  0
   -8.1807   10.1150  -13.8959 H   0  0  0  0  0  0  0  0  0  0  0  0
   -6.8858   12.2432  -14.0871 H   0  0  0  0  0  0  0  0  0  0  0  0
   -8.1050   10.5425   -7.5834 H   0  0  0  0  0  0  0  0  0  0  0  0
   -7.3952    8.8926   -7.5614 H   0  0  0  0  0  0  0  0  0  0  0  0
   -4.8924    8.7808   -8.4920 H   0  0  0  0  0  0  0  0  0  0  0  0
   -2.6611    9.7523   -8.0445 H   0  0  0  0  0  0  0  0  0  0  0  0
   -4.5133   13.2885   -6.4783 H   0  0  0  0  0  0  0  0  0  0  0  0
   -6.7415   12.3119   -6.9097 H   0  0  0  0  0  0  0  0  0  0  0  0
   -2.4535   14.2183   -6.1960 H   0  0  0  0  0  0  0  0  0  0  0  0
   -0.6442   10.5957   -7.5787 H   0  0  0  0  0  0  0  0  0  0  0  0
    1.4518   14.3348   -6.0355 H   0  0  0  0  0  0  0  0  0  0  0  0
    0.1929   15.4840   -6.6021 H   0  0  0  0  0  0  0  0  0  0  0  0
    0.1381   14.8479   -4.9231 H   0  0  0  0  0  0  0  0  0  0  0  0
   -3.3468   15.1789  -12.6576 H   0  0  0  0  0  0  0  0  0  0  0  0
   -3.9603   15.7589  -11.0720 H   0  0  0  0  0  0  0  0  0  0  0  0
   -2.2706   14.7595   -9.8791 H   0  0  0  0  0  0  0  0  0  0  0  0
   -1.8326   12.5779  -11.9435 H   0  0  0  0  0  0  0  0  0  0  0  0
   -1.6269   12.5226  -10.1599 H   0  0  0  0  0  0  0  0  0  0  0  0
   -4.0107   12.5154   -9.7621 H   0  0  0  0  0  0  0  0  0  0  0  0
   -3.9577   11.6228  -11.3200 H   0  0  0  0  0  0  0  0  0  0  0  0
   -0.2836   14.7209  -11.0208 H   0  0  0  0  0  0  0  0  0  0  0  0
  1  2  1  0  0  0  0
  1  4  1  0  0  0  0
  1 12  1  0  0  0  0
  2  6  2  0  0  0  0
  3  4  2  0  0  0  0
  3  5  1  0  0  0  0
  5  6  1  0  0  0  0
  5  9  2  0  0  0  0
  6  7  1  0  0  0  0
  7  8  2  0  0  0  0
  7 10  1  0  0  0  0
  8  9  1  0  0  0  0
 10 14  1  0  0  0  0
 11 12  1  0  0  0  0
 11 26  1  0  0  0  0
 11 29  1  0  0  0  0
 12 13  2  0  0  0  0
 14 15  2  0  0  0  0
 14 19  1  0  0  0  0
 15 16  1  0  0  0  0
 16 17  2  0  0  0  0
 17 18  1  0  0  0  0
 17 20  1  0  0  0  0
 18 19  2  0  0  0  0
 20 21  2  0  0  0  0
 20 24  1  0  0  0  0
 21 22  1  0  0  0  0
 22 23  1  0  0  0  0
 22 25  1  0  0  0  0
 23 24  2  0  0  0  0
 26 27  1  0  0  0  0
 27 28  1  0  0  0  0
 27 30  1  0  0  0  0
 28 29  1  0  0  0  0
  1 31  1  0  0  0  0
  2 32  1  0  0  0  0
  3 33  1  0  0  0  0
  4 34  1  0  0  0  0
 10 35  1  0  0  0  0
 10 36  1  0  0  0  0
 15 37  1  0  0  0  0
 16 38  1  0  0  0  0
 18 39  1  0  0  0  0
 19 40  1  0  0  0  0
 21 41  1  0  0  0  0
 24 42  1  0  0  0  0
 25 43  1  0  0  0  0
 25 44  1  0  0  0  0
 25 45  1  0  0  0  0
 26 46  1  0  0  0  0
 26 47  1  0  0  0  0
 27 48  1  0  0  0  0
 28 49  1  0  0  0  0
 28 50  1  0  0  0  0
 29 51  1  0  0  0  0
 29 52  1  0  0  0  0
 30 53  1  0  0  0  0
M  END
> <Name>
31

> <IC50[uM]>
0.002

$$$$
31
  -OEChem-05192314333D
 Structure written by MMmdl.
 53 57  0     1  0  0  0  0  0999 V2000
   -6.3709   12.3579  -12.0062 C   0  0  0  0  0  0  0  0  0  0  0  0
   -6.5187   11.8083  -10.7296 C   0  0  0  0  0  0  0  0  0  0  0  0
   -7.7194   10.5704  -13.0321 C   0  0  0  0  0  0  0  0  0  0  0  0
   -6.9838   11.7645  -13.1240 C   0  0  0  0  0  0  0  0  0  0  0  0
   -7.8186   10.0073  -11.7576 C   0  0  0  0  0  0  0  0  0  0  0  0
   -7.2434   10.6206  -10.5991 C   0  0  0  0  0  0  0  0  0  0  0  0
   -7.6160    9.7494   -9.5117 C   0  0  0  0  0  0  0  0  0  0  0  0
   -8.2808    8.7336   -9.9894 N   0  0  0  0  0  0  0  0  0  0  0  0
   -8.4141    8.8594  -11.3008 N   0  0  0  0  0  0  0  0  0  0  0  0
   -7.3385    9.8886   -8.0248 C   0  0  0  0  0  0  0  0  0  0  0  0
   -4.3631   13.7190  -11.4993 N   0  0  0  0  0  0  0  0  0  0  0  0
   -5.5500   13.6364  -12.1907 C   0  0  0  0  0  0  0  0  0  0  0  0
   -5.9462   14.5251  -12.9474 O   0  0  0  0  0  0  0  0  0  0  0  0
   -5.9607   10.4852   -7.7356 C   0  0  0  0  0  0  0  0  0  0  0  0
   -4.8097    9.7639   -8.0527 C   0  0  0  0  0  0  0  0  0  0  0  0
   -3.5522   10.3124   -7.8024 C   0  0  0  0  0  0  0  0  0  0  0  0
   -3.4444   11.5885   -7.2376 C   0  0  0  0  0  0  0  0  0  0  0  0
   -4.5952   12.3052   -6.9174 C   0  0  0  0  0  0  0  0  0  0  0  0
   -5.8509   11.7557   -7.1626 C   0  0  0  0  0  0  0  0  0  0  0  0
   -2.1000   12.1783   -6.9759 C   0  0  0  0  0  0  0  0  0  0  0  0
   -1.7654   13.4353   -6.4786 C   0  0  0  0  0  0  0  0  0  0  0  0
   -0.4305   13.4892   -6.4172 N   0  0  0  0  0  0  0  0  0  0  0  0
    0.1699   12.4025   -6.8093 N   0  0  0  0  0  0  0  0  0  0  0  0
   -0.8029   11.5856   -7.1770 C   0  0  0  0  0  0  0  0  0  0  0  0
    0.3883   14.6074   -5.9669 C   0  0  0  0  0  0  0  0  0  0  0  0
   -3.5134   14.9066  -11.6049 C   0  0  0  0  0  0  0  0  0  0  0  0
   -2.2037   14.4678  -10.9376 C   0  0  1  0  0  0  0  0  0  0  0  0
   -2.2231   12.9442  -10.9826 C   0  0  0  0  0  0  0  0  0  0  0  0
   -3.7200   12.5740  -10.8214 C   0  0  0  0  0  0  0  0  0  0  0  0
   -1.0475   15.0410  -11.4860 O   0  0  0  0  0  0  0  0  0  0  0  0
   -6.0839   12.2893   -9.8659 H   0  0  0  0  0  0  0  0  0  0  0  0
   -8.1807   10.1150  -13.8959 H   0  0  0  0  0  0  0  0  0  0  0  0
   -6.8858   12.2432  -14.0871 H   0  0  0  0  0  0  0  0  0  0  0  0
   -6.3210   10.0404  -10.7489 H   0  0  0  0  0  0  0  0  0  0  0  0
   -8.1050   10.5425   -7.5834 H   0  0  0  0  0  0  0  0  0  0  0  0
   -7.3952    8.8926   -7.5614 H   0  0  0  0  0  0  0  0  0  0  0  0
   -4.8924    8.7808   -8.4920 H   0  0  0  0  0  0  0  0  0  0  0  0
   -2.6611    9.7523   -8.0445 H   0  0  0  0  0  0  0  0  0  0  0  0
   -4.5133   13.2885   -6.4783 H   0  0  0  0  0  0  0  0  0  0  0  0
   -6.7415   12.3119   -6.9097 H   0  0  0  0  0  0  0  0  0  0  0  0
   -2.4535   14.2183   -6.1960 H   0  0  0  0  0  0  0  0  0  0  0  0
   -0.6442   10.5957   -7.5787 H   0  0  0  0  0  0  0  0  0  0  0  0
    1.4518   14.3348   -6.0355 H   0  0  0  0  0  0  0  0  0  0  0  0
    0.1929   15.4840   -6.6021 H   0  0  0  0  0  0  0  0  0  0  0  0
    0.1381   14.8479   -4.9231 H   0  0  0  0  0  0  0  0  0  0  0  0
   -3.3468   15.1789  -12.6576 H   0  0  0  0  0  0  0  0  0  0  0  0
   -3.9603   15.7589  -11.0720 H   0  0  0  0  0  0  0  0  0  0  0  0
   -2.2706   14.7595   -9.8791 H   0  0  0  0  0  0  0  0  0  0  0  0
   -1.8326   12.5779  -11.9435 H   0  0  0  0  0  0  0  0  0  0  0  0
   -1.6269   12.5226  -10.1599 H   0  0  0  0  0  0  0  0  0  0  0  0
   -4.0107   12.5154   -9.7621 H   0  0  0  0  0  0  0  0  0  0  0  0
   -3.9577   11.6228  -11.3200 H   0  0  0  0  0  0  0  0  0  0  0  0
   -0.2836   14.7209  -11.0208 H   0  0  0  0  0  0  0  0  0  0  0  0
  1  2  2  0  0  0  0
  1  4  1  0  0  0  0
  1 12  1  0  0  0  0
  2  6  1  0  0  0  0
  3  4  2  0  0  0  0
  3  5  1  0  0  0  0
  5  6  1  0  0  0  0
  5  9  2  0  0  0  0
  6  7  1  0  0  0  0
  7  8  2  0  0  0  0
  7 10  1  0  0  0  0
  8  9  1  0  0  0  0
 10 14  1  0  0  0  0
 11 12  1  0  0  0  0
 11 26  1  0  0  0  0
 11 29  1  0  0  0  0
 12 13  2  0  0  0  0
 14 15  2  0  0  0  0
 14 19  1  0  0  0  0
 15 16  1  0  0  0  0
 16 17  2  0  0  0  0
 17 18  1  0  0  0  0
 17 20  1  0  0  0  0
 18 19  2  0  0  0  0
 20 21  2  0  0  0  0
 20 24  1  0  0  0  0
 21 22  1  0  0  0  0
 22 23  1  0  0  0  0
 22 25  1  0  0  0  0
 23 24  2  0  0  0  0
 26 27  1  0  0  0  0
 27 28  1  0  0  0  0
 27 30  1  0  0  0  0
 28 29  1  0  0  0  0
  2 31  1  0  0  0  0
  3 32  1  0  0  0  0
  4 33  1  0  0  0  0
  6 34  1  0  0  0  0
 10 35  1  0  0  0  0
 10 36  1  0  0  0  0
 15 37  1  0  0  0  0
 16 38  1  0  0  0  0
 18 39  1  0  0  0  0
 19 40  1  0  0  0  0
 21 41  1  0  0  0  0
 24 42  1  0  0  0  0
 25 43  1  0  0  0  0
 25 44  1  0  0  0  0
 25 45  1  0  0  0  0
 26 46  1  0  0  0  0
 26 47  1  0  0  0  0
 27 48  1  0  0  0  0
 28 49  1  0  0  0  0
 28 50  1  0  0  0  0
 29 51  1  0  0  0  0
 29 52  1  0  0  0  0
 30 53  1  0  0  0  0
M  END
> <Name>
31

> <IC50[uM]>
0.002

$$$$
31
  -OEChem-05192314333D
 Structure written by MMmdl.
 53 57  0     1  0  0  0  0  0999 V2000
   -6.3709   12.3579  -12.0062 C   0  0  0  0  0  0  0  0  0  0  0  0
   -6.5187   11.8083  -10.7296 C   0  0  0  0  0  0  0  0  0  0  0  0
   -7.7194   10.5704  -13.0321 C   0  0  0  0  0  0  0  0  0  0  0  0
   -6.9838   11.7645  -13.1240 C   0  0  0  0  0  0  0  0  0  0  0  0
   -7.8186   10.0073  -11.7576 C   0  0  0  0  0  0  0  0  0  0  0  0
   -7.2434   10.6206  -10.5991 C   0  0  0  0  0  0  0  0  0  0  0  0
   -7.6160    9.7494   -9.5117 C   0  0  0  0  0  0  0  0  0  0  0  0
   -8.2808    8.7336   -9.9894 N   0  0  0  0  0  0  0  0  0  0  0  0
   -8.4141    8.8594  -11.3008 N   0  0  0  0  0  0  0  0  0  0  0  0
   -7.3385    9.8886   -8.0248 C   0  0  0  0  0  0  0  0  0  0  0  0
   -4.3631   13.7190  -11.4993 N   0  0  0  0  0  0  0  0  0  0  0  0
   -5.5500   13.6364  -12.1907 C   0  0  0  0  0  0  0  0  0  0  0  0
   -5.9462   14.5251  -12.9474 O   0  0  0  0  0  0  0  0  0  0  0  0
   -5.9607   10.4852   -7.7356 C   0  0  0  0  0  0  0  0  0  0  0  0
   -4.8097    9.7639   -8.0527 C   0  0  0  0  0  0  0  0  0  0  0  0
   -3.5522   10.3124   -7.8024 C   0  0  0  0  0  0  0  0  0  0  0  0
   -3.4444   11.5885   -7.2376 C   0  0  0  0  0  0  0  0  0  0  0  0
   -4.5952   12.3052   -6.9174 C   0  0  0  0  0  0  0  0  0  0  0  0
   -5.8509   11.7557   -7.1626 C   0  0  0  0  0  0  0  0  0  0  0  0
   -2.1000   12.1783   -6.9759 C   0  0  0  0  0  0  0  0  0  0  0  0
   -1.7654   13.4353   -6.4786 C   0  0  0  0  0  0  0  0  0  0  0  0
   -0.4305   13.4892   -6.4172 N   0  0  0  0  0  0  0  0  0  0  0  0
    0.1699   12.4025   -6.8093 N   0  0  0  0  0  0  0  0  0  0  0  0
   -0.8029   11.5856   -7.1770 C   0  0  0  0  0  0  0  0  0  0  0  0
    0.3883   14.6074   -5.9669 C   0  0  0  0  0  0  0  0  0  0  0  0
   -3.5134   14.9066  -11.6049 C   0  0  0  0  0  0  0  0  0  0  0  0
   -2.2037   14.4678  -10.9376 C   0  0  1  0  0  0  0  0  0  0  0  0
   -2.2231   12.9442  -10.9826 C   0  0  0  0  0  0  0  0  0  0  0  0
   -3.7200   12.5740  -10.8214 C   0  0  0  0  0  0  0  0  0  0  0  0
   -1.0475   15.0410  -11.4860 O   0  0  0  0  0  0  0  0  0  0  0  0
   -6.0839   12.2893   -9.8659 H   0  0  0  0  0  0  0  0  0  0  0  0
   -8.7393   10.7754  -13.3895 H   0  0  0  0  0  0  0  0  0  0  0  0
   -7.2420    9.8299  -13.6907 H   0  0  0  0  0  0  0  0  0  0  0  0
   -6.8858   12.2432  -14.0871 H   0  0  0  0  0  0  0  0  0  0  0  0
   -8.1050   10.5425   -7.5834 H   0  0  0  0  0  0  0  0  0  0  0  0
   -7.3952    8.8926   -7.5614 H   0  0  0  0  0  0  0  0  0  0  0  0
   -4.8924    8.7808   -8.4920 H   0  0  0  0  0  0  0  0  0  0  0  0
   -2.6611    9.7523   -8.0445 H   0  0  0  0  0  0  0  0  0  0  0  0
   -4.5133   13.2885   -6.4783 H   0  0  0  0  0  0  0  0  0  0  0  0
   -6.7415   12.3119   -6.9097 H   0  0  0  0  0  0  0  0  0  0  0  0
   -2.4535   14.2183   -6.1960 H   0  0  0  0  0  0  0  0  0  0  0  0
   -0.6442   10.5957   -7.5787 H   0  0  0  0  0  0  0  0  0  0  0  0
    1.4518   14.3348   -6.0355 H   0  0  0  0  0  0  0  0  0  0  0  0
    0.1929   15.4840   -6.6021 H   0  0  0  0  0  0  0  0  0  0  0  0
    0.1381   14.8479   -4.9231 H   0  0  0  0  0  0  0  0  0  0  0  0
   -3.3468   15.1789  -12.6576 H   0  0  0  0  0  0  0  0  0  0  0  0
   -3.9603   15.7589  -11.0720 H   0  0  0  0  0  0  0  0  0  0  0  0
   -2.2706   14.7595   -9.8791 H   0  0  0  0  0  0  0  0  0  0  0  0
   -1.8326   12.5779  -11.9435 H   0  0  0  0  0  0  0  0  0  0  0  0
   -1.6269   12.5226  -10.1599 H   0  0  0  0  0  0  0  0  0  0  0  0
   -4.0107   12.5154   -9.7621 H   0  0  0  0  0  0  0  0  0  0  0  0
   -3.9577   11.6228  -11.3200 H   0  0  0  0  0  0  0  0  0  0  0  0
   -0.2836   14.7209  -11.0208 H   0  0  0  0  0  0  0  0  0  0  0  0
  1  2  1  0  0  0  0
  1  4  2  0  0  0  0
  1 12  1  0  0  0  0
  2  6  2  0  0  0  0
  3  4  1  0  0  0  0
  3  5  1  0  0  0  0
  5  6  1  0  0  0  0
  5  9  2  0  0  0  0
  6  7  1  0  0  0  0
  7  8  2  0  0  0  0
  7 10  1  0  0  0  0
  8  9  1  0  0  0  0
 10 14  1  0  0  0  0
 11 12  1  0  0  0  0
 11 26  1  0  0  0  0
 11 29  1  0  0  0  0
 12 13  2  0  0  0  0
 14 15  2  0  0  0  0
 14 19  1  0  0  0  0
 15 16  1  0  0  0  0
 16 17  2  0  0  0  0
 17 18  1  0  0  0  0
 17 20  1  0  0  0  0
 18 19  2  0  0  0  0
 20 21  2  0  0  0  0
 20 24  1  0  0  0  0
 21 22  1  0  0  0  0
 22 23  1  0  0  0  0
 22 25  1  0  0  0  0
 23 24  2  0  0  0  0
 26 27  1  0  0  0  0
 27 28  1  0  0  0  0
 27 30  1  0  0  0  0
 28 29  1  0  0  0  0
  2 31  1  0  0  0  0
  3 32  1  0  0  0  0
  3 33  1  0  0  0  0
  4 34  1  0  0  0  0
 10 35  1  0  0  0  0
 10 36  1  0  0  0  0
 15 37  1  0  0  0  0
 16 38  1  0  0  0  0
 18 39  1  0  0  0  0
 19 40  1  0  0  0  0
 21 41  1  0  0  0  0
 24 42  1  0  0  0  0
 25 43  1  0  0  0  0
 25 44  1  0  0  0  0
 25 45  1  0  0  0  0
 26 46  1  0  0  0  0
 26 47  1  0  0  0  0
 27 48  1  0  0  0  0
 28 49  1  0  0  0  0
 28 50  1  0  0  0  0
 29 51  1  0  0  0  0
 29 52  1  0  0  0  0
 30 53  1  0  0  0  0
M  END
> <Name>
31

> <IC50[uM]>
0.002

$$$$
31
  -OEChem-05192314333D
 Structure written by MMmdl.
 53 57  0     1  0  0  0  0  0999 V2000
   -6.3709   12.3579  -12.0062 C   0  0  0  0  0  0  0  0  0  0  0  0
   -6.5187   11.8083  -10.7296 C   0  0  0  0  0  0  0  0  0  0  0  0
   -7.7194   10.5704  -13.0321 C   0  0  0  0  0  0  0  0  0  0  0  0
   -6.9838   11.7645  -13.1240 C   0  0  0  0  0  0  0  0  0  0  0  0
   -7.8186   10.0073  -11.7576 C   0  0  0  0  0  0  0  0  0  0  0  0
   -7.2434   10.6206  -10.5991 C   0  0  0  0  0  0  0  0  0  0  0  0
   -7.6160    9.7494   -9.5117 C   0  0  0  0  0  0  0  0  0  0  0  0
   -8.2808    8.7336   -9.9894 N   0  0  0  0  0  0  0  0  0  0  0  0
   -8.4141    8.8594  -11.3008 N   0  0  0  0  0  0  0  0  0  0  0  0
   -7.3385    9.8886   -8.0248 C   0  0  0  0  0  0  0  0  0  0  0  0
   -4.3631   13.7190  -11.4993 N   0  0  0  0  0  0  0  0  0  0  0  0
   -5.5500   13.6364  -12.1907 C   0  0  0  0  0  0  0  0  0  0  0  0
   -5.9462   14.5251  -12.9474 O   0  0  0  0  0  0  0  0  0  0  0  0
   -5.9607   10.4852   -7.7356 C   0  0  0  0  0  0  0  0  0  0  0  0
   -4.8097    9.7639   -8.0527 C   0  0  0  0  0  0  0  0  0  0  0  0
   -3.5522   10.3124   -7.8024 C   0  0  0  0  0  0  0  0  0  0  0  0
   -3.4444   11.5885   -7.2376 C   0  0  0  0  0  0  0  0  0  0  0  0
   -4.5952   12.3052   -6.9174 C   0  0  0  0  0  0  0  0  0  0  0  0
   -5.8509   11.7557   -7.1626 C   0  0  0  0  0  0  0  0  0  0  0  0
   -2.1000   12.1783   -6.9759 C   0  0  0  0  0  0  0  0  0  0  0  0
   -1.7654   13.4353   -6.4786 C   0  0  0  0  0  0  0  0  0  0  0  0
   -0.4305   13.4892   -6.4172 N   0  0  0  0  0  0  0  0  0  0  0  0
    0.1699   12.4025   -6.8093 N   0  0  0  0  0  0  0  0  0  0  0  0
   -0.8029   11.5856   -7.1770 C   0  0  0  0  0  0  0  0  0  0  0  0
    0.3883   14.6074   -5.9669 C   0  0  0  0  0  0  0  0  0  0  0  0
   -3.5134   14.9066  -11.6049 C   0  0  0  0  0  0  0  0  0  0  0  0
   -2.2037   14.4678  -10.9376 C   0  0  1  0  0  0  0  0  0  0  0  0
   -2.2231   12.9442  -10.9826 C   0  0  0  0  0  0  0  0  0  0  0  0
   -3.7200   12.5740  -10.8214 C   0  0  0  0  0  0  0  0  0  0  0  0
   -1.0475   15.0410  -11.4860 O   0  0  0  0  0  0  0  0  0  0  0  0
   -6.0839   12.2893   -9.8659 H   0  0  0  0  0  0  0  0  0  0  0  0
   -8.1807   10.1150  -13.8959 H   0  0  0  0  0  0  0  0  0  0  0  0
   -6.8858   12.2432  -14.0871 H   0  0  0  0  0  0  0  0  0  0  0  0
   -8.0384    9.5978   -7.2554 H   0  0  0  0  0  0  0  0  0  0  0  0
   -5.9720   10.0315   -6.7336 H   0  0  0  0  0  0  0  0  0  0  0  0
   -4.8924    8.7808   -8.4920 H   0  0  0  0  0  0  0  0  0  0  0  0
   -2.6611    9.7523   -8.0445 H   0  0  0  0  0  0  0  0  0  0  0  0
   -3.4453   12.0346   -8.2431 H   0  0  0  0  0  0  0  0  0  0  0  0
   -4.5133   13.2885   -6.4783 H   0  0  0  0  0  0  0  0  0  0  0  0
   -6.7415   12.3119   -6.9097 H   0  0  0  0  0  0  0  0  0  0  0  0
   -2.4535   14.2183   -6.1960 H   0  0  0  0  0  0  0  0  0  0  0  0
   -0.6442   10.5957   -7.5787 H   0  0  0  0  0  0  0  0  0  0  0  0
    1.4518   14.3348   -6.0355 H   0  0  0  0  0  0  0  0  0  0  0  0
    0.1929   15.4840   -6.6021 H   0  0  0  0  0  0  0  0  0  0  0  0
    0.1381   14.8479   -4.9231 H   0  0  0  0  0  0  0  0  0  0  0  0
   -3.3468   15.1789  -12.6576 H   0  0  0  0  0  0  0  0  0  0  0  0
   -3.9603   15.7589  -11.0720 H   0  0  0  0  0  0  0  0  0  0  0  0
   -2.2706   14.7595   -9.8791 H   0  0  0  0  0  0  0  0  0  0  0  0
   -1.8326   12.5779  -11.9435 H   0  0  0  0  0  0  0  0  0  0  0  0
   -1.6269   12.5226  -10.1599 H   0  0  0  0  0  0  0  0  0  0  0  0
   -4.0107   12.5154   -9.7621 H   0  0  0  0  0  0  0  0  0  0  0  0
   -3.9577   11.6228  -11.3200 H   0  0  0  0  0  0  0  0  0  0  0  0
   -0.2836   14.7209  -11.0208 H   0  0  0  0  0  0  0  0  0  0  0  0
  1  2  2  0  0  0  0
  1  4  1  0  0  0  0
  1 12  1  0  0  0  0
  2  6  1  0  0  0  0
  3  4  2  0  0  0  0
  3  5  1  0  0  0  0
  5  6  2  0  0  0  0
  5  9  1  0  0  0  0
  6  7  1  0  0  0  0
  7  8  1  0  0  0  0
  7 10  2  0  0  0  0
  8  9  2  0  0  0  0
 10 14  1  0  0  0  0
 11 12  1  0  0  0  0
 11 26  1  0  0  0  0
 11 29  1  0  0  0  0
 12 13  2  0  0  0  0
 14 15  1  0  0  0  0
 14 19  1  0  0  0  0
 15 16  2  0  0  0  0
 16 17  1  0  0  0  0
 17 18  1  0  0  0  0
 17 20  1  0  0  0  0
 18 19  2  0  0  0  0
 20 21  2  0  0  0  0
 20 24  1  0  0  0  0
 21 22  1  0  0  0  0
 22 23  1  0  0  0  0
 22 25  1  0  0  0  0
 23 24  2  0  0  0  0
 26 27  1  0  0  0  0
 27 28  1  0  0  0  0
 27 30  1  0  0  0  0
 28 29  1  0  0  0  0
  2 31  1  0  0  0  0
  3 32  1  0  0  0  0
  4 33  1  0  0  0  0
 10 34  1  0  0  0  0
 14 35  1  0  0  0  0
 15 36  1  0  0  0  0
 16 37  1  0  0  0  0
 17 38  1  0  0  0  0
 18 39  1  0  0  0  0
 19 40  1  0  0  0  0
 21 41  1  0  0  0  0
 24 42  1  0  0  0  0
 25 43  1  0  0  0  0
 25 44  1  0  0  0  0
 25 45  1  0  0  0  0
 26 46  1  0  0  0  0
 26 47  1  0  0  0  0
 27 48  1  0  0  0  0
 28 49  1  0  0  0  0
 28 50  1  0  0  0  0
 29 51  1  0  0  0  0
 29 52  1  0  0  0  0
 30 53  1  0  0  0  0
M  END
> <Name>
31

> <IC50[uM]>
0.002

$$$$
31
  -OEChem-05192314333D
 Structure written by MMmdl.
 53 57  0     1  0  0  0  0  0999 V2000
   -6.3709   12.3579  -12.0062 C   0  0  0  0  0  0  0  0  0  0  0  0
   -6.5187   11.8083  -10.7296 C   0  0  0  0  0  0  0  0  0  0  0  0
   -7.7194   10.5704  -13.0321 C   0  0  0  0  0  0  0  0  0  0  0  0
   -6.9838   11.7645  -13.1240 C   0  0  0  0  0  0  0  0  0  0  0  0
   -7.8186   10.0073  -11.7576 C   0  0  0  0  0  0  0  0  0  0  0  0
   -7.2434   10.6206  -10.5991 C   0  0  0  0  0  0  0  0  0  0  0  0
   -7.6160    9.7494   -9.5117 C   0  0  0  0  0  0  0  0  0  0  0  0
   -8.2808    8.7336   -9.9894 N   0  0  0  0  0  0  0  0  0  0  0  0
   -8.4141    8.8594  -11.3008 N   0  0  0  0  0  0  0  0  0  0  0  0
   -7.3385    9.8886   -8.0248 C   0  0  0  0  0  0  0  0  0  0  0  0
   -4.3631   13.7190  -11.4993 N   0  0  0  0  0  0  0  0  0  0  0  0
   -5.5500   13.6364  -12.1907 C   0  0  0  0  0  0  0  0  0  0  0  0
   -5.9462   14.5251  -12.9474 O   0  0  0  0  0  0  0  0  0  0  0  0
   -5.9607   10.4852   -7.7356 C   0  0  0  0  0  0  0  0  0  0  0  0
   -4.8097    9.7639   -8.0527 C   0  0  0  0  0  0  0  0  0  0  0  0
   -3.5522   10.3124   -7.8024 C   0  0  0  0  0  0  0  0  0  0  0  0
   -3.4444   11.5885   -7.2376 C   0  0  0  0  0  0  0  0  0  0  0  0
   -4.5952   12.3052   -6.9174 C   0  0  0  0  0  0  0  0  0  0  0  0
   -5.8509   11.7557   -7.1626 C   0  0  0  0  0  0  0  0  0  0  0  0
   -2.1000   12.1783   -6.9759 C   0  0  0  0  0  0  0  0  0  0  0  0
   -1.7654   13.4353   -6.4786 C   0  0  0  0  0  0  0  0  0  0  0  0
   -0.4305   13.4892   -6.4172 N   0  0  0  0  0  0  0  0  0  0  0  0
    0.1699   12.4025   -6.8093 N   0  0  0  0  0  0  0  0  0  0  0  0
   -0.8029   11.5856   -7.1770 C   0  0  0  0  0  0  0  0  0  0  0  0
    0.3883   14.6074   -5.9669 C   0  0  0  0  0  0  0  0  0  0  0  0
   -3.5134   14.9066  -11.6049 C   0  0  0  0  0  0  0  0  0  0  0  0
   -2.2037   14.4678  -10.9376 C   0  0  1  0  0  0  0  0  0  0  0  0
   -2.2231   12.9442  -10.9826 C   0  0  0  0  0  0  0  0  0  0  0  0
   -3.7200   12.5740  -10.8214 C   0  0  0  0  0  0  0  0  0  0  0  0
   -1.0475   15.0410  -11.4860 O   0  0  0  0  0  0  0  0  0  0  0  0
   -6.0839   12.2893   -9.8659 H   0  0  0  0  0  0  0  0  0  0  0  0
   -8.1807   10.1150  -13.8959 H   0  0  0  0  0  0  0  0  0  0  0  0
   -6.8858   12.2432  -14.0871 H   0  0  0  0  0  0  0  0  0  0  0  0
   -6.6755    9.1924   -9.6353 H   0  0  0  0  0  0  0  0  0  0  0  0
   -8.0384    9.5978   -7.2554 H   0  0  0  0  0  0  0  0  0  0  0  0
   -4.8924    8.7808   -8.4920 H   0  0  0  0  0  0  0  0  0  0  0  0
   -2.6611    9.7523   -8.0445 H   0  0  0  0  0  0  0  0  0  0  0  0
   -3.4453   12.0346   -8.2431 H   0  0  0  0  0  0  0  0  0  0  0  0
   -4.5133   13.2885   -6.4783 H   0  0  0  0  0  0  0  0  0  0  0  0
   -6.7415   12.3119   -6.9097 H   0  0  0  0  0  0  0  0  0  0  0  0
   -2.4535   14.2183   -6.1960 H   0  0  0  0  0  0  0  0  0  0  0  0
   -0.6442   10.5957   -7.5787 H   0  0  0  0  0  0  0  0  0  0  0  0
    1.4518   14.3348   -6.0355 H   0  0  0  0  0  0  0  0  0  0  0  0
    0.1929   15.4840   -6.6021 H   0  0  0  0  0  0  0  0  0  0  0  0
    0.1381   14.8479   -4.9231 H   0  0  0  0  0  0  0  0  0  0  0  0
   -3.3468   15.1789  -12.6576 H   0  0  0  0  0  0  0  0  0  0  0  0
   -3.9603   15.7589  -11.0720 H   0  0  0  0  0  0  0  0  0  0  0  0
   -2.2706   14.7595   -9.8791 H   0  0  0  0  0  0  0  0  0  0  0  0
   -1.8326   12.5779  -11.9435 H   0  0  0  0  0  0  0  0  0  0  0  0
   -1.6269   12.5226  -10.1599 H   0  0  0  0  0  0  0  0  0  0  0  0
   -4.0107   12.5154   -9.7621 H   0  0  0  0  0  0  0  0  0  0  0  0
   -3.9577   11.6228  -11.3200 H   0  0  0  0  0  0  0  0  0  0  0  0
   -0.2836   14.7209  -11.0208 H   0  0  0  0  0  0  0  0  0  0  0  0
  1  2  2  0  0  0  0
  1  4  1  0  0  0  0
  1 12  1  0  0  0  0
  2  6  1  0  0  0  0
  3  4  2  0  0  0  0
  3  5  1  0  0  0  0
  5  6  2  0  0  0  0
  5  9  1  0  0  0  0
  6  7  1  0  0  0  0
  7  8  1  0  0  0  0
  7 10  1  0  0  0  0
  8  9  2  0  0  0  0
 10 14  2  0  0  0  0
 11 12  1  0  0  0  0
 11 26  1  0  0  0  0
 11 29  1  0  0  0  0
 12 13  2  0  0  0  0
 14 15  1  0  0  0  0
 14 19  1  0  0  0  0
 15 16  2  0  0  0  0
 16 17  1  0  0  0  0
 17 18  1  0  0  0  0
 17 20  1  0  0  0  0
 18 19  2  0  0  0  0
 20 21  2  0  0  0  0
 20 24  1  0  0  0  0
 21 22  1  0  0  0  0
 22 23  1  0  0  0  0
 22 25  1  0  0  0  0
 23 24  2  0  0  0  0
 26 27  1  0  0  0  0
 27 28  1  0  0  0  0
 27 30  1  0  0  0  0
 28 29  1  0  0  0  0
  2 31  1  0  0  0  0
  3 32  1  0  0  0  0
  4 33  1  0  0  0  0
  7 34  1  0  0  0  0
 10 35  1  0  0  0  0
 15 36  1  0  0  0  0
 16 37  1  0  0  0  0
 17 38  1  0  0  0  0
 18 39  1  0  0  0  0
 19 40  1  0  0  0  0
 21 41  1  0  0  0  0
 24 42  1  0  0  0  0
 25 43  1  0  0  0  0
 25 44  1  0  0  0  0
 25 45  1  0  0  0  0
 26 46  1  0  0  0  0
 26 47  1  0  0  0  0
 27 48  1  0  0  0  0
 28 49  1  0  0  0  0
 28 50  1  0  0  0  0
 29 51  1  0  0  0  0
 29 52  1  0  0  0  0
 30 53  1  0  0  0  0
M  END
> <Name>
31

> <IC50[uM]>
0.002

$$$$
31
  -OEChem-05192314333D
 Structure written by MMmdl.
 53 57  0     1  0  0  0  0  0999 V2000
   -6.3709   12.3579  -12.0062 C   0  0  0  0  0  0  0  0  0  0  0  0
   -6.5187   11.8083  -10.7296 C   0  0  0  0  0  0  0  0  0  0  0  0
   -7.7194   10.5704  -13.0321 C   0  0  0  0  0  0  0  0  0  0  0  0
   -6.9838   11.7645  -13.1240 C   0  0  0  0  0  0  0  0  0  0  0  0
   -7.8186   10.0073  -11.7576 C   0  0  0  0  0  0  0  0  0  0  0  0
   -7.2434   10.6206  -10.5991 C   0  0  0  0  0  0  0  0  0  0  0  0
   -7.6160    9.7494   -9.5117 C   0  0  0  0  0  0  0  0  0  0  0  0
   -8.2808    8.7336   -9.9894 N   0  0  0  0  0  0  0  0  0  0  0  0
   -8.4141    8.8594  -11.3008 N   0  0  0  0  0  0  0  0  0  0  0  0
   -7.3385    9.8886   -8.0248 C   0  0  0  0  0  0  0  0  0  0  0  0
   -4.3631   13.7190  -11.4993 N   0  0  0  0  0  0  0  0  0  0  0  0
   -5.5500   13.6364  -12.1907 C   0  0  0  0  0  0  0  0  0  0  0  0
   -5.9462   14.5251  -12.9474 O   0  0  0  0  0  0  0  0  0  0  0  0
   -5.9607   10.4852   -7.7356 C   0  0  0  0  0  0  0  0  0  0  0  0
   -4.8097    9.7639   -8.0527 C   0  0  0  0  0  0  0  0  0  0  0  0
   -3.5522   10.3124   -7.8024 C   0  0  0  0  0  0  0  0  0  0  0  0
   -3.4444   11.5885   -7.2376 C   0  0  0  0  0  0  0  0  0  0  0  0
   -4.5952   12.3052   -6.9174 C   0  0  0  0  0  0  0  0  0  0  0  0
   -5.8509   11.7557   -7.1626 C   0  0  0  0  0  0  0  0  0  0  0  0
   -2.1000   12.1783   -6.9759 C   0  0  0  0  0  0  0  0  0  0  0  0
   -1.7654   13.4353   -6.4786 C   0  0  0  0  0  0  0  0  0  0  0  0
   -0.4305   13.4892   -6.4172 N   0  0  0  0  0  0  0  0  0  0  0  0
    0.1699   12.4025   -6.8093 N   0  0  0  0  0  0  0  0  0  0  0  0
   -0.8029   11.5856   -7.1770 C   0  0  0  0  0  0  0  0  0  0  0  0
    0.3883   14.6074   -5.9669 C   0  0  0  0  0  0  0  0  0  0  0  0
   -3.5134   14.9066  -11.6049 C   0  0  0  0  0  0  0  0  0  0  0  0
   -2.2037   14.4678  -10.9376 C   0  0  1  0  0  0  0  0  0  0  0  0
   -2.2231   12.9442  -10.9826 C   0  0  0  0  0  0  0  0  0  0  0  0
   -3.7200   12.5740  -10.8214 C   0  0  0  0  0  0  0  0  0  0  0  0
   -1.0475   15.0410  -11.4860 O   0  0  0  0  0  0  0  0  0  0  0  0
   -5.4695   11.7492  -12.1702 H   0  0  0  0  0  0  0  0  0  0  0  0
   -6.0839   12.2893   -9.8659 H   0  0  0  0  0  0  0  0  0  0  0  0
   -8.1807   10.1150  -13.8959 H   0  0  0  0  0  0  0  0  0  0  0  0
   -6.8858   12.2432  -14.0871 H   0  0  0  0  0  0  0  0  0  0  0  0
   -6.8835    9.4540  -11.9291 H   0  0  0  0  0  0  0  0  0  0  0  0
   -8.0384    9.5978   -7.2554 H   0  0  0  0  0  0  0  0  0  0  0  0
   -4.8924    8.7808   -8.4920 H   0  0  0  0  0  0  0  0  0  0  0  0
   -2.6611    9.7523   -8.0445 H   0  0  0  0  0  0  0  0  0  0  0  0
   -4.5133   13.2885   -6.4783 H   0  0  0  0  0  0  0  0  0  0  0  0
   -6.7415   12.3119   -6.9097 H   0  0  0  0  0  0  0  0  0  0  0  0
   -2.4535   14.2183   -6.1960 H   0  0  0  0  0  0  0  0  0  0  0  0
   -0.6442   10.5957   -7.5787 H   0  0  0  0  0  0  0  0  0  0  0  0
    1.4518   14.3348   -6.0355 H   0  0  0  0  0  0  0  0  0  0  0  0
    0.1929   15.4840   -6.6021 H   0  0  0  0  0  0  0  0  0  0  0  0
    0.1381   14.8479   -4.9231 H   0  0  0  0  0  0  0  0  0  0  0  0
   -3.3468   15.1789  -12.6576 H   0  0  0  0  0  0  0  0  0  0  0  0
   -3.9603   15.7589  -11.0720 H   0  0  0  0  0  0  0  0  0  0  0  0
   -2.2706   14.7595   -9.8791 H   0  0  0  0  0  0  0  0  0  0  0  0
   -1.8326   12.5779  -11.9435 H   0  0  0  0  0  0  0  0  0  0  0  0
   -1.6269   12.5226  -10.1599 H   0  0  0  0  0  0  0  0  0  0  0  0
   -4.0107   12.5154   -9.7621 H   0  0  0  0  0  0  0  0  0  0  0  0
   -3.9577   11.6228  -11.3200 H   0  0  0  0  0  0  0  0  0  0  0  0
   -0.2836   14.7209  -11.0208 H   0  0  0  0  0  0  0  0  0  0  0  0
  1  2  1  0  0  0  0
  1  4  1  0  0  0  0
  1 12  1  0  0  0  0
  2  6  2  0  0  0  0
  3  4  2  0  0  0  0
  3  5  1  0  0  0  0
  5  6  1  0  0  0  0
  5  9  1  0  0  0  0
  6  7  1  0  0  0  0
  7  8  1  0  0  0  0
  7 10  2  0  0  0  0
  8  9  2  0  0  0  0
 10 14  1  0  0  0  0
 11 12  1  0  0  0  0
 11 26  1  0  0  0  0
 11 29  1  0  0  0  0
 12 13  2  0  0  0  0
 14 15  2  0  0  0  0
 14 19  1  0  0  0  0
 15 16  1  0  0  0  0
 16 17  2  0  0  0  0
 17 18  1  0  0  0  0
 17 20  1  0  0  0  0
 18 19  2  0  0  0  0
 20 21  2  0  0  0  0
 20 24  1  0  0  0  0
 21 22  1  0  0  0  0
 22 23  1  0  0  0  0
 22 25  1  0  0  0  0
 23 24  2  0  0  0  0
 26 27  1  0  0  0  0
 27 28  1  0  0  0  0
 27 30  1  0  0  0  0
 28 29  1  0  0  0  0
  1 31  1  0  0  0  0
  2 32  1  0  0  0  0
  3 33  1  0  0  0  0
  4 34  1  0  0  0  0
  5 35  1  0  0  0  0
 10 36  1  0  0  0  0
 15 37  1  0  0  0  0
 16 38  1  0  0  0  0
 18 39  1  0  0  0  0
 19 40  1  0  0  0  0
 21 41  1  0  0  0  0
 24 42  1  0  0  0  0
 25 43  1  0  0  0  0
 25 44  1  0  0  0  0
 25 45  1  0  0  0  0
 26 46  1  0  0  0  0
 26 47  1  0  0  0  0
 27 48  1  0  0  0  0
 28 49  1  0  0  0  0
 28 50  1  0  0  0  0
 29 51  1  0  0  0  0
 29 52  1  0  0  0  0
 30 53  1  0  0  0  0
M  END
> <Name>
31

> <IC50[uM]>
0.002

$$$$
31
  -OEChem-05192314333D
 Structure written by MMmdl.
 53 57  0     1  0  0  0  0  0999 V2000
   -6.3709   12.3579  -12.0062 C   0  0  0  0  0  0  0  0  0  0  0  0
   -6.5187   11.8083  -10.7296 C   0  0  0  0  0  0  0  0  0  0  0  0
   -7.7194   10.5704  -13.0321 C   0  0  0  0  0  0  0  0  0  0  0  0
   -6.9838   11.7645  -13.1240 C   0  0  0  0  0  0  0  0  0  0  0  0
   -7.8186   10.0073  -11.7576 C   0  0  0  0  0  0  0  0  0  0  0  0
   -7.2434   10.6206  -10.5991 C   0  0  0  0  0  0  0  0  0  0  0  0
   -7.6160    9.7494   -9.5117 C   0  0  0  0  0  0  0  0  0  0  0  0
   -8.2808    8.7336   -9.9894 N   0  0  0  0  0  0  0  0  0  0  0  0
   -8.4141    8.8594  -11.3008 N   0  0  0  0  0  0  0  0  0  0  0  0
   -7.3385    9.8886   -8.0248 C   0  0  0  0  0  0  0  0  0  0  0  0
   -4.3631   13.7190  -11.4993 N   0  0  0  0  0  0  0  0  0  0  0  0
   -5.5500   13.6364  -12.1907 C   0  0  0  0  0  0  0  0  0  0  0  0
   -5.9462   14.5251  -12.9474 O   0  0  0  0  0  0  0  0  0  0  0  0
   -5.9607   10.4852   -7.7356 C   0  0  0  0  0  0  0  0  0  0  0  0
   -4.8097    9.7639   -8.0527 C   0  0  0  0  0  0  0  0  0  0  0  0
   -3.5522   10.3124   -7.8024 C   0  0  0  0  0  0  0  0  0  0  0  0
   -3.4444   11.5885   -7.2376 C   0  0  0  0  0  0  0  0  0  0  0  0
   -4.5952   12.3052   -6.9174 C   0  0  0  0  0  0  0  0  0  0  0  0
   -5.8509   11.7557   -7.1626 C   0  0  0  0  0  0  0  0  0  0  0  0
   -2.1000   12.1783   -6.9759 C   0  0  0  0  0  0  0  0  0  0  0  0
   -1.7654   13.4353   -6.4786 C   0  0  0  0  0  0  0  0  0  0  0  0
   -0.4305   13.4892   -6.4172 N   0  0  0  0  0  0  0  0  0  0  0  0
    0.1699   12.4025   -6.8093 N   0  0  0  0  0  0  0  0  0  0  0  0
   -0.8029   11.5856   -7.1770 C   0  0  0  0  0  0  0  0  0  0  0  0
    0.3883   14.6074   -5.9669 C   0  0  0  0  0  0  0  0  0  0  0  0
   -3.5134   14.9066  -11.6049 C   0  0  0  0  0  0  0  0  0  0  0  0
   -2.2037   14.4678  -10.9376 C   0  0  1  0  0  0  0  0  0  0  0  0
   -2.2231   12.9442  -10.9826 C   0  0  0  0  0  0  0  0  0  0  0  0
   -3.7200   12.5740  -10.8214 C   0  0  0  0  0  0  0  0  0  0  0  0
   -1.0475   15.0410  -11.4860 O   0  0  0  0  0  0  0  0  0  0  0  0
   -6.0839   12.2893   -9.8659 H   0  0  0  0  0  0  0  0  0  0  0  0
   -8.1807   10.1150  -13.8959 H   0  0  0  0  0  0  0  0  0  0  0  0
   -6.8858   12.2432  -14.0871 H   0  0  0  0  0  0  0  0  0  0  0  0
   -6.8835    9.4540  -11.9291 H   0  0  0  0  0  0  0  0  0  0  0  0
   -6.3210   10.0404  -10.7489 H   0  0  0  0  0  0  0  0  0  0  0  0
   -8.0384    9.5978   -7.2554 H   0  0  0  0  0  0  0  0  0  0  0  0
   -4.8924    8.7808   -8.4920 H   0  0  0  0  0  0  0  0  0  0  0  0
   -2.6611    9.7523   -8.0445 H   0  0  0  0  0  0  0  0  0  0  0  0
   -4.5133   13.2885   -6.4783 H   0  0  0  0  0  0  0  0  0  0  0  0
   -6.7415   12.3119   -6.9097 H   0  0  0  0  0  0  0  0  0  0  0  0
   -2.4535   14.2183   -6.1960 H   0  0  0  0  0  0  0  0  0  0  0  0
   -0.6442   10.5957   -7.5787 H   0  0  0  0  0  0  0  0  0  0  0  0
    1.4518   14.3348   -6.0355 H   0  0  0  0  0  0  0  0  0  0  0  0
    0.1929   15.4840   -6.6021 H   0  0  0  0  0  0  0  0  0  0  0  0
    0.1381   14.8479   -4.9231 H   0  0  0  0  0  0  0  0  0  0  0  0
   -3.3468   15.1789  -12.6576 H   0  0  0  0  0  0  0  0  0  0  0  0
   -3.9603   15.7589  -11.0720 H   0  0  0  0  0  0  0  0  0  0  0  0
   -2.2706   14.7595   -9.8791 H   0  0  0  0  0  0  0  0  0  0  0  0
   -1.8326   12.5779  -11.9435 H   0  0  0  0  0  0  0  0  0  0  0  0
   -1.6269   12.5226  -10.1599 H   0  0  0  0  0  0  0  0  0  0  0  0
   -4.0107   12.5154   -9.7621 H   0  0  0  0  0  0  0  0  0  0  0  0
   -3.9577   11.6228  -11.3200 H   0  0  0  0  0  0  0  0  0  0  0  0
   -0.2836   14.7209  -11.0208 H   0  0  0  0  0  0  0  0  0  0  0  0
  1  2  2  0  0  0  0
  1  4  1  0  0  0  0
  1 12  1  0  0  0  0
  2  6  1  0  0  0  0
  3  4  2  0  0  0  0
  3  5  1  0  0  0  0
  5  6  1  0  0  0  0
  5  9  1  0  0  0  0
  6  7  1  0  0  0  0
  7  8  1  0  0  0  0
  7 10  2  0  0  0  0
  8  9  2  0  0  0  0
 10 14  1  0  0  0  0
 11 12  1  0  0  0  0
 11 26  1  0  0  0  0
 11 29  1  0  0  0  0
 12 13  2  0  0  0  0
 14 15  2  0  0  0  0
 14 19  1  0  0  0  0
 15 16  1  0  0  0  0
 16 17  2  0  0  0  0
 17 18  1  0  0  0  0
 17 20  1  0  0  0  0
 18 19  2  0  0  0  0
 20 21  2  0  0  0  0
 20 24  1  0  0  0  0
 21 22  1  0  0  0  0
 22 23  1  0  0  0  0
 22 25  1  0  0  0  0
 23 24  2  0  0  0  0
 26 27  1  0  0  0  0
 27 28  1  0  0  0  0
 27 30  1  0  0  0  0
 28 29  1  0  0  0  0
  2 31  1  0  0  0  0
  3 32  1  0  0  0  0
  4 33  1  0  0  0  0
  5 34  1  0  0  0  0
  6 35  1  0  0  0  0
 10 36  1  0  0  0  0
 15 37  1  0  0  0  0
 16 38  1  0  0  0  0
 18 39  1  0  0  0  0
 19 40  1  0  0  0  0
 21 41  1  0  0  0  0
 24 42  1  0  0  0  0
 25 43  1  0  0  0  0
 25 44  1  0  0  0  0
 25 45  1  0  0  0  0
 26 46  1  0  0  0  0
 26 47  1  0  0  0  0
 27 48  1  0  0  0  0
 28 49  1  0  0  0  0
 28 50  1  0  0  0  0
 29 51  1  0  0  0  0
 29 52  1  0  0  0  0
 30 53  1  0  0  0  0
M  END
> <Name>
31

> <IC50[uM]>
0.002

$$$$
31
  -OEChem-05192314333D
 Structure written by MMmdl.
 53 57  0     1  0  0  0  0  0999 V2000
   -6.3709   12.3579  -12.0062 C   0  0  0  0  0  0  0  0  0  0  0  0
   -6.5187   11.8083  -10.7296 C   0  0  0  0  0  0  0  0  0  0  0  0
   -7.7194   10.5704  -13.0321 C   0  0  0  0  0  0  0  0  0  0  0  0
   -6.9838   11.7645  -13.1240 C   0  0  0  0  0  0  0  0  0  0  0  0
   -7.8186   10.0073  -11.7576 C   0  0  0  0  0  0  0  0  0  0  0  0
   -7.2434   10.6206  -10.5991 C   0  0  0  0  0  0  0  0  0  0  0  0
   -7.6160    9.7494   -9.5117 C   0  0  0  0  0  0  0  0  0  0  0  0
   -8.2808    8.7336   -9.9894 N   0  0  0  0  0  0  0  0  0  0  0  0
   -8.4141    8.8594  -11.3008 N   0  0  0  0  0  0  0  0  0  0  0  0
   -7.3385    9.8886   -8.0248 C   0  0  0  0  0  0  0  0  0  0  0  0
   -4.3631   13.7190  -11.4993 N   0  0  0  0  0  0  0  0  0  0  0  0
   -5.5500   13.6364  -12.1907 C   0  0  0  0  0  0  0  0  0  0  0  0
   -5.9462   14.5251  -12.9474 O   0  0  0  0  0  0  0  0  0  0  0  0
   -5.9607   10.4852   -7.7356 C   0  0  0  0  0  0  0  0  0  0  0  0
   -4.8097    9.7639   -8.0527 C   0  0  0  0  0  0  0  0  0  0  0  0
   -3.5522   10.3124   -7.8024 C   0  0  0  0  0  0  0  0  0  0  0  0
   -3.4444   11.5885   -7.2376 C   0  0  0  0  0  0  0  0  0  0  0  0
   -4.5952   12.3052   -6.9174 C   0  0  0  0  0  0  0  0  0  0  0  0
   -5.8509   11.7557   -7.1626 C   0  0  0  0  0  0  0  0  0  0  0  0
   -2.1000   12.1783   -6.9759 C   0  0  0  0  0  0  0  0  0  0  0  0
   -1.7654   13.4353   -6.4786 C   0  0  0  0  0  0  0  0  0  0  0  0
   -0.4305   13.4892   -6.4172 N   0  0  0  0  0  0  0  0  0  0  0  0
    0.1699   12.4025   -6.8093 N   0  0  0  0  0  0  0  0  0  0  0  0
   -0.8029   11.5856   -7.1770 C   0  0  0  0  0  0  0  0  0  0  0  0
    0.3883   14.6074   -5.9669 C   0  0  0  0  0  0  0  0  0  0  0  0
   -3.5134   14.9066  -11.6049 C   0  0  0  0  0  0  0  0  0  0  0  0
   -2.2037   14.4678  -10.9376 C   0  0  1  0  0  0  0  0  0  0  0  0
   -2.2231   12.9442  -10.9826 C   0  0  0  0  0  0  0  0  0  0  0  0
   -3.7200   12.5740  -10.8214 C   0  0  0  0  0  0  0  0  0  0  0  0
   -1.0475   15.0410  -11.4860 O   0  0  0  0  0  0  0  0  0  0  0  0
   -6.0839   12.2893   -9.8659 H   0  0  0  0  0  0  0  0  0  0  0  0
   -8.7393   10.7754  -13.3895 H   0  0  0  0  0  0  0  0  0  0  0  0
   -7.2420    9.8299  -13.6907 H   0  0  0  0  0  0  0  0  0  0  0  0
   -6.8858   12.2432  -14.0871 H   0  0  0  0  0  0  0  0  0  0  0  0
   -6.8835    9.4540  -11.9291 H   0  0  0  0  0  0  0  0  0  0  0  0
   -8.0384    9.5978   -7.2554 H   0  0  0  0  0  0  0  0  0  0  0  0
   -4.8924    8.7808   -8.4920 H   0  0  0  0  0  0  0  0  0  0  0  0
   -2.6611    9.7523   -8.0445 H   0  0  0  0  0  0  0  0  0  0  0  0
   -4.5133   13.2885   -6.4783 H   0  0  0  0  0  0  0  0  0  0  0  0
   -6.7415   12.3119   -6.9097 H   0  0  0  0  0  0  0  0  0  0  0  0
   -2.4535   14.2183   -6.1960 H   0  0  0  0  0  0  0  0  0  0  0  0
   -0.6442   10.5957   -7.5787 H   0  0  0  0  0  0  0  0  0  0  0  0
    1.4518   14.3348   -6.0355 H   0  0  0  0  0  0  0  0  0  0  0  0
    0.1929   15.4840   -6.6021 H   0  0  0  0  0  0  0  0  0  0  0  0
    0.1381   14.8479   -4.9231 H   0  0  0  0  0  0  0  0  0  0  0  0
   -3.3468   15.1789  -12.6576 H   0  0  0  0  0  0  0  0  0  0  0  0
   -3.9603   15.7589  -11.0720 H   0  0  0  0  0  0  0  0  0  0  0  0
   -2.2706   14.7595   -9.8791 H   0  0  0  0  0  0  0  0  0  0  0  0
   -1.8326   12.5779  -11.9435 H   0  0  0  0  0  0  0  0  0  0  0  0
   -1.6269   12.5226  -10.1599 H   0  0  0  0  0  0  0  0  0  0  0  0
   -4.0107   12.5154   -9.7621 H   0  0  0  0  0  0  0  0  0  0  0  0
   -3.9577   11.6228  -11.3200 H   0  0  0  0  0  0  0  0  0  0  0  0
   -0.2836   14.7209  -11.0208 H   0  0  0  0  0  0  0  0  0  0  0  0
  1  2  1  0  0  0  0
  1  4  2  0  0  0  0
  1 12  1  0  0  0  0
  2  6  2  0  0  0  0
  3  4  1  0  0  0  0
  3  5  1  0  0  0  0
  5  6  1  0  0  0  0
  5  9  1  0  0  0  0
  6  7  1  0  0  0  0
  7  8  1  0  0  0  0
  7 10  2  0  0  0  0
  8  9  2  0  0  0  0
 10 14  1  0  0  0  0
 11 12  1  0  0  0  0
 11 26  1  0  0  0  0
 11 29  1  0  0  0  0
 12 13  2  0  0  0  0
 14 15  2  0  0  0  0
 14 19  1  0  0  0  0
 15 16  1  0  0  0  0
 16 17  2  0  0  0  0
 17 18  1  0  0  0  0
 17 20  1  0  0  0  0
 18 19  2  0  0  0  0
 20 21  2  0  0  0  0
 20 24  1  0  0  0  0
 21 22  1  0  0  0  0
 22 23  1  0  0  0  0
 22 25  1  0  0  0  0
 23 24  2  0  0  0  0
 26 27  1  0  0  0  0
 27 28  1  0  0  0  0
 27 30  1  0  0  0  0
 28 29  1  0  0  0  0
  2 31  1  0  0  0  0
  3 32  1  0  0  0  0
  3 33  1  0  0  0  0
  4 34  1  0  0  0  0
  5 35  1  0  0  0  0
 10 36  1  0  0  0  0
 15 37  1  0  0  0  0
 16 38  1  0  0  0  0
 18 39  1  0  0  0  0
 19 40  1  0  0  0  0
 21 41  1  0  0  0  0
 24 42  1  0  0  0  0
 25 43  1  0  0  0  0
 25 44  1  0  0  0  0
 25 45  1  0  0  0  0
 26 46  1  0  0  0  0
 26 47  1  0  0  0  0
 27 48  1  0  0  0  0
 28 49  1  0  0  0  0
 28 50  1  0  0  0  0
 29 51  1  0  0  0  0
 29 52  1  0  0  0  0
 30 53  1  0  0  0  0
M  END
> <Name>
31

> <IC50[uM]>
0.002

$$$$
31
  -OEChem-05192314333D
 Structure written by MMmdl.
 53 57  0     1  0  0  0  0  0999 V2000
   -6.3709   12.3579  -12.0062 C   0  0  0  0  0  0  0  0  0  0  0  0
   -6.5187   11.8083  -10.7296 C   0  0  0  0  0  0  0  0  0  0  0  0
   -7.7194   10.5704  -13.0321 C   0  0  0  0  0  0  0  0  0  0  0  0
   -6.9838   11.7645  -13.1240 C   0  0  0  0  0  0  0  0  0  0  0  0
   -7.8186   10.0073  -11.7576 C   0  0  0  0  0  0  0  0  0  0  0  0
   -7.2434   10.6206  -10.5991 C   0  0  0  0  0  0  0  0  0  0  0  0
   -7.6160    9.7494   -9.5117 C   0  0  0  0  0  0  0  0  0  0  0  0
   -8.2808    8.7336   -9.9894 N   0  0  0  0  0  0  0  0  0  0  0  0
   -8.4141    8.8594  -11.3008 N   0  0  0  0  0  0  0  0  0  0  0  0
   -7.3385    9.8886   -8.0248 C   0  0  0  0  0  0  0  0  0  0  0  0
   -4.3631   13.7190  -11.4993 N   0  0  0  0  0  0  0  0  0  0  0  0
   -5.5500   13.6364  -12.1907 C   0  0  0  0  0  0  0  0  0  0  0  0
   -5.9462   14.5251  -12.9474 O   0  0  0  0  0  0  0  0  0  0  0  0
   -5.9607   10.4852   -7.7356 C   0  0  0  0  0  0  0  0  0  0  0  0
   -4.8097    9.7639   -8.0527 C   0  0  0  0  0  0  0  0  0  0  0  0
   -3.5522   10.3124   -7.8024 C   0  0  0  0  0  0  0  0  0  0  0  0
   -3.4444   11.5885   -7.2376 C   0  0  0  0  0  0  0  0  0  0  0  0
   -4.5952   12.3052   -6.9174 C   0  0  0  0  0  0  0  0  0  0  0  0
   -5.8509   11.7557   -7.1626 C   0  0  0  0  0  0  0  0  0  0  0  0
   -2.1000   12.1783   -6.9759 C   0  0  0  0  0  0  0  0  0  0  0  0
   -1.7654   13.4353   -6.4786 C   0  0  0  0  0  0  0  0  0  0  0  0
   -0.4305   13.4892   -6.4172 N   0  0  0  0  0  0  0  0  0  0  0  0
    0.1699   12.4025   -6.8093 N   0  0  0  0  0  0  0  0  0  0  0  0
   -0.8029   11.5856   -7.1770 C   0  0  0  0  0  0  0  0  0  0  0  0
    0.3883   14.6074   -5.9669 C   0  0  0  0  0  0  0  0  0  0  0  0
   -3.5134   14.9066  -11.6049 C   0  0  0  0  0  0  0  0  0  0  0  0
   -2.2037   14.4678  -10.9376 C   0  0  1  0  0  0  0  0  0  0  0  0
   -2.2231   12.9442  -10.9826 C   0  0  0  0  0  0  0  0  0  0  0  0
   -3.7200   12.5740  -10.8214 C   0  0  0  0  0  0  0  0  0  0  0  0
   -1.0475   15.0410  -11.4860 O   0  0  0  0  0  0  0  0  0  0  0  0
   -6.0839   12.2893   -9.8659 H   0  0  0  0  0  0  0  0  0  0  0  0
   -8.1807   10.1150  -13.8959 H   0  0  0  0  0  0  0  0  0  0  0  0
   -6.8858   12.2432  -14.0871 H   0  0  0  0  0  0  0  0  0  0  0  0
   -8.0384    9.5978   -7.2554 H   0  0  0  0  0  0  0  0  0  0  0  0
   -4.8924    8.7808   -8.4920 H   0  0  0  0  0  0  0  0  0  0  0  0
   -3.0333    9.6199   -7.1233 H   0  0  0  0  0  0  0  0  0  0  0  0
   -3.0231   10.3462   -8.7662 H   0  0  0  0  0  0  0  0  0  0  0  0
   -3.4453   12.0346   -8.2431 H   0  0  0  0  0  0  0  0  0  0  0  0
   -4.5133   13.2885   -6.4783 H   0  0  0  0  0  0  0  0  0  0  0  0
   -6.7415   12.3119   -6.9097 H   0  0  0  0  0  0  0  0  0  0  0  0
   -2.4535   14.2183   -6.1960 H   0  0  0  0  0  0  0  0  0  0  0  0
   -0.6442   10.5957   -7.5787 H   0  0  0  0  0  0  0  0  0  0  0  0
    1.4518   14.3348   -6.0355 H   0  0  0  0  0  0  0  0  0  0  0  0
    0.1929   15.4840   -6.6021 H   0  0  0  0  0  0  0  0  0  0  0  0
    0.1381   14.8479   -4.9231 H   0  0  0  0  0  0  0  0  0  0  0  0
   -3.3468   15.1789  -12.6576 H   0  0  0  0  0  0  0  0  0  0  0  0
   -3.9603   15.7589  -11.0720 H   0  0  0  0  0  0  0  0  0  0  0  0
   -2.2706   14.7595   -9.8791 H   0  0  0  0  0  0  0  0  0  0  0  0
   -1.8326   12.5779  -11.9435 H   0  0  0  0  0  0  0  0  0  0  0  0
   -1.6269   12.5226  -10.1599 H   0  0  0  0  0  0  0  0  0  0  0  0
   -4.0107   12.5154   -9.7621 H   0  0  0  0  0  0  0  0  0  0  0  0
   -3.9577   11.6228  -11.3200 H   0  0  0  0  0  0  0  0  0  0  0  0
   -0.2836   14.7209  -11.0208 H   0  0  0  0  0  0  0  0  0  0  0  0
  1  2  2  0  0  0  0
  1  4  1  0  0  0  0
  1 12  1  0  0  0  0
  2  6  1  0  0  0  0
  3  4  2  0  0  0  0
  3  5  1  0  0  0  0
  5  6  2  0  0  0  0
  5  9  1  0  0  0  0
  6  7  1  0  0  0  0
  7  8  1  0  0  0  0
  7 10  2  0  0  0  0
  8  9  2  0  0  0  0
 10 14  1  0  0  0  0
 11 12  1  0  0  0  0
 11 26  1  0  0  0  0
 11 29  1  0  0  0  0
 12 13  2  0  0  0  0
 14 15  2  0  0  0  0
 14 19  1  0  0  0  0
 15 16  1  0  0  0  0
 16 17  1  0  0  0  0
 17 18  1  0  0  0  0
 17 20  1  0  0  0  0
 18 19  2  0  0  0  0
 20 21  2  0  0  0  0
 20 24  1  0  0  0  0
 21 22  1  0  0  0  0
 22 23  1  0  0  0  0
 22 25  1  0  0  0  0
 23 24  2  0  0  0  0
 26 27  1  0  0  0  0
 27 28  1  0  0  0  0
 27 30  1  0  0  0  0
 28 29  1  0  0  0  0
  2 31  1  0  0  0  0
  3 32  1  0  0  0  0
  4 33  1  0  0  0  0
 10 34  1  0  0  0  0
 15 35  1  0  0  0  0
 16 36  1  0  0  0  0
 16 37  1  0  0  0  0
 17 38  1  0  0  0  0
 18 39  1  0  0  0  0
 19 40  1  0  0  0  0
 21 41  1  0  0  0  0
 24 42  1  0  0  0  0
 25 43  1  0  0  0  0
 25 44  1  0  0  0  0
 25 45  1  0  0  0  0
 26 46  1  0  0  0  0
 26 47  1  0  0  0  0
 27 48  1  0  0  0  0
 28 49  1  0  0  0  0
 28 50  1  0  0  0  0
 29 51  1  0  0  0  0
 29 52  1  0  0  0  0
 30 53  1  0  0  0  0
M  END
> <Name>
31

> <IC50[uM]>
0.002

$$$$
31
  -OEChem-05192314333D
 Structure written by MMmdl.
 53 57  0     1  0  0  0  0  0999 V2000
   -6.3709   12.3579  -12.0062 C   0  0  0  0  0  0  0  0  0  0  0  0
   -6.5187   11.8083  -10.7296 C   0  0  0  0  0  0  0  0  0  0  0  0
   -7.7194   10.5704  -13.0321 C   0  0  0  0  0  0  0  0  0  0  0  0
   -6.9838   11.7645  -13.1240 C   0  0  0  0  0  0  0  0  0  0  0  0
   -7.8186   10.0073  -11.7576 C   0  0  0  0  0  0  0  0  0  0  0  0
   -7.2434   10.6206  -10.5991 C   0  0  0  0  0  0  0  0  0  0  0  0
   -7.6160    9.7494   -9.5117 C   0  0  0  0  0  0  0  0  0  0  0  0
   -8.2808    8.7336   -9.9894 N   0  0  0  0  0  0  0  0  0  0  0  0
   -8.4141    8.8594  -11.3008 N   0  0  0  0  0  0  0  0  0  0  0  0
   -7.3385    9.8886   -8.0248 C   0  0  0  0  0  0  0  0  0  0  0  0
   -4.3631   13.7190  -11.4993 N   0  0  0  0  0  0  0  0  0  0  0  0
   -5.5500   13.6364  -12.1907 C   0  0  0  0  0  0  0  0  0  0  0  0
   -5.9462   14.5251  -12.9474 O   0  0  0  0  0  0  0  0  0  0  0  0
   -5.9607   10.4852   -7.7356 C   0  0  0  0  0  0  0  0  0  0  0  0
   -4.8097    9.7639   -8.0527 C   0  0  0  0  0  0  0  0  0  0  0  0
   -3.5522   10.3124   -7.8024 C   0  0  0  0  0  0  0  0  0  0  0  0
   -3.4444   11.5885   -7.2376 C   0  0  0  0  0  0  0  0  0  0  0  0
   -4.5952   12.3052   -6.9174 C   0  0  0  0  0  0  0  0  0  0  0  0
   -5.8509   11.7557   -7.1626 C   0  0  0  0  0  0  0  0  0  0  0  0
   -2.1000   12.1783   -6.9759 C   0  0  0  0  0  0  0  0  0  0  0  0
   -1.7654   13.4353   -6.4786 C   0  0  0  0  0  0  0  0  0  0  0  0
   -0.4305   13.4892   -6.4172 N   0  0  0  0  0  0  0  0  0  0  0  0
    0.1699   12.4025   -6.8093 N   0  0  0  0  0  0  0  0  0  0  0  0
   -0.8029   11.5856   -7.1770 C   0  0  0  0  0  0  0  0  0  0  0  0
    0.3883   14.6074   -5.9669 C   0  0  0  0  0  0  0  0  0  0  0  0
   -3.5134   14.9066  -11.6049 C   0  0  0  0  0  0  0  0  0  0  0  0
   -2.2037   14.4678  -10.9376 C   0  0  1  0  0  0  0  0  0  0  0  0
   -2.2231   12.9442  -10.9826 C   0  0  0  0  0  0  0  0  0  0  0  0
   -3.7200   12.5740  -10.8214 C   0  0  0  0  0  0  0  0  0  0  0  0
   -1.0475   15.0410  -11.4860 O   0  0  0  0  0  0  0  0  0  0  0  0
   -5.4695   11.7492  -12.1702 H   0  0  0  0  0  0  0  0  0  0  0  0
   -6.0839   12.2893   -9.8659 H   0  0  0  0  0  0  0  0  0  0  0  0
   -8.1807   10.1150  -13.8959 H   0  0  0  0  0  0  0  0  0  0  0  0
   -7.6733   12.5185  -13.5315 H   0  0  0  0  0  0  0  0  0  0  0  0
   -6.1791   11.5735  -13.8492 H   0  0  0  0  0  0  0  0  0  0  0  0
   -8.0384    9.5978   -7.2554 H   0  0  0  0  0  0  0  0  0  0  0  0
   -4.8924    8.7808   -8.4920 H   0  0  0  0  0  0  0  0  0  0  0  0
   -2.6611    9.7523   -8.0445 H   0  0  0  0  0  0  0  0  0  0  0  0
   -4.5133   13.2885   -6.4783 H   0  0  0  0  0  0  0  0  0  0  0  0
   -6.7415   12.3119   -6.9097 H   0  0  0  0  0  0  0  0  0  0  0  0
   -2.4535   14.2183   -6.1960 H   0  0  0  0  0  0  0  0  0  0  0  0
   -0.6442   10.5957   -7.5787 H   0  0  0  0  0  0  0  0  0  0  0  0
    1.4518   14.3348   -6.0355 H   0  0  0  0  0  0  0  0  0  0  0  0
    0.1929   15.4840   -6.6021 H   0  0  0  0  0  0  0  0  0  0  0  0
    0.1381   14.8479   -4.9231 H   0  0  0  0  0  0  0  0  0  0  0  0
   -3.3468   15.1789  -12.6576 H   0  0  0  0  0  0  0  0  0  0  0  0
   -3.9603   15.7589  -11.0720 H   0  0  0  0  0  0  0  0  0  0  0  0
   -2.2706   14.7595   -9.8791 H   0  0  0  0  0  0  0  0  0  0  0  0
   -1.8326   12.5779  -11.9435 H   0  0  0  0  0  0  0  0  0  0  0  0
   -1.6269   12.5226  -10.1599 H   0  0  0  0  0  0  0  0  0  0  0  0
   -4.0107   12.5154   -9.7621 H   0  0  0  0  0  0  0  0  0  0  0  0
   -3.9577   11.6228  -11.3200 H   0  0  0  0  0  0  0  0  0  0  0  0
   -0.2836   14.7209  -11.0208 H   0  0  0  0  0  0  0  0  0  0  0  0
  1  2  1  0  0  0  0
  1  4  1  0  0  0  0
  1 12  1  0  0  0  0
  2  6  2  0  0  0  0
  3  4  1  0  0  0  0
  3  5  2  0  0  0  0
  5  6  1  0  0  0  0
  5  9  1  0  0  0  0
  6  7  1  0  0  0  0
  7  8  1  0  0  0  0
  7 10  2  0  0  0  0
  8  9  2  0  0  0  0
 10 14  1  0  0  0  0
 11 12  1  0  0  0  0
 11 26  1  0  0  0  0
 11 29  1  0  0  0  0
 12 13  2  0  0  0  0
 14 15  2  0  0  0  0
 14 19  1  0  0  0  0
 15 16  1  0  0  0  0
 16 17  2  0  0  0  0
 17 18  1  0  0  0  0
 17 20  1  0  0  0  0
 18 19  2  0  0  0  0
 20 21  2  0  0  0  0
 20 24  1  0  0  0  0
 21 22  1  0  0  0  0
 22 23  1  0  0  0  0
 22 25  1  0  0  0  0
 23 24  2  0  0  0  0
 26 27  1  0  0  0  0
 27 28  1  0  0  0  0
 27 30  1  0  0  0  0
 28 29  1  0  0  0  0
  1 31  1  0  0  0  0
  2 32  1  0  0  0  0
  3 33  1  0  0  0  0
  4 34  1  0  0  0  0
  4 35  1  0  0  0  0
 10 36  1  0  0  0  0
 15 37  1  0  0  0  0
 16 38  1  0  0  0  0
 18 39  1  0  0  0  0
 19 40  1  0  0  0  0
 21 41  1  0  0  0  0
 24 42  1  0  0  0  0
 25 43  1  0  0  0  0
 25 44  1  0  0  0  0
 25 45  1  0  0  0  0
 26 46  1  0  0  0  0
 26 47  1  0  0  0  0
 27 48  1  0  0  0  0
 28 49  1  0  0  0  0
 28 50  1  0  0  0  0
 29 51  1  0  0  0  0
 29 52  1  0  0  0  0
 30 53  1  0  0  0  0
M  END
> <Name>
31

> <IC50[uM]>
0.002

$$$$
31
  -OEChem-05192314333D
 Structure written by MMmdl.
 53 57  0     1  0  0  0  0  0999 V2000
   -6.3709   12.3579  -12.0062 C   0  0  0  0  0  0  0  0  0  0  0  0
   -6.5187   11.8083  -10.7296 C   0  0  0  0  0  0  0  0  0  0  0  0
   -7.7194   10.5704  -13.0321 C   0  0  0  0  0  0  0  0  0  0  0  0
   -6.9838   11.7645  -13.1240 C   0  0  0  0  0  0  0  0  0  0  0  0
   -7.8186   10.0073  -11.7576 C   0  0  0  0  0  0  0  0  0  0  0  0
   -7.2434   10.6206  -10.5991 C   0  0  0  0  0  0  0  0  0  0  0  0
   -7.6160    9.7494   -9.5117 C   0  0  0  0  0  0  0  0  0  0  0  0
   -8.2808    8.7336   -9.9894 N   0  0  0  0  0  0  0  0  0  0  0  0
   -8.4141    8.8594  -11.3008 N   0  0  0  0  0  0  0  0  0  0  0  0
   -7.3385    9.8886   -8.0248 C   0  0  0  0  0  0  0  0  0  0  0  0
   -4.3631   13.7190  -11.4993 N   0  0  0  0  0  0  0  0  0  0  0  0
   -5.5500   13.6364  -12.1907 C   0  0  0  0  0  0  0  0  0  0  0  0
   -5.9462   14.5251  -12.9474 O   0  0  0  0  0  0  0  0  0  0  0  0
   -5.9607   10.4852   -7.7356 C   0  0  0  0  0  0  0  0  0  0  0  0
   -4.8097    9.7639   -8.0527 C   0  0  0  0  0  0  0  0  0  0  0  0
   -3.5522   10.3124   -7.8024 C   0  0  0  0  0  0  0  0  0  0  0  0
   -3.4444   11.5885   -7.2376 C   0  0  0  0  0  0  0  0  0  0  0  0
   -4.5952   12.3052   -6.9174 C   0  0  0  0  0  0  0  0  0  0  0  0
   -5.8509   11.7557   -7.1626 C   0  0  0  0  0  0  0  0  0  0  0  0
   -2.1000   12.1783   -6.9759 C   0  0  0  0  0  0  0  0  0  0  0  0
   -1.7654   13.4353   -6.4786 C   0  0  0  0  0  0  0  0  0  0  0  0
   -0.4305   13.4892   -6.4172 N   0  0  0  0  0  0  0  0  0  0  0  0
    0.1699   12.4025   -6.8093 N   0  0  0  0  0  0  0  0  0  0  0  0
   -0.8029   11.5856   -7.1770 C   0  0  0  0  0  0  0  0  0  0  0  0
    0.3883   14.6074   -5.9669 C   0  0  0  0  0  0  0  0  0  0  0  0
   -3.5134   14.9066  -11.6049 C   0  0  0  0  0  0  0  0  0  0  0  0
   -2.2037   14.4678  -10.9376 C   0  0  1  0  0  0  0  0  0  0  0  0
   -2.2231   12.9442  -10.9826 C   0  0  0  0  0  0  0  0  0  0  0  0
   -3.7200   12.5740  -10.8214 C   0  0  0  0  0  0  0  0  0  0  0  0
   -1.0475   15.0410  -11.4860 O   0  0  0  0  0  0  0  0  0  0  0  0
   -6.0839   12.2893   -9.8659 H   0  0  0  0  0  0  0  0  0  0  0  0
   -8.1807   10.1150  -13.8959 H   0  0  0  0  0  0  0  0  0  0  0  0
   -7.6733   12.5185  -13.5315 H   0  0  0  0  0  0  0  0  0  0  0  0
   -6.1791   11.5735  -13.8492 H   0  0  0  0  0  0  0  0  0  0  0  0
   -6.3210   10.0404  -10.7489 H   0  0  0  0  0  0  0  0  0  0  0  0
   -8.0384    9.5978   -7.2554 H   0  0  0  0  0  0  0  0  0  0  0  0
   -4.8924    8.7808   -8.4920 H   0  0  0  0  0  0  0  0  0  0  0  0
   -2.6611    9.7523   -8.0445 H   0  0  0  0  0  0  0  0  0  0  0  0
   -4.5133   13.2885   -6.4783 H   0  0  0  0  0  0  0  0  0  0  0  0
   -6.7415   12.3119   -6.9097 H   0  0  0  0  0  0  0  0  0  0  0  0
   -2.4535   14.2183   -6.1960 H   0  0  0  0  0  0  0  0  0  0  0  0
   -0.6442   10.5957   -7.5787 H   0  0  0  0  0  0  0  0  0  0  0  0
    1.4518   14.3348   -6.0355 H   0  0  0  0  0  0  0  0  0  0  0  0
    0.1929   15.4840   -6.6021 H   0  0  0  0  0  0  0  0  0  0  0  0
    0.1381   14.8479   -4.9231 H   0  0  0  0  0  0  0  0  0  0  0  0
   -3.3468   15.1789  -12.6576 H   0  0  0  0  0  0  0  0  0  0  0  0
   -3.9603   15.7589  -11.0720 H   0  0  0  0  0  0  0  0  0  0  0  0
   -2.2706   14.7595   -9.8791 H   0  0  0  0  0  0  0  0  0  0  0  0
   -1.8326   12.5779  -11.9435 H   0  0  0  0  0  0  0  0  0  0  0  0
   -1.6269   12.5226  -10.1599 H   0  0  0  0  0  0  0  0  0  0  0  0
   -4.0107   12.5154   -9.7621 H   0  0  0  0  0  0  0  0  0  0  0  0
   -3.9577   11.6228  -11.3200 H   0  0  0  0  0  0  0  0  0  0  0  0
   -0.2836   14.7209  -11.0208 H   0  0  0  0  0  0  0  0  0  0  0  0
  1  2  2  0  0  0  0
  1  4  1  0  0  0  0
  1 12  1  0  0  0  0
  2  6  1  0  0  0  0
  3  4  1  0  0  0  0
  3  5  2  0  0  0  0
  5  6  1  0  0  0  0
  5  9  1  0  0  0  0
  6  7  1  0  0  0  0
  7  8  1  0  0  0  0
  7 10  2  0  0  0  0
  8  9  2  0  0  0  0
 10 14  1  0  0  0  0
 11 12  1  0  0  0  0
 11 26  1  0  0  0  0
 11 29  1  0  0  0  0
 12 13  2  0  0  0  0
 14 15  2  0  0  0  0
 14 19  1  0  0  0  0
 15 16  1  0  0  0  0
 16 17  2  0  0  0  0
 17 18  1  0  0  0  0
 17 20  1  0  0  0  0
 18 19  2  0  0  0  0
 20 21  2  0  0  0  0
 20 24  1  0  0  0  0
 21 22  1  0  0  0  0
 22 23  1  0  0  0  0
 22 25  1  0  0  0  0
 23 24  2  0  0  0  0
 26 27  1  0  0  0  0
 27 28  1  0  0  0  0
 27 30  1  0  0  0  0
 28 29  1  0  0  0  0
  2 31  1  0  0  0  0
  3 32  1  0  0  0  0
  4 33  1  0  0  0  0
  4 34  1  0  0  0  0
  6 35  1  0  0  0  0
 10 36  1  0  0  0  0
 15 37  1  0  0  0  0
 16 38  1  0  0  0  0
 18 39  1  0  0  0  0
 19 40  1  0  0  0  0
 21 41  1  0  0  0  0
 24 42  1  0  0  0  0
 25 43  1  0  0  0  0
 25 44  1  0  0  0  0
 25 45  1  0  0  0  0
 26 46  1  0  0  0  0
 26 47  1  0  0  0  0
 27 48  1  0  0  0  0
 28 49  1  0  0  0  0
 28 50  1  0  0  0  0
 29 51  1  0  0  0  0
 29 52  1  0  0  0  0
 30 53  1  0  0  0  0
M  END
> <Name>
31

> <IC50[uM]>
0.002

$$$$
31
  -OEChem-05192314333D
 Structure written by MMmdl.
 53 57  0     1  0  0  0  0  0999 V2000
   -6.3709   12.3579  -12.0062 C   0  0  0  0  0  0  0  0  0  0  0  0
   -6.5187   11.8083  -10.7296 C   0  0  0  0  0  0  0  0  0  0  0  0
   -7.7194   10.5704  -13.0321 C   0  0  0  0  0  0  0  0  0  0  0  0
   -6.9838   11.7645  -13.1240 C   0  0  0  0  0  0  0  0  0  0  0  0
   -7.8186   10.0073  -11.7576 C   0  0  0  0  0  0  0  0  0  0  0  0
   -7.2434   10.6206  -10.5991 C   0  0  0  0  0  0  0  0  0  0  0  0
   -7.6160    9.7494   -9.5117 C   0  0  0  0  0  0  0  0  0  0  0  0
   -8.2808    8.7336   -9.9894 N   0  0  0  0  0  0  0  0  0  0  0  0
   -8.4141    8.8594  -11.3008 N   0  0  0  0  0  0  0  0  0  0  0  0
   -7.3385    9.8886   -8.0248 C   0  0  0  0  0  0  0  0  0  0  0  0
   -4.3631   13.7190  -11.4993 N   0  0  0  0  0  0  0  0  0  0  0  0
   -5.5500   13.6364  -12.1907 C   0  0  0  0  0  0  0  0  0  0  0  0
   -5.9462   14.5251  -12.9474 O   0  0  0  0  0  0  0  0  0  0  0  0
   -5.9607   10.4852   -7.7356 C   0  0  0  0  0  0  0  0  0  0  0  0
   -4.8097    9.7639   -8.0527 C   0  0  0  0  0  0  0  0  0  0  0  0
   -3.5522   10.3124   -7.8024 C   0  0  0  0  0  0  0  0  0  0  0  0
   -3.4444   11.5885   -7.2376 C   0  0  0  0  0  0  0  0  0  0  0  0
   -4.5952   12.3052   -6.9174 C   0  0  0  0  0  0  0  0  0  0  0  0
   -5.8509   11.7557   -7.1626 C   0  0  0  0  0  0  0  0  0  0  0  0
   -2.1000   12.1783   -6.9759 C   0  0  0  0  0  0  0  0  0  0  0  0
   -1.7654   13.4353   -6.4786 C   0  0  0  0  0  0  0  0  0  0  0  0
   -0.4305   13.4892   -6.4172 N   0  0  0  0  0  0  0  0  0  0  0  0
    0.1699   12.4025   -6.8093 N   0  0  0  0  0  0  0  0  0  0  0  0
   -0.8029   11.5856   -7.1770 C   0  0  0  0  0  0  0  0  0  0  0  0
    0.3883   14.6074   -5.9669 C   0  0  0  0  0  0  0  0  0  0  0  0
   -3.5134   14.9066  -11.6049 C   0  0  0  0  0  0  0  0  0  0  0  0
   -2.2037   14.4678  -10.9376 C   0  0  1  0  0  0  0  0  0  0  0  0
   -2.2231   12.9442  -10.9826 C   0  0  0  0  0  0  0  0  0  0  0  0
   -3.7200   12.5740  -10.8214 C   0  0  0  0  0  0  0  0  0  0  0  0
   -1.0475   15.0410  -11.4860 O   0  0  0  0  0  0  0  0  0  0  0  0
   -6.0839   12.2893   -9.8659 H   0  0  0  0  0  0  0  0  0  0  0  0
   -8.7393   10.7754  -13.3895 H   0  0  0  0  0  0  0  0  0  0  0  0
   -7.2420    9.8299  -13.6907 H   0  0  0  0  0  0  0  0  0  0  0  0
   -7.6733   12.5185  -13.5315 H   0  0  0  0  0  0  0  0  0  0  0  0
   -6.1791   11.5735  -13.8492 H   0  0  0  0  0  0  0  0  0  0  0  0
   -8.0384    9.5978   -7.2554 H   0  0  0  0  0  0  0  0  0  0  0  0
   -4.8924    8.7808   -8.4920 H   0  0  0  0  0  0  0  0  0  0  0  0
   -2.6611    9.7523   -8.0445 H   0  0  0  0  0  0  0  0  0  0  0  0
   -4.5133   13.2885   -6.4783 H   0  0  0  0  0  0  0  0  0  0  0  0
   -6.7415   12.3119   -6.9097 H   0  0  0  0  0  0  0  0  0  0  0  0
   -2.4535   14.2183   -6.1960 H   0  0  0  0  0  0  0  0  0  0  0  0
   -0.6442   10.5957   -7.5787 H   0  0  0  0  0  0  0  0  0  0  0  0
    1.4518   14.3348   -6.0355 H   0  0  0  0  0  0  0  0  0  0  0  0
    0.1929   15.4840   -6.6021 H   0  0  0  0  0  0  0  0  0  0  0  0
    0.1381   14.8479   -4.9231 H   0  0  0  0  0  0  0  0  0  0  0  0
   -3.3468   15.1789  -12.6576 H   0  0  0  0  0  0  0  0  0  0  0  0
   -3.9603   15.7589  -11.0720 H   0  0  0  0  0  0  0  0  0  0  0  0
   -2.2706   14.7595   -9.8791 H   0  0  0  0  0  0  0  0  0  0  0  0
   -1.8326   12.5779  -11.9435 H   0  0  0  0  0  0  0  0  0  0  0  0
   -1.6269   12.5226  -10.1599 H   0  0  0  0  0  0  0  0  0  0  0  0
   -4.0107   12.5154   -9.7621 H   0  0  0  0  0  0  0  0  0  0  0  0
   -3.9577   11.6228  -11.3200 H   0  0  0  0  0  0  0  0  0  0  0  0
   -0.2836   14.7209  -11.0208 H   0  0  0  0  0  0  0  0  0  0  0  0
  1  2  2  0  0  0  0
  1  4  1  0  0  0  0
  1 12  1  0  0  0  0
  2  6  1  0  0  0  0
  3  4  1  0  0  0  0
  3  5  1  0  0  0  0
  5  6  2  0  0  0  0
  5  9  1  0  0  0  0
  6  7  1  0  0  0  0
  7  8  1  0  0  0  0
  7 10  2  0  0  0  0
  8  9  2  0  0  0  0
 10 14  1  0  0  0  0
 11 12  1  0  0  0  0
 11 26  1  0  0  0  0
 11 29  1  0  0  0  0
 12 13  2  0  0  0  0
 14 15  2  0  0  0  0
 14 19  1  0  0  0  0
 15 16  1  0  0  0  0
 16 17  2  0  0  0  0
 17 18  1  0  0  0  0
 17 20  1  0  0  0  0
 18 19  2  0  0  0  0
 20 21  2  0  0  0  0
 20 24  1  0  0  0  0
 21 22  1  0  0  0  0
 22 23  1  0  0  0  0
 22 25  1  0  0  0  0
 23 24  2  0  0  0  0
 26 27  1  0  0  0  0
 27 28  1  0  0  0  0
 27 30  1  0  0  0  0
 28 29  1  0  0  0  0
  2 31  1  0  0  0  0
  3 32  1  0  0  0  0
  3 33  1  0  0  0  0
  4 34  1  0  0  0  0
  4 35  1  0  0  0  0
 10 36  1  0  0  0  0
 15 37  1  0  0  0  0
 16 38  1  0  0  0  0
 18 39  1  0  0  0  0
 19 40  1  0  0  0  0
 21 41  1  0  0  0  0
 24 42  1  0  0  0  0
 25 43  1  0  0  0  0
 25 44  1  0  0  0  0
 25 45  1  0  0  0  0
 26 46  1  0  0  0  0
 26 47  1  0  0  0  0
 27 48  1  0  0  0  0
 28 49  1  0  0  0  0
 28 50  1  0  0  0  0
 29 51  1  0  0  0  0
 29 52  1  0  0  0  0
 30 53  1  0  0  0  0
M  END
> <Name>
31

> <IC50[uM]>
0.002

$$$$
31
  -OEChem-05192314333D
 Structure written by MMmdl.
 53 57  0     1  0  0  0  0  0999 V2000
   -6.3709   12.3579  -12.0062 C   0  0  0  0  0  0  0  0  0  0  0  0
   -6.5187   11.8083  -10.7296 C   0  0  0  0  0  0  0  0  0  0  0  0
   -7.7194   10.5704  -13.0321 C   0  0  0  0  0  0  0  0  0  0  0  0
   -6.9838   11.7645  -13.1240 C   0  0  0  0  0  0  0  0  0  0  0  0
   -7.8186   10.0073  -11.7576 C   0  0  0  0  0  0  0  0  0  0  0  0
   -7.2434   10.6206  -10.5991 C   0  0  0  0  0  0  0  0  0  0  0  0
   -7.6160    9.7494   -9.5117 C   0  0  0  0  0  0  0  0  0  0  0  0
   -8.2808    8.7336   -9.9894 N   0  0  0  0  0  0  0  0  0  0  0  0
   -8.4141    8.8594  -11.3008 N   0  0  0  0  0  0  0  0  0  0  0  0
   -7.3385    9.8886   -8.0248 C   0  0  0  0  0  0  0  0  0  0  0  0
   -4.3631   13.7190  -11.4993 N   0  0  0  0  0  0  0  0  0  0  0  0
   -5.5500   13.6364  -12.1907 C   0  0  0  0  0  0  0  0  0  0  0  0
   -5.9462   14.5251  -12.9474 O   0  0  0  0  0  0  0  0  0  0  0  0
   -5.9607   10.4852   -7.7356 C   0  0  0  0  0  0  0  0  0  0  0  0
   -4.8097    9.7639   -8.0527 C   0  0  0  0  0  0  0  0  0  0  0  0
   -3.5522   10.3124   -7.8024 C   0  0  0  0  0  0  0  0  0  0  0  0
   -3.4444   11.5885   -7.2376 C   0  0  0  0  0  0  0  0  0  0  0  0
   -4.5952   12.3052   -6.9174 C   0  0  0  0  0  0  0  0  0  0  0  0
   -5.8509   11.7557   -7.1626 C   0  0  0  0  0  0  0  0  0  0  0  0
   -2.1000   12.1783   -6.9759 C   0  0  0  0  0  0  0  0  0  0  0  0
   -1.7654   13.4353   -6.4786 C   0  0  0  0  0  0  0  0  0  0  0  0
   -0.4305   13.4892   -6.4172 N   0  0  0  0  0  0  0  0  0  0  0  0
    0.1699   12.4025   -6.8093 N   0  0  0  0  0  0  0  0  0  0  0  0
   -0.8029   11.5856   -7.1770 C   0  0  0  0  0  0  0  0  0  0  0  0
    0.3883   14.6074   -5.9669 C   0  0  0  0  0  0  0  0  0  0  0  0
   -3.5134   14.9066  -11.6049 C   0  0  0  0  0  0  0  0  0  0  0  0
   -2.2037   14.4678  -10.9376 C   0  0  1  0  0  0  0  0  0  0  0  0
   -2.2231   12.9442  -10.9826 C   0  0  0  0  0  0  0  0  0  0  0  0
   -3.7200   12.5740  -10.8214 C   0  0  0  0  0  0  0  0  0  0  0  0
   -1.0475   15.0410  -11.4860 O   0  0  0  0  0  0  0  0  0  0  0  0
   -6.0839   12.2893   -9.8659 H   0  0  0  0  0  0  0  0  0  0  0  0
   -8.1807   10.1150  -13.8959 H   0  0  0  0  0  0  0  0  0  0  0  0
   -6.8858   12.2432  -14.0871 H   0  0  0  0  0  0  0  0  0  0  0  0
   -8.0384    9.5978   -7.2554 H   0  0  0  0  0  0  0  0  0  0  0  0
   -5.9720   10.0315   -6.7336 H   0  0  0  0  0  0  0  0  0  0  0  0
   -4.8924    8.7808   -8.4920 H   0  0  0  0  0  0  0  0  0  0  0  0
   -2.6611    9.7523   -8.0445 H   0  0  0  0  0  0  0  0  0  0  0  0
   -4.5133   13.2885   -6.4783 H   0  0  0  0  0  0  0  0  0  0  0  0
   -6.3764   12.4521   -7.8326 H   0  0  0  0  0  0  0  0  0  0  0  0
   -6.3728   11.7134   -6.1952 H   0  0  0  0  0  0  0  0  0  0  0  0
   -2.4535   14.2183   -6.1960 H   0  0  0  0  0  0  0  0  0  0  0  0
   -0.6442   10.5957   -7.5787 H   0  0  0  0  0  0  0  0  0  0  0  0
    1.4518   14.3348   -6.0355 H   0  0  0  0  0  0  0  0  0  0  0  0
    0.1929   15.4840   -6.6021 H   0  0  0  0  0  0  0  0  0  0  0  0
    0.1381   14.8479   -4.9231 H   0  0  0  0  0  0  0  0  0  0  0  0
   -3.3468   15.1789  -12.6576 H   0  0  0  0  0  0  0  0  0  0  0  0
   -3.9603   15.7589  -11.0720 H   0  0  0  0  0  0  0  0  0  0  0  0
   -2.2706   14.7595   -9.8791 H   0  0  0  0  0  0  0  0  0  0  0  0
   -1.8326   12.5779  -11.9435 H   0  0  0  0  0  0  0  0  0  0  0  0
   -1.6269   12.5226  -10.1599 H   0  0  0  0  0  0  0  0  0  0  0  0
   -4.0107   12.5154   -9.7621 H   0  0  0  0  0  0  0  0  0  0  0  0
   -3.9577   11.6228  -11.3200 H   0  0  0  0  0  0  0  0  0  0  0  0
   -0.2836   14.7209  -11.0208 H   0  0  0  0  0  0  0  0  0  0  0  0
  1  2  2  0  0  0  0
  1  4  1  0  0  0  0
  1 12  1  0  0  0  0
  2  6  1  0  0  0  0
  3  4  2  0  0  0  0
  3  5  1  0  0  0  0
  5  6  2  0  0  0  0
  5  9  1  0  0  0  0
  6  7  1  0  0  0  0
  7  8  1  0  0  0  0
  7 10  2  0  0  0  0
  8  9  2  0  0  0  0
 10 14  1  0  0  0  0
 11 12  1  0  0  0  0
 11 26  1  0  0  0  0
 11 29  1  0  0  0  0
 12 13  2  0  0  0  0
 14 15  1  0  0  0  0
 14 19  1  0  0  0  0
 15 16  2  0  0  0  0
 16 17  1  0  0  0  0
 17 18  2  0  0  0  0
 17 20  1  0  0  0  0
 18 19  1  0  0  0  0
 20 21  2  0  0  0  0
 20 24  1  0  0  0  0
 21 22  1  0  0  0  0
 22 23  1  0  0  0  0
 22 25  1  0  0  0  0
 23 24  2  0  0  0  0
 26 27  1  0  0  0  0
 27 28  1  0  0  0  0
 27 30  1  0  0  0  0
 28 29  1  0  0  0  0
  2 31  1  0  0  0  0
  3 32  1  0  0  0  0
  4 33  1  0  0  0  0
 10 34  1  0  0  0  0
 14 35  1  0  0  0  0
 15 36  1  0  0  0  0
 16 37  1  0  0  0  0
 18 38  1  0  0  0  0
 19 39  1  0  0  0  0
 19 40  1  0  0  0  0
 21 41  1  0  0  0  0
 24 42  1  0  0  0  0
 25 43  1  0  0  0  0
 25 44  1  0  0  0  0
 25 45  1  0  0  0  0
 26 46  1  0  0  0  0
 26 47  1  0  0  0  0
 27 48  1  0  0  0  0
 28 49  1  0  0  0  0
 28 50  1  0  0  0  0
 29 51  1  0  0  0  0
 29 52  1  0  0  0  0
 30 53  1  0  0  0  0
M  END
> <Name>
31

> <IC50[uM]>
0.002

$$$$
31
  -OEChem-05192314333D
 Structure written by MMmdl.
 53 57  0     1  0  0  0  0  0999 V2000
   -6.3709   12.3579  -12.0062 C   0  0  0  0  0  0  0  0  0  0  0  0
   -6.5187   11.8083  -10.7296 C   0  0  0  0  0  0  0  0  0  0  0  0
   -7.7194   10.5704  -13.0321 C   0  0  0  0  0  0  0  0  0  0  0  0
   -6.9838   11.7645  -13.1240 C   0  0  0  0  0  0  0  0  0  0  0  0
   -7.8186   10.0073  -11.7576 C   0  0  0  0  0  0  0  0  0  0  0  0
   -7.2434   10.6206  -10.5991 C   0  0  0  0  0  0  0  0  0  0  0  0
   -7.6160    9.7494   -9.5117 C   0  0  0  0  0  0  0  0  0  0  0  0
   -8.2808    8.7336   -9.9894 N   0  0  0  0  0  0  0  0  0  0  0  0
   -8.4141    8.8594  -11.3008 N   0  0  0  0  0  0  0  0  0  0  0  0
   -7.3385    9.8886   -8.0248 C   0  0  0  0  0  0  0  0  0  0  0  0
   -4.3631   13.7190  -11.4993 N   0  0  0  0  0  0  0  0  0  0  0  0
   -5.5500   13.6364  -12.1907 C   0  0  0  0  0  0  0  0  0  0  0  0
   -5.9462   14.5251  -12.9474 O   0  0  0  0  0  0  0  0  0  0  0  0
   -5.9607   10.4852   -7.7356 C   0  0  0  0  0  0  0  0  0  0  0  0
   -4.8097    9.7639   -8.0527 C   0  0  0  0  0  0  0  0  0  0  0  0
   -3.5522   10.3124   -7.8024 C   0  0  0  0  0  0  0  0  0  0  0  0
   -3.4444   11.5885   -7.2376 C   0  0  0  0  0  0  0  0  0  0  0  0
   -4.5952   12.3052   -6.9174 C   0  0  0  0  0  0  0  0  0  0  0  0
   -5.8509   11.7557   -7.1626 C   0  0  0  0  0  0  0  0  0  0  0  0
   -2.1000   12.1783   -6.9759 C   0  0  0  0  0  0  0  0  0  0  0  0
   -1.7654   13.4353   -6.4786 C   0  0  0  0  0  0  0  0  0  0  0  0
   -0.4305   13.4892   -6.4172 N   0  0  0  0  0  0  0  0  0  0  0  0
    0.1699   12.4025   -6.8093 N   0  0  0  0  0  0  0  0  0  0  0  0
   -0.8029   11.5856   -7.1770 C   0  0  0  0  0  0  0  0  0  0  0  0
    0.3883   14.6074   -5.9669 C   0  0  0  0  0  0  0  0  0  0  0  0
   -3.5134   14.9066  -11.6049 C   0  0  0  0  0  0  0  0  0  0  0  0
   -2.2037   14.4678  -10.9376 C   0  0  1  0  0  0  0  0  0  0  0  0
   -2.2231   12.9442  -10.9826 C   0  0  0  0  0  0  0  0  0  0  0  0
   -3.7200   12.5740  -10.8214 C   0  0  0  0  0  0  0  0  0  0  0  0
   -1.0475   15.0410  -11.4860 O   0  0  0  0  0  0  0  0  0  0  0  0
   -6.0839   12.2893   -9.8659 H   0  0  0  0  0  0  0  0  0  0  0  0
   -8.1807   10.1150  -13.8959 H   0  0  0  0  0  0  0  0  0  0  0  0
   -6.8858   12.2432  -14.0871 H   0  0  0  0  0  0  0  0  0  0  0  0
   -6.6755    9.1924   -9.6353 H   0  0  0  0  0  0  0  0  0  0  0  0
   -8.0384    9.5978   -7.2554 H   0  0  0  0  0  0  0  0  0  0  0  0
   -4.8924    8.7808   -8.4920 H   0  0  0  0  0  0  0  0  0  0  0  0
   -2.6611    9.7523   -8.0445 H   0  0  0  0  0  0  0  0  0  0  0  0
   -4.5133   13.2885   -6.4783 H   0  0  0  0  0  0  0  0  0  0  0  0
   -6.3764   12.4521   -7.8326 H   0  0  0  0  0  0  0  0  0  0  0  0
   -6.3728   11.7134   -6.1952 H   0  0  0  0  0  0  0  0  0  0  0  0
   -2.4535   14.2183   -6.1960 H   0  0  0  0  0  0  0  0  0  0  0  0
   -0.6442   10.5957   -7.5787 H   0  0  0  0  0  0  0  0  0  0  0  0
    1.4518   14.3348   -6.0355 H   0  0  0  0  0  0  0  0  0  0  0  0
    0.1929   15.4840   -6.6021 H   0  0  0  0  0  0  0  0  0  0  0  0
    0.1381   14.8479   -4.9231 H   0  0  0  0  0  0  0  0  0  0  0  0
   -3.3468   15.1789  -12.6576 H   0  0  0  0  0  0  0  0  0  0  0  0
   -3.9603   15.7589  -11.0720 H   0  0  0  0  0  0  0  0  0  0  0  0
   -2.2706   14.7595   -9.8791 H   0  0  0  0  0  0  0  0  0  0  0  0
   -1.8326   12.5779  -11.9435 H   0  0  0  0  0  0  0  0  0  0  0  0
   -1.6269   12.5226  -10.1599 H   0  0  0  0  0  0  0  0  0  0  0  0
   -4.0107   12.5154   -9.7621 H   0  0  0  0  0  0  0  0  0  0  0  0
   -3.9577   11.6228  -11.3200 H   0  0  0  0  0  0  0  0  0  0  0  0
   -0.2836   14.7209  -11.0208 H   0  0  0  0  0  0  0  0  0  0  0  0
  1  2  2  0  0  0  0
  1  4  1  0  0  0  0
  1 12  1  0  0  0  0
  2  6  1  0  0  0  0
  3  4  2  0  0  0  0
  3  5  1  0  0  0  0
  5  6  2  0  0  0  0
  5  9  1  0  0  0  0
  6  7  1  0  0  0  0
  7  8  1  0  0  0  0
  7 10  1  0  0  0  0
  8  9  2  0  0  0  0
 10 14  2  0  0  0  0
 11 12  1  0  0  0  0
 11 26  1  0  0  0  0
 11 29  1  0  0  0  0
 12 13  2  0  0  0  0
 14 15  1  0  0  0  0
 14 19  1  0  0  0  0
 15 16  2  0  0  0  0
 16 17  1  0  0  0  0
 17 18  2  0  0  0  0
 17 20  1  0  0  0  0
 18 19  1  0  0  0  0
 20 21  2  0  0  0  0
 20 24  1  0  0  0  0
 21 22  1  0  0  0  0
 22 23  1  0  0  0  0
 22 25  1  0  0  0  0
 23 24  2  0  0  0  0
 26 27  1  0  0  0  0
 27 28  1  0  0  0  0
 27 30  1  0  0  0  0
 28 29  1  0  0  0  0
  2 31  1  0  0  0  0
  3 32  1  0  0  0  0
  4 33  1  0  0  0  0
  7 34  1  0  0  0  0
 10 35  1  0  0  0  0
 15 36  1  0  0  0  0
 16 37  1  0  0  0  0
 18 38  1  0  0  0  0
 19 39  1  0  0  0  0
 19 40  1  0  0  0  0
 21 41  1  0  0  0  0
 24 42  1  0  0  0  0
 25 43  1  0  0  0  0
 25 44  1  0  0  0  0
 25 45  1  0  0  0  0
 26 46  1  0  0  0  0
 26 47  1  0  0  0  0
 27 48  1  0  0  0  0
 28 49  1  0  0  0  0
 28 50  1  0  0  0  0
 29 51  1  0  0  0  0
 29 52  1  0  0  0  0
 30 53  1  0  0  0  0
M  END
> <Name>
31

> <IC50[uM]>
0.002

$$$$
31
  -OEChem-05192314333D
 Structure written by MMmdl.
 53 57  0     1  0  0  0  0  0999 V2000
   -6.3709   12.3579  -12.0062 C   0  0  0  0  0  0  0  0  0  0  0  0
   -6.5187   11.8083  -10.7296 C   0  0  0  0  0  0  0  0  0  0  0  0
   -7.7194   10.5704  -13.0321 C   0  0  0  0  0  0  0  0  0  0  0  0
   -6.9838   11.7645  -13.1240 C   0  0  0  0  0  0  0  0  0  0  0  0
   -7.8186   10.0073  -11.7576 C   0  0  0  0  0  0  0  0  0  0  0  0
   -7.2434   10.6206  -10.5991 C   0  0  0  0  0  0  0  0  0  0  0  0
   -7.6160    9.7494   -9.5117 C   0  0  0  0  0  0  0  0  0  0  0  0
   -8.2808    8.7336   -9.9894 N   0  0  0  0  0  0  0  0  0  0  0  0
   -8.4141    8.8594  -11.3008 N   0  0  0  0  0  0  0  0  0  0  0  0
   -7.3385    9.8886   -8.0248 C   0  0  0  0  0  0  0  0  0  0  0  0
   -4.3631   13.7190  -11.4993 N   0  0  0  0  0  0  0  0  0  0  0  0
   -5.5500   13.6364  -12.1907 C   0  0  0  0  0  0  0  0  0  0  0  0
   -5.9462   14.5251  -12.9474 O   0  0  0  0  0  0  0  0  0  0  0  0
   -5.9607   10.4852   -7.7356 C   0  0  0  0  0  0  0  0  0  0  0  0
   -4.8097    9.7639   -8.0527 C   0  0  0  0  0  0  0  0  0  0  0  0
   -3.5522   10.3124   -7.8024 C   0  0  0  0  0  0  0  0  0  0  0  0
   -3.4444   11.5885   -7.2376 C   0  0  0  0  0  0  0  0  0  0  0  0
   -4.5952   12.3052   -6.9174 C   0  0  0  0  0  0  0  0  0  0  0  0
   -5.8509   11.7557   -7.1626 C   0  0  0  0  0  0  0  0  0  0  0  0
   -2.1000   12.1783   -6.9759 C   0  0  0  0  0  0  0  0  0  0  0  0
   -1.7654   13.4353   -6.4786 C   0  0  0  0  0  0  0  0  0  0  0  0
   -0.4305   13.4892   -6.4172 N   0  0  0  0  0  0  0  0  0  0  0  0
    0.1699   12.4025   -6.8093 N   0  0  0  0  0  0  0  0  0  0  0  0
   -0.8029   11.5856   -7.1770 C   0  0  0  0  0  0  0  0  0  0  0  0
    0.3883   14.6074   -5.9669 C   0  0  0  0  0  0  0  0  0  0  0  0
   -3.5134   14.9066  -11.6049 C   0  0  0  0  0  0  0  0  0  0  0  0
   -2.2037   14.4678  -10.9376 C   0  0  1  0  0  0  0  0  0  0  0  0
   -2.2231   12.9442  -10.9826 C   0  0  0  0  0  0  0  0  0  0  0  0
   -3.7200   12.5740  -10.8214 C   0  0  0  0  0  0  0  0  0  0  0  0
   -1.0475   15.0410  -11.4860 O   0  0  0  0  0  0  0  0  0  0  0  0
   -6.0839   12.2893   -9.8659 H   0  0  0  0  0  0  0  0  0  0  0  0
   -8.1807   10.1150  -13.8959 H   0  0  0  0  0  0  0  0  0  0  0  0
   -6.8858   12.2432  -14.0871 H   0  0  0  0  0  0  0  0  0  0  0  0
   -8.0384    9.5978   -7.2554 H   0  0  0  0  0  0  0  0  0  0  0  0
   -4.8924    8.7808   -8.4920 H   0  0  0  0  0  0  0  0  0  0  0  0
   -3.0333    9.6199   -7.1233 H   0  0  0  0  0  0  0  0  0  0  0  0
   -3.0231   10.3462   -8.7662 H   0  0  0  0  0  0  0  0  0  0  0  0
   -4.5133   13.2885   -6.4783 H   0  0  0  0  0  0  0  0  0  0  0  0
   -6.3764   12.4521   -7.8326 H   0  0  0  0  0  0  0  0  0  0  0  0
   -6.3728   11.7134   -6.1952 H   0  0  0  0  0  0  0  0  0  0  0  0
   -2.4535   14.2183   -6.1960 H   0  0  0  0  0  0  0  0  0  0  0  0
   -0.6442   10.5957   -7.5787 H   0  0  0  0  0  0  0  0  0  0  0  0
    1.4518   14.3348   -6.0355 H   0  0  0  0  0  0  0  0  0  0  0  0
    0.1929   15.4840   -6.6021 H   0  0  0  0  0  0  0  0  0  0  0  0
    0.1381   14.8479   -4.9231 H   0  0  0  0  0  0  0  0  0  0  0  0
   -3.3468   15.1789  -12.6576 H   0  0  0  0  0  0  0  0  0  0  0  0
   -3.9603   15.7589  -11.0720 H   0  0  0  0  0  0  0  0  0  0  0  0
   -2.2706   14.7595   -9.8791 H   0  0  0  0  0  0  0  0  0  0  0  0
   -1.8326   12.5779  -11.9435 H   0  0  0  0  0  0  0  0  0  0  0  0
   -1.6269   12.5226  -10.1599 H   0  0  0  0  0  0  0  0  0  0  0  0
   -4.0107   12.5154   -9.7621 H   0  0  0  0  0  0  0  0  0  0  0  0
   -3.9577   11.6228  -11.3200 H   0  0  0  0  0  0  0  0  0  0  0  0
   -0.2836   14.7209  -11.0208 H   0  0  0  0  0  0  0  0  0  0  0  0
  1  2  2  0  0  0  0
  1  4  1  0  0  0  0
  1 12  1  0  0  0  0
  2  6  1  0  0  0  0
  3  4  2  0  0  0  0
  3  5  1  0  0  0  0
  5  6  2  0  0  0  0
  5  9  1  0  0  0  0
  6  7  1  0  0  0  0
  7  8  1  0  0  0  0
  7 10  2  0  0  0  0
  8  9  2  0  0  0  0
 10 14  1  0  0  0  0
 11 12  1  0  0  0  0
 11 26  1  0  0  0  0
 11 29  1  0  0  0  0
 12 13  2  0  0  0  0
 14 15  2  0  0  0  0
 14 19  1  0  0  0  0
 15 16  1  0  0  0  0
 16 17  1  0  0  0  0
 17 18  2  0  0  0  0
 17 20  1  0  0  0  0
 18 19  1  0  0  0  0
 20 21  2  0  0  0  0
 20 24  1  0  0  0  0
 21 22  1  0  0  0  0
 22 23  1  0  0  0  0
 22 25  1  0  0  0  0
 23 24  2  0  0  0  0
 26 27  1  0  0  0  0
 27 28  1  0  0  0  0
 27 30  1  0  0  0  0
 28 29  1  0  0  0  0
  2 31  1  0  0  0  0
  3 32  1  0  0  0  0
  4 33  1  0  0  0  0
 10 34  1  0  0  0  0
 15 35  1  0  0  0  0
 16 36  1  0  0  0  0
 16 37  1  0  0  0  0
 18 38  1  0  0  0  0
 19 39  1  0  0  0  0
 19 40  1  0  0  0  0
 21 41  1  0  0  0  0
 24 42  1  0  0  0  0
 25 43  1  0  0  0  0
 25 44  1  0  0  0  0
 25 45  1  0  0  0  0
 26 46  1  0  0  0  0
 26 47  1  0  0  0  0
 27 48  1  0  0  0  0
 28 49  1  0  0  0  0
 28 50  1  0  0  0  0
 29 51  1  0  0  0  0
 29 52  1  0  0  0  0
 30 53  1  0  0  0  0
M  END
> <Name>
31

> <IC50[uM]>
0.002

$$$$
31
  -OEChem-05192314333D
 Structure written by MMmdl.
 53 57  0     1  0  0  0  0  0999 V2000
   -6.3709   12.3579  -12.0062 C   0  0  0  0  0  0  0  0  0  0  0  0
   -6.5187   11.8083  -10.7296 C   0  0  0  0  0  0  0  0  0  0  0  0
   -7.7194   10.5704  -13.0321 C   0  0  0  0  0  0  0  0  0  0  0  0
   -6.9838   11.7645  -13.1240 C   0  0  0  0  0  0  0  0  0  0  0  0
   -7.8186   10.0073  -11.7576 C   0  0  0  0  0  0  0  0  0  0  0  0
   -7.2434   10.6206  -10.5991 C   0  0  0  0  0  0  0  0  0  0  0  0
   -7.6160    9.7494   -9.5117 C   0  0  0  0  0  0  0  0  0  0  0  0
   -8.2808    8.7336   -9.9894 N   0  0  0  0  0  0  0  0  0  0  0  0
   -8.4141    8.8594  -11.3008 N   0  0  0  0  0  0  0  0  0  0  0  0
   -7.3385    9.8886   -8.0248 C   0  0  0  0  0  0  0  0  0  0  0  0
   -4.3631   13.7190  -11.4993 N   0  0  0  0  0  0  0  0  0  0  0  0
   -5.5500   13.6364  -12.1907 C   0  0  0  0  0  0  0  0  0  0  0  0
   -5.9462   14.5251  -12.9474 O   0  0  0  0  0  0  0  0  0  0  0  0
   -5.9607   10.4852   -7.7356 C   0  0  0  0  0  0  0  0  0  0  0  0
   -4.8097    9.7639   -8.0527 C   0  0  0  0  0  0  0  0  0  0  0  0
   -3.5522   10.3124   -7.8024 C   0  0  0  0  0  0  0  0  0  0  0  0
   -3.4444   11.5885   -7.2376 C   0  0  0  0  0  0  0  0  0  0  0  0
   -4.5952   12.3052   -6.9174 C   0  0  0  0  0  0  0  0  0  0  0  0
   -5.8509   11.7557   -7.1626 C   0  0  0  0  0  0  0  0  0  0  0  0
   -2.1000   12.1783   -6.9759 C   0  0  0  0  0  0  0  0  0  0  0  0
   -1.7654   13.4353   -6.4786 C   0  0  0  0  0  0  0  0  0  0  0  0
   -0.4305   13.4892   -6.4172 N   0  0  0  0  0  0  0  0  0  0  0  0
    0.1699   12.4025   -6.8093 N   0  0  0  0  0  0  0  0  0  0  0  0
   -0.8029   11.5856   -7.1770 C   0  0  0  0  0  0  0  0  0  0  0  0
    0.3883   14.6074   -5.9669 C   0  0  0  0  0  0  0  0  0  0  0  0
   -3.5134   14.9066  -11.6049 C   0  0  0  0  0  0  0  0  0  0  0  0
   -2.2037   14.4678  -10.9376 C   0  0  1  0  0  0  0  0  0  0  0  0
   -2.2231   12.9442  -10.9826 C   0  0  0  0  0  0  0  0  0  0  0  0
   -3.7200   12.5740  -10.8214 C   0  0  0  0  0  0  0  0  0  0  0  0
   -1.0475   15.0410  -11.4860 O   0  0  0  0  0  0  0  0  0  0  0  0
   -6.0839   12.2893   -9.8659 H   0  0  0  0  0  0  0  0  0  0  0  0
   -8.1807   10.1150  -13.8959 H   0  0  0  0  0  0  0  0  0  0  0  0
   -6.8858   12.2432  -14.0871 H   0  0  0  0  0  0  0  0  0  0  0  0
   -8.0384    9.5978   -7.2554 H   0  0  0  0  0  0  0  0  0  0  0  0
   -4.8924    8.7808   -8.4920 H   0  0  0  0  0  0  0  0  0  0  0  0
   -2.6611    9.7523   -8.0445 H   0  0  0  0  0  0  0  0  0  0  0  0
   -4.5469   12.5172   -5.8391 H   0  0  0  0  0  0  0  0  0  0  0  0
   -4.5472   13.2496   -7.4793 H   0  0  0  0  0  0  0  0  0  0  0  0
   -6.3764   12.4521   -7.8326 H   0  0  0  0  0  0  0  0  0  0  0  0
   -6.3728   11.7134   -6.1952 H   0  0  0  0  0  0  0  0  0  0  0  0
   -2.4535   14.2183   -6.1960 H   0  0  0  0  0  0  0  0  0  0  0  0
   -0.6442   10.5957   -7.5787 H   0  0  0  0  0  0  0  0  0  0  0  0
    1.4518   14.3348   -6.0355 H   0  0  0  0  0  0  0  0  0  0  0  0
    0.1929   15.4840   -6.6021 H   0  0  0  0  0  0  0  0  0  0  0  0
    0.1381   14.8479   -4.9231 H   0  0  0  0  0  0  0  0  0  0  0  0
   -3.3468   15.1789  -12.6576 H   0  0  0  0  0  0  0  0  0  0  0  0
   -3.9603   15.7589  -11.0720 H   0  0  0  0  0  0  0  0  0  0  0  0
   -2.2706   14.7595   -9.8791 H   0  0  0  0  0  0  0  0  0  0  0  0
   -1.8326   12.5779  -11.9435 H   0  0  0  0  0  0  0  0  0  0  0  0
   -1.6269   12.5226  -10.1599 H   0  0  0  0  0  0  0  0  0  0  0  0
   -4.0107   12.5154   -9.7621 H   0  0  0  0  0  0  0  0  0  0  0  0
   -3.9577   11.6228  -11.3200 H   0  0  0  0  0  0  0  0  0  0  0  0
   -0.2836   14.7209  -11.0208 H   0  0  0  0  0  0  0  0  0  0  0  0
  1  2  2  0  0  0  0
  1  4  1  0  0  0  0
  1 12  1  0  0  0  0
  2  6  1  0  0  0  0
  3  4  2  0  0  0  0
  3  5  1  0  0  0  0
  5  6  2  0  0  0  0
  5  9  1  0  0  0  0
  6  7  1  0  0  0  0
  7  8  1  0  0  0  0
  7 10  2  0  0  0  0
  8  9  2  0  0  0  0
 10 14  1  0  0  0  0
 11 12  1  0  0  0  0
 11 26  1  0  0  0  0
 11 29  1  0  0  0  0
 12 13  2  0  0  0  0
 14 15  2  0  0  0  0
 14 19  1  0  0  0  0
 15 16  1  0  0  0  0
 16 17  2  0  0  0  0
 17 18  1  0  0  0  0
 17 20  1  0  0  0  0
 18 19  1  0  0  0  0
 20 21  2  0  0  0  0
 20 24  1  0  0  0  0
 21 22  1  0  0  0  0
 22 23  1  0  0  0  0
 22 25  1  0  0  0  0
 23 24  2  0  0  0  0
 26 27  1  0  0  0  0
 27 28  1  0  0  0  0
 27 30  1  0  0  0  0
 28 29  1  0  0  0  0
  2 31  1  0  0  0  0
  3 32  1  0  0  0  0
  4 33  1  0  0  0  0
 10 34  1  0  0  0  0
 15 35  1  0  0  0  0
 16 36  1  0  0  0  0
 18 37  1  0  0  0  0
 18 38  1  0  0  0  0
 19 39  1  0  0  0  0
 19 40  1  0  0  0  0
 21 41  1  0  0  0  0
 24 42  1  0  0  0  0
 25 43  1  0  0  0  0
 25 44  1  0  0  0  0
 25 45  1  0  0  0  0
 26 46  1  0  0  0  0
 26 47  1  0  0  0  0
 27 48  1  0  0  0  0
 28 49  1  0  0  0  0
 28 50  1  0  0  0  0
 29 51  1  0  0  0  0
 29 52  1  0  0  0  0
 30 53  1  0  0  0  0
M  END
> <Name>
31

> <IC50[uM]>
0.002

$$$$
31
  -OEChem-05192314333D
 Structure written by MMmdl.
 53 57  0     1  0  0  0  0  0999 V2000
   -6.3709   12.3579  -12.0062 C   0  0  0  0  0  0  0  0  0  0  0  0
   -6.5187   11.8083  -10.7296 C   0  0  0  0  0  0  0  0  0  0  0  0
   -7.7194   10.5704  -13.0321 C   0  0  0  0  0  0  0  0  0  0  0  0
   -6.9838   11.7645  -13.1240 C   0  0  0  0  0  0  0  0  0  0  0  0
   -7.8186   10.0073  -11.7576 C   0  0  0  0  0  0  0  0  0  0  0  0
   -7.2434   10.6206  -10.5991 C   0  0  0  0  0  0  0  0  0  0  0  0
   -7.6160    9.7494   -9.5117 C   0  0  0  0  0  0  0  0  0  0  0  0
   -8.2808    8.7336   -9.9894 N   0  0  0  0  0  0  0  0  0  0  0  0
   -8.4141    8.8594  -11.3008 N   0  0  0  0  0  0  0  0  0  0  0  0
   -7.3385    9.8886   -8.0248 C   0  0  0  0  0  0  0  0  0  0  0  0
   -4.3631   13.7190  -11.4993 N   0  0  0  0  0  0  0  0  0  0  0  0
   -5.5500   13.6364  -12.1907 C   0  0  0  0  0  0  0  0  0  0  0  0
   -5.9462   14.5251  -12.9474 O   0  0  0  0  0  0  0  0  0  0  0  0
   -5.9607   10.4852   -7.7356 C   0  0  0  0  0  0  0  0  0  0  0  0
   -4.8097    9.7639   -8.0527 C   0  0  0  0  0  0  0  0  0  0  0  0
   -3.5522   10.3124   -7.8024 C   0  0  0  0  0  0  0  0  0  0  0  0
   -3.4444   11.5885   -7.2376 C   0  0  0  0  0  0  0  0  0  0  0  0
   -4.5952   12.3052   -6.9174 C   0  0  0  0  0  0  0  0  0  0  0  0
   -5.8509   11.7557   -7.1626 C   0  0  0  0  0  0  0  0  0  0  0  0
   -2.1000   12.1783   -6.9759 C   0  0  0  0  0  0  0  0  0  0  0  0
   -1.7654   13.4353   -6.4786 C   0  0  0  0  0  0  0  0  0  0  0  0
   -0.4305   13.4892   -6.4172 N   0  0  0  0  0  0  0  0  0  0  0  0
    0.1699   12.4025   -6.8093 N   0  0  0  0  0  0  0  0  0  0  0  0
   -0.8029   11.5856   -7.1770 C   0  0  0  0  0  0  0  0  0  0  0  0
    0.3883   14.6074   -5.9669 C   0  0  0  0  0  0  0  0  0  0  0  0
   -3.5134   14.9066  -11.6049 C   0  0  0  0  0  0  0  0  0  0  0  0
   -2.2037   14.4678  -10.9376 C   0  0  1  0  0  0  0  0  0  0  0  0
   -2.2231   12.9442  -10.9826 C   0  0  0  0  0  0  0  0  0  0  0  0
   -3.7200   12.5740  -10.8214 C   0  0  0  0  0  0  0  0  0  0  0  0
   -1.0475   15.0410  -11.4860 O   0  0  0  0  0  0  0  0  0  0  0  0
   -5.4695   11.7492  -12.1702 H   0  0  0  0  0  0  0  0  0  0  0  0
   -5.5085   11.6180  -10.3381 H   0  0  0  0  0  0  0  0  0  0  0  0
   -7.0175   12.5643  -10.1054 H   0  0  0  0  0  0  0  0  0  0  0  0
   -8.1807   10.1150  -13.8959 H   0  0  0  0  0  0  0  0  0  0  0  0
   -6.8858   12.2432  -14.0871 H   0  0  0  0  0  0  0  0  0  0  0  0
   -8.0384    9.5978   -7.2554 H   0  0  0  0  0  0  0  0  0  0  0  0
   -4.8924    8.7808   -8.4920 H   0  0  0  0  0  0  0  0  0  0  0  0
   -2.6611    9.7523   -8.0445 H   0  0  0  0  0  0  0  0  0  0  0  0
   -4.5133   13.2885   -6.4783 H   0  0  0  0  0  0  0  0  0  0  0  0
   -6.7415   12.3119   -6.9097 H   0  0  0  0  0  0  0  0  0  0  0  0
   -2.4535   14.2183   -6.1960 H   0  0  0  0  0  0  0  0  0  0  0  0
   -0.6442   10.5957   -7.5787 H   0  0  0  0  0  0  0  0  0  0  0  0
    1.4518   14.3348   -6.0355 H   0  0  0  0  0  0  0  0  0  0  0  0
    0.1929   15.4840   -6.6021 H   0  0  0  0  0  0  0  0  0  0  0  0
    0.1381   14.8479   -4.9231 H   0  0  0  0  0  0  0  0  0  0  0  0
   -3.3468   15.1789  -12.6576 H   0  0  0  0  0  0  0  0  0  0  0  0
   -3.9603   15.7589  -11.0720 H   0  0  0  0  0  0  0  0  0  0  0  0
   -2.2706   14.7595   -9.8791 H   0  0  0  0  0  0  0  0  0  0  0  0
   -1.8326   12.5779  -11.9435 H   0  0  0  0  0  0  0  0  0  0  0  0
   -1.6269   12.5226  -10.1599 H   0  0  0  0  0  0  0  0  0  0  0  0
   -4.0107   12.5154   -9.7621 H   0  0  0  0  0  0  0  0  0  0  0  0
   -3.9577   11.6228  -11.3200 H   0  0  0  0  0  0  0  0  0  0  0  0
   -0.2836   14.7209  -11.0208 H   0  0  0  0  0  0  0  0  0  0  0  0
  1  2  1  0  0  0  0
  1  4  1  0  0  0  0
  1 12  1  0  0  0  0
  2  6  1  0  0  0  0
  3  4  2  0  0  0  0
  3  5  1  0  0  0  0
  5  6  2  0  0  0  0
  5  9  1  0  0  0  0
  6  7  1  0  0  0  0
  7  8  1  0  0  0  0
  7 10  2  0  0  0  0
  8  9  2  0  0  0  0
 10 14  1  0  0  0  0
 11 12  1  0  0  0  0
 11 26  1  0  0  0  0
 11 29  1  0  0  0  0
 12 13  2  0  0  0  0
 14 15  2  0  0  0  0
 14 19  1  0  0  0  0
 15 16  1  0  0  0  0
 16 17  2  0  0  0  0
 17 18  1  0  0  0  0
 17 20  1  0  0  0  0
 18 19  2  0  0  0  0
 20 21  2  0  0  0  0
 20 24  1  0  0  0  0
 21 22  1  0  0  0  0
 22 23  1  0  0  0  0
 22 25  1  0  0  0  0
 23 24  2  0  0  0  0
 26 27  1  0  0  0  0
 27 28  1  0  0  0  0
 27 30  1  0  0  0  0
 28 29  1  0  0  0  0
  1 31  1  0  0  0  0
  2 32  1  0  0  0  0
  2 33  1  0  0  0  0
  3 34  1  0  0  0  0
  4 35  1  0  0  0  0
 10 36  1  0  0  0  0
 15 37  1  0  0  0  0
 16 38  1  0  0  0  0
 18 39  1  0  0  0  0
 19 40  1  0  0  0  0
 21 41  1  0  0  0  0
 24 42  1  0  0  0  0
 25 43  1  0  0  0  0
 25 44  1  0  0  0  0
 25 45  1  0  0  0  0
 26 46  1  0  0  0  0
 26 47  1  0  0  0  0
 27 48  1  0  0  0  0
 28 49  1  0  0  0  0
 28 50  1  0  0  0  0
 29 51  1  0  0  0  0
 29 52  1  0  0  0  0
 30 53  1  0  0  0  0
M  END
> <Name>
31

> <IC50[uM]>
0.002

$$$$
31
  -OEChem-05192314333D
 Structure written by MMmdl.
 53 57  0     1  0  0  0  0  0999 V2000
   -6.3709   12.3579  -12.0062 C   0  0  0  0  0  0  0  0  0  0  0  0
   -6.5187   11.8083  -10.7296 C   0  0  0  0  0  0  0  0  0  0  0  0
   -7.7194   10.5704  -13.0321 C   0  0  0  0  0  0  0  0  0  0  0  0
   -6.9838   11.7645  -13.1240 C   0  0  0  0  0  0  0  0  0  0  0  0
   -7.8186   10.0073  -11.7576 C   0  0  0  0  0  0  0  0  0  0  0  0
   -7.2434   10.6206  -10.5991 C   0  0  0  0  0  0  0  0  0  0  0  0
   -7.6160    9.7494   -9.5117 C   0  0  0  0  0  0  0  0  0  0  0  0
   -8.2808    8.7336   -9.9894 N   0  0  0  0  0  0  0  0  0  0  0  0
   -8.4141    8.8594  -11.3008 N   0  0  0  0  0  0  0  0  0  0  0  0
   -7.3385    9.8886   -8.0248 C   0  0  0  0  0  0  0  0  0  0  0  0
   -4.3631   13.7190  -11.4993 N   0  0  0  0  0  0  0  0  0  0  0  0
   -5.5500   13.6364  -12.1907 C   0  0  0  0  0  0  0  0  0  0  0  0
   -5.9462   14.5251  -12.9474 O   0  0  0  0  0  0  0  0  0  0  0  0
   -5.9607   10.4852   -7.7356 C   0  0  0  0  0  0  0  0  0  0  0  0
   -4.8097    9.7639   -8.0527 C   0  0  0  0  0  0  0  0  0  0  0  0
   -3.5522   10.3124   -7.8024 C   0  0  0  0  0  0  0  0  0  0  0  0
   -3.4444   11.5885   -7.2376 C   0  0  0  0  0  0  0  0  0  0  0  0
   -4.5952   12.3052   -6.9174 C   0  0  0  0  0  0  0  0  0  0  0  0
   -5.8509   11.7557   -7.1626 C   0  0  0  0  0  0  0  0  0  0  0  0
   -2.1000   12.1783   -6.9759 C   0  0  0  0  0  0  0  0  0  0  0  0
   -1.7654   13.4353   -6.4786 C   0  0  0  0  0  0  0  0  0  0  0  0
   -0.4305   13.4892   -6.4172 N   0  0  0  0  0  0  0  0  0  0  0  0
    0.1699   12.4025   -6.8093 N   0  0  0  0  0  0  0  0  0  0  0  0
   -0.8029   11.5856   -7.1770 C   0  0  0  0  0  0  0  0  0  0  0  0
    0.3883   14.6074   -5.9669 C   0  0  0  0  0  0  0  0  0  0  0  0
   -3.5134   14.9066  -11.6049 C   0  0  0  0  0  0  0  0  0  0  0  0
   -2.2037   14.4678  -10.9376 C   0  0  1  0  0  0  0  0  0  0  0  0
   -2.2231   12.9442  -10.9826 C   0  0  0  0  0  0  0  0  0  0  0  0
   -3.7200   12.5740  -10.8214 C   0  0  0  0  0  0  0  0  0  0  0  0
   -1.0475   15.0410  -11.4860 O   0  0  0  0  0  0  0  0  0  0  0  0
   -5.5085   11.6180  -10.3381 H   0  0  0  0  0  0  0  0  0  0  0  0
   -7.0175   12.5643  -10.1054 H   0  0  0  0  0  0  0  0  0  0  0  0
   -8.1807   10.1150  -13.8959 H   0  0  0  0  0  0  0  0  0  0  0  0
   -6.8858   12.2432  -14.0871 H   0  0  0  0  0  0  0  0  0  0  0  0
   -6.3210   10.0404  -10.7489 H   0  0  0  0  0  0  0  0  0  0  0  0
   -8.0384    9.5978   -7.2554 H   0  0  0  0  0  0  0  0  0  0  0  0
   -4.8924    8.7808   -8.4920 H   0  0  0  0  0  0  0  0  0  0  0  0
   -2.6611    9.7523   -8.0445 H   0  0  0  0  0  0  0  0  0  0  0  0
   -4.5133   13.2885   -6.4783 H   0  0  0  0  0  0  0  0  0  0  0  0
   -6.7415   12.3119   -6.9097 H   0  0  0  0  0  0  0  0  0  0  0  0
   -2.4535   14.2183   -6.1960 H   0  0  0  0  0  0  0  0  0  0  0  0
   -0.6442   10.5957   -7.5787 H   0  0  0  0  0  0  0  0  0  0  0  0
    1.4518   14.3348   -6.0355 H   0  0  0  0  0  0  0  0  0  0  0  0
    0.1929   15.4840   -6.6021 H   0  0  0  0  0  0  0  0  0  0  0  0
    0.1381   14.8479   -4.9231 H   0  0  0  0  0  0  0  0  0  0  0  0
   -3.3468   15.1789  -12.6576 H   0  0  0  0  0  0  0  0  0  0  0  0
   -3.9603   15.7589  -11.0720 H   0  0  0  0  0  0  0  0  0  0  0  0
   -2.2706   14.7595   -9.8791 H   0  0  0  0  0  0  0  0  0  0  0  0
   -1.8326   12.5779  -11.9435 H   0  0  0  0  0  0  0  0  0  0  0  0
   -1.6269   12.5226  -10.1599 H   0  0  0  0  0  0  0  0  0  0  0  0
   -4.0107   12.5154   -9.7621 H   0  0  0  0  0  0  0  0  0  0  0  0
   -3.9577   11.6228  -11.3200 H   0  0  0  0  0  0  0  0  0  0  0  0
   -0.2836   14.7209  -11.0208 H   0  0  0  0  0  0  0  0  0  0  0  0
  1  2  1  0  0  0  0
  1  4  2  0  0  0  0
  1 12  1  0  0  0  0
  2  6  1  0  0  0  0
  3  4  1  0  0  0  0
  3  5  2  0  0  0  0
  5  6  1  0  0  0  0
  5  9  1  0  0  0  0
  6  7  1  0  0  0  0
  7  8  1  0  0  0  0
  7 10  2  0  0  0  0
  8  9  2  0  0  0  0
 10 14  1  0  0  0  0
 11 12  1  0  0  0  0
 11 26  1  0  0  0  0
 11 29  1  0  0  0  0
 12 13  2  0  0  0  0
 14 15  2  0  0  0  0
 14 19  1  0  0  0  0
 15 16  1  0  0  0  0
 16 17  2  0  0  0  0
 17 18  1  0  0  0  0
 17 20  1  0  0  0  0
 18 19  2  0  0  0  0
 20 21  2  0  0  0  0
 20 24  1  0  0  0  0
 21 22  1  0  0  0  0
 22 23  1  0  0  0  0
 22 25  1  0  0  0  0
 23 24  2  0  0  0  0
 26 27  1  0  0  0  0
 27 28  1  0  0  0  0
 27 30  1  0  0  0  0
 28 29  1  0  0  0  0
  2 31  1  0  0  0  0
  2 32  1  0  0  0  0
  3 33  1  0  0  0  0
  4 34  1  0  0  0  0
  6 35  1  0  0  0  0
 10 36  1  0  0  0  0
 15 37  1  0  0  0  0
 16 38  1  0  0  0  0
 18 39  1  0  0  0  0
 19 40  1  0  0  0  0
 21 41  1  0  0  0  0
 24 42  1  0  0  0  0
 25 43  1  0  0  0  0
 25 44  1  0  0  0  0
 25 45  1  0  0  0  0
 26 46  1  0  0  0  0
 26 47  1  0  0  0  0
 27 48  1  0  0  0  0
 28 49  1  0  0  0  0
 28 50  1  0  0  0  0
 29 51  1  0  0  0  0
 29 52  1  0  0  0  0
 30 53  1  0  0  0  0
M  END
> <Name>
31

> <IC50[uM]>
0.002

$$$$
31
  -OEChem-05192314333D
 Structure written by MMmdl.
 53 57  0     1  0  0  0  0  0999 V2000
   -6.3709   12.3579  -12.0062 C   0  0  0  0  0  0  0  0  0  0  0  0
   -6.5187   11.8083  -10.7296 C   0  0  0  0  0  0  0  0  0  0  0  0
   -7.7194   10.5704  -13.0321 C   0  0  0  0  0  0  0  0  0  0  0  0
   -6.9838   11.7645  -13.1240 C   0  0  0  0  0  0  0  0  0  0  0  0
   -7.8186   10.0073  -11.7576 C   0  0  0  0  0  0  0  0  0  0  0  0
   -7.2434   10.6206  -10.5991 C   0  0  0  0  0  0  0  0  0  0  0  0
   -7.6160    9.7494   -9.5117 C   0  0  0  0  0  0  0  0  0  0  0  0
   -8.2808    8.7336   -9.9894 N   0  0  0  0  0  0  0  0  0  0  0  0
   -8.4141    8.8594  -11.3008 N   0  0  0  0  0  0  0  0  0  0  0  0
   -7.3385    9.8886   -8.0248 C   0  0  0  0  0  0  0  0  0  0  0  0
   -4.3631   13.7190  -11.4993 N   0  0  0  0  0  0  0  0  0  0  0  0
   -5.5500   13.6364  -12.1907 C   0  0  0  0  0  0  0  0  0  0  0  0
   -5.9462   14.5251  -12.9474 O   0  0  0  0  0  0  0  0  0  0  0  0
   -5.9607   10.4852   -7.7356 C   0  0  0  0  0  0  0  0  0  0  0  0
   -4.8097    9.7639   -8.0527 C   0  0  0  0  0  0  0  0  0  0  0  0
   -3.5522   10.3124   -7.8024 C   0  0  0  0  0  0  0  0  0  0  0  0
   -3.4444   11.5885   -7.2376 C   0  0  0  0  0  0  0  0  0  0  0  0
   -4.5952   12.3052   -6.9174 C   0  0  0  0  0  0  0  0  0  0  0  0
   -5.8509   11.7557   -7.1626 C   0  0  0  0  0  0  0  0  0  0  0  0
   -2.1000   12.1783   -6.9759 C   0  0  0  0  0  0  0  0  0  0  0  0
   -1.7654   13.4353   -6.4786 C   0  0  0  0  0  0  0  0  0  0  0  0
   -0.4305   13.4892   -6.4172 N   0  0  0  0  0  0  0  0  0  0  0  0
    0.1699   12.4025   -6.8093 N   0  0  0  0  0  0  0  0  0  0  0  0
   -0.8029   11.5856   -7.1770 C   0  0  0  0  0  0  0  0  0  0  0  0
    0.3883   14.6074   -5.9669 C   0  0  0  0  0  0  0  0  0  0  0  0
   -3.5134   14.9066  -11.6049 C   0  0  0  0  0  0  0  0  0  0  0  0
   -2.2037   14.4678  -10.9376 C   0  0  1  0  0  0  0  0  0  0  0  0
   -2.2231   12.9442  -10.9826 C   0  0  0  0  0  0  0  0  0  0  0  0
   -3.7200   12.5740  -10.8214 C   0  0  0  0  0  0  0  0  0  0  0  0
   -1.0475   15.0410  -11.4860 O   0  0  0  0  0  0  0  0  0  0  0  0
   -5.5085   11.6180  -10.3381 H   0  0  0  0  0  0  0  0  0  0  0  0
   -7.0175   12.5643  -10.1054 H   0  0  0  0  0  0  0  0  0  0  0  0
   -8.7393   10.7754  -13.3895 H   0  0  0  0  0  0  0  0  0  0  0  0
   -7.2420    9.8299  -13.6907 H   0  0  0  0  0  0  0  0  0  0  0  0
   -6.8858   12.2432  -14.0871 H   0  0  0  0  0  0  0  0  0  0  0  0
   -8.0384    9.5978   -7.2554 H   0  0  0  0  0  0  0  0  0  0  0  0
   -4.8924    8.7808   -8.4920 H   0  0  0  0  0  0  0  0  0  0  0  0
   -2.6611    9.7523   -8.0445 H   0  0  0  0  0  0  0  0  0  0  0  0
   -4.5133   13.2885   -6.4783 H   0  0  0  0  0  0  0  0  0  0  0  0
   -6.7415   12.3119   -6.9097 H   0  0  0  0  0  0  0  0  0  0  0  0
   -2.4535   14.2183   -6.1960 H   0  0  0  0  0  0  0  0  0  0  0  0
   -0.6442   10.5957   -7.5787 H   0  0  0  0  0  0  0  0  0  0  0  0
    1.4518   14.3348   -6.0355 H   0  0  0  0  0  0  0  0  0  0  0  0
    0.1929   15.4840   -6.6021 H   0  0  0  0  0  0  0  0  0  0  0  0
    0.1381   14.8479   -4.9231 H   0  0  0  0  0  0  0  0  0  0  0  0
   -3.3468   15.1789  -12.6576 H   0  0  0  0  0  0  0  0  0  0  0  0
   -3.9603   15.7589  -11.0720 H   0  0  0  0  0  0  0  0  0  0  0  0
   -2.2706   14.7595   -9.8791 H   0  0  0  0  0  0  0  0  0  0  0  0
   -1.8326   12.5779  -11.9435 H   0  0  0  0  0  0  0  0  0  0  0  0
   -1.6269   12.5226  -10.1599 H   0  0  0  0  0  0  0  0  0  0  0  0
   -4.0107   12.5154   -9.7621 H   0  0  0  0  0  0  0  0  0  0  0  0
   -3.9577   11.6228  -11.3200 H   0  0  0  0  0  0  0  0  0  0  0  0
   -0.2836   14.7209  -11.0208 H   0  0  0  0  0  0  0  0  0  0  0  0
  1  2  1  0  0  0  0
  1  4  2  0  0  0  0
  1 12  1  0  0  0  0
  2  6  1  0  0  0  0
  3  4  1  0  0  0  0
  3  5  1  0  0  0  0
  5  6  2  0  0  0  0
  5  9  1  0  0  0  0
  6  7  1  0  0  0  0
  7  8  1  0  0  0  0
  7 10  2  0  0  0  0
  8  9  2  0  0  0  0
 10 14  1  0  0  0  0
 11 12  1  0  0  0  0
 11 26  1  0  0  0  0
 11 29  1  0  0  0  0
 12 13  2  0  0  0  0
 14 15  2  0  0  0  0
 14 19  1  0  0  0  0
 15 16  1  0  0  0  0
 16 17  2  0  0  0  0
 17 18  1  0  0  0  0
 17 20  1  0  0  0  0
 18 19  2  0  0  0  0
 20 21  2  0  0  0  0
 20 24  1  0  0  0  0
 21 22  1  0  0  0  0
 22 23  1  0  0  0  0
 22 25  1  0  0  0  0
 23 24  2  0  0  0  0
 26 27  1  0  0  0  0
 27 28  1  0  0  0  0
 27 30  1  0  0  0  0
 28 29  1  0  0  0  0
  2 31  1  0  0  0  0
  2 32  1  0  0  0  0
  3 33  1  0  0  0  0
  3 34  1  0  0  0  0
  4 35  1  0  0  0  0
 10 36  1  0  0  0  0
 15 37  1  0  0  0  0
 16 38  1  0  0  0  0
 18 39  1  0  0  0  0
 19 40  1  0  0  0  0
 21 41  1  0  0  0  0
 24 42  1  0  0  0  0
 25 43  1  0  0  0  0
 25 44  1  0  0  0  0
 25 45  1  0  0  0  0
 26 46  1  0  0  0  0
 26 47  1  0  0  0  0
 27 48  1  0  0  0  0
 28 49  1  0  0  0  0
 28 50  1  0  0  0  0
 29 51  1  0  0  0  0
 29 52  1  0  0  0  0
 30 53  1  0  0  0  0
M  END
> <Name>
31

> <IC50[uM]>
0.002

$$$$
31
  -OEChem-05192314333D
 Structure written by MMmdl.
 53 57  0     1  0  0  0  0  0999 V2000
   -6.3709   12.3579  -12.0062 C   0  0  0  0  0  0  0  0  0  0  0  0
   -6.5187   11.8083  -10.7296 C   0  0  0  0  0  0  0  0  0  0  0  0
   -7.7194   10.5704  -13.0321 C   0  0  0  0  0  0  0  0  0  0  0  0
   -6.9838   11.7645  -13.1240 C   0  0  0  0  0  0  0  0  0  0  0  0
   -7.8186   10.0073  -11.7576 C   0  0  0  0  0  0  0  0  0  0  0  0
   -7.2434   10.6206  -10.5991 C   0  0  0  0  0  0  0  0  0  0  0  0
   -7.6160    9.7494   -9.5117 C   0  0  0  0  0  0  0  0  0  0  0  0
   -8.2808    8.7336   -9.9894 N   0  0  0  0  0  0  0  0  0  0  0  0
   -8.4141    8.8594  -11.3008 N   0  0  0  0  0  0  0  0  0  0  0  0
   -7.3385    9.8886   -8.0248 C   0  0  0  0  0  0  0  0  0  0  0  0
   -4.3631   13.7190  -11.4993 N   0  0  0  0  0  0  0  0  0  0  0  0
   -5.5500   13.6364  -12.1907 C   0  0  0  0  0  0  0  0  0  0  0  0
   -5.9462   14.5251  -12.9474 O   0  0  0  0  0  0  0  0  0  0  0  0
   -5.9607   10.4852   -7.7356 C   0  0  0  0  0  0  0  0  0  0  0  0
   -4.8097    9.7639   -8.0527 C   0  0  0  0  0  0  0  0  0  0  0  0
   -3.5522   10.3124   -7.8024 C   0  0  0  0  0  0  0  0  0  0  0  0
   -3.4444   11.5885   -7.2376 C   0  0  0  0  0  0  0  0  0  0  0  0
   -4.5952   12.3052   -6.9174 C   0  0  0  0  0  0  0  0  0  0  0  0
   -5.8509   11.7557   -7.1626 C   0  0  0  0  0  0  0  0  0  0  0  0
   -2.1000   12.1783   -6.9759 C   0  0  0  0  0  0  0  0  0  0  0  0
   -1.7654   13.4353   -6.4786 C   0  0  0  0  0  0  0  0  0  0  0  0
   -0.4305   13.4892   -6.4172 N   0  0  0  0  0  0  0  0  0  0  0  0
    0.1699   12.4025   -6.8093 N   0  0  0  0  0  0  0  0  0  0  0  0
   -0.8029   11.5856   -7.1770 C   0  0  0  0  0  0  0  0  0  0  0  0
    0.3883   14.6074   -5.9669 C   0  0  0  0  0  0  0  0  0  0  0  0
   -3.5134   14.9066  -11.6049 C   0  0  0  0  0  0  0  0  0  0  0  0
   -2.2037   14.4678  -10.9376 C   0  0  1  0  0  0  0  0  0  0  0  0
   -2.2231   12.9442  -10.9826 C   0  0  0  0  0  0  0  0  0  0  0  0
   -3.7200   12.5740  -10.8214 C   0  0  0  0  0  0  0  0  0  0  0  0
   -1.0475   15.0410  -11.4860 O   0  0  0  0  0  0  0  0  0  0  0  0
   -6.0839   12.2893   -9.8659 H   0  0  0  0  0  0  0  0  0  0  0  0
   -8.1807   10.1150  -13.8959 H   0  0  0  0  0  0  0  0  0  0  0  0
   -6.8858   12.2432  -14.0871 H   0  0  0  0  0  0  0  0  0  0  0  0
   -6.8835    9.4540  -11.9291 H   0  0  0  0  0  0  0  0  0  0  0  0
   -8.1050   10.5425   -7.5834 H   0  0  0  0  0  0  0  0  0  0  0  0
   -7.3952    8.8926   -7.5614 H   0  0  0  0  0  0  0  0  0  0  0  0
   -4.8924    8.7808   -8.4920 H   0  0  0  0  0  0  0  0  0  0  0  0
   -2.6611    9.7523   -8.0445 H   0  0  0  0  0  0  0  0  0  0  0  0
   -4.5133   13.2885   -6.4783 H   0  0  0  0  0  0  0  0  0  0  0  0
   -6.7415   12.3119   -6.9097 H   0  0  0  0  0  0  0  0  0  0  0  0
   -2.4535   14.2183   -6.1960 H   0  0  0  0  0  0  0  0  0  0  0  0
   -0.6442   10.5957   -7.5787 H   0  0  0  0  0  0  0  0  0  0  0  0
    1.4518   14.3348   -6.0355 H   0  0  0  0  0  0  0  0  0  0  0  0
    0.1929   15.4840   -6.6021 H   0  0  0  0  0  0  0  0  0  0  0  0
    0.1381   14.8479   -4.9231 H   0  0  0  0  0  0  0  0  0  0  0  0
   -3.3468   15.1789  -12.6576 H   0  0  0  0  0  0  0  0  0  0  0  0
   -3.9603   15.7589  -11.0720 H   0  0  0  0  0  0  0  0  0  0  0  0
   -2.2706   14.7595   -9.8791 H   0  0  0  0  0  0  0  0  0  0  0  0
   -1.8326   12.5779  -11.9435 H   0  0  0  0  0  0  0  0  0  0  0  0
   -1.6269   12.5226  -10.1599 H   0  0  0  0  0  0  0  0  0  0  0  0
   -4.0107   12.5154   -9.7621 H   0  0  0  0  0  0  0  0  0  0  0  0
   -3.9577   11.6228  -11.3200 H   0  0  0  0  0  0  0  0  0  0  0  0
   -0.2836   14.7209  -11.0208 H   0  0  0  0  0  0  0  0  0  0  0  0
  1  2  2  0  0  0  0
  1  4  1  0  0  0  0
  1 12  1  0  0  0  0
  2  6  1  0  0  0  0
  3  4  2  0  0  0  0
  3  5  1  0  0  0  0
  5  6  1  0  0  0  0
  5  9  1  0  0  0  0
  6  7  2  0  0  0  0
  7  8  1  0  0  0  0
  7 10  1  0  0  0  0
  8  9  2  0  0  0  0
 10 14  1  0  0  0  0
 11 12  1  0  0  0  0
 11 26  1  0  0  0  0
 11 29  1  0  0  0  0
 12 13  2  0  0  0  0
 14 15  2  0  0  0  0
 14 19  1  0  0  0  0
 15 16  1  0  0  0  0
 16 17  2  0  0  0  0
 17 18  1  0  0  0  0
 17 20  1  0  0  0  0
 18 19  2  0  0  0  0
 20 21  2  0  0  0  0
 20 24  1  0  0  0  0
 21 22  1  0  0  0  0
 22 23  1  0  0  0  0
 22 25  1  0  0  0  0
 23 24  2  0  0  0  0
 26 27  1  0  0  0  0
 27 28  1  0  0  0  0
 27 30  1  0  0  0  0
 28 29  1  0  0  0  0
  2 31  1  0  0  0  0
  3 32  1  0  0  0  0
  4 33  1  0  0  0  0
  5 34  1  0  0  0  0
 10 35  1  0  0  0  0
 10 36  1  0  0  0  0
 15 37  1  0  0  0  0
 16 38  1  0  0  0  0
 18 39  1  0  0  0  0
 19 40  1  0  0  0  0
 21 41  1  0  0  0  0
 24 42  1  0  0  0  0
 25 43  1  0  0  0  0
 25 44  1  0  0  0  0
 25 45  1  0  0  0  0
 26 46  1  0  0  0  0
 26 47  1  0  0  0  0
 27 48  1  0  0  0  0
 28 49  1  0  0  0  0
 28 50  1  0  0  0  0
 29 51  1  0  0  0  0
 29 52  1  0  0  0  0
 30 53  1  0  0  0  0
M  END
> <Name>
31

> <IC50[uM]>
0.002

$$$$
31
  -OEChem-05192314333D
 Structure written by MMmdl.
 53 57  0     1  0  0  0  0  0999 V2000
   -6.3709   12.3579  -12.0062 C   0  0  0  0  0  0  0  0  0  0  0  0
   -6.5187   11.8083  -10.7296 C   0  0  0  0  0  0  0  0  0  0  0  0
   -7.7194   10.5704  -13.0321 C   0  0  0  0  0  0  0  0  0  0  0  0
   -6.9838   11.7645  -13.1240 C   0  0  0  0  0  0  0  0  0  0  0  0
   -7.8186   10.0073  -11.7576 C   0  0  0  0  0  0  0  0  0  0  0  0
   -7.2434   10.6206  -10.5991 C   0  0  0  0  0  0  0  0  0  0  0  0
   -7.6160    9.7494   -9.5117 C   0  0  0  0  0  0  0  0  0  0  0  0
   -8.2808    8.7336   -9.9894 N   0  0  0  0  0  0  0  0  0  0  0  0
   -8.4141    8.8594  -11.3008 N   0  0  0  0  0  0  0  0  0  0  0  0
   -7.3385    9.8886   -8.0248 C   0  0  0  0  0  0  0  0  0  0  0  0
   -4.3631   13.7190  -11.4993 N   0  0  0  0  0  0  0  0  0  0  0  0
   -5.5500   13.6364  -12.1907 C   0  0  0  0  0  0  0  0  0  0  0  0
   -5.9462   14.5251  -12.9474 O   0  0  0  0  0  0  0  0  0  0  0  0
   -5.9607   10.4852   -7.7356 C   0  0  0  0  0  0  0  0  0  0  0  0
   -4.8097    9.7639   -8.0527 C   0  0  0  0  0  0  0  0  0  0  0  0
   -3.5522   10.3124   -7.8024 C   0  0  0  0  0  0  0  0  0  0  0  0
   -3.4444   11.5885   -7.2376 C   0  0  0  0  0  0  0  0  0  0  0  0
   -4.5952   12.3052   -6.9174 C   0  0  0  0  0  0  0  0  0  0  0  0
   -5.8509   11.7557   -7.1626 C   0  0  0  0  0  0  0  0  0  0  0  0
   -2.1000   12.1783   -6.9759 C   0  0  0  0  0  0  0  0  0  0  0  0
   -1.7654   13.4353   -6.4786 C   0  0  0  0  0  0  0  0  0  0  0  0
   -0.4305   13.4892   -6.4172 N   0  0  0  0  0  0  0  0  0  0  0  0
    0.1699   12.4025   -6.8093 N   0  0  0  0  0  0  0  0  0  0  0  0
   -0.8029   11.5856   -7.1770 C   0  0  0  0  0  0  0  0  0  0  0  0
    0.3883   14.6074   -5.9669 C   0  0  0  0  0  0  0  0  0  0  0  0
   -3.5134   14.9066  -11.6049 C   0  0  0  0  0  0  0  0  0  0  0  0
   -2.2037   14.4678  -10.9376 C   0  0  1  0  0  0  0  0  0  0  0  0
   -2.2231   12.9442  -10.9826 C   0  0  0  0  0  0  0  0  0  0  0  0
   -3.7200   12.5740  -10.8214 C   0  0  0  0  0  0  0  0  0  0  0  0
   -1.0475   15.0410  -11.4860 O   0  0  0  0  0  0  0  0  0  0  0  0
   -6.0839   12.2893   -9.8659 H   0  0  0  0  0  0  0  0  0  0  0  0
   -8.1807   10.1150  -13.8959 H   0  0  0  0  0  0  0  0  0  0  0  0
   -7.6733   12.5185  -13.5315 H   0  0  0  0  0  0  0  0  0  0  0  0
   -6.1791   11.5735  -13.8492 H   0  0  0  0  0  0  0  0  0  0  0  0
   -8.1050   10.5425   -7.5834 H   0  0  0  0  0  0  0  0  0  0  0  0
   -7.3952    8.8926   -7.5614 H   0  0  0  0  0  0  0  0  0  0  0  0
   -4.8924    8.7808   -8.4920 H   0  0  0  0  0  0  0  0  0  0  0  0
   -2.6611    9.7523   -8.0445 H   0  0  0  0  0  0  0  0  0  0  0  0
   -4.5133   13.2885   -6.4783 H   0  0  0  0  0  0  0  0  0  0  0  0
   -6.7415   12.3119   -6.9097 H   0  0  0  0  0  0  0  0  0  0  0  0
   -2.4535   14.2183   -6.1960 H   0  0  0  0  0  0  0  0  0  0  0  0
   -0.6442   10.5957   -7.5787 H   0  0  0  0  0  0  0  0  0  0  0  0
    1.4518   14.3348   -6.0355 H   0  0  0  0  0  0  0  0  0  0  0  0
    0.1929   15.4840   -6.6021 H   0  0  0  0  0  0  0  0  0  0  0  0
    0.1381   14.8479   -4.9231 H   0  0  0  0  0  0  0  0  0  0  0  0
   -3.3468   15.1789  -12.6576 H   0  0  0  0  0  0  0  0  0  0  0  0
   -3.9603   15.7589  -11.0720 H   0  0  0  0  0  0  0  0  0  0  0  0
   -2.2706   14.7595   -9.8791 H   0  0  0  0  0  0  0  0  0  0  0  0
   -1.8326   12.5779  -11.9435 H   0  0  0  0  0  0  0  0  0  0  0  0
   -1.6269   12.5226  -10.1599 H   0  0  0  0  0  0  0  0  0  0  0  0
   -4.0107   12.5154   -9.7621 H   0  0  0  0  0  0  0  0  0  0  0  0
   -3.9577   11.6228  -11.3200 H   0  0  0  0  0  0  0  0  0  0  0  0
   -0.2836   14.7209  -11.0208 H   0  0  0  0  0  0  0  0  0  0  0  0
  1  2  2  0  0  0  0
  1  4  1  0  0  0  0
  1 12  1  0  0  0  0
  2  6  1  0  0  0  0
  3  4  1  0  0  0  0
  3  5  2  0  0  0  0
  5  6  1  0  0  0  0
  5  9  1  0  0  0  0
  6  7  2  0  0  0  0
  7  8  1  0  0  0  0
  7 10  1  0  0  0  0
  8  9  2  0  0  0  0
 10 14  1  0  0  0  0
 11 12  1  0  0  0  0
 11 26  1  0  0  0  0
 11 29  1  0  0  0  0
 12 13  2  0  0  0  0
 14 15  2  0  0  0  0
 14 19  1  0  0  0  0
 15 16  1  0  0  0  0
 16 17  2  0  0  0  0
 17 18  1  0  0  0  0
 17 20  1  0  0  0  0
 18 19  2  0  0  0  0
 20 21  2  0  0  0  0
 20 24  1  0  0  0  0
 21 22  1  0  0  0  0
 22 23  1  0  0  0  0
 22 25  1  0  0  0  0
 23 24  2  0  0  0  0
 26 27  1  0  0  0  0
 27 28  1  0  0  0  0
 27 30  1  0  0  0  0
 28 29  1  0  0  0  0
  2 31  1  0  0  0  0
  3 32  1  0  0  0  0
  4 33  1  0  0  0  0
  4 34  1  0  0  0  0
 10 35  1  0  0  0  0
 10 36  1  0  0  0  0
 15 37  1  0  0  0  0
 16 38  1  0  0  0  0
 18 39  1  0  0  0  0
 19 40  1  0  0  0  0
 21 41  1  0  0  0  0
 24 42  1  0  0  0  0
 25 43  1  0  0  0  0
 25 44  1  0  0  0  0
 25 45  1  0  0  0  0
 26 46  1  0  0  0  0
 26 47  1  0  0  0  0
 27 48  1  0  0  0  0
 28 49  1  0  0  0  0
 28 50  1  0  0  0  0
 29 51  1  0  0  0  0
 29 52  1  0  0  0  0
 30 53  1  0  0  0  0
M  END
> <Name>
31

> <IC50[uM]>
0.002

$$$$
31
  -OEChem-05192314333D
 Structure written by MMmdl.
 53 57  0     1  0  0  0  0  0999 V2000
   -6.3709   12.3579  -12.0062 C   0  0  0  0  0  0  0  0  0  0  0  0
   -6.5187   11.8083  -10.7296 C   0  0  0  0  0  0  0  0  0  0  0  0
   -7.7194   10.5704  -13.0321 C   0  0  0  0  0  0  0  0  0  0  0  0
   -6.9838   11.7645  -13.1240 C   0  0  0  0  0  0  0  0  0  0  0  0
   -7.8186   10.0073  -11.7576 C   0  0  0  0  0  0  0  0  0  0  0  0
   -7.2434   10.6206  -10.5991 C   0  0  0  0  0  0  0  0  0  0  0  0
   -7.6160    9.7494   -9.5117 C   0  0  0  0  0  0  0  0  0  0  0  0
   -8.2808    8.7336   -9.9894 N   0  0  0  0  0  0  0  0  0  0  0  0
   -8.4141    8.8594  -11.3008 N   0  0  0  0  0  0  0  0  0  0  0  0
   -7.3385    9.8886   -8.0248 C   0  0  0  0  0  0  0  0  0  0  0  0
   -4.3631   13.7190  -11.4993 N   0  0  0  0  0  0  0  0  0  0  0  0
   -5.5500   13.6364  -12.1907 C   0  0  0  0  0  0  0  0  0  0  0  0
   -5.9462   14.5251  -12.9474 O   0  0  0  0  0  0  0  0  0  0  0  0
   -5.9607   10.4852   -7.7356 C   0  0  0  0  0  0  0  0  0  0  0  0
   -4.8097    9.7639   -8.0527 C   0  0  0  0  0  0  0  0  0  0  0  0
   -3.5522   10.3124   -7.8024 C   0  0  0  0  0  0  0  0  0  0  0  0
   -3.4444   11.5885   -7.2376 C   0  0  0  0  0  0  0  0  0  0  0  0
   -4.5952   12.3052   -6.9174 C   0  0  0  0  0  0  0  0  0  0  0  0
   -5.8509   11.7557   -7.1626 C   0  0  0  0  0  0  0  0  0  0  0  0
   -2.1000   12.1783   -6.9759 C   0  0  0  0  0  0  0  0  0  0  0  0
   -1.7654   13.4353   -6.4786 C   0  0  0  0  0  0  0  0  0  0  0  0
   -0.4305   13.4892   -6.4172 N   0  0  0  0  0  0  0  0  0  0  0  0
    0.1699   12.4025   -6.8093 N   0  0  0  0  0  0  0  0  0  0  0  0
   -0.8029   11.5856   -7.1770 C   0  0  0  0  0  0  0  0  0  0  0  0
    0.3883   14.6074   -5.9669 C   0  0  0  0  0  0  0  0  0  0  0  0
   -3.5134   14.9066  -11.6049 C   0  0  0  0  0  0  0  0  0  0  0  0
   -2.2037   14.4678  -10.9376 C   0  0  1  0  0  0  0  0  0  0  0  0
   -2.2231   12.9442  -10.9826 C   0  0  0  0  0  0  0  0  0  0  0  0
   -3.7200   12.5740  -10.8214 C   0  0  0  0  0  0  0  0  0  0  0  0
   -1.0475   15.0410  -11.4860 O   0  0  0  0  0  0  0  0  0  0  0  0
   -5.5085   11.6180  -10.3381 H   0  0  0  0  0  0  0  0  0  0  0  0
   -7.0175   12.5643  -10.1054 H   0  0  0  0  0  0  0  0  0  0  0  0
   -8.1807   10.1150  -13.8959 H   0  0  0  0  0  0  0  0  0  0  0  0
   -6.8858   12.2432  -14.0871 H   0  0  0  0  0  0  0  0  0  0  0  0
   -8.1050   10.5425   -7.5834 H   0  0  0  0  0  0  0  0  0  0  0  0
   -7.3952    8.8926   -7.5614 H   0  0  0  0  0  0  0  0  0  0  0  0
   -4.8924    8.7808   -8.4920 H   0  0  0  0  0  0  0  0  0  0  0  0
   -2.6611    9.7523   -8.0445 H   0  0  0  0  0  0  0  0  0  0  0  0
   -4.5133   13.2885   -6.4783 H   0  0  0  0  0  0  0  0  0  0  0  0
   -6.7415   12.3119   -6.9097 H   0  0  0  0  0  0  0  0  0  0  0  0
   -2.4535   14.2183   -6.1960 H   0  0  0  0  0  0  0  0  0  0  0  0
   -0.6442   10.5957   -7.5787 H   0  0  0  0  0  0  0  0  0  0  0  0
    1.4518   14.3348   -6.0355 H   0  0  0  0  0  0  0  0  0  0  0  0
    0.1929   15.4840   -6.6021 H   0  0  0  0  0  0  0  0  0  0  0  0
    0.1381   14.8479   -4.9231 H   0  0  0  0  0  0  0  0  0  0  0  0
   -3.3468   15.1789  -12.6576 H   0  0  0  0  0  0  0  0  0  0  0  0
   -3.9603   15.7589  -11.0720 H   0  0  0  0  0  0  0  0  0  0  0  0
   -2.2706   14.7595   -9.8791 H   0  0  0  0  0  0  0  0  0  0  0  0
   -1.8326   12.5779  -11.9435 H   0  0  0  0  0  0  0  0  0  0  0  0
   -1.6269   12.5226  -10.1599 H   0  0  0  0  0  0  0  0  0  0  0  0
   -4.0107   12.5154   -9.7621 H   0  0  0  0  0  0  0  0  0  0  0  0
   -3.9577   11.6228  -11.3200 H   0  0  0  0  0  0  0  0  0  0  0  0
   -0.2836   14.7209  -11.0208 H   0  0  0  0  0  0  0  0  0  0  0  0
  1  2  1  0  0  0  0
  1  4  2  0  0  0  0
  1 12  1  0  0  0  0
  2  6  1  0  0  0  0
  3  4  1  0  0  0  0
  3  5  2  0  0  0  0
  5  6  1  0  0  0  0
  5  9  1  0  0  0  0
  6  7  2  0  0  0  0
  7  8  1  0  0  0  0
  7 10  1  0  0  0  0
  8  9  2  0  0  0  0
 10 14  1  0  0  0  0
 11 12  1  0  0  0  0
 11 26  1  0  0  0  0
 11 29  1  0  0  0  0
 12 13  2  0  0  0  0
 14 15  2  0  0  0  0
 14 19  1  0  0  0  0
 15 16  1  0  0  0  0
 16 17  2  0  0  0  0
 17 18  1  0  0  0  0
 17 20  1  0  0  0  0
 18 19  2  0  0  0  0
 20 21  2  0  0  0  0
 20 24  1  0  0  0  0
 21 22  1  0  0  0  0
 22 23  1  0  0  0  0
 22 25  1  0  0  0  0
 23 24  2  0  0  0  0
 26 27  1  0  0  0  0
 27 28  1  0  0  0  0
 27 30  1  0  0  0  0
 28 29  1  0  0  0  0
  2 31  1  0  0  0  0
  2 32  1  0  0  0  0
  3 33  1  0  0  0  0
  4 34  1  0  0  0  0
 10 35  1  0  0  0  0
 10 36  1  0  0  0  0
 15 37  1  0  0  0  0
 16 38  1  0  0  0  0
 18 39  1  0  0  0  0
 19 40  1  0  0  0  0
 21 41  1  0  0  0  0
 24 42  1  0  0  0  0
 25 43  1  0  0  0  0
 25 44  1  0  0  0  0
 25 45  1  0  0  0  0
 26 46  1  0  0  0  0
 26 47  1  0  0  0  0
 27 48  1  0  0  0  0
 28 49  1  0  0  0  0
 28 50  1  0  0  0  0
 29 51  1  0  0  0  0
 29 52  1  0  0  0  0
 30 53  1  0  0  0  0
M  END
> <Name>
31

> <IC50[uM]>
0.002

$$$$
31
  -OEChem-05192314333D
 Structure written by MMmdl.
 53 57  0     1  0  0  0  0  0999 V2000
   -6.3709   12.3579  -12.0062 C   0  0  0  0  0  0  0  0  0  0  0  0
   -6.5187   11.8083  -10.7296 C   0  0  0  0  0  0  0  0  0  0  0  0
   -7.7194   10.5704  -13.0321 C   0  0  0  0  0  0  0  0  0  0  0  0
   -6.9838   11.7645  -13.1240 C   0  0  0  0  0  0  0  0  0  0  0  0
   -7.8186   10.0073  -11.7576 C   0  0  0  0  0  0  0  0  0  0  0  0
   -7.2434   10.6206  -10.5991 C   0  0  0  0  0  0  0  0  0  0  0  0
   -7.6160    9.7494   -9.5117 C   0  0  0  0  0  0  0  0  0  0  0  0
   -8.2808    8.7336   -9.9894 N   0  0  0  0  0  0  0  0  0  0  0  0
   -8.4141    8.8594  -11.3008 N   0  0  0  0  0  0  0  0  0  0  0  0
   -7.3385    9.8886   -8.0248 C   0  0  0  0  0  0  0  0  0  0  0  0
   -4.3631   13.7190  -11.4993 N   0  0  0  0  0  0  0  0  0  0  0  0
   -5.5500   13.6364  -12.1907 C   0  0  0  0  0  0  0  0  0  0  0  0
   -5.9462   14.5251  -12.9474 O   0  0  0  0  0  0  0  0  0  0  0  0
   -5.9607   10.4852   -7.7356 C   0  0  0  0  0  0  0  0  0  0  0  0
   -4.8097    9.7639   -8.0527 C   0  0  0  0  0  0  0  0  0  0  0  0
   -3.5522   10.3124   -7.8024 C   0  0  0  0  0  0  0  0  0  0  0  0
   -3.4444   11.5885   -7.2376 C   0  0  0  0  0  0  0  0  0  0  0  0
   -4.5952   12.3052   -6.9174 C   0  0  0  0  0  0  0  0  0  0  0  0
   -5.8509   11.7557   -7.1626 C   0  0  0  0  0  0  0  0  0  0  0  0
   -2.1000   12.1783   -6.9759 C   0  0  0  0  0  0  0  0  0  0  0  0
   -1.7654   13.4353   -6.4786 C   0  0  0  0  0  0  0  0  0  0  0  0
   -0.4305   13.4892   -6.4172 N   0  0  0  0  0  0  0  0  0  0  0  0
    0.1699   12.4025   -6.8093 N   0  0  0  0  0  0  0  0  0  0  0  0
   -0.8029   11.5856   -7.1770 C   0  0  0  0  0  0  0  0  0  0  0  0
    0.3883   14.6074   -5.9669 C   0  0  0  0  0  0  0  0  0  0  0  0
   -3.5134   14.9066  -11.6049 C   0  0  0  0  0  0  0  0  0  0  0  0
   -2.2037   14.4678  -10.9376 C   0  0  1  0  0  0  0  0  0  0  0  0
   -2.2231   12.9442  -10.9826 C   0  0  0  0  0  0  0  0  0  0  0  0
   -3.7200   12.5740  -10.8214 C   0  0  0  0  0  0  0  0  0  0  0  0
   -1.0475   15.0410  -11.4860 O   0  0  0  0  0  0  0  0  0  0  0  0
   -6.0839   12.2893   -9.8659 H   0  0  0  0  0  0  0  0  0  0  0  0
   -8.1807   10.1150  -13.8959 H   0  0  0  0  0  0  0  0  0  0  0  0
   -6.8858   12.2432  -14.0871 H   0  0  0  0  0  0  0  0  0  0  0  0
   -6.3210   10.0404  -10.7489 H   0  0  0  0  0  0  0  0  0  0  0  0
   -8.6367    7.9732   -9.4461 H   0  0  0  0  0  0  0  0  0  0  0  0
   -8.0384    9.5978   -7.2554 H   0  0  0  0  0  0  0  0  0  0  0  0
   -4.8924    8.7808   -8.4920 H   0  0  0  0  0  0  0  0  0  0  0  0
   -2.6611    9.7523   -8.0445 H   0  0  0  0  0  0  0  0  0  0  0  0
   -4.5133   13.2885   -6.4783 H   0  0  0  0  0  0  0  0  0  0  0  0
   -6.7415   12.3119   -6.9097 H   0  0  0  0  0  0  0  0  0  0  0  0
   -2.4535   14.2183   -6.1960 H   0  0  0  0  0  0  0  0  0  0  0  0
   -0.6442   10.5957   -7.5787 H   0  0  0  0  0  0  0  0  0  0  0  0
    1.4518   14.3348   -6.0355 H   0  0  0  0  0  0  0  0  0  0  0  0
    0.1929   15.4840   -6.6021 H   0  0  0  0  0  0  0  0  0  0  0  0
    0.1381   14.8479   -4.9231 H   0  0  0  0  0  0  0  0  0  0  0  0
   -3.3468   15.1789  -12.6576 H   0  0  0  0  0  0  0  0  0  0  0  0
   -3.9603   15.7589  -11.0720 H   0  0  0  0  0  0  0  0  0  0  0  0
   -2.2706   14.7595   -9.8791 H   0  0  0  0  0  0  0  0  0  0  0  0
   -1.8326   12.5779  -11.9435 H   0  0  0  0  0  0  0  0  0  0  0  0
   -1.6269   12.5226  -10.1599 H   0  0  0  0  0  0  0  0  0  0  0  0
   -4.0107   12.5154   -9.7621 H   0  0  0  0  0  0  0  0  0  0  0  0
   -3.9577   11.6228  -11.3200 H   0  0  0  0  0  0  0  0  0  0  0  0
   -0.2836   14.7209  -11.0208 H   0  0  0  0  0  0  0  0  0  0  0  0
  1  2  2  0  0  0  0
  1  4  1  0  0  0  0
  1 12  1  0  0  0  0
  2  6  1  0  0  0  0
  3  4  2  0  0  0  0
  3  5  1  0  0  0  0
  5  6  1  0  0  0  0
  5  9  2  0  0  0  0
  6  7  1  0  0  0  0
  7  8  1  0  0  0  0
  7 10  2  0  0  0  0
  8  9  1  0  0  0  0
 10 14  1  0  0  0  0
 11 12  1  0  0  0  0
 11 26  1  0  0  0  0
 11 29  1  0  0  0  0
 12 13  2  0  0  0  0
 14 15  2  0  0  0  0
 14 19  1  0  0  0  0
 15 16  1  0  0  0  0
 16 17  2  0  0  0  0
 17 18  1  0  0  0  0
 17 20  1  0  0  0  0
 18 19  2  0  0  0  0
 20 21  2  0  0  0  0
 20 24  1  0  0  0  0
 21 22  1  0  0  0  0
 22 23  1  0  0  0  0
 22 25  1  0  0  0  0
 23 24  2  0  0  0  0
 26 27  1  0  0  0  0
 27 28  1  0  0  0  0
 27 30  1  0  0  0  0
 28 29  1  0  0  0  0
  2 31  1  0  0  0  0
  3 32  1  0  0  0  0
  4 33  1  0  0  0  0
  6 34  1  0  0  0  0
  8 35  1  0  0  0  0
 10 36  1  0  0  0  0
 15 37  1  0  0  0  0
 16 38  1  0  0  0  0
 18 39  1  0  0  0  0
 19 40  1  0  0  0  0
 21 41  1  0  0  0  0
 24 42  1  0  0  0  0
 25 43  1  0  0  0  0
 25 44  1  0  0  0  0
 25 45  1  0  0  0  0
 26 46  1  0  0  0  0
 26 47  1  0  0  0  0
 27 48  1  0  0  0  0
 28 49  1  0  0  0  0
 28 50  1  0  0  0  0
 29 51  1  0  0  0  0
 29 52  1  0  0  0  0
 30 53  1  0  0  0  0
M  END
> <Name>
31

> <IC50[uM]>
0.002

$$$$
31
  -OEChem-05192314333D
 Structure written by MMmdl.
 53 57  0     1  0  0  0  0  0999 V2000
   -6.3709   12.3579  -12.0062 C   0  0  0  0  0  0  0  0  0  0  0  0
   -6.5187   11.8083  -10.7296 C   0  0  0  0  0  0  0  0  0  0  0  0
   -7.7194   10.5704  -13.0321 C   0  0  0  0  0  0  0  0  0  0  0  0
   -6.9838   11.7645  -13.1240 C   0  0  0  0  0  0  0  0  0  0  0  0
   -7.8186   10.0073  -11.7576 C   0  0  0  0  0  0  0  0  0  0  0  0
   -7.2434   10.6206  -10.5991 C   0  0  0  0  0  0  0  0  0  0  0  0
   -7.6160    9.7494   -9.5117 C   0  0  0  0  0  0  0  0  0  0  0  0
   -8.2808    8.7336   -9.9894 N   0  0  0  0  0  0  0  0  0  0  0  0
   -8.4141    8.8594  -11.3008 N   0  0  0  0  0  0  0  0  0  0  0  0
   -7.3385    9.8886   -8.0248 C   0  0  0  0  0  0  0  0  0  0  0  0
   -4.3631   13.7190  -11.4993 N   0  0  0  0  0  0  0  0  0  0  0  0
   -5.5500   13.6364  -12.1907 C   0  0  0  0  0  0  0  0  0  0  0  0
   -5.9462   14.5251  -12.9474 O   0  0  0  0  0  0  0  0  0  0  0  0
   -5.9607   10.4852   -7.7356 C   0  0  0  0  0  0  0  0  0  0  0  0
   -4.8097    9.7639   -8.0527 C   0  0  0  0  0  0  0  0  0  0  0  0
   -3.5522   10.3124   -7.8024 C   0  0  0  0  0  0  0  0  0  0  0  0
   -3.4444   11.5885   -7.2376 C   0  0  0  0  0  0  0  0  0  0  0  0
   -4.5952   12.3052   -6.9174 C   0  0  0  0  0  0  0  0  0  0  0  0
   -5.8509   11.7557   -7.1626 C   0  0  0  0  0  0  0  0  0  0  0  0
   -2.1000   12.1783   -6.9759 C   0  0  0  0  0  0  0  0  0  0  0  0
   -1.7654   13.4353   -6.4786 C   0  0  0  0  0  0  0  0  0  0  0  0
   -0.4305   13.4892   -6.4172 N   0  0  0  0  0  0  0  0  0  0  0  0
    0.1699   12.4025   -6.8093 N   0  0  0  0  0  0  0  0  0  0  0  0
   -0.8029   11.5856   -7.1770 C   0  0  0  0  0  0  0  0  0  0  0  0
    0.3883   14.6074   -5.9669 C   0  0  0  0  0  0  0  0  0  0  0  0
   -3.5134   14.9066  -11.6049 C   0  0  0  0  0  0  0  0  0  0  0  0
   -2.2037   14.4678  -10.9376 C   0  0  1  0  0  0  0  0  0  0  0  0
   -2.2231   12.9442  -10.9826 C   0  0  0  0  0  0  0  0  0  0  0  0
   -3.7200   12.5740  -10.8214 C   0  0  0  0  0  0  0  0  0  0  0  0
   -1.0475   15.0410  -11.4860 O   0  0  0  0  0  0  0  0  0  0  0  0
   -6.0839   12.2893   -9.8659 H   0  0  0  0  0  0  0  0  0  0  0  0
   -8.1807   10.1150  -13.8959 H   0  0  0  0  0  0  0  0  0  0  0  0
   -6.8858   12.2432  -14.0871 H   0  0  0  0  0  0  0  0  0  0  0  0
   -8.0384    9.5978   -7.2554 H   0  0  0  0  0  0  0  0  0  0  0  0
   -5.9720   10.0315   -6.7336 H   0  0  0  0  0  0  0  0  0  0  0  0
   -4.8924    8.7808   -8.4920 H   0  0  0  0  0  0  0  0  0  0  0  0
   -2.6611    9.7523   -8.0445 H   0  0  0  0  0  0  0  0  0  0  0  0
   -4.5133   13.2885   -6.4783 H   0  0  0  0  0  0  0  0  0  0  0  0
   -6.7415   12.3119   -6.9097 H   0  0  0  0  0  0  0  0  0  0  0  0
   -2.1446   14.2201   -7.1496 H   0  0  0  0  0  0  0  0  0  0  0  0
   -2.1954   13.5713   -5.4753 H   0  0  0  0  0  0  0  0  0  0  0  0
   -0.6442   10.5957   -7.5787 H   0  0  0  0  0  0  0  0  0  0  0  0
    1.4518   14.3348   -6.0355 H   0  0  0  0  0  0  0  0  0  0  0  0
    0.1929   15.4840   -6.6021 H   0  0  0  0  0  0  0  0  0  0  0  0
    0.1381   14.8479   -4.9231 H   0  0  0  0  0  0  0  0  0  0  0  0
   -3.3468   15.1789  -12.6576 H   0  0  0  0  0  0  0  0  0  0  0  0
   -3.9603   15.7589  -11.0720 H   0  0  0  0  0  0  0  0  0  0  0  0
   -2.2706   14.7595   -9.8791 H   0  0  0  0  0  0  0  0  0  0  0  0
   -1.8326   12.5779  -11.9435 H   0  0  0  0  0  0  0  0  0  0  0  0
   -1.6269   12.5226  -10.1599 H   0  0  0  0  0  0  0  0  0  0  0  0
   -4.0107   12.5154   -9.7621 H   0  0  0  0  0  0  0  0  0  0  0  0
   -3.9577   11.6228  -11.3200 H   0  0  0  0  0  0  0  0  0  0  0  0
   -0.2836   14.7209  -11.0208 H   0  0  0  0  0  0  0  0  0  0  0  0
  1  2  2  0  0  0  0
  1  4  1  0  0  0  0
  1 12  1  0  0  0  0
  2  6  1  0  0  0  0
  3  4  2  0  0  0  0
  3  5  1  0  0  0  0
  5  6  2  0  0  0  0
  5  9  1  0  0  0  0
  6  7  1  0  0  0  0
  7  8  1  0  0  0  0
  7 10  2  0  0  0  0
  8  9  2  0  0  0  0
 10 14  1  0  0  0  0
 11 12  1  0  0  0  0
 11 26  1  0  0  0  0
 11 29  1  0  0  0  0
 12 13  2  0  0  0  0
 14 15  1  0  0  0  0
 14 19  1  0  0  0  0
 15 16  2  0  0  0  0
 16 17  1  0  0  0  0
 17 18  1  0  0  0  0
 17 20  2  0  0  0  0
 18 19  2  0  0  0  0
 20 21  1  0  0  0  0
 20 24  1  0  0  0  0
 21 22  1  0  0  0  0
 22 23  1  0  0  0  0
 22 25  1  0  0  0  0
 23 24  2  0  0  0  0
 26 27  1  0  0  0  0
 27 28  1  0  0  0  0
 27 30  1  0  0  0  0
 28 29  1  0  0  0  0
  2 31  1  0  0  0  0
  3 32  1  0  0  0  0
  4 33  1  0  0  0  0
 10 34  1  0  0  0  0
 14 35  1  0  0  0  0
 15 36  1  0  0  0  0
 16 37  1  0  0  0  0
 18 38  1  0  0  0  0
 19 39  1  0  0  0  0
 21 40  1  0  0  0  0
 21 41  1  0  0  0  0
 24 42  1  0  0  0  0
 25 43  1  0  0  0  0
 25 44  1  0  0  0  0
 25 45  1  0  0  0  0
 26 46  1  0  0  0  0
 26 47  1  0  0  0  0
 27 48  1  0  0  0  0
 28 49  1  0  0  0  0
 28 50  1  0  0  0  0
 29 51  1  0  0  0  0
 29 52  1  0  0  0  0
 30 53  1  0  0  0  0
M  END
> <Name>
31

> <IC50[uM]>
0.002

$$$$
31
  -OEChem-05192314333D
 Structure written by MMmdl.
 53 57  0     1  0  0  0  0  0999 V2000
   -6.3709   12.3579  -12.0062 C   0  0  0  0  0  0  0  0  0  0  0  0
   -6.5187   11.8083  -10.7296 C   0  0  0  0  0  0  0  0  0  0  0  0
   -7.7194   10.5704  -13.0321 C   0  0  0  0  0  0  0  0  0  0  0  0
   -6.9838   11.7645  -13.1240 C   0  0  0  0  0  0  0  0  0  0  0  0
   -7.8186   10.0073  -11.7576 C   0  0  0  0  0  0  0  0  0  0  0  0
   -7.2434   10.6206  -10.5991 C   0  0  0  0  0  0  0  0  0  0  0  0
   -7.6160    9.7494   -9.5117 C   0  0  0  0  0  0  0  0  0  0  0  0
   -8.2808    8.7336   -9.9894 N   0  0  0  0  0  0  0  0  0  0  0  0
   -8.4141    8.8594  -11.3008 N   0  0  0  0  0  0  0  0  0  0  0  0
   -7.3385    9.8886   -8.0248 C   0  0  0  0  0  0  0  0  0  0  0  0
   -4.3631   13.7190  -11.4993 N   0  0  0  0  0  0  0  0  0  0  0  0
   -5.5500   13.6364  -12.1907 C   0  0  0  0  0  0  0  0  0  0  0  0
   -5.9462   14.5251  -12.9474 O   0  0  0  0  0  0  0  0  0  0  0  0
   -5.9607   10.4852   -7.7356 C   0  0  0  0  0  0  0  0  0  0  0  0
   -4.8097    9.7639   -8.0527 C   0  0  0  0  0  0  0  0  0  0  0  0
   -3.5522   10.3124   -7.8024 C   0  0  0  0  0  0  0  0  0  0  0  0
   -3.4444   11.5885   -7.2376 C   0  0  0  0  0  0  0  0  0  0  0  0
   -4.5952   12.3052   -6.9174 C   0  0  0  0  0  0  0  0  0  0  0  0
   -5.8509   11.7557   -7.1626 C   0  0  0  0  0  0  0  0  0  0  0  0
   -2.1000   12.1783   -6.9759 C   0  0  0  0  0  0  0  0  0  0  0  0
   -1.7654   13.4353   -6.4786 C   0  0  0  0  0  0  0  0  0  0  0  0
   -0.4305   13.4892   -6.4172 N   0  0  0  0  0  0  0  0  0  0  0  0
    0.1699   12.4025   -6.8093 N   0  0  0  0  0  0  0  0  0  0  0  0
   -0.8029   11.5856   -7.1770 C   0  0  0  0  0  0  0  0  0  0  0  0
    0.3883   14.6074   -5.9669 C   0  0  0  0  0  0  0  0  0  0  0  0
   -3.5134   14.9066  -11.6049 C   0  0  0  0  0  0  0  0  0  0  0  0
   -2.2037   14.4678  -10.9376 C   0  0  1  0  0  0  0  0  0  0  0  0
   -2.2231   12.9442  -10.9826 C   0  0  0  0  0  0  0  0  0  0  0  0
   -3.7200   12.5740  -10.8214 C   0  0  0  0  0  0  0  0  0  0  0  0
   -1.0475   15.0410  -11.4860 O   0  0  0  0  0  0  0  0  0  0  0  0
   -6.0839   12.2893   -9.8659 H   0  0  0  0  0  0  0  0  0  0  0  0
   -8.1807   10.1150  -13.8959 H   0  0  0  0  0  0  0  0  0  0  0  0
   -6.8858   12.2432  -14.0871 H   0  0  0  0  0  0  0  0  0  0  0  0
   -8.0384    9.5978   -7.2554 H   0  0  0  0  0  0  0  0  0  0  0  0
   -4.8924    8.7808   -8.4920 H   0  0  0  0  0  0  0  0  0  0  0  0
   -3.0333    9.6199   -7.1233 H   0  0  0  0  0  0  0  0  0  0  0  0
   -3.0231   10.3462   -8.7662 H   0  0  0  0  0  0  0  0  0  0  0  0
   -4.5133   13.2885   -6.4783 H   0  0  0  0  0  0  0  0  0  0  0  0
   -6.7415   12.3119   -6.9097 H   0  0  0  0  0  0  0  0  0  0  0  0
   -2.1446   14.2201   -7.1496 H   0  0  0  0  0  0  0  0  0  0  0  0
   -2.1954   13.5713   -5.4753 H   0  0  0  0  0  0  0  0  0  0  0  0
   -0.6442   10.5957   -7.5787 H   0  0  0  0  0  0  0  0  0  0  0  0
    1.4518   14.3348   -6.0355 H   0  0  0  0  0  0  0  0  0  0  0  0
    0.1929   15.4840   -6.6021 H   0  0  0  0  0  0  0  0  0  0  0  0
    0.1381   14.8479   -4.9231 H   0  0  0  0  0  0  0  0  0  0  0  0
   -3.3468   15.1789  -12.6576 H   0  0  0  0  0  0  0  0  0  0  0  0
   -3.9603   15.7589  -11.0720 H   0  0  0  0  0  0  0  0  0  0  0  0
   -2.2706   14.7595   -9.8791 H   0  0  0  0  0  0  0  0  0  0  0  0
   -1.8326   12.5779  -11.9435 H   0  0  0  0  0  0  0  0  0  0  0  0
   -1.6269   12.5226  -10.1599 H   0  0  0  0  0  0  0  0  0  0  0  0
   -4.0107   12.5154   -9.7621 H   0  0  0  0  0  0  0  0  0  0  0  0
   -3.9577   11.6228  -11.3200 H   0  0  0  0  0  0  0  0  0  0  0  0
   -0.2836   14.7209  -11.0208 H   0  0  0  0  0  0  0  0  0  0  0  0
  1  2  2  0  0  0  0
  1  4  1  0  0  0  0
  1 12  1  0  0  0  0
  2  6  1  0  0  0  0
  3  4  2  0  0  0  0
  3  5  1  0  0  0  0
  5  6  2  0  0  0  0
  5  9  1  0  0  0  0
  6  7  1  0  0  0  0
  7  8  1  0  0  0  0
  7 10  2  0  0  0  0
  8  9  2  0  0  0  0
 10 14  1  0  0  0  0
 11 12  1  0  0  0  0
 11 26  1  0  0  0  0
 11 29  1  0  0  0  0
 12 13  2  0  0  0  0
 14 15  2  0  0  0  0
 14 19  1  0  0  0  0
 15 16  1  0  0  0  0
 16 17  1  0  0  0  0
 17 18  1  0  0  0  0
 17 20  2  0  0  0  0
 18 19  2  0  0  0  0
 20 21  1  0  0  0  0
 20 24  1  0  0  0  0
 21 22  1  0  0  0  0
 22 23  1  0  0  0  0
 22 25  1  0  0  0  0
 23 24  2  0  0  0  0
 26 27  1  0  0  0  0
 27 28  1  0  0  0  0
 27 30  1  0  0  0  0
 28 29  1  0  0  0  0
  2 31  1  0  0  0  0
  3 32  1  0  0  0  0
  4 33  1  0  0  0  0
 10 34  1  0  0  0  0
 15 35  1  0  0  0  0
 16 36  1  0  0  0  0
 16 37  1  0  0  0  0
 18 38  1  0  0  0  0
 19 39  1  0  0  0  0
 21 40  1  0  0  0  0
 21 41  1  0  0  0  0
 24 42  1  0  0  0  0
 25 43  1  0  0  0  0
 25 44  1  0  0  0  0
 25 45  1  0  0  0  0
 26 46  1  0  0  0  0
 26 47  1  0  0  0  0
 27 48  1  0  0  0  0
 28 49  1  0  0  0  0
 28 50  1  0  0  0  0
 29 51  1  0  0  0  0
 29 52  1  0  0  0  0
 30 53  1  0  0  0  0
M  END
> <Name>
31

> <IC50[uM]>
0.002

$$$$
31
  -OEChem-05192314333D
 Structure written by MMmdl.
 53 57  0     1  0  0  0  0  0999 V2000
   -6.3709   12.3579  -12.0062 C   0  0  0  0  0  0  0  0  0  0  0  0
   -6.5187   11.8083  -10.7296 C   0  0  0  0  0  0  0  0  0  0  0  0
   -7.7194   10.5704  -13.0321 C   0  0  0  0  0  0  0  0  0  0  0  0
   -6.9838   11.7645  -13.1240 C   0  0  0  0  0  0  0  0  0  0  0  0
   -7.8186   10.0073  -11.7576 C   0  0  0  0  0  0  0  0  0  0  0  0
   -7.2434   10.6206  -10.5991 C   0  0  0  0  0  0  0  0  0  0  0  0
   -7.6160    9.7494   -9.5117 C   0  0  0  0  0  0  0  0  0  0  0  0
   -8.2808    8.7336   -9.9894 N   0  0  0  0  0  0  0  0  0  0  0  0
   -8.4141    8.8594  -11.3008 N   0  0  0  0  0  0  0  0  0  0  0  0
   -7.3385    9.8886   -8.0248 C   0  0  0  0  0  0  0  0  0  0  0  0
   -4.3631   13.7190  -11.4993 N   0  0  0  0  0  0  0  0  0  0  0  0
   -5.5500   13.6364  -12.1907 C   0  0  0  0  0  0  0  0  0  0  0  0
   -5.9462   14.5251  -12.9474 O   0  0  0  0  0  0  0  0  0  0  0  0
   -5.9607   10.4852   -7.7356 C   0  0  0  0  0  0  0  0  0  0  0  0
   -4.8097    9.7639   -8.0527 C   0  0  0  0  0  0  0  0  0  0  0  0
   -3.5522   10.3124   -7.8024 C   0  0  0  0  0  0  0  0  0  0  0  0
   -3.4444   11.5885   -7.2376 C   0  0  0  0  0  0  0  0  0  0  0  0
   -4.5952   12.3052   -6.9174 C   0  0  0  0  0  0  0  0  0  0  0  0
   -5.8509   11.7557   -7.1626 C   0  0  0  0  0  0  0  0  0  0  0  0
   -2.1000   12.1783   -6.9759 C   0  0  0  0  0  0  0  0  0  0  0  0
   -1.7654   13.4353   -6.4786 C   0  0  0  0  0  0  0  0  0  0  0  0
   -0.4305   13.4892   -6.4172 N   0  0  0  0  0  0  0  0  0  0  0  0
    0.1699   12.4025   -6.8093 N   0  0  0  0  0  0  0  0  0  0  0  0
   -0.8029   11.5856   -7.1770 C   0  0  0  0  0  0  0  0  0  0  0  0
    0.3883   14.6074   -5.9669 C   0  0  0  0  0  0  0  0  0  0  0  0
   -3.5134   14.9066  -11.6049 C   0  0  0  0  0  0  0  0  0  0  0  0
   -2.2037   14.4678  -10.9376 C   0  0  1  0  0  0  0  0  0  0  0  0
   -2.2231   12.9442  -10.9826 C   0  0  0  0  0  0  0  0  0  0  0  0
   -3.7200   12.5740  -10.8214 C   0  0  0  0  0  0  0  0  0  0  0  0
   -1.0475   15.0410  -11.4860 O   0  0  0  0  0  0  0  0  0  0  0  0
   -5.4695   11.7492  -12.1702 H   0  0  0  0  0  0  0  0  0  0  0  0
   -6.0839   12.2893   -9.8659 H   0  0  0  0  0  0  0  0  0  0  0  0
   -8.1807   10.1150  -13.8959 H   0  0  0  0  0  0  0  0  0  0  0  0
   -6.8858   12.2432  -14.0871 H   0  0  0  0  0  0  0  0  0  0  0  0
   -8.0384    9.5978   -7.2554 H   0  0  0  0  0  0  0  0  0  0  0  0
   -4.8924    8.7808   -8.4920 H   0  0  0  0  0  0  0  0  0  0  0  0
   -2.6611    9.7523   -8.0445 H   0  0  0  0  0  0  0  0  0  0  0  0
   -4.5133   13.2885   -6.4783 H   0  0  0  0  0  0  0  0  0  0  0  0
   -6.7415   12.3119   -6.9097 H   0  0  0  0  0  0  0  0  0  0  0  0
   -2.1446   14.2201   -7.1496 H   0  0  0  0  0  0  0  0  0  0  0  0
   -2.1954   13.5713   -5.4753 H   0  0  0  0  0  0  0  0  0  0  0  0
   -0.6442   10.5957   -7.5787 H   0  0  0  0  0  0  0  0  0  0  0  0
    1.4518   14.3348   -6.0355 H   0  0  0  0  0  0  0  0  0  0  0  0
    0.1929   15.4840   -6.6021 H   0  0  0  0  0  0  0  0  0  0  0  0
    0.1381   14.8479   -4.9231 H   0  0  0  0  0  0  0  0  0  0  0  0
   -3.3468   15.1789  -12.6576 H   0  0  0  0  0  0  0  0  0  0  0  0
   -3.9603   15.7589  -11.0720 H   0  0  0  0  0  0  0  0  0  0  0  0
   -2.2706   14.7595   -9.8791 H   0  0  0  0  0  0  0  0  0  0  0  0
   -1.8326   12.5779  -11.9435 H   0  0  0  0  0  0  0  0  0  0  0  0
   -1.6269   12.5226  -10.1599 H   0  0  0  0  0  0  0  0  0  0  0  0
   -4.0107   12.5154   -9.7621 H   0  0  0  0  0  0  0  0  0  0  0  0
   -3.9577   11.6228  -11.3200 H   0  0  0  0  0  0  0  0  0  0  0  0
   -0.2836   14.7209  -11.0208 H   0  0  0  0  0  0  0  0  0  0  0  0
  1  2  1  0  0  0  0
  1  4  1  0  0  0  0
  1 12  1  0  0  0  0
  2  6  2  0  0  0  0
  3  4  2  0  0  0  0
  3  5  1  0  0  0  0
  5  6  1  0  0  0  0
  5  9  2  0  0  0  0
  6  7  1  0  0  0  0
  7  8  2  0  0  0  0
  7 10  1  0  0  0  0
  8  9  1  0  0  0  0
 10 14  2  0  0  0  0
 11 12  1  0  0  0  0
 11 26  1  0  0  0  0
 11 29  1  0  0  0  0
 12 13  2  0  0  0  0
 14 15  1  0  0  0  0
 14 19  1  0  0  0  0
 15 16  2  0  0  0  0
 16 17  1  0  0  0  0
 17 18  1  0  0  0  0
 17 20  2  0  0  0  0
 18 19  2  0  0  0  0
 20 21  1  0  0  0  0
 20 24  1  0  0  0  0
 21 22  1  0  0  0  0
 22 23  1  0  0  0  0
 22 25  1  0  0  0  0
 23 24  2  0  0  0  0
 26 27  1  0  0  0  0
 27 28  1  0  0  0  0
 27 30  1  0  0  0  0
 28 29  1  0  0  0  0
  1 31  1  0  0  0  0
  2 32  1  0  0  0  0
  3 33  1  0  0  0  0
  4 34  1  0  0  0  0
 10 35  1  0  0  0  0
 15 36  1  0  0  0  0
 16 37  1  0  0  0  0
 18 38  1  0  0  0  0
 19 39  1  0  0  0  0
 21 40  1  0  0  0  0
 21 41  1  0  0  0  0
 24 42  1  0  0  0  0
 25 43  1  0  0  0  0
 25 44  1  0  0  0  0
 25 45  1  0  0  0  0
 26 46  1  0  0  0  0
 26 47  1  0  0  0  0
 27 48  1  0  0  0  0
 28 49  1  0  0  0  0
 28 50  1  0  0  0  0
 29 51  1  0  0  0  0
 29 52  1  0  0  0  0
 30 53  1  0  0  0  0
M  END
> <Name>
31

> <IC50[uM]>
0.002

$$$$
31
  -OEChem-05192314333D
 Structure written by MMmdl.
 53 57  0     1  0  0  0  0  0999 V2000
   -6.3709   12.3579  -12.0062 C   0  0  0  0  0  0  0  0  0  0  0  0
   -6.5187   11.8083  -10.7296 C   0  0  0  0  0  0  0  0  0  0  0  0
   -7.7194   10.5704  -13.0321 C   0  0  0  0  0  0  0  0  0  0  0  0
   -6.9838   11.7645  -13.1240 C   0  0  0  0  0  0  0  0  0  0  0  0
   -7.8186   10.0073  -11.7576 C   0  0  0  0  0  0  0  0  0  0  0  0
   -7.2434   10.6206  -10.5991 C   0  0  0  0  0  0  0  0  0  0  0  0
   -7.6160    9.7494   -9.5117 C   0  0  0  0  0  0  0  0  0  0  0  0
   -8.2808    8.7336   -9.9894 N   0  0  0  0  0  0  0  0  0  0  0  0
   -8.4141    8.8594  -11.3008 N   0  0  0  0  0  0  0  0  0  0  0  0
   -7.3385    9.8886   -8.0248 C   0  0  0  0  0  0  0  0  0  0  0  0
   -4.3631   13.7190  -11.4993 N   0  0  0  0  0  0  0  0  0  0  0  0
   -5.5500   13.6364  -12.1907 C   0  0  0  0  0  0  0  0  0  0  0  0
   -5.9462   14.5251  -12.9474 O   0  0  0  0  0  0  0  0  0  0  0  0
   -5.9607   10.4852   -7.7356 C   0  0  0  0  0  0  0  0  0  0  0  0
   -4.8097    9.7639   -8.0527 C   0  0  0  0  0  0  0  0  0  0  0  0
   -3.5522   10.3124   -7.8024 C   0  0  0  0  0  0  0  0  0  0  0  0
   -3.4444   11.5885   -7.2376 C   0  0  0  0  0  0  0  0  0  0  0  0
   -4.5952   12.3052   -6.9174 C   0  0  0  0  0  0  0  0  0  0  0  0
   -5.8509   11.7557   -7.1626 C   0  0  0  0  0  0  0  0  0  0  0  0
   -2.1000   12.1783   -6.9759 C   0  0  0  0  0  0  0  0  0  0  0  0
   -1.7654   13.4353   -6.4786 C   0  0  0  0  0  0  0  0  0  0  0  0
   -0.4305   13.4892   -6.4172 N   0  0  0  0  0  0  0  0  0  0  0  0
    0.1699   12.4025   -6.8093 N   0  0  0  0  0  0  0  0  0  0  0  0
   -0.8029   11.5856   -7.1770 C   0  0  0  0  0  0  0  0  0  0  0  0
    0.3883   14.6074   -5.9669 C   0  0  0  0  0  0  0  0  0  0  0  0
   -3.5134   14.9066  -11.6049 C   0  0  0  0  0  0  0  0  0  0  0  0
   -2.2037   14.4678  -10.9376 C   0  0  1  0  0  0  0  0  0  0  0  0
   -2.2231   12.9442  -10.9826 C   0  0  0  0  0  0  0  0  0  0  0  0
   -3.7200   12.5740  -10.8214 C   0  0  0  0  0  0  0  0  0  0  0  0
   -1.0475   15.0410  -11.4860 O   0  0  0  0  0  0  0  0  0  0  0  0
   -6.0839   12.2893   -9.8659 H   0  0  0  0  0  0  0  0  0  0  0  0
   -8.1807   10.1150  -13.8959 H   0  0  0  0  0  0  0  0  0  0  0  0
   -6.8858   12.2432  -14.0871 H   0  0  0  0  0  0  0  0  0  0  0  0
   -6.3210   10.0404  -10.7489 H   0  0  0  0  0  0  0  0  0  0  0  0
   -8.0384    9.5978   -7.2554 H   0  0  0  0  0  0  0  0  0  0  0  0
   -4.8924    8.7808   -8.4920 H   0  0  0  0  0  0  0  0  0  0  0  0
   -2.6611    9.7523   -8.0445 H   0  0  0  0  0  0  0  0  0  0  0  0
   -4.5133   13.2885   -6.4783 H   0  0  0  0  0  0  0  0  0  0  0  0
   -6.7415   12.3119   -6.9097 H   0  0  0  0  0  0  0  0  0  0  0  0
   -2.1446   14.2201   -7.1496 H   0  0  0  0  0  0  0  0  0  0  0  0
   -2.1954   13.5713   -5.4753 H   0  0  0  0  0  0  0  0  0  0  0  0
   -0.6442   10.5957   -7.5787 H   0  0  0  0  0  0  0  0  0  0  0  0
    1.4518   14.3348   -6.0355 H   0  0  0  0  0  0  0  0  0  0  0  0
    0.1929   15.4840   -6.6021 H   0  0  0  0  0  0  0  0  0  0  0  0
    0.1381   14.8479   -4.9231 H   0  0  0  0  0  0  0  0  0  0  0  0
   -3.3468   15.1789  -12.6576 H   0  0  0  0  0  0  0  0  0  0  0  0
   -3.9603   15.7589  -11.0720 H   0  0  0  0  0  0  0  0  0  0  0  0
   -2.2706   14.7595   -9.8791 H   0  0  0  0  0  0  0  0  0  0  0  0
   -1.8326   12.5779  -11.9435 H   0  0  0  0  0  0  0  0  0  0  0  0
   -1.6269   12.5226  -10.1599 H   0  0  0  0  0  0  0  0  0  0  0  0
   -4.0107   12.5154   -9.7621 H   0  0  0  0  0  0  0  0  0  0  0  0
   -3.9577   11.6228  -11.3200 H   0  0  0  0  0  0  0  0  0  0  0  0
   -0.2836   14.7209  -11.0208 H   0  0  0  0  0  0  0  0  0  0  0  0
  1  2  2  0  0  0  0
  1  4  1  0  0  0  0
  1 12  1  0  0  0  0
  2  6  1  0  0  0  0
  3  4  2  0  0  0  0
  3  5  1  0  0  0  0
  5  6  1  0  0  0  0
  5  9  2  0  0  0  0
  6  7  1  0  0  0  0
  7  8  2  0  0  0  0
  7 10  1  0  0  0  0
  8  9  1  0  0  0  0
 10 14  2  0  0  0  0
 11 12  1  0  0  0  0
 11 26  1  0  0  0  0
 11 29  1  0  0  0  0
 12 13  2  0  0  0  0
 14 15  1  0  0  0  0
 14 19  1  0  0  0  0
 15 16  2  0  0  0  0
 16 17  1  0  0  0  0
 17 18  1  0  0  0  0
 17 20  2  0  0  0  0
 18 19  2  0  0  0  0
 20 21  1  0  0  0  0
 20 24  1  0  0  0  0
 21 22  1  0  0  0  0
 22 23  1  0  0  0  0
 22 25  1  0  0  0  0
 23 24  2  0  0  0  0
 26 27  1  0  0  0  0
 27 28  1  0  0  0  0
 27 30  1  0  0  0  0
 28 29  1  0  0  0  0
  2 31  1  0  0  0  0
  3 32  1  0  0  0  0
  4 33  1  0  0  0  0
  6 34  1  0  0  0  0
 10 35  1  0  0  0  0
 15 36  1  0  0  0  0
 16 37  1  0  0  0  0
 18 38  1  0  0  0  0
 19 39  1  0  0  0  0
 21 40  1  0  0  0  0
 21 41  1  0  0  0  0
 24 42  1  0  0  0  0
 25 43  1  0  0  0  0
 25 44  1  0  0  0  0
 25 45  1  0  0  0  0
 26 46  1  0  0  0  0
 26 47  1  0  0  0  0
 27 48  1  0  0  0  0
 28 49  1  0  0  0  0
 28 50  1  0  0  0  0
 29 51  1  0  0  0  0
 29 52  1  0  0  0  0
 30 53  1  0  0  0  0
M  END
> <Name>
31

> <IC50[uM]>
0.002

$$$$
31
  -OEChem-05192314333D
 Structure written by MMmdl.
 53 57  0     1  0  0  0  0  0999 V2000
   -6.3709   12.3579  -12.0062 C   0  0  0  0  0  0  0  0  0  0  0  0
   -6.5187   11.8083  -10.7296 C   0  0  0  0  0  0  0  0  0  0  0  0
   -7.7194   10.5704  -13.0321 C   0  0  0  0  0  0  0  0  0  0  0  0
   -6.9838   11.7645  -13.1240 C   0  0  0  0  0  0  0  0  0  0  0  0
   -7.8186   10.0073  -11.7576 C   0  0  0  0  0  0  0  0  0  0  0  0
   -7.2434   10.6206  -10.5991 C   0  0  0  0  0  0  0  0  0  0  0  0
   -7.6160    9.7494   -9.5117 C   0  0  0  0  0  0  0  0  0  0  0  0
   -8.2808    8.7336   -9.9894 N   0  0  0  0  0  0  0  0  0  0  0  0
   -8.4141    8.8594  -11.3008 N   0  0  0  0  0  0  0  0  0  0  0  0
   -7.3385    9.8886   -8.0248 C   0  0  0  0  0  0  0  0  0  0  0  0
   -4.3631   13.7190  -11.4993 N   0  0  0  0  0  0  0  0  0  0  0  0
   -5.5500   13.6364  -12.1907 C   0  0  0  0  0  0  0  0  0  0  0  0
   -5.9462   14.5251  -12.9474 O   0  0  0  0  0  0  0  0  0  0  0  0
   -5.9607   10.4852   -7.7356 C   0  0  0  0  0  0  0  0  0  0  0  0
   -4.8097    9.7639   -8.0527 C   0  0  0  0  0  0  0  0  0  0  0  0
   -3.5522   10.3124   -7.8024 C   0  0  0  0  0  0  0  0  0  0  0  0
   -3.4444   11.5885   -7.2376 C   0  0  0  0  0  0  0  0  0  0  0  0
   -4.5952   12.3052   -6.9174 C   0  0  0  0  0  0  0  0  0  0  0  0
   -5.8509   11.7557   -7.1626 C   0  0  0  0  0  0  0  0  0  0  0  0
   -2.1000   12.1783   -6.9759 C   0  0  0  0  0  0  0  0  0  0  0  0
   -1.7654   13.4353   -6.4786 C   0  0  0  0  0  0  0  0  0  0  0  0
   -0.4305   13.4892   -6.4172 N   0  0  0  0  0  0  0  0  0  0  0  0
    0.1699   12.4025   -6.8093 N   0  0  0  0  0  0  0  0  0  0  0  0
   -0.8029   11.5856   -7.1770 C   0  0  0  0  0  0  0  0  0  0  0  0
    0.3883   14.6074   -5.9669 C   0  0  0  0  0  0  0  0  0  0  0  0
   -3.5134   14.9066  -11.6049 C   0  0  0  0  0  0  0  0  0  0  0  0
   -2.2037   14.4678  -10.9376 C   0  0  1  0  0  0  0  0  0  0  0  0
   -2.2231   12.9442  -10.9826 C   0  0  0  0  0  0  0  0  0  0  0  0
   -3.7200   12.5740  -10.8214 C   0  0  0  0  0  0  0  0  0  0  0  0
   -1.0475   15.0410  -11.4860 O   0  0  0  0  0  0  0  0  0  0  0  0
   -6.0839   12.2893   -9.8659 H   0  0  0  0  0  0  0  0  0  0  0  0
   -8.7393   10.7754  -13.3895 H   0  0  0  0  0  0  0  0  0  0  0  0
   -7.2420    9.8299  -13.6907 H   0  0  0  0  0  0  0  0  0  0  0  0
   -6.8858   12.2432  -14.0871 H   0  0  0  0  0  0  0  0  0  0  0  0
   -8.0384    9.5978   -7.2554 H   0  0  0  0  0  0  0  0  0  0  0  0
   -4.8924    8.7808   -8.4920 H   0  0  0  0  0  0  0  0  0  0  0  0
   -2.6611    9.7523   -8.0445 H   0  0  0  0  0  0  0  0  0  0  0  0
   -4.5133   13.2885   -6.4783 H   0  0  0  0  0  0  0  0  0  0  0  0
   -6.7415   12.3119   -6.9097 H   0  0  0  0  0  0  0  0  0  0  0  0
   -2.1446   14.2201   -7.1496 H   0  0  0  0  0  0  0  0  0  0  0  0
   -2.1954   13.5713   -5.4753 H   0  0  0  0  0  0  0  0  0  0  0  0
   -0.6442   10.5957   -7.5787 H   0  0  0  0  0  0  0  0  0  0  0  0
    1.4518   14.3348   -6.0355 H   0  0  0  0  0  0  0  0  0  0  0  0
    0.1929   15.4840   -6.6021 H   0  0  0  0  0  0  0  0  0  0  0  0
    0.1381   14.8479   -4.9231 H   0  0  0  0  0  0  0  0  0  0  0  0
   -3.3468   15.1789  -12.6576 H   0  0  0  0  0  0  0  0  0  0  0  0
   -3.9603   15.7589  -11.0720 H   0  0  0  0  0  0  0  0  0  0  0  0
   -2.2706   14.7595   -9.8791 H   0  0  0  0  0  0  0  0  0  0  0  0
   -1.8326   12.5779  -11.9435 H   0  0  0  0  0  0  0  0  0  0  0  0
   -1.6269   12.5226  -10.1599 H   0  0  0  0  0  0  0  0  0  0  0  0
   -4.0107   12.5154   -9.7621 H   0  0  0  0  0  0  0  0  0  0  0  0
   -3.9577   11.6228  -11.3200 H   0  0  0  0  0  0  0  0  0  0  0  0
   -0.2836   14.7209  -11.0208 H   0  0  0  0  0  0  0  0  0  0  0  0
  1  2  1  0  0  0  0
  1  4  2  0  0  0  0
  1 12  1  0  0  0  0
  2  6  2  0  0  0  0
  3  4  1  0  0  0  0
  3  5  1  0  0  0  0
  5  6  1  0  0  0  0
  5  9  2  0  0  0  0
  6  7  1  0  0  0  0
  7  8  2  0  0  0  0
  7 10  1  0  0  0  0
  8  9  1  0  0  0  0
 10 14  2  0  0  0  0
 11 12  1  0  0  0  0
 11 26  1  0  0  0  0
 11 29  1  0  0  0  0
 12 13  2  0  0  0  0
 14 15  1  0  0  0  0
 14 19  1  0  0  0  0
 15 16  2  0  0  0  0
 16 17  1  0  0  0  0
 17 18  1  0  0  0  0
 17 20  2  0  0  0  0
 18 19  2  0  0  0  0
 20 21  1  0  0  0  0
 20 24  1  0  0  0  0
 21 22  1  0  0  0  0
 22 23  1  0  0  0  0
 22 25  1  0  0  0  0
 23 24  2  0  0  0  0
 26 27  1  0  0  0  0
 27 28  1  0  0  0  0
 27 30  1  0  0  0  0
 28 29  1  0  0  0  0
  2 31  1  0  0  0  0
  3 32  1  0  0  0  0
  3 33  1  0  0  0  0
  4 34  1  0  0  0  0
 10 35  1  0  0  0  0
 15 36  1  0  0  0  0
 16 37  1  0  0  0  0
 18 38  1  0  0  0  0
 19 39  1  0  0  0  0
 21 40  1  0  0  0  0
 21 41  1  0  0  0  0
 24 42  1  0  0  0  0
 25 43  1  0  0  0  0
 25 44  1  0  0  0  0
 25 45  1  0  0  0  0
 26 46  1  0  0  0  0
 26 47  1  0  0  0  0
 27 48  1  0  0  0  0
 28 49  1  0  0  0  0
 28 50  1  0  0  0  0
 29 51  1  0  0  0  0
 29 52  1  0  0  0  0
 30 53  1  0  0  0  0
M  END
> <Name>
31

> <IC50[uM]>
0.002

$$$$
31
  -OEChem-05192314333D
 Structure written by MMmdl.
 53 57  0     1  0  0  0  0  0999 V2000
   -6.3709   12.3579  -12.0062 C   0  0  0  0  0  0  0  0  0  0  0  0
   -6.5187   11.8083  -10.7296 C   0  0  0  0  0  0  0  0  0  0  0  0
   -7.7194   10.5704  -13.0321 C   0  0  0  0  0  0  0  0  0  0  0  0
   -6.9838   11.7645  -13.1240 C   0  0  0  0  0  0  0  0  0  0  0  0
   -7.8186   10.0073  -11.7576 C   0  0  0  0  0  0  0  0  0  0  0  0
   -7.2434   10.6206  -10.5991 C   0  0  0  0  0  0  0  0  0  0  0  0
   -7.6160    9.7494   -9.5117 C   0  0  0  0  0  0  0  0  0  0  0  0
   -8.2808    8.7336   -9.9894 N   0  0  0  0  0  0  0  0  0  0  0  0
   -8.4141    8.8594  -11.3008 N   0  0  0  0  0  0  0  0  0  0  0  0
   -7.3385    9.8886   -8.0248 C   0  0  0  0  0  0  0  0  0  0  0  0
   -4.3631   13.7190  -11.4993 N   0  0  0  0  0  0  0  0  0  0  0  0
   -5.5500   13.6364  -12.1907 C   0  0  0  0  0  0  0  0  0  0  0  0
   -5.9462   14.5251  -12.9474 O   0  0  0  0  0  0  0  0  0  0  0  0
   -5.9607   10.4852   -7.7356 C   0  0  0  0  0  0  0  0  0  0  0  0
   -4.8097    9.7639   -8.0527 C   0  0  0  0  0  0  0  0  0  0  0  0
   -3.5522   10.3124   -7.8024 C   0  0  0  0  0  0  0  0  0  0  0  0
   -3.4444   11.5885   -7.2376 C   0  0  0  0  0  0  0  0  0  0  0  0
   -4.5952   12.3052   -6.9174 C   0  0  0  0  0  0  0  0  0  0  0  0
   -5.8509   11.7557   -7.1626 C   0  0  0  0  0  0  0  0  0  0  0  0
   -2.1000   12.1783   -6.9759 C   0  0  0  0  0  0  0  0  0  0  0  0
   -1.7654   13.4353   -6.4786 C   0  0  0  0  0  0  0  0  0  0  0  0
   -0.4305   13.4892   -6.4172 N   0  0  0  0  0  0  0  0  0  0  0  0
    0.1699   12.4025   -6.8093 N   0  0  0  0  0  0  0  0  0  0  0  0
   -0.8029   11.5856   -7.1770 C   0  0  0  0  0  0  0  0  0  0  0  0
    0.3883   14.6074   -5.9669 C   0  0  0  0  0  0  0  0  0  0  0  0
   -3.5134   14.9066  -11.6049 C   0  0  0  0  0  0  0  0  0  0  0  0
   -2.2037   14.4678  -10.9376 C   0  0  1  0  0  0  0  0  0  0  0  0
   -2.2231   12.9442  -10.9826 C   0  0  0  0  0  0  0  0  0  0  0  0
   -3.7200   12.5740  -10.8214 C   0  0  0  0  0  0  0  0  0  0  0  0
   -1.0475   15.0410  -11.4860 O   0  0  0  0  0  0  0  0  0  0  0  0
   -6.0839   12.2893   -9.8659 H   0  0  0  0  0  0  0  0  0  0  0  0
   -8.1807   10.1150  -13.8959 H   0  0  0  0  0  0  0  0  0  0  0  0
   -6.8858   12.2432  -14.0871 H   0  0  0  0  0  0  0  0  0  0  0  0
   -6.8835    9.4540  -11.9291 H   0  0  0  0  0  0  0  0  0  0  0  0
   -8.0384    9.5978   -7.2554 H   0  0  0  0  0  0  0  0  0  0  0  0
   -4.8924    8.7808   -8.4920 H   0  0  0  0  0  0  0  0  0  0  0  0
   -2.6611    9.7523   -8.0445 H   0  0  0  0  0  0  0  0  0  0  0  0
   -4.5133   13.2885   -6.4783 H   0  0  0  0  0  0  0  0  0  0  0  0
   -6.7415   12.3119   -6.9097 H   0  0  0  0  0  0  0  0  0  0  0  0
   -2.1446   14.2201   -7.1496 H   0  0  0  0  0  0  0  0  0  0  0  0
   -2.1954   13.5713   -5.4753 H   0  0  0  0  0  0  0  0  0  0  0  0
   -0.6442   10.5957   -7.5787 H   0  0  0  0  0  0  0  0  0  0  0  0
    1.4518   14.3348   -6.0355 H   0  0  0  0  0  0  0  0  0  0  0  0
    0.1929   15.4840   -6.6021 H   0  0  0  0  0  0  0  0  0  0  0  0
    0.1381   14.8479   -4.9231 H   0  0  0  0  0  0  0  0  0  0  0  0
   -3.3468   15.1789  -12.6576 H   0  0  0  0  0  0  0  0  0  0  0  0
   -3.9603   15.7589  -11.0720 H   0  0  0  0  0  0  0  0  0  0  0  0
   -2.2706   14.7595   -9.8791 H   0  0  0  0  0  0  0  0  0  0  0  0
   -1.8326   12.5779  -11.9435 H   0  0  0  0  0  0  0  0  0  0  0  0
   -1.6269   12.5226  -10.1599 H   0  0  0  0  0  0  0  0  0  0  0  0
   -4.0107   12.5154   -9.7621 H   0  0  0  0  0  0  0  0  0  0  0  0
   -3.9577   11.6228  -11.3200 H   0  0  0  0  0  0  0  0  0  0  0  0
   -0.2836   14.7209  -11.0208 H   0  0  0  0  0  0  0  0  0  0  0  0
  1  2  2  0  0  0  0
  1  4  1  0  0  0  0
  1 12  1  0  0  0  0
  2  6  1  0  0  0  0
  3  4  2  0  0  0  0
  3  5  1  0  0  0  0
  5  6  1  0  0  0  0
  5  9  1  0  0  0  0
  6  7  2  0  0  0  0
  7  8  1  0  0  0  0
  7 10  1  0  0  0  0
  8  9  2  0  0  0  0
 10 14  2  0  0  0  0
 11 12  1  0  0  0  0
 11 26  1  0  0  0  0
 11 29  1  0  0  0  0
 12 13  2  0  0  0  0
 14 15  1  0  0  0  0
 14 19  1  0  0  0  0
 15 16  2  0  0  0  0
 16 17  1  0  0  0  0
 17 18  1  0  0  0  0
 17 20  2  0  0  0  0
 18 19  2  0  0  0  0
 20 21  1  0  0  0  0
 20 24  1  0  0  0  0
 21 22  1  0  0  0  0
 22 23  1  0  0  0  0
 22 25  1  0  0  0  0
 23 24  2  0  0  0  0
 26 27  1  0  0  0  0
 27 28  1  0  0  0  0
 27 30  1  0  0  0  0
 28 29  1  0  0  0  0
  2 31  1  0  0  0  0
  3 32  1  0  0  0  0
  4 33  1  0  0  0  0
  5 34  1  0  0  0  0
 10 35  1  0  0  0  0
 15 36  1  0  0  0  0
 16 37  1  0  0  0  0
 18 38  1  0  0  0  0
 19 39  1  0  0  0  0
 21 40  1  0  0  0  0
 21 41  1  0  0  0  0
 24 42  1  0  0  0  0
 25 43  1  0  0  0  0
 25 44  1  0  0  0  0
 25 45  1  0  0  0  0
 26 46  1  0  0  0  0
 26 47  1  0  0  0  0
 27 48  1  0  0  0  0
 28 49  1  0  0  0  0
 28 50  1  0  0  0  0
 29 51  1  0  0  0  0
 29 52  1  0  0  0  0
 30 53  1  0  0  0  0
M  END
> <Name>
31

> <IC50[uM]>
0.002

$$$$
31
  -OEChem-05192314333D
 Structure written by MMmdl.
 53 57  0     1  0  0  0  0  0999 V2000
   -6.3709   12.3579  -12.0062 C   0  0  0  0  0  0  0  0  0  0  0  0
   -6.5187   11.8083  -10.7296 C   0  0  0  0  0  0  0  0  0  0  0  0
   -7.7194   10.5704  -13.0321 C   0  0  0  0  0  0  0  0  0  0  0  0
   -6.9838   11.7645  -13.1240 C   0  0  0  0  0  0  0  0  0  0  0  0
   -7.8186   10.0073  -11.7576 C   0  0  0  0  0  0  0  0  0  0  0  0
   -7.2434   10.6206  -10.5991 C   0  0  0  0  0  0  0  0  0  0  0  0
   -7.6160    9.7494   -9.5117 C   0  0  0  0  0  0  0  0  0  0  0  0
   -8.2808    8.7336   -9.9894 N   0  0  0  0  0  0  0  0  0  0  0  0
   -8.4141    8.8594  -11.3008 N   0  0  0  0  0  0  0  0  0  0  0  0
   -7.3385    9.8886   -8.0248 C   0  0  0  0  0  0  0  0  0  0  0  0
   -4.3631   13.7190  -11.4993 N   0  0  0  0  0  0  0  0  0  0  0  0
   -5.5500   13.6364  -12.1907 C   0  0  0  0  0  0  0  0  0  0  0  0
   -5.9462   14.5251  -12.9474 O   0  0  0  0  0  0  0  0  0  0  0  0
   -5.9607   10.4852   -7.7356 C   0  0  0  0  0  0  0  0  0  0  0  0
   -4.8097    9.7639   -8.0527 C   0  0  0  0  0  0  0  0  0  0  0  0
   -3.5522   10.3124   -7.8024 C   0  0  0  0  0  0  0  0  0  0  0  0
   -3.4444   11.5885   -7.2376 C   0  0  0  0  0  0  0  0  0  0  0  0
   -4.5952   12.3052   -6.9174 C   0  0  0  0  0  0  0  0  0  0  0  0
   -5.8509   11.7557   -7.1626 C   0  0  0  0  0  0  0  0  0  0  0  0
   -2.1000   12.1783   -6.9759 C   0  0  0  0  0  0  0  0  0  0  0  0
   -1.7654   13.4353   -6.4786 C   0  0  0  0  0  0  0  0  0  0  0  0
   -0.4305   13.4892   -6.4172 N   0  0  0  0  0  0  0  0  0  0  0  0
    0.1699   12.4025   -6.8093 N   0  0  0  0  0  0  0  0  0  0  0  0
   -0.8029   11.5856   -7.1770 C   0  0  0  0  0  0  0  0  0  0  0  0
    0.3883   14.6074   -5.9669 C   0  0  0  0  0  0  0  0  0  0  0  0
   -3.5134   14.9066  -11.6049 C   0  0  0  0  0  0  0  0  0  0  0  0
   -2.2037   14.4678  -10.9376 C   0  0  1  0  0  0  0  0  0  0  0  0
   -2.2231   12.9442  -10.9826 C   0  0  0  0  0  0  0  0  0  0  0  0
   -3.7200   12.5740  -10.8214 C   0  0  0  0  0  0  0  0  0  0  0  0
   -1.0475   15.0410  -11.4860 O   0  0  0  0  0  0  0  0  0  0  0  0
   -6.0839   12.2893   -9.8659 H   0  0  0  0  0  0  0  0  0  0  0  0
   -8.1807   10.1150  -13.8959 H   0  0  0  0  0  0  0  0  0  0  0  0
   -7.6733   12.5185  -13.5315 H   0  0  0  0  0  0  0  0  0  0  0  0
   -6.1791   11.5735  -13.8492 H   0  0  0  0  0  0  0  0  0  0  0  0
   -8.0384    9.5978   -7.2554 H   0  0  0  0  0  0  0  0  0  0  0  0
   -4.8924    8.7808   -8.4920 H   0  0  0  0  0  0  0  0  0  0  0  0
   -2.6611    9.7523   -8.0445 H   0  0  0  0  0  0  0  0  0  0  0  0
   -4.5133   13.2885   -6.4783 H   0  0  0  0  0  0  0  0  0  0  0  0
   -6.7415   12.3119   -6.9097 H   0  0  0  0  0  0  0  0  0  0  0  0
   -2.1446   14.2201   -7.1496 H   0  0  0  0  0  0  0  0  0  0  0  0
   -2.1954   13.5713   -5.4753 H   0  0  0  0  0  0  0  0  0  0  0  0
   -0.6442   10.5957   -7.5787 H   0  0  0  0  0  0  0  0  0  0  0  0
    1.4518   14.3348   -6.0355 H   0  0  0  0  0  0  0  0  0  0  0  0
    0.1929   15.4840   -6.6021 H   0  0  0  0  0  0  0  0  0  0  0  0
    0.1381   14.8479   -4.9231 H   0  0  0  0  0  0  0  0  0  0  0  0
   -3.3468   15.1789  -12.6576 H   0  0  0  0  0  0  0  0  0  0  0  0
   -3.9603   15.7589  -11.0720 H   0  0  0  0  0  0  0  0  0  0  0  0
   -2.2706   14.7595   -9.8791 H   0  0  0  0  0  0  0  0  0  0  0  0
   -1.8326   12.5779  -11.9435 H   0  0  0  0  0  0  0  0  0  0  0  0
   -1.6269   12.5226  -10.1599 H   0  0  0  0  0  0  0  0  0  0  0  0
   -4.0107   12.5154   -9.7621 H   0  0  0  0  0  0  0  0  0  0  0  0
   -3.9577   11.6228  -11.3200 H   0  0  0  0  0  0  0  0  0  0  0  0
   -0.2836   14.7209  -11.0208 H   0  0  0  0  0  0  0  0  0  0  0  0
  1  2  2  0  0  0  0
  1  4  1  0  0  0  0
  1 12  1  0  0  0  0
  2  6  1  0  0  0  0
  3  4  1  0  0  0  0
  3  5  2  0  0  0  0
  5  6  1  0  0  0  0
  5  9  1  0  0  0  0
  6  7  2  0  0  0  0
  7  8  1  0  0  0  0
  7 10  1  0  0  0  0
  8  9  2  0  0  0  0
 10 14  2  0  0  0  0
 11 12  1  0  0  0  0
 11 26  1  0  0  0  0
 11 29  1  0  0  0  0
 12 13  2  0  0  0  0
 14 15  1  0  0  0  0
 14 19  1  0  0  0  0
 15 16  2  0  0  0  0
 16 17  1  0  0  0  0
 17 18  1  0  0  0  0
 17 20  2  0  0  0  0
 18 19  2  0  0  0  0
 20 21  1  0  0  0  0
 20 24  1  0  0  0  0
 21 22  1  0  0  0  0
 22 23  1  0  0  0  0
 22 25  1  0  0  0  0
 23 24  2  0  0  0  0
 26 27  1  0  0  0  0
 27 28  1  0  0  0  0
 27 30  1  0  0  0  0
 28 29  1  0  0  0  0
  2 31  1  0  0  0  0
  3 32  1  0  0  0  0
  4 33  1  0  0  0  0
  4 34  1  0  0  0  0
 10 35  1  0  0  0  0
 15 36  1  0  0  0  0
 16 37  1  0  0  0  0
 18 38  1  0  0  0  0
 19 39  1  0  0  0  0
 21 40  1  0  0  0  0
 21 41  1  0  0  0  0
 24 42  1  0  0  0  0
 25 43  1  0  0  0  0
 25 44  1  0  0  0  0
 25 45  1  0  0  0  0
 26 46  1  0  0  0  0
 26 47  1  0  0  0  0
 27 48  1  0  0  0  0
 28 49  1  0  0  0  0
 28 50  1  0  0  0  0
 29 51  1  0  0  0  0
 29 52  1  0  0  0  0
 30 53  1  0  0  0  0
M  END
> <Name>
31

> <IC50[uM]>
0.002

$$$$
31
  -OEChem-05192314333D
 Structure written by MMmdl.
 53 57  0     1  0  0  0  0  0999 V2000
   -6.3709   12.3579  -12.0062 C   0  0  0  0  0  0  0  0  0  0  0  0
   -6.5187   11.8083  -10.7296 C   0  0  0  0  0  0  0  0  0  0  0  0
   -7.7194   10.5704  -13.0321 C   0  0  0  0  0  0  0  0  0  0  0  0
   -6.9838   11.7645  -13.1240 C   0  0  0  0  0  0  0  0  0  0  0  0
   -7.8186   10.0073  -11.7576 C   0  0  0  0  0  0  0  0  0  0  0  0
   -7.2434   10.6206  -10.5991 C   0  0  0  0  0  0  0  0  0  0  0  0
   -7.6160    9.7494   -9.5117 C   0  0  0  0  0  0  0  0  0  0  0  0
   -8.2808    8.7336   -9.9894 N   0  0  0  0  0  0  0  0  0  0  0  0
   -8.4141    8.8594  -11.3008 N   0  0  0  0  0  0  0  0  0  0  0  0
   -7.3385    9.8886   -8.0248 C   0  0  0  0  0  0  0  0  0  0  0  0
   -4.3631   13.7190  -11.4993 N   0  0  0  0  0  0  0  0  0  0  0  0
   -5.5500   13.6364  -12.1907 C   0  0  0  0  0  0  0  0  0  0  0  0
   -5.9462   14.5251  -12.9474 O   0  0  0  0  0  0  0  0  0  0  0  0
   -5.9607   10.4852   -7.7356 C   0  0  0  0  0  0  0  0  0  0  0  0
   -4.8097    9.7639   -8.0527 C   0  0  0  0  0  0  0  0  0  0  0  0
   -3.5522   10.3124   -7.8024 C   0  0  0  0  0  0  0  0  0  0  0  0
   -3.4444   11.5885   -7.2376 C   0  0  0  0  0  0  0  0  0  0  0  0
   -4.5952   12.3052   -6.9174 C   0  0  0  0  0  0  0  0  0  0  0  0
   -5.8509   11.7557   -7.1626 C   0  0  0  0  0  0  0  0  0  0  0  0
   -2.1000   12.1783   -6.9759 C   0  0  0  0  0  0  0  0  0  0  0  0
   -1.7654   13.4353   -6.4786 C   0  0  0  0  0  0  0  0  0  0  0  0
   -0.4305   13.4892   -6.4172 N   0  0  0  0  0  0  0  0  0  0  0  0
    0.1699   12.4025   -6.8093 N   0  0  0  0  0  0  0  0  0  0  0  0
   -0.8029   11.5856   -7.1770 C   0  0  0  0  0  0  0  0  0  0  0  0
    0.3883   14.6074   -5.9669 C   0  0  0  0  0  0  0  0  0  0  0  0
   -3.5134   14.9066  -11.6049 C   0  0  0  0  0  0  0  0  0  0  0  0
   -2.2037   14.4678  -10.9376 C   0  0  1  0  0  0  0  0  0  0  0  0
   -2.2231   12.9442  -10.9826 C   0  0  0  0  0  0  0  0  0  0  0  0
   -3.7200   12.5740  -10.8214 C   0  0  0  0  0  0  0  0  0  0  0  0
   -1.0475   15.0410  -11.4860 O   0  0  0  0  0  0  0  0  0  0  0  0
   -5.5085   11.6180  -10.3381 H   0  0  0  0  0  0  0  0  0  0  0  0
   -7.0175   12.5643  -10.1054 H   0  0  0  0  0  0  0  0  0  0  0  0
   -8.1807   10.1150  -13.8959 H   0  0  0  0  0  0  0  0  0  0  0  0
   -6.8858   12.2432  -14.0871 H   0  0  0  0  0  0  0  0  0  0  0  0
   -8.0384    9.5978   -7.2554 H   0  0  0  0  0  0  0  0  0  0  0  0
   -4.8924    8.7808   -8.4920 H   0  0  0  0  0  0  0  0  0  0  0  0
   -2.6611    9.7523   -8.0445 H   0  0  0  0  0  0  0  0  0  0  0  0
   -4.5133   13.2885   -6.4783 H   0  0  0  0  0  0  0  0  0  0  0  0
   -6.7415   12.3119   -6.9097 H   0  0  0  0  0  0  0  0  0  0  0  0
   -2.1446   14.2201   -7.1496 H   0  0  0  0  0  0  0  0  0  0  0  0
   -2.1954   13.5713   -5.4753 H   0  0  0  0  0  0  0  0  0  0  0  0
   -0.6442   10.5957   -7.5787 H   0  0  0  0  0  0  0  0  0  0  0  0
    1.4518   14.3348   -6.0355 H   0  0  0  0  0  0  0  0  0  0  0  0
    0.1929   15.4840   -6.6021 H   0  0  0  0  0  0  0  0  0  0  0  0
    0.1381   14.8479   -4.9231 H   0  0  0  0  0  0  0  0  0  0  0  0
   -3.3468   15.1789  -12.6576 H   0  0  0  0  0  0  0  0  0  0  0  0
   -3.9603   15.7589  -11.0720 H   0  0  0  0  0  0  0  0  0  0  0  0
   -2.2706   14.7595   -9.8791 H   0  0  0  0  0  0  0  0  0  0  0  0
   -1.8326   12.5779  -11.9435 H   0  0  0  0  0  0  0  0  0  0  0  0
   -1.6269   12.5226  -10.1599 H   0  0  0  0  0  0  0  0  0  0  0  0
   -4.0107   12.5154   -9.7621 H   0  0  0  0  0  0  0  0  0  0  0  0
   -3.9577   11.6228  -11.3200 H   0  0  0  0  0  0  0  0  0  0  0  0
   -0.2836   14.7209  -11.0208 H   0  0  0  0  0  0  0  0  0  0  0  0
  1  2  1  0  0  0  0
  1  4  2  0  0  0  0
  1 12  1  0  0  0  0
  2  6  1  0  0  0  0
  3  4  1  0  0  0  0
  3  5  2  0  0  0  0
  5  6  1  0  0  0  0
  5  9  1  0  0  0  0
  6  7  2  0  0  0  0
  7  8  1  0  0  0  0
  7 10  1  0  0  0  0
  8  9  2  0  0  0  0
 10 14  2  0  0  0  0
 11 12  1  0  0  0  0
 11 26  1  0  0  0  0
 11 29  1  0  0  0  0
 12 13  2  0  0  0  0
 14 15  1  0  0  0  0
 14 19  1  0  0  0  0
 15 16  2  0  0  0  0
 16 17  1  0  0  0  0
 17 18  1  0  0  0  0
 17 20  2  0  0  0  0
 18 19  2  0  0  0  0
 20 21  1  0  0  0  0
 20 24  1  0  0  0  0
 21 22  1  0  0  0  0
 22 23  1  0  0  0  0
 22 25  1  0  0  0  0
 23 24  2  0  0  0  0
 26 27  1  0  0  0  0
 27 28  1  0  0  0  0
 27 30  1  0  0  0  0
 28 29  1  0  0  0  0
  2 31  1  0  0  0  0
  2 32  1  0  0  0  0
  3 33  1  0  0  0  0
  4 34  1  0  0  0  0
 10 35  1  0  0  0  0
 15 36  1  0  0  0  0
 16 37  1  0  0  0  0
 18 38  1  0  0  0  0
 19 39  1  0  0  0  0
 21 40  1  0  0  0  0
 21 41  1  0  0  0  0
 24 42  1  0  0  0  0
 25 43  1  0  0  0  0
 25 44  1  0  0  0  0
 25 45  1  0  0  0  0
 26 46  1  0  0  0  0
 26 47  1  0  0  0  0
 27 48  1  0  0  0  0
 28 49  1  0  0  0  0
 28 50  1  0  0  0  0
 29 51  1  0  0  0  0
 29 52  1  0  0  0  0
 30 53  1  0  0  0  0
M  END
> <Name>
31

> <IC50[uM]>
0.002

$$$$
31
  -OEChem-05192314333D
 Structure written by MMmdl.
 53 57  0     1  0  0  0  0  0999 V2000
   -6.3709   12.3579  -12.0062 C   0  0  0  0  0  0  0  0  0  0  0  0
   -6.5187   11.8083  -10.7296 C   0  0  0  0  0  0  0  0  0  0  0  0
   -7.7194   10.5704  -13.0321 C   0  0  0  0  0  0  0  0  0  0  0  0
   -6.9838   11.7645  -13.1240 C   0  0  0  0  0  0  0  0  0  0  0  0
   -7.8186   10.0073  -11.7576 C   0  0  0  0  0  0  0  0  0  0  0  0
   -7.2434   10.6206  -10.5991 C   0  0  0  0  0  0  0  0  0  0  0  0
   -7.6160    9.7494   -9.5117 C   0  0  0  0  0  0  0  0  0  0  0  0
   -8.2808    8.7336   -9.9894 N   0  0  0  0  0  0  0  0  0  0  0  0
   -8.4141    8.8594  -11.3008 N   0  0  0  0  0  0  0  0  0  0  0  0
   -7.3385    9.8886   -8.0248 C   0  0  0  0  0  0  0  0  0  0  0  0
   -4.3631   13.7190  -11.4993 N   0  0  0  0  0  0  0  0  0  0  0  0
   -5.5500   13.6364  -12.1907 C   0  0  0  0  0  0  0  0  0  0  0  0
   -5.9462   14.5251  -12.9474 O   0  0  0  0  0  0  0  0  0  0  0  0
   -5.9607   10.4852   -7.7356 C   0  0  0  0  0  0  0  0  0  0  0  0
   -4.8097    9.7639   -8.0527 C   0  0  0  0  0  0  0  0  0  0  0  0
   -3.5522   10.3124   -7.8024 C   0  0  0  0  0  0  0  0  0  0  0  0
   -3.4444   11.5885   -7.2376 C   0  0  0  0  0  0  0  0  0  0  0  0
   -4.5952   12.3052   -6.9174 C   0  0  0  0  0  0  0  0  0  0  0  0
   -5.8509   11.7557   -7.1626 C   0  0  0  0  0  0  0  0  0  0  0  0
   -2.1000   12.1783   -6.9759 C   0  0  0  0  0  0  0  0  0  0  0  0
   -1.7654   13.4353   -6.4786 C   0  0  0  0  0  0  0  0  0  0  0  0
   -0.4305   13.4892   -6.4172 N   0  0  0  0  0  0  0  0  0  0  0  0
    0.1699   12.4025   -6.8093 N   0  0  0  0  0  0  0  0  0  0  0  0
   -0.8029   11.5856   -7.1770 C   0  0  0  0  0  0  0  0  0  0  0  0
    0.3883   14.6074   -5.9669 C   0  0  0  0  0  0  0  0  0  0  0  0
   -3.5134   14.9066  -11.6049 C   0  0  0  0  0  0  0  0  0  0  0  0
   -2.2037   14.4678  -10.9376 C   0  0  1  0  0  0  0  0  0  0  0  0
   -2.2231   12.9442  -10.9826 C   0  0  0  0  0  0  0  0  0  0  0  0
   -3.7200   12.5740  -10.8214 C   0  0  0  0  0  0  0  0  0  0  0  0
   -1.0475   15.0410  -11.4860 O   0  0  0  0  0  0  0  0  0  0  0  0
   -5.4695   11.7492  -12.1702 H   0  0  0  0  0  0  0  0  0  0  0  0
   -6.0839   12.2893   -9.8659 H   0  0  0  0  0  0  0  0  0  0  0  0
   -8.1807   10.1150  -13.8959 H   0  0  0  0  0  0  0  0  0  0  0  0
   -6.8858   12.2432  -14.0871 H   0  0  0  0  0  0  0  0  0  0  0  0
   -8.0384    9.5978   -7.2554 H   0  0  0  0  0  0  0  0  0  0  0  0
   -4.8924    8.7808   -8.4920 H   0  0  0  0  0  0  0  0  0  0  0  0
   -2.6611    9.7523   -8.0445 H   0  0  0  0  0  0  0  0  0  0  0  0
   -3.4453   12.0346   -8.2431 H   0  0  0  0  0  0  0  0  0  0  0  0
   -4.5133   13.2885   -6.4783 H   0  0  0  0  0  0  0  0  0  0  0  0
   -6.7415   12.3119   -6.9097 H   0  0  0  0  0  0  0  0  0  0  0  0
   -2.4535   14.2183   -6.1960 H   0  0  0  0  0  0  0  0  0  0  0  0
   -0.6442   10.5957   -7.5787 H   0  0  0  0  0  0  0  0  0  0  0  0
    1.4518   14.3348   -6.0355 H   0  0  0  0  0  0  0  0  0  0  0  0
    0.1929   15.4840   -6.6021 H   0  0  0  0  0  0  0  0  0  0  0  0
    0.1381   14.8479   -4.9231 H   0  0  0  0  0  0  0  0  0  0  0  0
   -3.3468   15.1789  -12.6576 H   0  0  0  0  0  0  0  0  0  0  0  0
   -3.9603   15.7589  -11.0720 H   0  0  0  0  0  0  0  0  0  0  0  0
   -2.2706   14.7595   -9.8791 H   0  0  0  0  0  0  0  0  0  0  0  0
   -1.8326   12.5779  -11.9435 H   0  0  0  0  0  0  0  0  0  0  0  0
   -1.6269   12.5226  -10.1599 H   0  0  0  0  0  0  0  0  0  0  0  0
   -4.0107   12.5154   -9.7621 H   0  0  0  0  0  0  0  0  0  0  0  0
   -3.9577   11.6228  -11.3200 H   0  0  0  0  0  0  0  0  0  0  0  0
   -0.2836   14.7209  -11.0208 H   0  0  0  0  0  0  0  0  0  0  0  0
  1  2  1  0  0  0  0
  1  4  1  0  0  0  0
  1 12  1  0  0  0  0
  2  6  2  0  0  0  0
  3  4  2  0  0  0  0
  3  5  1  0  0  0  0
  5  6  1  0  0  0  0
  5  9  2  0  0  0  0
  6  7  1  0  0  0  0
  7  8  2  0  0  0  0
  7 10  1  0  0  0  0
  8  9  1  0  0  0  0
 10 14  2  0  0  0  0
 11 12  1  0  0  0  0
 11 26  1  0  0  0  0
 11 29  1  0  0  0  0
 12 13  2  0  0  0  0
 14 15  1  0  0  0  0
 14 19  1  0  0  0  0
 15 16  2  0  0  0  0
 16 17  1  0  0  0  0
 17 18  1  0  0  0  0
 17 20  1  0  0  0  0
 18 19  2  0  0  0  0
 20 21  2  0  0  0  0
 20 24  1  0  0  0  0
 21 22  1  0  0  0  0
 22 23  1  0  0  0  0
 22 25  1  0  0  0  0
 23 24  2  0  0  0  0
 26 27  1  0  0  0  0
 27 28  1  0  0  0  0
 27 30  1  0  0  0  0
 28 29  1  0  0  0  0
  1 31  1  0  0  0  0
  2 32  1  0  0  0  0
  3 33  1  0  0  0  0
  4 34  1  0  0  0  0
 10 35  1  0  0  0  0
 15 36  1  0  0  0  0
 16 37  1  0  0  0  0
 17 38  1  0  0  0  0
 18 39  1  0  0  0  0
 19 40  1  0  0  0  0
 21 41  1  0  0  0  0
 24 42  1  0  0  0  0
 25 43  1  0  0  0  0
 25 44  1  0  0  0  0
 25 45  1  0  0  0  0
 26 46  1  0  0  0  0
 26 47  1  0  0  0  0
 27 48  1  0  0  0  0
 28 49  1  0  0  0  0
 28 50  1  0  0  0  0
 29 51  1  0  0  0  0
 29 52  1  0  0  0  0
 30 53  1  0  0  0  0
M  END
> <Name>
31

> <IC50[uM]>
0.002

$$$$
31
  -OEChem-05192314333D
 Structure written by MMmdl.
 53 57  0     1  0  0  0  0  0999 V2000
   -6.3709   12.3579  -12.0062 C   0  0  0  0  0  0  0  0  0  0  0  0
   -6.5187   11.8083  -10.7296 C   0  0  0  0  0  0  0  0  0  0  0  0
   -7.7194   10.5704  -13.0321 C   0  0  0  0  0  0  0  0  0  0  0  0
   -6.9838   11.7645  -13.1240 C   0  0  0  0  0  0  0  0  0  0  0  0
   -7.8186   10.0073  -11.7576 C   0  0  0  0  0  0  0  0  0  0  0  0
   -7.2434   10.6206  -10.5991 C   0  0  0  0  0  0  0  0  0  0  0  0
   -7.6160    9.7494   -9.5117 C   0  0  0  0  0  0  0  0  0  0  0  0
   -8.2808    8.7336   -9.9894 N   0  0  0  0  0  0  0  0  0  0  0  0
   -8.4141    8.8594  -11.3008 N   0  0  0  0  0  0  0  0  0  0  0  0
   -7.3385    9.8886   -8.0248 C   0  0  0  0  0  0  0  0  0  0  0  0
   -4.3631   13.7190  -11.4993 N   0  0  0  0  0  0  0  0  0  0  0  0
   -5.5500   13.6364  -12.1907 C   0  0  0  0  0  0  0  0  0  0  0  0
   -5.9462   14.5251  -12.9474 O   0  0  0  0  0  0  0  0  0  0  0  0
   -5.9607   10.4852   -7.7356 C   0  0  0  0  0  0  0  0  0  0  0  0
   -4.8097    9.7639   -8.0527 C   0  0  0  0  0  0  0  0  0  0  0  0
   -3.5522   10.3124   -7.8024 C   0  0  0  0  0  0  0  0  0  0  0  0
   -3.4444   11.5885   -7.2376 C   0  0  0  0  0  0  0  0  0  0  0  0
   -4.5952   12.3052   -6.9174 C   0  0  0  0  0  0  0  0  0  0  0  0
   -5.8509   11.7557   -7.1626 C   0  0  0  0  0  0  0  0  0  0  0  0
   -2.1000   12.1783   -6.9759 C   0  0  0  0  0  0  0  0  0  0  0  0
   -1.7654   13.4353   -6.4786 C   0  0  0  0  0  0  0  0  0  0  0  0
   -0.4305   13.4892   -6.4172 N   0  0  0  0  0  0  0  0  0  0  0  0
    0.1699   12.4025   -6.8093 N   0  0  0  0  0  0  0  0  0  0  0  0
   -0.8029   11.5856   -7.1770 C   0  0  0  0  0  0  0  0  0  0  0  0
    0.3883   14.6074   -5.9669 C   0  0  0  0  0  0  0  0  0  0  0  0
   -3.5134   14.9066  -11.6049 C   0  0  0  0  0  0  0  0  0  0  0  0
   -2.2037   14.4678  -10.9376 C   0  0  1  0  0  0  0  0  0  0  0  0
   -2.2231   12.9442  -10.9826 C   0  0  0  0  0  0  0  0  0  0  0  0
   -3.7200   12.5740  -10.8214 C   0  0  0  0  0  0  0  0  0  0  0  0
   -1.0475   15.0410  -11.4860 O   0  0  0  0  0  0  0  0  0  0  0  0
   -6.0839   12.2893   -9.8659 H   0  0  0  0  0  0  0  0  0  0  0  0
   -8.1807   10.1150  -13.8959 H   0  0  0  0  0  0  0  0  0  0  0  0
   -6.8858   12.2432  -14.0871 H   0  0  0  0  0  0  0  0  0  0  0  0
   -6.3210   10.0404  -10.7489 H   0  0  0  0  0  0  0  0  0  0  0  0
   -8.0384    9.5978   -7.2554 H   0  0  0  0  0  0  0  0  0  0  0  0
   -4.8924    8.7808   -8.4920 H   0  0  0  0  0  0  0  0  0  0  0  0
   -2.6611    9.7523   -8.0445 H   0  0  0  0  0  0  0  0  0  0  0  0
   -3.4453   12.0346   -8.2431 H   0  0  0  0  0  0  0  0  0  0  0  0
   -4.5133   13.2885   -6.4783 H   0  0  0  0  0  0  0  0  0  0  0  0
   -6.7415   12.3119   -6.9097 H   0  0  0  0  0  0  0  0  0  0  0  0
   -2.4535   14.2183   -6.1960 H   0  0  0  0  0  0  0  0  0  0  0  0
   -0.6442   10.5957   -7.5787 H   0  0  0  0  0  0  0  0  0  0  0  0
    1.4518   14.3348   -6.0355 H   0  0  0  0  0  0  0  0  0  0  0  0
    0.1929   15.4840   -6.6021 H   0  0  0  0  0  0  0  0  0  0  0  0
    0.1381   14.8479   -4.9231 H   0  0  0  0  0  0  0  0  0  0  0  0
   -3.3468   15.1789  -12.6576 H   0  0  0  0  0  0  0  0  0  0  0  0
   -3.9603   15.7589  -11.0720 H   0  0  0  0  0  0  0  0  0  0  0  0
   -2.2706   14.7595   -9.8791 H   0  0  0  0  0  0  0  0  0  0  0  0
   -1.8326   12.5779  -11.9435 H   0  0  0  0  0  0  0  0  0  0  0  0
   -1.6269   12.5226  -10.1599 H   0  0  0  0  0  0  0  0  0  0  0  0
   -4.0107   12.5154   -9.7621 H   0  0  0  0  0  0  0  0  0  0  0  0
   -3.9577   11.6228  -11.3200 H   0  0  0  0  0  0  0  0  0  0  0  0
   -0.2836   14.7209  -11.0208 H   0  0  0  0  0  0  0  0  0  0  0  0
  1  2  2  0  0  0  0
  1  4  1  0  0  0  0
  1 12  1  0  0  0  0
  2  6  1  0  0  0  0
  3  4  2  0  0  0  0
  3  5  1  0  0  0  0
  5  6  1  0  0  0  0
  5  9  2  0  0  0  0
  6  7  1  0  0  0  0
  7  8  2  0  0  0  0
  7 10  1  0  0  0  0
  8  9  1  0  0  0  0
 10 14  2  0  0  0  0
 11 12  1  0  0  0  0
 11 26  1  0  0  0  0
 11 29  1  0  0  0  0
 12 13  2  0  0  0  0
 14 15  1  0  0  0  0
 14 19  1  0  0  0  0
 15 16  2  0  0  0  0
 16 17  1  0  0  0  0
 17 18  1  0  0  0  0
 17 20  1  0  0  0  0
 18 19  2  0  0  0  0
 20 21  2  0  0  0  0
 20 24  1  0  0  0  0
 21 22  1  0  0  0  0
 22 23  1  0  0  0  0
 22 25  1  0  0  0  0
 23 24  2  0  0  0  0
 26 27  1  0  0  0  0
 27 28  1  0  0  0  0
 27 30  1  0  0  0  0
 28 29  1  0  0  0  0
  2 31  1  0  0  0  0
  3 32  1  0  0  0  0
  4 33  1  0  0  0  0
  6 34  1  0  0  0  0
 10 35  1  0  0  0  0
 15 36  1  0  0  0  0
 16 37  1  0  0  0  0
 17 38  1  0  0  0  0
 18 39  1  0  0  0  0
 19 40  1  0  0  0  0
 21 41  1  0  0  0  0
 24 42  1  0  0  0  0
 25 43  1  0  0  0  0
 25 44  1  0  0  0  0
 25 45  1  0  0  0  0
 26 46  1  0  0  0  0
 26 47  1  0  0  0  0
 27 48  1  0  0  0  0
 28 49  1  0  0  0  0
 28 50  1  0  0  0  0
 29 51  1  0  0  0  0
 29 52  1  0  0  0  0
 30 53  1  0  0  0  0
M  END
> <Name>
31

> <IC50[uM]>
0.002

$$$$
31
  -OEChem-05192314333D
 Structure written by MMmdl.
 53 57  0     1  0  0  0  0  0999 V2000
   -6.3709   12.3579  -12.0062 C   0  0  0  0  0  0  0  0  0  0  0  0
   -6.5187   11.8083  -10.7296 C   0  0  0  0  0  0  0  0  0  0  0  0
   -7.7194   10.5704  -13.0321 C   0  0  0  0  0  0  0  0  0  0  0  0
   -6.9838   11.7645  -13.1240 C   0  0  0  0  0  0  0  0  0  0  0  0
   -7.8186   10.0073  -11.7576 C   0  0  0  0  0  0  0  0  0  0  0  0
   -7.2434   10.6206  -10.5991 C   0  0  0  0  0  0  0  0  0  0  0  0
   -7.6160    9.7494   -9.5117 C   0  0  0  0  0  0  0  0  0  0  0  0
   -8.2808    8.7336   -9.9894 N   0  0  0  0  0  0  0  0  0  0  0  0
   -8.4141    8.8594  -11.3008 N   0  0  0  0  0  0  0  0  0  0  0  0
   -7.3385    9.8886   -8.0248 C   0  0  0  0  0  0  0  0  0  0  0  0
   -4.3631   13.7190  -11.4993 N   0  0  0  0  0  0  0  0  0  0  0  0
   -5.5500   13.6364  -12.1907 C   0  0  0  0  0  0  0  0  0  0  0  0
   -5.9462   14.5251  -12.9474 O   0  0  0  0  0  0  0  0  0  0  0  0
   -5.9607   10.4852   -7.7356 C   0  0  0  0  0  0  0  0  0  0  0  0
   -4.8097    9.7639   -8.0527 C   0  0  0  0  0  0  0  0  0  0  0  0
   -3.5522   10.3124   -7.8024 C   0  0  0  0  0  0  0  0  0  0  0  0
   -3.4444   11.5885   -7.2376 C   0  0  0  0  0  0  0  0  0  0  0  0
   -4.5952   12.3052   -6.9174 C   0  0  0  0  0  0  0  0  0  0  0  0
   -5.8509   11.7557   -7.1626 C   0  0  0  0  0  0  0  0  0  0  0  0
   -2.1000   12.1783   -6.9759 C   0  0  0  0  0  0  0  0  0  0  0  0
   -1.7654   13.4353   -6.4786 C   0  0  0  0  0  0  0  0  0  0  0  0
   -0.4305   13.4892   -6.4172 N   0  0  0  0  0  0  0  0  0  0  0  0
    0.1699   12.4025   -6.8093 N   0  0  0  0  0  0  0  0  0  0  0  0
   -0.8029   11.5856   -7.1770 C   0  0  0  0  0  0  0  0  0  0  0  0
    0.3883   14.6074   -5.9669 C   0  0  0  0  0  0  0  0  0  0  0  0
   -3.5134   14.9066  -11.6049 C   0  0  0  0  0  0  0  0  0  0  0  0
   -2.2037   14.4678  -10.9376 C   0  0  1  0  0  0  0  0  0  0  0  0
   -2.2231   12.9442  -10.9826 C   0  0  0  0  0  0  0  0  0  0  0  0
   -3.7200   12.5740  -10.8214 C   0  0  0  0  0  0  0  0  0  0  0  0
   -1.0475   15.0410  -11.4860 O   0  0  0  0  0  0  0  0  0  0  0  0
   -6.0839   12.2893   -9.8659 H   0  0  0  0  0  0  0  0  0  0  0  0
   -8.7393   10.7754  -13.3895 H   0  0  0  0  0  0  0  0  0  0  0  0
   -7.2420    9.8299  -13.6907 H   0  0  0  0  0  0  0  0  0  0  0  0
   -6.8858   12.2432  -14.0871 H   0  0  0  0  0  0  0  0  0  0  0  0
   -8.0384    9.5978   -7.2554 H   0  0  0  0  0  0  0  0  0  0  0  0
   -4.8924    8.7808   -8.4920 H   0  0  0  0  0  0  0  0  0  0  0  0
   -2.6611    9.7523   -8.0445 H   0  0  0  0  0  0  0  0  0  0  0  0
   -3.4453   12.0346   -8.2431 H   0  0  0  0  0  0  0  0  0  0  0  0
   -4.5133   13.2885   -6.4783 H   0  0  0  0  0  0  0  0  0  0  0  0
   -6.7415   12.3119   -6.9097 H   0  0  0  0  0  0  0  0  0  0  0  0
   -2.4535   14.2183   -6.1960 H   0  0  0  0  0  0  0  0  0  0  0  0
   -0.6442   10.5957   -7.5787 H   0  0  0  0  0  0  0  0  0  0  0  0
    1.4518   14.3348   -6.0355 H   0  0  0  0  0  0  0  0  0  0  0  0
    0.1929   15.4840   -6.6021 H   0  0  0  0  0  0  0  0  0  0  0  0
    0.1381   14.8479   -4.9231 H   0  0  0  0  0  0  0  0  0  0  0  0
   -3.3468   15.1789  -12.6576 H   0  0  0  0  0  0  0  0  0  0  0  0
   -3.9603   15.7589  -11.0720 H   0  0  0  0  0  0  0  0  0  0  0  0
   -2.2706   14.7595   -9.8791 H   0  0  0  0  0  0  0  0  0  0  0  0
   -1.8326   12.5779  -11.9435 H   0  0  0  0  0  0  0  0  0  0  0  0
   -1.6269   12.5226  -10.1599 H   0  0  0  0  0  0  0  0  0  0  0  0
   -4.0107   12.5154   -9.7621 H   0  0  0  0  0  0  0  0  0  0  0  0
   -3.9577   11.6228  -11.3200 H   0  0  0  0  0  0  0  0  0  0  0  0
   -0.2836   14.7209  -11.0208 H   0  0  0  0  0  0  0  0  0  0  0  0
  1  2  1  0  0  0  0
  1  4  2  0  0  0  0
  1 12  1  0  0  0  0
  2  6  2  0  0  0  0
  3  4  1  0  0  0  0
  3  5  1  0  0  0  0
  5  6  1  0  0  0  0
  5  9  2  0  0  0  0
  6  7  1  0  0  0  0
  7  8  2  0  0  0  0
  7 10  1  0  0  0  0
  8  9  1  0  0  0  0
 10 14  2  0  0  0  0
 11 12  1  0  0  0  0
 11 26  1  0  0  0  0
 11 29  1  0  0  0  0
 12 13  2  0  0  0  0
 14 15  1  0  0  0  0
 14 19  1  0  0  0  0
 15 16  2  0  0  0  0
 16 17  1  0  0  0  0
 17 18  1  0  0  0  0
 17 20  1  0  0  0  0
 18 19  2  0  0  0  0
 20 21  2  0  0  0  0
 20 24  1  0  0  0  0
 21 22  1  0  0  0  0
 22 23  1  0  0  0  0
 22 25  1  0  0  0  0
 23 24  2  0  0  0  0
 26 27  1  0  0  0  0
 27 28  1  0  0  0  0
 27 30  1  0  0  0  0
 28 29  1  0  0  0  0
  2 31  1  0  0  0  0
  3 32  1  0  0  0  0
  3 33  1  0  0  0  0
  4 34  1  0  0  0  0
 10 35  1  0  0  0  0
 15 36  1  0  0  0  0
 16 37  1  0  0  0  0
 17 38  1  0  0  0  0
 18 39  1  0  0  0  0
 19 40  1  0  0  0  0
 21 41  1  0  0  0  0
 24 42  1  0  0  0  0
 25 43  1  0  0  0  0
 25 44  1  0  0  0  0
 25 45  1  0  0  0  0
 26 46  1  0  0  0  0
 26 47  1  0  0  0  0
 27 48  1  0  0  0  0
 28 49  1  0  0  0  0
 28 50  1  0  0  0  0
 29 51  1  0  0  0  0
 29 52  1  0  0  0  0
 30 53  1  0  0  0  0
M  END
> <Name>
31

> <IC50[uM]>
0.002

$$$$
31
  -OEChem-05192314333D
 Structure written by MMmdl.
 53 57  0     1  0  0  0  0  0999 V2000
   -6.3709   12.3579  -12.0062 C   0  0  0  0  0  0  0  0  0  0  0  0
   -6.5187   11.8083  -10.7296 C   0  0  0  0  0  0  0  0  0  0  0  0
   -7.7194   10.5704  -13.0321 C   0  0  0  0  0  0  0  0  0  0  0  0
   -6.9838   11.7645  -13.1240 C   0  0  0  0  0  0  0  0  0  0  0  0
   -7.8186   10.0073  -11.7576 C   0  0  0  0  0  0  0  0  0  0  0  0
   -7.2434   10.6206  -10.5991 C   0  0  0  0  0  0  0  0  0  0  0  0
   -7.6160    9.7494   -9.5117 C   0  0  0  0  0  0  0  0  0  0  0  0
   -8.2808    8.7336   -9.9894 N   0  0  0  0  0  0  0  0  0  0  0  0
   -8.4141    8.8594  -11.3008 N   0  0  0  0  0  0  0  0  0  0  0  0
   -7.3385    9.8886   -8.0248 C   0  0  0  0  0  0  0  0  0  0  0  0
   -4.3631   13.7190  -11.4993 N   0  0  0  0  0  0  0  0  0  0  0  0
   -5.5500   13.6364  -12.1907 C   0  0  0  0  0  0  0  0  0  0  0  0
   -5.9462   14.5251  -12.9474 O   0  0  0  0  0  0  0  0  0  0  0  0
   -5.9607   10.4852   -7.7356 C   0  0  0  0  0  0  0  0  0  0  0  0
   -4.8097    9.7639   -8.0527 C   0  0  0  0  0  0  0  0  0  0  0  0
   -3.5522   10.3124   -7.8024 C   0  0  0  0  0  0  0  0  0  0  0  0
   -3.4444   11.5885   -7.2376 C   0  0  0  0  0  0  0  0  0  0  0  0
   -4.5952   12.3052   -6.9174 C   0  0  0  0  0  0  0  0  0  0  0  0
   -5.8509   11.7557   -7.1626 C   0  0  0  0  0  0  0  0  0  0  0  0
   -2.1000   12.1783   -6.9759 C   0  0  0  0  0  0  0  0  0  0  0  0
   -1.7654   13.4353   -6.4786 C   0  0  0  0  0  0  0  0  0  0  0  0
   -0.4305   13.4892   -6.4172 N   0  0  0  0  0  0  0  0  0  0  0  0
    0.1699   12.4025   -6.8093 N   0  0  0  0  0  0  0  0  0  0  0  0
   -0.8029   11.5856   -7.1770 C   0  0  0  0  0  0  0  0  0  0  0  0
    0.3883   14.6074   -5.9669 C   0  0  0  0  0  0  0  0  0  0  0  0
   -3.5134   14.9066  -11.6049 C   0  0  0  0  0  0  0  0  0  0  0  0
   -2.2037   14.4678  -10.9376 C   0  0  1  0  0  0  0  0  0  0  0  0
   -2.2231   12.9442  -10.9826 C   0  0  0  0  0  0  0  0  0  0  0  0
   -3.7200   12.5740  -10.8214 C   0  0  0  0  0  0  0  0  0  0  0  0
   -1.0475   15.0410  -11.4860 O   0  0  0  0  0  0  0  0  0  0  0  0
   -5.4695   11.7492  -12.1702 H   0  0  0  0  0  0  0  0  0  0  0  0
   -6.0839   12.2893   -9.8659 H   0  0  0  0  0  0  0  0  0  0  0  0
   -8.1807   10.1150  -13.8959 H   0  0  0  0  0  0  0  0  0  0  0  0
   -6.8858   12.2432  -14.0871 H   0  0  0  0  0  0  0  0  0  0  0  0
   -8.0384    9.5978   -7.2554 H   0  0  0  0  0  0  0  0  0  0  0  0
   -4.8924    8.7808   -8.4920 H   0  0  0  0  0  0  0  0  0  0  0  0
   -2.6611    9.7523   -8.0445 H   0  0  0  0  0  0  0  0  0  0  0  0
   -4.5133   13.2885   -6.4783 H   0  0  0  0  0  0  0  0  0  0  0  0
   -6.3764   12.4521   -7.8326 H   0  0  0  0  0  0  0  0  0  0  0  0
   -6.3728   11.7134   -6.1952 H   0  0  0  0  0  0  0  0  0  0  0  0
   -2.4535   14.2183   -6.1960 H   0  0  0  0  0  0  0  0  0  0  0  0
   -0.6442   10.5957   -7.5787 H   0  0  0  0  0  0  0  0  0  0  0  0
    1.4518   14.3348   -6.0355 H   0  0  0  0  0  0  0  0  0  0  0  0
    0.1929   15.4840   -6.6021 H   0  0  0  0  0  0  0  0  0  0  0  0
    0.1381   14.8479   -4.9231 H   0  0  0  0  0  0  0  0  0  0  0  0
   -3.3468   15.1789  -12.6576 H   0  0  0  0  0  0  0  0  0  0  0  0
   -3.9603   15.7589  -11.0720 H   0  0  0  0  0  0  0  0  0  0  0  0
   -2.2706   14.7595   -9.8791 H   0  0  0  0  0  0  0  0  0  0  0  0
   -1.8326   12.5779  -11.9435 H   0  0  0  0  0  0  0  0  0  0  0  0
   -1.6269   12.5226  -10.1599 H   0  0  0  0  0  0  0  0  0  0  0  0
   -4.0107   12.5154   -9.7621 H   0  0  0  0  0  0  0  0  0  0  0  0
   -3.9577   11.6228  -11.3200 H   0  0  0  0  0  0  0  0  0  0  0  0
   -0.2836   14.7209  -11.0208 H   0  0  0  0  0  0  0  0  0  0  0  0
  1  2  1  0  0  0  0
  1  4  1  0  0  0  0
  1 12  1  0  0  0  0
  2  6  2  0  0  0  0
  3  4  2  0  0  0  0
  3  5  1  0  0  0  0
  5  6  1  0  0  0  0
  5  9  2  0  0  0  0
  6  7  1  0  0  0  0
  7  8  2  0  0  0  0
  7 10  1  0  0  0  0
  8  9  1  0  0  0  0
 10 14  2  0  0  0  0
 11 12  1  0  0  0  0
 11 26  1  0  0  0  0
 11 29  1  0  0  0  0
 12 13  2  0  0  0  0
 14 15  1  0  0  0  0
 14 19  1  0  0  0  0
 15 16  2  0  0  0  0
 16 17  1  0  0  0  0
 17 18  2  0  0  0  0
 17 20  1  0  0  0  0
 18 19  1  0  0  0  0
 20 21  2  0  0  0  0
 20 24  1  0  0  0  0
 21 22  1  0  0  0  0
 22 23  1  0  0  0  0
 22 25  1  0  0  0  0
 23 24  2  0  0  0  0
 26 27  1  0  0  0  0
 27 28  1  0  0  0  0
 27 30  1  0  0  0  0
 28 29  1  0  0  0  0
  1 31  1  0  0  0  0
  2 32  1  0  0  0  0
  3 33  1  0  0  0  0
  4 34  1  0  0  0  0
 10 35  1  0  0  0  0
 15 36  1  0  0  0  0
 16 37  1  0  0  0  0
 18 38  1  0  0  0  0
 19 39  1  0  0  0  0
 19 40  1  0  0  0  0
 21 41  1  0  0  0  0
 24 42  1  0  0  0  0
 25 43  1  0  0  0  0
 25 44  1  0  0  0  0
 25 45  1  0  0  0  0
 26 46  1  0  0  0  0
 26 47  1  0  0  0  0
 27 48  1  0  0  0  0
 28 49  1  0  0  0  0
 28 50  1  0  0  0  0
 29 51  1  0  0  0  0
 29 52  1  0  0  0  0
 30 53  1  0  0  0  0
M  END
> <Name>
31

> <IC50[uM]>
0.002

$$$$
31
  -OEChem-05192314333D
 Structure written by MMmdl.
 53 57  0     1  0  0  0  0  0999 V2000
   -6.3709   12.3579  -12.0062 C   0  0  0  0  0  0  0  0  0  0  0  0
   -6.5187   11.8083  -10.7296 C   0  0  0  0  0  0  0  0  0  0  0  0
   -7.7194   10.5704  -13.0321 C   0  0  0  0  0  0  0  0  0  0  0  0
   -6.9838   11.7645  -13.1240 C   0  0  0  0  0  0  0  0  0  0  0  0
   -7.8186   10.0073  -11.7576 C   0  0  0  0  0  0  0  0  0  0  0  0
   -7.2434   10.6206  -10.5991 C   0  0  0  0  0  0  0  0  0  0  0  0
   -7.6160    9.7494   -9.5117 C   0  0  0  0  0  0  0  0  0  0  0  0
   -8.2808    8.7336   -9.9894 N   0  0  0  0  0  0  0  0  0  0  0  0
   -8.4141    8.8594  -11.3008 N   0  0  0  0  0  0  0  0  0  0  0  0
   -7.3385    9.8886   -8.0248 C   0  0  0  0  0  0  0  0  0  0  0  0
   -4.3631   13.7190  -11.4993 N   0  0  0  0  0  0  0  0  0  0  0  0
   -5.5500   13.6364  -12.1907 C   0  0  0  0  0  0  0  0  0  0  0  0
   -5.9462   14.5251  -12.9474 O   0  0  0  0  0  0  0  0  0  0  0  0
   -5.9607   10.4852   -7.7356 C   0  0  0  0  0  0  0  0  0  0  0  0
   -4.8097    9.7639   -8.0527 C   0  0  0  0  0  0  0  0  0  0  0  0
   -3.5522   10.3124   -7.8024 C   0  0  0  0  0  0  0  0  0  0  0  0
   -3.4444   11.5885   -7.2376 C   0  0  0  0  0  0  0  0  0  0  0  0
   -4.5952   12.3052   -6.9174 C   0  0  0  0  0  0  0  0  0  0  0  0
   -5.8509   11.7557   -7.1626 C   0  0  0  0  0  0  0  0  0  0  0  0
   -2.1000   12.1783   -6.9759 C   0  0  0  0  0  0  0  0  0  0  0  0
   -1.7654   13.4353   -6.4786 C   0  0  0  0  0  0  0  0  0  0  0  0
   -0.4305   13.4892   -6.4172 N   0  0  0  0  0  0  0  0  0  0  0  0
    0.1699   12.4025   -6.8093 N   0  0  0  0  0  0  0  0  0  0  0  0
   -0.8029   11.5856   -7.1770 C   0  0  0  0  0  0  0  0  0  0  0  0
    0.3883   14.6074   -5.9669 C   0  0  0  0  0  0  0  0  0  0  0  0
   -3.5134   14.9066  -11.6049 C   0  0  0  0  0  0  0  0  0  0  0  0
   -2.2037   14.4678  -10.9376 C   0  0  1  0  0  0  0  0  0  0  0  0
   -2.2231   12.9442  -10.9826 C   0  0  0  0  0  0  0  0  0  0  0  0
   -3.7200   12.5740  -10.8214 C   0  0  0  0  0  0  0  0  0  0  0  0
   -1.0475   15.0410  -11.4860 O   0  0  0  0  0  0  0  0  0  0  0  0
   -6.0839   12.2893   -9.8659 H   0  0  0  0  0  0  0  0  0  0  0  0
   -8.1807   10.1150  -13.8959 H   0  0  0  0  0  0  0  0  0  0  0  0
   -6.8858   12.2432  -14.0871 H   0  0  0  0  0  0  0  0  0  0  0  0
   -6.3210   10.0404  -10.7489 H   0  0  0  0  0  0  0  0  0  0  0  0
   -8.0384    9.5978   -7.2554 H   0  0  0  0  0  0  0  0  0  0  0  0
   -4.8924    8.7808   -8.4920 H   0  0  0  0  0  0  0  0  0  0  0  0
   -2.6611    9.7523   -8.0445 H   0  0  0  0  0  0  0  0  0  0  0  0
   -4.5133   13.2885   -6.4783 H   0  0  0  0  0  0  0  0  0  0  0  0
   -6.3764   12.4521   -7.8326 H   0  0  0  0  0  0  0  0  0  0  0  0
   -6.3728   11.7134   -6.1952 H   0  0  0  0  0  0  0  0  0  0  0  0
   -2.4535   14.2183   -6.1960 H   0  0  0  0  0  0  0  0  0  0  0  0
   -0.6442   10.5957   -7.5787 H   0  0  0  0  0  0  0  0  0  0  0  0
    1.4518   14.3348   -6.0355 H   0  0  0  0  0  0  0  0  0  0  0  0
    0.1929   15.4840   -6.6021 H   0  0  0  0  0  0  0  0  0  0  0  0
    0.1381   14.8479   -4.9231 H   0  0  0  0  0  0  0  0  0  0  0  0
   -3.3468   15.1789  -12.6576 H   0  0  0  0  0  0  0  0  0  0  0  0
   -3.9603   15.7589  -11.0720 H   0  0  0  0  0  0  0  0  0  0  0  0
   -2.2706   14.7595   -9.8791 H   0  0  0  0  0  0  0  0  0  0  0  0
   -1.8326   12.5779  -11.9435 H   0  0  0  0  0  0  0  0  0  0  0  0
   -1.6269   12.5226  -10.1599 H   0  0  0  0  0  0  0  0  0  0  0  0
   -4.0107   12.5154   -9.7621 H   0  0  0  0  0  0  0  0  0  0  0  0
   -3.9577   11.6228  -11.3200 H   0  0  0  0  0  0  0  0  0  0  0  0
   -0.2836   14.7209  -11.0208 H   0  0  0  0  0  0  0  0  0  0  0  0
  1  2  2  0  0  0  0
  1  4  1  0  0  0  0
  1 12  1  0  0  0  0
  2  6  1  0  0  0  0
  3  4  2  0  0  0  0
  3  5  1  0  0  0  0
  5  6  1  0  0  0  0
  5  9  2  0  0  0  0
  6  7  1  0  0  0  0
  7  8  2  0  0  0  0
  7 10  1  0  0  0  0
  8  9  1  0  0  0  0
 10 14  2  0  0  0  0
 11 12  1  0  0  0  0
 11 26  1  0  0  0  0
 11 29  1  0  0  0  0
 12 13  2  0  0  0  0
 14 15  1  0  0  0  0
 14 19  1  0  0  0  0
 15 16  2  0  0  0  0
 16 17  1  0  0  0  0
 17 18  2  0  0  0  0
 17 20  1  0  0  0  0
 18 19  1  0  0  0  0
 20 21  2  0  0  0  0
 20 24  1  0  0  0  0
 21 22  1  0  0  0  0
 22 23  1  0  0  0  0
 22 25  1  0  0  0  0
 23 24  2  0  0  0  0
 26 27  1  0  0  0  0
 27 28  1  0  0  0  0
 27 30  1  0  0  0  0
 28 29  1  0  0  0  0
  2 31  1  0  0  0  0
  3 32  1  0  0  0  0
  4 33  1  0  0  0  0
  6 34  1  0  0  0  0
 10 35  1  0  0  0  0
 15 36  1  0  0  0  0
 16 37  1  0  0  0  0
 18 38  1  0  0  0  0
 19 39  1  0  0  0  0
 19 40  1  0  0  0  0
 21 41  1  0  0  0  0
 24 42  1  0  0  0  0
 25 43  1  0  0  0  0
 25 44  1  0  0  0  0
 25 45  1  0  0  0  0
 26 46  1  0  0  0  0
 26 47  1  0  0  0  0
 27 48  1  0  0  0  0
 28 49  1  0  0  0  0
 28 50  1  0  0  0  0
 29 51  1  0  0  0  0
 29 52  1  0  0  0  0
 30 53  1  0  0  0  0
M  END
> <Name>
31

> <IC50[uM]>
0.002

$$$$
31
  -OEChem-05192314333D
 Structure written by MMmdl.
 53 57  0     1  0  0  0  0  0999 V2000
   -6.3709   12.3579  -12.0062 C   0  0  0  0  0  0  0  0  0  0  0  0
   -6.5187   11.8083  -10.7296 C   0  0  0  0  0  0  0  0  0  0  0  0
   -7.7194   10.5704  -13.0321 C   0  0  0  0  0  0  0  0  0  0  0  0
   -6.9838   11.7645  -13.1240 C   0  0  0  0  0  0  0  0  0  0  0  0
   -7.8186   10.0073  -11.7576 C   0  0  0  0  0  0  0  0  0  0  0  0
   -7.2434   10.6206  -10.5991 C   0  0  0  0  0  0  0  0  0  0  0  0
   -7.6160    9.7494   -9.5117 C   0  0  0  0  0  0  0  0  0  0  0  0
   -8.2808    8.7336   -9.9894 N   0  0  0  0  0  0  0  0  0  0  0  0
   -8.4141    8.8594  -11.3008 N   0  0  0  0  0  0  0  0  0  0  0  0
   -7.3385    9.8886   -8.0248 C   0  0  0  0  0  0  0  0  0  0  0  0
   -4.3631   13.7190  -11.4993 N   0  0  0  0  0  0  0  0  0  0  0  0
   -5.5500   13.6364  -12.1907 C   0  0  0  0  0  0  0  0  0  0  0  0
   -5.9462   14.5251  -12.9474 O   0  0  0  0  0  0  0  0  0  0  0  0
   -5.9607   10.4852   -7.7356 C   0  0  0  0  0  0  0  0  0  0  0  0
   -4.8097    9.7639   -8.0527 C   0  0  0  0  0  0  0  0  0  0  0  0
   -3.5522   10.3124   -7.8024 C   0  0  0  0  0  0  0  0  0  0  0  0
   -3.4444   11.5885   -7.2376 C   0  0  0  0  0  0  0  0  0  0  0  0
   -4.5952   12.3052   -6.9174 C   0  0  0  0  0  0  0  0  0  0  0  0
   -5.8509   11.7557   -7.1626 C   0  0  0  0  0  0  0  0  0  0  0  0
   -2.1000   12.1783   -6.9759 C   0  0  0  0  0  0  0  0  0  0  0  0
   -1.7654   13.4353   -6.4786 C   0  0  0  0  0  0  0  0  0  0  0  0
   -0.4305   13.4892   -6.4172 N   0  0  0  0  0  0  0  0  0  0  0  0
    0.1699   12.4025   -6.8093 N   0  0  0  0  0  0  0  0  0  0  0  0
   -0.8029   11.5856   -7.1770 C   0  0  0  0  0  0  0  0  0  0  0  0
    0.3883   14.6074   -5.9669 C   0  0  0  0  0  0  0  0  0  0  0  0
   -3.5134   14.9066  -11.6049 C   0  0  0  0  0  0  0  0  0  0  0  0
   -2.2037   14.4678  -10.9376 C   0  0  1  0  0  0  0  0  0  0  0  0
   -2.2231   12.9442  -10.9826 C   0  0  0  0  0  0  0  0  0  0  0  0
   -3.7200   12.5740  -10.8214 C   0  0  0  0  0  0  0  0  0  0  0  0
   -1.0475   15.0410  -11.4860 O   0  0  0  0  0  0  0  0  0  0  0  0
   -6.0839   12.2893   -9.8659 H   0  0  0  0  0  0  0  0  0  0  0  0
   -8.7393   10.7754  -13.3895 H   0  0  0  0  0  0  0  0  0  0  0  0
   -7.2420    9.8299  -13.6907 H   0  0  0  0  0  0  0  0  0  0  0  0
   -6.8858   12.2432  -14.0871 H   0  0  0  0  0  0  0  0  0  0  0  0
   -8.0384    9.5978   -7.2554 H   0  0  0  0  0  0  0  0  0  0  0  0
   -4.8924    8.7808   -8.4920 H   0  0  0  0  0  0  0  0  0  0  0  0
   -2.6611    9.7523   -8.0445 H   0  0  0  0  0  0  0  0  0  0  0  0
   -4.5133   13.2885   -6.4783 H   0  0  0  0  0  0  0  0  0  0  0  0
   -6.3764   12.4521   -7.8326 H   0  0  0  0  0  0  0  0  0  0  0  0
   -6.3728   11.7134   -6.1952 H   0  0  0  0  0  0  0  0  0  0  0  0
   -2.4535   14.2183   -6.1960 H   0  0  0  0  0  0  0  0  0  0  0  0
   -0.6442   10.5957   -7.5787 H   0  0  0  0  0  0  0  0  0  0  0  0
    1.4518   14.3348   -6.0355 H   0  0  0  0  0  0  0  0  0  0  0  0
    0.1929   15.4840   -6.6021 H   0  0  0  0  0  0  0  0  0  0  0  0
    0.1381   14.8479   -4.9231 H   0  0  0  0  0  0  0  0  0  0  0  0
   -3.3468   15.1789  -12.6576 H   0  0  0  0  0  0  0  0  0  0  0  0
   -3.9603   15.7589  -11.0720 H   0  0  0  0  0  0  0  0  0  0  0  0
   -2.2706   14.7595   -9.8791 H   0  0  0  0  0  0  0  0  0  0  0  0
   -1.8326   12.5779  -11.9435 H   0  0  0  0  0  0  0  0  0  0  0  0
   -1.6269   12.5226  -10.1599 H   0  0  0  0  0  0  0  0  0  0  0  0
   -4.0107   12.5154   -9.7621 H   0  0  0  0  0  0  0  0  0  0  0  0
   -3.9577   11.6228  -11.3200 H   0  0  0  0  0  0  0  0  0  0  0  0
   -0.2836   14.7209  -11.0208 H   0  0  0  0  0  0  0  0  0  0  0  0
  1  2  1  0  0  0  0
  1  4  2  0  0  0  0
  1 12  1  0  0  0  0
  2  6  2  0  0  0  0
  3  4  1  0  0  0  0
  3  5  1  0  0  0  0
  5  6  1  0  0  0  0
  5  9  2  0  0  0  0
  6  7  1  0  0  0  0
  7  8  2  0  0  0  0
  7 10  1  0  0  0  0
  8  9  1  0  0  0  0
 10 14  2  0  0  0  0
 11 12  1  0  0  0  0
 11 26  1  0  0  0  0
 11 29  1  0  0  0  0
 12 13  2  0  0  0  0
 14 15  1  0  0  0  0
 14 19  1  0  0  0  0
 15 16  2  0  0  0  0
 16 17  1  0  0  0  0
 17 18  2  0  0  0  0
 17 20  1  0  0  0  0
 18 19  1  0  0  0  0
 20 21  2  0  0  0  0
 20 24  1  0  0  0  0
 21 22  1  0  0  0  0
 22 23  1  0  0  0  0
 22 25  1  0  0  0  0
 23 24  2  0  0  0  0
 26 27  1  0  0  0  0
 27 28  1  0  0  0  0
 27 30  1  0  0  0  0
 28 29  1  0  0  0  0
  2 31  1  0  0  0  0
  3 32  1  0  0  0  0
  3 33  1  0  0  0  0
  4 34  1  0  0  0  0
 10 35  1  0  0  0  0
 15 36  1  0  0  0  0
 16 37  1  0  0  0  0
 18 38  1  0  0  0  0
 19 39  1  0  0  0  0
 19 40  1  0  0  0  0
 21 41  1  0  0  0  0
 24 42  1  0  0  0  0
 25 43  1  0  0  0  0
 25 44  1  0  0  0  0
 25 45  1  0  0  0  0
 26 46  1  0  0  0  0
 26 47  1  0  0  0  0
 27 48  1  0  0  0  0
 28 49  1  0  0  0  0
 28 50  1  0  0  0  0
 29 51  1  0  0  0  0
 29 52  1  0  0  0  0
 30 53  1  0  0  0  0
M  END
> <Name>
31

> <IC50[uM]>
0.002

$$$$
31
  -OEChem-05192314333D
 Structure written by MMmdl.
 53 57  0     1  0  0  0  0  0999 V2000
   -6.3709   12.3579  -12.0062 C   0  0  0  0  0  0  0  0  0  0  0  0
   -6.5187   11.8083  -10.7296 C   0  0  0  0  0  0  0  0  0  0  0  0
   -7.7194   10.5704  -13.0321 C   0  0  0  0  0  0  0  0  0  0  0  0
   -6.9838   11.7645  -13.1240 C   0  0  0  0  0  0  0  0  0  0  0  0
   -7.8186   10.0073  -11.7576 C   0  0  0  0  0  0  0  0  0  0  0  0
   -7.2434   10.6206  -10.5991 C   0  0  0  0  0  0  0  0  0  0  0  0
   -7.6160    9.7494   -9.5117 C   0  0  0  0  0  0  0  0  0  0  0  0
   -8.2808    8.7336   -9.9894 N   0  0  0  0  0  0  0  0  0  0  0  0
   -8.4141    8.8594  -11.3008 N   0  0  0  0  0  0  0  0  0  0  0  0
   -7.3385    9.8886   -8.0248 C   0  0  0  0  0  0  0  0  0  0  0  0
   -4.3631   13.7190  -11.4993 N   0  0  0  0  0  0  0  0  0  0  0  0
   -5.5500   13.6364  -12.1907 C   0  0  0  0  0  0  0  0  0  0  0  0
   -5.9462   14.5251  -12.9474 O   0  0  0  0  0  0  0  0  0  0  0  0
   -5.9607   10.4852   -7.7356 C   0  0  0  0  0  0  0  0  0  0  0  0
   -4.8097    9.7639   -8.0527 C   0  0  0  0  0  0  0  0  0  0  0  0
   -3.5522   10.3124   -7.8024 C   0  0  0  0  0  0  0  0  0  0  0  0
   -3.4444   11.5885   -7.2376 C   0  0  0  0  0  0  0  0  0  0  0  0
   -4.5952   12.3052   -6.9174 C   0  0  0  0  0  0  0  0  0  0  0  0
   -5.8509   11.7557   -7.1626 C   0  0  0  0  0  0  0  0  0  0  0  0
   -2.1000   12.1783   -6.9759 C   0  0  0  0  0  0  0  0  0  0  0  0
   -1.7654   13.4353   -6.4786 C   0  0  0  0  0  0  0  0  0  0  0  0
   -0.4305   13.4892   -6.4172 N   0  0  0  0  0  0  0  0  0  0  0  0
    0.1699   12.4025   -6.8093 N   0  0  0  0  0  0  0  0  0  0  0  0
   -0.8029   11.5856   -7.1770 C   0  0  0  0  0  0  0  0  0  0  0  0
    0.3883   14.6074   -5.9669 C   0  0  0  0  0  0  0  0  0  0  0  0
   -3.5134   14.9066  -11.6049 C   0  0  0  0  0  0  0  0  0  0  0  0
   -2.2037   14.4678  -10.9376 C   0  0  1  0  0  0  0  0  0  0  0  0
   -2.2231   12.9442  -10.9826 C   0  0  0  0  0  0  0  0  0  0  0  0
   -3.7200   12.5740  -10.8214 C   0  0  0  0  0  0  0  0  0  0  0  0
   -1.0475   15.0410  -11.4860 O   0  0  0  0  0  0  0  0  0  0  0  0
   -6.0839   12.2893   -9.8659 H   0  0  0  0  0  0  0  0  0  0  0  0
   -8.1807   10.1150  -13.8959 H   0  0  0  0  0  0  0  0  0  0  0  0
   -6.8858   12.2432  -14.0871 H   0  0  0  0  0  0  0  0  0  0  0  0
   -6.8835    9.4540  -11.9291 H   0  0  0  0  0  0  0  0  0  0  0  0
   -8.0384    9.5978   -7.2554 H   0  0  0  0  0  0  0  0  0  0  0  0
   -4.8924    8.7808   -8.4920 H   0  0  0  0  0  0  0  0  0  0  0  0
   -2.6611    9.7523   -8.0445 H   0  0  0  0  0  0  0  0  0  0  0  0
   -3.4453   12.0346   -8.2431 H   0  0  0  0  0  0  0  0  0  0  0  0
   -4.5133   13.2885   -6.4783 H   0  0  0  0  0  0  0  0  0  0  0  0
   -6.7415   12.3119   -6.9097 H   0  0  0  0  0  0  0  0  0  0  0  0
   -2.4535   14.2183   -6.1960 H   0  0  0  0  0  0  0  0  0  0  0  0
   -0.6442   10.5957   -7.5787 H   0  0  0  0  0  0  0  0  0  0  0  0
    1.4518   14.3348   -6.0355 H   0  0  0  0  0  0  0  0  0  0  0  0
    0.1929   15.4840   -6.6021 H   0  0  0  0  0  0  0  0  0  0  0  0
    0.1381   14.8479   -4.9231 H   0  0  0  0  0  0  0  0  0  0  0  0
   -3.3468   15.1789  -12.6576 H   0  0  0  0  0  0  0  0  0  0  0  0
   -3.9603   15.7589  -11.0720 H   0  0  0  0  0  0  0  0  0  0  0  0
   -2.2706   14.7595   -9.8791 H   0  0  0  0  0  0  0  0  0  0  0  0
   -1.8326   12.5779  -11.9435 H   0  0  0  0  0  0  0  0  0  0  0  0
   -1.6269   12.5226  -10.1599 H   0  0  0  0  0  0  0  0  0  0  0  0
   -4.0107   12.5154   -9.7621 H   0  0  0  0  0  0  0  0  0  0  0  0
   -3.9577   11.6228  -11.3200 H   0  0  0  0  0  0  0  0  0  0  0  0
   -0.2836   14.7209  -11.0208 H   0  0  0  0  0  0  0  0  0  0  0  0
  1  2  2  0  0  0  0
  1  4  1  0  0  0  0
  1 12  1  0  0  0  0
  2  6  1  0  0  0  0
  3  4  2  0  0  0  0
  3  5  1  0  0  0  0
  5  6  1  0  0  0  0
  5  9  1  0  0  0  0
  6  7  2  0  0  0  0
  7  8  1  0  0  0  0
  7 10  1  0  0  0  0
  8  9  2  0  0  0  0
 10 14  2  0  0  0  0
 11 12  1  0  0  0  0
 11 26  1  0  0  0  0
 11 29  1  0  0  0  0
 12 13  2  0  0  0  0
 14 15  1  0  0  0  0
 14 19  1  0  0  0  0
 15 16  2  0  0  0  0
 16 17  1  0  0  0  0
 17 18  1  0  0  0  0
 17 20  1  0  0  0  0
 18 19  2  0  0  0  0
 20 21  2  0  0  0  0
 20 24  1  0  0  0  0
 21 22  1  0  0  0  0
 22 23  1  0  0  0  0
 22 25  1  0  0  0  0
 23 24  2  0  0  0  0
 26 27  1  0  0  0  0
 27 28  1  0  0  0  0
 27 30  1  0  0  0  0
 28 29  1  0  0  0  0
  2 31  1  0  0  0  0
  3 32  1  0  0  0  0
  4 33  1  0  0  0  0
  5 34  1  0  0  0  0
 10 35  1  0  0  0  0
 15 36  1  0  0  0  0
 16 37  1  0  0  0  0
 17 38  1  0  0  0  0
 18 39  1  0  0  0  0
 19 40  1  0  0  0  0
 21 41  1  0  0  0  0
 24 42  1  0  0  0  0
 25 43  1  0  0  0  0
 25 44  1  0  0  0  0
 25 45  1  0  0  0  0
 26 46  1  0  0  0  0
 26 47  1  0  0  0  0
 27 48  1  0  0  0  0
 28 49  1  0  0  0  0
 28 50  1  0  0  0  0
 29 51  1  0  0  0  0
 29 52  1  0  0  0  0
 30 53  1  0  0  0  0
M  END
> <Name>
31

> <IC50[uM]>
0.002

$$$$
31
  -OEChem-05192314333D
 Structure written by MMmdl.
 53 57  0     1  0  0  0  0  0999 V2000
   -6.3709   12.3579  -12.0062 C   0  0  0  0  0  0  0  0  0  0  0  0
   -6.5187   11.8083  -10.7296 C   0  0  0  0  0  0  0  0  0  0  0  0
   -7.7194   10.5704  -13.0321 C   0  0  0  0  0  0  0  0  0  0  0  0
   -6.9838   11.7645  -13.1240 C   0  0  0  0  0  0  0  0  0  0  0  0
   -7.8186   10.0073  -11.7576 C   0  0  0  0  0  0  0  0  0  0  0  0
   -7.2434   10.6206  -10.5991 C   0  0  0  0  0  0  0  0  0  0  0  0
   -7.6160    9.7494   -9.5117 C   0  0  0  0  0  0  0  0  0  0  0  0
   -8.2808    8.7336   -9.9894 N   0  0  0  0  0  0  0  0  0  0  0  0
   -8.4141    8.8594  -11.3008 N   0  0  0  0  0  0  0  0  0  0  0  0
   -7.3385    9.8886   -8.0248 C   0  0  0  0  0  0  0  0  0  0  0  0
   -4.3631   13.7190  -11.4993 N   0  0  0  0  0  0  0  0  0  0  0  0
   -5.5500   13.6364  -12.1907 C   0  0  0  0  0  0  0  0  0  0  0  0
   -5.9462   14.5251  -12.9474 O   0  0  0  0  0  0  0  0  0  0  0  0
   -5.9607   10.4852   -7.7356 C   0  0  0  0  0  0  0  0  0  0  0  0
   -4.8097    9.7639   -8.0527 C   0  0  0  0  0  0  0  0  0  0  0  0
   -3.5522   10.3124   -7.8024 C   0  0  0  0  0  0  0  0  0  0  0  0
   -3.4444   11.5885   -7.2376 C   0  0  0  0  0  0  0  0  0  0  0  0
   -4.5952   12.3052   -6.9174 C   0  0  0  0  0  0  0  0  0  0  0  0
   -5.8509   11.7557   -7.1626 C   0  0  0  0  0  0  0  0  0  0  0  0
   -2.1000   12.1783   -6.9759 C   0  0  0  0  0  0  0  0  0  0  0  0
   -1.7654   13.4353   -6.4786 C   0  0  0  0  0  0  0  0  0  0  0  0
   -0.4305   13.4892   -6.4172 N   0  0  0  0  0  0  0  0  0  0  0  0
    0.1699   12.4025   -6.8093 N   0  0  0  0  0  0  0  0  0  0  0  0
   -0.8029   11.5856   -7.1770 C   0  0  0  0  0  0  0  0  0  0  0  0
    0.3883   14.6074   -5.9669 C   0  0  0  0  0  0  0  0  0  0  0  0
   -3.5134   14.9066  -11.6049 C   0  0  0  0  0  0  0  0  0  0  0  0
   -2.2037   14.4678  -10.9376 C   0  0  1  0  0  0  0  0  0  0  0  0
   -2.2231   12.9442  -10.9826 C   0  0  0  0  0  0  0  0  0  0  0  0
   -3.7200   12.5740  -10.8214 C   0  0  0  0  0  0  0  0  0  0  0  0
   -1.0475   15.0410  -11.4860 O   0  0  0  0  0  0  0  0  0  0  0  0
   -6.0839   12.2893   -9.8659 H   0  0  0  0  0  0  0  0  0  0  0  0
   -8.1807   10.1150  -13.8959 H   0  0  0  0  0  0  0  0  0  0  0  0
   -7.6733   12.5185  -13.5315 H   0  0  0  0  0  0  0  0  0  0  0  0
   -6.1791   11.5735  -13.8492 H   0  0  0  0  0  0  0  0  0  0  0  0
   -8.0384    9.5978   -7.2554 H   0  0  0  0  0  0  0  0  0  0  0  0
   -4.8924    8.7808   -8.4920 H   0  0  0  0  0  0  0  0  0  0  0  0
   -2.6611    9.7523   -8.0445 H   0  0  0  0  0  0  0  0  0  0  0  0
   -3.4453   12.0346   -8.2431 H   0  0  0  0  0  0  0  0  0  0  0  0
   -4.5133   13.2885   -6.4783 H   0  0  0  0  0  0  0  0  0  0  0  0
   -6.7415   12.3119   -6.9097 H   0  0  0  0  0  0  0  0  0  0  0  0
   -2.4535   14.2183   -6.1960 H   0  0  0  0  0  0  0  0  0  0  0  0
   -0.6442   10.5957   -7.5787 H   0  0  0  0  0  0  0  0  0  0  0  0
    1.4518   14.3348   -6.0355 H   0  0  0  0  0  0  0  0  0  0  0  0
    0.1929   15.4840   -6.6021 H   0  0  0  0  0  0  0  0  0  0  0  0
    0.1381   14.8479   -4.9231 H   0  0  0  0  0  0  0  0  0  0  0  0
   -3.3468   15.1789  -12.6576 H   0  0  0  0  0  0  0  0  0  0  0  0
   -3.9603   15.7589  -11.0720 H   0  0  0  0  0  0  0  0  0  0  0  0
   -2.2706   14.7595   -9.8791 H   0  0  0  0  0  0  0  0  0  0  0  0
   -1.8326   12.5779  -11.9435 H   0  0  0  0  0  0  0  0  0  0  0  0
   -1.6269   12.5226  -10.1599 H   0  0  0  0  0  0  0  0  0  0  0  0
   -4.0107   12.5154   -9.7621 H   0  0  0  0  0  0  0  0  0  0  0  0
   -3.9577   11.6228  -11.3200 H   0  0  0  0  0  0  0  0  0  0  0  0
   -0.2836   14.7209  -11.0208 H   0  0  0  0  0  0  0  0  0  0  0  0
  1  2  2  0  0  0  0
  1  4  1  0  0  0  0
  1 12  1  0  0  0  0
  2  6  1  0  0  0  0
  3  4  1  0  0  0  0
  3  5  2  0  0  0  0
  5  6  1  0  0  0  0
  5  9  1  0  0  0  0
  6  7  2  0  0  0  0
  7  8  1  0  0  0  0
  7 10  1  0  0  0  0
  8  9  2  0  0  0  0
 10 14  2  0  0  0  0
 11 12  1  0  0  0  0
 11 26  1  0  0  0  0
 11 29  1  0  0  0  0
 12 13  2  0  0  0  0
 14 15  1  0  0  0  0
 14 19  1  0  0  0  0
 15 16  2  0  0  0  0
 16 17  1  0  0  0  0
 17 18  1  0  0  0  0
 17 20  1  0  0  0  0
 18 19  2  0  0  0  0
 20 21  2  0  0  0  0
 20 24  1  0  0  0  0
 21 22  1  0  0  0  0
 22 23  1  0  0  0  0
 22 25  1  0  0  0  0
 23 24  2  0  0  0  0
 26 27  1  0  0  0  0
 27 28  1  0  0  0  0
 27 30  1  0  0  0  0
 28 29  1  0  0  0  0
  2 31  1  0  0  0  0
  3 32  1  0  0  0  0
  4 33  1  0  0  0  0
  4 34  1  0  0  0  0
 10 35  1  0  0  0  0
 15 36  1  0  0  0  0
 16 37  1  0  0  0  0
 17 38  1  0  0  0  0
 18 39  1  0  0  0  0
 19 40  1  0  0  0  0
 21 41  1  0  0  0  0
 24 42  1  0  0  0  0
 25 43  1  0  0  0  0
 25 44  1  0  0  0  0
 25 45  1  0  0  0  0
 26 46  1  0  0  0  0
 26 47  1  0  0  0  0
 27 48  1  0  0  0  0
 28 49  1  0  0  0  0
 28 50  1  0  0  0  0
 29 51  1  0  0  0  0
 29 52  1  0  0  0  0
 30 53  1  0  0  0  0
M  END
> <Name>
31

> <IC50[uM]>
0.002

$$$$
31
  -OEChem-05192314333D
 Structure written by MMmdl.
 53 57  0     1  0  0  0  0  0999 V2000
   -6.3709   12.3579  -12.0062 C   0  0  0  0  0  0  0  0  0  0  0  0
   -6.5187   11.8083  -10.7296 C   0  0  0  0  0  0  0  0  0  0  0  0
   -7.7194   10.5704  -13.0321 C   0  0  0  0  0  0  0  0  0  0  0  0
   -6.9838   11.7645  -13.1240 C   0  0  0  0  0  0  0  0  0  0  0  0
   -7.8186   10.0073  -11.7576 C   0  0  0  0  0  0  0  0  0  0  0  0
   -7.2434   10.6206  -10.5991 C   0  0  0  0  0  0  0  0  0  0  0  0
   -7.6160    9.7494   -9.5117 C   0  0  0  0  0  0  0  0  0  0  0  0
   -8.2808    8.7336   -9.9894 N   0  0  0  0  0  0  0  0  0  0  0  0
   -8.4141    8.8594  -11.3008 N   0  0  0  0  0  0  0  0  0  0  0  0
   -7.3385    9.8886   -8.0248 C   0  0  0  0  0  0  0  0  0  0  0  0
   -4.3631   13.7190  -11.4993 N   0  0  0  0  0  0  0  0  0  0  0  0
   -5.5500   13.6364  -12.1907 C   0  0  0  0  0  0  0  0  0  0  0  0
   -5.9462   14.5251  -12.9474 O   0  0  0  0  0  0  0  0  0  0  0  0
   -5.9607   10.4852   -7.7356 C   0  0  0  0  0  0  0  0  0  0  0  0
   -4.8097    9.7639   -8.0527 C   0  0  0  0  0  0  0  0  0  0  0  0
   -3.5522   10.3124   -7.8024 C   0  0  0  0  0  0  0  0  0  0  0  0
   -3.4444   11.5885   -7.2376 C   0  0  0  0  0  0  0  0  0  0  0  0
   -4.5952   12.3052   -6.9174 C   0  0  0  0  0  0  0  0  0  0  0  0
   -5.8509   11.7557   -7.1626 C   0  0  0  0  0  0  0  0  0  0  0  0
   -2.1000   12.1783   -6.9759 C   0  0  0  0  0  0  0  0  0  0  0  0
   -1.7654   13.4353   -6.4786 C   0  0  0  0  0  0  0  0  0  0  0  0
   -0.4305   13.4892   -6.4172 N   0  0  0  0  0  0  0  0  0  0  0  0
    0.1699   12.4025   -6.8093 N   0  0  0  0  0  0  0  0  0  0  0  0
   -0.8029   11.5856   -7.1770 C   0  0  0  0  0  0  0  0  0  0  0  0
    0.3883   14.6074   -5.9669 C   0  0  0  0  0  0  0  0  0  0  0  0
   -3.5134   14.9066  -11.6049 C   0  0  0  0  0  0  0  0  0  0  0  0
   -2.2037   14.4678  -10.9376 C   0  0  1  0  0  0  0  0  0  0  0  0
   -2.2231   12.9442  -10.9826 C   0  0  0  0  0  0  0  0  0  0  0  0
   -3.7200   12.5740  -10.8214 C   0  0  0  0  0  0  0  0  0  0  0  0
   -1.0475   15.0410  -11.4860 O   0  0  0  0  0  0  0  0  0  0  0  0
   -6.0839   12.2893   -9.8659 H   0  0  0  0  0  0  0  0  0  0  0  0
   -8.1807   10.1150  -13.8959 H   0  0  0  0  0  0  0  0  0  0  0  0
   -6.8858   12.2432  -14.0871 H   0  0  0  0  0  0  0  0  0  0  0  0
   -6.8835    9.4540  -11.9291 H   0  0  0  0  0  0  0  0  0  0  0  0
   -8.0384    9.5978   -7.2554 H   0  0  0  0  0  0  0  0  0  0  0  0
   -4.8924    8.7808   -8.4920 H   0  0  0  0  0  0  0  0  0  0  0  0
   -2.6611    9.7523   -8.0445 H   0  0  0  0  0  0  0  0  0  0  0  0
   -4.5133   13.2885   -6.4783 H   0  0  0  0  0  0  0  0  0  0  0  0
   -6.3764   12.4521   -7.8326 H   0  0  0  0  0  0  0  0  0  0  0  0
   -6.3728   11.7134   -6.1952 H   0  0  0  0  0  0  0  0  0  0  0  0
   -2.4535   14.2183   -6.1960 H   0  0  0  0  0  0  0  0  0  0  0  0
   -0.6442   10.5957   -7.5787 H   0  0  0  0  0  0  0  0  0  0  0  0
    1.4518   14.3348   -6.0355 H   0  0  0  0  0  0  0  0  0  0  0  0
    0.1929   15.4840   -6.6021 H   0  0  0  0  0  0  0  0  0  0  0  0
    0.1381   14.8479   -4.9231 H   0  0  0  0  0  0  0  0  0  0  0  0
   -3.3468   15.1789  -12.6576 H   0  0  0  0  0  0  0  0  0  0  0  0
   -3.9603   15.7589  -11.0720 H   0  0  0  0  0  0  0  0  0  0  0  0
   -2.2706   14.7595   -9.8791 H   0  0  0  0  0  0  0  0  0  0  0  0
   -1.8326   12.5779  -11.9435 H   0  0  0  0  0  0  0  0  0  0  0  0
   -1.6269   12.5226  -10.1599 H   0  0  0  0  0  0  0  0  0  0  0  0
   -4.0107   12.5154   -9.7621 H   0  0  0  0  0  0  0  0  0  0  0  0
   -3.9577   11.6228  -11.3200 H   0  0  0  0  0  0  0  0  0  0  0  0
   -0.2836   14.7209  -11.0208 H   0  0  0  0  0  0  0  0  0  0  0  0
  1  2  2  0  0  0  0
  1  4  1  0  0  0  0
  1 12  1  0  0  0  0
  2  6  1  0  0  0  0
  3  4  2  0  0  0  0
  3  5  1  0  0  0  0
  5  6  1  0  0  0  0
  5  9  1  0  0  0  0
  6  7  2  0  0  0  0
  7  8  1  0  0  0  0
  7 10  1  0  0  0  0
  8  9  2  0  0  0  0
 10 14  2  0  0  0  0
 11 12  1  0  0  0  0
 11 26  1  0  0  0  0
 11 29  1  0  0  0  0
 12 13  2  0  0  0  0
 14 15  1  0  0  0  0
 14 19  1  0  0  0  0
 15 16  2  0  0  0  0
 16 17  1  0  0  0  0
 17 18  2  0  0  0  0
 17 20  1  0  0  0  0
 18 19  1  0  0  0  0
 20 21  2  0  0  0  0
 20 24  1  0  0  0  0
 21 22  1  0  0  0  0
 22 23  1  0  0  0  0
 22 25  1  0  0  0  0
 23 24  2  0  0  0  0
 26 27  1  0  0  0  0
 27 28  1  0  0  0  0
 27 30  1  0  0  0  0
 28 29  1  0  0  0  0
  2 31  1  0  0  0  0
  3 32  1  0  0  0  0
  4 33  1  0  0  0  0
  5 34  1  0  0  0  0
 10 35  1  0  0  0  0
 15 36  1  0  0  0  0
 16 37  1  0  0  0  0
 18 38  1  0  0  0  0
 19 39  1  0  0  0  0
 19 40  1  0  0  0  0
 21 41  1  0  0  0  0
 24 42  1  0  0  0  0
 25 43  1  0  0  0  0
 25 44  1  0  0  0  0
 25 45  1  0  0  0  0
 26 46  1  0  0  0  0
 26 47  1  0  0  0  0
 27 48  1  0  0  0  0
 28 49  1  0  0  0  0
 28 50  1  0  0  0  0
 29 51  1  0  0  0  0
 29 52  1  0  0  0  0
 30 53  1  0  0  0  0
M  END
> <Name>
31

> <IC50[uM]>
0.002

$$$$
31
  -OEChem-05192314333D
 Structure written by MMmdl.
 53 57  0     1  0  0  0  0  0999 V2000
   -6.3709   12.3579  -12.0062 C   0  0  0  0  0  0  0  0  0  0  0  0
   -6.5187   11.8083  -10.7296 C   0  0  0  0  0  0  0  0  0  0  0  0
   -7.7194   10.5704  -13.0321 C   0  0  0  0  0  0  0  0  0  0  0  0
   -6.9838   11.7645  -13.1240 C   0  0  0  0  0  0  0  0  0  0  0  0
   -7.8186   10.0073  -11.7576 C   0  0  0  0  0  0  0  0  0  0  0  0
   -7.2434   10.6206  -10.5991 C   0  0  0  0  0  0  0  0  0  0  0  0
   -7.6160    9.7494   -9.5117 C   0  0  0  0  0  0  0  0  0  0  0  0
   -8.2808    8.7336   -9.9894 N   0  0  0  0  0  0  0  0  0  0  0  0
   -8.4141    8.8594  -11.3008 N   0  0  0  0  0  0  0  0  0  0  0  0
   -7.3385    9.8886   -8.0248 C   0  0  0  0  0  0  0  0  0  0  0  0
   -4.3631   13.7190  -11.4993 N   0  0  0  0  0  0  0  0  0  0  0  0
   -5.5500   13.6364  -12.1907 C   0  0  0  0  0  0  0  0  0  0  0  0
   -5.9462   14.5251  -12.9474 O   0  0  0  0  0  0  0  0  0  0  0  0
   -5.9607   10.4852   -7.7356 C   0  0  0  0  0  0  0  0  0  0  0  0
   -4.8097    9.7639   -8.0527 C   0  0  0  0  0  0  0  0  0  0  0  0
   -3.5522   10.3124   -7.8024 C   0  0  0  0  0  0  0  0  0  0  0  0
   -3.4444   11.5885   -7.2376 C   0  0  0  0  0  0  0  0  0  0  0  0
   -4.5952   12.3052   -6.9174 C   0  0  0  0  0  0  0  0  0  0  0  0
   -5.8509   11.7557   -7.1626 C   0  0  0  0  0  0  0  0  0  0  0  0
   -2.1000   12.1783   -6.9759 C   0  0  0  0  0  0  0  0  0  0  0  0
   -1.7654   13.4353   -6.4786 C   0  0  0  0  0  0  0  0  0  0  0  0
   -0.4305   13.4892   -6.4172 N   0  0  0  0  0  0  0  0  0  0  0  0
    0.1699   12.4025   -6.8093 N   0  0  0  0  0  0  0  0  0  0  0  0
   -0.8029   11.5856   -7.1770 C   0  0  0  0  0  0  0  0  0  0  0  0
    0.3883   14.6074   -5.9669 C   0  0  0  0  0  0  0  0  0  0  0  0
   -3.5134   14.9066  -11.6049 C   0  0  0  0  0  0  0  0  0  0  0  0
   -2.2037   14.4678  -10.9376 C   0  0  1  0  0  0  0  0  0  0  0  0
   -2.2231   12.9442  -10.9826 C   0  0  0  0  0  0  0  0  0  0  0  0
   -3.7200   12.5740  -10.8214 C   0  0  0  0  0  0  0  0  0  0  0  0
   -1.0475   15.0410  -11.4860 O   0  0  0  0  0  0  0  0  0  0  0  0
   -6.0839   12.2893   -9.8659 H   0  0  0  0  0  0  0  0  0  0  0  0
   -8.1807   10.1150  -13.8959 H   0  0  0  0  0  0  0  0  0  0  0  0
   -7.6733   12.5185  -13.5315 H   0  0  0  0  0  0  0  0  0  0  0  0
   -6.1791   11.5735  -13.8492 H   0  0  0  0  0  0  0  0  0  0  0  0
   -8.0384    9.5978   -7.2554 H   0  0  0  0  0  0  0  0  0  0  0  0
   -4.8924    8.7808   -8.4920 H   0  0  0  0  0  0  0  0  0  0  0  0
   -2.6611    9.7523   -8.0445 H   0  0  0  0  0  0  0  0  0  0  0  0
   -4.5133   13.2885   -6.4783 H   0  0  0  0  0  0  0  0  0  0  0  0
   -6.3764   12.4521   -7.8326 H   0  0  0  0  0  0  0  0  0  0  0  0
   -6.3728   11.7134   -6.1952 H   0  0  0  0  0  0  0  0  0  0  0  0
   -2.4535   14.2183   -6.1960 H   0  0  0  0  0  0  0  0  0  0  0  0
   -0.6442   10.5957   -7.5787 H   0  0  0  0  0  0  0  0  0  0  0  0
    1.4518   14.3348   -6.0355 H   0  0  0  0  0  0  0  0  0  0  0  0
    0.1929   15.4840   -6.6021 H   0  0  0  0  0  0  0  0  0  0  0  0
    0.1381   14.8479   -4.9231 H   0  0  0  0  0  0  0  0  0  0  0  0
   -3.3468   15.1789  -12.6576 H   0  0  0  0  0  0  0  0  0  0  0  0
   -3.9603   15.7589  -11.0720 H   0  0  0  0  0  0  0  0  0  0  0  0
   -2.2706   14.7595   -9.8791 H   0  0  0  0  0  0  0  0  0  0  0  0
   -1.8326   12.5779  -11.9435 H   0  0  0  0  0  0  0  0  0  0  0  0
   -1.6269   12.5226  -10.1599 H   0  0  0  0  0  0  0  0  0  0  0  0
   -4.0107   12.5154   -9.7621 H   0  0  0  0  0  0  0  0  0  0  0  0
   -3.9577   11.6228  -11.3200 H   0  0  0  0  0  0  0  0  0  0  0  0
   -0.2836   14.7209  -11.0208 H   0  0  0  0  0  0  0  0  0  0  0  0
  1  2  2  0  0  0  0
  1  4  1  0  0  0  0
  1 12  1  0  0  0  0
  2  6  1  0  0  0  0
  3  4  1  0  0  0  0
  3  5  2  0  0  0  0
  5  6  1  0  0  0  0
  5  9  1  0  0  0  0
  6  7  2  0  0  0  0
  7  8  1  0  0  0  0
  7 10  1  0  0  0  0
  8  9  2  0  0  0  0
 10 14  2  0  0  0  0
 11 12  1  0  0  0  0
 11 26  1  0  0  0  0
 11 29  1  0  0  0  0
 12 13  2  0  0  0  0
 14 15  1  0  0  0  0
 14 19  1  0  0  0  0
 15 16  2  0  0  0  0
 16 17  1  0  0  0  0
 17 18  2  0  0  0  0
 17 20  1  0  0  0  0
 18 19  1  0  0  0  0
 20 21  2  0  0  0  0
 20 24  1  0  0  0  0
 21 22  1  0  0  0  0
 22 23  1  0  0  0  0
 22 25  1  0  0  0  0
 23 24  2  0  0  0  0
 26 27  1  0  0  0  0
 27 28  1  0  0  0  0
 27 30  1  0  0  0  0
 28 29  1  0  0  0  0
  2 31  1  0  0  0  0
  3 32  1  0  0  0  0
  4 33  1  0  0  0  0
  4 34  1  0  0  0  0
 10 35  1  0  0  0  0
 15 36  1  0  0  0  0
 16 37  1  0  0  0  0
 18 38  1  0  0  0  0
 19 39  1  0  0  0  0
 19 40  1  0  0  0  0
 21 41  1  0  0  0  0
 24 42  1  0  0  0  0
 25 43  1  0  0  0  0
 25 44  1  0  0  0  0
 25 45  1  0  0  0  0
 26 46  1  0  0  0  0
 26 47  1  0  0  0  0
 27 48  1  0  0  0  0
 28 49  1  0  0  0  0
 28 50  1  0  0  0  0
 29 51  1  0  0  0  0
 29 52  1  0  0  0  0
 30 53  1  0  0  0  0
M  END
> <Name>
31

> <IC50[uM]>
0.002

$$$$
31
  -OEChem-05192314333D
 Structure written by MMmdl.
 53 57  0     1  0  0  0  0  0999 V2000
   -6.3709   12.3579  -12.0062 C   0  0  0  0  0  0  0  0  0  0  0  0
   -6.5187   11.8083  -10.7296 C   0  0  0  0  0  0  0  0  0  0  0  0
   -7.7194   10.5704  -13.0321 C   0  0  0  0  0  0  0  0  0  0  0  0
   -6.9838   11.7645  -13.1240 C   0  0  0  0  0  0  0  0  0  0  0  0
   -7.8186   10.0073  -11.7576 C   0  0  0  0  0  0  0  0  0  0  0  0
   -7.2434   10.6206  -10.5991 C   0  0  0  0  0  0  0  0  0  0  0  0
   -7.6160    9.7494   -9.5117 C   0  0  0  0  0  0  0  0  0  0  0  0
   -8.2808    8.7336   -9.9894 N   0  0  0  0  0  0  0  0  0  0  0  0
   -8.4141    8.8594  -11.3008 N   0  0  0  0  0  0  0  0  0  0  0  0
   -7.3385    9.8886   -8.0248 C   0  0  0  0  0  0  0  0  0  0  0  0
   -4.3631   13.7190  -11.4993 N   0  0  0  0  0  0  0  0  0  0  0  0
   -5.5500   13.6364  -12.1907 C   0  0  0  0  0  0  0  0  0  0  0  0
   -5.9462   14.5251  -12.9474 O   0  0  0  0  0  0  0  0  0  0  0  0
   -5.9607   10.4852   -7.7356 C   0  0  0  0  0  0  0  0  0  0  0  0
   -4.8097    9.7639   -8.0527 C   0  0  0  0  0  0  0  0  0  0  0  0
   -3.5522   10.3124   -7.8024 C   0  0  0  0  0  0  0  0  0  0  0  0
   -3.4444   11.5885   -7.2376 C   0  0  0  0  0  0  0  0  0  0  0  0
   -4.5952   12.3052   -6.9174 C   0  0  0  0  0  0  0  0  0  0  0  0
   -5.8509   11.7557   -7.1626 C   0  0  0  0  0  0  0  0  0  0  0  0
   -2.1000   12.1783   -6.9759 C   0  0  0  0  0  0  0  0  0  0  0  0
   -1.7654   13.4353   -6.4786 C   0  0  0  0  0  0  0  0  0  0  0  0
   -0.4305   13.4892   -6.4172 N   0  0  0  0  0  0  0  0  0  0  0  0
    0.1699   12.4025   -6.8093 N   0  0  0  0  0  0  0  0  0  0  0  0
   -0.8029   11.5856   -7.1770 C   0  0  0  0  0  0  0  0  0  0  0  0
    0.3883   14.6074   -5.9669 C   0  0  0  0  0  0  0  0  0  0  0  0
   -3.5134   14.9066  -11.6049 C   0  0  0  0  0  0  0  0  0  0  0  0
   -2.2037   14.4678  -10.9376 C   0  0  1  0  0  0  0  0  0  0  0  0
   -2.2231   12.9442  -10.9826 C   0  0  0  0  0  0  0  0  0  0  0  0
   -3.7200   12.5740  -10.8214 C   0  0  0  0  0  0  0  0  0  0  0  0
   -1.0475   15.0410  -11.4860 O   0  0  0  0  0  0  0  0  0  0  0  0
   -5.5085   11.6180  -10.3381 H   0  0  0  0  0  0  0  0  0  0  0  0
   -7.0175   12.5643  -10.1054 H   0  0  0  0  0  0  0  0  0  0  0  0
   -8.1807   10.1150  -13.8959 H   0  0  0  0  0  0  0  0  0  0  0  0
   -6.8858   12.2432  -14.0871 H   0  0  0  0  0  0  0  0  0  0  0  0
   -8.0384    9.5978   -7.2554 H   0  0  0  0  0  0  0  0  0  0  0  0
   -4.8924    8.7808   -8.4920 H   0  0  0  0  0  0  0  0  0  0  0  0
   -2.6611    9.7523   -8.0445 H   0  0  0  0  0  0  0  0  0  0  0  0
   -3.4453   12.0346   -8.2431 H   0  0  0  0  0  0  0  0  0  0  0  0
   -4.5133   13.2885   -6.4783 H   0  0  0  0  0  0  0  0  0  0  0  0
   -6.7415   12.3119   -6.9097 H   0  0  0  0  0  0  0  0  0  0  0  0
   -2.4535   14.2183   -6.1960 H   0  0  0  0  0  0  0  0  0  0  0  0
   -0.6442   10.5957   -7.5787 H   0  0  0  0  0  0  0  0  0  0  0  0
    1.4518   14.3348   -6.0355 H   0  0  0  0  0  0  0  0  0  0  0  0
    0.1929   15.4840   -6.6021 H   0  0  0  0  0  0  0  0  0  0  0  0
    0.1381   14.8479   -4.9231 H   0  0  0  0  0  0  0  0  0  0  0  0
   -3.3468   15.1789  -12.6576 H   0  0  0  0  0  0  0  0  0  0  0  0
   -3.9603   15.7589  -11.0720 H   0  0  0  0  0  0  0  0  0  0  0  0
   -2.2706   14.7595   -9.8791 H   0  0  0  0  0  0  0  0  0  0  0  0
   -1.8326   12.5779  -11.9435 H   0  0  0  0  0  0  0  0  0  0  0  0
   -1.6269   12.5226  -10.1599 H   0  0  0  0  0  0  0  0  0  0  0  0
   -4.0107   12.5154   -9.7621 H   0  0  0  0  0  0  0  0  0  0  0  0
   -3.9577   11.6228  -11.3200 H   0  0  0  0  0  0  0  0  0  0  0  0
   -0.2836   14.7209  -11.0208 H   0  0  0  0  0  0  0  0  0  0  0  0
  1  2  1  0  0  0  0
  1  4  2  0  0  0  0
  1 12  1  0  0  0  0
  2  6  1  0  0  0  0
  3  4  1  0  0  0  0
  3  5  2  0  0  0  0
  5  6  1  0  0  0  0
  5  9  1  0  0  0  0
  6  7  2  0  0  0  0
  7  8  1  0  0  0  0
  7 10  1  0  0  0  0
  8  9  2  0  0  0  0
 10 14  2  0  0  0  0
 11 12  1  0  0  0  0
 11 26  1  0  0  0  0
 11 29  1  0  0  0  0
 12 13  2  0  0  0  0
 14 15  1  0  0  0  0
 14 19  1  0  0  0  0
 15 16  2  0  0  0  0
 16 17  1  0  0  0  0
 17 18  1  0  0  0  0
 17 20  1  0  0  0  0
 18 19  2  0  0  0  0
 20 21  2  0  0  0  0
 20 24  1  0  0  0  0
 21 22  1  0  0  0  0
 22 23  1  0  0  0  0
 22 25  1  0  0  0  0
 23 24  2  0  0  0  0
 26 27  1  0  0  0  0
 27 28  1  0  0  0  0
 27 30  1  0  0  0  0
 28 29  1  0  0  0  0
  2 31  1  0  0  0  0
  2 32  1  0  0  0  0
  3 33  1  0  0  0  0
  4 34  1  0  0  0  0
 10 35  1  0  0  0  0
 15 36  1  0  0  0  0
 16 37  1  0  0  0  0
 17 38  1  0  0  0  0
 18 39  1  0  0  0  0
 19 40  1  0  0  0  0
 21 41  1  0  0  0  0
 24 42  1  0  0  0  0
 25 43  1  0  0  0  0
 25 44  1  0  0  0  0
 25 45  1  0  0  0  0
 26 46  1  0  0  0  0
 26 47  1  0  0  0  0
 27 48  1  0  0  0  0
 28 49  1  0  0  0  0
 28 50  1  0  0  0  0
 29 51  1  0  0  0  0
 29 52  1  0  0  0  0
 30 53  1  0  0  0  0
M  END
> <Name>
31

> <IC50[uM]>
0.002

$$$$
31
  -OEChem-05192314333D
 Structure written by MMmdl.
 53 57  0     1  0  0  0  0  0999 V2000
   -6.3709   12.3579  -12.0062 C   0  0  0  0  0  0  0  0  0  0  0  0
   -6.5187   11.8083  -10.7296 C   0  0  0  0  0  0  0  0  0  0  0  0
   -7.7194   10.5704  -13.0321 C   0  0  0  0  0  0  0  0  0  0  0  0
   -6.9838   11.7645  -13.1240 C   0  0  0  0  0  0  0  0  0  0  0  0
   -7.8186   10.0073  -11.7576 C   0  0  0  0  0  0  0  0  0  0  0  0
   -7.2434   10.6206  -10.5991 C   0  0  0  0  0  0  0  0  0  0  0  0
   -7.6160    9.7494   -9.5117 C   0  0  0  0  0  0  0  0  0  0  0  0
   -8.2808    8.7336   -9.9894 N   0  0  0  0  0  0  0  0  0  0  0  0
   -8.4141    8.8594  -11.3008 N   0  0  0  0  0  0  0  0  0  0  0  0
   -7.3385    9.8886   -8.0248 C   0  0  0  0  0  0  0  0  0  0  0  0
   -4.3631   13.7190  -11.4993 N   0  0  0  0  0  0  0  0  0  0  0  0
   -5.5500   13.6364  -12.1907 C   0  0  0  0  0  0  0  0  0  0  0  0
   -5.9462   14.5251  -12.9474 O   0  0  0  0  0  0  0  0  0  0  0  0
   -5.9607   10.4852   -7.7356 C   0  0  0  0  0  0  0  0  0  0  0  0
   -4.8097    9.7639   -8.0527 C   0  0  0  0  0  0  0  0  0  0  0  0
   -3.5522   10.3124   -7.8024 C   0  0  0  0  0  0  0  0  0  0  0  0
   -3.4444   11.5885   -7.2376 C   0  0  0  0  0  0  0  0  0  0  0  0
   -4.5952   12.3052   -6.9174 C   0  0  0  0  0  0  0  0  0  0  0  0
   -5.8509   11.7557   -7.1626 C   0  0  0  0  0  0  0  0  0  0  0  0
   -2.1000   12.1783   -6.9759 C   0  0  0  0  0  0  0  0  0  0  0  0
   -1.7654   13.4353   -6.4786 C   0  0  0  0  0  0  0  0  0  0  0  0
   -0.4305   13.4892   -6.4172 N   0  0  0  0  0  0  0  0  0  0  0  0
    0.1699   12.4025   -6.8093 N   0  0  0  0  0  0  0  0  0  0  0  0
   -0.8029   11.5856   -7.1770 C   0  0  0  0  0  0  0  0  0  0  0  0
    0.3883   14.6074   -5.9669 C   0  0  0  0  0  0  0  0  0  0  0  0
   -3.5134   14.9066  -11.6049 C   0  0  0  0  0  0  0  0  0  0  0  0
   -2.2037   14.4678  -10.9376 C   0  0  1  0  0  0  0  0  0  0  0  0
   -2.2231   12.9442  -10.9826 C   0  0  0  0  0  0  0  0  0  0  0  0
   -3.7200   12.5740  -10.8214 C   0  0  0  0  0  0  0  0  0  0  0  0
   -1.0475   15.0410  -11.4860 O   0  0  0  0  0  0  0  0  0  0  0  0
   -5.5085   11.6180  -10.3381 H   0  0  0  0  0  0  0  0  0  0  0  0
   -7.0175   12.5643  -10.1054 H   0  0  0  0  0  0  0  0  0  0  0  0
   -8.1807   10.1150  -13.8959 H   0  0  0  0  0  0  0  0  0  0  0  0
   -6.8858   12.2432  -14.0871 H   0  0  0  0  0  0  0  0  0  0  0  0
   -8.0384    9.5978   -7.2554 H   0  0  0  0  0  0  0  0  0  0  0  0
   -4.8924    8.7808   -8.4920 H   0  0  0  0  0  0  0  0  0  0  0  0
   -2.6611    9.7523   -8.0445 H   0  0  0  0  0  0  0  0  0  0  0  0
   -4.5133   13.2885   -6.4783 H   0  0  0  0  0  0  0  0  0  0  0  0
   -6.3764   12.4521   -7.8326 H   0  0  0  0  0  0  0  0  0  0  0  0
   -6.3728   11.7134   -6.1952 H   0  0  0  0  0  0  0  0  0  0  0  0
   -2.4535   14.2183   -6.1960 H   0  0  0  0  0  0  0  0  0  0  0  0
   -0.6442   10.5957   -7.5787 H   0  0  0  0  0  0  0  0  0  0  0  0
    1.4518   14.3348   -6.0355 H   0  0  0  0  0  0  0  0  0  0  0  0
    0.1929   15.4840   -6.6021 H   0  0  0  0  0  0  0  0  0  0  0  0
    0.1381   14.8479   -4.9231 H   0  0  0  0  0  0  0  0  0  0  0  0
   -3.3468   15.1789  -12.6576 H   0  0  0  0  0  0  0  0  0  0  0  0
   -3.9603   15.7589  -11.0720 H   0  0  0  0  0  0  0  0  0  0  0  0
   -2.2706   14.7595   -9.8791 H   0  0  0  0  0  0  0  0  0  0  0  0
   -1.8326   12.5779  -11.9435 H   0  0  0  0  0  0  0  0  0  0  0  0
   -1.6269   12.5226  -10.1599 H   0  0  0  0  0  0  0  0  0  0  0  0
   -4.0107   12.5154   -9.7621 H   0  0  0  0  0  0  0  0  0  0  0  0
   -3.9577   11.6228  -11.3200 H   0  0  0  0  0  0  0  0  0  0  0  0
   -0.2836   14.7209  -11.0208 H   0  0  0  0  0  0  0  0  0  0  0  0
  1  2  1  0  0  0  0
  1  4  2  0  0  0  0
  1 12  1  0  0  0  0
  2  6  1  0  0  0  0
  3  4  1  0  0  0  0
  3  5  2  0  0  0  0
  5  6  1  0  0  0  0
  5  9  1  0  0  0  0
  6  7  2  0  0  0  0
  7  8  1  0  0  0  0
  7 10  1  0  0  0  0
  8  9  2  0  0  0  0
 10 14  2  0  0  0  0
 11 12  1  0  0  0  0
 11 26  1  0  0  0  0
 11 29  1  0  0  0  0
 12 13  2  0  0  0  0
 14 15  1  0  0  0  0
 14 19  1  0  0  0  0
 15 16  2  0  0  0  0
 16 17  1  0  0  0  0
 17 18  2  0  0  0  0
 17 20  1  0  0  0  0
 18 19  1  0  0  0  0
 20 21  2  0  0  0  0
 20 24  1  0  0  0  0
 21 22  1  0  0  0  0
 22 23  1  0  0  0  0
 22 25  1  0  0  0  0
 23 24  2  0  0  0  0
 26 27  1  0  0  0  0
 27 28  1  0  0  0  0
 27 30  1  0  0  0  0
 28 29  1  0  0  0  0
  2 31  1  0  0  0  0
  2 32  1  0  0  0  0
  3 33  1  0  0  0  0
  4 34  1  0  0  0  0
 10 35  1  0  0  0  0
 15 36  1  0  0  0  0
 16 37  1  0  0  0  0
 18 38  1  0  0  0  0
 19 39  1  0  0  0  0
 19 40  1  0  0  0  0
 21 41  1  0  0  0  0
 24 42  1  0  0  0  0
 25 43  1  0  0  0  0
 25 44  1  0  0  0  0
 25 45  1  0  0  0  0
 26 46  1  0  0  0  0
 26 47  1  0  0  0  0
 27 48  1  0  0  0  0
 28 49  1  0  0  0  0
 28 50  1  0  0  0  0
 29 51  1  0  0  0  0
 29 52  1  0  0  0  0
 30 53  1  0  0  0  0
M  END
> <Name>
31

> <IC50[uM]>
0.002

$$$$
31
  -OEChem-05192314333D
 Structure written by MMmdl.
 53 57  0     1  0  0  0  0  0999 V2000
   -6.3709   12.3579  -12.0062 C   0  0  0  0  0  0  0  0  0  0  0  0
   -6.5187   11.8083  -10.7296 C   0  0  0  0  0  0  0  0  0  0  0  0
   -7.7194   10.5704  -13.0321 C   0  0  0  0  0  0  0  0  0  0  0  0
   -6.9838   11.7645  -13.1240 C   0  0  0  0  0  0  0  0  0  0  0  0
   -7.8186   10.0073  -11.7576 C   0  0  0  0  0  0  0  0  0  0  0  0
   -7.2434   10.6206  -10.5991 C   0  0  0  0  0  0  0  0  0  0  0  0
   -7.6160    9.7494   -9.5117 C   0  0  0  0  0  0  0  0  0  0  0  0
   -8.2808    8.7336   -9.9894 N   0  0  0  0  0  0  0  0  0  0  0  0
   -8.4141    8.8594  -11.3008 N   0  0  0  0  0  0  0  0  0  0  0  0
   -7.3385    9.8886   -8.0248 C   0  0  0  0  0  0  0  0  0  0  0  0
   -4.3631   13.7190  -11.4993 N   0  0  0  0  0  0  0  0  0  0  0  0
   -5.5500   13.6364  -12.1907 C   0  0  0  0  0  0  0  0  0  0  0  0
   -5.9462   14.5251  -12.9474 O   0  0  0  0  0  0  0  0  0  0  0  0
   -5.9607   10.4852   -7.7356 C   0  0  0  0  0  0  0  0  0  0  0  0
   -4.8097    9.7639   -8.0527 C   0  0  0  0  0  0  0  0  0  0  0  0
   -3.5522   10.3124   -7.8024 C   0  0  0  0  0  0  0  0  0  0  0  0
   -3.4444   11.5885   -7.2376 C   0  0  0  0  0  0  0  0  0  0  0  0
   -4.5952   12.3052   -6.9174 C   0  0  0  0  0  0  0  0  0  0  0  0
   -5.8509   11.7557   -7.1626 C   0  0  0  0  0  0  0  0  0  0  0  0
   -2.1000   12.1783   -6.9759 C   0  0  0  0  0  0  0  0  0  0  0  0
   -1.7654   13.4353   -6.4786 C   0  0  0  0  0  0  0  0  0  0  0  0
   -0.4305   13.4892   -6.4172 N   0  0  0  0  0  0  0  0  0  0  0  0
    0.1699   12.4025   -6.8093 N   0  0  0  0  0  0  0  0  0  0  0  0
   -0.8029   11.5856   -7.1770 C   0  0  0  0  0  0  0  0  0  0  0  0
    0.3883   14.6074   -5.9669 C   0  0  0  0  0  0  0  0  0  0  0  0
   -3.5134   14.9066  -11.6049 C   0  0  0  0  0  0  0  0  0  0  0  0
   -2.2037   14.4678  -10.9376 C   0  0  1  0  0  0  0  0  0  0  0  0
   -2.2231   12.9442  -10.9826 C   0  0  0  0  0  0  0  0  0  0  0  0
   -3.7200   12.5740  -10.8214 C   0  0  0  0  0  0  0  0  0  0  0  0
   -1.0475   15.0410  -11.4860 O   0  0  0  0  0  0  0  0  0  0  0  0
   -6.0839   12.2893   -9.8659 H   0  0  0  0  0  0  0  0  0  0  0  0
   -8.1807   10.1150  -13.8959 H   0  0  0  0  0  0  0  0  0  0  0  0
   -6.8858   12.2432  -14.0871 H   0  0  0  0  0  0  0  0  0  0  0  0
   -8.6367    7.9732   -9.4461 H   0  0  0  0  0  0  0  0  0  0  0  0
   -8.0384    9.5978   -7.2554 H   0  0  0  0  0  0  0  0  0  0  0  0
   -5.3242   15.2431  -12.9464 H   0  0  0  0  0  0  0  0  0  0  0  0
   -4.8924    8.7808   -8.4920 H   0  0  0  0  0  0  0  0  0  0  0  0
   -2.6611    9.7523   -8.0445 H   0  0  0  0  0  0  0  0  0  0  0  0
   -4.5133   13.2885   -6.4783 H   0  0  0  0  0  0  0  0  0  0  0  0
   -6.7415   12.3119   -6.9097 H   0  0  0  0  0  0  0  0  0  0  0  0
   -2.4535   14.2183   -6.1960 H   0  0  0  0  0  0  0  0  0  0  0  0
   -0.6442   10.5957   -7.5787 H   0  0  0  0  0  0  0  0  0  0  0  0
    1.4518   14.3348   -6.0355 H   0  0  0  0  0  0  0  0  0  0  0  0
    0.1929   15.4840   -6.6021 H   0  0  0  0  0  0  0  0  0  0  0  0
    0.1381   14.8479   -4.9231 H   0  0  0  0  0  0  0  0  0  0  0  0
   -3.3468   15.1789  -12.6576 H   0  0  0  0  0  0  0  0  0  0  0  0
   -3.9603   15.7589  -11.0720 H   0  0  0  0  0  0  0  0  0  0  0  0
   -2.2706   14.7595   -9.8791 H   0  0  0  0  0  0  0  0  0  0  0  0
   -1.8326   12.5779  -11.9435 H   0  0  0  0  0  0  0  0  0  0  0  0
   -1.6269   12.5226  -10.1599 H   0  0  0  0  0  0  0  0  0  0  0  0
   -4.0107   12.5154   -9.7621 H   0  0  0  0  0  0  0  0  0  0  0  0
   -3.9577   11.6228  -11.3200 H   0  0  0  0  0  0  0  0  0  0  0  0
   -0.2836   14.7209  -11.0208 H   0  0  0  0  0  0  0  0  0  0  0  0
  1  2  1  0  0  0  0
  1  4  1  0  0  0  0
  1 12  2  0  0  0  0
  2  6  2  0  0  0  0
  3  4  2  0  0  0  0
  3  5  1  0  0  0  0
  5  6  1  0  0  0  0
  5  9  2  0  0  0  0
  6  7  1  0  0  0  0
  7  8  1  0  0  0  0
  7 10  2  0  0  0  0
  8  9  1  0  0  0  0
 10 14  1  0  0  0  0
 11 12  1  0  0  0  0
 11 26  1  0  0  0  0
 11 29  1  0  0  0  0
 12 13  1  0  0  0  0
 14 15  2  0  0  0  0
 14 19  1  0  0  0  0
 15 16  1  0  0  0  0
 16 17  2  0  0  0  0
 17 18  1  0  0  0  0
 17 20  1  0  0  0  0
 18 19  2  0  0  0  0
 20 21  2  0  0  0  0
 20 24  1  0  0  0  0
 21 22  1  0  0  0  0
 22 23  1  0  0  0  0
 22 25  1  0  0  0  0
 23 24  2  0  0  0  0
 26 27  1  0  0  0  0
 27 28  1  0  0  0  0
 27 30  1  0  0  0  0
 28 29  1  0  0  0  0
  2 31  1  0  0  0  0
  3 32  1  0  0  0  0
  4 33  1  0  0  0  0
  8 34  1  0  0  0  0
 10 35  1  0  0  0  0
 13 36  1  0  0  0  0
 15 37  1  0  0  0  0
 16 38  1  0  0  0  0
 18 39  1  0  0  0  0
 19 40  1  0  0  0  0
 21 41  1  0  0  0  0
 24 42  1  0  0  0  0
 25 43  1  0  0  0  0
 25 44  1  0  0  0  0
 25 45  1  0  0  0  0
 26 46  1  0  0  0  0
 26 47  1  0  0  0  0
 27 48  1  0  0  0  0
 28 49  1  0  0  0  0
 28 50  1  0  0  0  0
 29 51  1  0  0  0  0
 29 52  1  0  0  0  0
 30 53  1  0  0  0  0
M  END
> <Name>
31

> <IC50[uM]>
0.002

$$$$
31
  -OEChem-05192314333D
 Structure written by MMmdl.
 53 57  0     1  0  0  0  0  0999 V2000
   -6.3709   12.3579  -12.0062 C   0  0  0  0  0  0  0  0  0  0  0  0
   -6.5187   11.8083  -10.7296 C   0  0  0  0  0  0  0  0  0  0  0  0
   -7.7194   10.5704  -13.0321 C   0  0  0  0  0  0  0  0  0  0  0  0
   -6.9838   11.7645  -13.1240 C   0  0  0  0  0  0  0  0  0  0  0  0
   -7.8186   10.0073  -11.7576 C   0  0  0  0  0  0  0  0  0  0  0  0
   -7.2434   10.6206  -10.5991 C   0  0  0  0  0  0  0  0  0  0  0  0
   -7.6160    9.7494   -9.5117 C   0  0  0  0  0  0  0  0  0  0  0  0
   -8.2808    8.7336   -9.9894 N   0  0  0  0  0  0  0  0  0  0  0  0
   -8.4141    8.8594  -11.3008 N   0  0  0  0  0  0  0  0  0  0  0  0
   -7.3385    9.8886   -8.0248 C   0  0  0  0  0  0  0  0  0  0  0  0
   -4.3631   13.7190  -11.4993 N   0  0  0  0  0  0  0  0  0  0  0  0
   -5.5500   13.6364  -12.1907 C   0  0  0  0  0  0  0  0  0  0  0  0
   -5.9462   14.5251  -12.9474 O   0  0  0  0  0  0  0  0  0  0  0  0
   -5.9607   10.4852   -7.7356 C   0  0  0  0  0  0  0  0  0  0  0  0
   -4.8097    9.7639   -8.0527 C   0  0  0  0  0  0  0  0  0  0  0  0
   -3.5522   10.3124   -7.8024 C   0  0  0  0  0  0  0  0  0  0  0  0
   -3.4444   11.5885   -7.2376 C   0  0  0  0  0  0  0  0  0  0  0  0
   -4.5952   12.3052   -6.9174 C   0  0  0  0  0  0  0  0  0  0  0  0
   -5.8509   11.7557   -7.1626 C   0  0  0  0  0  0  0  0  0  0  0  0
   -2.1000   12.1783   -6.9759 C   0  0  0  0  0  0  0  0  0  0  0  0
   -1.7654   13.4353   -6.4786 C   0  0  0  0  0  0  0  0  0  0  0  0
   -0.4305   13.4892   -6.4172 N   0  0  0  0  0  0  0  0  0  0  0  0
    0.1699   12.4025   -6.8093 N   0  0  0  0  0  0  0  0  0  0  0  0
   -0.8029   11.5856   -7.1770 C   0  0  0  0  0  0  0  0  0  0  0  0
    0.3883   14.6074   -5.9669 C   0  0  0  0  0  0  0  0  0  0  0  0
   -3.5134   14.9066  -11.6049 C   0  0  0  0  0  0  0  0  0  0  0  0
   -2.2037   14.4678  -10.9376 C   0  0  1  0  0  0  0  0  0  0  0  0
   -2.2231   12.9442  -10.9826 C   0  0  0  0  0  0  0  0  0  0  0  0
   -3.7200   12.5740  -10.8214 C   0  0  0  0  0  0  0  0  0  0  0  0
   -1.0475   15.0410  -11.4860 O   0  0  0  0  0  0  0  0  0  0  0  0
   -6.0839   12.2893   -9.8659 H   0  0  0  0  0  0  0  0  0  0  0  0
   -8.1807   10.1150  -13.8959 H   0  0  0  0  0  0  0  0  0  0  0  0
   -6.8858   12.2432  -14.0871 H   0  0  0  0  0  0  0  0  0  0  0  0
   -8.0384    9.5978   -7.2554 H   0  0  0  0  0  0  0  0  0  0  0  0
   -6.0807   14.1058  -11.3493 H   0  0  0  0  0  0  0  0  0  0  0  0
   -5.3242   15.2431  -12.9464 H   0  0  0  0  0  0  0  0  0  0  0  0
   -4.8924    8.7808   -8.4920 H   0  0  0  0  0  0  0  0  0  0  0  0
   -2.6611    9.7523   -8.0445 H   0  0  0  0  0  0  0  0  0  0  0  0
   -4.5133   13.2885   -6.4783 H   0  0  0  0  0  0  0  0  0  0  0  0
   -6.7415   12.3119   -6.9097 H   0  0  0  0  0  0  0  0  0  0  0  0
   -2.4535   14.2183   -6.1960 H   0  0  0  0  0  0  0  0  0  0  0  0
   -0.6442   10.5957   -7.5787 H   0  0  0  0  0  0  0  0  0  0  0  0
    1.4518   14.3348   -6.0355 H   0  0  0  0  0  0  0  0  0  0  0  0
    0.1929   15.4840   -6.6021 H   0  0  0  0  0  0  0  0  0  0  0  0
    0.1381   14.8479   -4.9231 H   0  0  0  0  0  0  0  0  0  0  0  0
   -3.3468   15.1789  -12.6576 H   0  0  0  0  0  0  0  0  0  0  0  0
   -3.9603   15.7589  -11.0720 H   0  0  0  0  0  0  0  0  0  0  0  0
   -2.2706   14.7595   -9.8791 H   0  0  0  0  0  0  0  0  0  0  0  0
   -1.8326   12.5779  -11.9435 H   0  0  0  0  0  0  0  0  0  0  0  0
   -1.6269   12.5226  -10.1599 H   0  0  0  0  0  0  0  0  0  0  0  0
   -4.0107   12.5154   -9.7621 H   0  0  0  0  0  0  0  0  0  0  0  0
   -3.9577   11.6228  -11.3200 H   0  0  0  0  0  0  0  0  0  0  0  0
   -0.2836   14.7209  -11.0208 H   0  0  0  0  0  0  0  0  0  0  0  0
  1  2  2  0  0  0  0
  1  4  1  0  0  0  0
  1 12  1  0  0  0  0
  2  6  1  0  0  0  0
  3  4  2  0  0  0  0
  3  5  1  0  0  0  0
  5  6  2  0  0  0  0
  5  9  1  0  0  0  0
  6  7  1  0  0  0  0
  7  8  1  0  0  0  0
  7 10  2  0  0  0  0
  8  9  2  0  0  0  0
 10 14  1  0  0  0  0
 11 12  1  0  0  0  0
 11 26  1  0  0  0  0
 11 29  1  0  0  0  0
 12 13  1  0  0  0  0
 14 15  2  0  0  0  0
 14 19  1  0  0  0  0
 15 16  1  0  0  0  0
 16 17  2  0  0  0  0
 17 18  1  0  0  0  0
 17 20  1  0  0  0  0
 18 19  2  0  0  0  0
 20 21  2  0  0  0  0
 20 24  1  0  0  0  0
 21 22  1  0  0  0  0
 22 23  1  0  0  0  0
 22 25  1  0  0  0  0
 23 24  2  0  0  0  0
 26 27  1  0  0  0  0
 27 28  1  0  0  0  0
 27 30  1  0  0  0  0
 28 29  1  0  0  0  0
  2 31  1  0  0  0  0
  3 32  1  0  0  0  0
  4 33  1  0  0  0  0
 10 34  1  0  0  0  0
 12 35  1  0  0  0  0
 13 36  1  0  0  0  0
 15 37  1  0  0  0  0
 16 38  1  0  0  0  0
 18 39  1  0  0  0  0
 19 40  1  0  0  0  0
 21 41  1  0  0  0  0
 24 42  1  0  0  0  0
 25 43  1  0  0  0  0
 25 44  1  0  0  0  0
 25 45  1  0  0  0  0
 26 46  1  0  0  0  0
 26 47  1  0  0  0  0
 27 48  1  0  0  0  0
 28 49  1  0  0  0  0
 28 50  1  0  0  0  0
 29 51  1  0  0  0  0
 29 52  1  0  0  0  0
 30 53  1  0  0  0  0
M  END
> <Name>
31

> <IC50[uM]>
0.002

$$$$
31
  -OEChem-05192314333D
 Structure written by MMmdl.
 53 57  0     1  0  0  0  0  0999 V2000
   -6.3709   12.3579  -12.0062 C   0  0  0  0  0  0  0  0  0  0  0  0
   -6.5187   11.8083  -10.7296 C   0  0  0  0  0  0  0  0  0  0  0  0
   -7.7194   10.5704  -13.0321 C   0  0  0  0  0  0  0  0  0  0  0  0
   -6.9838   11.7645  -13.1240 C   0  0  0  0  0  0  0  0  0  0  0  0
   -7.8186   10.0073  -11.7576 C   0  0  0  0  0  0  0  0  0  0  0  0
   -7.2434   10.6206  -10.5991 C   0  0  0  0  0  0  0  0  0  0  0  0
   -7.6160    9.7494   -9.5117 C   0  0  0  0  0  0  0  0  0  0  0  0
   -8.2808    8.7336   -9.9894 N   0  0  0  0  0  0  0  0  0  0  0  0
   -8.4141    8.8594  -11.3008 N   0  0  0  0  0  0  0  0  0  0  0  0
   -7.3385    9.8886   -8.0248 C   0  0  0  0  0  0  0  0  0  0  0  0
   -4.3631   13.7190  -11.4993 N   0  0  0  0  0  0  0  0  0  0  0  0
   -5.5500   13.6364  -12.1907 C   0  0  0  0  0  0  0  0  0  0  0  0
   -5.9462   14.5251  -12.9474 O   0  0  0  0  0  0  0  0  0  0  0  0
   -5.9607   10.4852   -7.7356 C   0  0  0  0  0  0  0  0  0  0  0  0
   -4.8097    9.7639   -8.0527 C   0  0  0  0  0  0  0  0  0  0  0  0
   -3.5522   10.3124   -7.8024 C   0  0  0  0  0  0  0  0  0  0  0  0
   -3.4444   11.5885   -7.2376 C   0  0  0  0  0  0  0  0  0  0  0  0
   -4.5952   12.3052   -6.9174 C   0  0  0  0  0  0  0  0  0  0  0  0
   -5.8509   11.7557   -7.1626 C   0  0  0  0  0  0  0  0  0  0  0  0
   -2.1000   12.1783   -6.9759 C   0  0  0  0  0  0  0  0  0  0  0  0
   -1.7654   13.4353   -6.4786 C   0  0  0  0  0  0  0  0  0  0  0  0
   -0.4305   13.4892   -6.4172 N   0  0  0  0  0  0  0  0  0  0  0  0
    0.1699   12.4025   -6.8093 N   0  0  0  0  0  0  0  0  0  0  0  0
   -0.8029   11.5856   -7.1770 C   0  0  0  0  0  0  0  0  0  0  0  0
    0.3883   14.6074   -5.9669 C   0  0  0  0  0  0  0  0  0  0  0  0
   -3.5134   14.9066  -11.6049 C   0  0  0  0  0  0  0  0  0  0  0  0
   -2.2037   14.4678  -10.9376 C   0  0  1  0  0  0  0  0  0  0  0  0
   -2.2231   12.9442  -10.9826 C   0  0  0  0  0  0  0  0  0  0  0  0
   -3.7200   12.5740  -10.8214 C   0  0  0  0  0  0  0  0  0  0  0  0
   -1.0475   15.0410  -11.4860 O   0  0  0  0  0  0  0  0  0  0  0  0
   -6.0839   12.2893   -9.8659 H   0  0  0  0  0  0  0  0  0  0  0  0
   -8.1807   10.1150  -13.8959 H   0  0  0  0  0  0  0  0  0  0  0  0
   -6.8858   12.2432  -14.0871 H   0  0  0  0  0  0  0  0  0  0  0  0
   -8.1050   10.5425   -7.5834 H   0  0  0  0  0  0  0  0  0  0  0  0
   -7.3952    8.8926   -7.5614 H   0  0  0  0  0  0  0  0  0  0  0  0
   -5.3242   15.2431  -12.9464 H   0  0  0  0  0  0  0  0  0  0  0  0
   -4.8924    8.7808   -8.4920 H   0  0  0  0  0  0  0  0  0  0  0  0
   -2.6611    9.7523   -8.0445 H   0  0  0  0  0  0  0  0  0  0  0  0
   -4.5133   13.2885   -6.4783 H   0  0  0  0  0  0  0  0  0  0  0  0
   -6.7415   12.3119   -6.9097 H   0  0  0  0  0  0  0  0  0  0  0  0
   -2.4535   14.2183   -6.1960 H   0  0  0  0  0  0  0  0  0  0  0  0
   -0.6442   10.5957   -7.5787 H   0  0  0  0  0  0  0  0  0  0  0  0
    1.4518   14.3348   -6.0355 H   0  0  0  0  0  0  0  0  0  0  0  0
    0.1929   15.4840   -6.6021 H   0  0  0  0  0  0  0  0  0  0  0  0
    0.1381   14.8479   -4.9231 H   0  0  0  0  0  0  0  0  0  0  0  0
   -3.3468   15.1789  -12.6576 H   0  0  0  0  0  0  0  0  0  0  0  0
   -3.9603   15.7589  -11.0720 H   0  0  0  0  0  0  0  0  0  0  0  0
   -2.2706   14.7595   -9.8791 H   0  0  0  0  0  0  0  0  0  0  0  0
   -1.8326   12.5779  -11.9435 H   0  0  0  0  0  0  0  0  0  0  0  0
   -1.6269   12.5226  -10.1599 H   0  0  0  0  0  0  0  0  0  0  0  0
   -4.0107   12.5154   -9.7621 H   0  0  0  0  0  0  0  0  0  0  0  0
   -3.9577   11.6228  -11.3200 H   0  0  0  0  0  0  0  0  0  0  0  0
   -0.2836   14.7209  -11.0208 H   0  0  0  0  0  0  0  0  0  0  0  0
  1  2  1  0  0  0  0
  1  4  1  0  0  0  0
  1 12  2  0  0  0  0
  2  6  2  0  0  0  0
  3  4  2  0  0  0  0
  3  5  1  0  0  0  0
  5  6  1  0  0  0  0
  5  9  2  0  0  0  0
  6  7  1  0  0  0  0
  7  8  2  0  0  0  0
  7 10  1  0  0  0  0
  8  9  1  0  0  0  0
 10 14  1  0  0  0  0
 11 12  1  0  0  0  0
 11 26  1  0  0  0  0
 11 29  1  0  0  0  0
 12 13  1  0  0  0  0
 14 15  2  0  0  0  0
 14 19  1  0  0  0  0
 15 16  1  0  0  0  0
 16 17  2  0  0  0  0
 17 18  1  0  0  0  0
 17 20  1  0  0  0  0
 18 19  2  0  0  0  0
 20 21  2  0  0  0  0
 20 24  1  0  0  0  0
 21 22  1  0  0  0  0
 22 23  1  0  0  0  0
 22 25  1  0  0  0  0
 23 24  2  0  0  0  0
 26 27  1  0  0  0  0
 27 28  1  0  0  0  0
 27 30  1  0  0  0  0
 28 29  1  0  0  0  0
  2 31  1  0  0  0  0
  3 32  1  0  0  0  0
  4 33  1  0  0  0  0
 10 34  1  0  0  0  0
 10 35  1  0  0  0  0
 13 36  1  0  0  0  0
 15 37  1  0  0  0  0
 16 38  1  0  0  0  0
 18 39  1  0  0  0  0
 19 40  1  0  0  0  0
 21 41  1  0  0  0  0
 24 42  1  0  0  0  0
 25 43  1  0  0  0  0
 25 44  1  0  0  0  0
 25 45  1  0  0  0  0
 26 46  1  0  0  0  0
 26 47  1  0  0  0  0
 27 48  1  0  0  0  0
 28 49  1  0  0  0  0
 28 50  1  0  0  0  0
 29 51  1  0  0  0  0
 29 52  1  0  0  0  0
 30 53  1  0  0  0  0
M  END
> <Name>
31

> <IC50[uM]>
0.002

$$$$
31
  -OEChem-05192314333D
 Structure written by MMmdl.
 53 57  0     1  0  0  0  0  0999 V2000
   -6.3709   12.3579  -12.0062 C   0  0  0  0  0  0  0  0  0  0  0  0
   -6.5187   11.8083  -10.7296 C   0  0  0  0  0  0  0  0  0  0  0  0
   -7.7194   10.5704  -13.0321 C   0  0  0  0  0  0  0  0  0  0  0  0
   -6.9838   11.7645  -13.1240 C   0  0  0  0  0  0  0  0  0  0  0  0
   -7.8186   10.0073  -11.7576 C   0  0  0  0  0  0  0  0  0  0  0  0
   -7.2434   10.6206  -10.5991 C   0  0  0  0  0  0  0  0  0  0  0  0
   -7.6160    9.7494   -9.5117 C   0  0  0  0  0  0  0  0  0  0  0  0
   -8.2808    8.7336   -9.9894 N   0  0  0  0  0  0  0  0  0  0  0  0
   -8.4141    8.8594  -11.3008 N   0  0  0  0  0  0  0  0  0  0  0  0
   -7.3385    9.8886   -8.0248 C   0  0  0  0  0  0  0  0  0  0  0  0
   -4.3631   13.7190  -11.4993 N   0  0  0  0  0  0  0  0  0  0  0  0
   -5.5500   13.6364  -12.1907 C   0  0  0  0  0  0  0  0  0  0  0  0
   -5.9462   14.5251  -12.9474 O   0  0  0  0  0  0  0  0  0  0  0  0
   -5.9607   10.4852   -7.7356 C   0  0  0  0  0  0  0  0  0  0  0  0
   -4.8097    9.7639   -8.0527 C   0  0  0  0  0  0  0  0  0  0  0  0
   -3.5522   10.3124   -7.8024 C   0  0  0  0  0  0  0  0  0  0  0  0
   -3.4444   11.5885   -7.2376 C   0  0  0  0  0  0  0  0  0  0  0  0
   -4.5952   12.3052   -6.9174 C   0  0  0  0  0  0  0  0  0  0  0  0
   -5.8509   11.7557   -7.1626 C   0  0  0  0  0  0  0  0  0  0  0  0
   -2.1000   12.1783   -6.9759 C   0  0  0  0  0  0  0  0  0  0  0  0
   -1.7654   13.4353   -6.4786 C   0  0  0  0  0  0  0  0  0  0  0  0
   -0.4305   13.4892   -6.4172 N   0  0  0  0  0  0  0  0  0  0  0  0
    0.1699   12.4025   -6.8093 N   0  0  0  0  0  0  0  0  0  0  0  0
   -0.8029   11.5856   -7.1770 C   0  0  0  0  0  0  0  0  0  0  0  0
    0.3883   14.6074   -5.9669 C   0  0  0  0  0  0  0  0  0  0  0  0
   -3.5134   14.9066  -11.6049 C   0  0  0  0  0  0  0  0  0  0  0  0
   -2.2037   14.4678  -10.9376 C   0  0  1  0  0  0  0  0  0  0  0  0
   -2.2231   12.9442  -10.9826 C   0  0  0  0  0  0  0  0  0  0  0  0
   -3.7200   12.5740  -10.8214 C   0  0  0  0  0  0  0  0  0  0  0  0
   -1.0475   15.0410  -11.4860 O   0  0  0  0  0  0  0  0  0  0  0  0
   -6.0839   12.2893   -9.8659 H   0  0  0  0  0  0  0  0  0  0  0  0
   -8.1807   10.1150  -13.8959 H   0  0  0  0  0  0  0  0  0  0  0  0
   -6.8858   12.2432  -14.0871 H   0  0  0  0  0  0  0  0  0  0  0  0
   -8.0384    9.5978   -7.2554 H   0  0  0  0  0  0  0  0  0  0  0  0
   -5.3242   15.2431  -12.9464 H   0  0  0  0  0  0  0  0  0  0  0  0
   -4.8924    8.7808   -8.4920 H   0  0  0  0  0  0  0  0  0  0  0  0
   -2.6611    9.7523   -8.0445 H   0  0  0  0  0  0  0  0  0  0  0  0
   -4.5133   13.2885   -6.4783 H   0  0  0  0  0  0  0  0  0  0  0  0
   -6.7415   12.3119   -6.9097 H   0  0  0  0  0  0  0  0  0  0  0  0
   -2.1446   14.2201   -7.1496 H   0  0  0  0  0  0  0  0  0  0  0  0
   -2.1954   13.5713   -5.4753 H   0  0  0  0  0  0  0  0  0  0  0  0
   -0.6442   10.5957   -7.5787 H   0  0  0  0  0  0  0  0  0  0  0  0
    1.4518   14.3348   -6.0355 H   0  0  0  0  0  0  0  0  0  0  0  0
    0.1929   15.4840   -6.6021 H   0  0  0  0  0  0  0  0  0  0  0  0
    0.1381   14.8479   -4.9231 H   0  0  0  0  0  0  0  0  0  0  0  0
   -3.3468   15.1789  -12.6576 H   0  0  0  0  0  0  0  0  0  0  0  0
   -3.9603   15.7589  -11.0720 H   0  0  0  0  0  0  0  0  0  0  0  0
   -2.2706   14.7595   -9.8791 H   0  0  0  0  0  0  0  0  0  0  0  0
   -1.8326   12.5779  -11.9435 H   0  0  0  0  0  0  0  0  0  0  0  0
   -1.6269   12.5226  -10.1599 H   0  0  0  0  0  0  0  0  0  0  0  0
   -4.0107   12.5154   -9.7621 H   0  0  0  0  0  0  0  0  0  0  0  0
   -3.9577   11.6228  -11.3200 H   0  0  0  0  0  0  0  0  0  0  0  0
   -0.2836   14.7209  -11.0208 H   0  0  0  0  0  0  0  0  0  0  0  0
  1  2  1  0  0  0  0
  1  4  1  0  0  0  0
  1 12  2  0  0  0  0
  2  6  2  0  0  0  0
  3  4  2  0  0  0  0
  3  5  1  0  0  0  0
  5  6  1  0  0  0  0
  5  9  2  0  0  0  0
  6  7  1  0  0  0  0
  7  8  2  0  0  0  0
  7 10  1  0  0  0  0
  8  9  1  0  0  0  0
 10 14  2  0  0  0  0
 11 12  1  0  0  0  0
 11 26  1  0  0  0  0
 11 29  1  0  0  0  0
 12 13  1  0  0  0  0
 14 15  1  0  0  0  0
 14 19  1  0  0  0  0
 15 16  2  0  0  0  0
 16 17  1  0  0  0  0
 17 18  1  0  0  0  0
 17 20  2  0  0  0  0
 18 19  2  0  0  0  0
 20 21  1  0  0  0  0
 20 24  1  0  0  0  0
 21 22  1  0  0  0  0
 22 23  1  0  0  0  0
 22 25  1  0  0  0  0
 23 24  2  0  0  0  0
 26 27  1  0  0  0  0
 27 28  1  0  0  0  0
 27 30  1  0  0  0  0
 28 29  1  0  0  0  0
  2 31  1  0  0  0  0
  3 32  1  0  0  0  0
  4 33  1  0  0  0  0
 10 34  1  0  0  0  0
 13 35  1  0  0  0  0
 15 36  1  0  0  0  0
 16 37  1  0  0  0  0
 18 38  1  0  0  0  0
 19 39  1  0  0  0  0
 21 40  1  0  0  0  0
 21 41  1  0  0  0  0
 24 42  1  0  0  0  0
 25 43  1  0  0  0  0
 25 44  1  0  0  0  0
 25 45  1  0  0  0  0
 26 46  1  0  0  0  0
 26 47  1  0  0  0  0
 27 48  1  0  0  0  0
 28 49  1  0  0  0  0
 28 50  1  0  0  0  0
 29 51  1  0  0  0  0
 29 52  1  0  0  0  0
 30 53  1  0  0  0  0
M  END
> <Name>
31

> <IC50[uM]>
0.002

$$$$
31
  -OEChem-05192314333D
 Structure written by MMmdl.
 53 57  0     1  0  0  0  0  0999 V2000
   -6.3709   12.3579  -12.0062 C   0  0  0  0  0  0  0  0  0  0  0  0
   -6.5187   11.8083  -10.7296 C   0  0  0  0  0  0  0  0  0  0  0  0
   -7.7194   10.5704  -13.0321 C   0  0  0  0  0  0  0  0  0  0  0  0
   -6.9838   11.7645  -13.1240 C   0  0  0  0  0  0  0  0  0  0  0  0
   -7.8186   10.0073  -11.7576 C   0  0  0  0  0  0  0  0  0  0  0  0
   -7.2434   10.6206  -10.5991 C   0  0  0  0  0  0  0  0  0  0  0  0
   -7.6160    9.7494   -9.5117 C   0  0  0  0  0  0  0  0  0  0  0  0
   -8.2808    8.7336   -9.9894 N   0  0  0  0  0  0  0  0  0  0  0  0
   -8.4141    8.8594  -11.3008 N   0  0  0  0  0  0  0  0  0  0  0  0
   -7.3385    9.8886   -8.0248 C   0  0  0  0  0  0  0  0  0  0  0  0
   -4.3631   13.7190  -11.4993 N   0  0  0  0  0  0  0  0  0  0  0  0
   -5.5500   13.6364  -12.1907 C   0  0  0  0  0  0  0  0  0  0  0  0
   -5.9462   14.5251  -12.9474 O   0  0  0  0  0  0  0  0  0  0  0  0
   -5.9607   10.4852   -7.7356 C   0  0  0  0  0  0  0  0  0  0  0  0
   -4.8097    9.7639   -8.0527 C   0  0  0  0  0  0  0  0  0  0  0  0
   -3.5522   10.3124   -7.8024 C   0  0  0  0  0  0  0  0  0  0  0  0
   -3.4444   11.5885   -7.2376 C   0  0  0  0  0  0  0  0  0  0  0  0
   -4.5952   12.3052   -6.9174 C   0  0  0  0  0  0  0  0  0  0  0  0
   -5.8509   11.7557   -7.1626 C   0  0  0  0  0  0  0  0  0  0  0  0
   -2.1000   12.1783   -6.9759 C   0  0  0  0  0  0  0  0  0  0  0  0
   -1.7654   13.4353   -6.4786 C   0  0  0  0  0  0  0  0  0  0  0  0
   -0.4305   13.4892   -6.4172 N   0  0  0  0  0  0  0  0  0  0  0  0
    0.1699   12.4025   -6.8093 N   0  0  0  0  0  0  0  0  0  0  0  0
   -0.8029   11.5856   -7.1770 C   0  0  0  0  0  0  0  0  0  0  0  0
    0.3883   14.6074   -5.9669 C   0  0  0  0  0  0  0  0  0  0  0  0
   -3.5134   14.9066  -11.6049 C   0  0  0  0  0  0  0  0  0  0  0  0
   -2.2037   14.4678  -10.9376 C   0  0  1  0  0  0  0  0  0  0  0  0
   -2.2231   12.9442  -10.9826 C   0  0  0  0  0  0  0  0  0  0  0  0
   -3.7200   12.5740  -10.8214 C   0  0  0  0  0  0  0  0  0  0  0  0
   -1.0475   15.0410  -11.4860 O   0  0  0  0  0  0  0  0  0  0  0  0
   -6.0839   12.2893   -9.8659 H   0  0  0  0  0  0  0  0  0  0  0  0
   -8.1807   10.1150  -13.8959 H   0  0  0  0  0  0  0  0  0  0  0  0
   -6.8858   12.2432  -14.0871 H   0  0  0  0  0  0  0  0  0  0  0  0
   -6.8835    9.4540  -11.9291 H   0  0  0  0  0  0  0  0  0  0  0  0
   -8.0384    9.5978   -7.2554 H   0  0  0  0  0  0  0  0  0  0  0  0
   -5.3242   15.2431  -12.9464 H   0  0  0  0  0  0  0  0  0  0  0  0
   -4.8924    8.7808   -8.4920 H   0  0  0  0  0  0  0  0  0  0  0  0
   -2.6611    9.7523   -8.0445 H   0  0  0  0  0  0  0  0  0  0  0  0
   -4.5133   13.2885   -6.4783 H   0  0  0  0  0  0  0  0  0  0  0  0
   -6.7415   12.3119   -6.9097 H   0  0  0  0  0  0  0  0  0  0  0  0
   -2.4535   14.2183   -6.1960 H   0  0  0  0  0  0  0  0  0  0  0  0
   -0.6442   10.5957   -7.5787 H   0  0  0  0  0  0  0  0  0  0  0  0
    1.4518   14.3348   -6.0355 H   0  0  0  0  0  0  0  0  0  0  0  0
    0.1929   15.4840   -6.6021 H   0  0  0  0  0  0  0  0  0  0  0  0
    0.1381   14.8479   -4.9231 H   0  0  0  0  0  0  0  0  0  0  0  0
   -3.3468   15.1789  -12.6576 H   0  0  0  0  0  0  0  0  0  0  0  0
   -3.9603   15.7589  -11.0720 H   0  0  0  0  0  0  0  0  0  0  0  0
   -2.2706   14.7595   -9.8791 H   0  0  0  0  0  0  0  0  0  0  0  0
   -1.8326   12.5779  -11.9435 H   0  0  0  0  0  0  0  0  0  0  0  0
   -1.6269   12.5226  -10.1599 H   0  0  0  0  0  0  0  0  0  0  0  0
   -4.0107   12.5154   -9.7621 H   0  0  0  0  0  0  0  0  0  0  0  0
   -3.9577   11.6228  -11.3200 H   0  0  0  0  0  0  0  0  0  0  0  0
   -0.2836   14.7209  -11.0208 H   0  0  0  0  0  0  0  0  0  0  0  0
  1  2  1  0  0  0  0
  1  4  1  0  0  0  0
  1 12  2  0  0  0  0
  2  6  2  0  0  0  0
  3  4  2  0  0  0  0
  3  5  1  0  0  0  0
  5  6  1  0  0  0  0
  5  9  1  0  0  0  0
  6  7  1  0  0  0  0
  7  8  1  0  0  0  0
  7 10  2  0  0  0  0
  8  9  2  0  0  0  0
 10 14  1  0  0  0  0
 11 12  1  0  0  0  0
 11 26  1  0  0  0  0
 11 29  1  0  0  0  0
 12 13  1  0  0  0  0
 14 15  2  0  0  0  0
 14 19  1  0  0  0  0
 15 16  1  0  0  0  0
 16 17  2  0  0  0  0
 17 18  1  0  0  0  0
 17 20  1  0  0  0  0
 18 19  2  0  0  0  0
 20 21  2  0  0  0  0
 20 24  1  0  0  0  0
 21 22  1  0  0  0  0
 22 23  1  0  0  0  0
 22 25  1  0  0  0  0
 23 24  2  0  0  0  0
 26 27  1  0  0  0  0
 27 28  1  0  0  0  0
 27 30  1  0  0  0  0
 28 29  1  0  0  0  0
  2 31  1  0  0  0  0
  3 32  1  0  0  0  0
  4 33  1  0  0  0  0
  5 34  1  0  0  0  0
 10 35  1  0  0  0  0
 13 36  1  0  0  0  0
 15 37  1  0  0  0  0
 16 38  1  0  0  0  0
 18 39  1  0  0  0  0
 19 40  1  0  0  0  0
 21 41  1  0  0  0  0
 24 42  1  0  0  0  0
 25 43  1  0  0  0  0
 25 44  1  0  0  0  0
 25 45  1  0  0  0  0
 26 46  1  0  0  0  0
 26 47  1  0  0  0  0
 27 48  1  0  0  0  0
 28 49  1  0  0  0  0
 28 50  1  0  0  0  0
 29 51  1  0  0  0  0
 29 52  1  0  0  0  0
 30 53  1  0  0  0  0
M  END
> <Name>
31

> <IC50[uM]>
0.002

$$$$
31
  -OEChem-05192314333D
 Structure written by MMmdl.
 53 57  0     1  0  0  0  0  0999 V2000
   -6.3709   12.3579  -12.0062 C   0  0  0  0  0  0  0  0  0  0  0  0
   -6.5187   11.8083  -10.7296 C   0  0  0  0  0  0  0  0  0  0  0  0
   -7.7194   10.5704  -13.0321 C   0  0  0  0  0  0  0  0  0  0  0  0
   -6.9838   11.7645  -13.1240 C   0  0  0  0  0  0  0  0  0  0  0  0
   -7.8186   10.0073  -11.7576 C   0  0  0  0  0  0  0  0  0  0  0  0
   -7.2434   10.6206  -10.5991 C   0  0  0  0  0  0  0  0  0  0  0  0
   -7.6160    9.7494   -9.5117 C   0  0  0  0  0  0  0  0  0  0  0  0
   -8.2808    8.7336   -9.9894 N   0  0  0  0  0  0  0  0  0  0  0  0
   -8.4141    8.8594  -11.3008 N   0  0  0  0  0  0  0  0  0  0  0  0
   -7.3385    9.8886   -8.0248 C   0  0  0  0  0  0  0  0  0  0  0  0
   -4.3631   13.7190  -11.4993 N   0  0  0  0  0  0  0  0  0  0  0  0
   -5.5500   13.6364  -12.1907 C   0  0  0  0  0  0  0  0  0  0  0  0
   -5.9462   14.5251  -12.9474 O   0  0  0  0  0  0  0  0  0  0  0  0
   -5.9607   10.4852   -7.7356 C   0  0  0  0  0  0  0  0  0  0  0  0
   -4.8097    9.7639   -8.0527 C   0  0  0  0  0  0  0  0  0  0  0  0
   -3.5522   10.3124   -7.8024 C   0  0  0  0  0  0  0  0  0  0  0  0
   -3.4444   11.5885   -7.2376 C   0  0  0  0  0  0  0  0  0  0  0  0
   -4.5952   12.3052   -6.9174 C   0  0  0  0  0  0  0  0  0  0  0  0
   -5.8509   11.7557   -7.1626 C   0  0  0  0  0  0  0  0  0  0  0  0
   -2.1000   12.1783   -6.9759 C   0  0  0  0  0  0  0  0  0  0  0  0
   -1.7654   13.4353   -6.4786 C   0  0  0  0  0  0  0  0  0  0  0  0
   -0.4305   13.4892   -6.4172 N   0  0  0  0  0  0  0  0  0  0  0  0
    0.1699   12.4025   -6.8093 N   0  0  0  0  0  0  0  0  0  0  0  0
   -0.8029   11.5856   -7.1770 C   0  0  0  0  0  0  0  0  0  0  0  0
    0.3883   14.6074   -5.9669 C   0  0  0  0  0  0  0  0  0  0  0  0
   -3.5134   14.9066  -11.6049 C   0  0  0  0  0  0  0  0  0  0  0  0
   -2.2037   14.4678  -10.9376 C   0  0  1  0  0  0  0  0  0  0  0  0
   -2.2231   12.9442  -10.9826 C   0  0  0  0  0  0  0  0  0  0  0  0
   -3.7200   12.5740  -10.8214 C   0  0  0  0  0  0  0  0  0  0  0  0
   -1.0475   15.0410  -11.4860 O   0  0  0  0  0  0  0  0  0  0  0  0
   -6.0839   12.2893   -9.8659 H   0  0  0  0  0  0  0  0  0  0  0  0
   -8.1807   10.1150  -13.8959 H   0  0  0  0  0  0  0  0  0  0  0  0
   -7.6733   12.5185  -13.5315 H   0  0  0  0  0  0  0  0  0  0  0  0
   -6.1791   11.5735  -13.8492 H   0  0  0  0  0  0  0  0  0  0  0  0
   -8.0384    9.5978   -7.2554 H   0  0  0  0  0  0  0  0  0  0  0  0
   -5.3242   15.2431  -12.9464 H   0  0  0  0  0  0  0  0  0  0  0  0
   -4.8924    8.7808   -8.4920 H   0  0  0  0  0  0  0  0  0  0  0  0
   -2.6611    9.7523   -8.0445 H   0  0  0  0  0  0  0  0  0  0  0  0
   -4.5133   13.2885   -6.4783 H   0  0  0  0  0  0  0  0  0  0  0  0
   -6.7415   12.3119   -6.9097 H   0  0  0  0  0  0  0  0  0  0  0  0
   -2.4535   14.2183   -6.1960 H   0  0  0  0  0  0  0  0  0  0  0  0
   -0.6442   10.5957   -7.5787 H   0  0  0  0  0  0  0  0  0  0  0  0
    1.4518   14.3348   -6.0355 H   0  0  0  0  0  0  0  0  0  0  0  0
    0.1929   15.4840   -6.6021 H   0  0  0  0  0  0  0  0  0  0  0  0
    0.1381   14.8479   -4.9231 H   0  0  0  0  0  0  0  0  0  0  0  0
   -3.3468   15.1789  -12.6576 H   0  0  0  0  0  0  0  0  0  0  0  0
   -3.9603   15.7589  -11.0720 H   0  0  0  0  0  0  0  0  0  0  0  0
   -2.2706   14.7595   -9.8791 H   0  0  0  0  0  0  0  0  0  0  0  0
   -1.8326   12.5779  -11.9435 H   0  0  0  0  0  0  0  0  0  0  0  0
   -1.6269   12.5226  -10.1599 H   0  0  0  0  0  0  0  0  0  0  0  0
   -4.0107   12.5154   -9.7621 H   0  0  0  0  0  0  0  0  0  0  0  0
   -3.9577   11.6228  -11.3200 H   0  0  0  0  0  0  0  0  0  0  0  0
   -0.2836   14.7209  -11.0208 H   0  0  0  0  0  0  0  0  0  0  0  0
  1  2  1  0  0  0  0
  1  4  1  0  0  0  0
  1 12  2  0  0  0  0
  2  6  2  0  0  0  0
  3  4  1  0  0  0  0
  3  5  2  0  0  0  0
  5  6  1  0  0  0  0
  5  9  1  0  0  0  0
  6  7  1  0  0  0  0
  7  8  1  0  0  0  0
  7 10  2  0  0  0  0
  8  9  2  0  0  0  0
 10 14  1  0  0  0  0
 11 12  1  0  0  0  0
 11 26  1  0  0  0  0
 11 29  1  0  0  0  0
 12 13  1  0  0  0  0
 14 15  2  0  0  0  0
 14 19  1  0  0  0  0
 15 16  1  0  0  0  0
 16 17  2  0  0  0  0
 17 18  1  0  0  0  0
 17 20  1  0  0  0  0
 18 19  2  0  0  0  0
 20 21  2  0  0  0  0
 20 24  1  0  0  0  0
 21 22  1  0  0  0  0
 22 23  1  0  0  0  0
 22 25  1  0  0  0  0
 23 24  2  0  0  0  0
 26 27  1  0  0  0  0
 27 28  1  0  0  0  0
 27 30  1  0  0  0  0
 28 29  1  0  0  0  0
  2 31  1  0  0  0  0
  3 32  1  0  0  0  0
  4 33  1  0  0  0  0
  4 34  1  0  0  0  0
 10 35  1  0  0  0  0
 13 36  1  0  0  0  0
 15 37  1  0  0  0  0
 16 38  1  0  0  0  0
 18 39  1  0  0  0  0
 19 40  1  0  0  0  0
 21 41  1  0  0  0  0
 24 42  1  0  0  0  0
 25 43  1  0  0  0  0
 25 44  1  0  0  0  0
 25 45  1  0  0  0  0
 26 46  1  0  0  0  0
 26 47  1  0  0  0  0
 27 48  1  0  0  0  0
 28 49  1  0  0  0  0
 28 50  1  0  0  0  0
 29 51  1  0  0  0  0
 29 52  1  0  0  0  0
 30 53  1  0  0  0  0
M  END
> <Name>
31

> <IC50[uM]>
0.002

$$$$
31
  -OEChem-05192314333D
 Structure written by MMmdl.
 53 57  0     1  0  0  0  0  0999 V2000
   -6.3709   12.3579  -12.0062 C   0  0  0  0  0  0  0  0  0  0  0  0
   -6.5187   11.8083  -10.7296 C   0  0  0  0  0  0  0  0  0  0  0  0
   -7.7194   10.5704  -13.0321 C   0  0  0  0  0  0  0  0  0  0  0  0
   -6.9838   11.7645  -13.1240 C   0  0  0  0  0  0  0  0  0  0  0  0
   -7.8186   10.0073  -11.7576 C   0  0  0  0  0  0  0  0  0  0  0  0
   -7.2434   10.6206  -10.5991 C   0  0  0  0  0  0  0  0  0  0  0  0
   -7.6160    9.7494   -9.5117 C   0  0  0  0  0  0  0  0  0  0  0  0
   -8.2808    8.7336   -9.9894 N   0  0  0  0  0  0  0  0  0  0  0  0
   -8.4141    8.8594  -11.3008 N   0  0  0  0  0  0  0  0  0  0  0  0
   -7.3385    9.8886   -8.0248 C   0  0  0  0  0  0  0  0  0  0  0  0
   -4.3631   13.7190  -11.4993 N   0  0  0  0  0  0  0  0  0  0  0  0
   -5.5500   13.6364  -12.1907 C   0  0  0  0  0  0  0  0  0  0  0  0
   -5.9462   14.5251  -12.9474 O   0  0  0  0  0  0  0  0  0  0  0  0
   -5.9607   10.4852   -7.7356 C   0  0  0  0  0  0  0  0  0  0  0  0
   -4.8097    9.7639   -8.0527 C   0  0  0  0  0  0  0  0  0  0  0  0
   -3.5522   10.3124   -7.8024 C   0  0  0  0  0  0  0  0  0  0  0  0
   -3.4444   11.5885   -7.2376 C   0  0  0  0  0  0  0  0  0  0  0  0
   -4.5952   12.3052   -6.9174 C   0  0  0  0  0  0  0  0  0  0  0  0
   -5.8509   11.7557   -7.1626 C   0  0  0  0  0  0  0  0  0  0  0  0
   -2.1000   12.1783   -6.9759 C   0  0  0  0  0  0  0  0  0  0  0  0
   -1.7654   13.4353   -6.4786 C   0  0  0  0  0  0  0  0  0  0  0  0
   -0.4305   13.4892   -6.4172 N   0  0  0  0  0  0  0  0  0  0  0  0
    0.1699   12.4025   -6.8093 N   0  0  0  0  0  0  0  0  0  0  0  0
   -0.8029   11.5856   -7.1770 C   0  0  0  0  0  0  0  0  0  0  0  0
    0.3883   14.6074   -5.9669 C   0  0  0  0  0  0  0  0  0  0  0  0
   -3.5134   14.9066  -11.6049 C   0  0  0  0  0  0  0  0  0  0  0  0
   -2.2037   14.4678  -10.9376 C   0  0  1  0  0  0  0  0  0  0  0  0
   -2.2231   12.9442  -10.9826 C   0  0  0  0  0  0  0  0  0  0  0  0
   -3.7200   12.5740  -10.8214 C   0  0  0  0  0  0  0  0  0  0  0  0
   -1.0475   15.0410  -11.4860 O   0  0  0  0  0  0  0  0  0  0  0  0
   -5.5085   11.6180  -10.3381 H   0  0  0  0  0  0  0  0  0  0  0  0
   -7.0175   12.5643  -10.1054 H   0  0  0  0  0  0  0  0  0  0  0  0
   -8.1807   10.1150  -13.8959 H   0  0  0  0  0  0  0  0  0  0  0  0
   -6.8858   12.2432  -14.0871 H   0  0  0  0  0  0  0  0  0  0  0  0
   -8.0384    9.5978   -7.2554 H   0  0  0  0  0  0  0  0  0  0  0  0
   -5.3242   15.2431  -12.9464 H   0  0  0  0  0  0  0  0  0  0  0  0
   -4.8924    8.7808   -8.4920 H   0  0  0  0  0  0  0  0  0  0  0  0
   -2.6611    9.7523   -8.0445 H   0  0  0  0  0  0  0  0  0  0  0  0
   -4.5133   13.2885   -6.4783 H   0  0  0  0  0  0  0  0  0  0  0  0
   -6.7415   12.3119   -6.9097 H   0  0  0  0  0  0  0  0  0  0  0  0
   -2.4535   14.2183   -6.1960 H   0  0  0  0  0  0  0  0  0  0  0  0
   -0.6442   10.5957   -7.5787 H   0  0  0  0  0  0  0  0  0  0  0  0
    1.4518   14.3348   -6.0355 H   0  0  0  0  0  0  0  0  0  0  0  0
    0.1929   15.4840   -6.6021 H   0  0  0  0  0  0  0  0  0  0  0  0
    0.1381   14.8479   -4.9231 H   0  0  0  0  0  0  0  0  0  0  0  0
   -3.3468   15.1789  -12.6576 H   0  0  0  0  0  0  0  0  0  0  0  0
   -3.9603   15.7589  -11.0720 H   0  0  0  0  0  0  0  0  0  0  0  0
   -2.2706   14.7595   -9.8791 H   0  0  0  0  0  0  0  0  0  0  0  0
   -1.8326   12.5779  -11.9435 H   0  0  0  0  0  0  0  0  0  0  0  0
   -1.6269   12.5226  -10.1599 H   0  0  0  0  0  0  0  0  0  0  0  0
   -4.0107   12.5154   -9.7621 H   0  0  0  0  0  0  0  0  0  0  0  0
   -3.9577   11.6228  -11.3200 H   0  0  0  0  0  0  0  0  0  0  0  0
   -0.2836   14.7209  -11.0208 H   0  0  0  0  0  0  0  0  0  0  0  0
  1  2  1  0  0  0  0
  1  4  1  0  0  0  0
  1 12  2  0  0  0  0
  2  6  1  0  0  0  0
  3  4  2  0  0  0  0
  3  5  1  0  0  0  0
  5  6  2  0  0  0  0
  5  9  1  0  0  0  0
  6  7  1  0  0  0  0
  7  8  1  0  0  0  0
  7 10  2  0  0  0  0
  8  9  2  0  0  0  0
 10 14  1  0  0  0  0
 11 12  1  0  0  0  0
 11 26  1  0  0  0  0
 11 29  1  0  0  0  0
 12 13  1  0  0  0  0
 14 15  2  0  0  0  0
 14 19  1  0  0  0  0
 15 16  1  0  0  0  0
 16 17  2  0  0  0  0
 17 18  1  0  0  0  0
 17 20  1  0  0  0  0
 18 19  2  0  0  0  0
 20 21  2  0  0  0  0
 20 24  1  0  0  0  0
 21 22  1  0  0  0  0
 22 23  1  0  0  0  0
 22 25  1  0  0  0  0
 23 24  2  0  0  0  0
 26 27  1  0  0  0  0
 27 28  1  0  0  0  0
 27 30  1  0  0  0  0
 28 29  1  0  0  0  0
  2 31  1  0  0  0  0
  2 32  1  0  0  0  0
  3 33  1  0  0  0  0
  4 34  1  0  0  0  0
 10 35  1  0  0  0  0
 13 36  1  0  0  0  0
 15 37  1  0  0  0  0
 16 38  1  0  0  0  0
 18 39  1  0  0  0  0
 19 40  1  0  0  0  0
 21 41  1  0  0  0  0
 24 42  1  0  0  0  0
 25 43  1  0  0  0  0
 25 44  1  0  0  0  0
 25 45  1  0  0  0  0
 26 46  1  0  0  0  0
 26 47  1  0  0  0  0
 27 48  1  0  0  0  0
 28 49  1  0  0  0  0
 28 50  1  0  0  0  0
 29 51  1  0  0  0  0
 29 52  1  0  0  0  0
 30 53  1  0  0  0  0
M  END
> <Name>
31

> <IC50[uM]>
0.002

$$$$
31
  -OEChem-05192314333D
 Structure written by MMmdl.
 53 57  0     1  0  0  0  0  0999 V2000
   -6.3709   12.3579  -12.0062 C   0  0  0  0  0  0  0  0  0  0  0  0
   -6.5187   11.8083  -10.7296 C   0  0  0  0  0  0  0  0  0  0  0  0
   -7.7194   10.5704  -13.0321 C   0  0  0  0  0  0  0  0  0  0  0  0
   -6.9838   11.7645  -13.1240 C   0  0  0  0  0  0  0  0  0  0  0  0
   -7.8186   10.0073  -11.7576 C   0  0  0  0  0  0  0  0  0  0  0  0
   -7.2434   10.6206  -10.5991 C   0  0  0  0  0  0  0  0  0  0  0  0
   -7.6160    9.7494   -9.5117 C   0  0  0  0  0  0  0  0  0  0  0  0
   -8.2808    8.7336   -9.9894 N   0  0  0  0  0  0  0  0  0  0  0  0
   -8.4141    8.8594  -11.3008 N   0  0  0  0  0  0  0  0  0  0  0  0
   -7.3385    9.8886   -8.0248 C   0  0  0  0  0  0  0  0  0  0  0  0
   -4.3631   13.7190  -11.4993 N   0  0  0  0  0  0  0  0  0  0  0  0
   -5.5500   13.6364  -12.1907 C   0  0  0  0  0  0  0  0  0  0  0  0
   -5.9462   14.5251  -12.9474 O   0  0  0  0  0  0  0  0  0  0  0  0
   -5.9607   10.4852   -7.7356 C   0  0  0  0  0  0  0  0  0  0  0  0
   -4.8097    9.7639   -8.0527 C   0  0  0  0  0  0  0  0  0  0  0  0
   -3.5522   10.3124   -7.8024 C   0  0  0  0  0  0  0  0  0  0  0  0
   -3.4444   11.5885   -7.2376 C   0  0  0  0  0  0  0  0  0  0  0  0
   -4.5952   12.3052   -6.9174 C   0  0  0  0  0  0  0  0  0  0  0  0
   -5.8509   11.7557   -7.1626 C   0  0  0  0  0  0  0  0  0  0  0  0
   -2.1000   12.1783   -6.9759 C   0  0  0  0  0  0  0  0  0  0  0  0
   -1.7654   13.4353   -6.4786 C   0  0  0  0  0  0  0  0  0  0  0  0
   -0.4305   13.4892   -6.4172 N   0  0  0  0  0  0  0  0  0  0  0  0
    0.1699   12.4025   -6.8093 N   0  0  0  0  0  0  0  0  0  0  0  0
   -0.8029   11.5856   -7.1770 C   0  0  0  0  0  0  0  0  0  0  0  0
    0.3883   14.6074   -5.9669 C   0  0  0  0  0  0  0  0  0  0  0  0
   -3.5134   14.9066  -11.6049 C   0  0  0  0  0  0  0  0  0  0  0  0
   -2.2037   14.4678  -10.9376 C   0  0  1  0  0  0  0  0  0  0  0  0
   -2.2231   12.9442  -10.9826 C   0  0  0  0  0  0  0  0  0  0  0  0
   -3.7200   12.5740  -10.8214 C   0  0  0  0  0  0  0  0  0  0  0  0
   -1.0475   15.0410  -11.4860 O   0  0  0  0  0  0  0  0  0  0  0  0
   -6.0839   12.2893   -9.8659 H   0  0  0  0  0  0  0  0  0  0  0  0
   -8.1807   10.1150  -13.8959 H   0  0  0  0  0  0  0  0  0  0  0  0
   -6.8858   12.2432  -14.0871 H   0  0  0  0  0  0  0  0  0  0  0  0
   -8.0384    9.5978   -7.2554 H   0  0  0  0  0  0  0  0  0  0  0  0
   -5.3242   15.2431  -12.9464 H   0  0  0  0  0  0  0  0  0  0  0  0
   -4.8924    8.7808   -8.4920 H   0  0  0  0  0  0  0  0  0  0  0  0
   -2.6611    9.7523   -8.0445 H   0  0  0  0  0  0  0  0  0  0  0  0
   -3.4453   12.0346   -8.2431 H   0  0  0  0  0  0  0  0  0  0  0  0
   -4.5133   13.2885   -6.4783 H   0  0  0  0  0  0  0  0  0  0  0  0
   -6.7415   12.3119   -6.9097 H   0  0  0  0  0  0  0  0  0  0  0  0
   -2.4535   14.2183   -6.1960 H   0  0  0  0  0  0  0  0  0  0  0  0
   -0.6442   10.5957   -7.5787 H   0  0  0  0  0  0  0  0  0  0  0  0
    1.4518   14.3348   -6.0355 H   0  0  0  0  0  0  0  0  0  0  0  0
    0.1929   15.4840   -6.6021 H   0  0  0  0  0  0  0  0  0  0  0  0
    0.1381   14.8479   -4.9231 H   0  0  0  0  0  0  0  0  0  0  0  0
   -3.3468   15.1789  -12.6576 H   0  0  0  0  0  0  0  0  0  0  0  0
   -3.9603   15.7589  -11.0720 H   0  0  0  0  0  0  0  0  0  0  0  0
   -2.2706   14.7595   -9.8791 H   0  0  0  0  0  0  0  0  0  0  0  0
   -1.8326   12.5779  -11.9435 H   0  0  0  0  0  0  0  0  0  0  0  0
   -1.6269   12.5226  -10.1599 H   0  0  0  0  0  0  0  0  0  0  0  0
   -4.0107   12.5154   -9.7621 H   0  0  0  0  0  0  0  0  0  0  0  0
   -3.9577   11.6228  -11.3200 H   0  0  0  0  0  0  0  0  0  0  0  0
   -0.2836   14.7209  -11.0208 H   0  0  0  0  0  0  0  0  0  0  0  0
  1  2  1  0  0  0  0
  1  4  1  0  0  0  0
  1 12  2  0  0  0  0
  2  6  2  0  0  0  0
  3  4  2  0  0  0  0
  3  5  1  0  0  0  0
  5  6  1  0  0  0  0
  5  9  2  0  0  0  0
  6  7  1  0  0  0  0
  7  8  2  0  0  0  0
  7 10  1  0  0  0  0
  8  9  1  0  0  0  0
 10 14  2  0  0  0  0
 11 12  1  0  0  0  0
 11 26  1  0  0  0  0
 11 29  1  0  0  0  0
 12 13  1  0  0  0  0
 14 15  1  0  0  0  0
 14 19  1  0  0  0  0
 15 16  2  0  0  0  0
 16 17  1  0  0  0  0
 17 18  1  0  0  0  0
 17 20  1  0  0  0  0
 18 19  2  0  0  0  0
 20 21  2  0  0  0  0
 20 24  1  0  0  0  0
 21 22  1  0  0  0  0
 22 23  1  0  0  0  0
 22 25  1  0  0  0  0
 23 24  2  0  0  0  0
 26 27  1  0  0  0  0
 27 28  1  0  0  0  0
 27 30  1  0  0  0  0
 28 29  1  0  0  0  0
  2 31  1  0  0  0  0
  3 32  1  0  0  0  0
  4 33  1  0  0  0  0
 10 34  1  0  0  0  0
 13 35  1  0  0  0  0
 15 36  1  0  0  0  0
 16 37  1  0  0  0  0
 17 38  1  0  0  0  0
 18 39  1  0  0  0  0
 19 40  1  0  0  0  0
 21 41  1  0  0  0  0
 24 42  1  0  0  0  0
 25 43  1  0  0  0  0
 25 44  1  0  0  0  0
 25 45  1  0  0  0  0
 26 46  1  0  0  0  0
 26 47  1  0  0  0  0
 27 48  1  0  0  0  0
 28 49  1  0  0  0  0
 28 50  1  0  0  0  0
 29 51  1  0  0  0  0
 29 52  1  0  0  0  0
 30 53  1  0  0  0  0
M  END
> <Name>
31

> <IC50[uM]>
0.002

$$$$
31
  -OEChem-05192314333D
 Structure written by MMmdl.
 53 57  0     1  0  0  0  0  0999 V2000
   -6.3709   12.3579  -12.0062 C   0  0  0  0  0  0  0  0  0  0  0  0
   -6.5187   11.8083  -10.7296 C   0  0  0  0  0  0  0  0  0  0  0  0
   -7.7194   10.5704  -13.0321 C   0  0  0  0  0  0  0  0  0  0  0  0
   -6.9838   11.7645  -13.1240 C   0  0  0  0  0  0  0  0  0  0  0  0
   -7.8186   10.0073  -11.7576 C   0  0  0  0  0  0  0  0  0  0  0  0
   -7.2434   10.6206  -10.5991 C   0  0  0  0  0  0  0  0  0  0  0  0
   -7.6160    9.7494   -9.5117 C   0  0  0  0  0  0  0  0  0  0  0  0
   -8.2808    8.7336   -9.9894 N   0  0  0  0  0  0  0  0  0  0  0  0
   -8.4141    8.8594  -11.3008 N   0  0  0  0  0  0  0  0  0  0  0  0
   -7.3385    9.8886   -8.0248 C   0  0  0  0  0  0  0  0  0  0  0  0
   -4.3631   13.7190  -11.4993 N   0  0  0  0  0  0  0  0  0  0  0  0
   -5.5500   13.6364  -12.1907 C   0  0  0  0  0  0  0  0  0  0  0  0
   -5.9462   14.5251  -12.9474 O   0  0  0  0  0  0  0  0  0  0  0  0
   -5.9607   10.4852   -7.7356 C   0  0  0  0  0  0  0  0  0  0  0  0
   -4.8097    9.7639   -8.0527 C   0  0  0  0  0  0  0  0  0  0  0  0
   -3.5522   10.3124   -7.8024 C   0  0  0  0  0  0  0  0  0  0  0  0
   -3.4444   11.5885   -7.2376 C   0  0  0  0  0  0  0  0  0  0  0  0
   -4.5952   12.3052   -6.9174 C   0  0  0  0  0  0  0  0  0  0  0  0
   -5.8509   11.7557   -7.1626 C   0  0  0  0  0  0  0  0  0  0  0  0
   -2.1000   12.1783   -6.9759 C   0  0  0  0  0  0  0  0  0  0  0  0
   -1.7654   13.4353   -6.4786 C   0  0  0  0  0  0  0  0  0  0  0  0
   -0.4305   13.4892   -6.4172 N   0  0  0  0  0  0  0  0  0  0  0  0
    0.1699   12.4025   -6.8093 N   0  0  0  0  0  0  0  0  0  0  0  0
   -0.8029   11.5856   -7.1770 C   0  0  0  0  0  0  0  0  0  0  0  0
    0.3883   14.6074   -5.9669 C   0  0  0  0  0  0  0  0  0  0  0  0
   -3.5134   14.9066  -11.6049 C   0  0  0  0  0  0  0  0  0  0  0  0
   -2.2037   14.4678  -10.9376 C   0  0  1  0  0  0  0  0  0  0  0  0
   -2.2231   12.9442  -10.9826 C   0  0  0  0  0  0  0  0  0  0  0  0
   -3.7200   12.5740  -10.8214 C   0  0  0  0  0  0  0  0  0  0  0  0
   -1.0475   15.0410  -11.4860 O   0  0  0  0  0  0  0  0  0  0  0  0
   -6.0839   12.2893   -9.8659 H   0  0  0  0  0  0  0  0  0  0  0  0
   -8.1807   10.1150  -13.8959 H   0  0  0  0  0  0  0  0  0  0  0  0
   -6.8858   12.2432  -14.0871 H   0  0  0  0  0  0  0  0  0  0  0  0
   -8.0384    9.5978   -7.2554 H   0  0  0  0  0  0  0  0  0  0  0  0
   -5.3242   15.2431  -12.9464 H   0  0  0  0  0  0  0  0  0  0  0  0
   -4.8924    8.7808   -8.4920 H   0  0  0  0  0  0  0  0  0  0  0  0
   -2.6611    9.7523   -8.0445 H   0  0  0  0  0  0  0  0  0  0  0  0
   -4.5133   13.2885   -6.4783 H   0  0  0  0  0  0  0  0  0  0  0  0
   -6.3764   12.4521   -7.8326 H   0  0  0  0  0  0  0  0  0  0  0  0
   -6.3728   11.7134   -6.1952 H   0  0  0  0  0  0  0  0  0  0  0  0
   -2.4535   14.2183   -6.1960 H   0  0  0  0  0  0  0  0  0  0  0  0
   -0.6442   10.5957   -7.5787 H   0  0  0  0  0  0  0  0  0  0  0  0
    1.4518   14.3348   -6.0355 H   0  0  0  0  0  0  0  0  0  0  0  0
    0.1929   15.4840   -6.6021 H   0  0  0  0  0  0  0  0  0  0  0  0
    0.1381   14.8479   -4.9231 H   0  0  0  0  0  0  0  0  0  0  0  0
   -3.3468   15.1789  -12.6576 H   0  0  0  0  0  0  0  0  0  0  0  0
   -3.9603   15.7589  -11.0720 H   0  0  0  0  0  0  0  0  0  0  0  0
   -2.2706   14.7595   -9.8791 H   0  0  0  0  0  0  0  0  0  0  0  0
   -1.8326   12.5779  -11.9435 H   0  0  0  0  0  0  0  0  0  0  0  0
   -1.6269   12.5226  -10.1599 H   0  0  0  0  0  0  0  0  0  0  0  0
   -4.0107   12.5154   -9.7621 H   0  0  0  0  0  0  0  0  0  0  0  0
   -3.9577   11.6228  -11.3200 H   0  0  0  0  0  0  0  0  0  0  0  0
   -0.2836   14.7209  -11.0208 H   0  0  0  0  0  0  0  0  0  0  0  0
  1  2  1  0  0  0  0
  1  4  1  0  0  0  0
  1 12  2  0  0  0  0
  2  6  2  0  0  0  0
  3  4  2  0  0  0  0
  3  5  1  0  0  0  0
  5  6  1  0  0  0  0
  5  9  2  0  0  0  0
  6  7  1  0  0  0  0
  7  8  2  0  0  0  0
  7 10  1  0  0  0  0
  8  9  1  0  0  0  0
 10 14  2  0  0  0  0
 11 12  1  0  0  0  0
 11 26  1  0  0  0  0
 11 29  1  0  0  0  0
 12 13  1  0  0  0  0
 14 15  1  0  0  0  0
 14 19  1  0  0  0  0
 15 16  2  0  0  0  0
 16 17  1  0  0  0  0
 17 18  2  0  0  0  0
 17 20  1  0  0  0  0
 18 19  1  0  0  0  0
 20 21  2  0  0  0  0
 20 24  1  0  0  0  0
 21 22  1  0  0  0  0
 22 23  1  0  0  0  0
 22 25  1  0  0  0  0
 23 24  2  0  0  0  0
 26 27  1  0  0  0  0
 27 28  1  0  0  0  0
 27 30  1  0  0  0  0
 28 29  1  0  0  0  0
  2 31  1  0  0  0  0
  3 32  1  0  0  0  0
  4 33  1  0  0  0  0
 10 34  1  0  0  0  0
 13 35  1  0  0  0  0
 15 36  1  0  0  0  0
 16 37  1  0  0  0  0
 18 38  1  0  0  0  0
 19 39  1  0  0  0  0
 19 40  1  0  0  0  0
 21 41  1  0  0  0  0
 24 42  1  0  0  0  0
 25 43  1  0  0  0  0
 25 44  1  0  0  0  0
 25 45  1  0  0  0  0
 26 46  1  0  0  0  0
 26 47  1  0  0  0  0
 27 48  1  0  0  0  0
 28 49  1  0  0  0  0
 28 50  1  0  0  0  0
 29 51  1  0  0  0  0
 29 52  1  0  0  0  0
 30 53  1  0  0  0  0
M  END
> <Name>
31

> <IC50[uM]>
0.002

$$$$
