22
  -OEChem-05192314333D
 Structure written by MMmdl.
 48 52  0     0  0  0  0  0  0999 V2000
   -6.3943   12.3306  -11.9839 C   0  0  0  0  0  0  0  0  0  0  0  0
   -6.5449   11.7624  -10.7224 C   0  0  0  0  0  0  0  0  0  0  0  0
   -7.7389   10.5318  -13.0493 C   0  0  0  0  0  0  0  0  0  0  0  0
   -6.9892   11.7416  -13.1218 C   0  0  0  0  0  0  0  0  0  0  0  0
   -7.8445    9.9757  -11.7834 C   0  0  0  0  0  0  0  0  0  0  0  0
   -7.2758   10.5697  -10.6136 C   0  0  0  0  0  0  0  0  0  0  0  0
   -7.6401    9.7111   -9.5254 C   0  0  0  0  0  0  0  0  0  0  0  0
   -8.3075    8.6850  -10.0132 N   0  0  0  0  0  0  0  0  0  0  0  0
   -8.4539    8.8245  -11.3160 N   0  0  0  0  0  0  0  0  0  0  0  0
   -7.3472    9.8680   -8.0446 C   0  0  0  0  0  0  0  0  0  0  0  0
   -5.5569   13.6094  -12.1739 C   0  0  0  0  0  0  0  0  0  0  0  0
   -5.9691   10.4796   -7.7443 C   0  0  0  0  0  0  0  0  0  0  0  0
   -5.8622   11.7497   -7.1624 C   0  0  0  0  0  0  0  0  0  0  0  0
   -4.6000   12.2988   -6.9070 C   0  0  0  0  0  0  0  0  0  0  0  0
   -3.4496   11.5829   -7.2293 C   0  0  0  0  0  0  0  0  0  0  0  0
   -3.5554   10.3089   -7.8035 C   0  0  0  0  0  0  0  0  0  0  0  0
   -4.8209    9.7667   -8.0554 C   0  0  0  0  0  0  0  0  0  0  0  0
   -2.0956   12.1660   -6.9654 C   0  0  0  0  0  0  0  0  0  0  0  0
   -1.7384   13.4130   -6.4683 C   0  0  0  0  0  0  0  0  0  0  0  0
   -0.4069   13.4502   -6.4129 N   0  0  0  0  0  0  0  0  0  0  0  0
    0.1813   12.3566   -6.8171 N   0  0  0  0  0  0  0  0  0  0  0  0
   -0.7988   11.5478   -7.1867 C   0  0  0  0  0  0  0  0  0  0  0  0
    0.4282   14.5550   -5.9664 C   0  0  0  0  0  0  0  0  0  0  0  0
   -4.7714   14.2106  -11.2027 N   0  0  0  0  0  0  0  0  0  0  0  0
   -4.2061   15.2849  -11.7862 C   0  0  0  0  0  0  0  0  0  0  0  0
   -4.6883   15.3268  -13.0997 C   0  0  0  0  0  0  0  0  0  0  0  0
   -5.5027   14.2765  -13.3098 N   0  0  0  0  0  0  0  0  0  0  0  0
   -4.5364   13.8232   -9.7989 C   0  0  0  0  0  0  0  0  0  0  0  0
   -6.1104   12.2275   -9.8498 H   0  0  0  0  0  0  0  0  0  0  0  0
   -8.1928   10.0800  -13.9189 H   0  0  0  0  0  0  0  0  0  0  0  0
   -6.8717   12.2251  -14.0803 H   0  0  0  0  0  0  0  0  0  0  0  0
   -8.6516    7.9153   -9.4755 H   0  0  0  0  0  0  0  0  0  0  0  0
   -8.1181   10.5187   -7.6060 H   0  0  0  0  0  0  0  0  0  0  0  0
   -7.3952    8.8746   -7.5748 H   0  0  0  0  0  0  0  0  0  0  0  0
   -6.7536   12.3051   -6.9109 H   0  0  0  0  0  0  0  0  0  0  0  0
   -4.5183   13.2784   -6.4597 H   0  0  0  0  0  0  0  0  0  0  0  0
   -2.6656    9.7487   -8.0502 H   0  0  0  0  0  0  0  0  0  0  0  0
   -4.9040    8.7842   -8.4961 H   0  0  0  0  0  0  0  0  0  0  0  0
   -2.4137   14.2051   -6.1803 H   0  0  0  0  0  0  0  0  0  0  0  0
   -0.6543   10.5597   -7.5981 H   0  0  0  0  0  0  0  0  0  0  0  0
    1.4877   14.2705   -6.0474 H   0  0  0  0  0  0  0  0  0  0  0  0
    0.2364   15.4369   -6.5953 H   0  0  0  0  0  0  0  0  0  0  0  0
    0.1917   14.7932   -4.9189 H   0  0  0  0  0  0  0  0  0  0  0  0
   -3.5156   15.9786  -11.3298 H   0  0  0  0  0  0  0  0  0  0  0  0
   -4.4447   16.0839  -13.8303 H   0  0  0  0  0  0  0  0  0  0  0  0
   -3.8494   14.5427   -9.3295 H   0  0  0  0  0  0  0  0  0  0  0  0
   -5.4922   13.8204   -9.2545 H   0  0  0  0  0  0  0  0  0  0  0  0
   -4.0925   12.8173   -9.7656 H   0  0  0  0  0  0  0  0  0  0  0  0
  1  2  2  0  0  0  0
  1  4  1  0  0  0  0
  1 11  1  0  0  0  0
  2  6  1  0  0  0  0
  3  4  2  0  0  0  0
  3  5  1  0  0  0  0
  5  6  1  0  0  0  0
  5  9  2  0  0  0  0
  6  7  2  0  0  0  0
  7  8  1  0  0  0  0
  7 10  1  0  0  0  0
  8  9  1  0  0  0  0
 10 12  1  0  0  0  0
 11 24  1  0  0  0  0
 11 27  2  0  0  0  0
 12 13  2  0  0  0  0
 12 17  1  0  0  0  0
 13 14  1  0  0  0  0
 14 15  2  0  0  0  0
 15 16  1  0  0  0  0
 15 18  1  0  0  0  0
 16 17  2  0  0  0  0
 18 19  2  0  0  0  0
 18 22  1  0  0  0  0
 19 20  1  0  0  0  0
 20 21  1  0  0  0  0
 20 23  1  0  0  0  0
 21 22  2  0  0  0  0
 24 25  1  0  0  0  0
 24 28  1  0  0  0  0
 25 26  2  0  0  0  0
 26 27  1  0  0  0  0
  2 29  1  0  0  0  0
  3 30  1  0  0  0  0
  4 31  1  0  0  0  0
  8 32  1  0  0  0  0
 10 33  1  0  0  0  0
 10 34  1  0  0  0  0
 13 35  1  0  0  0  0
 14 36  1  0  0  0  0
 16 37  1  0  0  0  0
 17 38  1  0  0  0  0
 19 39  1  0  0  0  0
 22 40  1  0  0  0  0
 23 41  1  0  0  0  0
 23 42  1  0  0  0  0
 23 43  1  0  0  0  0
 25 44  1  0  0  0  0
 26 45  1  0  0  0  0
 28 46  1  0  0  0  0
 28 47  1  0  0  0  0
 28 48  1  0  0  0  0
M  END
> <Name>
22

> <IC50[uM]>
0.032

$$$$
22
  -OEChem-05192314333D
 Structure written by MMmdl.
 48 52  0     0  0  0  0  0  0999 V2000
   -6.3943   12.3306  -11.9839 C   0  0  0  0  0  0  0  0  0  0  0  0
   -6.5449   11.7624  -10.7224 C   0  0  0  0  0  0  0  0  0  0  0  0
   -7.7389   10.5318  -13.0493 C   0  0  0  0  0  0  0  0  0  0  0  0
   -6.9892   11.7416  -13.1218 C   0  0  0  0  0  0  0  0  0  0  0  0
   -7.8445    9.9757  -11.7834 C   0  0  0  0  0  0  0  0  0  0  0  0
   -7.2758   10.5697  -10.6136 C   0  0  0  0  0  0  0  0  0  0  0  0
   -7.6401    9.7111   -9.5254 C   0  0  0  0  0  0  0  0  0  0  0  0
   -8.3075    8.6850  -10.0132 N   0  0  0  0  0  0  0  0  0  0  0  0
   -8.4539    8.8245  -11.3160 N   0  0  0  0  0  0  0  0  0  0  0  0
   -7.3472    9.8680   -8.0446 C   0  0  0  0  0  0  0  0  0  0  0  0
   -5.5569   13.6094  -12.1739 C   0  0  0  0  0  0  0  0  0  0  0  0
   -5.9691   10.4796   -7.7443 C   0  0  0  0  0  0  0  0  0  0  0  0
   -5.8622   11.7497   -7.1624 C   0  0  0  0  0  0  0  0  0  0  0  0
   -4.6000   12.2988   -6.9070 C   0  0  0  0  0  0  0  0  0  0  0  0
   -3.4496   11.5829   -7.2293 C   0  0  0  0  0  0  0  0  0  0  0  0
   -3.5554   10.3089   -7.8035 C   0  0  0  0  0  0  0  0  0  0  0  0
   -4.8209    9.7667   -8.0554 C   0  0  0  0  0  0  0  0  0  0  0  0
   -2.0956   12.1660   -6.9654 C   0  0  0  0  0  0  0  0  0  0  0  0
   -1.7384   13.4130   -6.4683 C   0  0  0  0  0  0  0  0  0  0  0  0
   -0.4069   13.4502   -6.4129 N   0  0  0  0  0  0  0  0  0  0  0  0
    0.1813   12.3566   -6.8171 N   0  0  0  0  0  0  0  0  0  0  0  0
   -0.7988   11.5478   -7.1867 C   0  0  0  0  0  0  0  0  0  0  0  0
    0.4282   14.5550   -5.9664 C   0  0  0  0  0  0  0  0  0  0  0  0
   -4.7714   14.2106  -11.2027 N   0  0  0  0  0  0  0  0  0  0  0  0
   -4.2061   15.2849  -11.7862 C   0  0  0  0  0  0  0  0  0  0  0  0
   -4.6883   15.3268  -13.0997 C   0  0  0  0  0  0  0  0  0  0  0  0
   -5.5027   14.2765  -13.3098 N   0  0  0  0  0  0  0  0  0  0  0  0
   -4.5364   13.8232   -9.7989 C   0  0  0  0  0  0  0  0  0  0  0  0
   -6.1104   12.2275   -9.8498 H   0  0  0  0  0  0  0  0  0  0  0  0
   -8.1928   10.0800  -13.9189 H   0  0  0  0  0  0  0  0  0  0  0  0
   -6.8717   12.2251  -14.0803 H   0  0  0  0  0  0  0  0  0  0  0  0
   -8.9463    8.1762  -11.8968 H   0  0  0  0  0  0  0  0  0  0  0  0
   -8.1181   10.5187   -7.6060 H   0  0  0  0  0  0  0  0  0  0  0  0
   -7.3952    8.8746   -7.5748 H   0  0  0  0  0  0  0  0  0  0  0  0
   -6.7536   12.3051   -6.9109 H   0  0  0  0  0  0  0  0  0  0  0  0
   -4.5183   13.2784   -6.4597 H   0  0  0  0  0  0  0  0  0  0  0  0
   -2.6656    9.7487   -8.0502 H   0  0  0  0  0  0  0  0  0  0  0  0
   -4.9040    8.7842   -8.4961 H   0  0  0  0  0  0  0  0  0  0  0  0
   -2.4137   14.2051   -6.1803 H   0  0  0  0  0  0  0  0  0  0  0  0
   -0.6543   10.5597   -7.5981 H   0  0  0  0  0  0  0  0  0  0  0  0
    1.4877   14.2705   -6.0474 H   0  0  0  0  0  0  0  0  0  0  0  0
    0.2364   15.4369   -6.5953 H   0  0  0  0  0  0  0  0  0  0  0  0
    0.1917   14.7932   -4.9189 H   0  0  0  0  0  0  0  0  0  0  0  0
   -3.5156   15.9786  -11.3298 H   0  0  0  0  0  0  0  0  0  0  0  0
   -4.4447   16.0839  -13.8303 H   0  0  0  0  0  0  0  0  0  0  0  0
   -3.8494   14.5427   -9.3295 H   0  0  0  0  0  0  0  0  0  0  0  0
   -5.4922   13.8204   -9.2545 H   0  0  0  0  0  0  0  0  0  0  0  0
   -4.0925   12.8173   -9.7656 H   0  0  0  0  0  0  0  0  0  0  0  0
  1  2  2  0  0  0  0
  1  4  1  0  0  0  0
  1 11  1  0  0  0  0
  2  6  1  0  0  0  0
  3  4  2  0  0  0  0
  3  5  1  0  0  0  0
  5  6  2  0  0  0  0
  5  9  1  0  0  0  0
  6  7  1  0  0  0  0
  7  8  2  0  0  0  0
  7 10  1  0  0  0  0
  8  9  1  0  0  0  0
 10 12  1  0  0  0  0
 11 24  1  0  0  0  0
 11 27  2  0  0  0  0
 12 13  2  0  0  0  0
 12 17  1  0  0  0  0
 13 14  1  0  0  0  0
 14 15  2  0  0  0  0
 15 16  1  0  0  0  0
 15 18  1  0  0  0  0
 16 17  2  0  0  0  0
 18 19  2  0  0  0  0
 18 22  1  0  0  0  0
 19 20  1  0  0  0  0
 20 21  1  0  0  0  0
 20 23  1  0  0  0  0
 21 22  2  0  0  0  0
 24 25  1  0  0  0  0
 24 28  1  0  0  0  0
 25 26  2  0  0  0  0
 26 27  1  0  0  0  0
  2 29  1  0  0  0  0
  3 30  1  0  0  0  0
  4 31  1  0  0  0  0
  9 32  1  0  0  0  0
 10 33  1  0  0  0  0
 10 34  1  0  0  0  0
 13 35  1  0  0  0  0
 14 36  1  0  0  0  0
 16 37  1  0  0  0  0
 17 38  1  0  0  0  0
 19 39  1  0  0  0  0
 22 40  1  0  0  0  0
 23 41  1  0  0  0  0
 23 42  1  0  0  0  0
 23 43  1  0  0  0  0
 25 44  1  0  0  0  0
 26 45  1  0  0  0  0
 28 46  1  0  0  0  0
 28 47  1  0  0  0  0
 28 48  1  0  0  0  0
M  END
> <Name>
22

> <IC50[uM]>
0.032

$$$$
22
  -OEChem-05192314333D
 Structure written by MMmdl.
 48 52  0     1  0  0  0  0  0999 V2000
   -6.3943   12.3306  -11.9839 C   0  0  0  0  0  0  0  0  0  0  0  0
   -6.5449   11.7624  -10.7224 C   0  0  0  0  0  0  0  0  0  0  0  0
   -7.7389   10.5318  -13.0493 C   0  0  0  0  0  0  0  0  0  0  0  0
   -6.9892   11.7416  -13.1218 C   0  0  0  0  0  0  0  0  0  0  0  0
   -7.8445    9.9757  -11.7834 C   0  0  0  0  0  0  0  0  0  0  0  0
   -7.2758   10.5697  -10.6136 C   0  0  0  0  0  0  0  0  0  0  0  0
   -7.6401    9.7111   -9.5254 C   0  0  3  0  0  0  0  0  0  0  0  0
   -8.3075    8.6850  -10.0132 N   0  0  0  0  0  0  0  0  0  0  0  0
   -8.4539    8.8245  -11.3160 N   0  0  0  0  0  0  0  0  0  0  0  0
   -7.3472    9.8680   -8.0446 C   0  0  0  0  0  0  0  0  0  0  0  0
   -5.5569   13.6094  -12.1739 C   0  0  0  0  0  0  0  0  0  0  0  0
   -5.9691   10.4796   -7.7443 C   0  0  0  0  0  0  0  0  0  0  0  0
   -5.8622   11.7497   -7.1624 C   0  0  0  0  0  0  0  0  0  0  0  0
   -4.6000   12.2988   -6.9070 C   0  0  0  0  0  0  0  0  0  0  0  0
   -3.4496   11.5829   -7.2293 C   0  0  0  0  0  0  0  0  0  0  0  0
   -3.5554   10.3089   -7.8035 C   0  0  0  0  0  0  0  0  0  0  0  0
   -4.8209    9.7667   -8.0554 C   0  0  0  0  0  0  0  0  0  0  0  0
   -2.0956   12.1660   -6.9654 C   0  0  0  0  0  0  0  0  0  0  0  0
   -1.7384   13.4130   -6.4683 C   0  0  0  0  0  0  0  0  0  0  0  0
   -0.4069   13.4502   -6.4129 N   0  0  0  0  0  0  0  0  0  0  0  0
    0.1813   12.3566   -6.8171 N   0  0  0  0  0  0  0  0  0  0  0  0
   -0.7988   11.5478   -7.1867 C   0  0  0  0  0  0  0  0  0  0  0  0
    0.4282   14.5550   -5.9664 C   0  0  0  0  0  0  0  0  0  0  0  0
   -4.7714   14.2106  -11.2027 N   0  0  0  0  0  0  0  0  0  0  0  0
   -4.2061   15.2849  -11.7862 C   0  0  0  0  0  0  0  0  0  0  0  0
   -4.6883   15.3268  -13.0997 C   0  0  0  0  0  0  0  0  0  0  0  0
   -5.5027   14.2765  -13.3098 N   0  0  0  0  0  0  0  0  0  0  0  0
   -4.5364   13.8232   -9.7989 C   0  0  0  0  0  0  0  0  0  0  0  0
   -6.1104   12.2275   -9.8498 H   0  0  0  0  0  0  0  0  0  0  0  0
   -8.1928   10.0800  -13.9189 H   0  0  0  0  0  0  0  0  0  0  0  0
   -6.8717   12.2251  -14.0803 H   0  0  0  0  0  0  0  0  0  0  0  0
   -8.5814   10.2663   -9.3999 H   0  0  0  0  0  0  0  0  0  0  0  0
   -8.1181   10.5187   -7.6060 H   0  0  0  0  0  0  0  0  0  0  0  0
   -7.3952    8.8746   -7.5748 H   0  0  0  0  0  0  0  0  0  0  0  0
   -6.7536   12.3051   -6.9109 H   0  0  0  0  0  0  0  0  0  0  0  0
   -4.5183   13.2784   -6.4597 H   0  0  0  0  0  0  0  0  0  0  0  0
   -2.6656    9.7487   -8.0502 H   0  0  0  0  0  0  0  0  0  0  0  0
   -4.9040    8.7842   -8.4961 H   0  0  0  0  0  0  0  0  0  0  0  0
   -2.4137   14.2051   -6.1803 H   0  0  0  0  0  0  0  0  0  0  0  0
   -0.6543   10.5597   -7.5981 H   0  0  0  0  0  0  0  0  0  0  0  0
    1.4877   14.2705   -6.0474 H   0  0  0  0  0  0  0  0  0  0  0  0
    0.2364   15.4369   -6.5953 H   0  0  0  0  0  0  0  0  0  0  0  0
    0.1917   14.7932   -4.9189 H   0  0  0  0  0  0  0  0  0  0  0  0
   -3.5156   15.9786  -11.3298 H   0  0  0  0  0  0  0  0  0  0  0  0
   -4.4447   16.0839  -13.8303 H   0  0  0  0  0  0  0  0  0  0  0  0
   -3.8494   14.5427   -9.3295 H   0  0  0  0  0  0  0  0  0  0  0  0
   -5.4922   13.8204   -9.2545 H   0  0  0  0  0  0  0  0  0  0  0  0
   -4.0925   12.8173   -9.7656 H   0  0  0  0  0  0  0  0  0  0  0  0
  1  2  2  0  0  0  0
  1  4  1  0  0  0  0
  1 11  1  0  0  0  0
  2  6  1  0  0  0  0
  3  4  2  0  0  0  0
  3  5  1  0  0  0  0
  5  6  2  0  0  0  0
  5  9  1  0  0  0  0
  6  7  1  0  0  0  0
  7  8  1  0  0  0  0
  7 10  1  0  0  0  0
  8  9  2  0  0  0  0
 10 12  1  0  0  0  0
 11 24  1  0  0  0  0
 11 27  2  0  0  0  0
 12 13  2  0  0  0  0
 12 17  1  0  0  0  0
 13 14  1  0  0  0  0
 14 15  2  0  0  0  0
 15 16  1  0  0  0  0
 15 18  1  0  0  0  0
 16 17  2  0  0  0  0
 18 19  2  0  0  0  0
 18 22  1  0  0  0  0
 19 20  1  0  0  0  0
 20 21  1  0  0  0  0
 20 23  1  0  0  0  0
 21 22  2  0  0  0  0
 24 25  1  0  0  0  0
 24 28  1  0  0  0  0
 25 26  2  0  0  0  0
 26 27  1  0  0  0  0
  2 29  1  0  0  0  0
  3 30  1  0  0  0  0
  4 31  1  0  0  0  0
  7 32  1  0  0  0  0
 10 33  1  0  0  0  0
 10 34  1  0  0  0  0
 13 35  1  0  0  0  0
 14 36  1  0  0  0  0
 16 37  1  0  0  0  0
 17 38  1  0  0  0  0
 19 39  1  0  0  0  0
 22 40  1  0  0  0  0
 23 41  1  0  0  0  0
 23 42  1  0  0  0  0
 23 43  1  0  0  0  0
 25 44  1  0  0  0  0
 26 45  1  0  0  0  0
 28 46  1  0  0  0  0
 28 47  1  0  0  0  0
 28 48  1  0  0  0  0
M  END
> <Name>
22

> <IC50[uM]>
0.032

$$$$
22
  -OEChem-05192314333D
 Structure written by MMmdl.
 48 52  0     0  0  0  0  0  0999 V2000
   -6.3943   12.3306  -11.9839 C   0  0  0  0  0  0  0  0  0  0  0  0
   -6.5449   11.7624  -10.7224 C   0  0  0  0  0  0  0  0  0  0  0  0
   -7.7389   10.5318  -13.0493 C   0  0  0  0  0  0  0  0  0  0  0  0
   -6.9892   11.7416  -13.1218 C   0  0  0  0  0  0  0  0  0  0  0  0
   -7.8445    9.9757  -11.7834 C   0  0  0  0  0  0  0  0  0  0  0  0
   -7.2758   10.5697  -10.6136 C   0  0  0  0  0  0  0  0  0  0  0  0
   -7.6401    9.7111   -9.5254 C   0  0  0  0  0  0  0  0  0  0  0  0
   -8.3075    8.6850  -10.0132 N   0  0  0  0  0  0  0  0  0  0  0  0
   -8.4539    8.8245  -11.3160 N   0  0  0  0  0  0  0  0  0  0  0  0
   -7.3472    9.8680   -8.0446 C   0  0  0  0  0  0  0  0  0  0  0  0
   -5.5569   13.6094  -12.1739 C   0  0  0  0  0  0  0  0  0  0  0  0
   -5.9691   10.4796   -7.7443 C   0  0  0  0  0  0  0  0  0  0  0  0
   -5.8622   11.7497   -7.1624 C   0  0  0  0  0  0  0  0  0  0  0  0
   -4.6000   12.2988   -6.9070 C   0  0  0  0  0  0  0  0  0  0  0  0
   -3.4496   11.5829   -7.2293 C   0  0  0  0  0  0  0  0  0  0  0  0
   -3.5554   10.3089   -7.8035 C   0  0  0  0  0  0  0  0  0  0  0  0
   -4.8209    9.7667   -8.0554 C   0  0  0  0  0  0  0  0  0  0  0  0
   -2.0956   12.1660   -6.9654 C   0  0  0  0  0  0  0  0  0  0  0  0
   -1.7384   13.4130   -6.4683 C   0  0  0  0  0  0  0  0  0  0  0  0
   -0.4069   13.4502   -6.4129 N   0  0  0  0  0  0  0  0  0  0  0  0
    0.1813   12.3566   -6.8171 N   0  0  0  0  0  0  0  0  0  0  0  0
   -0.7988   11.5478   -7.1867 C   0  0  0  0  0  0  0  0  0  0  0  0
    0.4282   14.5550   -5.9664 C   0  0  0  0  0  0  0  0  0  0  0  0
   -4.7714   14.2106  -11.2027 N   0  0  0  0  0  0  0  0  0  0  0  0
   -4.2061   15.2849  -11.7862 C   0  0  0  0  0  0  0  0  0  0  0  0
   -4.6883   15.3268  -13.0997 C   0  0  0  0  0  0  0  0  0  0  0  0
   -5.5027   14.2765  -13.3098 N   0  0  0  0  0  0  0  0  0  0  0  0
   -4.5364   13.8232   -9.7989 C   0  0  0  0  0  0  0  0  0  0  0  0
   -6.1104   12.2275   -9.8498 H   0  0  0  0  0  0  0  0  0  0  0  0
   -8.1928   10.0800  -13.9189 H   0  0  0  0  0  0  0  0  0  0  0  0
   -6.8717   12.2251  -14.0803 H   0  0  0  0  0  0  0  0  0  0  0  0
   -7.8042    7.8418   -9.8243 H   0  0  0  0  0  0  0  0  0  0  0  0
   -9.4301    8.8661  -11.5290 H   0  0  0  0  0  0  0  0  0  0  0  0
   -8.0435    9.5766   -7.2721 H   0  0  0  0  0  0  0  0  0  0  0  0
   -6.7536   12.3051   -6.9109 H   0  0  0  0  0  0  0  0  0  0  0  0
   -4.5183   13.2784   -6.4597 H   0  0  0  0  0  0  0  0  0  0  0  0
   -2.6656    9.7487   -8.0502 H   0  0  0  0  0  0  0  0  0  0  0  0
   -4.9040    8.7842   -8.4961 H   0  0  0  0  0  0  0  0  0  0  0  0
   -2.4137   14.2051   -6.1803 H   0  0  0  0  0  0  0  0  0  0  0  0
   -0.6543   10.5597   -7.5981 H   0  0  0  0  0  0  0  0  0  0  0  0
    1.4877   14.2705   -6.0474 H   0  0  0  0  0  0  0  0  0  0  0  0
    0.2364   15.4369   -6.5953 H   0  0  0  0  0  0  0  0  0  0  0  0
    0.1917   14.7932   -4.9189 H   0  0  0  0  0  0  0  0  0  0  0  0
   -3.5156   15.9786  -11.3298 H   0  0  0  0  0  0  0  0  0  0  0  0
   -4.4447   16.0839  -13.8303 H   0  0  0  0  0  0  0  0  0  0  0  0
   -3.8494   14.5427   -9.3295 H   0  0  0  0  0  0  0  0  0  0  0  0
   -5.4922   13.8204   -9.2545 H   0  0  0  0  0  0  0  0  0  0  0  0
   -4.0925   12.8173   -9.7656 H   0  0  0  0  0  0  0  0  0  0  0  0
  1  2  2  0  0  0  0
  1  4  1  0  0  0  0
  1 11  1  0  0  0  0
  2  6  1  0  0  0  0
  3  4  2  0  0  0  0
  3  5  1  0  0  0  0
  5  6  2  0  0  0  0
  5  9  1  0  0  0  0
  6  7  1  0  0  0  0
  7  8  1  0  0  0  0
  7 10  2  3  0  0  0
  8  9  1  0  0  0  0
 10 12  1  0  0  0  0
 11 24  1  0  0  0  0
 11 27  2  0  0  0  0
 12 13  2  0  0  0  0
 12 17  1  0  0  0  0
 13 14  1  0  0  0  0
 14 15  2  0  0  0  0
 15 16  1  0  0  0  0
 15 18  1  0  0  0  0
 16 17  2  0  0  0  0
 18 19  2  0  0  0  0
 18 22  1  0  0  0  0
 19 20  1  0  0  0  0
 20 21  1  0  0  0  0
 20 23  1  0  0  0  0
 21 22  2  0  0  0  0
 24 25  1  0  0  0  0
 24 28  1  0  0  0  0
 25 26  2  0  0  0  0
 26 27  1  0  0  0  0
  2 29  1  0  0  0  0
  3 30  1  0  0  0  0
  4 31  1  0  0  0  0
  8 32  1  0  0  0  0
  9 33  1  0  0  0  0
 10 34  1  0  0  0  0
 13 35  1  0  0  0  0
 14 36  1  0  0  0  0
 16 37  1  0  0  0  0
 17 38  1  0  0  0  0
 19 39  1  0  0  0  0
 22 40  1  0  0  0  0
 23 41  1  0  0  0  0
 23 42  1  0  0  0  0
 23 43  1  0  0  0  0
 25 44  1  0  0  0  0
 26 45  1  0  0  0  0
 28 46  1  0  0  0  0
 28 47  1  0  0  0  0
 28 48  1  0  0  0  0
M  END
> <Name>
22

> <IC50[uM]>
0.032

$$$$
22
  -OEChem-05192314333D
 Structure written by MMmdl.
 48 52  0     1  0  0  0  0  0999 V2000
   -6.3943   12.3306  -11.9839 C   0  0  3  0  0  0  0  0  0  0  0  0
   -6.5449   11.7624  -10.7224 C   0  0  0  0  0  0  0  0  0  0  0  0
   -7.7389   10.5318  -13.0493 C   0  0  0  0  0  0  0  0  0  0  0  0
   -6.9892   11.7416  -13.1218 C   0  0  0  0  0  0  0  0  0  0  0  0
   -7.8445    9.9757  -11.7834 C   0  0  0  0  0  0  0  0  0  0  0  0
   -7.2758   10.5697  -10.6136 C   0  0  0  0  0  0  0  0  0  0  0  0
   -7.6401    9.7111   -9.5254 C   0  0  0  0  0  0  0  0  0  0  0  0
   -8.3075    8.6850  -10.0132 N   0  0  0  0  0  0  0  0  0  0  0  0
   -8.4539    8.8245  -11.3160 N   0  0  0  0  0  0  0  0  0  0  0  0
   -7.3472    9.8680   -8.0446 C   0  0  0  0  0  0  0  0  0  0  0  0
   -5.5569   13.6094  -12.1739 C   0  0  0  0  0  0  0  0  0  0  0  0
   -5.9691   10.4796   -7.7443 C   0  0  0  0  0  0  0  0  0  0  0  0
   -5.8622   11.7497   -7.1624 C   0  0  0  0  0  0  0  0  0  0  0  0
   -4.6000   12.2988   -6.9070 C   0  0  0  0  0  0  0  0  0  0  0  0
   -3.4496   11.5829   -7.2293 C   0  0  0  0  0  0  0  0  0  0  0  0
   -3.5554   10.3089   -7.8035 C   0  0  0  0  0  0  0  0  0  0  0  0
   -4.8209    9.7667   -8.0554 C   0  0  0  0  0  0  0  0  0  0  0  0
   -2.0956   12.1660   -6.9654 C   0  0  0  0  0  0  0  0  0  0  0  0
   -1.7384   13.4130   -6.4683 C   0  0  0  0  0  0  0  0  0  0  0  0
   -0.4069   13.4502   -6.4129 N   0  0  0  0  0  0  0  0  0  0  0  0
    0.1813   12.3566   -6.8171 N   0  0  0  0  0  0  0  0  0  0  0  0
   -0.7988   11.5478   -7.1867 C   0  0  0  0  0  0  0  0  0  0  0  0
    0.4282   14.5550   -5.9664 C   0  0  0  0  0  0  0  0  0  0  0  0
   -4.7714   14.2106  -11.2027 N   0  0  0  0  0  0  0  0  0  0  0  0
   -4.2061   15.2849  -11.7862 C   0  0  0  0  0  0  0  0  0  0  0  0
   -4.6883   15.3268  -13.0997 C   0  0  0  0  0  0  0  0  0  0  0  0
   -5.5027   14.2765  -13.3098 N   0  0  0  0  0  0  0  0  0  0  0  0
   -4.5364   13.8232   -9.7989 C   0  0  0  0  0  0  0  0  0  0  0  0
   -7.2958   12.9399  -11.8223 H   0  0  0  0  0  0  0  0  0  0  0  0
   -6.1104   12.2275   -9.8498 H   0  0  0  0  0  0  0  0  0  0  0  0
   -8.1928   10.0800  -13.9189 H   0  0  0  0  0  0  0  0  0  0  0  0
   -6.8717   12.2251  -14.0803 H   0  0  0  0  0  0  0  0  0  0  0  0
   -8.6516    7.9153   -9.4755 H   0  0  0  0  0  0  0  0  0  0  0  0
   -8.0435    9.5766   -7.2721 H   0  0  0  0  0  0  0  0  0  0  0  0
   -6.7536   12.3051   -6.9109 H   0  0  0  0  0  0  0  0  0  0  0  0
   -4.5183   13.2784   -6.4597 H   0  0  0  0  0  0  0  0  0  0  0  0
   -2.6656    9.7487   -8.0502 H   0  0  0  0  0  0  0  0  0  0  0  0
   -4.9040    8.7842   -8.4961 H   0  0  0  0  0  0  0  0  0  0  0  0
   -2.4137   14.2051   -6.1803 H   0  0  0  0  0  0  0  0  0  0  0  0
   -0.6543   10.5597   -7.5981 H   0  0  0  0  0  0  0  0  0  0  0  0
    1.4877   14.2705   -6.0474 H   0  0  0  0  0  0  0  0  0  0  0  0
    0.2364   15.4369   -6.5953 H   0  0  0  0  0  0  0  0  0  0  0  0
    0.1917   14.7932   -4.9189 H   0  0  0  0  0  0  0  0  0  0  0  0
   -3.5156   15.9786  -11.3298 H   0  0  0  0  0  0  0  0  0  0  0  0
   -4.4447   16.0839  -13.8303 H   0  0  0  0  0  0  0  0  0  0  0  0
   -3.8494   14.5427   -9.3295 H   0  0  0  0  0  0  0  0  0  0  0  0
   -5.4922   13.8204   -9.2545 H   0  0  0  0  0  0  0  0  0  0  0  0
   -4.0925   12.8173   -9.7656 H   0  0  0  0  0  0  0  0  0  0  0  0
  1  2  1  0  0  0  0
  1  4  1  0  0  0  0
  1 11  1  0  0  0  0
  2  6  2  0  0  0  0
  3  4  2  0  0  0  0
  3  5  1  0  0  0  0
  5  6  1  0  0  0  0
  5  9  2  0  0  0  0
  6  7  1  0  0  0  0
  7  8  1  0  0  0  0
  7 10  2  3  0  0  0
  8  9  1  0  0  0  0
 10 12  1  0  0  0  0
 11 24  1  0  0  0  0
 11 27  2  0  0  0  0
 12 13  2  0  0  0  0
 12 17  1  0  0  0  0
 13 14  1  0  0  0  0
 14 15  2  0  0  0  0
 15 16  1  0  0  0  0
 15 18  1  0  0  0  0
 16 17  2  0  0  0  0
 18 19  2  0  0  0  0
 18 22  1  0  0  0  0
 19 20  1  0  0  0  0
 20 21  1  0  0  0  0
 20 23  1  0  0  0  0
 21 22  2  0  0  0  0
 24 25  1  0  0  0  0
 24 28  1  0  0  0  0
 25 26  2  0  0  0  0
 26 27  1  0  0  0  0
  1 29  1  0  0  0  0
  2 30  1  0  0  0  0
  3 31  1  0  0  0  0
  4 32  1  0  0  0  0
  8 33  1  0  0  0  0
 10 34  1  0  0  0  0
 13 35  1  0  0  0  0
 14 36  1  0  0  0  0
 16 37  1  0  0  0  0
 17 38  1  0  0  0  0
 19 39  1  0  0  0  0
 22 40  1  0  0  0  0
 23 41  1  0  0  0  0
 23 42  1  0  0  0  0
 23 43  1  0  0  0  0
 25 44  1  0  0  0  0
 26 45  1  0  0  0  0
 28 46  1  0  0  0  0
 28 47  1  0  0  0  0
 28 48  1  0  0  0  0
M  END
> <Name>
22

> <IC50[uM]>
0.032

$$$$
22
  -OEChem-05192314333D
 Structure written by MMmdl.
 48 52  0     0  0  0  0  0  0999 V2000
   -6.3943   12.3306  -11.9839 C   0  0  0  0  0  0  0  0  0  0  0  0
   -6.5449   11.7624  -10.7224 C   0  0  0  0  0  0  0  0  0  0  0  0
   -7.7389   10.5318  -13.0493 C   0  0  0  0  0  0  0  0  0  0  0  0
   -6.9892   11.7416  -13.1218 C   0  0  0  0  0  0  0  0  0  0  0  0
   -7.8445    9.9757  -11.7834 C   0  0  0  0  0  0  0  0  0  0  0  0
   -7.2758   10.5697  -10.6136 C   0  0  0  0  0  0  0  0  0  0  0  0
   -7.6401    9.7111   -9.5254 C   0  0  0  0  0  0  0  0  0  0  0  0
   -8.3075    8.6850  -10.0132 N   0  0  0  0  0  0  0  0  0  0  0  0
   -8.4539    8.8245  -11.3160 N   0  0  0  0  0  0  0  0  0  0  0  0
   -7.3472    9.8680   -8.0446 C   0  0  0  0  0  0  0  0  0  0  0  0
   -5.5569   13.6094  -12.1739 C   0  0  0  0  0  0  0  0  0  0  0  0
   -5.9691   10.4796   -7.7443 C   0  0  0  0  0  0  0  0  0  0  0  0
   -5.8622   11.7497   -7.1624 C   0  0  0  0  0  0  0  0  0  0  0  0
   -4.6000   12.2988   -6.9070 C   0  0  0  0  0  0  0  0  0  0  0  0
   -3.4496   11.5829   -7.2293 C   0  0  0  0  0  0  0  0  0  0  0  0
   -3.5554   10.3089   -7.8035 C   0  0  0  0  0  0  0  0  0  0  0  0
   -4.8209    9.7667   -8.0554 C   0  0  0  0  0  0  0  0  0  0  0  0
   -2.0956   12.1660   -6.9654 C   0  0  0  0  0  0  0  0  0  0  0  0
   -1.7384   13.4130   -6.4683 C   0  0  0  0  0  0  0  0  0  0  0  0
   -0.4069   13.4502   -6.4129 N   0  0  0  0  0  0  0  0  0  0  0  0
    0.1813   12.3566   -6.8171 N   0  0  0  0  0  0  0  0  0  0  0  0
   -0.7988   11.5478   -7.1867 C   0  0  0  0  0  0  0  0  0  0  0  0
    0.4282   14.5550   -5.9664 C   0  0  0  0  0  0  0  0  0  0  0  0
   -4.7714   14.2106  -11.2027 N   0  0  0  0  0  0  0  0  0  0  0  0
   -4.2061   15.2849  -11.7862 C   0  0  0  0  0  0  0  0  0  0  0  0
   -4.6883   15.3268  -13.0997 C   0  0  0  0  0  0  0  0  0  0  0  0
   -5.5027   14.2765  -13.3098 N   0  0  0  0  0  0  0  0  0  0  0  0
   -4.5364   13.8232   -9.7989 C   0  0  0  0  0  0  0  0  0  0  0  0
   -6.1104   12.2275   -9.8498 H   0  0  0  0  0  0  0  0  0  0  0  0
   -8.7553   10.7392  -13.4153 H   0  0  0  0  0  0  0  0  0  0  0  0
   -7.2563    9.7930  -13.7060 H   0  0  0  0  0  0  0  0  0  0  0  0
   -6.8717   12.2251  -14.0803 H   0  0  0  0  0  0  0  0  0  0  0  0
   -8.6516    7.9153   -9.4755 H   0  0  0  0  0  0  0  0  0  0  0  0
   -8.0435    9.5766   -7.2721 H   0  0  0  0  0  0  0  0  0  0  0  0
   -6.7536   12.3051   -6.9109 H   0  0  0  0  0  0  0  0  0  0  0  0
   -4.5183   13.2784   -6.4597 H   0  0  0  0  0  0  0  0  0  0  0  0
   -2.6656    9.7487   -8.0502 H   0  0  0  0  0  0  0  0  0  0  0  0
   -4.9040    8.7842   -8.4961 H   0  0  0  0  0  0  0  0  0  0  0  0
   -2.4137   14.2051   -6.1803 H   0  0  0  0  0  0  0  0  0  0  0  0
   -0.6543   10.5597   -7.5981 H   0  0  0  0  0  0  0  0  0  0  0  0
    1.4877   14.2705   -6.0474 H   0  0  0  0  0  0  0  0  0  0  0  0
    0.2364   15.4369   -6.5953 H   0  0  0  0  0  0  0  0  0  0  0  0
    0.1917   14.7932   -4.9189 H   0  0  0  0  0  0  0  0  0  0  0  0
   -3.5156   15.9786  -11.3298 H   0  0  0  0  0  0  0  0  0  0  0  0
   -4.4447   16.0839  -13.8303 H   0  0  0  0  0  0  0  0  0  0  0  0
   -3.8494   14.5427   -9.3295 H   0  0  0  0  0  0  0  0  0  0  0  0
   -5.4922   13.8204   -9.2545 H   0  0  0  0  0  0  0  0  0  0  0  0
   -4.0925   12.8173   -9.7656 H   0  0  0  0  0  0  0  0  0  0  0  0
  1  2  1  0  0  0  0
  1  4  2  0  0  0  0
  1 11  1  0  0  0  0
  2  6  2  0  0  0  0
  3  4  1  0  0  0  0
  3  5  1  0  0  0  0
  5  6  1  0  0  0  0
  5  9  2  0  0  0  0
  6  7  1  0  0  0  0
  7  8  1  0  0  0  0
  7 10  2  3  0  0  0
  8  9  1  0  0  0  0
 10 12  1  0  0  0  0
 11 24  1  0  0  0  0
 11 27  2  0  0  0  0
 12 13  2  0  0  0  0
 12 17  1  0  0  0  0
 13 14  1  0  0  0  0
 14 15  2  0  0  0  0
 15 16  1  0  0  0  0
 15 18  1  0  0  0  0
 16 17  2  0  0  0  0
 18 19  2  0  0  0  0
 18 22  1  0  0  0  0
 19 20  1  0  0  0  0
 20 21  1  0  0  0  0
 20 23  1  0  0  0  0
 21 22  2  0  0  0  0
 24 25  1  0  0  0  0
 24 28  1  0  0  0  0
 25 26  2  0  0  0  0
 26 27  1  0  0  0  0
  2 29  1  0  0  0  0
  3 30  1  0  0  0  0
  3 31  1  0  0  0  0
  4 32  1  0  0  0  0
  8 33  1  0  0  0  0
 10 34  1  0  0  0  0
 13 35  1  0  0  0  0
 14 36  1  0  0  0  0
 16 37  1  0  0  0  0
 17 38  1  0  0  0  0
 19 39  1  0  0  0  0
 22 40  1  0  0  0  0
 23 41  1  0  0  0  0
 23 42  1  0  0  0  0
 23 43  1  0  0  0  0
 25 44  1  0  0  0  0
 26 45  1  0  0  0  0
 28 46  1  0  0  0  0
 28 47  1  0  0  0  0
 28 48  1  0  0  0  0
M  END
> <Name>
22

> <IC50[uM]>
0.032

$$$$
22
  -OEChem-05192314333D
 Structure written by MMmdl.
 48 52  0     1  0  0  0  0  0999 V2000
   -6.3943   12.3306  -11.9839 C   0  0  0  0  0  0  0  0  0  0  0  0
   -6.5449   11.7624  -10.7224 C   0  0  0  0  0  0  0  0  0  0  0  0
   -7.7389   10.5318  -13.0493 C   0  0  0  0  0  0  0  0  0  0  0  0
   -6.9892   11.7416  -13.1218 C   0  0  0  0  0  0  0  0  0  0  0  0
   -7.8445    9.9757  -11.7834 C   0  0  0  0  0  0  0  0  0  0  0  0
   -7.2758   10.5697  -10.6136 C   0  0  0  0  0  0  0  0  0  0  0  0
   -7.6401    9.7111   -9.5254 C   0  0  0  0  0  0  0  0  0  0  0  0
   -8.3075    8.6850  -10.0132 N   0  0  0  0  0  0  0  0  0  0  0  0
   -8.4539    8.8245  -11.3160 N   0  0  0  0  0  0  0  0  0  0  0  0
   -7.3472    9.8680   -8.0446 C   0  0  0  0  0  0  0  0  0  0  0  0
   -5.5569   13.6094  -12.1739 C   0  0  0  0  0  0  0  0  0  0  0  0
   -5.9691   10.4796   -7.7443 C   0  0  0  0  0  0  0  0  0  0  0  0
   -5.8622   11.7497   -7.1624 C   0  0  0  0  0  0  0  0  0  0  0  0
   -4.6000   12.2988   -6.9070 C   0  0  0  0  0  0  0  0  0  0  0  0
   -3.4496   11.5829   -7.2293 C   0  0  0  0  0  0  0  0  0  0  0  0
   -3.5554   10.3089   -7.8035 C   0  0  0  0  0  0  0  0  0  0  0  0
   -4.8209    9.7667   -8.0554 C   0  0  0  0  0  0  0  0  0  0  0  0
   -2.0956   12.1660   -6.9654 C   0  0  0  0  0  0  0  0  0  0  0  0
   -1.7384   13.4130   -6.4683 C   0  0  0  0  0  0  0  0  0  0  0  0
   -0.4069   13.4502   -6.4129 N   0  0  0  0  0  0  0  0  0  0  0  0
    0.1813   12.3566   -6.8171 N   0  0  0  0  0  0  0  0  0  0  0  0
   -0.7988   11.5478   -7.1867 C   0  0  0  0  0  0  0  0  0  0  0  0
    0.4282   14.5550   -5.9664 C   0  0  0  0  0  0  0  0  0  0  0  0
   -4.7714   14.2106  -11.2027 N   0  0  3  0  0  0  0  0  0  0  0  0
   -4.2061   15.2849  -11.7862 C   0  0  0  0  0  0  0  0  0  0  0  0
   -4.6883   15.3268  -13.0997 C   0  0  0  0  0  0  0  0  0  0  0  0
   -5.5027   14.2765  -13.3098 N   0  0  0  0  0  0  0  0  0  0  0  0
   -4.5364   13.8232   -9.7989 C   0  0  0  0  0  0  0  0  0  0  0  0
   -6.1104   12.2275   -9.8498 H   0  0  0  0  0  0  0  0  0  0  0  0
   -8.1928   10.0800  -13.9189 H   0  0  0  0  0  0  0  0  0  0  0  0
   -6.8717   12.2251  -14.0803 H   0  0  0  0  0  0  0  0  0  0  0  0
   -8.6516    7.9153   -9.4755 H   0  0  0  0  0  0  0  0  0  0  0  0
   -8.0435    9.5766   -7.2721 H   0  0  0  0  0  0  0  0  0  0  0  0
   -6.7536   12.3051   -6.9109 H   0  0  0  0  0  0  0  0  0  0  0  0
   -4.5183   13.2784   -6.4597 H   0  0  0  0  0  0  0  0  0  0  0  0
   -2.6656    9.7487   -8.0502 H   0  0  0  0  0  0  0  0  0  0  0  0
   -4.9040    8.7842   -8.4961 H   0  0  0  0  0  0  0  0  0  0  0  0
   -2.4137   14.2051   -6.1803 H   0  0  0  0  0  0  0  0  0  0  0  0
   -0.6543   10.5597   -7.5981 H   0  0  0  0  0  0  0  0  0  0  0  0
    1.4877   14.2705   -6.0474 H   0  0  0  0  0  0  0  0  0  0  0  0
    0.2364   15.4369   -6.5953 H   0  0  0  0  0  0  0  0  0  0  0  0
    0.1917   14.7932   -4.9189 H   0  0  0  0  0  0  0  0  0  0  0  0
   -4.4893   16.2018  -11.2485 H   0  0  0  0  0  0  0  0  0  0  0  0
   -3.1108   15.1839  -11.7871 H   0  0  0  0  0  0  0  0  0  0  0  0
   -4.4447   16.0839  -13.8303 H   0  0  0  0  0  0  0  0  0  0  0  0
   -3.8494   14.5427   -9.3295 H   0  0  0  0  0  0  0  0  0  0  0  0
   -5.4922   13.8204   -9.2545 H   0  0  0  0  0  0  0  0  0  0  0  0
   -4.0925   12.8173   -9.7656 H   0  0  0  0  0  0  0  0  0  0  0  0
  1  2  1  0  0  0  0
  1  4  1  0  0  0  0
  1 11  2  0  0  0  0
  2  6  2  0  0  0  0
  3  4  2  0  0  0  0
  3  5  1  0  0  0  0
  5  6  1  0  0  0  0
  5  9  2  0  0  0  0
  6  7  1  0  0  0  0
  7  8  1  0  0  0  0
  7 10  2  3  0  0  0
  8  9  1  0  0  0  0
 10 12  1  0  0  0  0
 11 24  1  0  0  0  0
 11 27  1  0  0  0  0
 12 13  2  0  0  0  0
 12 17  1  0  0  0  0
 13 14  1  0  0  0  0
 14 15  2  0  0  0  0
 15 16  1  0  0  0  0
 15 18  1  0  0  0  0
 16 17  2  0  0  0  0
 18 19  2  0  0  0  0
 18 22  1  0  0  0  0
 19 20  1  0  0  0  0
 20 21  1  0  0  0  0
 20 23  1  0  0  0  0
 21 22  2  0  0  0  0
 24 25  1  0  0  0  0
 24 28  1  0  0  0  0
 25 26  1  0  0  0  0
 26 27  2  0  0  0  0
  2 29  1  0  0  0  0
  3 30  1  0  0  0  0
  4 31  1  0  0  0  0
  8 32  1  0  0  0  0
 10 33  1  0  0  0  0
 13 34  1  0  0  0  0
 14 35  1  0  0  0  0
 16 36  1  0  0  0  0
 17 37  1  0  0  0  0
 19 38  1  0  0  0  0
 22 39  1  0  0  0  0
 23 40  1  0  0  0  0
 23 41  1  0  0  0  0
 23 42  1  0  0  0  0
 25 43  1  0  0  0  0
 25 44  1  0  0  0  0
 26 45  1  0  0  0  0
 28 46  1  0  0  0  0
 28 47  1  0  0  0  0
 28 48  1  0  0  0  0
M  END
> <Name>
22

> <IC50[uM]>
0.032

$$$$
22
  -OEChem-05192314333D
 Structure written by MMmdl.
 48 52  0     1  0  0  0  0  0999 V2000
   -6.3943   12.3306  -11.9839 C   0  0  0  0  0  0  0  0  0  0  0  0
   -6.5449   11.7624  -10.7224 C   0  0  0  0  0  0  0  0  0  0  0  0
   -7.7389   10.5318  -13.0493 C   0  0  0  0  0  0  0  0  0  0  0  0
   -6.9892   11.7416  -13.1218 C   0  0  0  0  0  0  0  0  0  0  0  0
   -7.8445    9.9757  -11.7834 C   0  0  0  0  0  0  0  0  0  0  0  0
   -7.2758   10.5697  -10.6136 C   0  0  0  0  0  0  0  0  0  0  0  0
   -7.6401    9.7111   -9.5254 C   0  0  0  0  0  0  0  0  0  0  0  0
   -8.3075    8.6850  -10.0132 N   0  0  0  0  0  0  0  0  0  0  0  0
   -8.4539    8.8245  -11.3160 N   0  0  0  0  0  0  0  0  0  0  0  0
   -7.3472    9.8680   -8.0446 C   0  0  0  0  0  0  0  0  0  0  0  0
   -5.5569   13.6094  -12.1739 C   0  0  0  0  0  0  0  0  0  0  0  0
   -5.9691   10.4796   -7.7443 C   0  0  0  0  0  0  0  0  0  0  0  0
   -5.8622   11.7497   -7.1624 C   0  0  0  0  0  0  0  0  0  0  0  0
   -4.6000   12.2988   -6.9070 C   0  0  0  0  0  0  0  0  0  0  0  0
   -3.4496   11.5829   -7.2293 C   0  0  0  0  0  0  0  0  0  0  0  0
   -3.5554   10.3089   -7.8035 C   0  0  0  0  0  0  0  0  0  0  0  0
   -4.8209    9.7667   -8.0554 C   0  0  0  0  0  0  0  0  0  0  0  0
   -2.0956   12.1660   -6.9654 C   0  0  0  0  0  0  0  0  0  0  0  0
   -1.7384   13.4130   -6.4683 C   0  0  0  0  0  0  0  0  0  0  0  0
   -0.4069   13.4502   -6.4129 N   0  0  3  0  0  0  0  0  0  0  0  0
    0.1813   12.3566   -6.8171 N   0  0  0  0  0  0  0  0  0  0  0  0
   -0.7988   11.5478   -7.1867 C   0  0  0  0  0  0  0  0  0  0  0  0
    0.4282   14.5550   -5.9664 C   0  0  0  0  0  0  0  0  0  0  0  0
   -4.7714   14.2106  -11.2027 N   0  0  0  0  0  0  0  0  0  0  0  0
   -4.2061   15.2849  -11.7862 C   0  0  0  0  0  0  0  0  0  0  0  0
   -4.6883   15.3268  -13.0997 C   0  0  0  0  0  0  0  0  0  0  0  0
   -5.5027   14.2765  -13.3098 N   0  0  0  0  0  0  0  0  0  0  0  0
   -4.5364   13.8232   -9.7989 C   0  0  0  0  0  0  0  0  0  0  0  0
   -6.1104   12.2275   -9.8498 H   0  0  0  0  0  0  0  0  0  0  0  0
   -8.1928   10.0800  -13.9189 H   0  0  0  0  0  0  0  0  0  0  0  0
   -6.8717   12.2251  -14.0803 H   0  0  0  0  0  0  0  0  0  0  0  0
   -8.6516    7.9153   -9.4755 H   0  0  0  0  0  0  0  0  0  0  0  0
   -8.0435    9.5766   -7.2721 H   0  0  0  0  0  0  0  0  0  0  0  0
   -6.7536   12.3051   -6.9109 H   0  0  0  0  0  0  0  0  0  0  0  0
   -4.5183   13.2784   -6.4597 H   0  0  0  0  0  0  0  0  0  0  0  0
   -2.6656    9.7487   -8.0502 H   0  0  0  0  0  0  0  0  0  0  0  0
   -4.9040    8.7842   -8.4961 H   0  0  0  0  0  0  0  0  0  0  0  0
   -2.1098   14.2048   -7.1354 H   0  0  0  0  0  0  0  0  0  0  0  0
   -2.1612   13.5527   -5.4625 H   0  0  0  0  0  0  0  0  0  0  0  0
   -0.6543   10.5597   -7.5981 H   0  0  0  0  0  0  0  0  0  0  0  0
    1.4877   14.2705   -6.0474 H   0  0  0  0  0  0  0  0  0  0  0  0
    0.2364   15.4369   -6.5953 H   0  0  0  0  0  0  0  0  0  0  0  0
    0.1917   14.7932   -4.9189 H   0  0  0  0  0  0  0  0  0  0  0  0
   -3.5156   15.9786  -11.3298 H   0  0  0  0  0  0  0  0  0  0  0  0
   -4.4447   16.0839  -13.8303 H   0  0  0  0  0  0  0  0  0  0  0  0
   -3.8494   14.5427   -9.3295 H   0  0  0  0  0  0  0  0  0  0  0  0
   -5.4922   13.8204   -9.2545 H   0  0  0  0  0  0  0  0  0  0  0  0
   -4.0925   12.8173   -9.7656 H   0  0  0  0  0  0  0  0  0  0  0  0
  1  2  2  0  0  0  0
  1  4  1  0  0  0  0
  1 11  1  0  0  0  0
  2  6  1  0  0  0  0
  3  4  2  0  0  0  0
  3  5  1  0  0  0  0
  5  6  1  0  0  0  0
  5  9  2  0  0  0  0
  6  7  2  0  0  0  0
  7  8  1  0  0  0  0
  7 10  1  0  0  0  0
  8  9  1  0  0  0  0
 10 12  2  0  0  0  0
 11 24  1  0  0  0  0
 11 27  2  0  0  0  0
 12 13  1  0  0  0  0
 12 17  1  0  0  0  0
 13 14  2  0  0  0  0
 14 15  1  0  0  0  0
 15 16  1  0  0  0  0
 15 18  2  0  0  0  0
 16 17  2  0  0  0  0
 18 19  1  0  0  0  0
 18 22  1  0  0  0  0
 19 20  1  0  0  0  0
 20 21  1  0  0  0  0
 20 23  1  0  0  0  0
 21 22  2  0  0  0  0
 24 25  1  0  0  0  0
 24 28  1  0  0  0  0
 25 26  2  0  0  0  0
 26 27  1  0  0  0  0
  2 29  1  0  0  0  0
  3 30  1  0  0  0  0
  4 31  1  0  0  0  0
  8 32  1  0  0  0  0
 10 33  1  0  0  0  0
 13 34  1  0  0  0  0
 14 35  1  0  0  0  0
 16 36  1  0  0  0  0
 17 37  1  0  0  0  0
 19 38  1  0  0  0  0
 19 39  1  0  0  0  0
 22 40  1  0  0  0  0
 23 41  1  0  0  0  0
 23 42  1  0  0  0  0
 23 43  1  0  0  0  0
 25 44  1  0  0  0  0
 26 45  1  0  0  0  0
 28 46  1  0  0  0  0
 28 47  1  0  0  0  0
 28 48  1  0  0  0  0
M  END
> <Name>
22

> <IC50[uM]>
0.032

$$$$
22
  -OEChem-05192314333D
 Structure written by MMmdl.
 48 52  0     1  0  0  0  0  0999 V2000
   -6.3943   12.3306  -11.9839 C   0  0  0  0  0  0  0  0  0  0  0  0
   -6.5449   11.7624  -10.7224 C   0  0  0  0  0  0  0  0  0  0  0  0
   -7.7389   10.5318  -13.0493 C   0  0  0  0  0  0  0  0  0  0  0  0
   -6.9892   11.7416  -13.1218 C   0  0  0  0  0  0  0  0  0  0  0  0
   -7.8445    9.9757  -11.7834 C   0  0  0  0  0  0  0  0  0  0  0  0
   -7.2758   10.5697  -10.6136 C   0  0  0  0  0  0  0  0  0  0  0  0
   -7.6401    9.7111   -9.5254 C   0  0  0  0  0  0  0  0  0  0  0  0
   -8.3075    8.6850  -10.0132 N   0  0  0  0  0  0  0  0  0  0  0  0
   -8.4539    8.8245  -11.3160 N   0  0  0  0  0  0  0  0  0  0  0  0
   -7.3472    9.8680   -8.0446 C   0  0  0  0  0  0  0  0  0  0  0  0
   -5.5569   13.6094  -12.1739 C   0  0  0  0  0  0  0  0  0  0  0  0
   -5.9691   10.4796   -7.7443 C   0  0  0  0  0  0  0  0  0  0  0  0
   -5.8622   11.7497   -7.1624 C   0  0  0  0  0  0  0  0  0  0  0  0
   -4.6000   12.2988   -6.9070 C   0  0  0  0  0  0  0  0  0  0  0  0
   -3.4496   11.5829   -7.2293 C   0  0  0  0  0  0  0  0  0  0  0  0
   -3.5554   10.3089   -7.8035 C   0  0  0  0  0  0  0  0  0  0  0  0
   -4.8209    9.7667   -8.0554 C   0  0  0  0  0  0  0  0  0  0  0  0
   -2.0956   12.1660   -6.9654 C   0  0  0  0  0  0  0  0  0  0  0  0
   -1.7384   13.4130   -6.4683 C   0  0  0  0  0  0  0  0  0  0  0  0
   -0.4069   13.4502   -6.4129 N   0  0  3  0  0  0  0  0  0  0  0  0
    0.1813   12.3566   -6.8171 N   0  0  0  0  0  0  0  0  0  0  0  0
   -0.7988   11.5478   -7.1867 C   0  0  0  0  0  0  0  0  0  0  0  0
    0.4282   14.5550   -5.9664 C   0  0  0  0  0  0  0  0  0  0  0  0
   -4.7714   14.2106  -11.2027 N   0  0  0  0  0  0  0  0  0  0  0  0
   -4.2061   15.2849  -11.7862 C   0  0  0  0  0  0  0  0  0  0  0  0
   -4.6883   15.3268  -13.0997 C   0  0  0  0  0  0  0  0  0  0  0  0
   -5.5027   14.2765  -13.3098 N   0  0  0  0  0  0  0  0  0  0  0  0
   -4.5364   13.8232   -9.7989 C   0  0  0  0  0  0  0  0  0  0  0  0
   -6.1104   12.2275   -9.8498 H   0  0  0  0  0  0  0  0  0  0  0  0
   -8.1928   10.0800  -13.9189 H   0  0  0  0  0  0  0  0  0  0  0  0
   -6.8717   12.2251  -14.0803 H   0  0  0  0  0  0  0  0  0  0  0  0
   -8.9463    8.1762  -11.8968 H   0  0  0  0  0  0  0  0  0  0  0  0
   -8.0435    9.5766   -7.2721 H   0  0  0  0  0  0  0  0  0  0  0  0
   -6.7536   12.3051   -6.9109 H   0  0  0  0  0  0  0  0  0  0  0  0
   -4.5183   13.2784   -6.4597 H   0  0  0  0  0  0  0  0  0  0  0  0
   -2.6656    9.7487   -8.0502 H   0  0  0  0  0  0  0  0  0  0  0  0
   -4.9040    8.7842   -8.4961 H   0  0  0  0  0  0  0  0  0  0  0  0
   -2.1098   14.2048   -7.1354 H   0  0  0  0  0  0  0  0  0  0  0  0
   -2.1612   13.5527   -5.4625 H   0  0  0  0  0  0  0  0  0  0  0  0
   -0.6543   10.5597   -7.5981 H   0  0  0  0  0  0  0  0  0  0  0  0
    1.4877   14.2705   -6.0474 H   0  0  0  0  0  0  0  0  0  0  0  0
    0.2364   15.4369   -6.5953 H   0  0  0  0  0  0  0  0  0  0  0  0
    0.1917   14.7932   -4.9189 H   0  0  0  0  0  0  0  0  0  0  0  0
   -3.5156   15.9786  -11.3298 H   0  0  0  0  0  0  0  0  0  0  0  0
   -4.4447   16.0839  -13.8303 H   0  0  0  0  0  0  0  0  0  0  0  0
   -3.8494   14.5427   -9.3295 H   0  0  0  0  0  0  0  0  0  0  0  0
   -5.4922   13.8204   -9.2545 H   0  0  0  0  0  0  0  0  0  0  0  0
   -4.0925   12.8173   -9.7656 H   0  0  0  0  0  0  0  0  0  0  0  0
  1  2  2  0  0  0  0
  1  4  1  0  0  0  0
  1 11  1  0  0  0  0
  2  6  1  0  0  0  0
  3  4  2  0  0  0  0
  3  5  1  0  0  0  0
  5  6  2  0  0  0  0
  5  9  1  0  0  0  0
  6  7  1  0  0  0  0
  7  8  2  0  0  0  0
  7 10  1  0  0  0  0
  8  9  1  0  0  0  0
 10 12  2  0  0  0  0
 11 24  1  0  0  0  0
 11 27  2  0  0  0  0
 12 13  1  0  0  0  0
 12 17  1  0  0  0  0
 13 14  2  0  0  0  0
 14 15  1  0  0  0  0
 15 16  1  0  0  0  0
 15 18  2  0  0  0  0
 16 17  2  0  0  0  0
 18 19  1  0  0  0  0
 18 22  1  0  0  0  0
 19 20  1  0  0  0  0
 20 21  1  0  0  0  0
 20 23  1  0  0  0  0
 21 22  2  0  0  0  0
 24 25  1  0  0  0  0
 24 28  1  0  0  0  0
 25 26  2  0  0  0  0
 26 27  1  0  0  0  0
  2 29  1  0  0  0  0
  3 30  1  0  0  0  0
  4 31  1  0  0  0  0
  9 32  1  0  0  0  0
 10 33  1  0  0  0  0
 13 34  1  0  0  0  0
 14 35  1  0  0  0  0
 16 36  1  0  0  0  0
 17 37  1  0  0  0  0
 19 38  1  0  0  0  0
 19 39  1  0  0  0  0
 22 40  1  0  0  0  0
 23 41  1  0  0  0  0
 23 42  1  0  0  0  0
 23 43  1  0  0  0  0
 25 44  1  0  0  0  0
 26 45  1  0  0  0  0
 28 46  1  0  0  0  0
 28 47  1  0  0  0  0
 28 48  1  0  0  0  0
M  END
> <Name>
22

> <IC50[uM]>
0.032

$$$$
22
  -OEChem-05192314333D
 Structure written by MMmdl.
 48 52  0     0  0  0  0  0  0999 V2000
   -6.3943   12.3306  -11.9839 C   0  0  0  0  0  0  0  0  0  0  0  0
   -6.5449   11.7624  -10.7224 C   0  0  0  0  0  0  0  0  0  0  0  0
   -7.7389   10.5318  -13.0493 C   0  0  0  0  0  0  0  0  0  0  0  0
   -6.9892   11.7416  -13.1218 C   0  0  0  0  0  0  0  0  0  0  0  0
   -7.8445    9.9757  -11.7834 C   0  0  0  0  0  0  0  0  0  0  0  0
   -7.2758   10.5697  -10.6136 C   0  0  0  0  0  0  0  0  0  0  0  0
   -7.6401    9.7111   -9.5254 C   0  0  0  0  0  0  0  0  0  0  0  0
   -8.3075    8.6850  -10.0132 N   0  0  0  0  0  0  0  0  0  0  0  0
   -8.4539    8.8245  -11.3160 N   0  0  0  0  0  0  0  0  0  0  0  0
   -7.3472    9.8680   -8.0446 C   0  0  0  0  0  0  0  0  0  0  0  0
   -5.5569   13.6094  -12.1739 C   0  0  0  0  0  0  0  0  0  0  0  0
   -5.9691   10.4796   -7.7443 C   0  0  0  0  0  0  0  0  0  0  0  0
   -5.8622   11.7497   -7.1624 C   0  0  0  0  0  0  0  0  0  0  0  0
   -4.6000   12.2988   -6.9070 C   0  0  0  0  0  0  0  0  0  0  0  0
   -3.4496   11.5829   -7.2293 C   0  0  0  0  0  0  0  0  0  0  0  0
   -3.5554   10.3089   -7.8035 C   0  0  0  0  0  0  0  0  0  0  0  0
   -4.8209    9.7667   -8.0554 C   0  0  0  0  0  0  0  0  0  0  0  0
   -2.0956   12.1660   -6.9654 C   0  0  0  0  0  0  0  0  0  0  0  0
   -1.7384   13.4130   -6.4683 C   0  0  0  0  0  0  0  0  0  0  0  0
   -0.4069   13.4502   -6.4129 N   0  0  0  0  0  0  0  0  0  0  0  0
    0.1813   12.3566   -6.8171 N   0  0  0  0  0  0  0  0  0  0  0  0
   -0.7988   11.5478   -7.1867 C   0  0  0  0  0  0  0  0  0  0  0  0
    0.4282   14.5550   -5.9664 C   0  0  0  0  0  0  0  0  0  0  0  0
   -4.7714   14.2106  -11.2027 N   0  0  0  0  0  0  0  0  0  0  0  0
   -4.2061   15.2849  -11.7862 C   0  0  0  0  0  0  0  0  0  0  0  0
   -4.6883   15.3268  -13.0997 C   0  0  0  0  0  0  0  0  0  0  0  0
   -5.5027   14.2765  -13.3098 N   0  0  0  0  0  0  0  0  0  0  0  0
   -4.5364   13.8232   -9.7989 C   0  0  0  0  0  0  0  0  0  0  0  0
   -6.1104   12.2275   -9.8498 H   0  0  0  0  0  0  0  0  0  0  0  0
   -8.1928   10.0800  -13.9189 H   0  0  0  0  0  0  0  0  0  0  0  0
   -6.8717   12.2251  -14.0803 H   0  0  0  0  0  0  0  0  0  0  0  0
   -8.6516    7.9153   -9.4755 H   0  0  0  0  0  0  0  0  0  0  0  0
   -8.0435    9.5766   -7.2721 H   0  0  0  0  0  0  0  0  0  0  0  0
   -6.7536   12.3051   -6.9109 H   0  0  0  0  0  0  0  0  0  0  0  0
   -4.5183   13.2784   -6.4597 H   0  0  0  0  0  0  0  0  0  0  0  0
   -2.6656    9.7487   -8.0502 H   0  0  0  0  0  0  0  0  0  0  0  0
   -4.9040    8.7842   -8.4961 H   0  0  0  0  0  0  0  0  0  0  0  0
   -2.4137   14.2051   -6.1803 H   0  0  0  0  0  0  0  0  0  0  0  0
   -0.6543   10.5597   -7.5981 H   0  0  0  0  0  0  0  0  0  0  0  0
    1.4877   14.2705   -6.0474 H   0  0  0  0  0  0  0  0  0  0  0  0
    0.2364   15.4369   -6.5953 H   0  0  0  0  0  0  0  0  0  0  0  0
    0.1917   14.7932   -4.9189 H   0  0  0  0  0  0  0  0  0  0  0  0
   -3.5156   15.9786  -11.3298 H   0  0  0  0  0  0  0  0  0  0  0  0
   -4.4447   16.0839  -13.8303 H   0  0  0  0  0  0  0  0  0  0  0  0
   -5.9746   14.0468  -14.1610 H   0  0  0  0  0  0  0  0  0  0  0  0
   -3.8494   14.5427   -9.3295 H   0  0  0  0  0  0  0  0  0  0  0  0
   -5.4922   13.8204   -9.2545 H   0  0  0  0  0  0  0  0  0  0  0  0
   -4.0925   12.8173   -9.7656 H   0  0  0  0  0  0  0  0  0  0  0  0
  1  2  1  0  0  0  0
  1  4  1  0  0  0  0
  1 11  2  0  0  0  0
  2  6  2  0  0  0  0
  3  4  2  0  0  0  0
  3  5  1  0  0  0  0
  5  6  1  0  0  0  0
  5  9  2  0  0  0  0
  6  7  1  0  0  0  0
  7  8  1  0  0  0  0
  7 10  2  3  0  0  0
  8  9  1  0  0  0  0
 10 12  1  0  0  0  0
 11 24  1  0  0  0  0
 11 27  1  0  0  0  0
 12 13  2  0  0  0  0
 12 17  1  0  0  0  0
 13 14  1  0  0  0  0
 14 15  2  0  0  0  0
 15 16  1  0  0  0  0
 15 18  1  0  0  0  0
 16 17  2  0  0  0  0
 18 19  2  0  0  0  0
 18 22  1  0  0  0  0
 19 20  1  0  0  0  0
 20 21  1  0  0  0  0
 20 23  1  0  0  0  0
 21 22  2  0  0  0  0
 24 25  1  0  0  0  0
 24 28  1  0  0  0  0
 25 26  2  0  0  0  0
 26 27  1  0  0  0  0
  2 29  1  0  0  0  0
  3 30  1  0  0  0  0
  4 31  1  0  0  0  0
  8 32  1  0  0  0  0
 10 33  1  0  0  0  0
 13 34  1  0  0  0  0
 14 35  1  0  0  0  0
 16 36  1  0  0  0  0
 17 37  1  0  0  0  0
 19 38  1  0  0  0  0
 22 39  1  0  0  0  0
 23 40  1  0  0  0  0
 23 41  1  0  0  0  0
 23 42  1  0  0  0  0
 25 43  1  0  0  0  0
 26 44  1  0  0  0  0
 27 45  1  0  0  0  0
 28 46  1  0  0  0  0
 28 47  1  0  0  0  0
 28 48  1  0  0  0  0
M  END
> <Name>
22

> <IC50[uM]>
0.032

$$$$
22
  -OEChem-05192314333D
 Structure written by MMmdl.
 48 52  0     0  0  0  0  0  0999 V2000
   -6.3943   12.3306  -11.9839 C   0  0  0  0  0  0  0  0  0  0  0  0
   -6.5449   11.7624  -10.7224 C   0  0  0  0  0  0  0  0  0  0  0  0
   -7.7389   10.5318  -13.0493 C   0  0  0  0  0  0  0  0  0  0  0  0
   -6.9892   11.7416  -13.1218 C   0  0  0  0  0  0  0  0  0  0  0  0
   -7.8445    9.9757  -11.7834 C   0  0  0  0  0  0  0  0  0  0  0  0
   -7.2758   10.5697  -10.6136 C   0  0  0  0  0  0  0  0  0  0  0  0
   -7.6401    9.7111   -9.5254 C   0  0  0  0  0  0  0  0  0  0  0  0
   -8.3075    8.6850  -10.0132 N   0  0  0  0  0  0  0  0  0  0  0  0
   -8.4539    8.8245  -11.3160 N   0  0  0  0  0  0  0  0  0  0  0  0
   -7.3472    9.8680   -8.0446 C   0  0  0  0  0  0  0  0  0  0  0  0
   -5.5569   13.6094  -12.1739 C   0  0  0  0  0  0  0  0  0  0  0  0
   -5.9691   10.4796   -7.7443 C   0  0  0  0  0  0  0  0  0  0  0  0
   -5.8622   11.7497   -7.1624 C   0  0  0  0  0  0  0  0  0  0  0  0
   -4.6000   12.2988   -6.9070 C   0  0  0  0  0  0  0  0  0  0  0  0
   -3.4496   11.5829   -7.2293 C   0  0  0  0  0  0  0  0  0  0  0  0
   -3.5554   10.3089   -7.8035 C   0  0  0  0  0  0  0  0  0  0  0  0
   -4.8209    9.7667   -8.0554 C   0  0  0  0  0  0  0  0  0  0  0  0
   -2.0956   12.1660   -6.9654 C   0  0  0  0  0  0  0  0  0  0  0  0
   -1.7384   13.4130   -6.4683 C   0  0  0  0  0  0  0  0  0  0  0  0
   -0.4069   13.4502   -6.4129 N   0  0  0  0  0  0  0  0  0  0  0  0
    0.1813   12.3566   -6.8171 N   0  0  0  0  0  0  0  0  0  0  0  0
   -0.7988   11.5478   -7.1867 C   0  0  0  0  0  0  0  0  0  0  0  0
    0.4282   14.5550   -5.9664 C   0  0  0  0  0  0  0  0  0  0  0  0
   -4.7714   14.2106  -11.2027 N   0  0  0  0  0  0  0  0  0  0  0  0
   -4.2061   15.2849  -11.7862 C   0  0  0  0  0  0  0  0  0  0  0  0
   -4.6883   15.3268  -13.0997 C   0  0  0  0  0  0  0  0  0  0  0  0
   -5.5027   14.2765  -13.3098 N   0  0  0  0  0  0  0  0  0  0  0  0
   -4.5364   13.8232   -9.7989 C   0  0  0  0  0  0  0  0  0  0  0  0
   -6.1104   12.2275   -9.8498 H   0  0  0  0  0  0  0  0  0  0  0  0
   -8.1928   10.0800  -13.9189 H   0  0  0  0  0  0  0  0  0  0  0  0
   -6.8717   12.2251  -14.0803 H   0  0  0  0  0  0  0  0  0  0  0  0
   -8.6516    7.9153   -9.4755 H   0  0  0  0  0  0  0  0  0  0  0  0
   -8.0435    9.5766   -7.2721 H   0  0  0  0  0  0  0  0  0  0  0  0
   -6.7536   12.3051   -6.9109 H   0  0  0  0  0  0  0  0  0  0  0  0
   -4.5183   13.2784   -6.4597 H   0  0  0  0  0  0  0  0  0  0  0  0
   -3.4490   12.0350   -8.2321 H   0  0  0  0  0  0  0  0  0  0  0  0
   -2.6656    9.7487   -8.0502 H   0  0  0  0  0  0  0  0  0  0  0  0
   -4.9040    8.7842   -8.4961 H   0  0  0  0  0  0  0  0  0  0  0  0
   -2.4137   14.2051   -6.1803 H   0  0  0  0  0  0  0  0  0  0  0  0
   -0.6543   10.5597   -7.5981 H   0  0  0  0  0  0  0  0  0  0  0  0
    1.4877   14.2705   -6.0474 H   0  0  0  0  0  0  0  0  0  0  0  0
    0.2364   15.4369   -6.5953 H   0  0  0  0  0  0  0  0  0  0  0  0
    0.1917   14.7932   -4.9189 H   0  0  0  0  0  0  0  0  0  0  0  0
   -3.5156   15.9786  -11.3298 H   0  0  0  0  0  0  0  0  0  0  0  0
   -4.4447   16.0839  -13.8303 H   0  0  0  0  0  0  0  0  0  0  0  0
   -3.8494   14.5427   -9.3295 H   0  0  0  0  0  0  0  0  0  0  0  0
   -5.4922   13.8204   -9.2545 H   0  0  0  0  0  0  0  0  0  0  0  0
   -4.0925   12.8173   -9.7656 H   0  0  0  0  0  0  0  0  0  0  0  0
  1  2  2  0  0  0  0
  1  4  1  0  0  0  0
  1 11  1  0  0  0  0
  2  6  1  0  0  0  0
  3  4  2  0  0  0  0
  3  5  1  0  0  0  0
  5  6  1  0  0  0  0
  5  9  2  0  0  0  0
  6  7  2  0  0  0  0
  7  8  1  0  0  0  0
  7 10  1  0  0  0  0
  8  9  1  0  0  0  0
 10 12  2  0  0  0  0
 11 24  1  0  0  0  0
 11 27  2  0  0  0  0
 12 13  1  0  0  0  0
 12 17  1  0  0  0  0
 13 14  2  0  0  0  0
 14 15  1  0  0  0  0
 15 16  1  0  0  0  0
 15 18  1  0  0  0  0
 16 17  2  0  0  0  0
 18 19  2  0  0  0  0
 18 22  1  0  0  0  0
 19 20  1  0  0  0  0
 20 21  1  0  0  0  0
 20 23  1  0  0  0  0
 21 22  2  0  0  0  0
 24 25  1  0  0  0  0
 24 28  1  0  0  0  0
 25 26  2  0  0  0  0
 26 27  1  0  0  0  0
  2 29  1  0  0  0  0
  3 30  1  0  0  0  0
  4 31  1  0  0  0  0
  8 32  1  0  0  0  0
 10 33  1  0  0  0  0
 13 34  1  0  0  0  0
 14 35  1  0  0  0  0
 15 36  1  0  0  0  0
 16 37  1  0  0  0  0
 17 38  1  0  0  0  0
 19 39  1  0  0  0  0
 22 40  1  0  0  0  0
 23 41  1  0  0  0  0
 23 42  1  0  0  0  0
 23 43  1  0  0  0  0
 25 44  1  0  0  0  0
 26 45  1  0  0  0  0
 28 46  1  0  0  0  0
 28 47  1  0  0  0  0
 28 48  1  0  0  0  0
M  END
> <Name>
22

> <IC50[uM]>
0.032

$$$$
22
  -OEChem-05192314333D
 Structure written by MMmdl.
 48 52  0     0  0  0  0  0  0999 V2000
   -6.3943   12.3306  -11.9839 C   0  0  0  0  0  0  0  0  0  0  0  0
   -6.5449   11.7624  -10.7224 C   0  0  0  0  0  0  0  0  0  0  0  0
   -7.7389   10.5318  -13.0493 C   0  0  0  0  0  0  0  0  0  0  0  0
   -6.9892   11.7416  -13.1218 C   0  0  0  0  0  0  0  0  0  0  0  0
   -7.8445    9.9757  -11.7834 C   0  0  0  0  0  0  0  0  0  0  0  0
   -7.2758   10.5697  -10.6136 C   0  0  0  0  0  0  0  0  0  0  0  0
   -7.6401    9.7111   -9.5254 C   0  0  0  0  0  0  0  0  0  0  0  0
   -8.3075    8.6850  -10.0132 N   0  0  0  0  0  0  0  0  0  0  0  0
   -8.4539    8.8245  -11.3160 N   0  0  0  0  0  0  0  0  0  0  0  0
   -7.3472    9.8680   -8.0446 C   0  0  0  0  0  0  0  0  0  0  0  0
   -5.5569   13.6094  -12.1739 C   0  0  0  0  0  0  0  0  0  0  0  0
   -5.9691   10.4796   -7.7443 C   0  0  0  0  0  0  0  0  0  0  0  0
   -5.8622   11.7497   -7.1624 C   0  0  0  0  0  0  0  0  0  0  0  0
   -4.6000   12.2988   -6.9070 C   0  0  0  0  0  0  0  0  0  0  0  0
   -3.4496   11.5829   -7.2293 C   0  0  0  0  0  0  0  0  0  0  0  0
   -3.5554   10.3089   -7.8035 C   0  0  0  0  0  0  0  0  0  0  0  0
   -4.8209    9.7667   -8.0554 C   0  0  0  0  0  0  0  0  0  0  0  0
   -2.0956   12.1660   -6.9654 C   0  0  0  0  0  0  0  0  0  0  0  0
   -1.7384   13.4130   -6.4683 C   0  0  0  0  0  0  0  0  0  0  0  0
   -0.4069   13.4502   -6.4129 N   0  0  0  0  0  0  0  0  0  0  0  0
    0.1813   12.3566   -6.8171 N   0  0  0  0  0  0  0  0  0  0  0  0
   -0.7988   11.5478   -7.1867 C   0  0  0  0  0  0  0  0  0  0  0  0
    0.4282   14.5550   -5.9664 C   0  0  0  0  0  0  0  0  0  0  0  0
   -4.7714   14.2106  -11.2027 N   0  0  0  0  0  0  0  0  0  0  0  0
   -4.2061   15.2849  -11.7862 C   0  0  0  0  0  0  0  0  0  0  0  0
   -4.6883   15.3268  -13.0997 C   0  0  0  0  0  0  0  0  0  0  0  0
   -5.5027   14.2765  -13.3098 N   0  0  0  0  0  0  0  0  0  0  0  0
   -4.5364   13.8232   -9.7989 C   0  0  0  0  0  0  0  0  0  0  0  0
   -6.1104   12.2275   -9.8498 H   0  0  0  0  0  0  0  0  0  0  0  0
   -8.1928   10.0800  -13.9189 H   0  0  0  0  0  0  0  0  0  0  0  0
   -6.8717   12.2251  -14.0803 H   0  0  0  0  0  0  0  0  0  0  0  0
   -8.9463    8.1762  -11.8968 H   0  0  0  0  0  0  0  0  0  0  0  0
   -8.0435    9.5766   -7.2721 H   0  0  0  0  0  0  0  0  0  0  0  0
   -6.7536   12.3051   -6.9109 H   0  0  0  0  0  0  0  0  0  0  0  0
   -4.5183   13.2784   -6.4597 H   0  0  0  0  0  0  0  0  0  0  0  0
   -3.4490   12.0350   -8.2321 H   0  0  0  0  0  0  0  0  0  0  0  0
   -2.6656    9.7487   -8.0502 H   0  0  0  0  0  0  0  0  0  0  0  0
   -4.9040    8.7842   -8.4961 H   0  0  0  0  0  0  0  0  0  0  0  0
   -2.4137   14.2051   -6.1803 H   0  0  0  0  0  0  0  0  0  0  0  0
   -0.6543   10.5597   -7.5981 H   0  0  0  0  0  0  0  0  0  0  0  0
    1.4877   14.2705   -6.0474 H   0  0  0  0  0  0  0  0  0  0  0  0
    0.2364   15.4369   -6.5953 H   0  0  0  0  0  0  0  0  0  0  0  0
    0.1917   14.7932   -4.9189 H   0  0  0  0  0  0  0  0  0  0  0  0
   -3.5156   15.9786  -11.3298 H   0  0  0  0  0  0  0  0  0  0  0  0
   -4.4447   16.0839  -13.8303 H   0  0  0  0  0  0  0  0  0  0  0  0
   -3.8494   14.5427   -9.3295 H   0  0  0  0  0  0  0  0  0  0  0  0
   -5.4922   13.8204   -9.2545 H   0  0  0  0  0  0  0  0  0  0  0  0
   -4.0925   12.8173   -9.7656 H   0  0  0  0  0  0  0  0  0  0  0  0
  1  2  2  0  0  0  0
  1  4  1  0  0  0  0
  1 11  1  0  0  0  0
  2  6  1  0  0  0  0
  3  4  2  0  0  0  0
  3  5  1  0  0  0  0
  5  6  2  0  0  0  0
  5  9  1  0  0  0  0
  6  7  1  0  0  0  0
  7  8  2  0  0  0  0
  7 10  1  0  0  0  0
  8  9  1  0  0  0  0
 10 12  2  0  0  0  0
 11 24  1  0  0  0  0
 11 27  2  0  0  0  0
 12 13  1  0  0  0  0
 12 17  1  0  0  0  0
 13 14  2  0  0  0  0
 14 15  1  0  0  0  0
 15 16  1  0  0  0  0
 15 18  1  0  0  0  0
 16 17  2  0  0  0  0
 18 19  2  0  0  0  0
 18 22  1  0  0  0  0
 19 20  1  0  0  0  0
 20 21  1  0  0  0  0
 20 23  1  0  0  0  0
 21 22  2  0  0  0  0
 24 25  1  0  0  0  0
 24 28  1  0  0  0  0
 25 26  2  0  0  0  0
 26 27  1  0  0  0  0
  2 29  1  0  0  0  0
  3 30  1  0  0  0  0
  4 31  1  0  0  0  0
  9 32  1  0  0  0  0
 10 33  1  0  0  0  0
 13 34  1  0  0  0  0
 14 35  1  0  0  0  0
 15 36  1  0  0  0  0
 16 37  1  0  0  0  0
 17 38  1  0  0  0  0
 19 39  1  0  0  0  0
 22 40  1  0  0  0  0
 23 41  1  0  0  0  0
 23 42  1  0  0  0  0
 23 43  1  0  0  0  0
 25 44  1  0  0  0  0
 26 45  1  0  0  0  0
 28 46  1  0  0  0  0
 28 47  1  0  0  0  0
 28 48  1  0  0  0  0
M  END
> <Name>
22

> <IC50[uM]>
0.032

$$$$
22
  -OEChem-05192314333D
 Structure written by MMmdl.
 48 52  0     0  0  0  0  0  0999 V2000
   -6.3943   12.3306  -11.9839 C   0  0  0  0  0  0  0  0  0  0  0  0
   -6.5449   11.7624  -10.7224 C   0  0  0  0  0  0  0  0  0  0  0  0
   -7.7389   10.5318  -13.0493 C   0  0  0  0  0  0  0  0  0  0  0  0
   -6.9892   11.7416  -13.1218 C   0  0  0  0  0  0  0  0  0  0  0  0
   -7.8445    9.9757  -11.7834 C   0  0  0  0  0  0  0  0  0  0  0  0
   -7.2758   10.5697  -10.6136 C   0  0  0  0  0  0  0  0  0  0  0  0
   -7.6401    9.7111   -9.5254 C   0  0  0  0  0  0  0  0  0  0  0  0
   -8.3075    8.6850  -10.0132 N   0  0  0  0  0  0  0  0  0  0  0  0
   -8.4539    8.8245  -11.3160 N   0  0  0  0  0  0  0  0  0  0  0  0
   -7.3472    9.8680   -8.0446 C   0  0  0  0  0  0  0  0  0  0  0  0
   -5.5569   13.6094  -12.1739 C   0  0  0  0  0  0  0  0  0  0  0  0
   -5.9691   10.4796   -7.7443 C   0  0  0  0  0  0  0  0  0  0  0  0
   -5.8622   11.7497   -7.1624 C   0  0  0  0  0  0  0  0  0  0  0  0
   -4.6000   12.2988   -6.9070 C   0  0  0  0  0  0  0  0  0  0  0  0
   -3.4496   11.5829   -7.2293 C   0  0  0  0  0  0  0  0  0  0  0  0
   -3.5554   10.3089   -7.8035 C   0  0  0  0  0  0  0  0  0  0  0  0
   -4.8209    9.7667   -8.0554 C   0  0  0  0  0  0  0  0  0  0  0  0
   -2.0956   12.1660   -6.9654 C   0  0  0  0  0  0  0  0  0  0  0  0
   -1.7384   13.4130   -6.4683 C   0  0  0  0  0  0  0  0  0  0  0  0
   -0.4069   13.4502   -6.4129 N   0  0  0  0  0  0  0  0  0  0  0  0
    0.1813   12.3566   -6.8171 N   0  0  0  0  0  0  0  0  0  0  0  0
   -0.7988   11.5478   -7.1867 C   0  0  0  0  0  0  0  0  0  0  0  0
    0.4282   14.5550   -5.9664 C   0  0  0  0  0  0  0  0  0  0  0  0
   -4.7714   14.2106  -11.2027 N   0  0  0  0  0  0  0  0  0  0  0  0
   -4.2061   15.2849  -11.7862 C   0  0  0  0  0  0  0  0  0  0  0  0
   -4.6883   15.3268  -13.0997 C   0  0  0  0  0  0  0  0  0  0  0  0
   -5.5027   14.2765  -13.3098 N   0  0  0  0  0  0  0  0  0  0  0  0
   -4.5364   13.8232   -9.7989 C   0  0  0  0  0  0  0  0  0  0  0  0
   -6.1104   12.2275   -9.8498 H   0  0  0  0  0  0  0  0  0  0  0  0
   -8.1928   10.0800  -13.9189 H   0  0  0  0  0  0  0  0  0  0  0  0
   -6.8717   12.2251  -14.0803 H   0  0  0  0  0  0  0  0  0  0  0  0
   -8.6516    7.9153   -9.4755 H   0  0  0  0  0  0  0  0  0  0  0  0
   -8.0435    9.5766   -7.2721 H   0  0  0  0  0  0  0  0  0  0  0  0
   -6.7536   12.3051   -6.9109 H   0  0  0  0  0  0  0  0  0  0  0  0
   -4.5183   13.2784   -6.4597 H   0  0  0  0  0  0  0  0  0  0  0  0
   -2.6656    9.7487   -8.0502 H   0  0  0  0  0  0  0  0  0  0  0  0
   -4.8756    8.8218   -7.4949 H   0  0  0  0  0  0  0  0  0  0  0  0
   -4.8639    9.5561   -9.1342 H   0  0  0  0  0  0  0  0  0  0  0  0
   -2.4137   14.2051   -6.1803 H   0  0  0  0  0  0  0  0  0  0  0  0
   -0.6543   10.5597   -7.5981 H   0  0  0  0  0  0  0  0  0  0  0  0
    1.4877   14.2705   -6.0474 H   0  0  0  0  0  0  0  0  0  0  0  0
    0.2364   15.4369   -6.5953 H   0  0  0  0  0  0  0  0  0  0  0  0
    0.1917   14.7932   -4.9189 H   0  0  0  0  0  0  0  0  0  0  0  0
   -3.5156   15.9786  -11.3298 H   0  0  0  0  0  0  0  0  0  0  0  0
   -4.4447   16.0839  -13.8303 H   0  0  0  0  0  0  0  0  0  0  0  0
   -3.8494   14.5427   -9.3295 H   0  0  0  0  0  0  0  0  0  0  0  0
   -5.4922   13.8204   -9.2545 H   0  0  0  0  0  0  0  0  0  0  0  0
   -4.0925   12.8173   -9.7656 H   0  0  0  0  0  0  0  0  0  0  0  0
  1  2  2  0  0  0  0
  1  4  1  0  0  0  0
  1 11  1  0  0  0  0
  2  6  1  0  0  0  0
  3  4  2  0  0  0  0
  3  5  1  0  0  0  0
  5  6  1  0  0  0  0
  5  9  2  0  0  0  0
  6  7  2  0  0  0  0
  7  8  1  0  0  0  0
  7 10  1  0  0  0  0
  8  9  1  0  0  0  0
 10 12  2  3  0  0  0
 11 24  1  0  0  0  0
 11 27  2  0  0  0  0
 12 13  1  0  0  0  0
 12 17  1  0  0  0  0
 13 14  2  0  0  0  0
 14 15  1  0  0  0  0
 15 16  2  0  0  0  0
 15 18  1  0  0  0  0
 16 17  1  0  0  0  0
 18 19  2  0  0  0  0
 18 22  1  0  0  0  0
 19 20  1  0  0  0  0
 20 21  1  0  0  0  0
 20 23  1  0  0  0  0
 21 22  2  0  0  0  0
 24 25  1  0  0  0  0
 24 28  1  0  0  0  0
 25 26  2  0  0  0  0
 26 27  1  0  0  0  0
  2 29  1  0  0  0  0
  3 30  1  0  0  0  0
  4 31  1  0  0  0  0
  8 32  1  0  0  0  0
 10 33  1  0  0  0  0
 13 34  1  0  0  0  0
 14 35  1  0  0  0  0
 16 36  1  0  0  0  0
 17 37  1  0  0  0  0
 17 38  1  0  0  0  0
 19 39  1  0  0  0  0
 22 40  1  0  0  0  0
 23 41  1  0  0  0  0
 23 42  1  0  0  0  0
 23 43  1  0  0  0  0
 25 44  1  0  0  0  0
 26 45  1  0  0  0  0
 28 46  1  0  0  0  0
 28 47  1  0  0  0  0
 28 48  1  0  0  0  0
M  END
> <Name>
22

> <IC50[uM]>
0.032

$$$$
22
  -OEChem-05192314333D
 Structure written by MMmdl.
 48 52  0     0  0  0  0  0  0999 V2000
   -6.3943   12.3306  -11.9839 C   0  0  0  0  0  0  0  0  0  0  0  0
   -6.5449   11.7624  -10.7224 C   0  0  0  0  0  0  0  0  0  0  0  0
   -7.7389   10.5318  -13.0493 C   0  0  0  0  0  0  0  0  0  0  0  0
   -6.9892   11.7416  -13.1218 C   0  0  0  0  0  0  0  0  0  0  0  0
   -7.8445    9.9757  -11.7834 C   0  0  0  0  0  0  0  0  0  0  0  0
   -7.2758   10.5697  -10.6136 C   0  0  0  0  0  0  0  0  0  0  0  0
   -7.6401    9.7111   -9.5254 C   0  0  0  0  0  0  0  0  0  0  0  0
   -8.3075    8.6850  -10.0132 N   0  0  0  0  0  0  0  0  0  0  0  0
   -8.4539    8.8245  -11.3160 N   0  0  0  0  0  0  0  0  0  0  0  0
   -7.3472    9.8680   -8.0446 C   0  0  0  0  0  0  0  0  0  0  0  0
   -5.5569   13.6094  -12.1739 C   0  0  0  0  0  0  0  0  0  0  0  0
   -5.9691   10.4796   -7.7443 C   0  0  0  0  0  0  0  0  0  0  0  0
   -5.8622   11.7497   -7.1624 C   0  0  0  0  0  0  0  0  0  0  0  0
   -4.6000   12.2988   -6.9070 C   0  0  0  0  0  0  0  0  0  0  0  0
   -3.4496   11.5829   -7.2293 C   0  0  0  0  0  0  0  0  0  0  0  0
   -3.5554   10.3089   -7.8035 C   0  0  0  0  0  0  0  0  0  0  0  0
   -4.8209    9.7667   -8.0554 C   0  0  0  0  0  0  0  0  0  0  0  0
   -2.0956   12.1660   -6.9654 C   0  0  0  0  0  0  0  0  0  0  0  0
   -1.7384   13.4130   -6.4683 C   0  0  0  0  0  0  0  0  0  0  0  0
   -0.4069   13.4502   -6.4129 N   0  0  0  0  0  0  0  0  0  0  0  0
    0.1813   12.3566   -6.8171 N   0  0  0  0  0  0  0  0  0  0  0  0
   -0.7988   11.5478   -7.1867 C   0  0  0  0  0  0  0  0  0  0  0  0
    0.4282   14.5550   -5.9664 C   0  0  0  0  0  0  0  0  0  0  0  0
   -4.7714   14.2106  -11.2027 N   0  0  0  0  0  0  0  0  0  0  0  0
   -4.2061   15.2849  -11.7862 C   0  0  0  0  0  0  0  0  0  0  0  0
   -4.6883   15.3268  -13.0997 C   0  0  0  0  0  0  0  0  0  0  0  0
   -5.5027   14.2765  -13.3098 N   0  0  0  0  0  0  0  0  0  0  0  0
   -4.5364   13.8232   -9.7989 C   0  0  0  0  0  0  0  0  0  0  0  0
   -6.1104   12.2275   -9.8498 H   0  0  0  0  0  0  0  0  0  0  0  0
   -8.1928   10.0800  -13.9189 H   0  0  0  0  0  0  0  0  0  0  0  0
   -6.8717   12.2251  -14.0803 H   0  0  0  0  0  0  0  0  0  0  0  0
   -8.9463    8.1762  -11.8968 H   0  0  0  0  0  0  0  0  0  0  0  0
   -8.0435    9.5766   -7.2721 H   0  0  0  0  0  0  0  0  0  0  0  0
   -6.7536   12.3051   -6.9109 H   0  0  0  0  0  0  0  0  0  0  0  0
   -4.5183   13.2784   -6.4597 H   0  0  0  0  0  0  0  0  0  0  0  0
   -2.6656    9.7487   -8.0502 H   0  0  0  0  0  0  0  0  0  0  0  0
   -4.8756    8.8218   -7.4949 H   0  0  0  0  0  0  0  0  0  0  0  0
   -4.8639    9.5561   -9.1342 H   0  0  0  0  0  0  0  0  0  0  0  0
   -2.4137   14.2051   -6.1803 H   0  0  0  0  0  0  0  0  0  0  0  0
   -0.6543   10.5597   -7.5981 H   0  0  0  0  0  0  0  0  0  0  0  0
    1.4877   14.2705   -6.0474 H   0  0  0  0  0  0  0  0  0  0  0  0
    0.2364   15.4369   -6.5953 H   0  0  0  0  0  0  0  0  0  0  0  0
    0.1917   14.7932   -4.9189 H   0  0  0  0  0  0  0  0  0  0  0  0
   -3.5156   15.9786  -11.3298 H   0  0  0  0  0  0  0  0  0  0  0  0
   -4.4447   16.0839  -13.8303 H   0  0  0  0  0  0  0  0  0  0  0  0
   -3.8494   14.5427   -9.3295 H   0  0  0  0  0  0  0  0  0  0  0  0
   -5.4922   13.8204   -9.2545 H   0  0  0  0  0  0  0  0  0  0  0  0
   -4.0925   12.8173   -9.7656 H   0  0  0  0  0  0  0  0  0  0  0  0
  1  2  2  0  0  0  0
  1  4  1  0  0  0  0
  1 11  1  0  0  0  0
  2  6  1  0  0  0  0
  3  4  2  0  0  0  0
  3  5  1  0  0  0  0
  5  6  2  0  0  0  0
  5  9  1  0  0  0  0
  6  7  1  0  0  0  0
  7  8  2  0  0  0  0
  7 10  1  0  0  0  0
  8  9  1  0  0  0  0
 10 12  2  3  0  0  0
 11 24  1  0  0  0  0
 11 27  2  0  0  0  0
 12 13  1  0  0  0  0
 12 17  1  0  0  0  0
 13 14  2  0  0  0  0
 14 15  1  0  0  0  0
 15 16  2  0  0  0  0
 15 18  1  0  0  0  0
 16 17  1  0  0  0  0
 18 19  2  0  0  0  0
 18 22  1  0  0  0  0
 19 20  1  0  0  0  0
 20 21  1  0  0  0  0
 20 23  1  0  0  0  0
 21 22  2  0  0  0  0
 24 25  1  0  0  0  0
 24 28  1  0  0  0  0
 25 26  2  0  0  0  0
 26 27  1  0  0  0  0
  2 29  1  0  0  0  0
  3 30  1  0  0  0  0
  4 31  1  0  0  0  0
  9 32  1  0  0  0  0
 10 33  1  0  0  0  0
 13 34  1  0  0  0  0
 14 35  1  0  0  0  0
 16 36  1  0  0  0  0
 17 37  1  0  0  0  0
 17 38  1  0  0  0  0
 19 39  1  0  0  0  0
 22 40  1  0  0  0  0
 23 41  1  0  0  0  0
 23 42  1  0  0  0  0
 23 43  1  0  0  0  0
 25 44  1  0  0  0  0
 26 45  1  0  0  0  0
 28 46  1  0  0  0  0
 28 47  1  0  0  0  0
 28 48  1  0  0  0  0
M  END
> <Name>
22

> <IC50[uM]>
0.032

$$$$
22
  -OEChem-05192314333D
 Structure written by MMmdl.
 48 52  0     1  0  0  0  0  0999 V2000
   -6.3943   12.3306  -11.9839 C   0  0  0  0  0  0  0  0  0  0  0  0
   -6.5449   11.7624  -10.7224 C   0  0  0  0  0  0  0  0  0  0  0  0
   -7.7389   10.5318  -13.0493 C   0  0  0  0  0  0  0  0  0  0  0  0
   -6.9892   11.7416  -13.1218 C   0  0  0  0  0  0  0  0  0  0  0  0
   -7.8445    9.9757  -11.7834 C   0  0  0  0  0  0  0  0  0  0  0  0
   -7.2758   10.5697  -10.6136 C   0  0  0  0  0  0  0  0  0  0  0  0
   -7.6401    9.7111   -9.5254 C   0  0  0  0  0  0  0  0  0  0  0  0
   -8.3075    8.6850  -10.0132 N   0  0  0  0  0  0  0  0  0  0  0  0
   -8.4539    8.8245  -11.3160 N   0  0  0  0  0  0  0  0  0  0  0  0
   -7.3472    9.8680   -8.0446 C   0  0  0  0  0  0  0  0  0  0  0  0
   -5.5569   13.6094  -12.1739 C   0  0  3  0  0  0  0  0  0  0  0  0
   -5.9691   10.4796   -7.7443 C   0  0  0  0  0  0  0  0  0  0  0  0
   -5.8622   11.7497   -7.1624 C   0  0  0  0  0  0  0  0  0  0  0  0
   -4.6000   12.2988   -6.9070 C   0  0  0  0  0  0  0  0  0  0  0  0
   -3.4496   11.5829   -7.2293 C   0  0  0  0  0  0  0  0  0  0  0  0
   -3.5554   10.3089   -7.8035 C   0  0  0  0  0  0  0  0  0  0  0  0
   -4.8209    9.7667   -8.0554 C   0  0  0  0  0  0  0  0  0  0  0  0
   -2.0956   12.1660   -6.9654 C   0  0  0  0  0  0  0  0  0  0  0  0
   -1.7384   13.4130   -6.4683 C   0  0  0  0  0  0  0  0  0  0  0  0
   -0.4069   13.4502   -6.4129 N   0  0  0  0  0  0  0  0  0  0  0  0
    0.1813   12.3566   -6.8171 N   0  0  0  0  0  0  0  0  0  0  0  0
   -0.7988   11.5478   -7.1867 C   0  0  0  0  0  0  0  0  0  0  0  0
    0.4282   14.5550   -5.9664 C   0  0  0  0  0  0  0  0  0  0  0  0
   -4.7714   14.2106  -11.2027 N   0  0  3  0  0  0  0  0  0  0  0  0
   -4.2061   15.2849  -11.7862 C   0  0  0  0  0  0  0  0  0  0  0  0
   -4.6883   15.3268  -13.0997 C   0  0  0  0  0  0  0  0  0  0  0  0
   -5.5027   14.2765  -13.3098 N   0  0  0  0  0  0  0  0  0  0  0  0
   -4.5364   13.8232   -9.7989 C   0  0  0  0  0  0  0  0  0  0  0  0
   -6.1104   12.2275   -9.8498 H   0  0  0  0  0  0  0  0  0  0  0  0
   -8.1928   10.0800  -13.9189 H   0  0  0  0  0  0  0  0  0  0  0  0
   -6.8717   12.2251  -14.0803 H   0  0  0  0  0  0  0  0  0  0  0  0
   -8.0435    9.5766   -7.2721 H   0  0  0  0  0  0  0  0  0  0  0  0
   -6.4158   14.2191  -11.8567 H   0  0  0  0  0  0  0  0  0  0  0  0
   -6.7536   12.3051   -6.9109 H   0  0  0  0  0  0  0  0  0  0  0  0
   -4.5183   13.2784   -6.4597 H   0  0  0  0  0  0  0  0  0  0  0  0
   -2.6656    9.7487   -8.0502 H   0  0  0  0  0  0  0  0  0  0  0  0
   -4.9040    8.7842   -8.4961 H   0  0  0  0  0  0  0  0  0  0  0  0
   -2.4137   14.2051   -6.1803 H   0  0  0  0  0  0  0  0  0  0  0  0
   -0.6543   10.5597   -7.5981 H   0  0  0  0  0  0  0  0  0  0  0  0
    1.4877   14.2705   -6.0474 H   0  0  0  0  0  0  0  0  0  0  0  0
    0.2364   15.4369   -6.5953 H   0  0  0  0  0  0  0  0  0  0  0  0
    0.1917   14.7932   -4.9189 H   0  0  0  0  0  0  0  0  0  0  0  0
   -4.4893   16.2018  -11.2485 H   0  0  0  0  0  0  0  0  0  0  0  0
   -3.1108   15.1839  -11.7871 H   0  0  0  0  0  0  0  0  0  0  0  0
   -4.4447   16.0839  -13.8303 H   0  0  0  0  0  0  0  0  0  0  0  0
   -3.8494   14.5427   -9.3295 H   0  0  0  0  0  0  0  0  0  0  0  0
   -5.4922   13.8204   -9.2545 H   0  0  0  0  0  0  0  0  0  0  0  0
   -4.0925   12.8173   -9.7656 H   0  0  0  0  0  0  0  0  0  0  0  0
  1  2  2  0  0  0  0
  1  4  1  0  0  0  0
  1 11  1  0  0  0  0
  2  6  1  0  0  0  0
  3  4  2  0  0  0  0
  3  5  1  0  0  0  0
  5  6  2  0  0  0  0
  5  9  1  0  0  0  0
  6  7  1  0  0  0  0
  7  8  1  0  0  0  0
  7 10  2  3  0  0  0
  8  9  2  0  0  0  0
 10 12  1  0  0  0  0
 11 24  1  0  0  0  0
 11 27  1  0  0  0  0
 12 13  2  0  0  0  0
 12 17  1  0  0  0  0
 13 14  1  0  0  0  0
 14 15  2  0  0  0  0
 15 16  1  0  0  0  0
 15 18  1  0  0  0  0
 16 17  2  0  0  0  0
 18 19  2  0  0  0  0
 18 22  1  0  0  0  0
 19 20  1  0  0  0  0
 20 21  1  0  0  0  0
 20 23  1  0  0  0  0
 21 22  2  0  0  0  0
 24 25  1  0  0  0  0
 24 28  1  0  0  0  0
 25 26  1  0  0  0  0
 26 27  2  0  0  0  0
  2 29  1  0  0  0  0
  3 30  1  0  0  0  0
  4 31  1  0  0  0  0
 10 32  1  0  0  0  0
 11 33  1  0  0  0  0
 13 34  1  0  0  0  0
 14 35  1  0  0  0  0
 16 36  1  0  0  0  0
 17 37  1  0  0  0  0
 19 38  1  0  0  0  0
 22 39  1  0  0  0  0
 23 40  1  0  0  0  0
 23 41  1  0  0  0  0
 23 42  1  0  0  0  0
 25 43  1  0  0  0  0
 25 44  1  0  0  0  0
 26 45  1  0  0  0  0
 28 46  1  0  0  0  0
 28 47  1  0  0  0  0
 28 48  1  0  0  0  0
M  END
> <Name>
22

> <IC50[uM]>
0.032

$$$$
22
  -OEChem-05192314333D
 Structure written by MMmdl.
 48 52  0     0  0  0  0  0  0999 V2000
   -6.3943   12.3306  -11.9839 C   0  0  0  0  0  0  0  0  0  0  0  0
   -6.5449   11.7624  -10.7224 C   0  0  0  0  0  0  0  0  0  0  0  0
   -7.7389   10.5318  -13.0493 C   0  0  0  0  0  0  0  0  0  0  0  0
   -6.9892   11.7416  -13.1218 C   0  0  0  0  0  0  0  0  0  0  0  0
   -7.8445    9.9757  -11.7834 C   0  0  0  0  0  0  0  0  0  0  0  0
   -7.2758   10.5697  -10.6136 C   0  0  0  0  0  0  0  0  0  0  0  0
   -7.6401    9.7111   -9.5254 C   0  0  0  0  0  0  0  0  0  0  0  0
   -8.3075    8.6850  -10.0132 N   0  0  0  0  0  0  0  0  0  0  0  0
   -8.4539    8.8245  -11.3160 N   0  0  0  0  0  0  0  0  0  0  0  0
   -7.3472    9.8680   -8.0446 C   0  0  0  0  0  0  0  0  0  0  0  0
   -5.5569   13.6094  -12.1739 C   0  0  0  0  0  0  0  0  0  0  0  0
   -5.9691   10.4796   -7.7443 C   0  0  0  0  0  0  0  0  0  0  0  0
   -5.8622   11.7497   -7.1624 C   0  0  0  0  0  0  0  0  0  0  0  0
   -4.6000   12.2988   -6.9070 C   0  0  0  0  0  0  0  0  0  0  0  0
   -3.4496   11.5829   -7.2293 C   0  0  0  0  0  0  0  0  0  0  0  0
   -3.5554   10.3089   -7.8035 C   0  0  0  0  0  0  0  0  0  0  0  0
   -4.8209    9.7667   -8.0554 C   0  0  0  0  0  0  0  0  0  0  0  0
   -2.0956   12.1660   -6.9654 C   0  0  0  0  0  0  0  0  0  0  0  0
   -1.7384   13.4130   -6.4683 C   0  0  0  0  0  0  0  0  0  0  0  0
   -0.4069   13.4502   -6.4129 N   0  0  0  0  0  0  0  0  0  0  0  0
    0.1813   12.3566   -6.8171 N   0  0  0  0  0  0  0  0  0  0  0  0
   -0.7988   11.5478   -7.1867 C   0  0  0  0  0  0  0  0  0  0  0  0
    0.4282   14.5550   -5.9664 C   0  0  0  0  0  0  0  0  0  0  0  0
   -4.7714   14.2106  -11.2027 N   0  0  0  0  0  0  0  0  0  0  0  0
   -4.2061   15.2849  -11.7862 C   0  0  0  0  0  0  0  0  0  0  0  0
   -4.6883   15.3268  -13.0997 C   0  0  0  0  0  0  0  0  0  0  0  0
   -5.5027   14.2765  -13.3098 N   0  0  0  0  0  0  0  0  0  0  0  0
   -4.5364   13.8232   -9.7989 C   0  0  0  0  0  0  0  0  0  0  0  0
   -6.1104   12.2275   -9.8498 H   0  0  0  0  0  0  0  0  0  0  0  0
   -8.1928   10.0800  -13.9189 H   0  0  0  0  0  0  0  0  0  0  0  0
   -6.8717   12.2251  -14.0803 H   0  0  0  0  0  0  0  0  0  0  0  0
   -8.0435    9.5766   -7.2721 H   0  0  0  0  0  0  0  0  0  0  0  0
   -6.7536   12.3051   -6.9109 H   0  0  0  0  0  0  0  0  0  0  0  0
   -4.5183   13.2784   -6.4597 H   0  0  0  0  0  0  0  0  0  0  0  0
   -2.6656    9.7487   -8.0502 H   0  0  0  0  0  0  0  0  0  0  0  0
   -4.9040    8.7842   -8.4961 H   0  0  0  0  0  0  0  0  0  0  0  0
   -2.4137   14.2051   -6.1803 H   0  0  0  0  0  0  0  0  0  0  0  0
   -0.6543   10.5597   -7.5981 H   0  0  0  0  0  0  0  0  0  0  0  0
    1.4877   14.2705   -6.0474 H   0  0  0  0  0  0  0  0  0  0  0  0
    0.2364   15.4369   -6.5953 H   0  0  0  0  0  0  0  0  0  0  0  0
    0.1917   14.7932   -4.9189 H   0  0  0  0  0  0  0  0  0  0  0  0
   -4.4893   16.2018  -11.2485 H   0  0  0  0  0  0  0  0  0  0  0  0
   -3.1108   15.1839  -11.7871 H   0  0  0  0  0  0  0  0  0  0  0  0
   -5.2468   16.2615  -13.2561 H   0  0  0  0  0  0  0  0  0  0  0  0
   -3.8433   15.2825  -13.8026 H   0  0  0  0  0  0  0  0  0  0  0  0
   -3.8494   14.5427   -9.3295 H   0  0  0  0  0  0  0  0  0  0  0  0
   -5.4922   13.8204   -9.2545 H   0  0  0  0  0  0  0  0  0  0  0  0
   -4.0925   12.8173   -9.7656 H   0  0  0  0  0  0  0  0  0  0  0  0
  1  2  2  0  0  0  0
  1  4  1  0  0  0  0
  1 11  1  0  0  0  0
  2  6  1  0  0  0  0
  3  4  2  0  0  0  0
  3  5  1  0  0  0  0
  5  6  2  0  0  0  0
  5  9  1  0  0  0  0
  6  7  1  0  0  0  0
  7  8  1  0  0  0  0
  7 10  2  3  0  0  0
  8  9  2  0  0  0  0
 10 12  1  0  0  0  0
 11 24  1  0  0  0  0
 11 27  2  0  0  0  0
 12 13  2  0  0  0  0
 12 17  1  0  0  0  0
 13 14  1  0  0  0  0
 14 15  2  0  0  0  0
 15 16  1  0  0  0  0
 15 18  1  0  0  0  0
 16 17  2  0  0  0  0
 18 19  2  0  0  0  0
 18 22  1  0  0  0  0
 19 20  1  0  0  0  0
 20 21  1  0  0  0  0
 20 23  1  0  0  0  0
 21 22  2  0  0  0  0
 24 25  1  0  0  0  0
 24 28  1  0  0  0  0
 25 26  1  0  0  0  0
 26 27  1  0  0  0  0
  2 29  1  0  0  0  0
  3 30  1  0  0  0  0
  4 31  1  0  0  0  0
 10 32  1  0  0  0  0
 13 33  1  0  0  0  0
 14 34  1  0  0  0  0
 16 35  1  0  0  0  0
 17 36  1  0  0  0  0
 19 37  1  0  0  0  0
 22 38  1  0  0  0  0
 23 39  1  0  0  0  0
 23 40  1  0  0  0  0
 23 41  1  0  0  0  0
 25 42  1  0  0  0  0
 25 43  1  0  0  0  0
 26 44  1  0  0  0  0
 26 45  1  0  0  0  0
 28 46  1  0  0  0  0
 28 47  1  0  0  0  0
 28 48  1  0  0  0  0
M  END
> <Name>
22

> <IC50[uM]>
0.032

$$$$
22
  -OEChem-05192314333D
 Structure written by MMmdl.
 48 52  0     1  0  0  0  0  0999 V2000
   -6.3943   12.3306  -11.9839 C   0  0  0  0  0  0  0  0  0  0  0  0
   -6.5449   11.7624  -10.7224 C   0  0  0  0  0  0  0  0  0  0  0  0
   -7.7389   10.5318  -13.0493 C   0  0  0  0  0  0  0  0  0  0  0  0
   -6.9892   11.7416  -13.1218 C   0  0  0  0  0  0  0  0  0  0  0  0
   -7.8445    9.9757  -11.7834 C   0  0  0  0  0  0  0  0  0  0  0  0
   -7.2758   10.5697  -10.6136 C   0  0  0  0  0  0  0  0  0  0  0  0
   -7.6401    9.7111   -9.5254 C   0  0  0  0  0  0  0  0  0  0  0  0
   -8.3075    8.6850  -10.0132 N   0  0  0  0  0  0  0  0  0  0  0  0
   -8.4539    8.8245  -11.3160 N   0  0  0  0  0  0  0  0  0  0  0  0
   -7.3472    9.8680   -8.0446 C   0  0  0  0  0  0  0  0  0  0  0  0
   -5.5569   13.6094  -12.1739 C   0  0  0  0  0  0  0  0  0  0  0  0
   -5.9691   10.4796   -7.7443 C   0  0  0  0  0  0  0  0  0  0  0  0
   -5.8622   11.7497   -7.1624 C   0  0  0  0  0  0  0  0  0  0  0  0
   -4.6000   12.2988   -6.9070 C   0  0  0  0  0  0  0  0  0  0  0  0
   -3.4496   11.5829   -7.2293 C   0  0  0  0  0  0  0  0  0  0  0  0
   -3.5554   10.3089   -7.8035 C   0  0  0  0  0  0  0  0  0  0  0  0
   -4.8209    9.7667   -8.0554 C   0  0  0  0  0  0  0  0  0  0  0  0
   -2.0956   12.1660   -6.9654 C   0  0  3  0  0  0  0  0  0  0  0  0
   -1.7384   13.4130   -6.4683 C   0  0  0  0  0  0  0  0  0  0  0  0
   -0.4069   13.4502   -6.4129 N   0  0  3  0  0  0  0  0  0  0  0  0
    0.1813   12.3566   -6.8171 N   0  0  0  0  0  0  0  0  0  0  0  0
   -0.7988   11.5478   -7.1867 C   0  0  0  0  0  0  0  0  0  0  0  0
    0.4282   14.5550   -5.9664 C   0  0  0  0  0  0  0  0  0  0  0  0
   -4.7714   14.2106  -11.2027 N   0  0  0  0  0  0  0  0  0  0  0  0
   -4.2061   15.2849  -11.7862 C   0  0  0  0  0  0  0  0  0  0  0  0
   -4.6883   15.3268  -13.0997 C   0  0  0  0  0  0  0  0  0  0  0  0
   -5.5027   14.2765  -13.3098 N   0  0  0  0  0  0  0  0  0  0  0  0
   -4.5364   13.8232   -9.7989 C   0  0  0  0  0  0  0  0  0  0  0  0
   -6.1104   12.2275   -9.8498 H   0  0  0  0  0  0  0  0  0  0  0  0
   -8.1928   10.0800  -13.9189 H   0  0  0  0  0  0  0  0  0  0  0  0
   -6.8717   12.2251  -14.0803 H   0  0  0  0  0  0  0  0  0  0  0  0
   -8.0435    9.5766   -7.2721 H   0  0  0  0  0  0  0  0  0  0  0  0
   -6.7536   12.3051   -6.9109 H   0  0  0  0  0  0  0  0  0  0  0  0
   -4.5183   13.2784   -6.4597 H   0  0  0  0  0  0  0  0  0  0  0  0
   -2.6656    9.7487   -8.0502 H   0  0  0  0  0  0  0  0  0  0  0  0
   -4.9040    8.7842   -8.4961 H   0  0  0  0  0  0  0  0  0  0  0  0
   -2.1174   11.7612   -5.9428 H   0  0  0  0  0  0  0  0  0  0  0  0
   -2.1098   14.2048   -7.1354 H   0  0  0  0  0  0  0  0  0  0  0  0
   -2.1612   13.5527   -5.4625 H   0  0  0  0  0  0  0  0  0  0  0  0
   -0.6543   10.5597   -7.5981 H   0  0  0  0  0  0  0  0  0  0  0  0
    1.4877   14.2705   -6.0474 H   0  0  0  0  0  0  0  0  0  0  0  0
    0.2364   15.4369   -6.5953 H   0  0  0  0  0  0  0  0  0  0  0  0
    0.1917   14.7932   -4.9189 H   0  0  0  0  0  0  0  0  0  0  0  0
   -3.5156   15.9786  -11.3298 H   0  0  0  0  0  0  0  0  0  0  0  0
   -4.4447   16.0839  -13.8303 H   0  0  0  0  0  0  0  0  0  0  0  0
   -3.8494   14.5427   -9.3295 H   0  0  0  0  0  0  0  0  0  0  0  0
   -5.4922   13.8204   -9.2545 H   0  0  0  0  0  0  0  0  0  0  0  0
   -4.0925   12.8173   -9.7656 H   0  0  0  0  0  0  0  0  0  0  0  0
  1  2  2  0  0  0  0
  1  4  1  0  0  0  0
  1 11  1  0  0  0  0
  2  6  1  0  0  0  0
  3  4  2  0  0  0  0
  3  5  1  0  0  0  0
  5  6  2  0  0  0  0
  5  9  1  0  0  0  0
  6  7  1  0  0  0  0
  7  8  1  0  0  0  0
  7 10  2  3  0  0  0
  8  9  2  0  0  0  0
 10 12  1  0  0  0  0
 11 24  1  0  0  0  0
 11 27  2  0  0  0  0
 12 13  2  0  0  0  0
 12 17  1  0  0  0  0
 13 14  1  0  0  0  0
 14 15  2  0  0  0  0
 15 16  1  0  0  0  0
 15 18  1  0  0  0  0
 16 17  2  0  0  0  0
 18 19  1  0  0  0  0
 18 22  1  0  0  0  0
 19 20  1  0  0  0  0
 20 21  1  0  0  0  0
 20 23  1  0  0  0  0
 21 22  2  0  0  0  0
 24 25  1  0  0  0  0
 24 28  1  0  0  0  0
 25 26  2  0  0  0  0
 26 27  1  0  0  0  0
  2 29  1  0  0  0  0
  3 30  1  0  0  0  0
  4 31  1  0  0  0  0
 10 32  1  0  0  0  0
 13 33  1  0  0  0  0
 14 34  1  0  0  0  0
 16 35  1  0  0  0  0
 17 36  1  0  0  0  0
 18 37  1  0  0  0  0
 19 38  1  0  0  0  0
 19 39  1  0  0  0  0
 22 40  1  0  0  0  0
 23 41  1  0  0  0  0
 23 42  1  0  0  0  0
 23 43  1  0  0  0  0
 25 44  1  0  0  0  0
 26 45  1  0  0  0  0
 28 46  1  0  0  0  0
 28 47  1  0  0  0  0
 28 48  1  0  0  0  0
M  END
> <Name>
22

> <IC50[uM]>
0.032

$$$$
22
  -OEChem-05192314333D
 Structure written by MMmdl.
 48 52  0     1  0  0  0  0  0999 V2000
   -6.3943   12.3306  -11.9839 C   0  0  0  0  0  0  0  0  0  0  0  0
   -6.5449   11.7624  -10.7224 C   0  0  0  0  0  0  0  0  0  0  0  0
   -7.7389   10.5318  -13.0493 C   0  0  0  0  0  0  0  0  0  0  0  0
   -6.9892   11.7416  -13.1218 C   0  0  0  0  0  0  0  0  0  0  0  0
   -7.8445    9.9757  -11.7834 C   0  0  0  0  0  0  0  0  0  0  0  0
   -7.2758   10.5697  -10.6136 C   0  0  0  0  0  0  0  0  0  0  0  0
   -7.6401    9.7111   -9.5254 C   0  0  0  0  0  0  0  0  0  0  0  0
   -8.3075    8.6850  -10.0132 N   0  0  0  0  0  0  0  0  0  0  0  0
   -8.4539    8.8245  -11.3160 N   0  0  0  0  0  0  0  0  0  0  0  0
   -7.3472    9.8680   -8.0446 C   0  0  0  0  0  0  0  0  0  0  0  0
   -5.5569   13.6094  -12.1739 C   0  0  3  0  0  0  0  0  0  0  0  0
   -5.9691   10.4796   -7.7443 C   0  0  0  0  0  0  0  0  0  0  0  0
   -5.8622   11.7497   -7.1624 C   0  0  0  0  0  0  0  0  0  0  0  0
   -4.6000   12.2988   -6.9070 C   0  0  0  0  0  0  0  0  0  0  0  0
   -3.4496   11.5829   -7.2293 C   0  0  0  0  0  0  0  0  0  0  0  0
   -3.5554   10.3089   -7.8035 C   0  0  0  0  0  0  0  0  0  0  0  0
   -4.8209    9.7667   -8.0554 C   0  0  0  0  0  0  0  0  0  0  0  0
   -2.0956   12.1660   -6.9654 C   0  0  0  0  0  0  0  0  0  0  0  0
   -1.7384   13.4130   -6.4683 C   0  0  0  0  0  0  0  0  0  0  0  0
   -0.4069   13.4502   -6.4129 N   0  0  0  0  0  0  0  0  0  0  0  0
    0.1813   12.3566   -6.8171 N   0  0  0  0  0  0  0  0  0  0  0  0
   -0.7988   11.5478   -7.1867 C   0  0  0  0  0  0  0  0  0  0  0  0
    0.4282   14.5550   -5.9664 C   0  0  0  0  0  0  0  0  0  0  0  0
   -4.7714   14.2106  -11.2027 N   0  0  3  0  0  0  0  0  0  0  0  0
   -4.2061   15.2849  -11.7862 C   0  0  0  0  0  0  0  0  0  0  0  0
   -4.6883   15.3268  -13.0997 C   0  0  0  0  0  0  0  0  0  0  0  0
   -5.5027   14.2765  -13.3098 N   0  0  0  0  0  0  0  0  0  0  0  0
   -4.5364   13.8232   -9.7989 C   0  0  0  0  0  0  0  0  0  0  0  0
   -6.1104   12.2275   -9.8498 H   0  0  0  0  0  0  0  0  0  0  0  0
   -8.1928   10.0800  -13.9189 H   0  0  0  0  0  0  0  0  0  0  0  0
   -6.8717   12.2251  -14.0803 H   0  0  0  0  0  0  0  0  0  0  0  0
   -8.0435    9.5766   -7.2721 H   0  0  0  0  0  0  0  0  0  0  0  0
   -6.4158   14.2191  -11.8567 H   0  0  0  0  0  0  0  0  0  0  0  0
   -6.7536   12.3051   -6.9109 H   0  0  0  0  0  0  0  0  0  0  0  0
   -4.5183   13.2784   -6.4597 H   0  0  0  0  0  0  0  0  0  0  0  0
   -2.6656    9.7487   -8.0502 H   0  0  0  0  0  0  0  0  0  0  0  0
   -4.9040    8.7842   -8.4961 H   0  0  0  0  0  0  0  0  0  0  0  0
   -2.4137   14.2051   -6.1803 H   0  0  0  0  0  0  0  0  0  0  0  0
   -0.6543   10.5597   -7.5981 H   0  0  0  0  0  0  0  0  0  0  0  0
    1.4877   14.2705   -6.0474 H   0  0  0  0  0  0  0  0  0  0  0  0
    0.2364   15.4369   -6.5953 H   0  0  0  0  0  0  0  0  0  0  0  0
    0.1917   14.7932   -4.9189 H   0  0  0  0  0  0  0  0  0  0  0  0
   -3.5156   15.9786  -11.3298 H   0  0  0  0  0  0  0  0  0  0  0  0
   -4.4447   16.0839  -13.8303 H   0  0  0  0  0  0  0  0  0  0  0  0
   -5.1349   13.6942  -14.0348 H   0  0  0  0  0  0  0  0  0  0  0  0
   -3.8494   14.5427   -9.3295 H   0  0  0  0  0  0  0  0  0  0  0  0
   -5.4922   13.8204   -9.2545 H   0  0  0  0  0  0  0  0  0  0  0  0
   -4.0925   12.8173   -9.7656 H   0  0  0  0  0  0  0  0  0  0  0  0
  1  2  2  0  0  0  0
  1  4  1  0  0  0  0
  1 11  1  0  0  0  0
  2  6  1  0  0  0  0
  3  4  2  0  0  0  0
  3  5  1  0  0  0  0
  5  6  2  0  0  0  0
  5  9  1  0  0  0  0
  6  7  1  0  0  0  0
  7  8  1  0  0  0  0
  7 10  2  3  0  0  0
  8  9  2  0  0  0  0
 10 12  1  0  0  0  0
 11 24  1  0  0  0  0
 11 27  1  0  0  0  0
 12 13  2  0  0  0  0
 12 17  1  0  0  0  0
 13 14  1  0  0  0  0
 14 15  2  0  0  0  0
 15 16  1  0  0  0  0
 15 18  1  0  0  0  0
 16 17  2  0  0  0  0
 18 19  2  0  0  0  0
 18 22  1  0  0  0  0
 19 20  1  0  0  0  0
 20 21  1  0  0  0  0
 20 23  1  0  0  0  0
 21 22  2  0  0  0  0
 24 25  1  0  0  0  0
 24 28  1  0  0  0  0
 25 26  2  0  0  0  0
 26 27  1  0  0  0  0
  2 29  1  0  0  0  0
  3 30  1  0  0  0  0
  4 31  1  0  0  0  0
 10 32  1  0  0  0  0
 11 33  1  0  0  0  0
 13 34  1  0  0  0  0
 14 35  1  0  0  0  0
 16 36  1  0  0  0  0
 17 37  1  0  0  0  0
 19 38  1  0  0  0  0
 22 39  1  0  0  0  0
 23 40  1  0  0  0  0
 23 41  1  0  0  0  0
 23 42  1  0  0  0  0
 25 43  1  0  0  0  0
 26 44  1  0  0  0  0
 27 45  1  0  0  0  0
 28 46  1  0  0  0  0
 28 47  1  0  0  0  0
 28 48  1  0  0  0  0
M  END
> <Name>
22

> <IC50[uM]>
0.032

$$$$
22
  -OEChem-05192314333D
 Structure written by MMmdl.
 48 52  0     1  0  0  0  0  0999 V2000
   -6.3943   12.3306  -11.9839 C   0  0  0  0  0  0  0  0  0  0  0  0
   -6.5449   11.7624  -10.7224 C   0  0  0  0  0  0  0  0  0  0  0  0
   -7.7389   10.5318  -13.0493 C   0  0  0  0  0  0  0  0  0  0  0  0
   -6.9892   11.7416  -13.1218 C   0  0  0  0  0  0  0  0  0  0  0  0
   -7.8445    9.9757  -11.7834 C   0  0  0  0  0  0  0  0  0  0  0  0
   -7.2758   10.5697  -10.6136 C   0  0  0  0  0  0  0  0  0  0  0  0
   -7.6401    9.7111   -9.5254 C   0  0  0  0  0  0  0  0  0  0  0  0
   -8.3075    8.6850  -10.0132 N   0  0  0  0  0  0  0  0  0  0  0  0
   -8.4539    8.8245  -11.3160 N   0  0  0  0  0  0  0  0  0  0  0  0
   -7.3472    9.8680   -8.0446 C   0  0  0  0  0  0  0  0  0  0  0  0
   -5.5569   13.6094  -12.1739 C   0  0  0  0  0  0  0  0  0  0  0  0
   -5.9691   10.4796   -7.7443 C   0  0  0  0  0  0  0  0  0  0  0  0
   -5.8622   11.7497   -7.1624 C   0  0  0  0  0  0  0  0  0  0  0  0
   -4.6000   12.2988   -6.9070 C   0  0  0  0  0  0  0  0  0  0  0  0
   -3.4496   11.5829   -7.2293 C   0  0  0  0  0  0  0  0  0  0  0  0
   -3.5554   10.3089   -7.8035 C   0  0  0  0  0  0  0  0  0  0  0  0
   -4.8209    9.7667   -8.0554 C   0  0  0  0  0  0  0  0  0  0  0  0
   -2.0956   12.1660   -6.9654 C   0  0  0  0  0  0  0  0  0  0  0  0
   -1.7384   13.4130   -6.4683 C   0  0  0  0  0  0  0  0  0  0  0  0
   -0.4069   13.4502   -6.4129 N   0  0  3  0  0  0  0  0  0  0  0  0
    0.1813   12.3566   -6.8171 N   0  0  0  0  0  0  0  0  0  0  0  0
   -0.7988   11.5478   -7.1867 C   0  0  0  0  0  0  0  0  0  0  0  0
    0.4282   14.5550   -5.9664 C   0  0  0  0  0  0  0  0  0  0  0  0
   -4.7714   14.2106  -11.2027 N   0  0  0  0  0  0  0  0  0  0  0  0
   -4.2061   15.2849  -11.7862 C   0  0  0  0  0  0  0  0  0  0  0  0
   -4.6883   15.3268  -13.0997 C   0  0  0  0  0  0  0  0  0  0  0  0
   -5.5027   14.2765  -13.3098 N   0  0  0  0  0  0  0  0  0  0  0  0
   -4.5364   13.8232   -9.7989 C   0  0  0  0  0  0  0  0  0  0  0  0
   -6.1104   12.2275   -9.8498 H   0  0  0  0  0  0  0  0  0  0  0  0
   -8.1928   10.0800  -13.9189 H   0  0  0  0  0  0  0  0  0  0  0  0
   -6.8717   12.2251  -14.0803 H   0  0  0  0  0  0  0  0  0  0  0  0
   -8.0435    9.5766   -7.2721 H   0  0  0  0  0  0  0  0  0  0  0  0
   -6.7536   12.3051   -6.9109 H   0  0  0  0  0  0  0  0  0  0  0  0
   -4.5183   13.2784   -6.4597 H   0  0  0  0  0  0  0  0  0  0  0  0
   -2.6656    9.7487   -8.0502 H   0  0  0  0  0  0  0  0  0  0  0  0
   -4.9040    8.7842   -8.4961 H   0  0  0  0  0  0  0  0  0  0  0  0
   -2.4137   14.2051   -6.1803 H   0  0  0  0  0  0  0  0  0  0  0  0
    0.7862   12.5495   -7.5897 H   0  0  0  0  0  0  0  0  0  0  0  0
   -0.7386   10.6186   -6.6011 H   0  0  0  0  0  0  0  0  0  0  0  0
   -0.6891   11.3149   -8.2562 H   0  0  0  0  0  0  0  0  0  0  0  0
    1.4875   14.2687   -6.0426 H   0  0  0  0  0  0  0  0  0  0  0  0
    0.2401   15.4354   -6.5985 H   0  0  0  0  0  0  0  0  0  0  0  0
    0.1881   14.7965   -4.9204 H   0  0  0  0  0  0  0  0  0  0  0  0
   -3.5156   15.9786  -11.3298 H   0  0  0  0  0  0  0  0  0  0  0  0
   -4.4447   16.0839  -13.8303 H   0  0  0  0  0  0  0  0  0  0  0  0
   -3.8494   14.5427   -9.3295 H   0  0  0  0  0  0  0  0  0  0  0  0
   -5.4922   13.8204   -9.2545 H   0  0  0  0  0  0  0  0  0  0  0  0
   -4.0925   12.8173   -9.7656 H   0  0  0  0  0  0  0  0  0  0  0  0
  1  2  2  0  0  0  0
  1  4  1  0  0  0  0
  1 11  1  0  0  0  0
  2  6  1  0  0  0  0
  3  4  2  0  0  0  0
  3  5  1  0  0  0  0
  5  6  2  0  0  0  0
  5  9  1  0  0  0  0
  6  7  1  0  0  0  0
  7  8  1  0  0  0  0
  7 10  2  3  0  0  0
  8  9  2  0  0  0  0
 10 12  1  0  0  0  0
 11 24  1  0  0  0  0
 11 27  2  0  0  0  0
 12 13  2  0  0  0  0
 12 17  1  0  0  0  0
 13 14  1  0  0  0  0
 14 15  2  0  0  0  0
 15 16  1  0  0  0  0
 15 18  1  0  0  0  0
 16 17  2  0  0  0  0
 18 19  2  0  0  0  0
 18 22  1  0  0  0  0
 19 20  1  0  0  0  0
 20 21  1  0  0  0  0
 20 23  1  0  0  0  0
 21 22  1  0  0  0  0
 24 25  1  0  0  0  0
 24 28  1  0  0  0  0
 25 26  2  0  0  0  0
 26 27  1  0  0  0  0
  2 29  1  0  0  0  0
  3 30  1  0  0  0  0
  4 31  1  0  0  0  0
 10 32  1  0  0  0  0
 13 33  1  0  0  0  0
 14 34  1  0  0  0  0
 16 35  1  0  0  0  0
 17 36  1  0  0  0  0
 19 37  1  0  0  0  0
 21 38  1  0  0  0  0
 22 39  1  0  0  0  0
 22 40  1  0  0  0  0
 23 41  1  0  0  0  0
 23 42  1  0  0  0  0
 23 43  1  0  0  0  0
 25 44  1  0  0  0  0
 26 45  1  0  0  0  0
 28 46  1  0  0  0  0
 28 47  1  0  0  0  0
 28 48  1  0  0  0  0
M  END
> <Name>
22

> <IC50[uM]>
0.032

$$$$
22
  -OEChem-05192314333D
 Structure written by MMmdl.
 48 52  0     1  0  0  0  0  0999 V2000
   -6.3943   12.3306  -11.9839 C   0  0  0  0  0  0  0  0  0  0  0  0
   -6.5449   11.7624  -10.7224 C   0  0  0  0  0  0  0  0  0  0  0  0
   -7.7389   10.5318  -13.0493 C   0  0  0  0  0  0  0  0  0  0  0  0
   -6.9892   11.7416  -13.1218 C   0  0  0  0  0  0  0  0  0  0  0  0
   -7.8445    9.9757  -11.7834 C   0  0  0  0  0  0  0  0  0  0  0  0
   -7.2758   10.5697  -10.6136 C   0  0  0  0  0  0  0  0  0  0  0  0
   -7.6401    9.7111   -9.5254 C   0  0  0  0  0  0  0  0  0  0  0  0
   -8.3075    8.6850  -10.0132 N   0  0  0  0  0  0  0  0  0  0  0  0
   -8.4539    8.8245  -11.3160 N   0  0  0  0  0  0  0  0  0  0  0  0
   -7.3472    9.8680   -8.0446 C   0  0  0  0  0  0  0  0  0  0  0  0
   -5.5569   13.6094  -12.1739 C   0  0  0  0  0  0  0  0  0  0  0  0
   -5.9691   10.4796   -7.7443 C   0  0  0  0  0  0  0  0  0  0  0  0
   -5.8622   11.7497   -7.1624 C   0  0  0  0  0  0  0  0  0  0  0  0
   -4.6000   12.2988   -6.9070 C   0  0  0  0  0  0  0  0  0  0  0  0
   -3.4496   11.5829   -7.2293 C   0  0  0  0  0  0  0  0  0  0  0  0
   -3.5554   10.3089   -7.8035 C   0  0  0  0  0  0  0  0  0  0  0  0
   -4.8209    9.7667   -8.0554 C   0  0  0  0  0  0  0  0  0  0  0  0
   -2.0956   12.1660   -6.9654 C   0  0  0  0  0  0  0  0  0  0  0  0
   -1.7384   13.4130   -6.4683 C   0  0  0  0  0  0  0  0  0  0  0  0
   -0.4069   13.4502   -6.4129 N   0  0  3  0  0  0  0  0  0  0  0  0
    0.1813   12.3566   -6.8171 N   0  0  0  0  0  0  0  0  0  0  0  0
   -0.7988   11.5478   -7.1867 C   0  0  0  0  0  0  0  0  0  0  0  0
    0.4282   14.5550   -5.9664 C   0  0  0  0  0  0  0  0  0  0  0  0
   -4.7714   14.2106  -11.2027 N   0  0  0  0  0  0  0  0  0  0  0  0
   -4.2061   15.2849  -11.7862 C   0  0  0  0  0  0  0  0  0  0  0  0
   -4.6883   15.3268  -13.0997 C   0  0  0  0  0  0  0  0  0  0  0  0
   -5.5027   14.2765  -13.3098 N   0  0  0  0  0  0  0  0  0  0  0  0
   -4.5364   13.8232   -9.7989 C   0  0  0  0  0  0  0  0  0  0  0  0
   -6.1104   12.2275   -9.8498 H   0  0  0  0  0  0  0  0  0  0  0  0
   -8.1928   10.0800  -13.9189 H   0  0  0  0  0  0  0  0  0  0  0  0
   -6.8717   12.2251  -14.0803 H   0  0  0  0  0  0  0  0  0  0  0  0
   -8.0435    9.5766   -7.2721 H   0  0  0  0  0  0  0  0  0  0  0  0
   -6.7536   12.3051   -6.9109 H   0  0  0  0  0  0  0  0  0  0  0  0
   -4.5183   13.2784   -6.4597 H   0  0  0  0  0  0  0  0  0  0  0  0
   -2.6656    9.7487   -8.0502 H   0  0  0  0  0  0  0  0  0  0  0  0
   -4.9040    8.7842   -8.4961 H   0  0  0  0  0  0  0  0  0  0  0  0
   -2.1098   14.2048   -7.1354 H   0  0  0  0  0  0  0  0  0  0  0  0
   -2.1612   13.5527   -5.4625 H   0  0  0  0  0  0  0  0  0  0  0  0
    0.7862   12.5495   -7.5897 H   0  0  0  0  0  0  0  0  0  0  0  0
   -0.6543   10.5597   -7.5981 H   0  0  0  0  0  0  0  0  0  0  0  0
    1.4875   14.2687   -6.0426 H   0  0  0  0  0  0  0  0  0  0  0  0
    0.2401   15.4354   -6.5985 H   0  0  0  0  0  0  0  0  0  0  0  0
    0.1881   14.7965   -4.9204 H   0  0  0  0  0  0  0  0  0  0  0  0
   -3.5156   15.9786  -11.3298 H   0  0  0  0  0  0  0  0  0  0  0  0
   -4.4447   16.0839  -13.8303 H   0  0  0  0  0  0  0  0  0  0  0  0
   -3.8494   14.5427   -9.3295 H   0  0  0  0  0  0  0  0  0  0  0  0
   -5.4922   13.8204   -9.2545 H   0  0  0  0  0  0  0  0  0  0  0  0
   -4.0925   12.8173   -9.7656 H   0  0  0  0  0  0  0  0  0  0  0  0
  1  2  2  0  0  0  0
  1  4  1  0  0  0  0
  1 11  1  0  0  0  0
  2  6  1  0  0  0  0
  3  4  2  0  0  0  0
  3  5  1  0  0  0  0
  5  6  2  0  0  0  0
  5  9  1  0  0  0  0
  6  7  1  0  0  0  0
  7  8  1  0  0  0  0
  7 10  2  3  0  0  0
  8  9  2  0  0  0  0
 10 12  1  0  0  0  0
 11 24  1  0  0  0  0
 11 27  2  0  0  0  0
 12 13  2  0  0  0  0
 12 17  1  0  0  0  0
 13 14  1  0  0  0  0
 14 15  2  0  0  0  0
 15 16  1  0  0  0  0
 15 18  1  0  0  0  0
 16 17  2  0  0  0  0
 18 19  1  0  0  0  0
 18 22  2  0  0  0  0
 19 20  1  0  0  0  0
 20 21  1  0  0  0  0
 20 23  1  0  0  0  0
 21 22  1  0  0  0  0
 24 25  1  0  0  0  0
 24 28  1  0  0  0  0
 25 26  2  0  0  0  0
 26 27  1  0  0  0  0
  2 29  1  0  0  0  0
  3 30  1  0  0  0  0
  4 31  1  0  0  0  0
 10 32  1  0  0  0  0
 13 33  1  0  0  0  0
 14 34  1  0  0  0  0
 16 35  1  0  0  0  0
 17 36  1  0  0  0  0
 19 37  1  0  0  0  0
 19 38  1  0  0  0  0
 21 39  1  0  0  0  0
 22 40  1  0  0  0  0
 23 41  1  0  0  0  0
 23 42  1  0  0  0  0
 23 43  1  0  0  0  0
 25 44  1  0  0  0  0
 26 45  1  0  0  0  0
 28 46  1  0  0  0  0
 28 47  1  0  0  0  0
 28 48  1  0  0  0  0
M  END
> <Name>
22

> <IC50[uM]>
0.032

$$$$
22
  -OEChem-05192314333D
 Structure written by MMmdl.
 48 52  0     1  0  0  0  0  0999 V2000
   -6.3943   12.3306  -11.9839 C   0  0  0  0  0  0  0  0  0  0  0  0
   -6.5449   11.7624  -10.7224 C   0  0  0  0  0  0  0  0  0  0  0  0
   -7.7389   10.5318  -13.0493 C   0  0  0  0  0  0  0  0  0  0  0  0
   -6.9892   11.7416  -13.1218 C   0  0  0  0  0  0  0  0  0  0  0  0
   -7.8445    9.9757  -11.7834 C   0  0  0  0  0  0  0  0  0  0  0  0
   -7.2758   10.5697  -10.6136 C   0  0  0  0  0  0  0  0  0  0  0  0
   -7.6401    9.7111   -9.5254 C   0  0  0  0  0  0  0  0  0  0  0  0
   -8.3075    8.6850  -10.0132 N   0  0  0  0  0  0  0  0  0  0  0  0
   -8.4539    8.8245  -11.3160 N   0  0  0  0  0  0  0  0  0  0  0  0
   -7.3472    9.8680   -8.0446 C   0  0  0  0  0  0  0  0  0  0  0  0
   -5.5569   13.6094  -12.1739 C   0  0  0  0  0  0  0  0  0  0  0  0
   -5.9691   10.4796   -7.7443 C   0  0  0  0  0  0  0  0  0  0  0  0
   -5.8622   11.7497   -7.1624 C   0  0  0  0  0  0  0  0  0  0  0  0
   -4.6000   12.2988   -6.9070 C   0  0  0  0  0  0  0  0  0  0  0  0
   -3.4496   11.5829   -7.2293 C   0  0  0  0  0  0  0  0  0  0  0  0
   -3.5554   10.3089   -7.8035 C   0  0  0  0  0  0  0  0  0  0  0  0
   -4.8209    9.7667   -8.0554 C   0  0  0  0  0  0  0  0  0  0  0  0
   -2.0956   12.1660   -6.9654 C   0  0  0  0  0  0  0  0  0  0  0  0
   -1.7384   13.4130   -6.4683 C   0  0  0  0  0  0  0  0  0  0  0  0
   -0.4069   13.4502   -6.4129 N   0  0  0  0  0  0  0  0  0  0  0  0
    0.1813   12.3566   -6.8171 N   0  0  0  0  0  0  0  0  0  0  0  0
   -0.7988   11.5478   -7.1867 C   0  0  0  0  0  0  0  0  0  0  0  0
    0.4282   14.5550   -5.9664 C   0  0  0  0  0  0  0  0  0  0  0  0
   -4.7714   14.2106  -11.2027 N   0  0  3  0  0  0  0  0  0  0  0  0
   -4.2061   15.2849  -11.7862 C   0  0  0  0  0  0  0  0  0  0  0  0
   -4.6883   15.3268  -13.0997 C   0  0  0  0  0  0  0  0  0  0  0  0
   -5.5027   14.2765  -13.3098 N   0  0  0  0  0  0  0  0  0  0  0  0
   -4.5364   13.8232   -9.7989 C   0  0  0  0  0  0  0  0  0  0  0  0
   -6.1104   12.2275   -9.8498 H   0  0  0  0  0  0  0  0  0  0  0  0
   -8.1928   10.0800  -13.9189 H   0  0  0  0  0  0  0  0  0  0  0  0
   -6.8717   12.2251  -14.0803 H   0  0  0  0  0  0  0  0  0  0  0  0
   -8.1181   10.5187   -7.6060 H   0  0  0  0  0  0  0  0  0  0  0  0
   -7.3952    8.8746   -7.5748 H   0  0  0  0  0  0  0  0  0  0  0  0
   -6.7536   12.3051   -6.9109 H   0  0  0  0  0  0  0  0  0  0  0  0
   -4.5183   13.2784   -6.4597 H   0  0  0  0  0  0  0  0  0  0  0  0
   -2.6656    9.7487   -8.0502 H   0  0  0  0  0  0  0  0  0  0  0  0
   -4.9040    8.7842   -8.4961 H   0  0  0  0  0  0  0  0  0  0  0  0
   -2.4137   14.2051   -6.1803 H   0  0  0  0  0  0  0  0  0  0  0  0
   -0.6543   10.5597   -7.5981 H   0  0  0  0  0  0  0  0  0  0  0  0
    1.4877   14.2705   -6.0474 H   0  0  0  0  0  0  0  0  0  0  0  0
    0.2364   15.4369   -6.5953 H   0  0  0  0  0  0  0  0  0  0  0  0
    0.1917   14.7932   -4.9189 H   0  0  0  0  0  0  0  0  0  0  0  0
   -4.4893   16.2018  -11.2485 H   0  0  0  0  0  0  0  0  0  0  0  0
   -3.1108   15.1839  -11.7871 H   0  0  0  0  0  0  0  0  0  0  0  0
   -4.4447   16.0839  -13.8303 H   0  0  0  0  0  0  0  0  0  0  0  0
   -3.8494   14.5427   -9.3295 H   0  0  0  0  0  0  0  0  0  0  0  0
   -5.4922   13.8204   -9.2545 H   0  0  0  0  0  0  0  0  0  0  0  0
   -4.0925   12.8173   -9.7656 H   0  0  0  0  0  0  0  0  0  0  0  0
  1  2  1  0  0  0  0
  1  4  1  0  0  0  0
  1 11  2  0  0  0  0
  2  6  2  0  0  0  0
  3  4  2  0  0  0  0
  3  5  1  0  0  0  0
  5  6  1  0  0  0  0
  5  9  2  0  0  0  0
  6  7  1  0  0  0  0
  7  8  2  0  0  0  0
  7 10  1  0  0  0  0
  8  9  1  0  0  0  0
 10 12  1  0  0  0  0
 11 24  1  0  0  0  0
 11 27  1  0  0  0  0
 12 13  2  0  0  0  0
 12 17  1  0  0  0  0
 13 14  1  0  0  0  0
 14 15  2  0  0  0  0
 15 16  1  0  0  0  0
 15 18  1  0  0  0  0
 16 17  2  0  0  0  0
 18 19  2  0  0  0  0
 18 22  1  0  0  0  0
 19 20  1  0  0  0  0
 20 21  1  0  0  0  0
 20 23  1  0  0  0  0
 21 22  2  0  0  0  0
 24 25  1  0  0  0  0
 24 28  1  0  0  0  0
 25 26  1  0  0  0  0
 26 27  2  0  0  0  0
  2 29  1  0  0  0  0
  3 30  1  0  0  0  0
  4 31  1  0  0  0  0
 10 32  1  0  0  0  0
 10 33  1  0  0  0  0
 13 34  1  0  0  0  0
 14 35  1  0  0  0  0
 16 36  1  0  0  0  0
 17 37  1  0  0  0  0
 19 38  1  0  0  0  0
 22 39  1  0  0  0  0
 23 40  1  0  0  0  0
 23 41  1  0  0  0  0
 23 42  1  0  0  0  0
 25 43  1  0  0  0  0
 25 44  1  0  0  0  0
 26 45  1  0  0  0  0
 28 46  1  0  0  0  0
 28 47  1  0  0  0  0
 28 48  1  0  0  0  0
M  END
> <Name>
22

> <IC50[uM]>
0.032

$$$$
22
  -OEChem-05192314333D
 Structure written by MMmdl.
 48 52  0     1  0  0  0  0  0999 V2000
   -6.3943   12.3306  -11.9839 C   0  0  0  0  0  0  0  0  0  0  0  0
   -6.5449   11.7624  -10.7224 C   0  0  0  0  0  0  0  0  0  0  0  0
   -7.7389   10.5318  -13.0493 C   0  0  0  0  0  0  0  0  0  0  0  0
   -6.9892   11.7416  -13.1218 C   0  0  0  0  0  0  0  0  0  0  0  0
   -7.8445    9.9757  -11.7834 C   0  0  0  0  0  0  0  0  0  0  0  0
   -7.2758   10.5697  -10.6136 C   0  0  0  0  0  0  0  0  0  0  0  0
   -7.6401    9.7111   -9.5254 C   0  0  3  0  0  0  0  0  0  0  0  0
   -8.3075    8.6850  -10.0132 N   0  0  0  0  0  0  0  0  0  0  0  0
   -8.4539    8.8245  -11.3160 N   0  0  0  0  0  0  0  0  0  0  0  0
   -7.3472    9.8680   -8.0446 C   0  0  0  0  0  0  0  0  0  0  0  0
   -5.5569   13.6094  -12.1739 C   0  0  0  0  0  0  0  0  0  0  0  0
   -5.9691   10.4796   -7.7443 C   0  0  0  0  0  0  0  0  0  0  0  0
   -5.8622   11.7497   -7.1624 C   0  0  0  0  0  0  0  0  0  0  0  0
   -4.6000   12.2988   -6.9070 C   0  0  0  0  0  0  0  0  0  0  0  0
   -3.4496   11.5829   -7.2293 C   0  0  0  0  0  0  0  0  0  0  0  0
   -3.5554   10.3089   -7.8035 C   0  0  0  0  0  0  0  0  0  0  0  0
   -4.8209    9.7667   -8.0554 C   0  0  0  0  0  0  0  0  0  0  0  0
   -2.0956   12.1660   -6.9654 C   0  0  0  0  0  0  0  0  0  0  0  0
   -1.7384   13.4130   -6.4683 C   0  0  0  0  0  0  0  0  0  0  0  0
   -0.4069   13.4502   -6.4129 N   0  0  3  0  0  0  0  0  0  0  0  0
    0.1813   12.3566   -6.8171 N   0  0  0  0  0  0  0  0  0  0  0  0
   -0.7988   11.5478   -7.1867 C   0  0  0  0  0  0  0  0  0  0  0  0
    0.4282   14.5550   -5.9664 C   0  0  0  0  0  0  0  0  0  0  0  0
   -4.7714   14.2106  -11.2027 N   0  0  0  0  0  0  0  0  0  0  0  0
   -4.2061   15.2849  -11.7862 C   0  0  0  0  0  0  0  0  0  0  0  0
   -4.6883   15.3268  -13.0997 C   0  0  0  0  0  0  0  0  0  0  0  0
   -5.5027   14.2765  -13.3098 N   0  0  0  0  0  0  0  0  0  0  0  0
   -4.5364   13.8232   -9.7989 C   0  0  0  0  0  0  0  0  0  0  0  0
   -6.1104   12.2275   -9.8498 H   0  0  0  0  0  0  0  0  0  0  0  0
   -8.1928   10.0800  -13.9189 H   0  0  0  0  0  0  0  0  0  0  0  0
   -6.8717   12.2251  -14.0803 H   0  0  0  0  0  0  0  0  0  0  0  0
   -8.5814   10.2663   -9.3999 H   0  0  0  0  0  0  0  0  0  0  0  0
   -8.0435    9.5766   -7.2721 H   0  0  0  0  0  0  0  0  0  0  0  0
   -6.7536   12.3051   -6.9109 H   0  0  0  0  0  0  0  0  0  0  0  0
   -4.5183   13.2784   -6.4597 H   0  0  0  0  0  0  0  0  0  0  0  0
   -2.6656    9.7487   -8.0502 H   0  0  0  0  0  0  0  0  0  0  0  0
   -4.9040    8.7842   -8.4961 H   0  0  0  0  0  0  0  0  0  0  0  0
   -2.1098   14.2048   -7.1354 H   0  0  0  0  0  0  0  0  0  0  0  0
   -2.1612   13.5527   -5.4625 H   0  0  0  0  0  0  0  0  0  0  0  0
   -0.6543   10.5597   -7.5981 H   0  0  0  0  0  0  0  0  0  0  0  0
    1.4877   14.2705   -6.0474 H   0  0  0  0  0  0  0  0  0  0  0  0
    0.2364   15.4369   -6.5953 H   0  0  0  0  0  0  0  0  0  0  0  0
    0.1917   14.7932   -4.9189 H   0  0  0  0  0  0  0  0  0  0  0  0
   -3.5156   15.9786  -11.3298 H   0  0  0  0  0  0  0  0  0  0  0  0
   -4.4447   16.0839  -13.8303 H   0  0  0  0  0  0  0  0  0  0  0  0
   -3.8494   14.5427   -9.3295 H   0  0  0  0  0  0  0  0  0  0  0  0
   -5.4922   13.8204   -9.2545 H   0  0  0  0  0  0  0  0  0  0  0  0
   -4.0925   12.8173   -9.7656 H   0  0  0  0  0  0  0  0  0  0  0  0
  1  2  2  0  0  0  0
  1  4  1  0  0  0  0
  1 11  1  0  0  0  0
  2  6  1  0  0  0  0
  3  4  2  0  0  0  0
  3  5  1  0  0  0  0
  5  6  2  0  0  0  0
  5  9  1  0  0  0  0
  6  7  1  0  0  0  0
  7  8  1  0  0  0  0
  7 10  1  0  0  0  0
  8  9  2  0  0  0  0
 10 12  2  0  0  0  0
 11 24  1  0  0  0  0
 11 27  2  0  0  0  0
 12 13  1  0  0  0  0
 12 17  1  0  0  0  0
 13 14  2  0  0  0  0
 14 15  1  0  0  0  0
 15 16  1  0  0  0  0
 15 18  2  0  0  0  0
 16 17  2  0  0  0  0
 18 19  1  0  0  0  0
 18 22  1  0  0  0  0
 19 20  1  0  0  0  0
 20 21  1  0  0  0  0
 20 23  1  0  0  0  0
 21 22  2  0  0  0  0
 24 25  1  0  0  0  0
 24 28  1  0  0  0  0
 25 26  2  0  0  0  0
 26 27  1  0  0  0  0
  2 29  1  0  0  0  0
  3 30  1  0  0  0  0
  4 31  1  0  0  0  0
  7 32  1  0  0  0  0
 10 33  1  0  0  0  0
 13 34  1  0  0  0  0
 14 35  1  0  0  0  0
 16 36  1  0  0  0  0
 17 37  1  0  0  0  0
 19 38  1  0  0  0  0
 19 39  1  0  0  0  0
 22 40  1  0  0  0  0
 23 41  1  0  0  0  0
 23 42  1  0  0  0  0
 23 43  1  0  0  0  0
 25 44  1  0  0  0  0
 26 45  1  0  0  0  0
 28 46  1  0  0  0  0
 28 47  1  0  0  0  0
 28 48  1  0  0  0  0
M  END
> <Name>
22

> <IC50[uM]>
0.032

$$$$
22
  -OEChem-05192314333D
 Structure written by MMmdl.
 48 52  0     0  0  0  0  0  0999 V2000
   -6.3943   12.3306  -11.9839 C   0  0  0  0  0  0  0  0  0  0  0  0
   -6.5449   11.7624  -10.7224 C   0  0  0  0  0  0  0  0  0  0  0  0
   -7.7389   10.5318  -13.0493 C   0  0  0  0  0  0  0  0  0  0  0  0
   -6.9892   11.7416  -13.1218 C   0  0  0  0  0  0  0  0  0  0  0  0
   -7.8445    9.9757  -11.7834 C   0  0  0  0  0  0  0  0  0  0  0  0
   -7.2758   10.5697  -10.6136 C   0  0  0  0  0  0  0  0  0  0  0  0
   -7.6401    9.7111   -9.5254 C   0  0  0  0  0  0  0  0  0  0  0  0
   -8.3075    8.6850  -10.0132 N   0  0  0  0  0  0  0  0  0  0  0  0
   -8.4539    8.8245  -11.3160 N   0  0  0  0  0  0  0  0  0  0  0  0
   -7.3472    9.8680   -8.0446 C   0  0  0  0  0  0  0  0  0  0  0  0
   -5.5569   13.6094  -12.1739 C   0  0  0  0  0  0  0  0  0  0  0  0
   -5.9691   10.4796   -7.7443 C   0  0  0  0  0  0  0  0  0  0  0  0
   -5.8622   11.7497   -7.1624 C   0  0  0  0  0  0  0  0  0  0  0  0
   -4.6000   12.2988   -6.9070 C   0  0  0  0  0  0  0  0  0  0  0  0
   -3.4496   11.5829   -7.2293 C   0  0  0  0  0  0  0  0  0  0  0  0
   -3.5554   10.3089   -7.8035 C   0  0  0  0  0  0  0  0  0  0  0  0
   -4.8209    9.7667   -8.0554 C   0  0  0  0  0  0  0  0  0  0  0  0
   -2.0956   12.1660   -6.9654 C   0  0  0  0  0  0  0  0  0  0  0  0
   -1.7384   13.4130   -6.4683 C   0  0  0  0  0  0  0  0  0  0  0  0
   -0.4069   13.4502   -6.4129 N   0  0  0  0  0  0  0  0  0  0  0  0
    0.1813   12.3566   -6.8171 N   0  0  0  0  0  0  0  0  0  0  0  0
   -0.7988   11.5478   -7.1867 C   0  0  0  0  0  0  0  0  0  0  0  0
    0.4282   14.5550   -5.9664 C   0  0  0  0  0  0  0  0  0  0  0  0
   -4.7714   14.2106  -11.2027 N   0  0  0  0  0  0  0  0  0  0  0  0
   -4.2061   15.2849  -11.7862 C   0  0  0  0  0  0  0  0  0  0  0  0
   -4.6883   15.3268  -13.0997 C   0  0  0  0  0  0  0  0  0  0  0  0
   -5.5027   14.2765  -13.3098 N   0  0  0  0  0  0  0  0  0  0  0  0
   -4.5364   13.8232   -9.7989 C   0  0  0  0  0  0  0  0  0  0  0  0
   -6.1104   12.2275   -9.8498 H   0  0  0  0  0  0  0  0  0  0  0  0
   -8.1928   10.0800  -13.9189 H   0  0  0  0  0  0  0  0  0  0  0  0
   -6.8717   12.2251  -14.0803 H   0  0  0  0  0  0  0  0  0  0  0  0
   -8.1181   10.5187   -7.6060 H   0  0  0  0  0  0  0  0  0  0  0  0
   -7.3952    8.8746   -7.5748 H   0  0  0  0  0  0  0  0  0  0  0  0
   -6.7536   12.3051   -6.9109 H   0  0  0  0  0  0  0  0  0  0  0  0
   -4.5183   13.2784   -6.4597 H   0  0  0  0  0  0  0  0  0  0  0  0
   -2.6656    9.7487   -8.0502 H   0  0  0  0  0  0  0  0  0  0  0  0
   -4.9040    8.7842   -8.4961 H   0  0  0  0  0  0  0  0  0  0  0  0
   -2.4137   14.2051   -6.1803 H   0  0  0  0  0  0  0  0  0  0  0  0
   -0.6543   10.5597   -7.5981 H   0  0  0  0  0  0  0  0  0  0  0  0
    1.4877   14.2705   -6.0474 H   0  0  0  0  0  0  0  0  0  0  0  0
    0.2364   15.4369   -6.5953 H   0  0  0  0  0  0  0  0  0  0  0  0
    0.1917   14.7932   -4.9189 H   0  0  0  0  0  0  0  0  0  0  0  0
   -3.5156   15.9786  -11.3298 H   0  0  0  0  0  0  0  0  0  0  0  0
   -4.4447   16.0839  -13.8303 H   0  0  0  0  0  0  0  0  0  0  0  0
   -5.9746   14.0468  -14.1610 H   0  0  0  0  0  0  0  0  0  0  0  0
   -3.8494   14.5427   -9.3295 H   0  0  0  0  0  0  0  0  0  0  0  0
   -5.4922   13.8204   -9.2545 H   0  0  0  0  0  0  0  0  0  0  0  0
   -4.0925   12.8173   -9.7656 H   0  0  0  0  0  0  0  0  0  0  0  0
  1  2  1  0  0  0  0
  1  4  1  0  0  0  0
  1 11  2  0  0  0  0
  2  6  2  0  0  0  0
  3  4  2  0  0  0  0
  3  5  1  0  0  0  0
  5  6  1  0  0  0  0
  5  9  2  0  0  0  0
  6  7  1  0  0  0  0
  7  8  2  0  0  0  0
  7 10  1  0  0  0  0
  8  9  1  0  0  0  0
 10 12  1  0  0  0  0
 11 24  1  0  0  0  0
 11 27  1  0  0  0  0
 12 13  2  0  0  0  0
 12 17  1  0  0  0  0
 13 14  1  0  0  0  0
 14 15  2  0  0  0  0
 15 16  1  0  0  0  0
 15 18  1  0  0  0  0
 16 17  2  0  0  0  0
 18 19  2  0  0  0  0
 18 22  1  0  0  0  0
 19 20  1  0  0  0  0
 20 21  1  0  0  0  0
 20 23  1  0  0  0  0
 21 22  2  0  0  0  0
 24 25  1  0  0  0  0
 24 28  1  0  0  0  0
 25 26  2  0  0  0  0
 26 27  1  0  0  0  0
  2 29  1  0  0  0  0
  3 30  1  0  0  0  0
  4 31  1  0  0  0  0
 10 32  1  0  0  0  0
 10 33  1  0  0  0  0
 13 34  1  0  0  0  0
 14 35  1  0  0  0  0
 16 36  1  0  0  0  0
 17 37  1  0  0  0  0
 19 38  1  0  0  0  0
 22 39  1  0  0  0  0
 23 40  1  0  0  0  0
 23 41  1  0  0  0  0
 23 42  1  0  0  0  0
 25 43  1  0  0  0  0
 26 44  1  0  0  0  0
 27 45  1  0  0  0  0
 28 46  1  0  0  0  0
 28 47  1  0  0  0  0
 28 48  1  0  0  0  0
M  END
> <Name>
22

> <IC50[uM]>
0.032

$$$$
22
  -OEChem-05192314333D
 Structure written by MMmdl.
 48 52  0     1  0  0  0  0  0999 V2000
   -6.3943   12.3306  -11.9839 C   0  0  3  0  0  0  0  0  0  0  0  0
   -6.5449   11.7624  -10.7224 C   0  0  0  0  0  0  0  0  0  0  0  0
   -7.7389   10.5318  -13.0493 C   0  0  0  0  0  0  0  0  0  0  0  0
   -6.9892   11.7416  -13.1218 C   0  0  0  0  0  0  0  0  0  0  0  0
   -7.8445    9.9757  -11.7834 C   0  0  0  0  0  0  0  0  0  0  0  0
   -7.2758   10.5697  -10.6136 C   0  0  0  0  0  0  0  0  0  0  0  0
   -7.6401    9.7111   -9.5254 C   0  0  0  0  0  0  0  0  0  0  0  0
   -8.3075    8.6850  -10.0132 N   0  0  0  0  0  0  0  0  0  0  0  0
   -8.4539    8.8245  -11.3160 N   0  0  0  0  0  0  0  0  0  0  0  0
   -7.3472    9.8680   -8.0446 C   0  0  0  0  0  0  0  0  0  0  0  0
   -5.5569   13.6094  -12.1739 C   0  0  0  0  0  0  0  0  0  0  0  0
   -5.9691   10.4796   -7.7443 C   0  0  0  0  0  0  0  0  0  0  0  0
   -5.8622   11.7497   -7.1624 C   0  0  0  0  0  0  0  0  0  0  0  0
   -4.6000   12.2988   -6.9070 C   0  0  0  0  0  0  0  0  0  0  0  0
   -3.4496   11.5829   -7.2293 C   0  0  0  0  0  0  0  0  0  0  0  0
   -3.5554   10.3089   -7.8035 C   0  0  0  0  0  0  0  0  0  0  0  0
   -4.8209    9.7667   -8.0554 C   0  0  0  0  0  0  0  0  0  0  0  0
   -2.0956   12.1660   -6.9654 C   0  0  0  0  0  0  0  0  0  0  0  0
   -1.7384   13.4130   -6.4683 C   0  0  0  0  0  0  0  0  0  0  0  0
   -0.4069   13.4502   -6.4129 N   0  0  0  0  0  0  0  0  0  0  0  0
    0.1813   12.3566   -6.8171 N   0  0  0  0  0  0  0  0  0  0  0  0
   -0.7988   11.5478   -7.1867 C   0  0  0  0  0  0  0  0  0  0  0  0
    0.4282   14.5550   -5.9664 C   0  0  0  0  0  0  0  0  0  0  0  0
   -4.7714   14.2106  -11.2027 N   0  0  0  0  0  0  0  0  0  0  0  0
   -4.2061   15.2849  -11.7862 C   0  0  0  0  0  0  0  0  0  0  0  0
   -4.6883   15.3268  -13.0997 C   0  0  0  0  0  0  0  0  0  0  0  0
   -5.5027   14.2765  -13.3098 N   0  0  0  0  0  0  0  0  0  0  0  0
   -4.5364   13.8232   -9.7989 C   0  0  0  0  0  0  0  0  0  0  0  0
   -7.2958   12.9399  -11.8223 H   0  0  0  0  0  0  0  0  0  0  0  0
   -6.1104   12.2275   -9.8498 H   0  0  0  0  0  0  0  0  0  0  0  0
   -8.1928   10.0800  -13.9189 H   0  0  0  0  0  0  0  0  0  0  0  0
   -6.8717   12.2251  -14.0803 H   0  0  0  0  0  0  0  0  0  0  0  0
   -8.1181   10.5187   -7.6060 H   0  0  0  0  0  0  0  0  0  0  0  0
   -7.3952    8.8746   -7.5748 H   0  0  0  0  0  0  0  0  0  0  0  0
   -6.7536   12.3051   -6.9109 H   0  0  0  0  0  0  0  0  0  0  0  0
   -4.5183   13.2784   -6.4597 H   0  0  0  0  0  0  0  0  0  0  0  0
   -2.6656    9.7487   -8.0502 H   0  0  0  0  0  0  0  0  0  0  0  0
   -4.9040    8.7842   -8.4961 H   0  0  0  0  0  0  0  0  0  0  0  0
   -2.4137   14.2051   -6.1803 H   0  0  0  0  0  0  0  0  0  0  0  0
   -0.6543   10.5597   -7.5981 H   0  0  0  0  0  0  0  0  0  0  0  0
    1.4877   14.2705   -6.0474 H   0  0  0  0  0  0  0  0  0  0  0  0
    0.2364   15.4369   -6.5953 H   0  0  0  0  0  0  0  0  0  0  0  0
    0.1917   14.7932   -4.9189 H   0  0  0  0  0  0  0  0  0  0  0  0
   -3.5156   15.9786  -11.3298 H   0  0  0  0  0  0  0  0  0  0  0  0
   -4.4447   16.0839  -13.8303 H   0  0  0  0  0  0  0  0  0  0  0  0
   -3.8494   14.5427   -9.3295 H   0  0  0  0  0  0  0  0  0  0  0  0
   -5.4922   13.8204   -9.2545 H   0  0  0  0  0  0  0  0  0  0  0  0
   -4.0925   12.8173   -9.7656 H   0  0  0  0  0  0  0  0  0  0  0  0
  1  2  1  0  0  0  0
  1  4  1  0  0  0  0
  1 11  1  0  0  0  0
  2  6  2  0  0  0  0
  3  4  2  0  0  0  0
  3  5  1  0  0  0  0
  5  6  1  0  0  0  0
  5  9  2  0  0  0  0
  6  7  1  0  0  0  0
  7  8  2  0  0  0  0
  7 10  1  0  0  0  0
  8  9  1  0  0  0  0
 10 12  1  0  0  0  0
 11 24  1  0  0  0  0
 11 27  2  0  0  0  0
 12 13  2  0  0  0  0
 12 17  1  0  0  0  0
 13 14  1  0  0  0  0
 14 15  2  0  0  0  0
 15 16  1  0  0  0  0
 15 18  1  0  0  0  0
 16 17  2  0  0  0  0
 18 19  2  0  0  0  0
 18 22  1  0  0  0  0
 19 20  1  0  0  0  0
 20 21  1  0  0  0  0
 20 23  1  0  0  0  0
 21 22  2  0  0  0  0
 24 25  1  0  0  0  0
 24 28  1  0  0  0  0
 25 26  2  0  0  0  0
 26 27  1  0  0  0  0
  1 29  1  0  0  0  0
  2 30  1  0  0  0  0
  3 31  1  0  0  0  0
  4 32  1  0  0  0  0
 10 33  1  0  0  0  0
 10 34  1  0  0  0  0
 13 35  1  0  0  0  0
 14 36  1  0  0  0  0
 16 37  1  0  0  0  0
 17 38  1  0  0  0  0
 19 39  1  0  0  0  0
 22 40  1  0  0  0  0
 23 41  1  0  0  0  0
 23 42  1  0  0  0  0
 23 43  1  0  0  0  0
 25 44  1  0  0  0  0
 26 45  1  0  0  0  0
 28 46  1  0  0  0  0
 28 47  1  0  0  0  0
 28 48  1  0  0  0  0
M  END
> <Name>
22

> <IC50[uM]>
0.032

$$$$
22
  -OEChem-05192314333D
 Structure written by MMmdl.
 48 52  0     1  0  0  0  0  0999 V2000
   -6.3943   12.3306  -11.9839 C   0  0  0  0  0  0  0  0  0  0  0  0
   -6.5449   11.7624  -10.7224 C   0  0  0  0  0  0  0  0  0  0  0  0
   -7.7389   10.5318  -13.0493 C   0  0  0  0  0  0  0  0  0  0  0  0
   -6.9892   11.7416  -13.1218 C   0  0  0  0  0  0  0  0  0  0  0  0
   -7.8445    9.9757  -11.7834 C   0  0  0  0  0  0  0  0  0  0  0  0
   -7.2758   10.5697  -10.6136 C   0  0  3  0  0  0  0  0  0  0  0  0
   -7.6401    9.7111   -9.5254 C   0  0  0  0  0  0  0  0  0  0  0  0
   -8.3075    8.6850  -10.0132 N   0  0  0  0  0  0  0  0  0  0  0  0
   -8.4539    8.8245  -11.3160 N   0  0  0  0  0  0  0  0  0  0  0  0
   -7.3472    9.8680   -8.0446 C   0  0  0  0  0  0  0  0  0  0  0  0
   -5.5569   13.6094  -12.1739 C   0  0  0  0  0  0  0  0  0  0  0  0
   -5.9691   10.4796   -7.7443 C   0  0  0  0  0  0  0  0  0  0  0  0
   -5.8622   11.7497   -7.1624 C   0  0  0  0  0  0  0  0  0  0  0  0
   -4.6000   12.2988   -6.9070 C   0  0  0  0  0  0  0  0  0  0  0  0
   -3.4496   11.5829   -7.2293 C   0  0  0  0  0  0  0  0  0  0  0  0
   -3.5554   10.3089   -7.8035 C   0  0  0  0  0  0  0  0  0  0  0  0
   -4.8209    9.7667   -8.0554 C   0  0  0  0  0  0  0  0  0  0  0  0
   -2.0956   12.1660   -6.9654 C   0  0  0  0  0  0  0  0  0  0  0  0
   -1.7384   13.4130   -6.4683 C   0  0  0  0  0  0  0  0  0  0  0  0
   -0.4069   13.4502   -6.4129 N   0  0  0  0  0  0  0  0  0  0  0  0
    0.1813   12.3566   -6.8171 N   0  0  0  0  0  0  0  0  0  0  0  0
   -0.7988   11.5478   -7.1867 C   0  0  0  0  0  0  0  0  0  0  0  0
    0.4282   14.5550   -5.9664 C   0  0  0  0  0  0  0  0  0  0  0  0
   -4.7714   14.2106  -11.2027 N   0  0  0  0  0  0  0  0  0  0  0  0
   -4.2061   15.2849  -11.7862 C   0  0  0  0  0  0  0  0  0  0  0  0
   -4.6883   15.3268  -13.0997 C   0  0  0  0  0  0  0  0  0  0  0  0
   -5.5027   14.2765  -13.3098 N   0  0  0  0  0  0  0  0  0  0  0  0
   -4.5364   13.8232   -9.7989 C   0  0  0  0  0  0  0  0  0  0  0  0
   -6.1104   12.2275   -9.8498 H   0  0  0  0  0  0  0  0  0  0  0  0
   -8.1928   10.0800  -13.9189 H   0  0  0  0  0  0  0  0  0  0  0  0
   -6.8717   12.2251  -14.0803 H   0  0  0  0  0  0  0  0  0  0  0  0
   -6.3539    9.9891  -10.7651 H   0  0  0  0  0  0  0  0  0  0  0  0
   -8.1181   10.5187   -7.6060 H   0  0  0  0  0  0  0  0  0  0  0  0
   -7.3952    8.8746   -7.5748 H   0  0  0  0  0  0  0  0  0  0  0  0
   -6.7536   12.3051   -6.9109 H   0  0  0  0  0  0  0  0  0  0  0  0
   -4.5183   13.2784   -6.4597 H   0  0  0  0  0  0  0  0  0  0  0  0
   -2.6656    9.7487   -8.0502 H   0  0  0  0  0  0  0  0  0  0  0  0
   -4.9040    8.7842   -8.4961 H   0  0  0  0  0  0  0  0  0  0  0  0
   -2.4137   14.2051   -6.1803 H   0  0  0  0  0  0  0  0  0  0  0  0
   -0.6543   10.5597   -7.5981 H   0  0  0  0  0  0  0  0  0  0  0  0
    1.4877   14.2705   -6.0474 H   0  0  0  0  0  0  0  0  0  0  0  0
    0.2364   15.4369   -6.5953 H   0  0  0  0  0  0  0  0  0  0  0  0
    0.1917   14.7932   -4.9189 H   0  0  0  0  0  0  0  0  0  0  0  0
   -3.5156   15.9786  -11.3298 H   0  0  0  0  0  0  0  0  0  0  0  0
   -4.4447   16.0839  -13.8303 H   0  0  0  0  0  0  0  0  0  0  0  0
   -3.8494   14.5427   -9.3295 H   0  0  0  0  0  0  0  0  0  0  0  0
   -5.4922   13.8204   -9.2545 H   0  0  0  0  0  0  0  0  0  0  0  0
   -4.0925   12.8173   -9.7656 H   0  0  0  0  0  0  0  0  0  0  0  0
  1  2  2  0  0  0  0
  1  4  1  0  0  0  0
  1 11  1  0  0  0  0
  2  6  1  0  0  0  0
  3  4  2  0  0  0  0
  3  5  1  0  0  0  0
  5  6  1  0  0  0  0
  5  9  2  0  0  0  0
  6  7  1  0  0  0  0
  7  8  2  0  0  0  0
  7 10  1  0  0  0  0
  8  9  1  0  0  0  0
 10 12  1  0  0  0  0
 11 24  1  0  0  0  0
 11 27  2  0  0  0  0
 12 13  2  0  0  0  0
 12 17  1  0  0  0  0
 13 14  1  0  0  0  0
 14 15  2  0  0  0  0
 15 16  1  0  0  0  0
 15 18  1  0  0  0  0
 16 17  2  0  0  0  0
 18 19  2  0  0  0  0
 18 22  1  0  0  0  0
 19 20  1  0  0  0  0
 20 21  1  0  0  0  0
 20 23  1  0  0  0  0
 21 22  2  0  0  0  0
 24 25  1  0  0  0  0
 24 28  1  0  0  0  0
 25 26  2  0  0  0  0
 26 27  1  0  0  0  0
  2 29  1  0  0  0  0
  3 30  1  0  0  0  0
  4 31  1  0  0  0  0
  6 32  1  0  0  0  0
 10 33  1  0  0  0  0
 10 34  1  0  0  0  0
 13 35  1  0  0  0  0
 14 36  1  0  0  0  0
 16 37  1  0  0  0  0
 17 38  1  0  0  0  0
 19 39  1  0  0  0  0
 22 40  1  0  0  0  0
 23 41  1  0  0  0  0
 23 42  1  0  0  0  0
 23 43  1  0  0  0  0
 25 44  1  0  0  0  0
 26 45  1  0  0  0  0
 28 46  1  0  0  0  0
 28 47  1  0  0  0  0
 28 48  1  0  0  0  0
M  END
> <Name>
22

> <IC50[uM]>
0.032

$$$$
22
  -OEChem-05192314333D
 Structure written by MMmdl.
 48 52  0     0  0  0  0  0  0999 V2000
   -6.3943   12.3306  -11.9839 C   0  0  0  0  0  0  0  0  0  0  0  0
   -6.5449   11.7624  -10.7224 C   0  0  0  0  0  0  0  0  0  0  0  0
   -7.7389   10.5318  -13.0493 C   0  0  0  0  0  0  0  0  0  0  0  0
   -6.9892   11.7416  -13.1218 C   0  0  0  0  0  0  0  0  0  0  0  0
   -7.8445    9.9757  -11.7834 C   0  0  0  0  0  0  0  0  0  0  0  0
   -7.2758   10.5697  -10.6136 C   0  0  0  0  0  0  0  0  0  0  0  0
   -7.6401    9.7111   -9.5254 C   0  0  0  0  0  0  0  0  0  0  0  0
   -8.3075    8.6850  -10.0132 N   0  0  0  0  0  0  0  0  0  0  0  0
   -8.4539    8.8245  -11.3160 N   0  0  0  0  0  0  0  0  0  0  0  0
   -7.3472    9.8680   -8.0446 C   0  0  0  0  0  0  0  0  0  0  0  0
   -5.5569   13.6094  -12.1739 C   0  0  0  0  0  0  0  0  0  0  0  0
   -5.9691   10.4796   -7.7443 C   0  0  0  0  0  0  0  0  0  0  0  0
   -5.8622   11.7497   -7.1624 C   0  0  0  0  0  0  0  0  0  0  0  0
   -4.6000   12.2988   -6.9070 C   0  0  0  0  0  0  0  0  0  0  0  0
   -3.4496   11.5829   -7.2293 C   0  0  0  0  0  0  0  0  0  0  0  0
   -3.5554   10.3089   -7.8035 C   0  0  0  0  0  0  0  0  0  0  0  0
   -4.8209    9.7667   -8.0554 C   0  0  0  0  0  0  0  0  0  0  0  0
   -2.0956   12.1660   -6.9654 C   0  0  0  0  0  0  0  0  0  0  0  0
   -1.7384   13.4130   -6.4683 C   0  0  0  0  0  0  0  0  0  0  0  0
   -0.4069   13.4502   -6.4129 N   0  0  0  0  0  0  0  0  0  0  0  0
    0.1813   12.3566   -6.8171 N   0  0  0  0  0  0  0  0  0  0  0  0
   -0.7988   11.5478   -7.1867 C   0  0  0  0  0  0  0  0  0  0  0  0
    0.4282   14.5550   -5.9664 C   0  0  0  0  0  0  0  0  0  0  0  0
   -4.7714   14.2106  -11.2027 N   0  0  0  0  0  0  0  0  0  0  0  0
   -4.2061   15.2849  -11.7862 C   0  0  0  0  0  0  0  0  0  0  0  0
   -4.6883   15.3268  -13.0997 C   0  0  0  0  0  0  0  0  0  0  0  0
   -5.5027   14.2765  -13.3098 N   0  0  0  0  0  0  0  0  0  0  0  0
   -4.5364   13.8232   -9.7989 C   0  0  0  0  0  0  0  0  0  0  0  0
   -6.1104   12.2275   -9.8498 H   0  0  0  0  0  0  0  0  0  0  0  0
   -8.7553   10.7392  -13.4153 H   0  0  0  0  0  0  0  0  0  0  0  0
   -7.2563    9.7930  -13.7060 H   0  0  0  0  0  0  0  0  0  0  0  0
   -6.8717   12.2251  -14.0803 H   0  0  0  0  0  0  0  0  0  0  0  0
   -8.1181   10.5187   -7.6060 H   0  0  0  0  0  0  0  0  0  0  0  0
   -7.3952    8.8746   -7.5748 H   0  0  0  0  0  0  0  0  0  0  0  0
   -6.7536   12.3051   -6.9109 H   0  0  0  0  0  0  0  0  0  0  0  0
   -4.5183   13.2784   -6.4597 H   0  0  0  0  0  0  0  0  0  0  0  0
   -2.6656    9.7487   -8.0502 H   0  0  0  0  0  0  0  0  0  0  0  0
   -4.9040    8.7842   -8.4961 H   0  0  0  0  0  0  0  0  0  0  0  0
   -2.4137   14.2051   -6.1803 H   0  0  0  0  0  0  0  0  0  0  0  0
   -0.6543   10.5597   -7.5981 H   0  0  0  0  0  0  0  0  0  0  0  0
    1.4877   14.2705   -6.0474 H   0  0  0  0  0  0  0  0  0  0  0  0
    0.2364   15.4369   -6.5953 H   0  0  0  0  0  0  0  0  0  0  0  0
    0.1917   14.7932   -4.9189 H   0  0  0  0  0  0  0  0  0  0  0  0
   -3.5156   15.9786  -11.3298 H   0  0  0  0  0  0  0  0  0  0  0  0
   -4.4447   16.0839  -13.8303 H   0  0  0  0  0  0  0  0  0  0  0  0
   -3.8494   14.5427   -9.3295 H   0  0  0  0  0  0  0  0  0  0  0  0
   -5.4922   13.8204   -9.2545 H   0  0  0  0  0  0  0  0  0  0  0  0
   -4.0925   12.8173   -9.7656 H   0  0  0  0  0  0  0  0  0  0  0  0
  1  2  1  0  0  0  0
  1  4  2  0  0  0  0
  1 11  1  0  0  0  0
  2  6  2  0  0  0  0
  3  4  1  0  0  0  0
  3  5  1  0  0  0  0
  5  6  1  0  0  0  0
  5  9  2  0  0  0  0
  6  7  1  0  0  0  0
  7  8  2  0  0  0  0
  7 10  1  0  0  0  0
  8  9  1  0  0  0  0
 10 12  1  0  0  0  0
 11 24  1  0  0  0  0
 11 27  2  0  0  0  0
 12 13  2  0  0  0  0
 12 17  1  0  0  0  0
 13 14  1  0  0  0  0
 14 15  2  0  0  0  0
 15 16  1  0  0  0  0
 15 18  1  0  0  0  0
 16 17  2  0  0  0  0
 18 19  2  0  0  0  0
 18 22  1  0  0  0  0
 19 20  1  0  0  0  0
 20 21  1  0  0  0  0
 20 23  1  0  0  0  0
 21 22  2  0  0  0  0
 24 25  1  0  0  0  0
 24 28  1  0  0  0  0
 25 26  2  0  0  0  0
 26 27  1  0  0  0  0
  2 29  1  0  0  0  0
  3 30  1  0  0  0  0
  3 31  1  0  0  0  0
  4 32  1  0  0  0  0
 10 33  1  0  0  0  0
 10 34  1  0  0  0  0
 13 35  1  0  0  0  0
 14 36  1  0  0  0  0
 16 37  1  0  0  0  0
 17 38  1  0  0  0  0
 19 39  1  0  0  0  0
 22 40  1  0  0  0  0
 23 41  1  0  0  0  0
 23 42  1  0  0  0  0
 23 43  1  0  0  0  0
 25 44  1  0  0  0  0
 26 45  1  0  0  0  0
 28 46  1  0  0  0  0
 28 47  1  0  0  0  0
 28 48  1  0  0  0  0
M  END
> <Name>
22

> <IC50[uM]>
0.032

$$$$
22
  -OEChem-05192314333D
 Structure written by MMmdl.
 48 52  0     0  0  0  0  0  0999 V2000
   -6.3943   12.3306  -11.9839 C   0  0  0  0  0  0  0  0  0  0  0  0
   -6.5449   11.7624  -10.7224 C   0  0  0  0  0  0  0  0  0  0  0  0
   -7.7389   10.5318  -13.0493 C   0  0  0  0  0  0  0  0  0  0  0  0
   -6.9892   11.7416  -13.1218 C   0  0  0  0  0  0  0  0  0  0  0  0
   -7.8445    9.9757  -11.7834 C   0  0  0  0  0  0  0  0  0  0  0  0
   -7.2758   10.5697  -10.6136 C   0  0  0  0  0  0  0  0  0  0  0  0
   -7.6401    9.7111   -9.5254 C   0  0  0  0  0  0  0  0  0  0  0  0
   -8.3075    8.6850  -10.0132 N   0  0  0  0  0  0  0  0  0  0  0  0
   -8.4539    8.8245  -11.3160 N   0  0  0  0  0  0  0  0  0  0  0  0
   -7.3472    9.8680   -8.0446 C   0  0  0  0  0  0  0  0  0  0  0  0
   -5.5569   13.6094  -12.1739 C   0  0  0  0  0  0  0  0  0  0  0  0
   -5.9691   10.4796   -7.7443 C   0  0  0  0  0  0  0  0  0  0  0  0
   -5.8622   11.7497   -7.1624 C   0  0  0  0  0  0  0  0  0  0  0  0
   -4.6000   12.2988   -6.9070 C   0  0  0  0  0  0  0  0  0  0  0  0
   -3.4496   11.5829   -7.2293 C   0  0  0  0  0  0  0  0  0  0  0  0
   -3.5554   10.3089   -7.8035 C   0  0  0  0  0  0  0  0  0  0  0  0
   -4.8209    9.7667   -8.0554 C   0  0  0  0  0  0  0  0  0  0  0  0
   -2.0956   12.1660   -6.9654 C   0  0  0  0  0  0  0  0  0  0  0  0
   -1.7384   13.4130   -6.4683 C   0  0  0  0  0  0  0  0  0  0  0  0
   -0.4069   13.4502   -6.4129 N   0  0  0  0  0  0  0  0  0  0  0  0
    0.1813   12.3566   -6.8171 N   0  0  0  0  0  0  0  0  0  0  0  0
   -0.7988   11.5478   -7.1867 C   0  0  0  0  0  0  0  0  0  0  0  0
    0.4282   14.5550   -5.9664 C   0  0  0  0  0  0  0  0  0  0  0  0
   -4.7714   14.2106  -11.2027 N   0  0  0  0  0  0  0  0  0  0  0  0
   -4.2061   15.2849  -11.7862 C   0  0  0  0  0  0  0  0  0  0  0  0
   -4.6883   15.3268  -13.0997 C   0  0  0  0  0  0  0  0  0  0  0  0
   -5.5027   14.2765  -13.3098 N   0  0  0  0  0  0  0  0  0  0  0  0
   -4.5364   13.8232   -9.7989 C   0  0  0  0  0  0  0  0  0  0  0  0
   -6.1104   12.2275   -9.8498 H   0  0  0  0  0  0  0  0  0  0  0  0
   -8.1928   10.0800  -13.9189 H   0  0  0  0  0  0  0  0  0  0  0  0
   -6.8717   12.2251  -14.0803 H   0  0  0  0  0  0  0  0  0  0  0  0
   -8.0435    9.5766   -7.2721 H   0  0  0  0  0  0  0  0  0  0  0  0
   -5.9832   10.0218   -6.7442 H   0  0  0  0  0  0  0  0  0  0  0  0
   -6.7536   12.3051   -6.9109 H   0  0  0  0  0  0  0  0  0  0  0  0
   -4.5183   13.2784   -6.4597 H   0  0  0  0  0  0  0  0  0  0  0  0
   -3.4490   12.0350   -8.2321 H   0  0  0  0  0  0  0  0  0  0  0  0
   -2.6656    9.7487   -8.0502 H   0  0  0  0  0  0  0  0  0  0  0  0
   -4.9040    8.7842   -8.4961 H   0  0  0  0  0  0  0  0  0  0  0  0
   -2.4137   14.2051   -6.1803 H   0  0  0  0  0  0  0  0  0  0  0  0
   -0.6543   10.5597   -7.5981 H   0  0  0  0  0  0  0  0  0  0  0  0
    1.4877   14.2705   -6.0474 H   0  0  0  0  0  0  0  0  0  0  0  0
    0.2364   15.4369   -6.5953 H   0  0  0  0  0  0  0  0  0  0  0  0
    0.1917   14.7932   -4.9189 H   0  0  0  0  0  0  0  0  0  0  0  0
   -3.5156   15.9786  -11.3298 H   0  0  0  0  0  0  0  0  0  0  0  0
   -4.4447   16.0839  -13.8303 H   0  0  0  0  0  0  0  0  0  0  0  0
   -3.8494   14.5427   -9.3295 H   0  0  0  0  0  0  0  0  0  0  0  0
   -5.4922   13.8204   -9.2545 H   0  0  0  0  0  0  0  0  0  0  0  0
   -4.0925   12.8173   -9.7656 H   0  0  0  0  0  0  0  0  0  0  0  0
  1  2  2  0  0  0  0
  1  4  1  0  0  0  0
  1 11  1  0  0  0  0
  2  6  1  0  0  0  0
  3  4  2  0  0  0  0
  3  5  1  0  0  0  0
  5  6  2  0  0  0  0
  5  9  1  0  0  0  0
  6  7  1  0  0  0  0
  7  8  1  0  0  0  0
  7 10  2  3  0  0  0
  8  9  2  0  0  0  0
 10 12  1  0  0  0  0
 11 24  1  0  0  0  0
 11 27  2  0  0  0  0
 12 13  1  0  0  0  0
 12 17  1  0  0  0  0
 13 14  2  0  0  0  0
 14 15  1  0  0  0  0
 15 16  1  0  0  0  0
 15 18  1  0  0  0  0
 16 17  2  0  0  0  0
 18 19  2  0  0  0  0
 18 22  1  0  0  0  0
 19 20  1  0  0  0  0
 20 21  1  0  0  0  0
 20 23  1  0  0  0  0
 21 22  2  0  0  0  0
 24 25  1  0  0  0  0
 24 28  1  0  0  0  0
 25 26  2  0  0  0  0
 26 27  1  0  0  0  0
  2 29  1  0  0  0  0
  3 30  1  0  0  0  0
  4 31  1  0  0  0  0
 10 32  1  0  0  0  0
 12 33  1  0  0  0  0
 13 34  1  0  0  0  0
 14 35  1  0  0  0  0
 15 36  1  0  0  0  0
 16 37  1  0  0  0  0
 17 38  1  0  0  0  0
 19 39  1  0  0  0  0
 22 40  1  0  0  0  0
 23 41  1  0  0  0  0
 23 42  1  0  0  0  0
 23 43  1  0  0  0  0
 25 44  1  0  0  0  0
 26 45  1  0  0  0  0
 28 46  1  0  0  0  0
 28 47  1  0  0  0  0
 28 48  1  0  0  0  0
M  END
> <Name>
22

> <IC50[uM]>
0.032

$$$$
22
  -OEChem-05192314333D
 Structure written by MMmdl.
 48 52  0     1  0  0  0  0  0999 V2000
   -6.3943   12.3306  -11.9839 C   0  0  0  0  0  0  0  0  0  0  0  0
   -6.5449   11.7624  -10.7224 C   0  0  0  0  0  0  0  0  0  0  0  0
   -7.7389   10.5318  -13.0493 C   0  0  0  0  0  0  0  0  0  0  0  0
   -6.9892   11.7416  -13.1218 C   0  0  0  0  0  0  0  0  0  0  0  0
   -7.8445    9.9757  -11.7834 C   0  0  0  0  0  0  0  0  0  0  0  0
   -7.2758   10.5697  -10.6136 C   0  0  0  0  0  0  0  0  0  0  0  0
   -7.6401    9.7111   -9.5254 C   0  0  3  0  0  0  0  0  0  0  0  0
   -8.3075    8.6850  -10.0132 N   0  0  0  0  0  0  0  0  0  0  0  0
   -8.4539    8.8245  -11.3160 N   0  0  0  0  0  0  0  0  0  0  0  0
   -7.3472    9.8680   -8.0446 C   0  0  0  0  0  0  0  0  0  0  0  0
   -5.5569   13.6094  -12.1739 C   0  0  0  0  0  0  0  0  0  0  0  0
   -5.9691   10.4796   -7.7443 C   0  0  0  0  0  0  0  0  0  0  0  0
   -5.8622   11.7497   -7.1624 C   0  0  0  0  0  0  0  0  0  0  0  0
   -4.6000   12.2988   -6.9070 C   0  0  0  0  0  0  0  0  0  0  0  0
   -3.4496   11.5829   -7.2293 C   0  0  0  0  0  0  0  0  0  0  0  0
   -3.5554   10.3089   -7.8035 C   0  0  0  0  0  0  0  0  0  0  0  0
   -4.8209    9.7667   -8.0554 C   0  0  0  0  0  0  0  0  0  0  0  0
   -2.0956   12.1660   -6.9654 C   0  0  0  0  0  0  0  0  0  0  0  0
   -1.7384   13.4130   -6.4683 C   0  0  0  0  0  0  0  0  0  0  0  0
   -0.4069   13.4502   -6.4129 N   0  0  0  0  0  0  0  0  0  0  0  0
    0.1813   12.3566   -6.8171 N   0  0  0  0  0  0  0  0  0  0  0  0
   -0.7988   11.5478   -7.1867 C   0  0  0  0  0  0  0  0  0  0  0  0
    0.4282   14.5550   -5.9664 C   0  0  0  0  0  0  0  0  0  0  0  0
   -4.7714   14.2106  -11.2027 N   0  0  0  0  0  0  0  0  0  0  0  0
   -4.2061   15.2849  -11.7862 C   0  0  0  0  0  0  0  0  0  0  0  0
   -4.6883   15.3268  -13.0997 C   0  0  0  0  0  0  0  0  0  0  0  0
   -5.5027   14.2765  -13.3098 N   0  0  0  0  0  0  0  0  0  0  0  0
   -4.5364   13.8232   -9.7989 C   0  0  0  0  0  0  0  0  0  0  0  0
   -6.1104   12.2275   -9.8498 H   0  0  0  0  0  0  0  0  0  0  0  0
   -8.1928   10.0800  -13.9189 H   0  0  0  0  0  0  0  0  0  0  0  0
   -6.8717   12.2251  -14.0803 H   0  0  0  0  0  0  0  0  0  0  0  0
   -8.5814   10.2663   -9.3999 H   0  0  0  0  0  0  0  0  0  0  0  0
   -8.0435    9.5766   -7.2721 H   0  0  0  0  0  0  0  0  0  0  0  0
   -6.7536   12.3051   -6.9109 H   0  0  0  0  0  0  0  0  0  0  0  0
   -4.5183   13.2784   -6.4597 H   0  0  0  0  0  0  0  0  0  0  0  0
   -3.4490   12.0350   -8.2321 H   0  0  0  0  0  0  0  0  0  0  0  0
   -2.6656    9.7487   -8.0502 H   0  0  0  0  0  0  0  0  0  0  0  0
   -4.9040    8.7842   -8.4961 H   0  0  0  0  0  0  0  0  0  0  0  0
   -2.4137   14.2051   -6.1803 H   0  0  0  0  0  0  0  0  0  0  0  0
   -0.6543   10.5597   -7.5981 H   0  0  0  0  0  0  0  0  0  0  0  0
    1.4877   14.2705   -6.0474 H   0  0  0  0  0  0  0  0  0  0  0  0
    0.2364   15.4369   -6.5953 H   0  0  0  0  0  0  0  0  0  0  0  0
    0.1917   14.7932   -4.9189 H   0  0  0  0  0  0  0  0  0  0  0  0
   -3.5156   15.9786  -11.3298 H   0  0  0  0  0  0  0  0  0  0  0  0
   -4.4447   16.0839  -13.8303 H   0  0  0  0  0  0  0  0  0  0  0  0
   -3.8494   14.5427   -9.3295 H   0  0  0  0  0  0  0  0  0  0  0  0
   -5.4922   13.8204   -9.2545 H   0  0  0  0  0  0  0  0  0  0  0  0
   -4.0925   12.8173   -9.7656 H   0  0  0  0  0  0  0  0  0  0  0  0
  1  2  2  0  0  0  0
  1  4  1  0  0  0  0
  1 11  1  0  0  0  0
  2  6  1  0  0  0  0
  3  4  2  0  0  0  0
  3  5  1  0  0  0  0
  5  6  2  0  0  0  0
  5  9  1  0  0  0  0
  6  7  1  0  0  0  0
  7  8  1  0  0  0  0
  7 10  1  0  0  0  0
  8  9  2  0  0  0  0
 10 12  2  0  0  0  0
 11 24  1  0  0  0  0
 11 27  2  0  0  0  0
 12 13  1  0  0  0  0
 12 17  1  0  0  0  0
 13 14  2  0  0  0  0
 14 15  1  0  0  0  0
 15 16  1  0  0  0  0
 15 18  1  0  0  0  0
 16 17  2  0  0  0  0
 18 19  2  0  0  0  0
 18 22  1  0  0  0  0
 19 20  1  0  0  0  0
 20 21  1  0  0  0  0
 20 23  1  0  0  0  0
 21 22  2  0  0  0  0
 24 25  1  0  0  0  0
 24 28  1  0  0  0  0
 25 26  2  0  0  0  0
 26 27  1  0  0  0  0
  2 29  1  0  0  0  0
  3 30  1  0  0  0  0
  4 31  1  0  0  0  0
  7 32  1  0  0  0  0
 10 33  1  0  0  0  0
 13 34  1  0  0  0  0
 14 35  1  0  0  0  0
 15 36  1  0  0  0  0
 16 37  1  0  0  0  0
 17 38  1  0  0  0  0
 19 39  1  0  0  0  0
 22 40  1  0  0  0  0
 23 41  1  0  0  0  0
 23 42  1  0  0  0  0
 23 43  1  0  0  0  0
 25 44  1  0  0  0  0
 26 45  1  0  0  0  0
 28 46  1  0  0  0  0
 28 47  1  0  0  0  0
 28 48  1  0  0  0  0
M  END
> <Name>
22

> <IC50[uM]>
0.032

$$$$
22
  -OEChem-05192314333D
 Structure written by MMmdl.
 48 52  0     1  0  0  0  0  0999 V2000
   -6.3943   12.3306  -11.9839 C   0  0  3  0  0  0  0  0  0  0  0  0
   -6.5449   11.7624  -10.7224 C   0  0  0  0  0  0  0  0  0  0  0  0
   -7.7389   10.5318  -13.0493 C   0  0  0  0  0  0  0  0  0  0  0  0
   -6.9892   11.7416  -13.1218 C   0  0  0  0  0  0  0  0  0  0  0  0
   -7.8445    9.9757  -11.7834 C   0  0  3  0  0  0  0  0  0  0  0  0
   -7.2758   10.5697  -10.6136 C   0  0  0  0  0  0  0  0  0  0  0  0
   -7.6401    9.7111   -9.5254 C   0  0  0  0  0  0  0  0  0  0  0  0
   -8.3075    8.6850  -10.0132 N   0  0  0  0  0  0  0  0  0  0  0  0
   -8.4539    8.8245  -11.3160 N   0  0  0  0  0  0  0  0  0  0  0  0
   -7.3472    9.8680   -8.0446 C   0  0  0  0  0  0  0  0  0  0  0  0
   -5.5569   13.6094  -12.1739 C   0  0  0  0  0  0  0  0  0  0  0  0
   -5.9691   10.4796   -7.7443 C   0  0  0  0  0  0  0  0  0  0  0  0
   -5.8622   11.7497   -7.1624 C   0  0  0  0  0  0  0  0  0  0  0  0
   -4.6000   12.2988   -6.9070 C   0  0  0  0  0  0  0  0  0  0  0  0
   -3.4496   11.5829   -7.2293 C   0  0  0  0  0  0  0  0  0  0  0  0
   -3.5554   10.3089   -7.8035 C   0  0  0  0  0  0  0  0  0  0  0  0
   -4.8209    9.7667   -8.0554 C   0  0  0  0  0  0  0  0  0  0  0  0
   -2.0956   12.1660   -6.9654 C   0  0  0  0  0  0  0  0  0  0  0  0
   -1.7384   13.4130   -6.4683 C   0  0  0  0  0  0  0  0  0  0  0  0
   -0.4069   13.4502   -6.4129 N   0  0  0  0  0  0  0  0  0  0  0  0
    0.1813   12.3566   -6.8171 N   0  0  0  0  0  0  0  0  0  0  0  0
   -0.7988   11.5478   -7.1867 C   0  0  0  0  0  0  0  0  0  0  0  0
    0.4282   14.5550   -5.9664 C   0  0  0  0  0  0  0  0  0  0  0  0
   -4.7714   14.2106  -11.2027 N   0  0  0  0  0  0  0  0  0  0  0  0
   -4.2061   15.2849  -11.7862 C   0  0  0  0  0  0  0  0  0  0  0  0
   -4.6883   15.3268  -13.0997 C   0  0  0  0  0  0  0  0  0  0  0  0
   -5.5027   14.2765  -13.3098 N   0  0  0  0  0  0  0  0  0  0  0  0
   -4.5364   13.8232   -9.7989 C   0  0  0  0  0  0  0  0  0  0  0  0
   -7.2958   12.9399  -11.8223 H   0  0  0  0  0  0  0  0  0  0  0  0
   -6.1104   12.2275   -9.8498 H   0  0  0  0  0  0  0  0  0  0  0  0
   -8.1928   10.0800  -13.9189 H   0  0  0  0  0  0  0  0  0  0  0  0
   -6.8717   12.2251  -14.0803 H   0  0  0  0  0  0  0  0  0  0  0  0
   -6.9133    9.4148  -11.9517 H   0  0  0  0  0  0  0  0  0  0  0  0
   -8.0435    9.5766   -7.2721 H   0  0  0  0  0  0  0  0  0  0  0  0
   -6.7536   12.3051   -6.9109 H   0  0  0  0  0  0  0  0  0  0  0  0
   -4.5183   13.2784   -6.4597 H   0  0  0  0  0  0  0  0  0  0  0  0
   -2.6656    9.7487   -8.0502 H   0  0  0  0  0  0  0  0  0  0  0  0
   -4.9040    8.7842   -8.4961 H   0  0  0  0  0  0  0  0  0  0  0  0
   -2.4137   14.2051   -6.1803 H   0  0  0  0  0  0  0  0  0  0  0  0
   -0.6543   10.5597   -7.5981 H   0  0  0  0  0  0  0  0  0  0  0  0
    1.4877   14.2705   -6.0474 H   0  0  0  0  0  0  0  0  0  0  0  0
    0.2364   15.4369   -6.5953 H   0  0  0  0  0  0  0  0  0  0  0  0
    0.1917   14.7932   -4.9189 H   0  0  0  0  0  0  0  0  0  0  0  0
   -3.5156   15.9786  -11.3298 H   0  0  0  0  0  0  0  0  0  0  0  0
   -4.4447   16.0839  -13.8303 H   0  0  0  0  0  0  0  0  0  0  0  0
   -3.8494   14.5427   -9.3295 H   0  0  0  0  0  0  0  0  0  0  0  0
   -5.4922   13.8204   -9.2545 H   0  0  0  0  0  0  0  0  0  0  0  0
   -4.0925   12.8173   -9.7656 H   0  0  0  0  0  0  0  0  0  0  0  0
  1  2  1  0  0  0  0
  1  4  1  0  0  0  0
  1 11  1  0  0  0  0
  2  6  2  0  0  0  0
  3  4  2  0  0  0  0
  3  5  1  0  0  0  0
  5  6  1  0  0  0  0
  5  9  1  0  0  0  0
  6  7  1  0  0  0  0
  7  8  1  0  0  0  0
  7 10  2  3  0  0  0
  8  9  2  0  0  0  0
 10 12  1  0  0  0  0
 11 24  1  0  0  0  0
 11 27  2  0  0  0  0
 12 13  2  0  0  0  0
 12 17  1  0  0  0  0
 13 14  1  0  0  0  0
 14 15  2  0  0  0  0
 15 16  1  0  0  0  0
 15 18  1  0  0  0  0
 16 17  2  0  0  0  0
 18 19  2  0  0  0  0
 18 22  1  0  0  0  0
 19 20  1  0  0  0  0
 20 21  1  0  0  0  0
 20 23  1  0  0  0  0
 21 22  2  0  0  0  0
 24 25  1  0  0  0  0
 24 28  1  0  0  0  0
 25 26  2  0  0  0  0
 26 27  1  0  0  0  0
  1 29  1  0  0  0  0
  2 30  1  0  0  0  0
  3 31  1  0  0  0  0
  4 32  1  0  0  0  0
  5 33  1  0  0  0  0
 10 34  1  0  0  0  0
 13 35  1  0  0  0  0
 14 36  1  0  0  0  0
 16 37  1  0  0  0  0
 17 38  1  0  0  0  0
 19 39  1  0  0  0  0
 22 40  1  0  0  0  0
 23 41  1  0  0  0  0
 23 42  1  0  0  0  0
 23 43  1  0  0  0  0
 25 44  1  0  0  0  0
 26 45  1  0  0  0  0
 28 46  1  0  0  0  0
 28 47  1  0  0  0  0
 28 48  1  0  0  0  0
M  END
> <Name>
22

> <IC50[uM]>
0.032

$$$$
22
  -OEChem-05192314333D
 Structure written by MMmdl.
 48 52  0     1  0  0  0  0  0999 V2000
   -6.3943   12.3306  -11.9839 C   0  0  0  0  0  0  0  0  0  0  0  0
   -6.5449   11.7624  -10.7224 C   0  0  0  0  0  0  0  0  0  0  0  0
   -7.7389   10.5318  -13.0493 C   0  0  0  0  0  0  0  0  0  0  0  0
   -6.9892   11.7416  -13.1218 C   0  0  0  0  0  0  0  0  0  0  0  0
   -7.8445    9.9757  -11.7834 C   0  0  3  0  0  0  0  0  0  0  0  0
   -7.2758   10.5697  -10.6136 C   0  0  3  0  0  0  0  0  0  0  0  0
   -7.6401    9.7111   -9.5254 C   0  0  0  0  0  0  0  0  0  0  0  0
   -8.3075    8.6850  -10.0132 N   0  0  0  0  0  0  0  0  0  0  0  0
   -8.4539    8.8245  -11.3160 N   0  0  0  0  0  0  0  0  0  0  0  0
   -7.3472    9.8680   -8.0446 C   0  0  0  0  0  0  0  0  0  0  0  0
   -5.5569   13.6094  -12.1739 C   0  0  0  0  0  0  0  0  0  0  0  0
   -5.9691   10.4796   -7.7443 C   0  0  0  0  0  0  0  0  0  0  0  0
   -5.8622   11.7497   -7.1624 C   0  0  0  0  0  0  0  0  0  0  0  0
   -4.6000   12.2988   -6.9070 C   0  0  0  0  0  0  0  0  0  0  0  0
   -3.4496   11.5829   -7.2293 C   0  0  0  0  0  0  0  0  0  0  0  0
   -3.5554   10.3089   -7.8035 C   0  0  0  0  0  0  0  0  0  0  0  0
   -4.8209    9.7667   -8.0554 C   0  0  0  0  0  0  0  0  0  0  0  0
   -2.0956   12.1660   -6.9654 C   0  0  0  0  0  0  0  0  0  0  0  0
   -1.7384   13.4130   -6.4683 C   0  0  0  0  0  0  0  0  0  0  0  0
   -0.4069   13.4502   -6.4129 N   0  0  0  0  0  0  0  0  0  0  0  0
    0.1813   12.3566   -6.8171 N   0  0  0  0  0  0  0  0  0  0  0  0
   -0.7988   11.5478   -7.1867 C   0  0  0  0  0  0  0  0  0  0  0  0
    0.4282   14.5550   -5.9664 C   0  0  0  0  0  0  0  0  0  0  0  0
   -4.7714   14.2106  -11.2027 N   0  0  0  0  0  0  0  0  0  0  0  0
   -4.2061   15.2849  -11.7862 C   0  0  0  0  0  0  0  0  0  0  0  0
   -4.6883   15.3268  -13.0997 C   0  0  0  0  0  0  0  0  0  0  0  0
   -5.5027   14.2765  -13.3098 N   0  0  0  0  0  0  0  0  0  0  0  0
   -4.5364   13.8232   -9.7989 C   0  0  0  0  0  0  0  0  0  0  0  0
   -6.1104   12.2275   -9.8498 H   0  0  0  0  0  0  0  0  0  0  0  0
   -8.1928   10.0800  -13.9189 H   0  0  0  0  0  0  0  0  0  0  0  0
   -6.8717   12.2251  -14.0803 H   0  0  0  0  0  0  0  0  0  0  0  0
   -6.9133    9.4148  -11.9517 H   0  0  0  0  0  0  0  0  0  0  0  0
   -6.3539    9.9891  -10.7651 H   0  0  0  0  0  0  0  0  0  0  0  0
   -8.0435    9.5766   -7.2721 H   0  0  0  0  0  0  0  0  0  0  0  0
   -6.7536   12.3051   -6.9109 H   0  0  0  0  0  0  0  0  0  0  0  0
   -4.5183   13.2784   -6.4597 H   0  0  0  0  0  0  0  0  0  0  0  0
   -2.6656    9.7487   -8.0502 H   0  0  0  0  0  0  0  0  0  0  0  0
   -4.9040    8.7842   -8.4961 H   0  0  0  0  0  0  0  0  0  0  0  0
   -2.4137   14.2051   -6.1803 H   0  0  0  0  0  0  0  0  0  0  0  0
   -0.6543   10.5597   -7.5981 H   0  0  0  0  0  0  0  0  0  0  0  0
    1.4877   14.2705   -6.0474 H   0  0  0  0  0  0  0  0  0  0  0  0
    0.2364   15.4369   -6.5953 H   0  0  0  0  0  0  0  0  0  0  0  0
    0.1917   14.7932   -4.9189 H   0  0  0  0  0  0  0  0  0  0  0  0
   -3.5156   15.9786  -11.3298 H   0  0  0  0  0  0  0  0  0  0  0  0
   -4.4447   16.0839  -13.8303 H   0  0  0  0  0  0  0  0  0  0  0  0
   -3.8494   14.5427   -9.3295 H   0  0  0  0  0  0  0  0  0  0  0  0
   -5.4922   13.8204   -9.2545 H   0  0  0  0  0  0  0  0  0  0  0  0
   -4.0925   12.8173   -9.7656 H   0  0  0  0  0  0  0  0  0  0  0  0
  1  2  2  0  0  0  0
  1  4  1  0  0  0  0
  1 11  1  0  0  0  0
  2  6  1  0  0  0  0
  3  4  2  0  0  0  0
  3  5  1  0  0  0  0
  5  6  1  0  0  0  0
  5  9  1  0  0  0  0
  6  7  1  0  0  0  0
  7  8  1  0  0  0  0
  7 10  2  3  0  0  0
  8  9  2  0  0  0  0
 10 12  1  0  0  0  0
 11 24  1  0  0  0  0
 11 27  2  0  0  0  0
 12 13  2  0  0  0  0
 12 17  1  0  0  0  0
 13 14  1  0  0  0  0
 14 15  2  0  0  0  0
 15 16  1  0  0  0  0
 15 18  1  0  0  0  0
 16 17  2  0  0  0  0
 18 19  2  0  0  0  0
 18 22  1  0  0  0  0
 19 20  1  0  0  0  0
 20 21  1  0  0  0  0
 20 23  1  0  0  0  0
 21 22  2  0  0  0  0
 24 25  1  0  0  0  0
 24 28  1  0  0  0  0
 25 26  2  0  0  0  0
 26 27  1  0  0  0  0
  2 29  1  0  0  0  0
  3 30  1  0  0  0  0
  4 31  1  0  0  0  0
  5 32  1  0  0  0  0
  6 33  1  0  0  0  0
 10 34  1  0  0  0  0
 13 35  1  0  0  0  0
 14 36  1  0  0  0  0
 16 37  1  0  0  0  0
 17 38  1  0  0  0  0
 19 39  1  0  0  0  0
 22 40  1  0  0  0  0
 23 41  1  0  0  0  0
 23 42  1  0  0  0  0
 23 43  1  0  0  0  0
 25 44  1  0  0  0  0
 26 45  1  0  0  0  0
 28 46  1  0  0  0  0
 28 47  1  0  0  0  0
 28 48  1  0  0  0  0
M  END
> <Name>
22

> <IC50[uM]>
0.032

$$$$
22
  -OEChem-05192314333D
 Structure written by MMmdl.
 48 52  0     1  0  0  0  0  0999 V2000
   -6.3943   12.3306  -11.9839 C   0  0  0  0  0  0  0  0  0  0  0  0
   -6.5449   11.7624  -10.7224 C   0  0  0  0  0  0  0  0  0  0  0  0
   -7.7389   10.5318  -13.0493 C   0  0  0  0  0  0  0  0  0  0  0  0
   -6.9892   11.7416  -13.1218 C   0  0  0  0  0  0  0  0  0  0  0  0
   -7.8445    9.9757  -11.7834 C   0  0  3  0  0  0  0  0  0  0  0  0
   -7.2758   10.5697  -10.6136 C   0  0  0  0  0  0  0  0  0  0  0  0
   -7.6401    9.7111   -9.5254 C   0  0  0  0  0  0  0  0  0  0  0  0
   -8.3075    8.6850  -10.0132 N   0  0  0  0  0  0  0  0  0  0  0  0
   -8.4539    8.8245  -11.3160 N   0  0  0  0  0  0  0  0  0  0  0  0
   -7.3472    9.8680   -8.0446 C   0  0  0  0  0  0  0  0  0  0  0  0
   -5.5569   13.6094  -12.1739 C   0  0  0  0  0  0  0  0  0  0  0  0
   -5.9691   10.4796   -7.7443 C   0  0  0  0  0  0  0  0  0  0  0  0
   -5.8622   11.7497   -7.1624 C   0  0  0  0  0  0  0  0  0  0  0  0
   -4.6000   12.2988   -6.9070 C   0  0  0  0  0  0  0  0  0  0  0  0
   -3.4496   11.5829   -7.2293 C   0  0  0  0  0  0  0  0  0  0  0  0
   -3.5554   10.3089   -7.8035 C   0  0  0  0  0  0  0  0  0  0  0  0
   -4.8209    9.7667   -8.0554 C   0  0  0  0  0  0  0  0  0  0  0  0
   -2.0956   12.1660   -6.9654 C   0  0  0  0  0  0  0  0  0  0  0  0
   -1.7384   13.4130   -6.4683 C   0  0  0  0  0  0  0  0  0  0  0  0
   -0.4069   13.4502   -6.4129 N   0  0  0  0  0  0  0  0  0  0  0  0
    0.1813   12.3566   -6.8171 N   0  0  0  0  0  0  0  0  0  0  0  0
   -0.7988   11.5478   -7.1867 C   0  0  0  0  0  0  0  0  0  0  0  0
    0.4282   14.5550   -5.9664 C   0  0  0  0  0  0  0  0  0  0  0  0
   -4.7714   14.2106  -11.2027 N   0  0  0  0  0  0  0  0  0  0  0  0
   -4.2061   15.2849  -11.7862 C   0  0  0  0  0  0  0  0  0  0  0  0
   -4.6883   15.3268  -13.0997 C   0  0  0  0  0  0  0  0  0  0  0  0
   -5.5027   14.2765  -13.3098 N   0  0  0  0  0  0  0  0  0  0  0  0
   -4.5364   13.8232   -9.7989 C   0  0  0  0  0  0  0  0  0  0  0  0
   -6.1104   12.2275   -9.8498 H   0  0  0  0  0  0  0  0  0  0  0  0
   -8.7553   10.7392  -13.4153 H   0  0  0  0  0  0  0  0  0  0  0  0
   -7.2563    9.7930  -13.7060 H   0  0  0  0  0  0  0  0  0  0  0  0
   -6.8717   12.2251  -14.0803 H   0  0  0  0  0  0  0  0  0  0  0  0
   -6.9133    9.4148  -11.9517 H   0  0  0  0  0  0  0  0  0  0  0  0
   -8.0435    9.5766   -7.2721 H   0  0  0  0  0  0  0  0  0  0  0  0
   -6.7536   12.3051   -6.9109 H   0  0  0  0  0  0  0  0  0  0  0  0
   -4.5183   13.2784   -6.4597 H   0  0  0  0  0  0  0  0  0  0  0  0
   -2.6656    9.7487   -8.0502 H   0  0  0  0  0  0  0  0  0  0  0  0
   -4.9040    8.7842   -8.4961 H   0  0  0  0  0  0  0  0  0  0  0  0
   -2.4137   14.2051   -6.1803 H   0  0  0  0  0  0  0  0  0  0  0  0
   -0.6543   10.5597   -7.5981 H   0  0  0  0  0  0  0  0  0  0  0  0
    1.4877   14.2705   -6.0474 H   0  0  0  0  0  0  0  0  0  0  0  0
    0.2364   15.4369   -6.5953 H   0  0  0  0  0  0  0  0  0  0  0  0
    0.1917   14.7932   -4.9189 H   0  0  0  0  0  0  0  0  0  0  0  0
   -3.5156   15.9786  -11.3298 H   0  0  0  0  0  0  0  0  0  0  0  0
   -4.4447   16.0839  -13.8303 H   0  0  0  0  0  0  0  0  0  0  0  0
   -3.8494   14.5427   -9.3295 H   0  0  0  0  0  0  0  0  0  0  0  0
   -5.4922   13.8204   -9.2545 H   0  0  0  0  0  0  0  0  0  0  0  0
   -4.0925   12.8173   -9.7656 H   0  0  0  0  0  0  0  0  0  0  0  0
  1  2  1  0  0  0  0
  1  4  2  0  0  0  0
  1 11  1  0  0  0  0
  2  6  2  0  0  0  0
  3  4  1  0  0  0  0
  3  5  1  0  0  0  0
  5  6  1  0  0  0  0
  5  9  1  0  0  0  0
  6  7  1  0  0  0  0
  7  8  1  0  0  0  0
  7 10  2  3  0  0  0
  8  9  2  0  0  0  0
 10 12  1  0  0  0  0
 11 24  1  0  0  0  0
 11 27  2  0  0  0  0
 12 13  2  0  0  0  0
 12 17  1  0  0  0  0
 13 14  1  0  0  0  0
 14 15  2  0  0  0  0
 15 16  1  0  0  0  0
 15 18  1  0  0  0  0
 16 17  2  0  0  0  0
 18 19  2  0  0  0  0
 18 22  1  0  0  0  0
 19 20  1  0  0  0  0
 20 21  1  0  0  0  0
 20 23  1  0  0  0  0
 21 22  2  0  0  0  0
 24 25  1  0  0  0  0
 24 28  1  0  0  0  0
 25 26  2  0  0  0  0
 26 27  1  0  0  0  0
  2 29  1  0  0  0  0
  3 30  1  0  0  0  0
  3 31  1  0  0  0  0
  4 32  1  0  0  0  0
  5 33  1  0  0  0  0
 10 34  1  0  0  0  0
 13 35  1  0  0  0  0
 14 36  1  0  0  0  0
 16 37  1  0  0  0  0
 17 38  1  0  0  0  0
 19 39  1  0  0  0  0
 22 40  1  0  0  0  0
 23 41  1  0  0  0  0
 23 42  1  0  0  0  0
 23 43  1  0  0  0  0
 25 44  1  0  0  0  0
 26 45  1  0  0  0  0
 28 46  1  0  0  0  0
 28 47  1  0  0  0  0
 28 48  1  0  0  0  0
M  END
> <Name>
22

> <IC50[uM]>
0.032

$$$$
22
  -OEChem-05192314333D
 Structure written by MMmdl.
 48 52  0     1  0  0  0  0  0999 V2000
   -6.3943   12.3306  -11.9839 C   0  0  0  0  0  0  0  0  0  0  0  0
   -6.5449   11.7624  -10.7224 C   0  0  0  0  0  0  0  0  0  0  0  0
   -7.7389   10.5318  -13.0493 C   0  0  0  0  0  0  0  0  0  0  0  0
   -6.9892   11.7416  -13.1218 C   0  0  0  0  0  0  0  0  0  0  0  0
   -7.8445    9.9757  -11.7834 C   0  0  0  0  0  0  0  0  0  0  0  0
   -7.2758   10.5697  -10.6136 C   0  0  0  0  0  0  0  0  0  0  0  0
   -7.6401    9.7111   -9.5254 C   0  0  0  0  0  0  0  0  0  0  0  0
   -8.3075    8.6850  -10.0132 N   0  0  0  0  0  0  0  0  0  0  0  0
   -8.4539    8.8245  -11.3160 N   0  0  0  0  0  0  0  0  0  0  0  0
   -7.3472    9.8680   -8.0446 C   0  0  0  0  0  0  0  0  0  0  0  0
   -5.5569   13.6094  -12.1739 C   0  0  0  0  0  0  0  0  0  0  0  0
   -5.9691   10.4796   -7.7443 C   0  0  0  0  0  0  0  0  0  0  0  0
   -5.8622   11.7497   -7.1624 C   0  0  0  0  0  0  0  0  0  0  0  0
   -4.6000   12.2988   -6.9070 C   0  0  0  0  0  0  0  0  0  0  0  0
   -3.4496   11.5829   -7.2293 C   0  0  3  0  0  0  0  0  0  0  0  0
   -3.5554   10.3089   -7.8035 C   0  0  0  0  0  0  0  0  0  0  0  0
   -4.8209    9.7667   -8.0554 C   0  0  0  0  0  0  0  0  0  0  0  0
   -2.0956   12.1660   -6.9654 C   0  0  0  0  0  0  0  0  0  0  0  0
   -1.7384   13.4130   -6.4683 C   0  0  0  0  0  0  0  0  0  0  0  0
   -0.4069   13.4502   -6.4129 N   0  0  0  0  0  0  0  0  0  0  0  0
    0.1813   12.3566   -6.8171 N   0  0  0  0  0  0  0  0  0  0  0  0
   -0.7988   11.5478   -7.1867 C   0  0  0  0  0  0  0  0  0  0  0  0
    0.4282   14.5550   -5.9664 C   0  0  0  0  0  0  0  0  0  0  0  0
   -4.7714   14.2106  -11.2027 N   0  0  0  0  0  0  0  0  0  0  0  0
   -4.2061   15.2849  -11.7862 C   0  0  0  0  0  0  0  0  0  0  0  0
   -4.6883   15.3268  -13.0997 C   0  0  0  0  0  0  0  0  0  0  0  0
   -5.5027   14.2765  -13.3098 N   0  0  0  0  0  0  0  0  0  0  0  0
   -4.5364   13.8232   -9.7989 C   0  0  0  0  0  0  0  0  0  0  0  0
   -6.1104   12.2275   -9.8498 H   0  0  0  0  0  0  0  0  0  0  0  0
   -8.1928   10.0800  -13.9189 H   0  0  0  0  0  0  0  0  0  0  0  0
   -6.8717   12.2251  -14.0803 H   0  0  0  0  0  0  0  0  0  0  0  0
   -8.0435    9.5766   -7.2721 H   0  0  0  0  0  0  0  0  0  0  0  0
   -6.7536   12.3051   -6.9109 H   0  0  0  0  0  0  0  0  0  0  0  0
   -4.5488   13.2477   -7.4610 H   0  0  0  0  0  0  0  0  0  0  0  0
   -4.5551   12.5020   -5.8269 H   0  0  0  0  0  0  0  0  0  0  0  0
   -3.4490   12.0350   -8.2321 H   0  0  0  0  0  0  0  0  0  0  0  0
   -2.6656    9.7487   -8.0502 H   0  0  0  0  0  0  0  0  0  0  0  0
   -4.9040    8.7842   -8.4961 H   0  0  0  0  0  0  0  0  0  0  0  0
   -2.4137   14.2051   -6.1803 H   0  0  0  0  0  0  0  0  0  0  0  0
   -0.6543   10.5597   -7.5981 H   0  0  0  0  0  0  0  0  0  0  0  0
    1.4877   14.2705   -6.0474 H   0  0  0  0  0  0  0  0  0  0  0  0
    0.2364   15.4369   -6.5953 H   0  0  0  0  0  0  0  0  0  0  0  0
    0.1917   14.7932   -4.9189 H   0  0  0  0  0  0  0  0  0  0  0  0
   -3.5156   15.9786  -11.3298 H   0  0  0  0  0  0  0  0  0  0  0  0
   -4.4447   16.0839  -13.8303 H   0  0  0  0  0  0  0  0  0  0  0  0
   -3.8494   14.5427   -9.3295 H   0  0  0  0  0  0  0  0  0  0  0  0
   -5.4922   13.8204   -9.2545 H   0  0  0  0  0  0  0  0  0  0  0  0
   -4.0925   12.8173   -9.7656 H   0  0  0  0  0  0  0  0  0  0  0  0
  1  2  2  0  0  0  0
  1  4  1  0  0  0  0
  1 11  1  0  0  0  0
  2  6  1  0  0  0  0
  3  4  2  0  0  0  0
  3  5  1  0  0  0  0
  5  6  2  0  0  0  0
  5  9  1  0  0  0  0
  6  7  1  0  0  0  0
  7  8  1  0  0  0  0
  7 10  2  3  0  0  0
  8  9  2  0  0  0  0
 10 12  1  0  0  0  0
 11 24  1  0  0  0  0
 11 27  2  0  0  0  0
 12 13  2  0  0  0  0
 12 17  1  0  0  0  0
 13 14  1  0  0  0  0
 14 15  1  0  0  0  0
 15 16  1  0  0  0  0
 15 18  1  0  0  0  0
 16 17  2  0  0  0  0
 18 19  2  0  0  0  0
 18 22  1  0  0  0  0
 19 20  1  0  0  0  0
 20 21  1  0  0  0  0
 20 23  1  0  0  0  0
 21 22  2  0  0  0  0
 24 25  1  0  0  0  0
 24 28  1  0  0  0  0
 25 26  2  0  0  0  0
 26 27  1  0  0  0  0
  2 29  1  0  0  0  0
  3 30  1  0  0  0  0
  4 31  1  0  0  0  0
 10 32  1  0  0  0  0
 13 33  1  0  0  0  0
 14 34  1  0  0  0  0
 14 35  1  0  0  0  0
 15 36  1  0  0  0  0
 16 37  1  0  0  0  0
 17 38  1  0  0  0  0
 19 39  1  0  0  0  0
 22 40  1  0  0  0  0
 23 41  1  0  0  0  0
 23 42  1  0  0  0  0
 23 43  1  0  0  0  0
 25 44  1  0  0  0  0
 26 45  1  0  0  0  0
 28 46  1  0  0  0  0
 28 47  1  0  0  0  0
 28 48  1  0  0  0  0
M  END
> <Name>
22

> <IC50[uM]>
0.032

$$$$
22
  -OEChem-05192314333D
 Structure written by MMmdl.
 48 52  0     1  0  0  0  0  0999 V2000
   -6.3943   12.3306  -11.9839 C   0  0  3  0  0  0  0  0  0  0  0  0
   -6.5449   11.7624  -10.7224 C   0  0  0  0  0  0  0  0  0  0  0  0
   -7.7389   10.5318  -13.0493 C   0  0  0  0  0  0  0  0  0  0  0  0
   -6.9892   11.7416  -13.1218 C   0  0  0  0  0  0  0  0  0  0  0  0
   -7.8445    9.9757  -11.7834 C   0  0  0  0  0  0  0  0  0  0  0  0
   -7.2758   10.5697  -10.6136 C   0  0  0  0  0  0  0  0  0  0  0  0
   -7.6401    9.7111   -9.5254 C   0  0  0  0  0  0  0  0  0  0  0  0
   -8.3075    8.6850  -10.0132 N   0  0  0  0  0  0  0  0  0  0  0  0
   -8.4539    8.8245  -11.3160 N   0  0  0  0  0  0  0  0  0  0  0  0
   -7.3472    9.8680   -8.0446 C   0  0  0  0  0  0  0  0  0  0  0  0
   -5.5569   13.6094  -12.1739 C   0  0  0  0  0  0  0  0  0  0  0  0
   -5.9691   10.4796   -7.7443 C   0  0  0  0  0  0  0  0  0  0  0  0
   -5.8622   11.7497   -7.1624 C   0  0  0  0  0  0  0  0  0  0  0  0
   -4.6000   12.2988   -6.9070 C   0  0  0  0  0  0  0  0  0  0  0  0
   -3.4496   11.5829   -7.2293 C   0  0  0  0  0  0  0  0  0  0  0  0
   -3.5554   10.3089   -7.8035 C   0  0  0  0  0  0  0  0  0  0  0  0
   -4.8209    9.7667   -8.0554 C   0  0  0  0  0  0  0  0  0  0  0  0
   -2.0956   12.1660   -6.9654 C   0  0  0  0  0  0  0  0  0  0  0  0
   -1.7384   13.4130   -6.4683 C   0  0  0  0  0  0  0  0  0  0  0  0
   -0.4069   13.4502   -6.4129 N   0  0  0  0  0  0  0  0  0  0  0  0
    0.1813   12.3566   -6.8171 N   0  0  0  0  0  0  0  0  0  0  0  0
   -0.7988   11.5478   -7.1867 C   0  0  0  0  0  0  0  0  0  0  0  0
    0.4282   14.5550   -5.9664 C   0  0  0  0  0  0  0  0  0  0  0  0
   -4.7714   14.2106  -11.2027 N   0  0  0  0  0  0  0  0  0  0  0  0
   -4.2061   15.2849  -11.7862 C   0  0  0  0  0  0  0  0  0  0  0  0
   -4.6883   15.3268  -13.0997 C   0  0  0  0  0  0  0  0  0  0  0  0
   -5.5027   14.2765  -13.3098 N   0  0  0  0  0  0  0  0  0  0  0  0
   -4.5364   13.8232   -9.7989 C   0  0  0  0  0  0  0  0  0  0  0  0
   -7.2958   12.9399  -11.8223 H   0  0  0  0  0  0  0  0  0  0  0  0
   -6.1104   12.2275   -9.8498 H   0  0  0  0  0  0  0  0  0  0  0  0
   -8.1928   10.0800  -13.9189 H   0  0  0  0  0  0  0  0  0  0  0  0
   -7.6693   12.4990  -13.5386 H   0  0  0  0  0  0  0  0  0  0  0  0
   -6.1709   11.5529  -13.8323 H   0  0  0  0  0  0  0  0  0  0  0  0
   -8.0435    9.5766   -7.2721 H   0  0  0  0  0  0  0  0  0  0  0  0
   -6.7536   12.3051   -6.9109 H   0  0  0  0  0  0  0  0  0  0  0  0
   -4.5183   13.2784   -6.4597 H   0  0  0  0  0  0  0  0  0  0  0  0
   -2.6656    9.7487   -8.0502 H   0  0  0  0  0  0  0  0  0  0  0  0
   -4.9040    8.7842   -8.4961 H   0  0  0  0  0  0  0  0  0  0  0  0
   -2.4137   14.2051   -6.1803 H   0  0  0  0  0  0  0  0  0  0  0  0
   -0.6543   10.5597   -7.5981 H   0  0  0  0  0  0  0  0  0  0  0  0
    1.4877   14.2705   -6.0474 H   0  0  0  0  0  0  0  0  0  0  0  0
    0.2364   15.4369   -6.5953 H   0  0  0  0  0  0  0  0  0  0  0  0
    0.1917   14.7932   -4.9189 H   0  0  0  0  0  0  0  0  0  0  0  0
   -3.5156   15.9786  -11.3298 H   0  0  0  0  0  0  0  0  0  0  0  0
   -4.4447   16.0839  -13.8303 H   0  0  0  0  0  0  0  0  0  0  0  0
   -3.8494   14.5427   -9.3295 H   0  0  0  0  0  0  0  0  0  0  0  0
   -5.4922   13.8204   -9.2545 H   0  0  0  0  0  0  0  0  0  0  0  0
   -4.0925   12.8173   -9.7656 H   0  0  0  0  0  0  0  0  0  0  0  0
  1  2  1  0  0  0  0
  1  4  1  0  0  0  0
  1 11  1  0  0  0  0
  2  6  2  0  0  0  0
  3  4  1  0  0  0  0
  3  5  2  0  0  0  0
  5  6  1  0  0  0  0
  5  9  1  0  0  0  0
  6  7  1  0  0  0  0
  7  8  1  0  0  0  0
  7 10  2  3  0  0  0
  8  9  2  0  0  0  0
 10 12  1  0  0  0  0
 11 24  1  0  0  0  0
 11 27  2  0  0  0  0
 12 13  2  0  0  0  0
 12 17  1  0  0  0  0
 13 14  1  0  0  0  0
 14 15  2  0  0  0  0
 15 16  1  0  0  0  0
 15 18  1  0  0  0  0
 16 17  2  0  0  0  0
 18 19  2  0  0  0  0
 18 22  1  0  0  0  0
 19 20  1  0  0  0  0
 20 21  1  0  0  0  0
 20 23  1  0  0  0  0
 21 22  2  0  0  0  0
 24 25  1  0  0  0  0
 24 28  1  0  0  0  0
 25 26  2  0  0  0  0
 26 27  1  0  0  0  0
  1 29  1  0  0  0  0
  2 30  1  0  0  0  0
  3 31  1  0  0  0  0
  4 32  1  0  0  0  0
  4 33  1  0  0  0  0
 10 34  1  0  0  0  0
 13 35  1  0  0  0  0
 14 36  1  0  0  0  0
 16 37  1  0  0  0  0
 17 38  1  0  0  0  0
 19 39  1  0  0  0  0
 22 40  1  0  0  0  0
 23 41  1  0  0  0  0
 23 42  1  0  0  0  0
 23 43  1  0  0  0  0
 25 44  1  0  0  0  0
 26 45  1  0  0  0  0
 28 46  1  0  0  0  0
 28 47  1  0  0  0  0
 28 48  1  0  0  0  0
M  END
> <Name>
22

> <IC50[uM]>
0.032

$$$$
22
  -OEChem-05192314333D
 Structure written by MMmdl.
 48 52  0     1  0  0  0  0  0999 V2000
   -6.3943   12.3306  -11.9839 C   0  0  0  0  0  0  0  0  0  0  0  0
   -6.5449   11.7624  -10.7224 C   0  0  0  0  0  0  0  0  0  0  0  0
   -7.7389   10.5318  -13.0493 C   0  0  0  0  0  0  0  0  0  0  0  0
   -6.9892   11.7416  -13.1218 C   0  0  0  0  0  0  0  0  0  0  0  0
   -7.8445    9.9757  -11.7834 C   0  0  0  0  0  0  0  0  0  0  0  0
   -7.2758   10.5697  -10.6136 C   0  0  3  0  0  0  0  0  0  0  0  0
   -7.6401    9.7111   -9.5254 C   0  0  0  0  0  0  0  0  0  0  0  0
   -8.3075    8.6850  -10.0132 N   0  0  0  0  0  0  0  0  0  0  0  0
   -8.4539    8.8245  -11.3160 N   0  0  0  0  0  0  0  0  0  0  0  0
   -7.3472    9.8680   -8.0446 C   0  0  0  0  0  0  0  0  0  0  0  0
   -5.5569   13.6094  -12.1739 C   0  0  0  0  0  0  0  0  0  0  0  0
   -5.9691   10.4796   -7.7443 C   0  0  0  0  0  0  0  0  0  0  0  0
   -5.8622   11.7497   -7.1624 C   0  0  0  0  0  0  0  0  0  0  0  0
   -4.6000   12.2988   -6.9070 C   0  0  0  0  0  0  0  0  0  0  0  0
   -3.4496   11.5829   -7.2293 C   0  0  0  0  0  0  0  0  0  0  0  0
   -3.5554   10.3089   -7.8035 C   0  0  0  0  0  0  0  0  0  0  0  0
   -4.8209    9.7667   -8.0554 C   0  0  0  0  0  0  0  0  0  0  0  0
   -2.0956   12.1660   -6.9654 C   0  0  0  0  0  0  0  0  0  0  0  0
   -1.7384   13.4130   -6.4683 C   0  0  0  0  0  0  0  0  0  0  0  0
   -0.4069   13.4502   -6.4129 N   0  0  0  0  0  0  0  0  0  0  0  0
    0.1813   12.3566   -6.8171 N   0  0  0  0  0  0  0  0  0  0  0  0
   -0.7988   11.5478   -7.1867 C   0  0  0  0  0  0  0  0  0  0  0  0
    0.4282   14.5550   -5.9664 C   0  0  0  0  0  0  0  0  0  0  0  0
   -4.7714   14.2106  -11.2027 N   0  0  0  0  0  0  0  0  0  0  0  0
   -4.2061   15.2849  -11.7862 C   0  0  0  0  0  0  0  0  0  0  0  0
   -4.6883   15.3268  -13.0997 C   0  0  0  0  0  0  0  0  0  0  0  0
   -5.5027   14.2765  -13.3098 N   0  0  0  0  0  0  0  0  0  0  0  0
   -4.5364   13.8232   -9.7989 C   0  0  0  0  0  0  0  0  0  0  0  0
   -6.1104   12.2275   -9.8498 H   0  0  0  0  0  0  0  0  0  0  0  0
   -8.1928   10.0800  -13.9189 H   0  0  0  0  0  0  0  0  0  0  0  0
   -7.6693   12.4990  -13.5386 H   0  0  0  0  0  0  0  0  0  0  0  0
   -6.1709   11.5529  -13.8323 H   0  0  0  0  0  0  0  0  0  0  0  0
   -6.3539    9.9891  -10.7651 H   0  0  0  0  0  0  0  0  0  0  0  0
   -8.0435    9.5766   -7.2721 H   0  0  0  0  0  0  0  0  0  0  0  0
   -6.7536   12.3051   -6.9109 H   0  0  0  0  0  0  0  0  0  0  0  0
   -4.5183   13.2784   -6.4597 H   0  0  0  0  0  0  0  0  0  0  0  0
   -2.6656    9.7487   -8.0502 H   0  0  0  0  0  0  0  0  0  0  0  0
   -4.9040    8.7842   -8.4961 H   0  0  0  0  0  0  0  0  0  0  0  0
   -2.4137   14.2051   -6.1803 H   0  0  0  0  0  0  0  0  0  0  0  0
   -0.6543   10.5597   -7.5981 H   0  0  0  0  0  0  0  0  0  0  0  0
    1.4877   14.2705   -6.0474 H   0  0  0  0  0  0  0  0  0  0  0  0
    0.2364   15.4369   -6.5953 H   0  0  0  0  0  0  0  0  0  0  0  0
    0.1917   14.7932   -4.9189 H   0  0  0  0  0  0  0  0  0  0  0  0
   -3.5156   15.9786  -11.3298 H   0  0  0  0  0  0  0  0  0  0  0  0
   -4.4447   16.0839  -13.8303 H   0  0  0  0  0  0  0  0  0  0  0  0
   -3.8494   14.5427   -9.3295 H   0  0  0  0  0  0  0  0  0  0  0  0
   -5.4922   13.8204   -9.2545 H   0  0  0  0  0  0  0  0  0  0  0  0
   -4.0925   12.8173   -9.7656 H   0  0  0  0  0  0  0  0  0  0  0  0
  1  2  2  0  0  0  0
  1  4  1  0  0  0  0
  1 11  1  0  0  0  0
  2  6  1  0  0  0  0
  3  4  1  0  0  0  0
  3  5  2  0  0  0  0
  5  6  1  0  0  0  0
  5  9  1  0  0  0  0
  6  7  1  0  0  0  0
  7  8  1  0  0  0  0
  7 10  2  3  0  0  0
  8  9  2  0  0  0  0
 10 12  1  0  0  0  0
 11 24  1  0  0  0  0
 11 27  2  0  0  0  0
 12 13  2  0  0  0  0
 12 17  1  0  0  0  0
 13 14  1  0  0  0  0
 14 15  2  0  0  0  0
 15 16  1  0  0  0  0
 15 18  1  0  0  0  0
 16 17  2  0  0  0  0
 18 19  2  0  0  0  0
 18 22  1  0  0  0  0
 19 20  1  0  0  0  0
 20 21  1  0  0  0  0
 20 23  1  0  0  0  0
 21 22  2  0  0  0  0
 24 25  1  0  0  0  0
 24 28  1  0  0  0  0
 25 26  2  0  0  0  0
 26 27  1  0  0  0  0
  2 29  1  0  0  0  0
  3 30  1  0  0  0  0
  4 31  1  0  0  0  0
  4 32  1  0  0  0  0
  6 33  1  0  0  0  0
 10 34  1  0  0  0  0
 13 35  1  0  0  0  0
 14 36  1  0  0  0  0
 16 37  1  0  0  0  0
 17 38  1  0  0  0  0
 19 39  1  0  0  0  0
 22 40  1  0  0  0  0
 23 41  1  0  0  0  0
 23 42  1  0  0  0  0
 23 43  1  0  0  0  0
 25 44  1  0  0  0  0
 26 45  1  0  0  0  0
 28 46  1  0  0  0  0
 28 47  1  0  0  0  0
 28 48  1  0  0  0  0
M  END
> <Name>
22

> <IC50[uM]>
0.032

$$$$
22
  -OEChem-05192314333D
 Structure written by MMmdl.
 48 52  0     0  0  0  0  0  0999 V2000
   -6.3943   12.3306  -11.9839 C   0  0  0  0  0  0  0  0  0  0  0  0
   -6.5449   11.7624  -10.7224 C   0  0  0  0  0  0  0  0  0  0  0  0
   -7.7389   10.5318  -13.0493 C   0  0  0  0  0  0  0  0  0  0  0  0
   -6.9892   11.7416  -13.1218 C   0  0  0  0  0  0  0  0  0  0  0  0
   -7.8445    9.9757  -11.7834 C   0  0  0  0  0  0  0  0  0  0  0  0
   -7.2758   10.5697  -10.6136 C   0  0  0  0  0  0  0  0  0  0  0  0
   -7.6401    9.7111   -9.5254 C   0  0  0  0  0  0  0  0  0  0  0  0
   -8.3075    8.6850  -10.0132 N   0  0  0  0  0  0  0  0  0  0  0  0
   -8.4539    8.8245  -11.3160 N   0  0  0  0  0  0  0  0  0  0  0  0
   -7.3472    9.8680   -8.0446 C   0  0  0  0  0  0  0  0  0  0  0  0
   -5.5569   13.6094  -12.1739 C   0  0  0  0  0  0  0  0  0  0  0  0
   -5.9691   10.4796   -7.7443 C   0  0  0  0  0  0  0  0  0  0  0  0
   -5.8622   11.7497   -7.1624 C   0  0  0  0  0  0  0  0  0  0  0  0
   -4.6000   12.2988   -6.9070 C   0  0  0  0  0  0  0  0  0  0  0  0
   -3.4496   11.5829   -7.2293 C   0  0  0  0  0  0  0  0  0  0  0  0
   -3.5554   10.3089   -7.8035 C   0  0  0  0  0  0  0  0  0  0  0  0
   -4.8209    9.7667   -8.0554 C   0  0  0  0  0  0  0  0  0  0  0  0
   -2.0956   12.1660   -6.9654 C   0  0  0  0  0  0  0  0  0  0  0  0
   -1.7384   13.4130   -6.4683 C   0  0  0  0  0  0  0  0  0  0  0  0
   -0.4069   13.4502   -6.4129 N   0  0  0  0  0  0  0  0  0  0  0  0
    0.1813   12.3566   -6.8171 N   0  0  0  0  0  0  0  0  0  0  0  0
   -0.7988   11.5478   -7.1867 C   0  0  0  0  0  0  0  0  0  0  0  0
    0.4282   14.5550   -5.9664 C   0  0  0  0  0  0  0  0  0  0  0  0
   -4.7714   14.2106  -11.2027 N   0  0  0  0  0  0  0  0  0  0  0  0
   -4.2061   15.2849  -11.7862 C   0  0  0  0  0  0  0  0  0  0  0  0
   -4.6883   15.3268  -13.0997 C   0  0  0  0  0  0  0  0  0  0  0  0
   -5.5027   14.2765  -13.3098 N   0  0  0  0  0  0  0  0  0  0  0  0
   -4.5364   13.8232   -9.7989 C   0  0  0  0  0  0  0  0  0  0  0  0
   -6.1104   12.2275   -9.8498 H   0  0  0  0  0  0  0  0  0  0  0  0
   -8.7553   10.7392  -13.4153 H   0  0  0  0  0  0  0  0  0  0  0  0
   -7.2563    9.7930  -13.7060 H   0  0  0  0  0  0  0  0  0  0  0  0
   -7.6693   12.4990  -13.5386 H   0  0  0  0  0  0  0  0  0  0  0  0
   -6.1709   11.5529  -13.8323 H   0  0  0  0  0  0  0  0  0  0  0  0
   -8.0435    9.5766   -7.2721 H   0  0  0  0  0  0  0  0  0  0  0  0
   -6.7536   12.3051   -6.9109 H   0  0  0  0  0  0  0  0  0  0  0  0
   -4.5183   13.2784   -6.4597 H   0  0  0  0  0  0  0  0  0  0  0  0
   -2.6656    9.7487   -8.0502 H   0  0  0  0  0  0  0  0  0  0  0  0
   -4.9040    8.7842   -8.4961 H   0  0  0  0  0  0  0  0  0  0  0  0
   -2.4137   14.2051   -6.1803 H   0  0  0  0  0  0  0  0  0  0  0  0
   -0.6543   10.5597   -7.5981 H   0  0  0  0  0  0  0  0  0  0  0  0
    1.4877   14.2705   -6.0474 H   0  0  0  0  0  0  0  0  0  0  0  0
    0.2364   15.4369   -6.5953 H   0  0  0  0  0  0  0  0  0  0  0  0
    0.1917   14.7932   -4.9189 H   0  0  0  0  0  0  0  0  0  0  0  0
   -3.5156   15.9786  -11.3298 H   0  0  0  0  0  0  0  0  0  0  0  0
   -4.4447   16.0839  -13.8303 H   0  0  0  0  0  0  0  0  0  0  0  0
   -3.8494   14.5427   -9.3295 H   0  0  0  0  0  0  0  0  0  0  0  0
   -5.4922   13.8204   -9.2545 H   0  0  0  0  0  0  0  0  0  0  0  0
   -4.0925   12.8173   -9.7656 H   0  0  0  0  0  0  0  0  0  0  0  0
  1  2  2  0  0  0  0
  1  4  1  0  0  0  0
  1 11  1  0  0  0  0
  2  6  1  0  0  0  0
  3  4  1  0  0  0  0
  3  5  1  0  0  0  0
  5  6  2  0  0  0  0
  5  9  1  0  0  0  0
  6  7  1  0  0  0  0
  7  8  1  0  0  0  0
  7 10  2  3  0  0  0
  8  9  2  0  0  0  0
 10 12  1  0  0  0  0
 11 24  1  0  0  0  0
 11 27  2  0  0  0  0
 12 13  2  0  0  0  0
 12 17  1  0  0  0  0
 13 14  1  0  0  0  0
 14 15  2  0  0  0  0
 15 16  1  0  0  0  0
 15 18  1  0  0  0  0
 16 17  2  0  0  0  0
 18 19  2  0  0  0  0
 18 22  1  0  0  0  0
 19 20  1  0  0  0  0
 20 21  1  0  0  0  0
 20 23  1  0  0  0  0
 21 22  2  0  0  0  0
 24 25  1  0  0  0  0
 24 28  1  0  0  0  0
 25 26  2  0  0  0  0
 26 27  1  0  0  0  0
  2 29  1  0  0  0  0
  3 30  1  0  0  0  0
  3 31  1  0  0  0  0
  4 32  1  0  0  0  0
  4 33  1  0  0  0  0
 10 34  1  0  0  0  0
 13 35  1  0  0  0  0
 14 36  1  0  0  0  0
 16 37  1  0  0  0  0
 17 38  1  0  0  0  0
 19 39  1  0  0  0  0
 22 40  1  0  0  0  0
 23 41  1  0  0  0  0
 23 42  1  0  0  0  0
 23 43  1  0  0  0  0
 25 44  1  0  0  0  0
 26 45  1  0  0  0  0
 28 46  1  0  0  0  0
 28 47  1  0  0  0  0
 28 48  1  0  0  0  0
M  END
> <Name>
22

> <IC50[uM]>
0.032

$$$$
22
  -OEChem-05192314333D
 Structure written by MMmdl.
 48 52  0     1  0  0  0  0  0999 V2000
   -6.3943   12.3306  -11.9839 C   0  0  0  0  0  0  0  0  0  0  0  0
   -6.5449   11.7624  -10.7224 C   0  0  0  0  0  0  0  0  0  0  0  0
   -7.7389   10.5318  -13.0493 C   0  0  0  0  0  0  0  0  0  0  0  0
   -6.9892   11.7416  -13.1218 C   0  0  0  0  0  0  0  0  0  0  0  0
   -7.8445    9.9757  -11.7834 C   0  0  0  0  0  0  0  0  0  0  0  0
   -7.2758   10.5697  -10.6136 C   0  0  0  0  0  0  0  0  0  0  0  0
   -7.6401    9.7111   -9.5254 C   0  0  0  0  0  0  0  0  0  0  0  0
   -8.3075    8.6850  -10.0132 N   0  0  0  0  0  0  0  0  0  0  0  0
   -8.4539    8.8245  -11.3160 N   0  0  0  0  0  0  0  0  0  0  0  0
   -7.3472    9.8680   -8.0446 C   0  0  0  0  0  0  0  0  0  0  0  0
   -5.5569   13.6094  -12.1739 C   0  0  0  0  0  0  0  0  0  0  0  0
   -5.9691   10.4796   -7.7443 C   0  0  3  0  0  0  0  0  0  0  0  0
   -5.8622   11.7497   -7.1624 C   0  0  0  0  0  0  0  0  0  0  0  0
   -4.6000   12.2988   -6.9070 C   0  0  0  0  0  0  0  0  0  0  0  0
   -3.4496   11.5829   -7.2293 C   0  0  0  0  0  0  0  0  0  0  0  0
   -3.5554   10.3089   -7.8035 C   0  0  0  0  0  0  0  0  0  0  0  0
   -4.8209    9.7667   -8.0554 C   0  0  0  0  0  0  0  0  0  0  0  0
   -2.0956   12.1660   -6.9654 C   0  0  0  0  0  0  0  0  0  0  0  0
   -1.7384   13.4130   -6.4683 C   0  0  0  0  0  0  0  0  0  0  0  0
   -0.4069   13.4502   -6.4129 N   0  0  0  0  0  0  0  0  0  0  0  0
    0.1813   12.3566   -6.8171 N   0  0  0  0  0  0  0  0  0  0  0  0
   -0.7988   11.5478   -7.1867 C   0  0  0  0  0  0  0  0  0  0  0  0
    0.4282   14.5550   -5.9664 C   0  0  0  0  0  0  0  0  0  0  0  0
   -4.7714   14.2106  -11.2027 N   0  0  0  0  0  0  0  0  0  0  0  0
   -4.2061   15.2849  -11.7862 C   0  0  0  0  0  0  0  0  0  0  0  0
   -4.6883   15.3268  -13.0997 C   0  0  0  0  0  0  0  0  0  0  0  0
   -5.5027   14.2765  -13.3098 N   0  0  0  0  0  0  0  0  0  0  0  0
   -4.5364   13.8232   -9.7989 C   0  0  0  0  0  0  0  0  0  0  0  0
   -6.1104   12.2275   -9.8498 H   0  0  0  0  0  0  0  0  0  0  0  0
   -8.1928   10.0800  -13.9189 H   0  0  0  0  0  0  0  0  0  0  0  0
   -6.8717   12.2251  -14.0803 H   0  0  0  0  0  0  0  0  0  0  0  0
   -8.0435    9.5766   -7.2721 H   0  0  0  0  0  0  0  0  0  0  0  0
   -5.9832   10.0218   -6.7442 H   0  0  0  0  0  0  0  0  0  0  0  0
   -6.7536   12.3051   -6.9109 H   0  0  0  0  0  0  0  0  0  0  0  0
   -4.5183   13.2784   -6.4597 H   0  0  0  0  0  0  0  0  0  0  0  0
   -2.6656    9.7487   -8.0502 H   0  0  0  0  0  0  0  0  0  0  0  0
   -4.8756    8.8218   -7.4949 H   0  0  0  0  0  0  0  0  0  0  0  0
   -4.8639    9.5561   -9.1342 H   0  0  0  0  0  0  0  0  0  0  0  0
   -2.4137   14.2051   -6.1803 H   0  0  0  0  0  0  0  0  0  0  0  0
   -0.6543   10.5597   -7.5981 H   0  0  0  0  0  0  0  0  0  0  0  0
    1.4877   14.2705   -6.0474 H   0  0  0  0  0  0  0  0  0  0  0  0
    0.2364   15.4369   -6.5953 H   0  0  0  0  0  0  0  0  0  0  0  0
    0.1917   14.7932   -4.9189 H   0  0  0  0  0  0  0  0  0  0  0  0
   -3.5156   15.9786  -11.3298 H   0  0  0  0  0  0  0  0  0  0  0  0
   -4.4447   16.0839  -13.8303 H   0  0  0  0  0  0  0  0  0  0  0  0
   -3.8494   14.5427   -9.3295 H   0  0  0  0  0  0  0  0  0  0  0  0
   -5.4922   13.8204   -9.2545 H   0  0  0  0  0  0  0  0  0  0  0  0
   -4.0925   12.8173   -9.7656 H   0  0  0  0  0  0  0  0  0  0  0  0
  1  2  2  0  0  0  0
  1  4  1  0  0  0  0
  1 11  1  0  0  0  0
  2  6  1  0  0  0  0
  3  4  2  0  0  0  0
  3  5  1  0  0  0  0
  5  6  2  0  0  0  0
  5  9  1  0  0  0  0
  6  7  1  0  0  0  0
  7  8  1  0  0  0  0
  7 10  2  3  0  0  0
  8  9  2  0  0  0  0
 10 12  1  0  0  0  0
 11 24  1  0  0  0  0
 11 27  2  0  0  0  0
 12 13  1  0  0  0  0
 12 17  1  0  0  0  0
 13 14  2  0  0  0  0
 14 15  1  0  0  0  0
 15 16  2  0  0  0  0
 15 18  1  0  0  0  0
 16 17  1  0  0  0  0
 18 19  2  0  0  0  0
 18 22  1  0  0  0  0
 19 20  1  0  0  0  0
 20 21  1  0  0  0  0
 20 23  1  0  0  0  0
 21 22  2  0  0  0  0
 24 25  1  0  0  0  0
 24 28  1  0  0  0  0
 25 26  2  0  0  0  0
 26 27  1  0  0  0  0
  2 29  1  0  0  0  0
  3 30  1  0  0  0  0
  4 31  1  0  0  0  0
 10 32  1  0  0  0  0
 12 33  1  0  0  0  0
 13 34  1  0  0  0  0
 14 35  1  0  0  0  0
 16 36  1  0  0  0  0
 17 37  1  0  0  0  0
 17 38  1  0  0  0  0
 19 39  1  0  0  0  0
 22 40  1  0  0  0  0
 23 41  1  0  0  0  0
 23 42  1  0  0  0  0
 23 43  1  0  0  0  0
 25 44  1  0  0  0  0
 26 45  1  0  0  0  0
 28 46  1  0  0  0  0
 28 47  1  0  0  0  0
 28 48  1  0  0  0  0
M  END
> <Name>
22

> <IC50[uM]>
0.032

$$$$
22
  -OEChem-05192314333D
 Structure written by MMmdl.
 48 52  0     1  0  0  0  0  0999 V2000
   -6.3943   12.3306  -11.9839 C   0  0  0  0  0  0  0  0  0  0  0  0
   -6.5449   11.7624  -10.7224 C   0  0  0  0  0  0  0  0  0  0  0  0
   -7.7389   10.5318  -13.0493 C   0  0  0  0  0  0  0  0  0  0  0  0
   -6.9892   11.7416  -13.1218 C   0  0  0  0  0  0  0  0  0  0  0  0
   -7.8445    9.9757  -11.7834 C   0  0  0  0  0  0  0  0  0  0  0  0
   -7.2758   10.5697  -10.6136 C   0  0  0  0  0  0  0  0  0  0  0  0
   -7.6401    9.7111   -9.5254 C   0  0  3  0  0  0  0  0  0  0  0  0
   -8.3075    8.6850  -10.0132 N   0  0  0  0  0  0  0  0  0  0  0  0
   -8.4539    8.8245  -11.3160 N   0  0  0  0  0  0  0  0  0  0  0  0
   -7.3472    9.8680   -8.0446 C   0  0  0  0  0  0  0  0  0  0  0  0
   -5.5569   13.6094  -12.1739 C   0  0  0  0  0  0  0  0  0  0  0  0
   -5.9691   10.4796   -7.7443 C   0  0  0  0  0  0  0  0  0  0  0  0
   -5.8622   11.7497   -7.1624 C   0  0  0  0  0  0  0  0  0  0  0  0
   -4.6000   12.2988   -6.9070 C   0  0  0  0  0  0  0  0  0  0  0  0
   -3.4496   11.5829   -7.2293 C   0  0  0  0  0  0  0  0  0  0  0  0
   -3.5554   10.3089   -7.8035 C   0  0  0  0  0  0  0  0  0  0  0  0
   -4.8209    9.7667   -8.0554 C   0  0  0  0  0  0  0  0  0  0  0  0
   -2.0956   12.1660   -6.9654 C   0  0  0  0  0  0  0  0  0  0  0  0
   -1.7384   13.4130   -6.4683 C   0  0  0  0  0  0  0  0  0  0  0  0
   -0.4069   13.4502   -6.4129 N   0  0  0  0  0  0  0  0  0  0  0  0
    0.1813   12.3566   -6.8171 N   0  0  0  0  0  0  0  0  0  0  0  0
   -0.7988   11.5478   -7.1867 C   0  0  0  0  0  0  0  0  0  0  0  0
    0.4282   14.5550   -5.9664 C   0  0  0  0  0  0  0  0  0  0  0  0
   -4.7714   14.2106  -11.2027 N   0  0  0  0  0  0  0  0  0  0  0  0
   -4.2061   15.2849  -11.7862 C   0  0  0  0  0  0  0  0  0  0  0  0
   -4.6883   15.3268  -13.0997 C   0  0  0  0  0  0  0  0  0  0  0  0
   -5.5027   14.2765  -13.3098 N   0  0  0  0  0  0  0  0  0  0  0  0
   -4.5364   13.8232   -9.7989 C   0  0  0  0  0  0  0  0  0  0  0  0
   -6.1104   12.2275   -9.8498 H   0  0  0  0  0  0  0  0  0  0  0  0
   -8.1928   10.0800  -13.9189 H   0  0  0  0  0  0  0  0  0  0  0  0
   -6.8717   12.2251  -14.0803 H   0  0  0  0  0  0  0  0  0  0  0  0
   -8.5814   10.2663   -9.3999 H   0  0  0  0  0  0  0  0  0  0  0  0
   -8.0435    9.5766   -7.2721 H   0  0  0  0  0  0  0  0  0  0  0  0
   -6.7536   12.3051   -6.9109 H   0  0  0  0  0  0  0  0  0  0  0  0
   -4.5183   13.2784   -6.4597 H   0  0  0  0  0  0  0  0  0  0  0  0
   -2.6656    9.7487   -8.0502 H   0  0  0  0  0  0  0  0  0  0  0  0
   -4.8756    8.8218   -7.4949 H   0  0  0  0  0  0  0  0  0  0  0  0
   -4.8639    9.5561   -9.1342 H   0  0  0  0  0  0  0  0  0  0  0  0
   -2.4137   14.2051   -6.1803 H   0  0  0  0  0  0  0  0  0  0  0  0
   -0.6543   10.5597   -7.5981 H   0  0  0  0  0  0  0  0  0  0  0  0
    1.4877   14.2705   -6.0474 H   0  0  0  0  0  0  0  0  0  0  0  0
    0.2364   15.4369   -6.5953 H   0  0  0  0  0  0  0  0  0  0  0  0
    0.1917   14.7932   -4.9189 H   0  0  0  0  0  0  0  0  0  0  0  0
   -3.5156   15.9786  -11.3298 H   0  0  0  0  0  0  0  0  0  0  0  0
   -4.4447   16.0839  -13.8303 H   0  0  0  0  0  0  0  0  0  0  0  0
   -3.8494   14.5427   -9.3295 H   0  0  0  0  0  0  0  0  0  0  0  0
   -5.4922   13.8204   -9.2545 H   0  0  0  0  0  0  0  0  0  0  0  0
   -4.0925   12.8173   -9.7656 H   0  0  0  0  0  0  0  0  0  0  0  0
  1  2  2  0  0  0  0
  1  4  1  0  0  0  0
  1 11  1  0  0  0  0
  2  6  1  0  0  0  0
  3  4  2  0  0  0  0
  3  5  1  0  0  0  0
  5  6  2  0  0  0  0
  5  9  1  0  0  0  0
  6  7  1  0  0  0  0
  7  8  1  0  0  0  0
  7 10  1  0  0  0  0
  8  9  2  0  0  0  0
 10 12  2  3  0  0  0
 11 24  1  0  0  0  0
 11 27  2  0  0  0  0
 12 13  1  0  0  0  0
 12 17  1  0  0  0  0
 13 14  2  0  0  0  0
 14 15  1  0  0  0  0
 15 16  2  0  0  0  0
 15 18  1  0  0  0  0
 16 17  1  0  0  0  0
 18 19  2  0  0  0  0
 18 22  1  0  0  0  0
 19 20  1  0  0  0  0
 20 21  1  0  0  0  0
 20 23  1  0  0  0  0
 21 22  2  0  0  0  0
 24 25  1  0  0  0  0
 24 28  1  0  0  0  0
 25 26  2  0  0  0  0
 26 27  1  0  0  0  0
  2 29  1  0  0  0  0
  3 30  1  0  0  0  0
  4 31  1  0  0  0  0
  7 32  1  0  0  0  0
 10 33  1  0  0  0  0
 13 34  1  0  0  0  0
 14 35  1  0  0  0  0
 16 36  1  0  0  0  0
 17 37  1  0  0  0  0
 17 38  1  0  0  0  0
 19 39  1  0  0  0  0
 22 40  1  0  0  0  0
 23 41  1  0  0  0  0
 23 42  1  0  0  0  0
 23 43  1  0  0  0  0
 25 44  1  0  0  0  0
 26 45  1  0  0  0  0
 28 46  1  0  0  0  0
 28 47  1  0  0  0  0
 28 48  1  0  0  0  0
M  END
> <Name>
22

> <IC50[uM]>
0.032

$$$$
22
  -OEChem-05192314333D
 Structure written by MMmdl.
 48 52  0     0  0  0  0  0  0999 V2000
   -6.3943   12.3306  -11.9839 C   0  0  0  0  0  0  0  0  0  0  0  0
   -6.5449   11.7624  -10.7224 C   0  0  0  0  0  0  0  0  0  0  0  0
   -7.7389   10.5318  -13.0493 C   0  0  0  0  0  0  0  0  0  0  0  0
   -6.9892   11.7416  -13.1218 C   0  0  0  0  0  0  0  0  0  0  0  0
   -7.8445    9.9757  -11.7834 C   0  0  0  0  0  0  0  0  0  0  0  0
   -7.2758   10.5697  -10.6136 C   0  0  0  0  0  0  0  0  0  0  0  0
   -7.6401    9.7111   -9.5254 C   0  0  0  0  0  0  0  0  0  0  0  0
   -8.3075    8.6850  -10.0132 N   0  0  0  0  0  0  0  0  0  0  0  0
   -8.4539    8.8245  -11.3160 N   0  0  0  0  0  0  0  0  0  0  0  0
   -7.3472    9.8680   -8.0446 C   0  0  0  0  0  0  0  0  0  0  0  0
   -5.5569   13.6094  -12.1739 C   0  0  0  0  0  0  0  0  0  0  0  0
   -5.9691   10.4796   -7.7443 C   0  0  0  0  0  0  0  0  0  0  0  0
   -5.8622   11.7497   -7.1624 C   0  0  0  0  0  0  0  0  0  0  0  0
   -4.6000   12.2988   -6.9070 C   0  0  0  0  0  0  0  0  0  0  0  0
   -3.4496   11.5829   -7.2293 C   0  0  0  0  0  0  0  0  0  0  0  0
   -3.5554   10.3089   -7.8035 C   0  0  0  0  0  0  0  0  0  0  0  0
   -4.8209    9.7667   -8.0554 C   0  0  0  0  0  0  0  0  0  0  0  0
   -2.0956   12.1660   -6.9654 C   0  0  0  0  0  0  0  0  0  0  0  0
   -1.7384   13.4130   -6.4683 C   0  0  0  0  0  0  0  0  0  0  0  0
   -0.4069   13.4502   -6.4129 N   0  0  0  0  0  0  0  0  0  0  0  0
    0.1813   12.3566   -6.8171 N   0  0  0  0  0  0  0  0  0  0  0  0
   -0.7988   11.5478   -7.1867 C   0  0  0  0  0  0  0  0  0  0  0  0
    0.4282   14.5550   -5.9664 C   0  0  0  0  0  0  0  0  0  0  0  0
   -4.7714   14.2106  -11.2027 N   0  0  0  0  0  0  0  0  0  0  0  0
   -4.2061   15.2849  -11.7862 C   0  0  0  0  0  0  0  0  0  0  0  0
   -4.6883   15.3268  -13.0997 C   0  0  0  0  0  0  0  0  0  0  0  0
   -5.5027   14.2765  -13.3098 N   0  0  0  0  0  0  0  0  0  0  0  0
   -4.5364   13.8232   -9.7989 C   0  0  0  0  0  0  0  0  0  0  0  0
   -6.1104   12.2275   -9.8498 H   0  0  0  0  0  0  0  0  0  0  0  0
   -8.1928   10.0800  -13.9189 H   0  0  0  0  0  0  0  0  0  0  0  0
   -6.8717   12.2251  -14.0803 H   0  0  0  0  0  0  0  0  0  0  0  0
   -8.0435    9.5766   -7.2721 H   0  0  0  0  0  0  0  0  0  0  0  0
   -6.7536   12.3051   -6.9109 H   0  0  0  0  0  0  0  0  0  0  0  0
   -4.5488   13.2477   -7.4610 H   0  0  0  0  0  0  0  0  0  0  0  0
   -4.5551   12.5020   -5.8269 H   0  0  0  0  0  0  0  0  0  0  0  0
   -2.6656    9.7487   -8.0502 H   0  0  0  0  0  0  0  0  0  0  0  0
   -4.8756    8.8218   -7.4949 H   0  0  0  0  0  0  0  0  0  0  0  0
   -4.8639    9.5561   -9.1342 H   0  0  0  0  0  0  0  0  0  0  0  0
   -2.4137   14.2051   -6.1803 H   0  0  0  0  0  0  0  0  0  0  0  0
   -0.6543   10.5597   -7.5981 H   0  0  0  0  0  0  0  0  0  0  0  0
    1.4877   14.2705   -6.0474 H   0  0  0  0  0  0  0  0  0  0  0  0
    0.2364   15.4369   -6.5953 H   0  0  0  0  0  0  0  0  0  0  0  0
    0.1917   14.7932   -4.9189 H   0  0  0  0  0  0  0  0  0  0  0  0
   -3.5156   15.9786  -11.3298 H   0  0  0  0  0  0  0  0  0  0  0  0
   -4.4447   16.0839  -13.8303 H   0  0  0  0  0  0  0  0  0  0  0  0
   -3.8494   14.5427   -9.3295 H   0  0  0  0  0  0  0  0  0  0  0  0
   -5.4922   13.8204   -9.2545 H   0  0  0  0  0  0  0  0  0  0  0  0
   -4.0925   12.8173   -9.7656 H   0  0  0  0  0  0  0  0  0  0  0  0
  1  2  2  0  0  0  0
  1  4  1  0  0  0  0
  1 11  1  0  0  0  0
  2  6  1  0  0  0  0
  3  4  2  0  0  0  0
  3  5  1  0  0  0  0
  5  6  2  0  0  0  0
  5  9  1  0  0  0  0
  6  7  1  0  0  0  0
  7  8  1  0  0  0  0
  7 10  2  3  0  0  0
  8  9  2  0  0  0  0
 10 12  1  0  0  0  0
 11 24  1  0  0  0  0
 11 27  2  0  0  0  0
 12 13  2  0  0  0  0
 12 17  1  0  0  0  0
 13 14  1  0  0  0  0
 14 15  1  0  0  0  0
 15 16  2  0  0  0  0
 15 18  1  0  0  0  0
 16 17  1  0  0  0  0
 18 19  2  0  0  0  0
 18 22  1  0  0  0  0
 19 20  1  0  0  0  0
 20 21  1  0  0  0  0
 20 23  1  0  0  0  0
 21 22  2  0  0  0  0
 24 25  1  0  0  0  0
 24 28  1  0  0  0  0
 25 26  2  0  0  0  0
 26 27  1  0  0  0  0
  2 29  1  0  0  0  0
  3 30  1  0  0  0  0
  4 31  1  0  0  0  0
 10 32  1  0  0  0  0
 13 33  1  0  0  0  0
 14 34  1  0  0  0  0
 14 35  1  0  0  0  0
 16 36  1  0  0  0  0
 17 37  1  0  0  0  0
 17 38  1  0  0  0  0
 19 39  1  0  0  0  0
 22 40  1  0  0  0  0
 23 41  1  0  0  0  0
 23 42  1  0  0  0  0
 23 43  1  0  0  0  0
 25 44  1  0  0  0  0
 26 45  1  0  0  0  0
 28 46  1  0  0  0  0
 28 47  1  0  0  0  0
 28 48  1  0  0  0  0
M  END
> <Name>
22

> <IC50[uM]>
0.032

$$$$
22
  -OEChem-05192314333D
 Structure written by MMmdl.
 48 52  0     0  0  0  0  0  0999 V2000
   -6.3943   12.3306  -11.9839 C   0  0  0  0  0  0  0  0  0  0  0  0
   -6.5449   11.7624  -10.7224 C   0  0  0  0  0  0  0  0  0  0  0  0
   -7.7389   10.5318  -13.0493 C   0  0  0  0  0  0  0  0  0  0  0  0
   -6.9892   11.7416  -13.1218 C   0  0  0  0  0  0  0  0  0  0  0  0
   -7.8445    9.9757  -11.7834 C   0  0  0  0  0  0  0  0  0  0  0  0
   -7.2758   10.5697  -10.6136 C   0  0  0  0  0  0  0  0  0  0  0  0
   -7.6401    9.7111   -9.5254 C   0  0  0  0  0  0  0  0  0  0  0  0
   -8.3075    8.6850  -10.0132 N   0  0  0  0  0  0  0  0  0  0  0  0
   -8.4539    8.8245  -11.3160 N   0  0  0  0  0  0  0  0  0  0  0  0
   -7.3472    9.8680   -8.0446 C   0  0  0  0  0  0  0  0  0  0  0  0
   -5.5569   13.6094  -12.1739 C   0  0  0  0  0  0  0  0  0  0  0  0
   -5.9691   10.4796   -7.7443 C   0  0  0  0  0  0  0  0  0  0  0  0
   -5.8622   11.7497   -7.1624 C   0  0  0  0  0  0  0  0  0  0  0  0
   -4.6000   12.2988   -6.9070 C   0  0  0  0  0  0  0  0  0  0  0  0
   -3.4496   11.5829   -7.2293 C   0  0  0  0  0  0  0  0  0  0  0  0
   -3.5554   10.3089   -7.8035 C   0  0  0  0  0  0  0  0  0  0  0  0
   -4.8209    9.7667   -8.0554 C   0  0  0  0  0  0  0  0  0  0  0  0
   -2.0956   12.1660   -6.9654 C   0  0  0  0  0  0  0  0  0  0  0  0
   -1.7384   13.4130   -6.4683 C   0  0  0  0  0  0  0  0  0  0  0  0
   -0.4069   13.4502   -6.4129 N   0  0  0  0  0  0  0  0  0  0  0  0
    0.1813   12.3566   -6.8171 N   0  0  0  0  0  0  0  0  0  0  0  0
   -0.7988   11.5478   -7.1867 C   0  0  0  0  0  0  0  0  0  0  0  0
    0.4282   14.5550   -5.9664 C   0  0  0  0  0  0  0  0  0  0  0  0
   -4.7714   14.2106  -11.2027 N   0  0  0  0  0  0  0  0  0  0  0  0
   -4.2061   15.2849  -11.7862 C   0  0  0  0  0  0  0  0  0  0  0  0
   -4.6883   15.3268  -13.0997 C   0  0  0  0  0  0  0  0  0  0  0  0
   -5.5027   14.2765  -13.3098 N   0  0  0  0  0  0  0  0  0  0  0  0
   -4.5364   13.8232   -9.7989 C   0  0  0  0  0  0  0  0  0  0  0  0
   -6.1104   12.2275   -9.8498 H   0  0  0  0  0  0  0  0  0  0  0  0
   -8.1928   10.0800  -13.9189 H   0  0  0  0  0  0  0  0  0  0  0  0
   -6.8717   12.2251  -14.0803 H   0  0  0  0  0  0  0  0  0  0  0  0
   -8.0435    9.5766   -7.2721 H   0  0  0  0  0  0  0  0  0  0  0  0
   -6.7536   12.3051   -6.9109 H   0  0  0  0  0  0  0  0  0  0  0  0
   -4.5183   13.2784   -6.4597 H   0  0  0  0  0  0  0  0  0  0  0  0
   -3.0271   10.3482   -8.7675 H   0  0  0  0  0  0  0  0  0  0  0  0
   -3.0372    9.6108   -7.1296 H   0  0  0  0  0  0  0  0  0  0  0  0
   -4.8756    8.8218   -7.4949 H   0  0  0  0  0  0  0  0  0  0  0  0
   -4.8639    9.5561   -9.1342 H   0  0  0  0  0  0  0  0  0  0  0  0
   -2.4137   14.2051   -6.1803 H   0  0  0  0  0  0  0  0  0  0  0  0
   -0.6543   10.5597   -7.5981 H   0  0  0  0  0  0  0  0  0  0  0  0
    1.4877   14.2705   -6.0474 H   0  0  0  0  0  0  0  0  0  0  0  0
    0.2364   15.4369   -6.5953 H   0  0  0  0  0  0  0  0  0  0  0  0
    0.1917   14.7932   -4.9189 H   0  0  0  0  0  0  0  0  0  0  0  0
   -3.5156   15.9786  -11.3298 H   0  0  0  0  0  0  0  0  0  0  0  0
   -4.4447   16.0839  -13.8303 H   0  0  0  0  0  0  0  0  0  0  0  0
   -3.8494   14.5427   -9.3295 H   0  0  0  0  0  0  0  0  0  0  0  0
   -5.4922   13.8204   -9.2545 H   0  0  0  0  0  0  0  0  0  0  0  0
   -4.0925   12.8173   -9.7656 H   0  0  0  0  0  0  0  0  0  0  0  0
  1  2  2  0  0  0  0
  1  4  1  0  0  0  0
  1 11  1  0  0  0  0
  2  6  1  0  0  0  0
  3  4  2  0  0  0  0
  3  5  1  0  0  0  0
  5  6  2  0  0  0  0
  5  9  1  0  0  0  0
  6  7  1  0  0  0  0
  7  8  1  0  0  0  0
  7 10  2  3  0  0  0
  8  9  2  0  0  0  0
 10 12  1  0  0  0  0
 11 24  1  0  0  0  0
 11 27  2  0  0  0  0
 12 13  2  0  0  0  0
 12 17  1  0  0  0  0
 13 14  1  0  0  0  0
 14 15  2  0  0  0  0
 15 16  1  0  0  0  0
 15 18  1  0  0  0  0
 16 17  1  0  0  0  0
 18 19  2  0  0  0  0
 18 22  1  0  0  0  0
 19 20  1  0  0  0  0
 20 21  1  0  0  0  0
 20 23  1  0  0  0  0
 21 22  2  0  0  0  0
 24 25  1  0  0  0  0
 24 28  1  0  0  0  0
 25 26  2  0  0  0  0
 26 27  1  0  0  0  0
  2 29  1  0  0  0  0
  3 30  1  0  0  0  0
  4 31  1  0  0  0  0
 10 32  1  0  0  0  0
 13 33  1  0  0  0  0
 14 34  1  0  0  0  0
 16 35  1  0  0  0  0
 16 36  1  0  0  0  0
 17 37  1  0  0  0  0
 17 38  1  0  0  0  0
 19 39  1  0  0  0  0
 22 40  1  0  0  0  0
 23 41  1  0  0  0  0
 23 42  1  0  0  0  0
 23 43  1  0  0  0  0
 25 44  1  0  0  0  0
 26 45  1  0  0  0  0
 28 46  1  0  0  0  0
 28 47  1  0  0  0  0
 28 48  1  0  0  0  0
M  END
> <Name>
22

> <IC50[uM]>
0.032

$$$$
22
  -OEChem-05192314333D
 Structure written by MMmdl.
 48 52  0     1  0  0  0  0  0999 V2000
   -6.3943   12.3306  -11.9839 C   0  0  3  0  0  0  0  0  0  0  0  0
   -6.5449   11.7624  -10.7224 C   0  0  0  0  0  0  0  0  0  0  0  0
   -7.7389   10.5318  -13.0493 C   0  0  0  0  0  0  0  0  0  0  0  0
   -6.9892   11.7416  -13.1218 C   0  0  0  0  0  0  0  0  0  0  0  0
   -7.8445    9.9757  -11.7834 C   0  0  0  0  0  0  0  0  0  0  0  0
   -7.2758   10.5697  -10.6136 C   0  0  0  0  0  0  0  0  0  0  0  0
   -7.6401    9.7111   -9.5254 C   0  0  0  0  0  0  0  0  0  0  0  0
   -8.3075    8.6850  -10.0132 N   0  0  0  0  0  0  0  0  0  0  0  0
   -8.4539    8.8245  -11.3160 N   0  0  0  0  0  0  0  0  0  0  0  0
   -7.3472    9.8680   -8.0446 C   0  0  0  0  0  0  0  0  0  0  0  0
   -5.5569   13.6094  -12.1739 C   0  0  0  0  0  0  0  0  0  0  0  0
   -5.9691   10.4796   -7.7443 C   0  0  0  0  0  0  0  0  0  0  0  0
   -5.8622   11.7497   -7.1624 C   0  0  0  0  0  0  0  0  0  0  0  0
   -4.6000   12.2988   -6.9070 C   0  0  0  0  0  0  0  0  0  0  0  0
   -3.4496   11.5829   -7.2293 C   0  0  0  0  0  0  0  0  0  0  0  0
   -3.5554   10.3089   -7.8035 C   0  0  0  0  0  0  0  0  0  0  0  0
   -4.8209    9.7667   -8.0554 C   0  0  0  0  0  0  0  0  0  0  0  0
   -2.0956   12.1660   -6.9654 C   0  0  0  0  0  0  0  0  0  0  0  0
   -1.7384   13.4130   -6.4683 C   0  0  0  0  0  0  0  0  0  0  0  0
   -0.4069   13.4502   -6.4129 N   0  0  0  0  0  0  0  0  0  0  0  0
    0.1813   12.3566   -6.8171 N   0  0  0  0  0  0  0  0  0  0  0  0
   -0.7988   11.5478   -7.1867 C   0  0  0  0  0  0  0  0  0  0  0  0
    0.4282   14.5550   -5.9664 C   0  0  0  0  0  0  0  0  0  0  0  0
   -4.7714   14.2106  -11.2027 N   0  0  0  0  0  0  0  0  0  0  0  0
   -4.2061   15.2849  -11.7862 C   0  0  0  0  0  0  0  0  0  0  0  0
   -4.6883   15.3268  -13.0997 C   0  0  0  0  0  0  0  0  0  0  0  0
   -5.5027   14.2765  -13.3098 N   0  0  0  0  0  0  0  0  0  0  0  0
   -4.5364   13.8232   -9.7989 C   0  0  0  0  0  0  0  0  0  0  0  0
   -7.2958   12.9399  -11.8223 H   0  0  0  0  0  0  0  0  0  0  0  0
   -5.5359   11.5629  -10.3324 H   0  0  0  0  0  0  0  0  0  0  0  0
   -7.0429   12.5089  -10.0862 H   0  0  0  0  0  0  0  0  0  0  0  0
   -8.1928   10.0800  -13.9189 H   0  0  0  0  0  0  0  0  0  0  0  0
   -6.8717   12.2251  -14.0803 H   0  0  0  0  0  0  0  0  0  0  0  0
   -8.0435    9.5766   -7.2721 H   0  0  0  0  0  0  0  0  0  0  0  0
   -6.7536   12.3051   -6.9109 H   0  0  0  0  0  0  0  0  0  0  0  0
   -4.5183   13.2784   -6.4597 H   0  0  0  0  0  0  0  0  0  0  0  0
   -2.6656    9.7487   -8.0502 H   0  0  0  0  0  0  0  0  0  0  0  0
   -4.9040    8.7842   -8.4961 H   0  0  0  0  0  0  0  0  0  0  0  0
   -2.4137   14.2051   -6.1803 H   0  0  0  0  0  0  0  0  0  0  0  0
   -0.6543   10.5597   -7.5981 H   0  0  0  0  0  0  0  0  0  0  0  0
    1.4877   14.2705   -6.0474 H   0  0  0  0  0  0  0  0  0  0  0  0
    0.2364   15.4369   -6.5953 H   0  0  0  0  0  0  0  0  0  0  0  0
    0.1917   14.7932   -4.9189 H   0  0  0  0  0  0  0  0  0  0  0  0
   -3.5156   15.9786  -11.3298 H   0  0  0  0  0  0  0  0  0  0  0  0
   -4.4447   16.0839  -13.8303 H   0  0  0  0  0  0  0  0  0  0  0  0
   -3.8494   14.5427   -9.3295 H   0  0  0  0  0  0  0  0  0  0  0  0
   -5.4922   13.8204   -9.2545 H   0  0  0  0  0  0  0  0  0  0  0  0
   -4.0925   12.8173   -9.7656 H   0  0  0  0  0  0  0  0  0  0  0  0
  1  2  1  0  0  0  0
  1  4  1  0  0  0  0
  1 11  1  0  0  0  0
  2  6  1  0  0  0  0
  3  4  2  0  0  0  0
  3  5  1  0  0  0  0
  5  6  2  0  0  0  0
  5  9  1  0  0  0  0
  6  7  1  0  0  0  0
  7  8  1  0  0  0  0
  7 10  2  3  0  0  0
  8  9  2  0  0  0  0
 10 12  1  0  0  0  0
 11 24  1  0  0  0  0
 11 27  2  0  0  0  0
 12 13  2  0  0  0  0
 12 17  1  0  0  0  0
 13 14  1  0  0  0  0
 14 15  2  0  0  0  0
 15 16  1  0  0  0  0
 15 18  1  0  0  0  0
 16 17  2  0  0  0  0
 18 19  2  0  0  0  0
 18 22  1  0  0  0  0
 19 20  1  0  0  0  0
 20 21  1  0  0  0  0
 20 23  1  0  0  0  0
 21 22  2  0  0  0  0
 24 25  1  0  0  0  0
 24 28  1  0  0  0  0
 25 26  2  0  0  0  0
 26 27  1  0  0  0  0
  1 29  1  0  0  0  0
  2 30  1  0  0  0  0
  2 31  1  0  0  0  0
  3 32  1  0  0  0  0
  4 33  1  0  0  0  0
 10 34  1  0  0  0  0
 13 35  1  0  0  0  0
 14 36  1  0  0  0  0
 16 37  1  0  0  0  0
 17 38  1  0  0  0  0
 19 39  1  0  0  0  0
 22 40  1  0  0  0  0
 23 41  1  0  0  0  0
 23 42  1  0  0  0  0
 23 43  1  0  0  0  0
 25 44  1  0  0  0  0
 26 45  1  0  0  0  0
 28 46  1  0  0  0  0
 28 47  1  0  0  0  0
 28 48  1  0  0  0  0
M  END
> <Name>
22

> <IC50[uM]>
0.032

$$$$
22
  -OEChem-05192314333D
 Structure written by MMmdl.
 48 52  0     1  0  0  0  0  0999 V2000
   -6.3943   12.3306  -11.9839 C   0  0  0  0  0  0  0  0  0  0  0  0
   -6.5449   11.7624  -10.7224 C   0  0  0  0  0  0  0  0  0  0  0  0
   -7.7389   10.5318  -13.0493 C   0  0  0  0  0  0  0  0  0  0  0  0
   -6.9892   11.7416  -13.1218 C   0  0  0  0  0  0  0  0  0  0  0  0
   -7.8445    9.9757  -11.7834 C   0  0  0  0  0  0  0  0  0  0  0  0
   -7.2758   10.5697  -10.6136 C   0  0  3  0  0  0  0  0  0  0  0  0
   -7.6401    9.7111   -9.5254 C   0  0  0  0  0  0  0  0  0  0  0  0
   -8.3075    8.6850  -10.0132 N   0  0  0  0  0  0  0  0  0  0  0  0
   -8.4539    8.8245  -11.3160 N   0  0  0  0  0  0  0  0  0  0  0  0
   -7.3472    9.8680   -8.0446 C   0  0  0  0  0  0  0  0  0  0  0  0
   -5.5569   13.6094  -12.1739 C   0  0  0  0  0  0  0  0  0  0  0  0
   -5.9691   10.4796   -7.7443 C   0  0  0  0  0  0  0  0  0  0  0  0
   -5.8622   11.7497   -7.1624 C   0  0  0  0  0  0  0  0  0  0  0  0
   -4.6000   12.2988   -6.9070 C   0  0  0  0  0  0  0  0  0  0  0  0
   -3.4496   11.5829   -7.2293 C   0  0  0  0  0  0  0  0  0  0  0  0
   -3.5554   10.3089   -7.8035 C   0  0  0  0  0  0  0  0  0  0  0  0
   -4.8209    9.7667   -8.0554 C   0  0  0  0  0  0  0  0  0  0  0  0
   -2.0956   12.1660   -6.9654 C   0  0  0  0  0  0  0  0  0  0  0  0
   -1.7384   13.4130   -6.4683 C   0  0  0  0  0  0  0  0  0  0  0  0
   -0.4069   13.4502   -6.4129 N   0  0  0  0  0  0  0  0  0  0  0  0
    0.1813   12.3566   -6.8171 N   0  0  0  0  0  0  0  0  0  0  0  0
   -0.7988   11.5478   -7.1867 C   0  0  0  0  0  0  0  0  0  0  0  0
    0.4282   14.5550   -5.9664 C   0  0  0  0  0  0  0  0  0  0  0  0
   -4.7714   14.2106  -11.2027 N   0  0  0  0  0  0  0  0  0  0  0  0
   -4.2061   15.2849  -11.7862 C   0  0  0  0  0  0  0  0  0  0  0  0
   -4.6883   15.3268  -13.0997 C   0  0  0  0  0  0  0  0  0  0  0  0
   -5.5027   14.2765  -13.3098 N   0  0  0  0  0  0  0  0  0  0  0  0
   -4.5364   13.8232   -9.7989 C   0  0  0  0  0  0  0  0  0  0  0  0
   -5.5359   11.5629  -10.3324 H   0  0  0  0  0  0  0  0  0  0  0  0
   -7.0429   12.5089  -10.0862 H   0  0  0  0  0  0  0  0  0  0  0  0
   -8.1928   10.0800  -13.9189 H   0  0  0  0  0  0  0  0  0  0  0  0
   -6.8717   12.2251  -14.0803 H   0  0  0  0  0  0  0  0  0  0  0  0
   -6.3539    9.9891  -10.7651 H   0  0  0  0  0  0  0  0  0  0  0  0
   -8.0435    9.5766   -7.2721 H   0  0  0  0  0  0  0  0  0  0  0  0
   -6.7536   12.3051   -6.9109 H   0  0  0  0  0  0  0  0  0  0  0  0
   -4.5183   13.2784   -6.4597 H   0  0  0  0  0  0  0  0  0  0  0  0
   -2.6656    9.7487   -8.0502 H   0  0  0  0  0  0  0  0  0  0  0  0
   -4.9040    8.7842   -8.4961 H   0  0  0  0  0  0  0  0  0  0  0  0
   -2.4137   14.2051   -6.1803 H   0  0  0  0  0  0  0  0  0  0  0  0
   -0.6543   10.5597   -7.5981 H   0  0  0  0  0  0  0  0  0  0  0  0
    1.4877   14.2705   -6.0474 H   0  0  0  0  0  0  0  0  0  0  0  0
    0.2364   15.4369   -6.5953 H   0  0  0  0  0  0  0  0  0  0  0  0
    0.1917   14.7932   -4.9189 H   0  0  0  0  0  0  0  0  0  0  0  0
   -3.5156   15.9786  -11.3298 H   0  0  0  0  0  0  0  0  0  0  0  0
   -4.4447   16.0839  -13.8303 H   0  0  0  0  0  0  0  0  0  0  0  0
   -3.8494   14.5427   -9.3295 H   0  0  0  0  0  0  0  0  0  0  0  0
   -5.4922   13.8204   -9.2545 H   0  0  0  0  0  0  0  0  0  0  0  0
   -4.0925   12.8173   -9.7656 H   0  0  0  0  0  0  0  0  0  0  0  0
  1  2  1  0  0  0  0
  1  4  2  0  0  0  0
  1 11  1  0  0  0  0
  2  6  1  0  0  0  0
  3  4  1  0  0  0  0
  3  5  2  0  0  0  0
  5  6  1  0  0  0  0
  5  9  1  0  0  0  0
  6  7  1  0  0  0  0
  7  8  1  0  0  0  0
  7 10  2  3  0  0  0
  8  9  2  0  0  0  0
 10 12  1  0  0  0  0
 11 24  1  0  0  0  0
 11 27  2  0  0  0  0
 12 13  2  0  0  0  0
 12 17  1  0  0  0  0
 13 14  1  0  0  0  0
 14 15  2  0  0  0  0
 15 16  1  0  0  0  0
 15 18  1  0  0  0  0
 16 17  2  0  0  0  0
 18 19  2  0  0  0  0
 18 22  1  0  0  0  0
 19 20  1  0  0  0  0
 20 21  1  0  0  0  0
 20 23  1  0  0  0  0
 21 22  2  0  0  0  0
 24 25  1  0  0  0  0
 24 28  1  0  0  0  0
 25 26  2  0  0  0  0
 26 27  1  0  0  0  0
  2 29  1  0  0  0  0
  2 30  1  0  0  0  0
  3 31  1  0  0  0  0
  4 32  1  0  0  0  0
  6 33  1  0  0  0  0
 10 34  1  0  0  0  0
 13 35  1  0  0  0  0
 14 36  1  0  0  0  0
 16 37  1  0  0  0  0
 17 38  1  0  0  0  0
 19 39  1  0  0  0  0
 22 40  1  0  0  0  0
 23 41  1  0  0  0  0
 23 42  1  0  0  0  0
 23 43  1  0  0  0  0
 25 44  1  0  0  0  0
 26 45  1  0  0  0  0
 28 46  1  0  0  0  0
 28 47  1  0  0  0  0
 28 48  1  0  0  0  0
M  END
> <Name>
22

> <IC50[uM]>
0.032

$$$$
22
  -OEChem-05192314333D
 Structure written by MMmdl.
 48 52  0     0  0  0  0  0  0999 V2000
   -6.3943   12.3306  -11.9839 C   0  0  0  0  0  0  0  0  0  0  0  0
   -6.5449   11.7624  -10.7224 C   0  0  0  0  0  0  0  0  0  0  0  0
   -7.7389   10.5318  -13.0493 C   0  0  0  0  0  0  0  0  0  0  0  0
   -6.9892   11.7416  -13.1218 C   0  0  0  0  0  0  0  0  0  0  0  0
   -7.8445    9.9757  -11.7834 C   0  0  0  0  0  0  0  0  0  0  0  0
   -7.2758   10.5697  -10.6136 C   0  0  0  0  0  0  0  0  0  0  0  0
   -7.6401    9.7111   -9.5254 C   0  0  0  0  0  0  0  0  0  0  0  0
   -8.3075    8.6850  -10.0132 N   0  0  0  0  0  0  0  0  0  0  0  0
   -8.4539    8.8245  -11.3160 N   0  0  0  0  0  0  0  0  0  0  0  0
   -7.3472    9.8680   -8.0446 C   0  0  0  0  0  0  0  0  0  0  0  0
   -5.5569   13.6094  -12.1739 C   0  0  0  0  0  0  0  0  0  0  0  0
   -5.9691   10.4796   -7.7443 C   0  0  0  0  0  0  0  0  0  0  0  0
   -5.8622   11.7497   -7.1624 C   0  0  0  0  0  0  0  0  0  0  0  0
   -4.6000   12.2988   -6.9070 C   0  0  0  0  0  0  0  0  0  0  0  0
   -3.4496   11.5829   -7.2293 C   0  0  0  0  0  0  0  0  0  0  0  0
   -3.5554   10.3089   -7.8035 C   0  0  0  0  0  0  0  0  0  0  0  0
   -4.8209    9.7667   -8.0554 C   0  0  0  0  0  0  0  0  0  0  0  0
   -2.0956   12.1660   -6.9654 C   0  0  0  0  0  0  0  0  0  0  0  0
   -1.7384   13.4130   -6.4683 C   0  0  0  0  0  0  0  0  0  0  0  0
   -0.4069   13.4502   -6.4129 N   0  0  0  0  0  0  0  0  0  0  0  0
    0.1813   12.3566   -6.8171 N   0  0  0  0  0  0  0  0  0  0  0  0
   -0.7988   11.5478   -7.1867 C   0  0  0  0  0  0  0  0  0  0  0  0
    0.4282   14.5550   -5.9664 C   0  0  0  0  0  0  0  0  0  0  0  0
   -4.7714   14.2106  -11.2027 N   0  0  0  0  0  0  0  0  0  0  0  0
   -4.2061   15.2849  -11.7862 C   0  0  0  0  0  0  0  0  0  0  0  0
   -4.6883   15.3268  -13.0997 C   0  0  0  0  0  0  0  0  0  0  0  0
   -5.5027   14.2765  -13.3098 N   0  0  0  0  0  0  0  0  0  0  0  0
   -4.5364   13.8232   -9.7989 C   0  0  0  0  0  0  0  0  0  0  0  0
   -5.5359   11.5629  -10.3324 H   0  0  0  0  0  0  0  0  0  0  0  0
   -7.0429   12.5089  -10.0862 H   0  0  0  0  0  0  0  0  0  0  0  0
   -8.7553   10.7392  -13.4153 H   0  0  0  0  0  0  0  0  0  0  0  0
   -7.2563    9.7930  -13.7060 H   0  0  0  0  0  0  0  0  0  0  0  0
   -6.8717   12.2251  -14.0803 H   0  0  0  0  0  0  0  0  0  0  0  0
   -8.0435    9.5766   -7.2721 H   0  0  0  0  0  0  0  0  0  0  0  0
   -6.7536   12.3051   -6.9109 H   0  0  0  0  0  0  0  0  0  0  0  0
   -4.5183   13.2784   -6.4597 H   0  0  0  0  0  0  0  0  0  0  0  0
   -2.6656    9.7487   -8.0502 H   0  0  0  0  0  0  0  0  0  0  0  0
   -4.9040    8.7842   -8.4961 H   0  0  0  0  0  0  0  0  0  0  0  0
   -2.4137   14.2051   -6.1803 H   0  0  0  0  0  0  0  0  0  0  0  0
   -0.6543   10.5597   -7.5981 H   0  0  0  0  0  0  0  0  0  0  0  0
    1.4877   14.2705   -6.0474 H   0  0  0  0  0  0  0  0  0  0  0  0
    0.2364   15.4369   -6.5953 H   0  0  0  0  0  0  0  0  0  0  0  0
    0.1917   14.7932   -4.9189 H   0  0  0  0  0  0  0  0  0  0  0  0
   -3.5156   15.9786  -11.3298 H   0  0  0  0  0  0  0  0  0  0  0  0
   -4.4447   16.0839  -13.8303 H   0  0  0  0  0  0  0  0  0  0  0  0
   -3.8494   14.5427   -9.3295 H   0  0  0  0  0  0  0  0  0  0  0  0
   -5.4922   13.8204   -9.2545 H   0  0  0  0  0  0  0  0  0  0  0  0
   -4.0925   12.8173   -9.7656 H   0  0  0  0  0  0  0  0  0  0  0  0
  1  2  1  0  0  0  0
  1  4  2  0  0  0  0
  1 11  1  0  0  0  0
  2  6  1  0  0  0  0
  3  4  1  0  0  0  0
  3  5  1  0  0  0  0
  5  6  2  0  0  0  0
  5  9  1  0  0  0  0
  6  7  1  0  0  0  0
  7  8  1  0  0  0  0
  7 10  2  3  0  0  0
  8  9  2  0  0  0  0
 10 12  1  0  0  0  0
 11 24  1  0  0  0  0
 11 27  2  0  0  0  0
 12 13  2  0  0  0  0
 12 17  1  0  0  0  0
 13 14  1  0  0  0  0
 14 15  2  0  0  0  0
 15 16  1  0  0  0  0
 15 18  1  0  0  0  0
 16 17  2  0  0  0  0
 18 19  2  0  0  0  0
 18 22  1  0  0  0  0
 19 20  1  0  0  0  0
 20 21  1  0  0  0  0
 20 23  1  0  0  0  0
 21 22  2  0  0  0  0
 24 25  1  0  0  0  0
 24 28  1  0  0  0  0
 25 26  2  0  0  0  0
 26 27  1  0  0  0  0
  2 29  1  0  0  0  0
  2 30  1  0  0  0  0
  3 31  1  0  0  0  0
  3 32  1  0  0  0  0
  4 33  1  0  0  0  0
 10 34  1  0  0  0  0
 13 35  1  0  0  0  0
 14 36  1  0  0  0  0
 16 37  1  0  0  0  0
 17 38  1  0  0  0  0
 19 39  1  0  0  0  0
 22 40  1  0  0  0  0
 23 41  1  0  0  0  0
 23 42  1  0  0  0  0
 23 43  1  0  0  0  0
 25 44  1  0  0  0  0
 26 45  1  0  0  0  0
 28 46  1  0  0  0  0
 28 47  1  0  0  0  0
 28 48  1  0  0  0  0
M  END
> <Name>
22

> <IC50[uM]>
0.032

$$$$
22
  -OEChem-05192314333D
 Structure written by MMmdl.
 48 52  0     1  0  0  0  0  0999 V2000
   -6.3943   12.3306  -11.9839 C   0  0  0  0  0  0  0  0  0  0  0  0
   -6.5449   11.7624  -10.7224 C   0  0  0  0  0  0  0  0  0  0  0  0
   -7.7389   10.5318  -13.0493 C   0  0  0  0  0  0  0  0  0  0  0  0
   -6.9892   11.7416  -13.1218 C   0  0  0  0  0  0  0  0  0  0  0  0
   -7.8445    9.9757  -11.7834 C   0  0  3  0  0  0  0  0  0  0  0  0
   -7.2758   10.5697  -10.6136 C   0  0  0  0  0  0  0  0  0  0  0  0
   -7.6401    9.7111   -9.5254 C   0  0  0  0  0  0  0  0  0  0  0  0
   -8.3075    8.6850  -10.0132 N   0  0  0  0  0  0  0  0  0  0  0  0
   -8.4539    8.8245  -11.3160 N   0  0  0  0  0  0  0  0  0  0  0  0
   -7.3472    9.8680   -8.0446 C   0  0  0  0  0  0  0  0  0  0  0  0
   -5.5569   13.6094  -12.1739 C   0  0  0  0  0  0  0  0  0  0  0  0
   -5.9691   10.4796   -7.7443 C   0  0  0  0  0  0  0  0  0  0  0  0
   -5.8622   11.7497   -7.1624 C   0  0  0  0  0  0  0  0  0  0  0  0
   -4.6000   12.2988   -6.9070 C   0  0  0  0  0  0  0  0  0  0  0  0
   -3.4496   11.5829   -7.2293 C   0  0  0  0  0  0  0  0  0  0  0  0
   -3.5554   10.3089   -7.8035 C   0  0  0  0  0  0  0  0  0  0  0  0
   -4.8209    9.7667   -8.0554 C   0  0  0  0  0  0  0  0  0  0  0  0
   -2.0956   12.1660   -6.9654 C   0  0  0  0  0  0  0  0  0  0  0  0
   -1.7384   13.4130   -6.4683 C   0  0  0  0  0  0  0  0  0  0  0  0
   -0.4069   13.4502   -6.4129 N   0  0  0  0  0  0  0  0  0  0  0  0
    0.1813   12.3566   -6.8171 N   0  0  0  0  0  0  0  0  0  0  0  0
   -0.7988   11.5478   -7.1867 C   0  0  0  0  0  0  0  0  0  0  0  0
    0.4282   14.5550   -5.9664 C   0  0  0  0  0  0  0  0  0  0  0  0
   -4.7714   14.2106  -11.2027 N   0  0  0  0  0  0  0  0  0  0  0  0
   -4.2061   15.2849  -11.7862 C   0  0  0  0  0  0  0  0  0  0  0  0
   -4.6883   15.3268  -13.0997 C   0  0  0  0  0  0  0  0  0  0  0  0
   -5.5027   14.2765  -13.3098 N   0  0  0  0  0  0  0  0  0  0  0  0
   -4.5364   13.8232   -9.7989 C   0  0  0  0  0  0  0  0  0  0  0  0
   -6.1104   12.2275   -9.8498 H   0  0  0  0  0  0  0  0  0  0  0  0
   -8.1928   10.0800  -13.9189 H   0  0  0  0  0  0  0  0  0  0  0  0
   -6.8717   12.2251  -14.0803 H   0  0  0  0  0  0  0  0  0  0  0  0
   -6.9133    9.4148  -11.9517 H   0  0  0  0  0  0  0  0  0  0  0  0
   -8.1181   10.5187   -7.6060 H   0  0  0  0  0  0  0  0  0  0  0  0
   -7.3952    8.8746   -7.5748 H   0  0  0  0  0  0  0  0  0  0  0  0
   -6.7536   12.3051   -6.9109 H   0  0  0  0  0  0  0  0  0  0  0  0
   -4.5183   13.2784   -6.4597 H   0  0  0  0  0  0  0  0  0  0  0  0
   -2.6656    9.7487   -8.0502 H   0  0  0  0  0  0  0  0  0  0  0  0
   -4.9040    8.7842   -8.4961 H   0  0  0  0  0  0  0  0  0  0  0  0
   -2.4137   14.2051   -6.1803 H   0  0  0  0  0  0  0  0  0  0  0  0
   -0.6543   10.5597   -7.5981 H   0  0  0  0  0  0  0  0  0  0  0  0
    1.4877   14.2705   -6.0474 H   0  0  0  0  0  0  0  0  0  0  0  0
    0.2364   15.4369   -6.5953 H   0  0  0  0  0  0  0  0  0  0  0  0
    0.1917   14.7932   -4.9189 H   0  0  0  0  0  0  0  0  0  0  0  0
   -3.5156   15.9786  -11.3298 H   0  0  0  0  0  0  0  0  0  0  0  0
   -4.4447   16.0839  -13.8303 H   0  0  0  0  0  0  0  0  0  0  0  0
   -3.8494   14.5427   -9.3295 H   0  0  0  0  0  0  0  0  0  0  0  0
   -5.4922   13.8204   -9.2545 H   0  0  0  0  0  0  0  0  0  0  0  0
   -4.0925   12.8173   -9.7656 H   0  0  0  0  0  0  0  0  0  0  0  0
  1  2  2  0  0  0  0
  1  4  1  0  0  0  0
  1 11  1  0  0  0  0
  2  6  1  0  0  0  0
  3  4  2  0  0  0  0
  3  5  1  0  0  0  0
  5  6  1  0  0  0  0
  5  9  1  0  0  0  0
  6  7  2  0  0  0  0
  7  8  1  0  0  0  0
  7 10  1  0  0  0  0
  8  9  2  0  0  0  0
 10 12  1  0  0  0  0
 11 24  1  0  0  0  0
 11 27  2  0  0  0  0
 12 13  2  0  0  0  0
 12 17  1  0  0  0  0
 13 14  1  0  0  0  0
 14 15  2  0  0  0  0
 15 16  1  0  0  0  0
 15 18  1  0  0  0  0
 16 17  2  0  0  0  0
 18 19  2  0  0  0  0
 18 22  1  0  0  0  0
 19 20  1  0  0  0  0
 20 21  1  0  0  0  0
 20 23  1  0  0  0  0
 21 22  2  0  0  0  0
 24 25  1  0  0  0  0
 24 28  1  0  0  0  0
 25 26  2  0  0  0  0
 26 27  1  0  0  0  0
  2 29  1  0  0  0  0
  3 30  1  0  0  0  0
  4 31  1  0  0  0  0
  5 32  1  0  0  0  0
 10 33  1  0  0  0  0
 10 34  1  0  0  0  0
 13 35  1  0  0  0  0
 14 36  1  0  0  0  0
 16 37  1  0  0  0  0
 17 38  1  0  0  0  0
 19 39  1  0  0  0  0
 22 40  1  0  0  0  0
 23 41  1  0  0  0  0
 23 42  1  0  0  0  0
 23 43  1  0  0  0  0
 25 44  1  0  0  0  0
 26 45  1  0  0  0  0
 28 46  1  0  0  0  0
 28 47  1  0  0  0  0
 28 48  1  0  0  0  0
M  END
> <Name>
22

> <IC50[uM]>
0.032

$$$$
22
  -OEChem-05192314333D
 Structure written by MMmdl.
 48 52  0     0  0  0  0  0  0999 V2000
   -6.3943   12.3306  -11.9839 C   0  0  0  0  0  0  0  0  0  0  0  0
   -6.5449   11.7624  -10.7224 C   0  0  0  0  0  0  0  0  0  0  0  0
   -7.7389   10.5318  -13.0493 C   0  0  0  0  0  0  0  0  0  0  0  0
   -6.9892   11.7416  -13.1218 C   0  0  0  0  0  0  0  0  0  0  0  0
   -7.8445    9.9757  -11.7834 C   0  0  0  0  0  0  0  0  0  0  0  0
   -7.2758   10.5697  -10.6136 C   0  0  0  0  0  0  0  0  0  0  0  0
   -7.6401    9.7111   -9.5254 C   0  0  0  0  0  0  0  0  0  0  0  0
   -8.3075    8.6850  -10.0132 N   0  0  0  0  0  0  0  0  0  0  0  0
   -8.4539    8.8245  -11.3160 N   0  0  0  0  0  0  0  0  0  0  0  0
   -7.3472    9.8680   -8.0446 C   0  0  0  0  0  0  0  0  0  0  0  0
   -5.5569   13.6094  -12.1739 C   0  0  0  0  0  0  0  0  0  0  0  0
   -5.9691   10.4796   -7.7443 C   0  0  0  0  0  0  0  0  0  0  0  0
   -5.8622   11.7497   -7.1624 C   0  0  0  0  0  0  0  0  0  0  0  0
   -4.6000   12.2988   -6.9070 C   0  0  0  0  0  0  0  0  0  0  0  0
   -3.4496   11.5829   -7.2293 C   0  0  0  0  0  0  0  0  0  0  0  0
   -3.5554   10.3089   -7.8035 C   0  0  0  0  0  0  0  0  0  0  0  0
   -4.8209    9.7667   -8.0554 C   0  0  0  0  0  0  0  0  0  0  0  0
   -2.0956   12.1660   -6.9654 C   0  0  0  0  0  0  0  0  0  0  0  0
   -1.7384   13.4130   -6.4683 C   0  0  0  0  0  0  0  0  0  0  0  0
   -0.4069   13.4502   -6.4129 N   0  0  0  0  0  0  0  0  0  0  0  0
    0.1813   12.3566   -6.8171 N   0  0  0  0  0  0  0  0  0  0  0  0
   -0.7988   11.5478   -7.1867 C   0  0  0  0  0  0  0  0  0  0  0  0
    0.4282   14.5550   -5.9664 C   0  0  0  0  0  0  0  0  0  0  0  0
   -4.7714   14.2106  -11.2027 N   0  0  0  0  0  0  0  0  0  0  0  0
   -4.2061   15.2849  -11.7862 C   0  0  0  0  0  0  0  0  0  0  0  0
   -4.6883   15.3268  -13.0997 C   0  0  0  0  0  0  0  0  0  0  0  0
   -5.5027   14.2765  -13.3098 N   0  0  0  0  0  0  0  0  0  0  0  0
   -4.5364   13.8232   -9.7989 C   0  0  0  0  0  0  0  0  0  0  0  0
   -6.1104   12.2275   -9.8498 H   0  0  0  0  0  0  0  0  0  0  0  0
   -8.1928   10.0800  -13.9189 H   0  0  0  0  0  0  0  0  0  0  0  0
   -7.6693   12.4990  -13.5386 H   0  0  0  0  0  0  0  0  0  0  0  0
   -6.1709   11.5529  -13.8323 H   0  0  0  0  0  0  0  0  0  0  0  0
   -8.1181   10.5187   -7.6060 H   0  0  0  0  0  0  0  0  0  0  0  0
   -7.3952    8.8746   -7.5748 H   0  0  0  0  0  0  0  0  0  0  0  0
   -6.7536   12.3051   -6.9109 H   0  0  0  0  0  0  0  0  0  0  0  0
   -4.5183   13.2784   -6.4597 H   0  0  0  0  0  0  0  0  0  0  0  0
   -2.6656    9.7487   -8.0502 H   0  0  0  0  0  0  0  0  0  0  0  0
   -4.9040    8.7842   -8.4961 H   0  0  0  0  0  0  0  0  0  0  0  0
   -2.4137   14.2051   -6.1803 H   0  0  0  0  0  0  0  0  0  0  0  0
   -0.6543   10.5597   -7.5981 H   0  0  0  0  0  0  0  0  0  0  0  0
    1.4877   14.2705   -6.0474 H   0  0  0  0  0  0  0  0  0  0  0  0
    0.2364   15.4369   -6.5953 H   0  0  0  0  0  0  0  0  0  0  0  0
    0.1917   14.7932   -4.9189 H   0  0  0  0  0  0  0  0  0  0  0  0
   -3.5156   15.9786  -11.3298 H   0  0  0  0  0  0  0  0  0  0  0  0
   -4.4447   16.0839  -13.8303 H   0  0  0  0  0  0  0  0  0  0  0  0
   -3.8494   14.5427   -9.3295 H   0  0  0  0  0  0  0  0  0  0  0  0
   -5.4922   13.8204   -9.2545 H   0  0  0  0  0  0  0  0  0  0  0  0
   -4.0925   12.8173   -9.7656 H   0  0  0  0  0  0  0  0  0  0  0  0
  1  2  2  0  0  0  0
  1  4  1  0  0  0  0
  1 11  1  0  0  0  0
  2  6  1  0  0  0  0
  3  4  1  0  0  0  0
  3  5  2  0  0  0  0
  5  6  1  0  0  0  0
  5  9  1  0  0  0  0
  6  7  2  0  0  0  0
  7  8  1  0  0  0  0
  7 10  1  0  0  0  0
  8  9  2  0  0  0  0
 10 12  1  0  0  0  0
 11 24  1  0  0  0  0
 11 27  2  0  0  0  0
 12 13  2  0  0  0  0
 12 17  1  0  0  0  0
 13 14  1  0  0  0  0
 14 15  2  0  0  0  0
 15 16  1  0  0  0  0
 15 18  1  0  0  0  0
 16 17  2  0  0  0  0
 18 19  2  0  0  0  0
 18 22  1  0  0  0  0
 19 20  1  0  0  0  0
 20 21  1  0  0  0  0
 20 23  1  0  0  0  0
 21 22  2  0  0  0  0
 24 25  1  0  0  0  0
 24 28  1  0  0  0  0
 25 26  2  0  0  0  0
 26 27  1  0  0  0  0
  2 29  1  0  0  0  0
  3 30  1  0  0  0  0
  4 31  1  0  0  0  0
  4 32  1  0  0  0  0
 10 33  1  0  0  0  0
 10 34  1  0  0  0  0
 13 35  1  0  0  0  0
 14 36  1  0  0  0  0
 16 37  1  0  0  0  0
 17 38  1  0  0  0  0
 19 39  1  0  0  0  0
 22 40  1  0  0  0  0
 23 41  1  0  0  0  0
 23 42  1  0  0  0  0
 23 43  1  0  0  0  0
 25 44  1  0  0  0  0
 26 45  1  0  0  0  0
 28 46  1  0  0  0  0
 28 47  1  0  0  0  0
 28 48  1  0  0  0  0
M  END
> <Name>
22

> <IC50[uM]>
0.032

$$$$
22
  -OEChem-05192314333D
 Structure written by MMmdl.
 48 52  0     0  0  0  0  0  0999 V2000
   -6.3943   12.3306  -11.9839 C   0  0  0  0  0  0  0  0  0  0  0  0
   -6.5449   11.7624  -10.7224 C   0  0  0  0  0  0  0  0  0  0  0  0
   -7.7389   10.5318  -13.0493 C   0  0  0  0  0  0  0  0  0  0  0  0
   -6.9892   11.7416  -13.1218 C   0  0  0  0  0  0  0  0  0  0  0  0
   -7.8445    9.9757  -11.7834 C   0  0  0  0  0  0  0  0  0  0  0  0
   -7.2758   10.5697  -10.6136 C   0  0  0  0  0  0  0  0  0  0  0  0
   -7.6401    9.7111   -9.5254 C   0  0  0  0  0  0  0  0  0  0  0  0
   -8.3075    8.6850  -10.0132 N   0  0  0  0  0  0  0  0  0  0  0  0
   -8.4539    8.8245  -11.3160 N   0  0  0  0  0  0  0  0  0  0  0  0
   -7.3472    9.8680   -8.0446 C   0  0  0  0  0  0  0  0  0  0  0  0
   -5.5569   13.6094  -12.1739 C   0  0  0  0  0  0  0  0  0  0  0  0
   -5.9691   10.4796   -7.7443 C   0  0  0  0  0  0  0  0  0  0  0  0
   -5.8622   11.7497   -7.1624 C   0  0  0  0  0  0  0  0  0  0  0  0
   -4.6000   12.2988   -6.9070 C   0  0  0  0  0  0  0  0  0  0  0  0
   -3.4496   11.5829   -7.2293 C   0  0  0  0  0  0  0  0  0  0  0  0
   -3.5554   10.3089   -7.8035 C   0  0  0  0  0  0  0  0  0  0  0  0
   -4.8209    9.7667   -8.0554 C   0  0  0  0  0  0  0  0  0  0  0  0
   -2.0956   12.1660   -6.9654 C   0  0  0  0  0  0  0  0  0  0  0  0
   -1.7384   13.4130   -6.4683 C   0  0  0  0  0  0  0  0  0  0  0  0
   -0.4069   13.4502   -6.4129 N   0  0  0  0  0  0  0  0  0  0  0  0
    0.1813   12.3566   -6.8171 N   0  0  0  0  0  0  0  0  0  0  0  0
   -0.7988   11.5478   -7.1867 C   0  0  0  0  0  0  0  0  0  0  0  0
    0.4282   14.5550   -5.9664 C   0  0  0  0  0  0  0  0  0  0  0  0
   -4.7714   14.2106  -11.2027 N   0  0  0  0  0  0  0  0  0  0  0  0
   -4.2061   15.2849  -11.7862 C   0  0  0  0  0  0  0  0  0  0  0  0
   -4.6883   15.3268  -13.0997 C   0  0  0  0  0  0  0  0  0  0  0  0
   -5.5027   14.2765  -13.3098 N   0  0  0  0  0  0  0  0  0  0  0  0
   -4.5364   13.8232   -9.7989 C   0  0  0  0  0  0  0  0  0  0  0  0
   -5.5359   11.5629  -10.3324 H   0  0  0  0  0  0  0  0  0  0  0  0
   -7.0429   12.5089  -10.0862 H   0  0  0  0  0  0  0  0  0  0  0  0
   -8.1928   10.0800  -13.9189 H   0  0  0  0  0  0  0  0  0  0  0  0
   -6.8717   12.2251  -14.0803 H   0  0  0  0  0  0  0  0  0  0  0  0
   -8.1181   10.5187   -7.6060 H   0  0  0  0  0  0  0  0  0  0  0  0
   -7.3952    8.8746   -7.5748 H   0  0  0  0  0  0  0  0  0  0  0  0
   -6.7536   12.3051   -6.9109 H   0  0  0  0  0  0  0  0  0  0  0  0
   -4.5183   13.2784   -6.4597 H   0  0  0  0  0  0  0  0  0  0  0  0
   -2.6656    9.7487   -8.0502 H   0  0  0  0  0  0  0  0  0  0  0  0
   -4.9040    8.7842   -8.4961 H   0  0  0  0  0  0  0  0  0  0  0  0
   -2.4137   14.2051   -6.1803 H   0  0  0  0  0  0  0  0  0  0  0  0
   -0.6543   10.5597   -7.5981 H   0  0  0  0  0  0  0  0  0  0  0  0
    1.4877   14.2705   -6.0474 H   0  0  0  0  0  0  0  0  0  0  0  0
    0.2364   15.4369   -6.5953 H   0  0  0  0  0  0  0  0  0  0  0  0
    0.1917   14.7932   -4.9189 H   0  0  0  0  0  0  0  0  0  0  0  0
   -3.5156   15.9786  -11.3298 H   0  0  0  0  0  0  0  0  0  0  0  0
   -4.4447   16.0839  -13.8303 H   0  0  0  0  0  0  0  0  0  0  0  0
   -3.8494   14.5427   -9.3295 H   0  0  0  0  0  0  0  0  0  0  0  0
   -5.4922   13.8204   -9.2545 H   0  0  0  0  0  0  0  0  0  0  0  0
   -4.0925   12.8173   -9.7656 H   0  0  0  0  0  0  0  0  0  0  0  0
  1  2  1  0  0  0  0
  1  4  2  0  0  0  0
  1 11  1  0  0  0  0
  2  6  1  0  0  0  0
  3  4  1  0  0  0  0
  3  5  2  0  0  0  0
  5  6  1  0  0  0  0
  5  9  1  0  0  0  0
  6  7  2  0  0  0  0
  7  8  1  0  0  0  0
  7 10  1  0  0  0  0
  8  9  2  0  0  0  0
 10 12  1  0  0  0  0
 11 24  1  0  0  0  0
 11 27  2  0  0  0  0
 12 13  2  0  0  0  0
 12 17  1  0  0  0  0
 13 14  1  0  0  0  0
 14 15  2  0  0  0  0
 15 16  1  0  0  0  0
 15 18  1  0  0  0  0
 16 17  2  0  0  0  0
 18 19  2  0  0  0  0
 18 22  1  0  0  0  0
 19 20  1  0  0  0  0
 20 21  1  0  0  0  0
 20 23  1  0  0  0  0
 21 22  2  0  0  0  0
 24 25  1  0  0  0  0
 24 28  1  0  0  0  0
 25 26  2  0  0  0  0
 26 27  1  0  0  0  0
  2 29  1  0  0  0  0
  2 30  1  0  0  0  0
  3 31  1  0  0  0  0
  4 32  1  0  0  0  0
 10 33  1  0  0  0  0
 10 34  1  0  0  0  0
 13 35  1  0  0  0  0
 14 36  1  0  0  0  0
 16 37  1  0  0  0  0
 17 38  1  0  0  0  0
 19 39  1  0  0  0  0
 22 40  1  0  0  0  0
 23 41  1  0  0  0  0
 23 42  1  0  0  0  0
 23 43  1  0  0  0  0
 25 44  1  0  0  0  0
 26 45  1  0  0  0  0
 28 46  1  0  0  0  0
 28 47  1  0  0  0  0
 28 48  1  0  0  0  0
M  END
> <Name>
22

> <IC50[uM]>
0.032

$$$$
22
  -OEChem-05192314333D
 Structure written by MMmdl.
 48 52  0     1  0  0  0  0  0999 V2000
   -6.3943   12.3306  -11.9839 C   0  0  0  0  0  0  0  0  0  0  0  0
   -6.5449   11.7624  -10.7224 C   0  0  0  0  0  0  0  0  0  0  0  0
   -7.7389   10.5318  -13.0493 C   0  0  0  0  0  0  0  0  0  0  0  0
   -6.9892   11.7416  -13.1218 C   0  0  0  0  0  0  0  0  0  0  0  0
   -7.8445    9.9757  -11.7834 C   0  0  0  0  0  0  0  0  0  0  0  0
   -7.2758   10.5697  -10.6136 C   0  0  3  0  0  0  0  0  0  0  0  0
   -7.6401    9.7111   -9.5254 C   0  0  0  0  0  0  0  0  0  0  0  0
   -8.3075    8.6850  -10.0132 N   0  0  0  0  0  0  0  0  0  0  0  0
   -8.4539    8.8245  -11.3160 N   0  0  0  0  0  0  0  0  0  0  0  0
   -7.3472    9.8680   -8.0446 C   0  0  0  0  0  0  0  0  0  0  0  0
   -5.5569   13.6094  -12.1739 C   0  0  0  0  0  0  0  0  0  0  0  0
   -5.9691   10.4796   -7.7443 C   0  0  0  0  0  0  0  0  0  0  0  0
   -5.8622   11.7497   -7.1624 C   0  0  0  0  0  0  0  0  0  0  0  0
   -4.6000   12.2988   -6.9070 C   0  0  0  0  0  0  0  0  0  0  0  0
   -3.4496   11.5829   -7.2293 C   0  0  0  0  0  0  0  0  0  0  0  0
   -3.5554   10.3089   -7.8035 C   0  0  0  0  0  0  0  0  0  0  0  0
   -4.8209    9.7667   -8.0554 C   0  0  0  0  0  0  0  0  0  0  0  0
   -2.0956   12.1660   -6.9654 C   0  0  0  0  0  0  0  0  0  0  0  0
   -1.7384   13.4130   -6.4683 C   0  0  0  0  0  0  0  0  0  0  0  0
   -0.4069   13.4502   -6.4129 N   0  0  0  0  0  0  0  0  0  0  0  0
    0.1813   12.3566   -6.8171 N   0  0  0  0  0  0  0  0  0  0  0  0
   -0.7988   11.5478   -7.1867 C   0  0  0  0  0  0  0  0  0  0  0  0
    0.4282   14.5550   -5.9664 C   0  0  0  0  0  0  0  0  0  0  0  0
   -4.7714   14.2106  -11.2027 N   0  0  0  0  0  0  0  0  0  0  0  0
   -4.2061   15.2849  -11.7862 C   0  0  0  0  0  0  0  0  0  0  0  0
   -4.6883   15.3268  -13.0997 C   0  0  0  0  0  0  0  0  0  0  0  0
   -5.5027   14.2765  -13.3098 N   0  0  0  0  0  0  0  0  0  0  0  0
   -4.5364   13.8232   -9.7989 C   0  0  0  0  0  0  0  0  0  0  0  0
   -6.1104   12.2275   -9.8498 H   0  0  0  0  0  0  0  0  0  0  0  0
   -8.1928   10.0800  -13.9189 H   0  0  0  0  0  0  0  0  0  0  0  0
   -6.8717   12.2251  -14.0803 H   0  0  0  0  0  0  0  0  0  0  0  0
   -6.3539    9.9891  -10.7651 H   0  0  0  0  0  0  0  0  0  0  0  0
   -8.6516    7.9153   -9.4755 H   0  0  0  0  0  0  0  0  0  0  0  0
   -8.0435    9.5766   -7.2721 H   0  0  0  0  0  0  0  0  0  0  0  0
   -6.7536   12.3051   -6.9109 H   0  0  0  0  0  0  0  0  0  0  0  0
   -4.5183   13.2784   -6.4597 H   0  0  0  0  0  0  0  0  0  0  0  0
   -2.6656    9.7487   -8.0502 H   0  0  0  0  0  0  0  0  0  0  0  0
   -4.9040    8.7842   -8.4961 H   0  0  0  0  0  0  0  0  0  0  0  0
   -2.4137   14.2051   -6.1803 H   0  0  0  0  0  0  0  0  0  0  0  0
   -0.6543   10.5597   -7.5981 H   0  0  0  0  0  0  0  0  0  0  0  0
    1.4877   14.2705   -6.0474 H   0  0  0  0  0  0  0  0  0  0  0  0
    0.2364   15.4369   -6.5953 H   0  0  0  0  0  0  0  0  0  0  0  0
    0.1917   14.7932   -4.9189 H   0  0  0  0  0  0  0  0  0  0  0  0
   -3.5156   15.9786  -11.3298 H   0  0  0  0  0  0  0  0  0  0  0  0
   -4.4447   16.0839  -13.8303 H   0  0  0  0  0  0  0  0  0  0  0  0
   -3.8494   14.5427   -9.3295 H   0  0  0  0  0  0  0  0  0  0  0  0
   -5.4922   13.8204   -9.2545 H   0  0  0  0  0  0  0  0  0  0  0  0
   -4.0925   12.8173   -9.7656 H   0  0  0  0  0  0  0  0  0  0  0  0
  1  2  2  0  0  0  0
  1  4  1  0  0  0  0
  1 11  1  0  0  0  0
  2  6  1  0  0  0  0
  3  4  2  0  0  0  0
  3  5  1  0  0  0  0
  5  6  1  0  0  0  0
  5  9  2  0  0  0  0
  6  7  1  0  0  0  0
  7  8  1  0  0  0  0
  7 10  2  3  0  0  0
  8  9  1  0  0  0  0
 10 12  1  0  0  0  0
 11 24  1  0  0  0  0
 11 27  2  0  0  0  0
 12 13  2  0  0  0  0
 12 17  1  0  0  0  0
 13 14  1  0  0  0  0
 14 15  2  0  0  0  0
 15 16  1  0  0  0  0
 15 18  1  0  0  0  0
 16 17  2  0  0  0  0
 18 19  2  0  0  0  0
 18 22  1  0  0  0  0
 19 20  1  0  0  0  0
 20 21  1  0  0  0  0
 20 23  1  0  0  0  0
 21 22  2  0  0  0  0
 24 25  1  0  0  0  0
 24 28  1  0  0  0  0
 25 26  2  0  0  0  0
 26 27  1  0  0  0  0
  2 29  1  0  0  0  0
  3 30  1  0  0  0  0
  4 31  1  0  0  0  0
  6 32  1  0  0  0  0
  8 33  1  0  0  0  0
 10 34  1  0  0  0  0
 13 35  1  0  0  0  0
 14 36  1  0  0  0  0
 16 37  1  0  0  0  0
 17 38  1  0  0  0  0
 19 39  1  0  0  0  0
 22 40  1  0  0  0  0
 23 41  1  0  0  0  0
 23 42  1  0  0  0  0
 23 43  1  0  0  0  0
 25 44  1  0  0  0  0
 26 45  1  0  0  0  0
 28 46  1  0  0  0  0
 28 47  1  0  0  0  0
 28 48  1  0  0  0  0
M  END
> <Name>
22

> <IC50[uM]>
0.032

$$$$
22
  -OEChem-05192314333D
 Structure written by MMmdl.
 48 52  0     1  0  0  0  0  0999 V2000
   -6.3943   12.3306  -11.9839 C   0  0  0  0  0  0  0  0  0  0  0  0
   -6.5449   11.7624  -10.7224 C   0  0  0  0  0  0  0  0  0  0  0  0
   -7.7389   10.5318  -13.0493 C   0  0  0  0  0  0  0  0  0  0  0  0
   -6.9892   11.7416  -13.1218 C   0  0  0  0  0  0  0  0  0  0  0  0
   -7.8445    9.9757  -11.7834 C   0  0  0  0  0  0  0  0  0  0  0  0
   -7.2758   10.5697  -10.6136 C   0  0  0  0  0  0  0  0  0  0  0  0
   -7.6401    9.7111   -9.5254 C   0  0  0  0  0  0  0  0  0  0  0  0
   -8.3075    8.6850  -10.0132 N   0  0  0  0  0  0  0  0  0  0  0  0
   -8.4539    8.8245  -11.3160 N   0  0  0  0  0  0  0  0  0  0  0  0
   -7.3472    9.8680   -8.0446 C   0  0  0  0  0  0  0  0  0  0  0  0
   -5.5569   13.6094  -12.1739 C   0  0  0  0  0  0  0  0  0  0  0  0
   -5.9691   10.4796   -7.7443 C   0  0  0  0  0  0  0  0  0  0  0  0
   -5.8622   11.7497   -7.1624 C   0  0  0  0  0  0  0  0  0  0  0  0
   -4.6000   12.2988   -6.9070 C   0  0  0  0  0  0  0  0  0  0  0  0
   -3.4496   11.5829   -7.2293 C   0  0  0  0  0  0  0  0  0  0  0  0
   -3.5554   10.3089   -7.8035 C   0  0  0  0  0  0  0  0  0  0  0  0
   -4.8209    9.7667   -8.0554 C   0  0  0  0  0  0  0  0  0  0  0  0
   -2.0956   12.1660   -6.9654 C   0  0  0  0  0  0  0  0  0  0  0  0
   -1.7384   13.4130   -6.4683 C   0  0  0  0  0  0  0  0  0  0  0  0
   -0.4069   13.4502   -6.4129 N   0  0  3  0  0  0  0  0  0  0  0  0
    0.1813   12.3566   -6.8171 N   0  0  0  0  0  0  0  0  0  0  0  0
   -0.7988   11.5478   -7.1867 C   0  0  0  0  0  0  0  0  0  0  0  0
    0.4282   14.5550   -5.9664 C   0  0  0  0  0  0  0  0  0  0  0  0
   -4.7714   14.2106  -11.2027 N   0  0  3  0  0  0  0  0  0  0  0  0
   -4.2061   15.2849  -11.7862 C   0  0  0  0  0  0  0  0  0  0  0  0
   -4.6883   15.3268  -13.0997 C   0  0  0  0  0  0  0  0  0  0  0  0
   -5.5027   14.2765  -13.3098 N   0  0  0  0  0  0  0  0  0  0  0  0
   -4.5364   13.8232   -9.7989 C   0  0  0  0  0  0  0  0  0  0  0  0
   -6.1104   12.2275   -9.8498 H   0  0  0  0  0  0  0  0  0  0  0  0
   -8.1928   10.0800  -13.9189 H   0  0  0  0  0  0  0  0  0  0  0  0
   -6.8717   12.2251  -14.0803 H   0  0  0  0  0  0  0  0  0  0  0  0
   -8.0435    9.5766   -7.2721 H   0  0  0  0  0  0  0  0  0  0  0  0
   -6.7536   12.3051   -6.9109 H   0  0  0  0  0  0  0  0  0  0  0  0
   -4.5183   13.2784   -6.4597 H   0  0  0  0  0  0  0  0  0  0  0  0
   -2.6656    9.7487   -8.0502 H   0  0  0  0  0  0  0  0  0  0  0  0
   -4.9040    8.7842   -8.4961 H   0  0  0  0  0  0  0  0  0  0  0  0
   -2.1098   14.2048   -7.1354 H   0  0  0  0  0  0  0  0  0  0  0  0
   -2.1612   13.5527   -5.4625 H   0  0  0  0  0  0  0  0  0  0  0  0
   -0.6543   10.5597   -7.5981 H   0  0  0  0  0  0  0  0  0  0  0  0
    1.4877   14.2705   -6.0474 H   0  0  0  0  0  0  0  0  0  0  0  0
    0.2364   15.4369   -6.5953 H   0  0  0  0  0  0  0  0  0  0  0  0
    0.1917   14.7932   -4.9189 H   0  0  0  0  0  0  0  0  0  0  0  0
   -4.4893   16.2018  -11.2485 H   0  0  0  0  0  0  0  0  0  0  0  0
   -3.1108   15.1839  -11.7871 H   0  0  0  0  0  0  0  0  0  0  0  0
   -4.4447   16.0839  -13.8303 H   0  0  0  0  0  0  0  0  0  0  0  0
   -3.8494   14.5427   -9.3295 H   0  0  0  0  0  0  0  0  0  0  0  0
   -5.4922   13.8204   -9.2545 H   0  0  0  0  0  0  0  0  0  0  0  0
   -4.0925   12.8173   -9.7656 H   0  0  0  0  0  0  0  0  0  0  0  0
  1  2  1  0  0  0  0
  1  4  1  0  0  0  0
  1 11  2  0  0  0  0
  2  6  2  0  0  0  0
  3  4  2  0  0  0  0
  3  5  1  0  0  0  0
  5  6  1  0  0  0  0
  5  9  2  0  0  0  0
  6  7  1  0  0  0  0
  7  8  2  0  0  0  0
  7 10  1  0  0  0  0
  8  9  1  0  0  0  0
 10 12  2  0  0  0  0
 11 24  1  0  0  0  0
 11 27  1  0  0  0  0
 12 13  1  0  0  0  0
 12 17  1  0  0  0  0
 13 14  2  0  0  0  0
 14 15  1  0  0  0  0
 15 16  1  0  0  0  0
 15 18  2  0  0  0  0
 16 17  2  0  0  0  0
 18 19  1  0  0  0  0
 18 22  1  0  0  0  0
 19 20  1  0  0  0  0
 20 21  1  0  0  0  0
 20 23  1  0  0  0  0
 21 22  2  0  0  0  0
 24 25  1  0  0  0  0
 24 28  1  0  0  0  0
 25 26  1  0  0  0  0
 26 27  2  0  0  0  0
  2 29  1  0  0  0  0
  3 30  1  0  0  0  0
  4 31  1  0  0  0  0
 10 32  1  0  0  0  0
 13 33  1  0  0  0  0
 14 34  1  0  0  0  0
 16 35  1  0  0  0  0
 17 36  1  0  0  0  0
 19 37  1  0  0  0  0
 19 38  1  0  0  0  0
 22 39  1  0  0  0  0
 23 40  1  0  0  0  0
 23 41  1  0  0  0  0
 23 42  1  0  0  0  0
 25 43  1  0  0  0  0
 25 44  1  0  0  0  0
 26 45  1  0  0  0  0
 28 46  1  0  0  0  0
 28 47  1  0  0  0  0
 28 48  1  0  0  0  0
M  END
> <Name>
22

> <IC50[uM]>
0.032

$$$$
22
  -OEChem-05192314333D
 Structure written by MMmdl.
 48 52  0     1  0  0  0  0  0999 V2000
   -6.3943   12.3306  -11.9839 C   0  0  0  0  0  0  0  0  0  0  0  0
   -6.5449   11.7624  -10.7224 C   0  0  0  0  0  0  0  0  0  0  0  0
   -7.7389   10.5318  -13.0493 C   0  0  0  0  0  0  0  0  0  0  0  0
   -6.9892   11.7416  -13.1218 C   0  0  0  0  0  0  0  0  0  0  0  0
   -7.8445    9.9757  -11.7834 C   0  0  0  0  0  0  0  0  0  0  0  0
   -7.2758   10.5697  -10.6136 C   0  0  0  0  0  0  0  0  0  0  0  0
   -7.6401    9.7111   -9.5254 C   0  0  0  0  0  0  0  0  0  0  0  0
   -8.3075    8.6850  -10.0132 N   0  0  0  0  0  0  0  0  0  0  0  0
   -8.4539    8.8245  -11.3160 N   0  0  0  0  0  0  0  0  0  0  0  0
   -7.3472    9.8680   -8.0446 C   0  0  0  0  0  0  0  0  0  0  0  0
   -5.5569   13.6094  -12.1739 C   0  0  0  0  0  0  0  0  0  0  0  0
   -5.9691   10.4796   -7.7443 C   0  0  0  0  0  0  0  0  0  0  0  0
   -5.8622   11.7497   -7.1624 C   0  0  0  0  0  0  0  0  0  0  0  0
   -4.6000   12.2988   -6.9070 C   0  0  0  0  0  0  0  0  0  0  0  0
   -3.4496   11.5829   -7.2293 C   0  0  0  0  0  0  0  0  0  0  0  0
   -3.5554   10.3089   -7.8035 C   0  0  0  0  0  0  0  0  0  0  0  0
   -4.8209    9.7667   -8.0554 C   0  0  0  0  0  0  0  0  0  0  0  0
   -2.0956   12.1660   -6.9654 C   0  0  0  0  0  0  0  0  0  0  0  0
   -1.7384   13.4130   -6.4683 C   0  0  0  0  0  0  0  0  0  0  0  0
   -0.4069   13.4502   -6.4129 N   0  0  3  0  0  0  0  0  0  0  0  0
    0.1813   12.3566   -6.8171 N   0  0  0  0  0  0  0  0  0  0  0  0
   -0.7988   11.5478   -7.1867 C   0  0  0  0  0  0  0  0  0  0  0  0
    0.4282   14.5550   -5.9664 C   0  0  0  0  0  0  0  0  0  0  0  0
   -4.7714   14.2106  -11.2027 N   0  0  0  0  0  0  0  0  0  0  0  0
   -4.2061   15.2849  -11.7862 C   0  0  0  0  0  0  0  0  0  0  0  0
   -4.6883   15.3268  -13.0997 C   0  0  0  0  0  0  0  0  0  0  0  0
   -5.5027   14.2765  -13.3098 N   0  0  0  0  0  0  0  0  0  0  0  0
   -4.5364   13.8232   -9.7989 C   0  0  0  0  0  0  0  0  0  0  0  0
   -6.1104   12.2275   -9.8498 H   0  0  0  0  0  0  0  0  0  0  0  0
   -8.1928   10.0800  -13.9189 H   0  0  0  0  0  0  0  0  0  0  0  0
   -6.8717   12.2251  -14.0803 H   0  0  0  0  0  0  0  0  0  0  0  0
   -8.0435    9.5766   -7.2721 H   0  0  0  0  0  0  0  0  0  0  0  0
   -6.7536   12.3051   -6.9109 H   0  0  0  0  0  0  0  0  0  0  0  0
   -4.5183   13.2784   -6.4597 H   0  0  0  0  0  0  0  0  0  0  0  0
   -2.6656    9.7487   -8.0502 H   0  0  0  0  0  0  0  0  0  0  0  0
   -4.9040    8.7842   -8.4961 H   0  0  0  0  0  0  0  0  0  0  0  0
   -2.1098   14.2048   -7.1354 H   0  0  0  0  0  0  0  0  0  0  0  0
   -2.1612   13.5527   -5.4625 H   0  0  0  0  0  0  0  0  0  0  0  0
   -0.6543   10.5597   -7.5981 H   0  0  0  0  0  0  0  0  0  0  0  0
    1.4877   14.2705   -6.0474 H   0  0  0  0  0  0  0  0  0  0  0  0
    0.2364   15.4369   -6.5953 H   0  0  0  0  0  0  0  0  0  0  0  0
    0.1917   14.7932   -4.9189 H   0  0  0  0  0  0  0  0  0  0  0  0
   -3.5156   15.9786  -11.3298 H   0  0  0  0  0  0  0  0  0  0  0  0
   -4.4447   16.0839  -13.8303 H   0  0  0  0  0  0  0  0  0  0  0  0
   -5.9746   14.0468  -14.1610 H   0  0  0  0  0  0  0  0  0  0  0  0
   -3.8494   14.5427   -9.3295 H   0  0  0  0  0  0  0  0  0  0  0  0
   -5.4922   13.8204   -9.2545 H   0  0  0  0  0  0  0  0  0  0  0  0
   -4.0925   12.8173   -9.7656 H   0  0  0  0  0  0  0  0  0  0  0  0
  1  2  1  0  0  0  0
  1  4  1  0  0  0  0
  1 11  2  0  0  0  0
  2  6  2  0  0  0  0
  3  4  2  0  0  0  0
  3  5  1  0  0  0  0
  5  6  1  0  0  0  0
  5  9  2  0  0  0  0
  6  7  1  0  0  0  0
  7  8  2  0  0  0  0
  7 10  1  0  0  0  0
  8  9  1  0  0  0  0
 10 12  2  0  0  0  0
 11 24  1  0  0  0  0
 11 27  1  0  0  0  0
 12 13  1  0  0  0  0
 12 17  1  0  0  0  0
 13 14  2  0  0  0  0
 14 15  1  0  0  0  0
 15 16  1  0  0  0  0
 15 18  2  0  0  0  0
 16 17  2  0  0  0  0
 18 19  1  0  0  0  0
 18 22  1  0  0  0  0
 19 20  1  0  0  0  0
 20 21  1  0  0  0  0
 20 23  1  0  0  0  0
 21 22  2  0  0  0  0
 24 25  1  0  0  0  0
 24 28  1  0  0  0  0
 25 26  2  0  0  0  0
 26 27  1  0  0  0  0
  2 29  1  0  0  0  0
  3 30  1  0  0  0  0
  4 31  1  0  0  0  0
 10 32  1  0  0  0  0
 13 33  1  0  0  0  0
 14 34  1  0  0  0  0
 16 35  1  0  0  0  0
 17 36  1  0  0  0  0
 19 37  1  0  0  0  0
 19 38  1  0  0  0  0
 22 39  1  0  0  0  0
 23 40  1  0  0  0  0
 23 41  1  0  0  0  0
 23 42  1  0  0  0  0
 25 43  1  0  0  0  0
 26 44  1  0  0  0  0
 27 45  1  0  0  0  0
 28 46  1  0  0  0  0
 28 47  1  0  0  0  0
 28 48  1  0  0  0  0
M  END
> <Name>
22

> <IC50[uM]>
0.032

$$$$
22
  -OEChem-05192314333D
 Structure written by MMmdl.
 48 52  0     1  0  0  0  0  0999 V2000
   -6.3943   12.3306  -11.9839 C   0  0  0  0  0  0  0  0  0  0  0  0
   -6.5449   11.7624  -10.7224 C   0  0  0  0  0  0  0  0  0  0  0  0
   -7.7389   10.5318  -13.0493 C   0  0  0  0  0  0  0  0  0  0  0  0
   -6.9892   11.7416  -13.1218 C   0  0  0  0  0  0  0  0  0  0  0  0
   -7.8445    9.9757  -11.7834 C   0  0  0  0  0  0  0  0  0  0  0  0
   -7.2758   10.5697  -10.6136 C   0  0  0  0  0  0  0  0  0  0  0  0
   -7.6401    9.7111   -9.5254 C   0  0  0  0  0  0  0  0  0  0  0  0
   -8.3075    8.6850  -10.0132 N   0  0  0  0  0  0  0  0  0  0  0  0
   -8.4539    8.8245  -11.3160 N   0  0  0  0  0  0  0  0  0  0  0  0
   -7.3472    9.8680   -8.0446 C   0  0  0  0  0  0  0  0  0  0  0  0
   -5.5569   13.6094  -12.1739 C   0  0  0  0  0  0  0  0  0  0  0  0
   -5.9691   10.4796   -7.7443 C   0  0  0  0  0  0  0  0  0  0  0  0
   -5.8622   11.7497   -7.1624 C   0  0  0  0  0  0  0  0  0  0  0  0
   -4.6000   12.2988   -6.9070 C   0  0  0  0  0  0  0  0  0  0  0  0
   -3.4496   11.5829   -7.2293 C   0  0  0  0  0  0  0  0  0  0  0  0
   -3.5554   10.3089   -7.8035 C   0  0  0  0  0  0  0  0  0  0  0  0
   -4.8209    9.7667   -8.0554 C   0  0  0  0  0  0  0  0  0  0  0  0
   -2.0956   12.1660   -6.9654 C   0  0  0  0  0  0  0  0  0  0  0  0
   -1.7384   13.4130   -6.4683 C   0  0  0  0  0  0  0  0  0  0  0  0
   -0.4069   13.4502   -6.4129 N   0  0  3  0  0  0  0  0  0  0  0  0
    0.1813   12.3566   -6.8171 N   0  0  0  0  0  0  0  0  0  0  0  0
   -0.7988   11.5478   -7.1867 C   0  0  0  0  0  0  0  0  0  0  0  0
    0.4282   14.5550   -5.9664 C   0  0  0  0  0  0  0  0  0  0  0  0
   -4.7714   14.2106  -11.2027 N   0  0  0  0  0  0  0  0  0  0  0  0
   -4.2061   15.2849  -11.7862 C   0  0  0  0  0  0  0  0  0  0  0  0
   -4.6883   15.3268  -13.0997 C   0  0  0  0  0  0  0  0  0  0  0  0
   -5.5027   14.2765  -13.3098 N   0  0  0  0  0  0  0  0  0  0  0  0
   -4.5364   13.8232   -9.7989 C   0  0  0  0  0  0  0  0  0  0  0  0
   -6.1104   12.2275   -9.8498 H   0  0  0  0  0  0  0  0  0  0  0  0
   -8.1928   10.0800  -13.9189 H   0  0  0  0  0  0  0  0  0  0  0  0
   -6.8717   12.2251  -14.0803 H   0  0  0  0  0  0  0  0  0  0  0  0
   -8.0435    9.5766   -7.2721 H   0  0  0  0  0  0  0  0  0  0  0  0
   -5.9832   10.0218   -6.7442 H   0  0  0  0  0  0  0  0  0  0  0  0
   -6.7536   12.3051   -6.9109 H   0  0  0  0  0  0  0  0  0  0  0  0
   -4.5183   13.2784   -6.4597 H   0  0  0  0  0  0  0  0  0  0  0  0
   -2.6656    9.7487   -8.0502 H   0  0  0  0  0  0  0  0  0  0  0  0
   -4.9040    8.7842   -8.4961 H   0  0  0  0  0  0  0  0  0  0  0  0
   -2.1098   14.2048   -7.1354 H   0  0  0  0  0  0  0  0  0  0  0  0
   -2.1612   13.5527   -5.4625 H   0  0  0  0  0  0  0  0  0  0  0  0
   -0.6543   10.5597   -7.5981 H   0  0  0  0  0  0  0  0  0  0  0  0
    1.4877   14.2705   -6.0474 H   0  0  0  0  0  0  0  0  0  0  0  0
    0.2364   15.4369   -6.5953 H   0  0  0  0  0  0  0  0  0  0  0  0
    0.1917   14.7932   -4.9189 H   0  0  0  0  0  0  0  0  0  0  0  0
   -3.5156   15.9786  -11.3298 H   0  0  0  0  0  0  0  0  0  0  0  0
   -4.4447   16.0839  -13.8303 H   0  0  0  0  0  0  0  0  0  0  0  0
   -3.8494   14.5427   -9.3295 H   0  0  0  0  0  0  0  0  0  0  0  0
   -5.4922   13.8204   -9.2545 H   0  0  0  0  0  0  0  0  0  0  0  0
   -4.0925   12.8173   -9.7656 H   0  0  0  0  0  0  0  0  0  0  0  0
  1  2  2  0  0  0  0
  1  4  1  0  0  0  0
  1 11  1  0  0  0  0
  2  6  1  0  0  0  0
  3  4  2  0  0  0  0
  3  5  1  0  0  0  0
  5  6  2  0  0  0  0
  5  9  1  0  0  0  0
  6  7  1  0  0  0  0
  7  8  1  0  0  0  0
  7 10  2  3  0  0  0
  8  9  2  0  0  0  0
 10 12  1  0  0  0  0
 11 24  1  0  0  0  0
 11 27  2  0  0  0  0
 12 13  1  0  0  0  0
 12 17  1  0  0  0  0
 13 14  2  0  0  0  0
 14 15  1  0  0  0  0
 15 16  1  0  0  0  0
 15 18  2  0  0  0  0
 16 17  2  0  0  0  0
 18 19  1  0  0  0  0
 18 22  1  0  0  0  0
 19 20  1  0  0  0  0
 20 21  1  0  0  0  0
 20 23  1  0  0  0  0
 21 22  2  0  0  0  0
 24 25  1  0  0  0  0
 24 28  1  0  0  0  0
 25 26  2  0  0  0  0
 26 27  1  0  0  0  0
  2 29  1  0  0  0  0
  3 30  1  0  0  0  0
  4 31  1  0  0  0  0
 10 32  1  0  0  0  0
 12 33  1  0  0  0  0
 13 34  1  0  0  0  0
 14 35  1  0  0  0  0
 16 36  1  0  0  0  0
 17 37  1  0  0  0  0
 19 38  1  0  0  0  0
 19 39  1  0  0  0  0
 22 40  1  0  0  0  0
 23 41  1  0  0  0  0
 23 42  1  0  0  0  0
 23 43  1  0  0  0  0
 25 44  1  0  0  0  0
 26 45  1  0  0  0  0
 28 46  1  0  0  0  0
 28 47  1  0  0  0  0
 28 48  1  0  0  0  0
M  END
> <Name>
22

> <IC50[uM]>
0.032

$$$$
22
  -OEChem-05192314333D
 Structure written by MMmdl.
 48 52  0     1  0  0  0  0  0999 V2000
   -6.3943   12.3306  -11.9839 C   0  0  0  0  0  0  0  0  0  0  0  0
   -6.5449   11.7624  -10.7224 C   0  0  0  0  0  0  0  0  0  0  0  0
   -7.7389   10.5318  -13.0493 C   0  0  0  0  0  0  0  0  0  0  0  0
   -6.9892   11.7416  -13.1218 C   0  0  0  0  0  0  0  0  0  0  0  0
   -7.8445    9.9757  -11.7834 C   0  0  0  0  0  0  0  0  0  0  0  0
   -7.2758   10.5697  -10.6136 C   0  0  0  0  0  0  0  0  0  0  0  0
   -7.6401    9.7111   -9.5254 C   0  0  0  0  0  0  0  0  0  0  0  0
   -8.3075    8.6850  -10.0132 N   0  0  0  0  0  0  0  0  0  0  0  0
   -8.4539    8.8245  -11.3160 N   0  0  0  0  0  0  0  0  0  0  0  0
   -7.3472    9.8680   -8.0446 C   0  0  0  0  0  0  0  0  0  0  0  0
   -5.5569   13.6094  -12.1739 C   0  0  0  0  0  0  0  0  0  0  0  0
   -5.9691   10.4796   -7.7443 C   0  0  0  0  0  0  0  0  0  0  0  0
   -5.8622   11.7497   -7.1624 C   0  0  0  0  0  0  0  0  0  0  0  0
   -4.6000   12.2988   -6.9070 C   0  0  0  0  0  0  0  0  0  0  0  0
   -3.4496   11.5829   -7.2293 C   0  0  0  0  0  0  0  0  0  0  0  0
   -3.5554   10.3089   -7.8035 C   0  0  0  0  0  0  0  0  0  0  0  0
   -4.8209    9.7667   -8.0554 C   0  0  0  0  0  0  0  0  0  0  0  0
   -2.0956   12.1660   -6.9654 C   0  0  0  0  0  0  0  0  0  0  0  0
   -1.7384   13.4130   -6.4683 C   0  0  0  0  0  0  0  0  0  0  0  0
   -0.4069   13.4502   -6.4129 N   0  0  3  0  0  0  0  0  0  0  0  0
    0.1813   12.3566   -6.8171 N   0  0  0  0  0  0  0  0  0  0  0  0
   -0.7988   11.5478   -7.1867 C   0  0  0  0  0  0  0  0  0  0  0  0
    0.4282   14.5550   -5.9664 C   0  0  0  0  0  0  0  0  0  0  0  0
   -4.7714   14.2106  -11.2027 N   0  0  0  0  0  0  0  0  0  0  0  0
   -4.2061   15.2849  -11.7862 C   0  0  0  0  0  0  0  0  0  0  0  0
   -4.6883   15.3268  -13.0997 C   0  0  0  0  0  0  0  0  0  0  0  0
   -5.5027   14.2765  -13.3098 N   0  0  0  0  0  0  0  0  0  0  0  0
   -4.5364   13.8232   -9.7989 C   0  0  0  0  0  0  0  0  0  0  0  0
   -6.1104   12.2275   -9.8498 H   0  0  0  0  0  0  0  0  0  0  0  0
   -8.1928   10.0800  -13.9189 H   0  0  0  0  0  0  0  0  0  0  0  0
   -6.8717   12.2251  -14.0803 H   0  0  0  0  0  0  0  0  0  0  0  0
   -8.0435    9.5766   -7.2721 H   0  0  0  0  0  0  0  0  0  0  0  0
   -6.7536   12.3051   -6.9109 H   0  0  0  0  0  0  0  0  0  0  0  0
   -4.5488   13.2477   -7.4610 H   0  0  0  0  0  0  0  0  0  0  0  0
   -4.5551   12.5020   -5.8269 H   0  0  0  0  0  0  0  0  0  0  0  0
   -2.6656    9.7487   -8.0502 H   0  0  0  0  0  0  0  0  0  0  0  0
   -4.9040    8.7842   -8.4961 H   0  0  0  0  0  0  0  0  0  0  0  0
   -2.1098   14.2048   -7.1354 H   0  0  0  0  0  0  0  0  0  0  0  0
   -2.1612   13.5527   -5.4625 H   0  0  0  0  0  0  0  0  0  0  0  0
   -0.6543   10.5597   -7.5981 H   0  0  0  0  0  0  0  0  0  0  0  0
    1.4877   14.2705   -6.0474 H   0  0  0  0  0  0  0  0  0  0  0  0
    0.2364   15.4369   -6.5953 H   0  0  0  0  0  0  0  0  0  0  0  0
    0.1917   14.7932   -4.9189 H   0  0  0  0  0  0  0  0  0  0  0  0
   -3.5156   15.9786  -11.3298 H   0  0  0  0  0  0  0  0  0  0  0  0
   -4.4447   16.0839  -13.8303 H   0  0  0  0  0  0  0  0  0  0  0  0
   -3.8494   14.5427   -9.3295 H   0  0  0  0  0  0  0  0  0  0  0  0
   -5.4922   13.8204   -9.2545 H   0  0  0  0  0  0  0  0  0  0  0  0
   -4.0925   12.8173   -9.7656 H   0  0  0  0  0  0  0  0  0  0  0  0
  1  2  2  0  0  0  0
  1  4  1  0  0  0  0
  1 11  1  0  0  0  0
  2  6  1  0  0  0  0
  3  4  2  0  0  0  0
  3  5  1  0  0  0  0
  5  6  2  0  0  0  0
  5  9  1  0  0  0  0
  6  7  1  0  0  0  0
  7  8  1  0  0  0  0
  7 10  2  3  0  0  0
  8  9  2  0  0  0  0
 10 12  1  0  0  0  0
 11 24  1  0  0  0  0
 11 27  2  0  0  0  0
 12 13  2  0  0  0  0
 12 17  1  0  0  0  0
 13 14  1  0  0  0  0
 14 15  1  0  0  0  0
 15 16  1  0  0  0  0
 15 18  2  0  0  0  0
 16 17  2  0  0  0  0
 18 19  1  0  0  0  0
 18 22  1  0  0  0  0
 19 20  1  0  0  0  0
 20 21  1  0  0  0  0
 20 23  1  0  0  0  0
 21 22  2  0  0  0  0
 24 25  1  0  0  0  0
 24 28  1  0  0  0  0
 25 26  2  0  0  0  0
 26 27  1  0  0  0  0
  2 29  1  0  0  0  0
  3 30  1  0  0  0  0
  4 31  1  0  0  0  0
 10 32  1  0  0  0  0
 13 33  1  0  0  0  0
 14 34  1  0  0  0  0
 14 35  1  0  0  0  0
 16 36  1  0  0  0  0
 17 37  1  0  0  0  0
 19 38  1  0  0  0  0
 19 39  1  0  0  0  0
 22 40  1  0  0  0  0
 23 41  1  0  0  0  0
 23 42  1  0  0  0  0
 23 43  1  0  0  0  0
 25 44  1  0  0  0  0
 26 45  1  0  0  0  0
 28 46  1  0  0  0  0
 28 47  1  0  0  0  0
 28 48  1  0  0  0  0
M  END
> <Name>
22

> <IC50[uM]>
0.032

$$$$
22
  -OEChem-05192314333D
 Structure written by MMmdl.
 48 52  0     1  0  0  0  0  0999 V2000
   -6.3943   12.3306  -11.9839 C   0  0  0  0  0  0  0  0  0  0  0  0
   -6.5449   11.7624  -10.7224 C   0  0  0  0  0  0  0  0  0  0  0  0
   -7.7389   10.5318  -13.0493 C   0  0  0  0  0  0  0  0  0  0  0  0
   -6.9892   11.7416  -13.1218 C   0  0  0  0  0  0  0  0  0  0  0  0
   -7.8445    9.9757  -11.7834 C   0  0  3  0  0  0  0  0  0  0  0  0
   -7.2758   10.5697  -10.6136 C   0  0  0  0  0  0  0  0  0  0  0  0
   -7.6401    9.7111   -9.5254 C   0  0  0  0  0  0  0  0  0  0  0  0
   -8.3075    8.6850  -10.0132 N   0  0  0  0  0  0  0  0  0  0  0  0
   -8.4539    8.8245  -11.3160 N   0  0  0  0  0  0  0  0  0  0  0  0
   -7.3472    9.8680   -8.0446 C   0  0  0  0  0  0  0  0  0  0  0  0
   -5.5569   13.6094  -12.1739 C   0  0  0  0  0  0  0  0  0  0  0  0
   -5.9691   10.4796   -7.7443 C   0  0  0  0  0  0  0  0  0  0  0  0
   -5.8622   11.7497   -7.1624 C   0  0  0  0  0  0  0  0  0  0  0  0
   -4.6000   12.2988   -6.9070 C   0  0  0  0  0  0  0  0  0  0  0  0
   -3.4496   11.5829   -7.2293 C   0  0  0  0  0  0  0  0  0  0  0  0
   -3.5554   10.3089   -7.8035 C   0  0  0  0  0  0  0  0  0  0  0  0
   -4.8209    9.7667   -8.0554 C   0  0  0  0  0  0  0  0  0  0  0  0
   -2.0956   12.1660   -6.9654 C   0  0  0  0  0  0  0  0  0  0  0  0
   -1.7384   13.4130   -6.4683 C   0  0  0  0  0  0  0  0  0  0  0  0
   -0.4069   13.4502   -6.4129 N   0  0  0  0  0  0  0  0  0  0  0  0
    0.1813   12.3566   -6.8171 N   0  0  0  0  0  0  0  0  0  0  0  0
   -0.7988   11.5478   -7.1867 C   0  0  0  0  0  0  0  0  0  0  0  0
    0.4282   14.5550   -5.9664 C   0  0  0  0  0  0  0  0  0  0  0  0
   -4.7714   14.2106  -11.2027 N   0  0  3  0  0  0  0  0  0  0  0  0
   -4.2061   15.2849  -11.7862 C   0  0  0  0  0  0  0  0  0  0  0  0
   -4.6883   15.3268  -13.0997 C   0  0  0  0  0  0  0  0  0  0  0  0
   -5.5027   14.2765  -13.3098 N   0  0  0  0  0  0  0  0  0  0  0  0
   -4.5364   13.8232   -9.7989 C   0  0  0  0  0  0  0  0  0  0  0  0
   -6.1104   12.2275   -9.8498 H   0  0  0  0  0  0  0  0  0  0  0  0
   -8.1928   10.0800  -13.9189 H   0  0  0  0  0  0  0  0  0  0  0  0
   -6.8717   12.2251  -14.0803 H   0  0  0  0  0  0  0  0  0  0  0  0
   -6.9133    9.4148  -11.9517 H   0  0  0  0  0  0  0  0  0  0  0  0
   -8.0435    9.5766   -7.2721 H   0  0  0  0  0  0  0  0  0  0  0  0
   -6.7536   12.3051   -6.9109 H   0  0  0  0  0  0  0  0  0  0  0  0
   -4.5183   13.2784   -6.4597 H   0  0  0  0  0  0  0  0  0  0  0  0
   -2.6656    9.7487   -8.0502 H   0  0  0  0  0  0  0  0  0  0  0  0
   -4.9040    8.7842   -8.4961 H   0  0  0  0  0  0  0  0  0  0  0  0
   -2.4137   14.2051   -6.1803 H   0  0  0  0  0  0  0  0  0  0  0  0
   -0.6543   10.5597   -7.5981 H   0  0  0  0  0  0  0  0  0  0  0  0
    1.4877   14.2705   -6.0474 H   0  0  0  0  0  0  0  0  0  0  0  0
    0.2364   15.4369   -6.5953 H   0  0  0  0  0  0  0  0  0  0  0  0
    0.1917   14.7932   -4.9189 H   0  0  0  0  0  0  0  0  0  0  0  0
   -4.4893   16.2018  -11.2485 H   0  0  0  0  0  0  0  0  0  0  0  0
   -3.1108   15.1839  -11.7871 H   0  0  0  0  0  0  0  0  0  0  0  0
   -4.4447   16.0839  -13.8303 H   0  0  0  0  0  0  0  0  0  0  0  0
   -3.8494   14.5427   -9.3295 H   0  0  0  0  0  0  0  0  0  0  0  0
   -5.4922   13.8204   -9.2545 H   0  0  0  0  0  0  0  0  0  0  0  0
   -4.0925   12.8173   -9.7656 H   0  0  0  0  0  0  0  0  0  0  0  0
  1  2  1  0  0  0  0
  1  4  1  0  0  0  0
  1 11  2  0  0  0  0
  2  6  2  0  0  0  0
  3  4  2  0  0  0  0
  3  5  1  0  0  0  0
  5  6  1  0  0  0  0
  5  9  1  0  0  0  0
  6  7  1  0  0  0  0
  7  8  1  0  0  0  0
  7 10  2  3  0  0  0
  8  9  2  0  0  0  0
 10 12  1  0  0  0  0
 11 24  1  0  0  0  0
 11 27  1  0  0  0  0
 12 13  2  0  0  0  0
 12 17  1  0  0  0  0
 13 14  1  0  0  0  0
 14 15  2  0  0  0  0
 15 16  1  0  0  0  0
 15 18  1  0  0  0  0
 16 17  2  0  0  0  0
 18 19  2  0  0  0  0
 18 22  1  0  0  0  0
 19 20  1  0  0  0  0
 20 21  1  0  0  0  0
 20 23  1  0  0  0  0
 21 22  2  0  0  0  0
 24 25  1  0  0  0  0
 24 28  1  0  0  0  0
 25 26  1  0  0  0  0
 26 27  2  0  0  0  0
  2 29  1  0  0  0  0
  3 30  1  0  0  0  0
  4 31  1  0  0  0  0
  5 32  1  0  0  0  0
 10 33  1  0  0  0  0
 13 34  1  0  0  0  0
 14 35  1  0  0  0  0
 16 36  1  0  0  0  0
 17 37  1  0  0  0  0
 19 38  1  0  0  0  0
 22 39  1  0  0  0  0
 23 40  1  0  0  0  0
 23 41  1  0  0  0  0
 23 42  1  0  0  0  0
 25 43  1  0  0  0  0
 25 44  1  0  0  0  0
 26 45  1  0  0  0  0
 28 46  1  0  0  0  0
 28 47  1  0  0  0  0
 28 48  1  0  0  0  0
M  END
> <Name>
22

> <IC50[uM]>
0.032

$$$$
22
  -OEChem-05192314333D
 Structure written by MMmdl.
 48 52  0     1  0  0  0  0  0999 V2000
   -6.3943   12.3306  -11.9839 C   0  0  0  0  0  0  0  0  0  0  0  0
   -6.5449   11.7624  -10.7224 C   0  0  0  0  0  0  0  0  0  0  0  0
   -7.7389   10.5318  -13.0493 C   0  0  0  0  0  0  0  0  0  0  0  0
   -6.9892   11.7416  -13.1218 C   0  0  0  0  0  0  0  0  0  0  0  0
   -7.8445    9.9757  -11.7834 C   0  0  0  0  0  0  0  0  0  0  0  0
   -7.2758   10.5697  -10.6136 C   0  0  0  0  0  0  0  0  0  0  0  0
   -7.6401    9.7111   -9.5254 C   0  0  0  0  0  0  0  0  0  0  0  0
   -8.3075    8.6850  -10.0132 N   0  0  0  0  0  0  0  0  0  0  0  0
   -8.4539    8.8245  -11.3160 N   0  0  0  0  0  0  0  0  0  0  0  0
   -7.3472    9.8680   -8.0446 C   0  0  0  0  0  0  0  0  0  0  0  0
   -5.5569   13.6094  -12.1739 C   0  0  0  0  0  0  0  0  0  0  0  0
   -5.9691   10.4796   -7.7443 C   0  0  0  0  0  0  0  0  0  0  0  0
   -5.8622   11.7497   -7.1624 C   0  0  0  0  0  0  0  0  0  0  0  0
   -4.6000   12.2988   -6.9070 C   0  0  0  0  0  0  0  0  0  0  0  0
   -3.4496   11.5829   -7.2293 C   0  0  0  0  0  0  0  0  0  0  0  0
   -3.5554   10.3089   -7.8035 C   0  0  0  0  0  0  0  0  0  0  0  0
   -4.8209    9.7667   -8.0554 C   0  0  0  0  0  0  0  0  0  0  0  0
   -2.0956   12.1660   -6.9654 C   0  0  0  0  0  0  0  0  0  0  0  0
   -1.7384   13.4130   -6.4683 C   0  0  0  0  0  0  0  0  0  0  0  0
   -0.4069   13.4502   -6.4129 N   0  0  0  0  0  0  0  0  0  0  0  0
    0.1813   12.3566   -6.8171 N   0  0  0  0  0  0  0  0  0  0  0  0
   -0.7988   11.5478   -7.1867 C   0  0  0  0  0  0  0  0  0  0  0  0
    0.4282   14.5550   -5.9664 C   0  0  0  0  0  0  0  0  0  0  0  0
   -4.7714   14.2106  -11.2027 N   0  0  3  0  0  0  0  0  0  0  0  0
   -4.2061   15.2849  -11.7862 C   0  0  0  0  0  0  0  0  0  0  0  0
   -4.6883   15.3268  -13.0997 C   0  0  0  0  0  0  0  0  0  0  0  0
   -5.5027   14.2765  -13.3098 N   0  0  0  0  0  0  0  0  0  0  0  0
   -4.5364   13.8232   -9.7989 C   0  0  0  0  0  0  0  0  0  0  0  0
   -6.1104   12.2275   -9.8498 H   0  0  0  0  0  0  0  0  0  0  0  0
   -8.1928   10.0800  -13.9189 H   0  0  0  0  0  0  0  0  0  0  0  0
   -7.6693   12.4990  -13.5386 H   0  0  0  0  0  0  0  0  0  0  0  0
   -6.1709   11.5529  -13.8323 H   0  0  0  0  0  0  0  0  0  0  0  0
   -8.0435    9.5766   -7.2721 H   0  0  0  0  0  0  0  0  0  0  0  0
   -6.7536   12.3051   -6.9109 H   0  0  0  0  0  0  0  0  0  0  0  0
   -4.5183   13.2784   -6.4597 H   0  0  0  0  0  0  0  0  0  0  0  0
   -2.6656    9.7487   -8.0502 H   0  0  0  0  0  0  0  0  0  0  0  0
   -4.9040    8.7842   -8.4961 H   0  0  0  0  0  0  0  0  0  0  0  0
   -2.4137   14.2051   -6.1803 H   0  0  0  0  0  0  0  0  0  0  0  0
   -0.6543   10.5597   -7.5981 H   0  0  0  0  0  0  0  0  0  0  0  0
    1.4877   14.2705   -6.0474 H   0  0  0  0  0  0  0  0  0  0  0  0
    0.2364   15.4369   -6.5953 H   0  0  0  0  0  0  0  0  0  0  0  0
    0.1917   14.7932   -4.9189 H   0  0  0  0  0  0  0  0  0  0  0  0
   -4.4893   16.2018  -11.2485 H   0  0  0  0  0  0  0  0  0  0  0  0
   -3.1108   15.1839  -11.7871 H   0  0  0  0  0  0  0  0  0  0  0  0
   -4.4447   16.0839  -13.8303 H   0  0  0  0  0  0  0  0  0  0  0  0
   -3.8494   14.5427   -9.3295 H   0  0  0  0  0  0  0  0  0  0  0  0
   -5.4922   13.8204   -9.2545 H   0  0  0  0  0  0  0  0  0  0  0  0
   -4.0925   12.8173   -9.7656 H   0  0  0  0  0  0  0  0  0  0  0  0
  1  2  1  0  0  0  0
  1  4  1  0  0  0  0
  1 11  2  0  0  0  0
  2  6  2  0  0  0  0
  3  4  1  0  0  0  0
  3  5  2  0  0  0  0
  5  6  1  0  0  0  0
  5  9  1  0  0  0  0
  6  7  1  0  0  0  0
  7  8  1  0  0  0  0
  7 10  2  3  0  0  0
  8  9  2  0  0  0  0
 10 12  1  0  0  0  0
 11 24  1  0  0  0  0
 11 27  1  0  0  0  0
 12 13  2  0  0  0  0
 12 17  1  0  0  0  0
 13 14  1  0  0  0  0
 14 15  2  0  0  0  0
 15 16  1  0  0  0  0
 15 18  1  0  0  0  0
 16 17  2  0  0  0  0
 18 19  2  0  0  0  0
 18 22  1  0  0  0  0
 19 20  1  0  0  0  0
 20 21  1  0  0  0  0
 20 23  1  0  0  0  0
 21 22  2  0  0  0  0
 24 25  1  0  0  0  0
 24 28  1  0  0  0  0
 25 26  1  0  0  0  0
 26 27  2  0  0  0  0
  2 29  1  0  0  0  0
  3 30  1  0  0  0  0
  4 31  1  0  0  0  0
  4 32  1  0  0  0  0
 10 33  1  0  0  0  0
 13 34  1  0  0  0  0
 14 35  1  0  0  0  0
 16 36  1  0  0  0  0
 17 37  1  0  0  0  0
 19 38  1  0  0  0  0
 22 39  1  0  0  0  0
 23 40  1  0  0  0  0
 23 41  1  0  0  0  0
 23 42  1  0  0  0  0
 25 43  1  0  0  0  0
 25 44  1  0  0  0  0
 26 45  1  0  0  0  0
 28 46  1  0  0  0  0
 28 47  1  0  0  0  0
 28 48  1  0  0  0  0
M  END
> <Name>
22

> <IC50[uM]>
0.032

$$$$
22
  -OEChem-05192314333D
 Structure written by MMmdl.
 48 52  0     1  0  0  0  0  0999 V2000
   -6.3943   12.3306  -11.9839 C   0  0  0  0  0  0  0  0  0  0  0  0
   -6.5449   11.7624  -10.7224 C   0  0  0  0  0  0  0  0  0  0  0  0
   -7.7389   10.5318  -13.0493 C   0  0  0  0  0  0  0  0  0  0  0  0
   -6.9892   11.7416  -13.1218 C   0  0  0  0  0  0  0  0  0  0  0  0
   -7.8445    9.9757  -11.7834 C   0  0  0  0  0  0  0  0  0  0  0  0
   -7.2758   10.5697  -10.6136 C   0  0  0  0  0  0  0  0  0  0  0  0
   -7.6401    9.7111   -9.5254 C   0  0  0  0  0  0  0  0  0  0  0  0
   -8.3075    8.6850  -10.0132 N   0  0  0  0  0  0  0  0  0  0  0  0
   -8.4539    8.8245  -11.3160 N   0  0  0  0  0  0  0  0  0  0  0  0
   -7.3472    9.8680   -8.0446 C   0  0  0  0  0  0  0  0  0  0  0  0
   -5.5569   13.6094  -12.1739 C   0  0  0  0  0  0  0  0  0  0  0  0
   -5.9691   10.4796   -7.7443 C   0  0  0  0  0  0  0  0  0  0  0  0
   -5.8622   11.7497   -7.1624 C   0  0  0  0  0  0  0  0  0  0  0  0
   -4.6000   12.2988   -6.9070 C   0  0  0  0  0  0  0  0  0  0  0  0
   -3.4496   11.5829   -7.2293 C   0  0  0  0  0  0  0  0  0  0  0  0
   -3.5554   10.3089   -7.8035 C   0  0  0  0  0  0  0  0  0  0  0  0
   -4.8209    9.7667   -8.0554 C   0  0  0  0  0  0  0  0  0  0  0  0
   -2.0956   12.1660   -6.9654 C   0  0  0  0  0  0  0  0  0  0  0  0
   -1.7384   13.4130   -6.4683 C   0  0  0  0  0  0  0  0  0  0  0  0
   -0.4069   13.4502   -6.4129 N   0  0  0  0  0  0  0  0  0  0  0  0
    0.1813   12.3566   -6.8171 N   0  0  0  0  0  0  0  0  0  0  0  0
   -0.7988   11.5478   -7.1867 C   0  0  0  0  0  0  0  0  0  0  0  0
    0.4282   14.5550   -5.9664 C   0  0  0  0  0  0  0  0  0  0  0  0
   -4.7714   14.2106  -11.2027 N   0  0  3  0  0  0  0  0  0  0  0  0
   -4.2061   15.2849  -11.7862 C   0  0  0  0  0  0  0  0  0  0  0  0
   -4.6883   15.3268  -13.0997 C   0  0  0  0  0  0  0  0  0  0  0  0
   -5.5027   14.2765  -13.3098 N   0  0  0  0  0  0  0  0  0  0  0  0
   -4.5364   13.8232   -9.7989 C   0  0  0  0  0  0  0  0  0  0  0  0
   -5.5359   11.5629  -10.3324 H   0  0  0  0  0  0  0  0  0  0  0  0
   -7.0429   12.5089  -10.0862 H   0  0  0  0  0  0  0  0  0  0  0  0
   -8.1928   10.0800  -13.9189 H   0  0  0  0  0  0  0  0  0  0  0  0
   -6.8717   12.2251  -14.0803 H   0  0  0  0  0  0  0  0  0  0  0  0
   -8.0435    9.5766   -7.2721 H   0  0  0  0  0  0  0  0  0  0  0  0
   -6.7536   12.3051   -6.9109 H   0  0  0  0  0  0  0  0  0  0  0  0
   -4.5183   13.2784   -6.4597 H   0  0  0  0  0  0  0  0  0  0  0  0
   -2.6656    9.7487   -8.0502 H   0  0  0  0  0  0  0  0  0  0  0  0
   -4.9040    8.7842   -8.4961 H   0  0  0  0  0  0  0  0  0  0  0  0
   -2.4137   14.2051   -6.1803 H   0  0  0  0  0  0  0  0  0  0  0  0
   -0.6543   10.5597   -7.5981 H   0  0  0  0  0  0  0  0  0  0  0  0
    1.4877   14.2705   -6.0474 H   0  0  0  0  0  0  0  0  0  0  0  0
    0.2364   15.4369   -6.5953 H   0  0  0  0  0  0  0  0  0  0  0  0
    0.1917   14.7932   -4.9189 H   0  0  0  0  0  0  0  0  0  0  0  0
   -4.4893   16.2018  -11.2485 H   0  0  0  0  0  0  0  0  0  0  0  0
   -3.1108   15.1839  -11.7871 H   0  0  0  0  0  0  0  0  0  0  0  0
   -4.4447   16.0839  -13.8303 H   0  0  0  0  0  0  0  0  0  0  0  0
   -3.8494   14.5427   -9.3295 H   0  0  0  0  0  0  0  0  0  0  0  0
   -5.4922   13.8204   -9.2545 H   0  0  0  0  0  0  0  0  0  0  0  0
   -4.0925   12.8173   -9.7656 H   0  0  0  0  0  0  0  0  0  0  0  0
  1  2  1  0  0  0  0
  1  4  1  0  0  0  0
  1 11  2  0  0  0  0
  2  6  1  0  0  0  0
  3  4  2  0  0  0  0
  3  5  1  0  0  0  0
  5  6  2  0  0  0  0
  5  9  1  0  0  0  0
  6  7  1  0  0  0  0
  7  8  1  0  0  0  0
  7 10  2  3  0  0  0
  8  9  2  0  0  0  0
 10 12  1  0  0  0  0
 11 24  1  0  0  0  0
 11 27  1  0  0  0  0
 12 13  2  0  0  0  0
 12 17  1  0  0  0  0
 13 14  1  0  0  0  0
 14 15  2  0  0  0  0
 15 16  1  0  0  0  0
 15 18  1  0  0  0  0
 16 17  2  0  0  0  0
 18 19  2  0  0  0  0
 18 22  1  0  0  0  0
 19 20  1  0  0  0  0
 20 21  1  0  0  0  0
 20 23  1  0  0  0  0
 21 22  2  0  0  0  0
 24 25  1  0  0  0  0
 24 28  1  0  0  0  0
 25 26  1  0  0  0  0
 26 27  2  0  0  0  0
  2 29  1  0  0  0  0
  2 30  1  0  0  0  0
  3 31  1  0  0  0  0
  4 32  1  0  0  0  0
 10 33  1  0  0  0  0
 13 34  1  0  0  0  0
 14 35  1  0  0  0  0
 16 36  1  0  0  0  0
 17 37  1  0  0  0  0
 19 38  1  0  0  0  0
 22 39  1  0  0  0  0
 23 40  1  0  0  0  0
 23 41  1  0  0  0  0
 23 42  1  0  0  0  0
 25 43  1  0  0  0  0
 25 44  1  0  0  0  0
 26 45  1  0  0  0  0
 28 46  1  0  0  0  0
 28 47  1  0  0  0  0
 28 48  1  0  0  0  0
M  END
> <Name>
22

> <IC50[uM]>
0.032

$$$$
22
  -OEChem-05192314333D
 Structure written by MMmdl.
 48 52  0     1  0  0  0  0  0999 V2000
   -6.3943   12.3306  -11.9839 C   0  0  0  0  0  0  0  0  0  0  0  0
   -6.5449   11.7624  -10.7224 C   0  0  0  0  0  0  0  0  0  0  0  0
   -7.7389   10.5318  -13.0493 C   0  0  0  0  0  0  0  0  0  0  0  0
   -6.9892   11.7416  -13.1218 C   0  0  0  0  0  0  0  0  0  0  0  0
   -7.8445    9.9757  -11.7834 C   0  0  3  0  0  0  0  0  0  0  0  0
   -7.2758   10.5697  -10.6136 C   0  0  0  0  0  0  0  0  0  0  0  0
   -7.6401    9.7111   -9.5254 C   0  0  0  0  0  0  0  0  0  0  0  0
   -8.3075    8.6850  -10.0132 N   0  0  0  0  0  0  0  0  0  0  0  0
   -8.4539    8.8245  -11.3160 N   0  0  0  0  0  0  0  0  0  0  0  0
   -7.3472    9.8680   -8.0446 C   0  0  0  0  0  0  0  0  0  0  0  0
   -5.5569   13.6094  -12.1739 C   0  0  0  0  0  0  0  0  0  0  0  0
   -5.9691   10.4796   -7.7443 C   0  0  0  0  0  0  0  0  0  0  0  0
   -5.8622   11.7497   -7.1624 C   0  0  0  0  0  0  0  0  0  0  0  0
   -4.6000   12.2988   -6.9070 C   0  0  0  0  0  0  0  0  0  0  0  0
   -3.4496   11.5829   -7.2293 C   0  0  0  0  0  0  0  0  0  0  0  0
   -3.5554   10.3089   -7.8035 C   0  0  0  0  0  0  0  0  0  0  0  0
   -4.8209    9.7667   -8.0554 C   0  0  0  0  0  0  0  0  0  0  0  0
   -2.0956   12.1660   -6.9654 C   0  0  0  0  0  0  0  0  0  0  0  0
   -1.7384   13.4130   -6.4683 C   0  0  0  0  0  0  0  0  0  0  0  0
   -0.4069   13.4502   -6.4129 N   0  0  0  0  0  0  0  0  0  0  0  0
    0.1813   12.3566   -6.8171 N   0  0  0  0  0  0  0  0  0  0  0  0
   -0.7988   11.5478   -7.1867 C   0  0  0  0  0  0  0  0  0  0  0  0
    0.4282   14.5550   -5.9664 C   0  0  0  0  0  0  0  0  0  0  0  0
   -4.7714   14.2106  -11.2027 N   0  0  0  0  0  0  0  0  0  0  0  0
   -4.2061   15.2849  -11.7862 C   0  0  0  0  0  0  0  0  0  0  0  0
   -4.6883   15.3268  -13.0997 C   0  0  0  0  0  0  0  0  0  0  0  0
   -5.5027   14.2765  -13.3098 N   0  0  0  0  0  0  0  0  0  0  0  0
   -4.5364   13.8232   -9.7989 C   0  0  0  0  0  0  0  0  0  0  0  0
   -6.1104   12.2275   -9.8498 H   0  0  0  0  0  0  0  0  0  0  0  0
   -8.1928   10.0800  -13.9189 H   0  0  0  0  0  0  0  0  0  0  0  0
   -6.8717   12.2251  -14.0803 H   0  0  0  0  0  0  0  0  0  0  0  0
   -6.9133    9.4148  -11.9517 H   0  0  0  0  0  0  0  0  0  0  0  0
   -8.0435    9.5766   -7.2721 H   0  0  0  0  0  0  0  0  0  0  0  0
   -6.7536   12.3051   -6.9109 H   0  0  0  0  0  0  0  0  0  0  0  0
   -4.5183   13.2784   -6.4597 H   0  0  0  0  0  0  0  0  0  0  0  0
   -2.6656    9.7487   -8.0502 H   0  0  0  0  0  0  0  0  0  0  0  0
   -4.9040    8.7842   -8.4961 H   0  0  0  0  0  0  0  0  0  0  0  0
   -2.4137   14.2051   -6.1803 H   0  0  0  0  0  0  0  0  0  0  0  0
   -0.6543   10.5597   -7.5981 H   0  0  0  0  0  0  0  0  0  0  0  0
    1.4877   14.2705   -6.0474 H   0  0  0  0  0  0  0  0  0  0  0  0
    0.2364   15.4369   -6.5953 H   0  0  0  0  0  0  0  0  0  0  0  0
    0.1917   14.7932   -4.9189 H   0  0  0  0  0  0  0  0  0  0  0  0
   -3.5156   15.9786  -11.3298 H   0  0  0  0  0  0  0  0  0  0  0  0
   -4.4447   16.0839  -13.8303 H   0  0  0  0  0  0  0  0  0  0  0  0
   -5.9746   14.0468  -14.1610 H   0  0  0  0  0  0  0  0  0  0  0  0
   -3.8494   14.5427   -9.3295 H   0  0  0  0  0  0  0  0  0  0  0  0
   -5.4922   13.8204   -9.2545 H   0  0  0  0  0  0  0  0  0  0  0  0
   -4.0925   12.8173   -9.7656 H   0  0  0  0  0  0  0  0  0  0  0  0
  1  2  1  0  0  0  0
  1  4  1  0  0  0  0
  1 11  2  0  0  0  0
  2  6  2  0  0  0  0
  3  4  2  0  0  0  0
  3  5  1  0  0  0  0
  5  6  1  0  0  0  0
  5  9  1  0  0  0  0
  6  7  1  0  0  0  0
  7  8  1  0  0  0  0
  7 10  2  3  0  0  0
  8  9  2  0  0  0  0
 10 12  1  0  0  0  0
 11 24  1  0  0  0  0
 11 27  1  0  0  0  0
 12 13  2  0  0  0  0
 12 17  1  0  0  0  0
 13 14  1  0  0  0  0
 14 15  2  0  0  0  0
 15 16  1  0  0  0  0
 15 18  1  0  0  0  0
 16 17  2  0  0  0  0
 18 19  2  0  0  0  0
 18 22  1  0  0  0  0
 19 20  1  0  0  0  0
 20 21  1  0  0  0  0
 20 23  1  0  0  0  0
 21 22  2  0  0  0  0
 24 25  1  0  0  0  0
 24 28  1  0  0  0  0
 25 26  2  0  0  0  0
 26 27  1  0  0  0  0
  2 29  1  0  0  0  0
  3 30  1  0  0  0  0
  4 31  1  0  0  0  0
  5 32  1  0  0  0  0
 10 33  1  0  0  0  0
 13 34  1  0  0  0  0
 14 35  1  0  0  0  0
 16 36  1  0  0  0  0
 17 37  1  0  0  0  0
 19 38  1  0  0  0  0
 22 39  1  0  0  0  0
 23 40  1  0  0  0  0
 23 41  1  0  0  0  0
 23 42  1  0  0  0  0
 25 43  1  0  0  0  0
 26 44  1  0  0  0  0
 27 45  1  0  0  0  0
 28 46  1  0  0  0  0
 28 47  1  0  0  0  0
 28 48  1  0  0  0  0
M  END
> <Name>
22

> <IC50[uM]>
0.032

$$$$
22
  -OEChem-05192314333D
 Structure written by MMmdl.
 48 52  0     0  0  0  0  0  0999 V2000
   -6.3943   12.3306  -11.9839 C   0  0  0  0  0  0  0  0  0  0  0  0
   -6.5449   11.7624  -10.7224 C   0  0  0  0  0  0  0  0  0  0  0  0
   -7.7389   10.5318  -13.0493 C   0  0  0  0  0  0  0  0  0  0  0  0
   -6.9892   11.7416  -13.1218 C   0  0  0  0  0  0  0  0  0  0  0  0
   -7.8445    9.9757  -11.7834 C   0  0  0  0  0  0  0  0  0  0  0  0
   -7.2758   10.5697  -10.6136 C   0  0  0  0  0  0  0  0  0  0  0  0
   -7.6401    9.7111   -9.5254 C   0  0  0  0  0  0  0  0  0  0  0  0
   -8.3075    8.6850  -10.0132 N   0  0  0  0  0  0  0  0  0  0  0  0
   -8.4539    8.8245  -11.3160 N   0  0  0  0  0  0  0  0  0  0  0  0
   -7.3472    9.8680   -8.0446 C   0  0  0  0  0  0  0  0  0  0  0  0
   -5.5569   13.6094  -12.1739 C   0  0  0  0  0  0  0  0  0  0  0  0
   -5.9691   10.4796   -7.7443 C   0  0  0  0  0  0  0  0  0  0  0  0
   -5.8622   11.7497   -7.1624 C   0  0  0  0  0  0  0  0  0  0  0  0
   -4.6000   12.2988   -6.9070 C   0  0  0  0  0  0  0  0  0  0  0  0
   -3.4496   11.5829   -7.2293 C   0  0  0  0  0  0  0  0  0  0  0  0
   -3.5554   10.3089   -7.8035 C   0  0  0  0  0  0  0  0  0  0  0  0
   -4.8209    9.7667   -8.0554 C   0  0  0  0  0  0  0  0  0  0  0  0
   -2.0956   12.1660   -6.9654 C   0  0  0  0  0  0  0  0  0  0  0  0
   -1.7384   13.4130   -6.4683 C   0  0  0  0  0  0  0  0  0  0  0  0
   -0.4069   13.4502   -6.4129 N   0  0  0  0  0  0  0  0  0  0  0  0
    0.1813   12.3566   -6.8171 N   0  0  0  0  0  0  0  0  0  0  0  0
   -0.7988   11.5478   -7.1867 C   0  0  0  0  0  0  0  0  0  0  0  0
    0.4282   14.5550   -5.9664 C   0  0  0  0  0  0  0  0  0  0  0  0
   -4.7714   14.2106  -11.2027 N   0  0  0  0  0  0  0  0  0  0  0  0
   -4.2061   15.2849  -11.7862 C   0  0  0  0  0  0  0  0  0  0  0  0
   -4.6883   15.3268  -13.0997 C   0  0  0  0  0  0  0  0  0  0  0  0
   -5.5027   14.2765  -13.3098 N   0  0  0  0  0  0  0  0  0  0  0  0
   -4.5364   13.8232   -9.7989 C   0  0  0  0  0  0  0  0  0  0  0  0
   -6.1104   12.2275   -9.8498 H   0  0  0  0  0  0  0  0  0  0  0  0
   -8.1928   10.0800  -13.9189 H   0  0  0  0  0  0  0  0  0  0  0  0
   -7.6693   12.4990  -13.5386 H   0  0  0  0  0  0  0  0  0  0  0  0
   -6.1709   11.5529  -13.8323 H   0  0  0  0  0  0  0  0  0  0  0  0
   -8.0435    9.5766   -7.2721 H   0  0  0  0  0  0  0  0  0  0  0  0
   -6.7536   12.3051   -6.9109 H   0  0  0  0  0  0  0  0  0  0  0  0
   -4.5183   13.2784   -6.4597 H   0  0  0  0  0  0  0  0  0  0  0  0
   -2.6656    9.7487   -8.0502 H   0  0  0  0  0  0  0  0  0  0  0  0
   -4.9040    8.7842   -8.4961 H   0  0  0  0  0  0  0  0  0  0  0  0
   -2.4137   14.2051   -6.1803 H   0  0  0  0  0  0  0  0  0  0  0  0
   -0.6543   10.5597   -7.5981 H   0  0  0  0  0  0  0  0  0  0  0  0
    1.4877   14.2705   -6.0474 H   0  0  0  0  0  0  0  0  0  0  0  0
    0.2364   15.4369   -6.5953 H   0  0  0  0  0  0  0  0  0  0  0  0
    0.1917   14.7932   -4.9189 H   0  0  0  0  0  0  0  0  0  0  0  0
   -3.5156   15.9786  -11.3298 H   0  0  0  0  0  0  0  0  0  0  0  0
   -4.4447   16.0839  -13.8303 H   0  0  0  0  0  0  0  0  0  0  0  0
   -5.9746   14.0468  -14.1610 H   0  0  0  0  0  0  0  0  0  0  0  0
   -3.8494   14.5427   -9.3295 H   0  0  0  0  0  0  0  0  0  0  0  0
   -5.4922   13.8204   -9.2545 H   0  0  0  0  0  0  0  0  0  0  0  0
   -4.0925   12.8173   -9.7656 H   0  0  0  0  0  0  0  0  0  0  0  0
  1  2  1  0  0  0  0
  1  4  1  0  0  0  0
  1 11  2  0  0  0  0
  2  6  2  0  0  0  0
  3  4  1  0  0  0  0
  3  5  2  0  0  0  0
  5  6  1  0  0  0  0
  5  9  1  0  0  0  0
  6  7  1  0  0  0  0
  7  8  1  0  0  0  0
  7 10  2  3  0  0  0
  8  9  2  0  0  0  0
 10 12  1  0  0  0  0
 11 24  1  0  0  0  0
 11 27  1  0  0  0  0
 12 13  2  0  0  0  0
 12 17  1  0  0  0  0
 13 14  1  0  0  0  0
 14 15  2  0  0  0  0
 15 16  1  0  0  0  0
 15 18  1  0  0  0  0
 16 17  2  0  0  0  0
 18 19  2  0  0  0  0
 18 22  1  0  0  0  0
 19 20  1  0  0  0  0
 20 21  1  0  0  0  0
 20 23  1  0  0  0  0
 21 22  2  0  0  0  0
 24 25  1  0  0  0  0
 24 28  1  0  0  0  0
 25 26  2  0  0  0  0
 26 27  1  0  0  0  0
  2 29  1  0  0  0  0
  3 30  1  0  0  0  0
  4 31  1  0  0  0  0
  4 32  1  0  0  0  0
 10 33  1  0  0  0  0
 13 34  1  0  0  0  0
 14 35  1  0  0  0  0
 16 36  1  0  0  0  0
 17 37  1  0  0  0  0
 19 38  1  0  0  0  0
 22 39  1  0  0  0  0
 23 40  1  0  0  0  0
 23 41  1  0  0  0  0
 23 42  1  0  0  0  0
 25 43  1  0  0  0  0
 26 44  1  0  0  0  0
 27 45  1  0  0  0  0
 28 46  1  0  0  0  0
 28 47  1  0  0  0  0
 28 48  1  0  0  0  0
M  END
> <Name>
22

> <IC50[uM]>
0.032

$$$$
22
  -OEChem-05192314333D
 Structure written by MMmdl.
 48 52  0     0  0  0  0  0  0999 V2000
   -6.3943   12.3306  -11.9839 C   0  0  0  0  0  0  0  0  0  0  0  0
   -6.5449   11.7624  -10.7224 C   0  0  0  0  0  0  0  0  0  0  0  0
   -7.7389   10.5318  -13.0493 C   0  0  0  0  0  0  0  0  0  0  0  0
   -6.9892   11.7416  -13.1218 C   0  0  0  0  0  0  0  0  0  0  0  0
   -7.8445    9.9757  -11.7834 C   0  0  0  0  0  0  0  0  0  0  0  0
   -7.2758   10.5697  -10.6136 C   0  0  0  0  0  0  0  0  0  0  0  0
   -7.6401    9.7111   -9.5254 C   0  0  0  0  0  0  0  0  0  0  0  0
   -8.3075    8.6850  -10.0132 N   0  0  0  0  0  0  0  0  0  0  0  0
   -8.4539    8.8245  -11.3160 N   0  0  0  0  0  0  0  0  0  0  0  0
   -7.3472    9.8680   -8.0446 C   0  0  0  0  0  0  0  0  0  0  0  0
   -5.5569   13.6094  -12.1739 C   0  0  0  0  0  0  0  0  0  0  0  0
   -5.9691   10.4796   -7.7443 C   0  0  0  0  0  0  0  0  0  0  0  0
   -5.8622   11.7497   -7.1624 C   0  0  0  0  0  0  0  0  0  0  0  0
   -4.6000   12.2988   -6.9070 C   0  0  0  0  0  0  0  0  0  0  0  0
   -3.4496   11.5829   -7.2293 C   0  0  0  0  0  0  0  0  0  0  0  0
   -3.5554   10.3089   -7.8035 C   0  0  0  0  0  0  0  0  0  0  0  0
   -4.8209    9.7667   -8.0554 C   0  0  0  0  0  0  0  0  0  0  0  0
   -2.0956   12.1660   -6.9654 C   0  0  0  0  0  0  0  0  0  0  0  0
   -1.7384   13.4130   -6.4683 C   0  0  0  0  0  0  0  0  0  0  0  0
   -0.4069   13.4502   -6.4129 N   0  0  0  0  0  0  0  0  0  0  0  0
    0.1813   12.3566   -6.8171 N   0  0  0  0  0  0  0  0  0  0  0  0
   -0.7988   11.5478   -7.1867 C   0  0  0  0  0  0  0  0  0  0  0  0
    0.4282   14.5550   -5.9664 C   0  0  0  0  0  0  0  0  0  0  0  0
   -4.7714   14.2106  -11.2027 N   0  0  0  0  0  0  0  0  0  0  0  0
   -4.2061   15.2849  -11.7862 C   0  0  0  0  0  0  0  0  0  0  0  0
   -4.6883   15.3268  -13.0997 C   0  0  0  0  0  0  0  0  0  0  0  0
   -5.5027   14.2765  -13.3098 N   0  0  0  0  0  0  0  0  0  0  0  0
   -4.5364   13.8232   -9.7989 C   0  0  0  0  0  0  0  0  0  0  0  0
   -5.5359   11.5629  -10.3324 H   0  0  0  0  0  0  0  0  0  0  0  0
   -7.0429   12.5089  -10.0862 H   0  0  0  0  0  0  0  0  0  0  0  0
   -8.1928   10.0800  -13.9189 H   0  0  0  0  0  0  0  0  0  0  0  0
   -6.8717   12.2251  -14.0803 H   0  0  0  0  0  0  0  0  0  0  0  0
   -8.0435    9.5766   -7.2721 H   0  0  0  0  0  0  0  0  0  0  0  0
   -6.7536   12.3051   -6.9109 H   0  0  0  0  0  0  0  0  0  0  0  0
   -4.5183   13.2784   -6.4597 H   0  0  0  0  0  0  0  0  0  0  0  0
   -2.6656    9.7487   -8.0502 H   0  0  0  0  0  0  0  0  0  0  0  0
   -4.9040    8.7842   -8.4961 H   0  0  0  0  0  0  0  0  0  0  0  0
   -2.4137   14.2051   -6.1803 H   0  0  0  0  0  0  0  0  0  0  0  0
   -0.6543   10.5597   -7.5981 H   0  0  0  0  0  0  0  0  0  0  0  0
    1.4877   14.2705   -6.0474 H   0  0  0  0  0  0  0  0  0  0  0  0
    0.2364   15.4369   -6.5953 H   0  0  0  0  0  0  0  0  0  0  0  0
    0.1917   14.7932   -4.9189 H   0  0  0  0  0  0  0  0  0  0  0  0
   -3.5156   15.9786  -11.3298 H   0  0  0  0  0  0  0  0  0  0  0  0
   -4.4447   16.0839  -13.8303 H   0  0  0  0  0  0  0  0  0  0  0  0
   -5.9746   14.0468  -14.1610 H   0  0  0  0  0  0  0  0  0  0  0  0
   -3.8494   14.5427   -9.3295 H   0  0  0  0  0  0  0  0  0  0  0  0
   -5.4922   13.8204   -9.2545 H   0  0  0  0  0  0  0  0  0  0  0  0
   -4.0925   12.8173   -9.7656 H   0  0  0  0  0  0  0  0  0  0  0  0
  1  2  1  0  0  0  0
  1  4  1  0  0  0  0
  1 11  2  0  0  0  0
  2  6  1  0  0  0  0
  3  4  2  0  0  0  0
  3  5  1  0  0  0  0
  5  6  2  0  0  0  0
  5  9  1  0  0  0  0
  6  7  1  0  0  0  0
  7  8  1  0  0  0  0
  7 10  2  3  0  0  0
  8  9  2  0  0  0  0
 10 12  1  0  0  0  0
 11 24  1  0  0  0  0
 11 27  1  0  0  0  0
 12 13  2  0  0  0  0
 12 17  1  0  0  0  0
 13 14  1  0  0  0  0
 14 15  2  0  0  0  0
 15 16  1  0  0  0  0
 15 18  1  0  0  0  0
 16 17  2  0  0  0  0
 18 19  2  0  0  0  0
 18 22  1  0  0  0  0
 19 20  1  0  0  0  0
 20 21  1  0  0  0  0
 20 23  1  0  0  0  0
 21 22  2  0  0  0  0
 24 25  1  0  0  0  0
 24 28  1  0  0  0  0
 25 26  2  0  0  0  0
 26 27  1  0  0  0  0
  2 29  1  0  0  0  0
  2 30  1  0  0  0  0
  3 31  1  0  0  0  0
  4 32  1  0  0  0  0
 10 33  1  0  0  0  0
 13 34  1  0  0  0  0
 14 35  1  0  0  0  0
 16 36  1  0  0  0  0
 17 37  1  0  0  0  0
 19 38  1  0  0  0  0
 22 39  1  0  0  0  0
 23 40  1  0  0  0  0
 23 41  1  0  0  0  0
 23 42  1  0  0  0  0
 25 43  1  0  0  0  0
 26 44  1  0  0  0  0
 27 45  1  0  0  0  0
 28 46  1  0  0  0  0
 28 47  1  0  0  0  0
 28 48  1  0  0  0  0
M  END
> <Name>
22

> <IC50[uM]>
0.032

$$$$
22
  -OEChem-05192314333D
 Structure written by MMmdl.
 48 52  0     1  0  0  0  0  0999 V2000
   -6.3943   12.3306  -11.9839 C   0  0  3  0  0  0  0  0  0  0  0  0
   -6.5449   11.7624  -10.7224 C   0  0  0  0  0  0  0  0  0  0  0  0
   -7.7389   10.5318  -13.0493 C   0  0  0  0  0  0  0  0  0  0  0  0
   -6.9892   11.7416  -13.1218 C   0  0  0  0  0  0  0  0  0  0  0  0
   -7.8445    9.9757  -11.7834 C   0  0  0  0  0  0  0  0  0  0  0  0
   -7.2758   10.5697  -10.6136 C   0  0  0  0  0  0  0  0  0  0  0  0
   -7.6401    9.7111   -9.5254 C   0  0  0  0  0  0  0  0  0  0  0  0
   -8.3075    8.6850  -10.0132 N   0  0  0  0  0  0  0  0  0  0  0  0
   -8.4539    8.8245  -11.3160 N   0  0  0  0  0  0  0  0  0  0  0  0
   -7.3472    9.8680   -8.0446 C   0  0  0  0  0  0  0  0  0  0  0  0
   -5.5569   13.6094  -12.1739 C   0  0  0  0  0  0  0  0  0  0  0  0
   -5.9691   10.4796   -7.7443 C   0  0  0  0  0  0  0  0  0  0  0  0
   -5.8622   11.7497   -7.1624 C   0  0  0  0  0  0  0  0  0  0  0  0
   -4.6000   12.2988   -6.9070 C   0  0  0  0  0  0  0  0  0  0  0  0
   -3.4496   11.5829   -7.2293 C   0  0  0  0  0  0  0  0  0  0  0  0
   -3.5554   10.3089   -7.8035 C   0  0  0  0  0  0  0  0  0  0  0  0
   -4.8209    9.7667   -8.0554 C   0  0  0  0  0  0  0  0  0  0  0  0
   -2.0956   12.1660   -6.9654 C   0  0  0  0  0  0  0  0  0  0  0  0
   -1.7384   13.4130   -6.4683 C   0  0  0  0  0  0  0  0  0  0  0  0
   -0.4069   13.4502   -6.4129 N   0  0  3  0  0  0  0  0  0  0  0  0
    0.1813   12.3566   -6.8171 N   0  0  0  0  0  0  0  0  0  0  0  0
   -0.7988   11.5478   -7.1867 C   0  0  0  0  0  0  0  0  0  0  0  0
    0.4282   14.5550   -5.9664 C   0  0  0  0  0  0  0  0  0  0  0  0
   -4.7714   14.2106  -11.2027 N   0  0  0  0  0  0  0  0  0  0  0  0
   -4.2061   15.2849  -11.7862 C   0  0  0  0  0  0  0  0  0  0  0  0
   -4.6883   15.3268  -13.0997 C   0  0  0  0  0  0  0  0  0  0  0  0
   -5.5027   14.2765  -13.3098 N   0  0  0  0  0  0  0  0  0  0  0  0
   -4.5364   13.8232   -9.7989 C   0  0  0  0  0  0  0  0  0  0  0  0
   -7.2958   12.9399  -11.8223 H   0  0  0  0  0  0  0  0  0  0  0  0
   -6.1104   12.2275   -9.8498 H   0  0  0  0  0  0  0  0  0  0  0  0
   -8.1928   10.0800  -13.9189 H   0  0  0  0  0  0  0  0  0  0  0  0
   -6.8717   12.2251  -14.0803 H   0  0  0  0  0  0  0  0  0  0  0  0
   -8.0435    9.5766   -7.2721 H   0  0  0  0  0  0  0  0  0  0  0  0
   -6.7536   12.3051   -6.9109 H   0  0  0  0  0  0  0  0  0  0  0  0
   -4.5183   13.2784   -6.4597 H   0  0  0  0  0  0  0  0  0  0  0  0
   -2.6656    9.7487   -8.0502 H   0  0  0  0  0  0  0  0  0  0  0  0
   -4.9040    8.7842   -8.4961 H   0  0  0  0  0  0  0  0  0  0  0  0
   -2.1098   14.2048   -7.1354 H   0  0  0  0  0  0  0  0  0  0  0  0
   -2.1612   13.5527   -5.4625 H   0  0  0  0  0  0  0  0  0  0  0  0
   -0.6543   10.5597   -7.5981 H   0  0  0  0  0  0  0  0  0  0  0  0
    1.4877   14.2705   -6.0474 H   0  0  0  0  0  0  0  0  0  0  0  0
    0.2364   15.4369   -6.5953 H   0  0  0  0  0  0  0  0  0  0  0  0
    0.1917   14.7932   -4.9189 H   0  0  0  0  0  0  0  0  0  0  0  0
   -3.5156   15.9786  -11.3298 H   0  0  0  0  0  0  0  0  0  0  0  0
   -4.4447   16.0839  -13.8303 H   0  0  0  0  0  0  0  0  0  0  0  0
   -3.8494   14.5427   -9.3295 H   0  0  0  0  0  0  0  0  0  0  0  0
   -5.4922   13.8204   -9.2545 H   0  0  0  0  0  0  0  0  0  0  0  0
   -4.0925   12.8173   -9.7656 H   0  0  0  0  0  0  0  0  0  0  0  0
  1  2  1  0  0  0  0
  1  4  1  0  0  0  0
  1 11  1  0  0  0  0
  2  6  2  0  0  0  0
  3  4  2  0  0  0  0
  3  5  1  0  0  0  0
  5  6  1  0  0  0  0
  5  9  2  0  0  0  0
  6  7  1  0  0  0  0
  7  8  2  0  0  0  0
  7 10  1  0  0  0  0
  8  9  1  0  0  0  0
 10 12  2  0  0  0  0
 11 24  1  0  0  0  0
 11 27  2  0  0  0  0
 12 13  1  0  0  0  0
 12 17  1  0  0  0  0
 13 14  2  0  0  0  0
 14 15  1  0  0  0  0
 15 16  1  0  0  0  0
 15 18  2  0  0  0  0
 16 17  2  0  0  0  0
 18 19  1  0  0  0  0
 18 22  1  0  0  0  0
 19 20  1  0  0  0  0
 20 21  1  0  0  0  0
 20 23  1  0  0  0  0
 21 22  2  0  0  0  0
 24 25  1  0  0  0  0
 24 28  1  0  0  0  0
 25 26  2  0  0  0  0
 26 27  1  0  0  0  0
  1 29  1  0  0  0  0
  2 30  1  0  0  0  0
  3 31  1  0  0  0  0
  4 32  1  0  0  0  0
 10 33  1  0  0  0  0
 13 34  1  0  0  0  0
 14 35  1  0  0  0  0
 16 36  1  0  0  0  0
 17 37  1  0  0  0  0
 19 38  1  0  0  0  0
 19 39  1  0  0  0  0
 22 40  1  0  0  0  0
 23 41  1  0  0  0  0
 23 42  1  0  0  0  0
 23 43  1  0  0  0  0
 25 44  1  0  0  0  0
 26 45  1  0  0  0  0
 28 46  1  0  0  0  0
 28 47  1  0  0  0  0
 28 48  1  0  0  0  0
M  END
> <Name>
22

> <IC50[uM]>
0.032

$$$$
22
  -OEChem-05192314333D
 Structure written by MMmdl.
 48 52  0     1  0  0  0  0  0999 V2000
   -6.3943   12.3306  -11.9839 C   0  0  0  0  0  0  0  0  0  0  0  0
   -6.5449   11.7624  -10.7224 C   0  0  0  0  0  0  0  0  0  0  0  0
   -7.7389   10.5318  -13.0493 C   0  0  0  0  0  0  0  0  0  0  0  0
   -6.9892   11.7416  -13.1218 C   0  0  0  0  0  0  0  0  0  0  0  0
   -7.8445    9.9757  -11.7834 C   0  0  0  0  0  0  0  0  0  0  0  0
   -7.2758   10.5697  -10.6136 C   0  0  3  0  0  0  0  0  0  0  0  0
   -7.6401    9.7111   -9.5254 C   0  0  0  0  0  0  0  0  0  0  0  0
   -8.3075    8.6850  -10.0132 N   0  0  0  0  0  0  0  0  0  0  0  0
   -8.4539    8.8245  -11.3160 N   0  0  0  0  0  0  0  0  0  0  0  0
   -7.3472    9.8680   -8.0446 C   0  0  0  0  0  0  0  0  0  0  0  0
   -5.5569   13.6094  -12.1739 C   0  0  0  0  0  0  0  0  0  0  0  0
   -5.9691   10.4796   -7.7443 C   0  0  0  0  0  0  0  0  0  0  0  0
   -5.8622   11.7497   -7.1624 C   0  0  0  0  0  0  0  0  0  0  0  0
   -4.6000   12.2988   -6.9070 C   0  0  0  0  0  0  0  0  0  0  0  0
   -3.4496   11.5829   -7.2293 C   0  0  0  0  0  0  0  0  0  0  0  0
   -3.5554   10.3089   -7.8035 C   0  0  0  0  0  0  0  0  0  0  0  0
   -4.8209    9.7667   -8.0554 C   0  0  0  0  0  0  0  0  0  0  0  0
   -2.0956   12.1660   -6.9654 C   0  0  0  0  0  0  0  0  0  0  0  0
   -1.7384   13.4130   -6.4683 C   0  0  0  0  0  0  0  0  0  0  0  0
   -0.4069   13.4502   -6.4129 N   0  0  3  0  0  0  0  0  0  0  0  0
    0.1813   12.3566   -6.8171 N   0  0  0  0  0  0  0  0  0  0  0  0
   -0.7988   11.5478   -7.1867 C   0  0  0  0  0  0  0  0  0  0  0  0
    0.4282   14.5550   -5.9664 C   0  0  0  0  0  0  0  0  0  0  0  0
   -4.7714   14.2106  -11.2027 N   0  0  0  0  0  0  0  0  0  0  0  0
   -4.2061   15.2849  -11.7862 C   0  0  0  0  0  0  0  0  0  0  0  0
   -4.6883   15.3268  -13.0997 C   0  0  0  0  0  0  0  0  0  0  0  0
   -5.5027   14.2765  -13.3098 N   0  0  0  0  0  0  0  0  0  0  0  0
   -4.5364   13.8232   -9.7989 C   0  0  0  0  0  0  0  0  0  0  0  0
   -6.1104   12.2275   -9.8498 H   0  0  0  0  0  0  0  0  0  0  0  0
   -8.1928   10.0800  -13.9189 H   0  0  0  0  0  0  0  0  0  0  0  0
   -6.8717   12.2251  -14.0803 H   0  0  0  0  0  0  0  0  0  0  0  0
   -6.3539    9.9891  -10.7651 H   0  0  0  0  0  0  0  0  0  0  0  0
   -8.0435    9.5766   -7.2721 H   0  0  0  0  0  0  0  0  0  0  0  0
   -6.7536   12.3051   -6.9109 H   0  0  0  0  0  0  0  0  0  0  0  0
   -4.5183   13.2784   -6.4597 H   0  0  0  0  0  0  0  0  0  0  0  0
   -2.6656    9.7487   -8.0502 H   0  0  0  0  0  0  0  0  0  0  0  0
   -4.9040    8.7842   -8.4961 H   0  0  0  0  0  0  0  0  0  0  0  0
   -2.1098   14.2048   -7.1354 H   0  0  0  0  0  0  0  0  0  0  0  0
   -2.1612   13.5527   -5.4625 H   0  0  0  0  0  0  0  0  0  0  0  0
   -0.6543   10.5597   -7.5981 H   0  0  0  0  0  0  0  0  0  0  0  0
    1.4877   14.2705   -6.0474 H   0  0  0  0  0  0  0  0  0  0  0  0
    0.2364   15.4369   -6.5953 H   0  0  0  0  0  0  0  0  0  0  0  0
    0.1917   14.7932   -4.9189 H   0  0  0  0  0  0  0  0  0  0  0  0
   -3.5156   15.9786  -11.3298 H   0  0  0  0  0  0  0  0  0  0  0  0
   -4.4447   16.0839  -13.8303 H   0  0  0  0  0  0  0  0  0  0  0  0
   -3.8494   14.5427   -9.3295 H   0  0  0  0  0  0  0  0  0  0  0  0
   -5.4922   13.8204   -9.2545 H   0  0  0  0  0  0  0  0  0  0  0  0
   -4.0925   12.8173   -9.7656 H   0  0  0  0  0  0  0  0  0  0  0  0
  1  2  2  0  0  0  0
  1  4  1  0  0  0  0
  1 11  1  0  0  0  0
  2  6  1  0  0  0  0
  3  4  2  0  0  0  0
  3  5  1  0  0  0  0
  5  6  1  0  0  0  0
  5  9  2  0  0  0  0
  6  7  1  0  0  0  0
  7  8  2  0  0  0  0
  7 10  1  0  0  0  0
  8  9  1  0  0  0  0
 10 12  2  0  0  0  0
 11 24  1  0  0  0  0
 11 27  2  0  0  0  0
 12 13  1  0  0  0  0
 12 17  1  0  0  0  0
 13 14  2  0  0  0  0
 14 15  1  0  0  0  0
 15 16  1  0  0  0  0
 15 18  2  0  0  0  0
 16 17  2  0  0  0  0
 18 19  1  0  0  0  0
 18 22  1  0  0  0  0
 19 20  1  0  0  0  0
 20 21  1  0  0  0  0
 20 23  1  0  0  0  0
 21 22  2  0  0  0  0
 24 25  1  0  0  0  0
 24 28  1  0  0  0  0
 25 26  2  0  0  0  0
 26 27  1  0  0  0  0
  2 29  1  0  0  0  0
  3 30  1  0  0  0  0
  4 31  1  0  0  0  0
  6 32  1  0  0  0  0
 10 33  1  0  0  0  0
 13 34  1  0  0  0  0
 14 35  1  0  0  0  0
 16 36  1  0  0  0  0
 17 37  1  0  0  0  0
 19 38  1  0  0  0  0
 19 39  1  0  0  0  0
 22 40  1  0  0  0  0
 23 41  1  0  0  0  0
 23 42  1  0  0  0  0
 23 43  1  0  0  0  0
 25 44  1  0  0  0  0
 26 45  1  0  0  0  0
 28 46  1  0  0  0  0
 28 47  1  0  0  0  0
 28 48  1  0  0  0  0
M  END
> <Name>
22

> <IC50[uM]>
0.032

$$$$
22
  -OEChem-05192314333D
 Structure written by MMmdl.
 48 52  0     1  0  0  0  0  0999 V2000
   -6.3943   12.3306  -11.9839 C   0  0  0  0  0  0  0  0  0  0  0  0
   -6.5449   11.7624  -10.7224 C   0  0  0  0  0  0  0  0  0  0  0  0
   -7.7389   10.5318  -13.0493 C   0  0  0  0  0  0  0  0  0  0  0  0
   -6.9892   11.7416  -13.1218 C   0  0  0  0  0  0  0  0  0  0  0  0
   -7.8445    9.9757  -11.7834 C   0  0  0  0  0  0  0  0  0  0  0  0
   -7.2758   10.5697  -10.6136 C   0  0  0  0  0  0  0  0  0  0  0  0
   -7.6401    9.7111   -9.5254 C   0  0  0  0  0  0  0  0  0  0  0  0
   -8.3075    8.6850  -10.0132 N   0  0  0  0  0  0  0  0  0  0  0  0
   -8.4539    8.8245  -11.3160 N   0  0  0  0  0  0  0  0  0  0  0  0
   -7.3472    9.8680   -8.0446 C   0  0  0  0  0  0  0  0  0  0  0  0
   -5.5569   13.6094  -12.1739 C   0  0  0  0  0  0  0  0  0  0  0  0
   -5.9691   10.4796   -7.7443 C   0  0  0  0  0  0  0  0  0  0  0  0
   -5.8622   11.7497   -7.1624 C   0  0  0  0  0  0  0  0  0  0  0  0
   -4.6000   12.2988   -6.9070 C   0  0  0  0  0  0  0  0  0  0  0  0
   -3.4496   11.5829   -7.2293 C   0  0  0  0  0  0  0  0  0  0  0  0
   -3.5554   10.3089   -7.8035 C   0  0  0  0  0  0  0  0  0  0  0  0
   -4.8209    9.7667   -8.0554 C   0  0  0  0  0  0  0  0  0  0  0  0
   -2.0956   12.1660   -6.9654 C   0  0  0  0  0  0  0  0  0  0  0  0
   -1.7384   13.4130   -6.4683 C   0  0  0  0  0  0  0  0  0  0  0  0
   -0.4069   13.4502   -6.4129 N   0  0  3  0  0  0  0  0  0  0  0  0
    0.1813   12.3566   -6.8171 N   0  0  0  0  0  0  0  0  0  0  0  0
   -0.7988   11.5478   -7.1867 C   0  0  0  0  0  0  0  0  0  0  0  0
    0.4282   14.5550   -5.9664 C   0  0  0  0  0  0  0  0  0  0  0  0
   -4.7714   14.2106  -11.2027 N   0  0  0  0  0  0  0  0  0  0  0  0
   -4.2061   15.2849  -11.7862 C   0  0  0  0  0  0  0  0  0  0  0  0
   -4.6883   15.3268  -13.0997 C   0  0  0  0  0  0  0  0  0  0  0  0
   -5.5027   14.2765  -13.3098 N   0  0  0  0  0  0  0  0  0  0  0  0
   -4.5364   13.8232   -9.7989 C   0  0  0  0  0  0  0  0  0  0  0  0
   -6.1104   12.2275   -9.8498 H   0  0  0  0  0  0  0  0  0  0  0  0
   -8.7553   10.7392  -13.4153 H   0  0  0  0  0  0  0  0  0  0  0  0
   -7.2563    9.7930  -13.7060 H   0  0  0  0  0  0  0  0  0  0  0  0
   -6.8717   12.2251  -14.0803 H   0  0  0  0  0  0  0  0  0  0  0  0
   -8.0435    9.5766   -7.2721 H   0  0  0  0  0  0  0  0  0  0  0  0
   -6.7536   12.3051   -6.9109 H   0  0  0  0  0  0  0  0  0  0  0  0
   -4.5183   13.2784   -6.4597 H   0  0  0  0  0  0  0  0  0  0  0  0
   -2.6656    9.7487   -8.0502 H   0  0  0  0  0  0  0  0  0  0  0  0
   -4.9040    8.7842   -8.4961 H   0  0  0  0  0  0  0  0  0  0  0  0
   -2.1098   14.2048   -7.1354 H   0  0  0  0  0  0  0  0  0  0  0  0
   -2.1612   13.5527   -5.4625 H   0  0  0  0  0  0  0  0  0  0  0  0
   -0.6543   10.5597   -7.5981 H   0  0  0  0  0  0  0  0  0  0  0  0
    1.4877   14.2705   -6.0474 H   0  0  0  0  0  0  0  0  0  0  0  0
    0.2364   15.4369   -6.5953 H   0  0  0  0  0  0  0  0  0  0  0  0
    0.1917   14.7932   -4.9189 H   0  0  0  0  0  0  0  0  0  0  0  0
   -3.5156   15.9786  -11.3298 H   0  0  0  0  0  0  0  0  0  0  0  0
   -4.4447   16.0839  -13.8303 H   0  0  0  0  0  0  0  0  0  0  0  0
   -3.8494   14.5427   -9.3295 H   0  0  0  0  0  0  0  0  0  0  0  0
   -5.4922   13.8204   -9.2545 H   0  0  0  0  0  0  0  0  0  0  0  0
   -4.0925   12.8173   -9.7656 H   0  0  0  0  0  0  0  0  0  0  0  0
  1  2  1  0  0  0  0
  1  4  2  0  0  0  0
  1 11  1  0  0  0  0
  2  6  2  0  0  0  0
  3  4  1  0  0  0  0
  3  5  1  0  0  0  0
  5  6  1  0  0  0  0
  5  9  2  0  0  0  0
  6  7  1  0  0  0  0
  7  8  2  0  0  0  0
  7 10  1  0  0  0  0
  8  9  1  0  0  0  0
 10 12  2  0  0  0  0
 11 24  1  0  0  0  0
 11 27  2  0  0  0  0
 12 13  1  0  0  0  0
 12 17  1  0  0  0  0
 13 14  2  0  0  0  0
 14 15  1  0  0  0  0
 15 16  1  0  0  0  0
 15 18  2  0  0  0  0
 16 17  2  0  0  0  0
 18 19  1  0  0  0  0
 18 22  1  0  0  0  0
 19 20  1  0  0  0  0
 20 21  1  0  0  0  0
 20 23  1  0  0  0  0
 21 22  2  0  0  0  0
 24 25  1  0  0  0  0
 24 28  1  0  0  0  0
 25 26  2  0  0  0  0
 26 27  1  0  0  0  0
  2 29  1  0  0  0  0
  3 30  1  0  0  0  0
  3 31  1  0  0  0  0
  4 32  1  0  0  0  0
 10 33  1  0  0  0  0
 13 34  1  0  0  0  0
 14 35  1  0  0  0  0
 16 36  1  0  0  0  0
 17 37  1  0  0  0  0
 19 38  1  0  0  0  0
 19 39  1  0  0  0  0
 22 40  1  0  0  0  0
 23 41  1  0  0  0  0
 23 42  1  0  0  0  0
 23 43  1  0  0  0  0
 25 44  1  0  0  0  0
 26 45  1  0  0  0  0
 28 46  1  0  0  0  0
 28 47  1  0  0  0  0
 28 48  1  0  0  0  0
M  END
> <Name>
22

> <IC50[uM]>
0.032

$$$$
22
  -OEChem-05192314333D
 Structure written by MMmdl.
 48 52  0     1  0  0  0  0  0999 V2000
   -6.3943   12.3306  -11.9839 C   0  0  0  0  0  0  0  0  0  0  0  0
   -6.5449   11.7624  -10.7224 C   0  0  0  0  0  0  0  0  0  0  0  0
   -7.7389   10.5318  -13.0493 C   0  0  0  0  0  0  0  0  0  0  0  0
   -6.9892   11.7416  -13.1218 C   0  0  0  0  0  0  0  0  0  0  0  0
   -7.8445    9.9757  -11.7834 C   0  0  0  0  0  0  0  0  0  0  0  0
   -7.2758   10.5697  -10.6136 C   0  0  0  0  0  0  0  0  0  0  0  0
   -7.6401    9.7111   -9.5254 C   0  0  0  0  0  0  0  0  0  0  0  0
   -8.3075    8.6850  -10.0132 N   0  0  0  0  0  0  0  0  0  0  0  0
   -8.4539    8.8245  -11.3160 N   0  0  0  0  0  0  0  0  0  0  0  0
   -7.3472    9.8680   -8.0446 C   0  0  0  0  0  0  0  0  0  0  0  0
   -5.5569   13.6094  -12.1739 C   0  0  0  0  0  0  0  0  0  0  0  0
   -5.9691   10.4796   -7.7443 C   0  0  0  0  0  0  0  0  0  0  0  0
   -5.8622   11.7497   -7.1624 C   0  0  0  0  0  0  0  0  0  0  0  0
   -4.6000   12.2988   -6.9070 C   0  0  0  0  0  0  0  0  0  0  0  0
   -3.4496   11.5829   -7.2293 C   0  0  0  0  0  0  0  0  0  0  0  0
   -3.5554   10.3089   -7.8035 C   0  0  0  0  0  0  0  0  0  0  0  0
   -4.8209    9.7667   -8.0554 C   0  0  0  0  0  0  0  0  0  0  0  0
   -2.0956   12.1660   -6.9654 C   0  0  0  0  0  0  0  0  0  0  0  0
   -1.7384   13.4130   -6.4683 C   0  0  0  0  0  0  0  0  0  0  0  0
   -0.4069   13.4502   -6.4129 N   0  0  0  0  0  0  0  0  0  0  0  0
    0.1813   12.3566   -6.8171 N   0  0  0  0  0  0  0  0  0  0  0  0
   -0.7988   11.5478   -7.1867 C   0  0  0  0  0  0  0  0  0  0  0  0
    0.4282   14.5550   -5.9664 C   0  0  0  0  0  0  0  0  0  0  0  0
   -4.7714   14.2106  -11.2027 N   0  0  3  0  0  0  0  0  0  0  0  0
   -4.2061   15.2849  -11.7862 C   0  0  0  0  0  0  0  0  0  0  0  0
   -4.6883   15.3268  -13.0997 C   0  0  0  0  0  0  0  0  0  0  0  0
   -5.5027   14.2765  -13.3098 N   0  0  0  0  0  0  0  0  0  0  0  0
   -4.5364   13.8232   -9.7989 C   0  0  0  0  0  0  0  0  0  0  0  0
   -6.1104   12.2275   -9.8498 H   0  0  0  0  0  0  0  0  0  0  0  0
   -8.1928   10.0800  -13.9189 H   0  0  0  0  0  0  0  0  0  0  0  0
   -6.8717   12.2251  -14.0803 H   0  0  0  0  0  0  0  0  0  0  0  0
   -8.0435    9.5766   -7.2721 H   0  0  0  0  0  0  0  0  0  0  0  0
   -6.7536   12.3051   -6.9109 H   0  0  0  0  0  0  0  0  0  0  0  0
   -4.5183   13.2784   -6.4597 H   0  0  0  0  0  0  0  0  0  0  0  0
   -3.4490   12.0350   -8.2321 H   0  0  0  0  0  0  0  0  0  0  0  0
   -2.6656    9.7487   -8.0502 H   0  0  0  0  0  0  0  0  0  0  0  0
   -4.9040    8.7842   -8.4961 H   0  0  0  0  0  0  0  0  0  0  0  0
   -2.4137   14.2051   -6.1803 H   0  0  0  0  0  0  0  0  0  0  0  0
   -0.6543   10.5597   -7.5981 H   0  0  0  0  0  0  0  0  0  0  0  0
    1.4877   14.2705   -6.0474 H   0  0  0  0  0  0  0  0  0  0  0  0
    0.2364   15.4369   -6.5953 H   0  0  0  0  0  0  0  0  0  0  0  0
    0.1917   14.7932   -4.9189 H   0  0  0  0  0  0  0  0  0  0  0  0
   -4.4893   16.2018  -11.2485 H   0  0  0  0  0  0  0  0  0  0  0  0
   -3.1108   15.1839  -11.7871 H   0  0  0  0  0  0  0  0  0  0  0  0
   -4.4447   16.0839  -13.8303 H   0  0  0  0  0  0  0  0  0  0  0  0
   -3.8494   14.5427   -9.3295 H   0  0  0  0  0  0  0  0  0  0  0  0
   -5.4922   13.8204   -9.2545 H   0  0  0  0  0  0  0  0  0  0  0  0
   -4.0925   12.8173   -9.7656 H   0  0  0  0  0  0  0  0  0  0  0  0
  1  2  1  0  0  0  0
  1  4  1  0  0  0  0
  1 11  2  0  0  0  0
  2  6  2  0  0  0  0
  3  4  2  0  0  0  0
  3  5  1  0  0  0  0
  5  6  1  0  0  0  0
  5  9  2  0  0  0  0
  6  7  1  0  0  0  0
  7  8  2  0  0  0  0
  7 10  1  0  0  0  0
  8  9  1  0  0  0  0
 10 12  2  0  0  0  0
 11 24  1  0  0  0  0
 11 27  1  0  0  0  0
 12 13  1  0  0  0  0
 12 17  1  0  0  0  0
 13 14  2  0  0  0  0
 14 15  1  0  0  0  0
 15 16  1  0  0  0  0
 15 18  1  0  0  0  0
 16 17  2  0  0  0  0
 18 19  2  0  0  0  0
 18 22  1  0  0  0  0
 19 20  1  0  0  0  0
 20 21  1  0  0  0  0
 20 23  1  0  0  0  0
 21 22  2  0  0  0  0
 24 25  1  0  0  0  0
 24 28  1  0  0  0  0
 25 26  1  0  0  0  0
 26 27  2  0  0  0  0
  2 29  1  0  0  0  0
  3 30  1  0  0  0  0
  4 31  1  0  0  0  0
 10 32  1  0  0  0  0
 13 33  1  0  0  0  0
 14 34  1  0  0  0  0
 15 35  1  0  0  0  0
 16 36  1  0  0  0  0
 17 37  1  0  0  0  0
 19 38  1  0  0  0  0
 22 39  1  0  0  0  0
 23 40  1  0  0  0  0
 23 41  1  0  0  0  0
 23 42  1  0  0  0  0
 25 43  1  0  0  0  0
 25 44  1  0  0  0  0
 26 45  1  0  0  0  0
 28 46  1  0  0  0  0
 28 47  1  0  0  0  0
 28 48  1  0  0  0  0
M  END
> <Name>
22

> <IC50[uM]>
0.032

$$$$
22
  -OEChem-05192314333D
 Structure written by MMmdl.
 48 52  0     1  0  0  0  0  0999 V2000
   -6.3943   12.3306  -11.9839 C   0  0  0  0  0  0  0  0  0  0  0  0
   -6.5449   11.7624  -10.7224 C   0  0  0  0  0  0  0  0  0  0  0  0
   -7.7389   10.5318  -13.0493 C   0  0  0  0  0  0  0  0  0  0  0  0
   -6.9892   11.7416  -13.1218 C   0  0  0  0  0  0  0  0  0  0  0  0
   -7.8445    9.9757  -11.7834 C   0  0  0  0  0  0  0  0  0  0  0  0
   -7.2758   10.5697  -10.6136 C   0  0  0  0  0  0  0  0  0  0  0  0
   -7.6401    9.7111   -9.5254 C   0  0  0  0  0  0  0  0  0  0  0  0
   -8.3075    8.6850  -10.0132 N   0  0  0  0  0  0  0  0  0  0  0  0
   -8.4539    8.8245  -11.3160 N   0  0  0  0  0  0  0  0  0  0  0  0
   -7.3472    9.8680   -8.0446 C   0  0  0  0  0  0  0  0  0  0  0  0
   -5.5569   13.6094  -12.1739 C   0  0  0  0  0  0  0  0  0  0  0  0
   -5.9691   10.4796   -7.7443 C   0  0  0  0  0  0  0  0  0  0  0  0
   -5.8622   11.7497   -7.1624 C   0  0  0  0  0  0  0  0  0  0  0  0
   -4.6000   12.2988   -6.9070 C   0  0  0  0  0  0  0  0  0  0  0  0
   -3.4496   11.5829   -7.2293 C   0  0  0  0  0  0  0  0  0  0  0  0
   -3.5554   10.3089   -7.8035 C   0  0  0  0  0  0  0  0  0  0  0  0
   -4.8209    9.7667   -8.0554 C   0  0  0  0  0  0  0  0  0  0  0  0
   -2.0956   12.1660   -6.9654 C   0  0  0  0  0  0  0  0  0  0  0  0
   -1.7384   13.4130   -6.4683 C   0  0  0  0  0  0  0  0  0  0  0  0
   -0.4069   13.4502   -6.4129 N   0  0  0  0  0  0  0  0  0  0  0  0
    0.1813   12.3566   -6.8171 N   0  0  0  0  0  0  0  0  0  0  0  0
   -0.7988   11.5478   -7.1867 C   0  0  0  0  0  0  0  0  0  0  0  0
    0.4282   14.5550   -5.9664 C   0  0  0  0  0  0  0  0  0  0  0  0
   -4.7714   14.2106  -11.2027 N   0  0  3  0  0  0  0  0  0  0  0  0
   -4.2061   15.2849  -11.7862 C   0  0  0  0  0  0  0  0  0  0  0  0
   -4.6883   15.3268  -13.0997 C   0  0  0  0  0  0  0  0  0  0  0  0
   -5.5027   14.2765  -13.3098 N   0  0  0  0  0  0  0  0  0  0  0  0
   -4.5364   13.8232   -9.7989 C   0  0  0  0  0  0  0  0  0  0  0  0
   -6.1104   12.2275   -9.8498 H   0  0  0  0  0  0  0  0  0  0  0  0
   -8.1928   10.0800  -13.9189 H   0  0  0  0  0  0  0  0  0  0  0  0
   -6.8717   12.2251  -14.0803 H   0  0  0  0  0  0  0  0  0  0  0  0
   -8.0435    9.5766   -7.2721 H   0  0  0  0  0  0  0  0  0  0  0  0
   -6.7536   12.3051   -6.9109 H   0  0  0  0  0  0  0  0  0  0  0  0
   -4.5183   13.2784   -6.4597 H   0  0  0  0  0  0  0  0  0  0  0  0
   -2.6656    9.7487   -8.0502 H   0  0  0  0  0  0  0  0  0  0  0  0
   -4.8756    8.8218   -7.4949 H   0  0  0  0  0  0  0  0  0  0  0  0
   -4.8639    9.5561   -9.1342 H   0  0  0  0  0  0  0  0  0  0  0  0
   -2.4137   14.2051   -6.1803 H   0  0  0  0  0  0  0  0  0  0  0  0
   -0.6543   10.5597   -7.5981 H   0  0  0  0  0  0  0  0  0  0  0  0
    1.4877   14.2705   -6.0474 H   0  0  0  0  0  0  0  0  0  0  0  0
    0.2364   15.4369   -6.5953 H   0  0  0  0  0  0  0  0  0  0  0  0
    0.1917   14.7932   -4.9189 H   0  0  0  0  0  0  0  0  0  0  0  0
   -4.4893   16.2018  -11.2485 H   0  0  0  0  0  0  0  0  0  0  0  0
   -3.1108   15.1839  -11.7871 H   0  0  0  0  0  0  0  0  0  0  0  0
   -4.4447   16.0839  -13.8303 H   0  0  0  0  0  0  0  0  0  0  0  0
   -3.8494   14.5427   -9.3295 H   0  0  0  0  0  0  0  0  0  0  0  0
   -5.4922   13.8204   -9.2545 H   0  0  0  0  0  0  0  0  0  0  0  0
   -4.0925   12.8173   -9.7656 H   0  0  0  0  0  0  0  0  0  0  0  0
  1  2  1  0  0  0  0
  1  4  1  0  0  0  0
  1 11  2  0  0  0  0
  2  6  2  0  0  0  0
  3  4  2  0  0  0  0
  3  5  1  0  0  0  0
  5  6  1  0  0  0  0
  5  9  2  0  0  0  0
  6  7  1  0  0  0  0
  7  8  2  0  0  0  0
  7 10  1  0  0  0  0
  8  9  1  0  0  0  0
 10 12  2  3  0  0  0
 11 24  1  0  0  0  0
 11 27  1  0  0  0  0
 12 13  1  0  0  0  0
 12 17  1  0  0  0  0
 13 14  2  0  0  0  0
 14 15  1  0  0  0  0
 15 16  2  0  0  0  0
 15 18  1  0  0  0  0
 16 17  1  0  0  0  0
 18 19  2  0  0  0  0
 18 22  1  0  0  0  0
 19 20  1  0  0  0  0
 20 21  1  0  0  0  0
 20 23  1  0  0  0  0
 21 22  2  0  0  0  0
 24 25  1  0  0  0  0
 24 28  1  0  0  0  0
 25 26  1  0  0  0  0
 26 27  2  0  0  0  0
  2 29  1  0  0  0  0
  3 30  1  0  0  0  0
  4 31  1  0  0  0  0
 10 32  1  0  0  0  0
 13 33  1  0  0  0  0
 14 34  1  0  0  0  0
 16 35  1  0  0  0  0
 17 36  1  0  0  0  0
 17 37  1  0  0  0  0
 19 38  1  0  0  0  0
 22 39  1  0  0  0  0
 23 40  1  0  0  0  0
 23 41  1  0  0  0  0
 23 42  1  0  0  0  0
 25 43  1  0  0  0  0
 25 44  1  0  0  0  0
 26 45  1  0  0  0  0
 28 46  1  0  0  0  0
 28 47  1  0  0  0  0
 28 48  1  0  0  0  0
M  END
> <Name>
22

> <IC50[uM]>
0.032

$$$$
22
  -OEChem-05192314333D
 Structure written by MMmdl.
 48 52  0     1  0  0  0  0  0999 V2000
   -6.3943   12.3306  -11.9839 C   0  0  0  0  0  0  0  0  0  0  0  0
   -6.5449   11.7624  -10.7224 C   0  0  0  0  0  0  0  0  0  0  0  0
   -7.7389   10.5318  -13.0493 C   0  0  0  0  0  0  0  0  0  0  0  0
   -6.9892   11.7416  -13.1218 C   0  0  0  0  0  0  0  0  0  0  0  0
   -7.8445    9.9757  -11.7834 C   0  0  3  0  0  0  0  0  0  0  0  0
   -7.2758   10.5697  -10.6136 C   0  0  0  0  0  0  0  0  0  0  0  0
   -7.6401    9.7111   -9.5254 C   0  0  0  0  0  0  0  0  0  0  0  0
   -8.3075    8.6850  -10.0132 N   0  0  0  0  0  0  0  0  0  0  0  0
   -8.4539    8.8245  -11.3160 N   0  0  0  0  0  0  0  0  0  0  0  0
   -7.3472    9.8680   -8.0446 C   0  0  0  0  0  0  0  0  0  0  0  0
   -5.5569   13.6094  -12.1739 C   0  0  0  0  0  0  0  0  0  0  0  0
   -5.9691   10.4796   -7.7443 C   0  0  0  0  0  0  0  0  0  0  0  0
   -5.8622   11.7497   -7.1624 C   0  0  0  0  0  0  0  0  0  0  0  0
   -4.6000   12.2988   -6.9070 C   0  0  0  0  0  0  0  0  0  0  0  0
   -3.4496   11.5829   -7.2293 C   0  0  0  0  0  0  0  0  0  0  0  0
   -3.5554   10.3089   -7.8035 C   0  0  0  0  0  0  0  0  0  0  0  0
   -4.8209    9.7667   -8.0554 C   0  0  0  0  0  0  0  0  0  0  0  0
   -2.0956   12.1660   -6.9654 C   0  0  0  0  0  0  0  0  0  0  0  0
   -1.7384   13.4130   -6.4683 C   0  0  0  0  0  0  0  0  0  0  0  0
   -0.4069   13.4502   -6.4129 N   0  0  3  0  0  0  0  0  0  0  0  0
    0.1813   12.3566   -6.8171 N   0  0  0  0  0  0  0  0  0  0  0  0
   -0.7988   11.5478   -7.1867 C   0  0  0  0  0  0  0  0  0  0  0  0
    0.4282   14.5550   -5.9664 C   0  0  0  0  0  0  0  0  0  0  0  0
   -4.7714   14.2106  -11.2027 N   0  0  0  0  0  0  0  0  0  0  0  0
   -4.2061   15.2849  -11.7862 C   0  0  0  0  0  0  0  0  0  0  0  0
   -4.6883   15.3268  -13.0997 C   0  0  0  0  0  0  0  0  0  0  0  0
   -5.5027   14.2765  -13.3098 N   0  0  0  0  0  0  0  0  0  0  0  0
   -4.5364   13.8232   -9.7989 C   0  0  0  0  0  0  0  0  0  0  0  0
   -6.1104   12.2275   -9.8498 H   0  0  0  0  0  0  0  0  0  0  0  0
   -8.1928   10.0800  -13.9189 H   0  0  0  0  0  0  0  0  0  0  0  0
   -6.8717   12.2251  -14.0803 H   0  0  0  0  0  0  0  0  0  0  0  0
   -6.9133    9.4148  -11.9517 H   0  0  0  0  0  0  0  0  0  0  0  0
   -8.0435    9.5766   -7.2721 H   0  0  0  0  0  0  0  0  0  0  0  0
   -6.7536   12.3051   -6.9109 H   0  0  0  0  0  0  0  0  0  0  0  0
   -4.5183   13.2784   -6.4597 H   0  0  0  0  0  0  0  0  0  0  0  0
   -2.6656    9.7487   -8.0502 H   0  0  0  0  0  0  0  0  0  0  0  0
   -4.9040    8.7842   -8.4961 H   0  0  0  0  0  0  0  0  0  0  0  0
   -2.1098   14.2048   -7.1354 H   0  0  0  0  0  0  0  0  0  0  0  0
   -2.1612   13.5527   -5.4625 H   0  0  0  0  0  0  0  0  0  0  0  0
   -0.6543   10.5597   -7.5981 H   0  0  0  0  0  0  0  0  0  0  0  0
    1.4877   14.2705   -6.0474 H   0  0  0  0  0  0  0  0  0  0  0  0
    0.2364   15.4369   -6.5953 H   0  0  0  0  0  0  0  0  0  0  0  0
    0.1917   14.7932   -4.9189 H   0  0  0  0  0  0  0  0  0  0  0  0
   -3.5156   15.9786  -11.3298 H   0  0  0  0  0  0  0  0  0  0  0  0
   -4.4447   16.0839  -13.8303 H   0  0  0  0  0  0  0  0  0  0  0  0
   -3.8494   14.5427   -9.3295 H   0  0  0  0  0  0  0  0  0  0  0  0
   -5.4922   13.8204   -9.2545 H   0  0  0  0  0  0  0  0  0  0  0  0
   -4.0925   12.8173   -9.7656 H   0  0  0  0  0  0  0  0  0  0  0  0
  1  2  2  0  0  0  0
  1  4  1  0  0  0  0
  1 11  1  0  0  0  0
  2  6  1  0  0  0  0
  3  4  2  0  0  0  0
  3  5  1  0  0  0  0
  5  6  1  0  0  0  0
  5  9  1  0  0  0  0
  6  7  2  0  0  0  0
  7  8  1  0  0  0  0
  7 10  1  0  0  0  0
  8  9  2  0  0  0  0
 10 12  2  0  0  0  0
 11 24  1  0  0  0  0
 11 27  2  0  0  0  0
 12 13  1  0  0  0  0
 12 17  1  0  0  0  0
 13 14  2  0  0  0  0
 14 15  1  0  0  0  0
 15 16  1  0  0  0  0
 15 18  2  0  0  0  0
 16 17  2  0  0  0  0
 18 19  1  0  0  0  0
 18 22  1  0  0  0  0
 19 20  1  0  0  0  0
 20 21  1  0  0  0  0
 20 23  1  0  0  0  0
 21 22  2  0  0  0  0
 24 25  1  0  0  0  0
 24 28  1  0  0  0  0
 25 26  2  0  0  0  0
 26 27  1  0  0  0  0
  2 29  1  0  0  0  0
  3 30  1  0  0  0  0
  4 31  1  0  0  0  0
  5 32  1  0  0  0  0
 10 33  1  0  0  0  0
 13 34  1  0  0  0  0
 14 35  1  0  0  0  0
 16 36  1  0  0  0  0
 17 37  1  0  0  0  0
 19 38  1  0  0  0  0
 19 39  1  0  0  0  0
 22 40  1  0  0  0  0
 23 41  1  0  0  0  0
 23 42  1  0  0  0  0
 23 43  1  0  0  0  0
 25 44  1  0  0  0  0
 26 45  1  0  0  0  0
 28 46  1  0  0  0  0
 28 47  1  0  0  0  0
 28 48  1  0  0  0  0
M  END
> <Name>
22

> <IC50[uM]>
0.032

$$$$
22
  -OEChem-05192314333D
 Structure written by MMmdl.
 48 52  0     1  0  0  0  0  0999 V2000
   -6.3943   12.3306  -11.9839 C   0  0  0  0  0  0  0  0  0  0  0  0
   -6.5449   11.7624  -10.7224 C   0  0  0  0  0  0  0  0  0  0  0  0
   -7.7389   10.5318  -13.0493 C   0  0  0  0  0  0  0  0  0  0  0  0
   -6.9892   11.7416  -13.1218 C   0  0  0  0  0  0  0  0  0  0  0  0
   -7.8445    9.9757  -11.7834 C   0  0  0  0  0  0  0  0  0  0  0  0
   -7.2758   10.5697  -10.6136 C   0  0  0  0  0  0  0  0  0  0  0  0
   -7.6401    9.7111   -9.5254 C   0  0  0  0  0  0  0  0  0  0  0  0
   -8.3075    8.6850  -10.0132 N   0  0  0  0  0  0  0  0  0  0  0  0
   -8.4539    8.8245  -11.3160 N   0  0  0  0  0  0  0  0  0  0  0  0
   -7.3472    9.8680   -8.0446 C   0  0  0  0  0  0  0  0  0  0  0  0
   -5.5569   13.6094  -12.1739 C   0  0  0  0  0  0  0  0  0  0  0  0
   -5.9691   10.4796   -7.7443 C   0  0  0  0  0  0  0  0  0  0  0  0
   -5.8622   11.7497   -7.1624 C   0  0  0  0  0  0  0  0  0  0  0  0
   -4.6000   12.2988   -6.9070 C   0  0  0  0  0  0  0  0  0  0  0  0
   -3.4496   11.5829   -7.2293 C   0  0  0  0  0  0  0  0  0  0  0  0
   -3.5554   10.3089   -7.8035 C   0  0  0  0  0  0  0  0  0  0  0  0
   -4.8209    9.7667   -8.0554 C   0  0  0  0  0  0  0  0  0  0  0  0
   -2.0956   12.1660   -6.9654 C   0  0  0  0  0  0  0  0  0  0  0  0
   -1.7384   13.4130   -6.4683 C   0  0  0  0  0  0  0  0  0  0  0  0
   -0.4069   13.4502   -6.4129 N   0  0  3  0  0  0  0  0  0  0  0  0
    0.1813   12.3566   -6.8171 N   0  0  0  0  0  0  0  0  0  0  0  0
   -0.7988   11.5478   -7.1867 C   0  0  0  0  0  0  0  0  0  0  0  0
    0.4282   14.5550   -5.9664 C   0  0  0  0  0  0  0  0  0  0  0  0
   -4.7714   14.2106  -11.2027 N   0  0  0  0  0  0  0  0  0  0  0  0
   -4.2061   15.2849  -11.7862 C   0  0  0  0  0  0  0  0  0  0  0  0
   -4.6883   15.3268  -13.0997 C   0  0  0  0  0  0  0  0  0  0  0  0
   -5.5027   14.2765  -13.3098 N   0  0  0  0  0  0  0  0  0  0  0  0
   -4.5364   13.8232   -9.7989 C   0  0  0  0  0  0  0  0  0  0  0  0
   -6.1104   12.2275   -9.8498 H   0  0  0  0  0  0  0  0  0  0  0  0
   -8.1928   10.0800  -13.9189 H   0  0  0  0  0  0  0  0  0  0  0  0
   -7.6693   12.4990  -13.5386 H   0  0  0  0  0  0  0  0  0  0  0  0
   -6.1709   11.5529  -13.8323 H   0  0  0  0  0  0  0  0  0  0  0  0
   -8.0435    9.5766   -7.2721 H   0  0  0  0  0  0  0  0  0  0  0  0
   -6.7536   12.3051   -6.9109 H   0  0  0  0  0  0  0  0  0  0  0  0
   -4.5183   13.2784   -6.4597 H   0  0  0  0  0  0  0  0  0  0  0  0
   -2.6656    9.7487   -8.0502 H   0  0  0  0  0  0  0  0  0  0  0  0
   -4.9040    8.7842   -8.4961 H   0  0  0  0  0  0  0  0  0  0  0  0
   -2.1098   14.2048   -7.1354 H   0  0  0  0  0  0  0  0  0  0  0  0
   -2.1612   13.5527   -5.4625 H   0  0  0  0  0  0  0  0  0  0  0  0
   -0.6543   10.5597   -7.5981 H   0  0  0  0  0  0  0  0  0  0  0  0
    1.4877   14.2705   -6.0474 H   0  0  0  0  0  0  0  0  0  0  0  0
    0.2364   15.4369   -6.5953 H   0  0  0  0  0  0  0  0  0  0  0  0
    0.1917   14.7932   -4.9189 H   0  0  0  0  0  0  0  0  0  0  0  0
   -3.5156   15.9786  -11.3298 H   0  0  0  0  0  0  0  0  0  0  0  0
   -4.4447   16.0839  -13.8303 H   0  0  0  0  0  0  0  0  0  0  0  0
   -3.8494   14.5427   -9.3295 H   0  0  0  0  0  0  0  0  0  0  0  0
   -5.4922   13.8204   -9.2545 H   0  0  0  0  0  0  0  0  0  0  0  0
   -4.0925   12.8173   -9.7656 H   0  0  0  0  0  0  0  0  0  0  0  0
  1  2  2  0  0  0  0
  1  4  1  0  0  0  0
  1 11  1  0  0  0  0
  2  6  1  0  0  0  0
  3  4  1  0  0  0  0
  3  5  2  0  0  0  0
  5  6  1  0  0  0  0
  5  9  1  0  0  0  0
  6  7  2  0  0  0  0
  7  8  1  0  0  0  0
  7 10  1  0  0  0  0
  8  9  2  0  0  0  0
 10 12  2  0  0  0  0
 11 24  1  0  0  0  0
 11 27  2  0  0  0  0
 12 13  1  0  0  0  0
 12 17  1  0  0  0  0
 13 14  2  0  0  0  0
 14 15  1  0  0  0  0
 15 16  1  0  0  0  0
 15 18  2  0  0  0  0
 16 17  2  0  0  0  0
 18 19  1  0  0  0  0
 18 22  1  0  0  0  0
 19 20  1  0  0  0  0
 20 21  1  0  0  0  0
 20 23  1  0  0  0  0
 21 22  2  0  0  0  0
 24 25  1  0  0  0  0
 24 28  1  0  0  0  0
 25 26  2  0  0  0  0
 26 27  1  0  0  0  0
  2 29  1  0  0  0  0
  3 30  1  0  0  0  0
  4 31  1  0  0  0  0
  4 32  1  0  0  0  0
 10 33  1  0  0  0  0
 13 34  1  0  0  0  0
 14 35  1  0  0  0  0
 16 36  1  0  0  0  0
 17 37  1  0  0  0  0
 19 38  1  0  0  0  0
 19 39  1  0  0  0  0
 22 40  1  0  0  0  0
 23 41  1  0  0  0  0
 23 42  1  0  0  0  0
 23 43  1  0  0  0  0
 25 44  1  0  0  0  0
 26 45  1  0  0  0  0
 28 46  1  0  0  0  0
 28 47  1  0  0  0  0
 28 48  1  0  0  0  0
M  END
> <Name>
22

> <IC50[uM]>
0.032

$$$$
22
  -OEChem-05192314333D
 Structure written by MMmdl.
 48 52  0     1  0  0  0  0  0999 V2000
   -6.3943   12.3306  -11.9839 C   0  0  0  0  0  0  0  0  0  0  0  0
   -6.5449   11.7624  -10.7224 C   0  0  0  0  0  0  0  0  0  0  0  0
   -7.7389   10.5318  -13.0493 C   0  0  0  0  0  0  0  0  0  0  0  0
   -6.9892   11.7416  -13.1218 C   0  0  0  0  0  0  0  0  0  0  0  0
   -7.8445    9.9757  -11.7834 C   0  0  0  0  0  0  0  0  0  0  0  0
   -7.2758   10.5697  -10.6136 C   0  0  0  0  0  0  0  0  0  0  0  0
   -7.6401    9.7111   -9.5254 C   0  0  0  0  0  0  0  0  0  0  0  0
   -8.3075    8.6850  -10.0132 N   0  0  0  0  0  0  0  0  0  0  0  0
   -8.4539    8.8245  -11.3160 N   0  0  0  0  0  0  0  0  0  0  0  0
   -7.3472    9.8680   -8.0446 C   0  0  0  0  0  0  0  0  0  0  0  0
   -5.5569   13.6094  -12.1739 C   0  0  0  0  0  0  0  0  0  0  0  0
   -5.9691   10.4796   -7.7443 C   0  0  0  0  0  0  0  0  0  0  0  0
   -5.8622   11.7497   -7.1624 C   0  0  0  0  0  0  0  0  0  0  0  0
   -4.6000   12.2988   -6.9070 C   0  0  0  0  0  0  0  0  0  0  0  0
   -3.4496   11.5829   -7.2293 C   0  0  0  0  0  0  0  0  0  0  0  0
   -3.5554   10.3089   -7.8035 C   0  0  0  0  0  0  0  0  0  0  0  0
   -4.8209    9.7667   -8.0554 C   0  0  0  0  0  0  0  0  0  0  0  0
   -2.0956   12.1660   -6.9654 C   0  0  0  0  0  0  0  0  0  0  0  0
   -1.7384   13.4130   -6.4683 C   0  0  0  0  0  0  0  0  0  0  0  0
   -0.4069   13.4502   -6.4129 N   0  0  3  0  0  0  0  0  0  0  0  0
    0.1813   12.3566   -6.8171 N   0  0  0  0  0  0  0  0  0  0  0  0
   -0.7988   11.5478   -7.1867 C   0  0  0  0  0  0  0  0  0  0  0  0
    0.4282   14.5550   -5.9664 C   0  0  0  0  0  0  0  0  0  0  0  0
   -4.7714   14.2106  -11.2027 N   0  0  0  0  0  0  0  0  0  0  0  0
   -4.2061   15.2849  -11.7862 C   0  0  0  0  0  0  0  0  0  0  0  0
   -4.6883   15.3268  -13.0997 C   0  0  0  0  0  0  0  0  0  0  0  0
   -5.5027   14.2765  -13.3098 N   0  0  0  0  0  0  0  0  0  0  0  0
   -4.5364   13.8232   -9.7989 C   0  0  0  0  0  0  0  0  0  0  0  0
   -5.5359   11.5629  -10.3324 H   0  0  0  0  0  0  0  0  0  0  0  0
   -7.0429   12.5089  -10.0862 H   0  0  0  0  0  0  0  0  0  0  0  0
   -8.1928   10.0800  -13.9189 H   0  0  0  0  0  0  0  0  0  0  0  0
   -6.8717   12.2251  -14.0803 H   0  0  0  0  0  0  0  0  0  0  0  0
   -8.0435    9.5766   -7.2721 H   0  0  0  0  0  0  0  0  0  0  0  0
   -6.7536   12.3051   -6.9109 H   0  0  0  0  0  0  0  0  0  0  0  0
   -4.5183   13.2784   -6.4597 H   0  0  0  0  0  0  0  0  0  0  0  0
   -2.6656    9.7487   -8.0502 H   0  0  0  0  0  0  0  0  0  0  0  0
   -4.9040    8.7842   -8.4961 H   0  0  0  0  0  0  0  0  0  0  0  0
   -2.1098   14.2048   -7.1354 H   0  0  0  0  0  0  0  0  0  0  0  0
   -2.1612   13.5527   -5.4625 H   0  0  0  0  0  0  0  0  0  0  0  0
   -0.6543   10.5597   -7.5981 H   0  0  0  0  0  0  0  0  0  0  0  0
    1.4877   14.2705   -6.0474 H   0  0  0  0  0  0  0  0  0  0  0  0
    0.2364   15.4369   -6.5953 H   0  0  0  0  0  0  0  0  0  0  0  0
    0.1917   14.7932   -4.9189 H   0  0  0  0  0  0  0  0  0  0  0  0
   -3.5156   15.9786  -11.3298 H   0  0  0  0  0  0  0  0  0  0  0  0
   -4.4447   16.0839  -13.8303 H   0  0  0  0  0  0  0  0  0  0  0  0
   -3.8494   14.5427   -9.3295 H   0  0  0  0  0  0  0  0  0  0  0  0
   -5.4922   13.8204   -9.2545 H   0  0  0  0  0  0  0  0  0  0  0  0
   -4.0925   12.8173   -9.7656 H   0  0  0  0  0  0  0  0  0  0  0  0
  1  2  1  0  0  0  0
  1  4  2  0  0  0  0
  1 11  1  0  0  0  0
  2  6  1  0  0  0  0
  3  4  1  0  0  0  0
  3  5  2  0  0  0  0
  5  6  1  0  0  0  0
  5  9  1  0  0  0  0
  6  7  2  0  0  0  0
  7  8  1  0  0  0  0
  7 10  1  0  0  0  0
  8  9  2  0  0  0  0
 10 12  2  0  0  0  0
 11 24  1  0  0  0  0
 11 27  2  0  0  0  0
 12 13  1  0  0  0  0
 12 17  1  0  0  0  0
 13 14  2  0  0  0  0
 14 15  1  0  0  0  0
 15 16  1  0  0  0  0
 15 18  2  0  0  0  0
 16 17  2  0  0  0  0
 18 19  1  0  0  0  0
 18 22  1  0  0  0  0
 19 20  1  0  0  0  0
 20 21  1  0  0  0  0
 20 23  1  0  0  0  0
 21 22  2  0  0  0  0
 24 25  1  0  0  0  0
 24 28  1  0  0  0  0
 25 26  2  0  0  0  0
 26 27  1  0  0  0  0
  2 29  1  0  0  0  0
  2 30  1  0  0  0  0
  3 31  1  0  0  0  0
  4 32  1  0  0  0  0
 10 33  1  0  0  0  0
 13 34  1  0  0  0  0
 14 35  1  0  0  0  0
 16 36  1  0  0  0  0
 17 37  1  0  0  0  0
 19 38  1  0  0  0  0
 19 39  1  0  0  0  0
 22 40  1  0  0  0  0
 23 41  1  0  0  0  0
 23 42  1  0  0  0  0
 23 43  1  0  0  0  0
 25 44  1  0  0  0  0
 26 45  1  0  0  0  0
 28 46  1  0  0  0  0
 28 47  1  0  0  0  0
 28 48  1  0  0  0  0
M  END
> <Name>
22

> <IC50[uM]>
0.032

$$$$
22
  -OEChem-05192314333D
 Structure written by MMmdl.
 48 52  0     0  0  0  0  0  0999 V2000
   -6.3943   12.3306  -11.9839 C   0  0  0  0  0  0  0  0  0  0  0  0
   -6.5449   11.7624  -10.7224 C   0  0  0  0  0  0  0  0  0  0  0  0
   -7.7389   10.5318  -13.0493 C   0  0  0  0  0  0  0  0  0  0  0  0
   -6.9892   11.7416  -13.1218 C   0  0  0  0  0  0  0  0  0  0  0  0
   -7.8445    9.9757  -11.7834 C   0  0  0  0  0  0  0  0  0  0  0  0
   -7.2758   10.5697  -10.6136 C   0  0  0  0  0  0  0  0  0  0  0  0
   -7.6401    9.7111   -9.5254 C   0  0  0  0  0  0  0  0  0  0  0  0
   -8.3075    8.6850  -10.0132 N   0  0  0  0  0  0  0  0  0  0  0  0
   -8.4539    8.8245  -11.3160 N   0  0  0  0  0  0  0  0  0  0  0  0
   -7.3472    9.8680   -8.0446 C   0  0  0  0  0  0  0  0  0  0  0  0
   -5.5569   13.6094  -12.1739 C   0  0  0  0  0  0  0  0  0  0  0  0
   -5.9691   10.4796   -7.7443 C   0  0  0  0  0  0  0  0  0  0  0  0
   -5.8622   11.7497   -7.1624 C   0  0  0  0  0  0  0  0  0  0  0  0
   -4.6000   12.2988   -6.9070 C   0  0  0  0  0  0  0  0  0  0  0  0
   -3.4496   11.5829   -7.2293 C   0  0  0  0  0  0  0  0  0  0  0  0
   -3.5554   10.3089   -7.8035 C   0  0  0  0  0  0  0  0  0  0  0  0
   -4.8209    9.7667   -8.0554 C   0  0  0  0  0  0  0  0  0  0  0  0
   -2.0956   12.1660   -6.9654 C   0  0  0  0  0  0  0  0  0  0  0  0
   -1.7384   13.4130   -6.4683 C   0  0  0  0  0  0  0  0  0  0  0  0
   -0.4069   13.4502   -6.4129 N   0  0  0  0  0  0  0  0  0  0  0  0
    0.1813   12.3566   -6.8171 N   0  0  0  0  0  0  0  0  0  0  0  0
   -0.7988   11.5478   -7.1867 C   0  0  0  0  0  0  0  0  0  0  0  0
    0.4282   14.5550   -5.9664 C   0  0  0  0  0  0  0  0  0  0  0  0
   -4.7714   14.2106  -11.2027 N   0  0  0  0  0  0  0  0  0  0  0  0
   -4.2061   15.2849  -11.7862 C   0  0  0  0  0  0  0  0  0  0  0  0
   -4.6883   15.3268  -13.0997 C   0  0  0  0  0  0  0  0  0  0  0  0
   -5.5027   14.2765  -13.3098 N   0  0  0  0  0  0  0  0  0  0  0  0
   -4.5364   13.8232   -9.7989 C   0  0  0  0  0  0  0  0  0  0  0  0
   -6.1104   12.2275   -9.8498 H   0  0  0  0  0  0  0  0  0  0  0  0
   -8.1928   10.0800  -13.9189 H   0  0  0  0  0  0  0  0  0  0  0  0
   -6.8717   12.2251  -14.0803 H   0  0  0  0  0  0  0  0  0  0  0  0
   -8.0435    9.5766   -7.2721 H   0  0  0  0  0  0  0  0  0  0  0  0
   -6.7536   12.3051   -6.9109 H   0  0  0  0  0  0  0  0  0  0  0  0
   -4.5183   13.2784   -6.4597 H   0  0  0  0  0  0  0  0  0  0  0  0
   -3.4490   12.0350   -8.2321 H   0  0  0  0  0  0  0  0  0  0  0  0
   -2.6656    9.7487   -8.0502 H   0  0  0  0  0  0  0  0  0  0  0  0
   -4.9040    8.7842   -8.4961 H   0  0  0  0  0  0  0  0  0  0  0  0
   -2.4137   14.2051   -6.1803 H   0  0  0  0  0  0  0  0  0  0  0  0
   -0.6543   10.5597   -7.5981 H   0  0  0  0  0  0  0  0  0  0  0  0
    1.4877   14.2705   -6.0474 H   0  0  0  0  0  0  0  0  0  0  0  0
    0.2364   15.4369   -6.5953 H   0  0  0  0  0  0  0  0  0  0  0  0
    0.1917   14.7932   -4.9189 H   0  0  0  0  0  0  0  0  0  0  0  0
   -3.5156   15.9786  -11.3298 H   0  0  0  0  0  0  0  0  0  0  0  0
   -4.4447   16.0839  -13.8303 H   0  0  0  0  0  0  0  0  0  0  0  0
   -5.9746   14.0468  -14.1610 H   0  0  0  0  0  0  0  0  0  0  0  0
   -3.8494   14.5427   -9.3295 H   0  0  0  0  0  0  0  0  0  0  0  0
   -5.4922   13.8204   -9.2545 H   0  0  0  0  0  0  0  0  0  0  0  0
   -4.0925   12.8173   -9.7656 H   0  0  0  0  0  0  0  0  0  0  0  0
  1  2  1  0  0  0  0
  1  4  1  0  0  0  0
  1 11  2  0  0  0  0
  2  6  2  0  0  0  0
  3  4  2  0  0  0  0
  3  5  1  0  0  0  0
  5  6  1  0  0  0  0
  5  9  2  0  0  0  0
  6  7  1  0  0  0  0
  7  8  2  0  0  0  0
  7 10  1  0  0  0  0
  8  9  1  0  0  0  0
 10 12  2  0  0  0  0
 11 24  1  0  0  0  0
 11 27  1  0  0  0  0
 12 13  1  0  0  0  0
 12 17  1  0  0  0  0
 13 14  2  0  0  0  0
 14 15  1  0  0  0  0
 15 16  1  0  0  0  0
 15 18  1  0  0  0  0
 16 17  2  0  0  0  0
 18 19  2  0  0  0  0
 18 22  1  0  0  0  0
 19 20  1  0  0  0  0
 20 21  1  0  0  0  0
 20 23  1  0  0  0  0
 21 22  2  0  0  0  0
 24 25  1  0  0  0  0
 24 28  1  0  0  0  0
 25 26  2  0  0  0  0
 26 27  1  0  0  0  0
  2 29  1  0  0  0  0
  3 30  1  0  0  0  0
  4 31  1  0  0  0  0
 10 32  1  0  0  0  0
 13 33  1  0  0  0  0
 14 34  1  0  0  0  0
 15 35  1  0  0  0  0
 16 36  1  0  0  0  0
 17 37  1  0  0  0  0
 19 38  1  0  0  0  0
 22 39  1  0  0  0  0
 23 40  1  0  0  0  0
 23 41  1  0  0  0  0
 23 42  1  0  0  0  0
 25 43  1  0  0  0  0
 26 44  1  0  0  0  0
 27 45  1  0  0  0  0
 28 46  1  0  0  0  0
 28 47  1  0  0  0  0
 28 48  1  0  0  0  0
M  END
> <Name>
22

> <IC50[uM]>
0.032

$$$$
22
  -OEChem-05192314333D
 Structure written by MMmdl.
 48 52  0     0  0  0  0  0  0999 V2000
   -6.3943   12.3306  -11.9839 C   0  0  0  0  0  0  0  0  0  0  0  0
   -6.5449   11.7624  -10.7224 C   0  0  0  0  0  0  0  0  0  0  0  0
   -7.7389   10.5318  -13.0493 C   0  0  0  0  0  0  0  0  0  0  0  0
   -6.9892   11.7416  -13.1218 C   0  0  0  0  0  0  0  0  0  0  0  0
   -7.8445    9.9757  -11.7834 C   0  0  0  0  0  0  0  0  0  0  0  0
   -7.2758   10.5697  -10.6136 C   0  0  0  0  0  0  0  0  0  0  0  0
   -7.6401    9.7111   -9.5254 C   0  0  0  0  0  0  0  0  0  0  0  0
   -8.3075    8.6850  -10.0132 N   0  0  0  0  0  0  0  0  0  0  0  0
   -8.4539    8.8245  -11.3160 N   0  0  0  0  0  0  0  0  0  0  0  0
   -7.3472    9.8680   -8.0446 C   0  0  0  0  0  0  0  0  0  0  0  0
   -5.5569   13.6094  -12.1739 C   0  0  0  0  0  0  0  0  0  0  0  0
   -5.9691   10.4796   -7.7443 C   0  0  0  0  0  0  0  0  0  0  0  0
   -5.8622   11.7497   -7.1624 C   0  0  0  0  0  0  0  0  0  0  0  0
   -4.6000   12.2988   -6.9070 C   0  0  0  0  0  0  0  0  0  0  0  0
   -3.4496   11.5829   -7.2293 C   0  0  0  0  0  0  0  0  0  0  0  0
   -3.5554   10.3089   -7.8035 C   0  0  0  0  0  0  0  0  0  0  0  0
   -4.8209    9.7667   -8.0554 C   0  0  0  0  0  0  0  0  0  0  0  0
   -2.0956   12.1660   -6.9654 C   0  0  0  0  0  0  0  0  0  0  0  0
   -1.7384   13.4130   -6.4683 C   0  0  0  0  0  0  0  0  0  0  0  0
   -0.4069   13.4502   -6.4129 N   0  0  0  0  0  0  0  0  0  0  0  0
    0.1813   12.3566   -6.8171 N   0  0  0  0  0  0  0  0  0  0  0  0
   -0.7988   11.5478   -7.1867 C   0  0  0  0  0  0  0  0  0  0  0  0
    0.4282   14.5550   -5.9664 C   0  0  0  0  0  0  0  0  0  0  0  0
   -4.7714   14.2106  -11.2027 N   0  0  0  0  0  0  0  0  0  0  0  0
   -4.2061   15.2849  -11.7862 C   0  0  0  0  0  0  0  0  0  0  0  0
   -4.6883   15.3268  -13.0997 C   0  0  0  0  0  0  0  0  0  0  0  0
   -5.5027   14.2765  -13.3098 N   0  0  0  0  0  0  0  0  0  0  0  0
   -4.5364   13.8232   -9.7989 C   0  0  0  0  0  0  0  0  0  0  0  0
   -6.1104   12.2275   -9.8498 H   0  0  0  0  0  0  0  0  0  0  0  0
   -8.1928   10.0800  -13.9189 H   0  0  0  0  0  0  0  0  0  0  0  0
   -6.8717   12.2251  -14.0803 H   0  0  0  0  0  0  0  0  0  0  0  0
   -8.0435    9.5766   -7.2721 H   0  0  0  0  0  0  0  0  0  0  0  0
   -6.7536   12.3051   -6.9109 H   0  0  0  0  0  0  0  0  0  0  0  0
   -4.5183   13.2784   -6.4597 H   0  0  0  0  0  0  0  0  0  0  0  0
   -2.6656    9.7487   -8.0502 H   0  0  0  0  0  0  0  0  0  0  0  0
   -4.8756    8.8218   -7.4949 H   0  0  0  0  0  0  0  0  0  0  0  0
   -4.8639    9.5561   -9.1342 H   0  0  0  0  0  0  0  0  0  0  0  0
   -2.4137   14.2051   -6.1803 H   0  0  0  0  0  0  0  0  0  0  0  0
   -0.6543   10.5597   -7.5981 H   0  0  0  0  0  0  0  0  0  0  0  0
    1.4877   14.2705   -6.0474 H   0  0  0  0  0  0  0  0  0  0  0  0
    0.2364   15.4369   -6.5953 H   0  0  0  0  0  0  0  0  0  0  0  0
    0.1917   14.7932   -4.9189 H   0  0  0  0  0  0  0  0  0  0  0  0
   -3.5156   15.9786  -11.3298 H   0  0  0  0  0  0  0  0  0  0  0  0
   -4.4447   16.0839  -13.8303 H   0  0  0  0  0  0  0  0  0  0  0  0
   -5.9746   14.0468  -14.1610 H   0  0  0  0  0  0  0  0  0  0  0  0
   -3.8494   14.5427   -9.3295 H   0  0  0  0  0  0  0  0  0  0  0  0
   -5.4922   13.8204   -9.2545 H   0  0  0  0  0  0  0  0  0  0  0  0
   -4.0925   12.8173   -9.7656 H   0  0  0  0  0  0  0  0  0  0  0  0
  1  2  1  0  0  0  0
  1  4  1  0  0  0  0
  1 11  2  0  0  0  0
  2  6  2  0  0  0  0
  3  4  2  0  0  0  0
  3  5  1  0  0  0  0
  5  6  1  0  0  0  0
  5  9  2  0  0  0  0
  6  7  1  0  0  0  0
  7  8  2  0  0  0  0
  7 10  1  0  0  0  0
  8  9  1  0  0  0  0
 10 12  2  3  0  0  0
 11 24  1  0  0  0  0
 11 27  1  0  0  0  0
 12 13  1  0  0  0  0
 12 17  1  0  0  0  0
 13 14  2  0  0  0  0
 14 15  1  0  0  0  0
 15 16  2  0  0  0  0
 15 18  1  0  0  0  0
 16 17  1  0  0  0  0
 18 19  2  0  0  0  0
 18 22  1  0  0  0  0
 19 20  1  0  0  0  0
 20 21  1  0  0  0  0
 20 23  1  0  0  0  0
 21 22  2  0  0  0  0
 24 25  1  0  0  0  0
 24 28  1  0  0  0  0
 25 26  2  0  0  0  0
 26 27  1  0  0  0  0
  2 29  1  0  0  0  0
  3 30  1  0  0  0  0
  4 31  1  0  0  0  0
 10 32  1  0  0  0  0
 13 33  1  0  0  0  0
 14 34  1  0  0  0  0
 16 35  1  0  0  0  0
 17 36  1  0  0  0  0
 17 37  1  0  0  0  0
 19 38  1  0  0  0  0
 22 39  1  0  0  0  0
 23 40  1  0  0  0  0
 23 41  1  0  0  0  0
 23 42  1  0  0  0  0
 25 43  1  0  0  0  0
 26 44  1  0  0  0  0
 27 45  1  0  0  0  0
 28 46  1  0  0  0  0
 28 47  1  0  0  0  0
 28 48  1  0  0  0  0
M  END
> <Name>
22

> <IC50[uM]>
0.032

$$$$
22
  -OEChem-05192314333D
 Structure written by MMmdl.
 48 52  0     1  0  0  0  0  0999 V2000
   -6.3943   12.3306  -11.9839 C   0  0  3  0  0  0  0  0  0  0  0  0
   -6.5449   11.7624  -10.7224 C   0  0  0  0  0  0  0  0  0  0  0  0
   -7.7389   10.5318  -13.0493 C   0  0  0  0  0  0  0  0  0  0  0  0
   -6.9892   11.7416  -13.1218 C   0  0  0  0  0  0  0  0  0  0  0  0
   -7.8445    9.9757  -11.7834 C   0  0  0  0  0  0  0  0  0  0  0  0
   -7.2758   10.5697  -10.6136 C   0  0  0  0  0  0  0  0  0  0  0  0
   -7.6401    9.7111   -9.5254 C   0  0  0  0  0  0  0  0  0  0  0  0
   -8.3075    8.6850  -10.0132 N   0  0  0  0  0  0  0  0  0  0  0  0
   -8.4539    8.8245  -11.3160 N   0  0  0  0  0  0  0  0  0  0  0  0
   -7.3472    9.8680   -8.0446 C   0  0  0  0  0  0  0  0  0  0  0  0
   -5.5569   13.6094  -12.1739 C   0  0  0  0  0  0  0  0  0  0  0  0
   -5.9691   10.4796   -7.7443 C   0  0  0  0  0  0  0  0  0  0  0  0
   -5.8622   11.7497   -7.1624 C   0  0  0  0  0  0  0  0  0  0  0  0
   -4.6000   12.2988   -6.9070 C   0  0  0  0  0  0  0  0  0  0  0  0
   -3.4496   11.5829   -7.2293 C   0  0  0  0  0  0  0  0  0  0  0  0
   -3.5554   10.3089   -7.8035 C   0  0  0  0  0  0  0  0  0  0  0  0
   -4.8209    9.7667   -8.0554 C   0  0  0  0  0  0  0  0  0  0  0  0
   -2.0956   12.1660   -6.9654 C   0  0  0  0  0  0  0  0  0  0  0  0
   -1.7384   13.4130   -6.4683 C   0  0  0  0  0  0  0  0  0  0  0  0
   -0.4069   13.4502   -6.4129 N   0  0  0  0  0  0  0  0  0  0  0  0
    0.1813   12.3566   -6.8171 N   0  0  0  0  0  0  0  0  0  0  0  0
   -0.7988   11.5478   -7.1867 C   0  0  0  0  0  0  0  0  0  0  0  0
    0.4282   14.5550   -5.9664 C   0  0  0  0  0  0  0  0  0  0  0  0
   -4.7714   14.2106  -11.2027 N   0  0  0  0  0  0  0  0  0  0  0  0
   -4.2061   15.2849  -11.7862 C   0  0  0  0  0  0  0  0  0  0  0  0
   -4.6883   15.3268  -13.0997 C   0  0  0  0  0  0  0  0  0  0  0  0
   -5.5027   14.2765  -13.3098 N   0  0  0  0  0  0  0  0  0  0  0  0
   -4.5364   13.8232   -9.7989 C   0  0  0  0  0  0  0  0  0  0  0  0
   -7.2958   12.9399  -11.8223 H   0  0  0  0  0  0  0  0  0  0  0  0
   -6.1104   12.2275   -9.8498 H   0  0  0  0  0  0  0  0  0  0  0  0
   -8.1928   10.0800  -13.9189 H   0  0  0  0  0  0  0  0  0  0  0  0
   -6.8717   12.2251  -14.0803 H   0  0  0  0  0  0  0  0  0  0  0  0
   -8.0435    9.5766   -7.2721 H   0  0  0  0  0  0  0  0  0  0  0  0
   -6.7536   12.3051   -6.9109 H   0  0  0  0  0  0  0  0  0  0  0  0
   -4.5183   13.2784   -6.4597 H   0  0  0  0  0  0  0  0  0  0  0  0
   -3.4490   12.0350   -8.2321 H   0  0  0  0  0  0  0  0  0  0  0  0
   -2.6656    9.7487   -8.0502 H   0  0  0  0  0  0  0  0  0  0  0  0
   -4.9040    8.7842   -8.4961 H   0  0  0  0  0  0  0  0  0  0  0  0
   -2.4137   14.2051   -6.1803 H   0  0  0  0  0  0  0  0  0  0  0  0
   -0.6543   10.5597   -7.5981 H   0  0  0  0  0  0  0  0  0  0  0  0
    1.4877   14.2705   -6.0474 H   0  0  0  0  0  0  0  0  0  0  0  0
    0.2364   15.4369   -6.5953 H   0  0  0  0  0  0  0  0  0  0  0  0
    0.1917   14.7932   -4.9189 H   0  0  0  0  0  0  0  0  0  0  0  0
   -3.5156   15.9786  -11.3298 H   0  0  0  0  0  0  0  0  0  0  0  0
   -4.4447   16.0839  -13.8303 H   0  0  0  0  0  0  0  0  0  0  0  0
   -3.8494   14.5427   -9.3295 H   0  0  0  0  0  0  0  0  0  0  0  0
   -5.4922   13.8204   -9.2545 H   0  0  0  0  0  0  0  0  0  0  0  0
   -4.0925   12.8173   -9.7656 H   0  0  0  0  0  0  0  0  0  0  0  0
  1  2  1  0  0  0  0
  1  4  1  0  0  0  0
  1 11  1  0  0  0  0
  2  6  2  0  0  0  0
  3  4  2  0  0  0  0
  3  5  1  0  0  0  0
  5  6  1  0  0  0  0
  5  9  2  0  0  0  0
  6  7  1  0  0  0  0
  7  8  2  0  0  0  0
  7 10  1  0  0  0  0
  8  9  1  0  0  0  0
 10 12  2  0  0  0  0
 11 24  1  0  0  0  0
 11 27  2  0  0  0  0
 12 13  1  0  0  0  0
 12 17  1  0  0  0  0
 13 14  2  0  0  0  0
 14 15  1  0  0  0  0
 15 16  1  0  0  0  0
 15 18  1  0  0  0  0
 16 17  2  0  0  0  0
 18 19  2  0  0  0  0
 18 22  1  0  0  0  0
 19 20  1  0  0  0  0
 20 21  1  0  0  0  0
 20 23  1  0  0  0  0
 21 22  2  0  0  0  0
 24 25  1  0  0  0  0
 24 28  1  0  0  0  0
 25 26  2  0  0  0  0
 26 27  1  0  0  0  0
  1 29  1  0  0  0  0
  2 30  1  0  0  0  0
  3 31  1  0  0  0  0
  4 32  1  0  0  0  0
 10 33  1  0  0  0  0
 13 34  1  0  0  0  0
 14 35  1  0  0  0  0
 15 36  1  0  0  0  0
 16 37  1  0  0  0  0
 17 38  1  0  0  0  0
 19 39  1  0  0  0  0
 22 40  1  0  0  0  0
 23 41  1  0  0  0  0
 23 42  1  0  0  0  0
 23 43  1  0  0  0  0
 25 44  1  0  0  0  0
 26 45  1  0  0  0  0
 28 46  1  0  0  0  0
 28 47  1  0  0  0  0
 28 48  1  0  0  0  0
M  END
> <Name>
22

> <IC50[uM]>
0.032

$$$$
22
  -OEChem-05192314333D
 Structure written by MMmdl.
 48 52  0     1  0  0  0  0  0999 V2000
   -6.3943   12.3306  -11.9839 C   0  0  0  0  0  0  0  0  0  0  0  0
   -6.5449   11.7624  -10.7224 C   0  0  0  0  0  0  0  0  0  0  0  0
   -7.7389   10.5318  -13.0493 C   0  0  0  0  0  0  0  0  0  0  0  0
   -6.9892   11.7416  -13.1218 C   0  0  0  0  0  0  0  0  0  0  0  0
   -7.8445    9.9757  -11.7834 C   0  0  0  0  0  0  0  0  0  0  0  0
   -7.2758   10.5697  -10.6136 C   0  0  3  0  0  0  0  0  0  0  0  0
   -7.6401    9.7111   -9.5254 C   0  0  0  0  0  0  0  0  0  0  0  0
   -8.3075    8.6850  -10.0132 N   0  0  0  0  0  0  0  0  0  0  0  0
   -8.4539    8.8245  -11.3160 N   0  0  0  0  0  0  0  0  0  0  0  0
   -7.3472    9.8680   -8.0446 C   0  0  0  0  0  0  0  0  0  0  0  0
   -5.5569   13.6094  -12.1739 C   0  0  0  0  0  0  0  0  0  0  0  0
   -5.9691   10.4796   -7.7443 C   0  0  0  0  0  0  0  0  0  0  0  0
   -5.8622   11.7497   -7.1624 C   0  0  0  0  0  0  0  0  0  0  0  0
   -4.6000   12.2988   -6.9070 C   0  0  0  0  0  0  0  0  0  0  0  0
   -3.4496   11.5829   -7.2293 C   0  0  0  0  0  0  0  0  0  0  0  0
   -3.5554   10.3089   -7.8035 C   0  0  0  0  0  0  0  0  0  0  0  0
   -4.8209    9.7667   -8.0554 C   0  0  0  0  0  0  0  0  0  0  0  0
   -2.0956   12.1660   -6.9654 C   0  0  0  0  0  0  0  0  0  0  0  0
   -1.7384   13.4130   -6.4683 C   0  0  0  0  0  0  0  0  0  0  0  0
   -0.4069   13.4502   -6.4129 N   0  0  0  0  0  0  0  0  0  0  0  0
    0.1813   12.3566   -6.8171 N   0  0  0  0  0  0  0  0  0  0  0  0
   -0.7988   11.5478   -7.1867 C   0  0  0  0  0  0  0  0  0  0  0  0
    0.4282   14.5550   -5.9664 C   0  0  0  0  0  0  0  0  0  0  0  0
   -4.7714   14.2106  -11.2027 N   0  0  0  0  0  0  0  0  0  0  0  0
   -4.2061   15.2849  -11.7862 C   0  0  0  0  0  0  0  0  0  0  0  0
   -4.6883   15.3268  -13.0997 C   0  0  0  0  0  0  0  0  0  0  0  0
   -5.5027   14.2765  -13.3098 N   0  0  0  0  0  0  0  0  0  0  0  0
   -4.5364   13.8232   -9.7989 C   0  0  0  0  0  0  0  0  0  0  0  0
   -6.1104   12.2275   -9.8498 H   0  0  0  0  0  0  0  0  0  0  0  0
   -8.1928   10.0800  -13.9189 H   0  0  0  0  0  0  0  0  0  0  0  0
   -6.8717   12.2251  -14.0803 H   0  0  0  0  0  0  0  0  0  0  0  0
   -6.3539    9.9891  -10.7651 H   0  0  0  0  0  0  0  0  0  0  0  0
   -8.0435    9.5766   -7.2721 H   0  0  0  0  0  0  0  0  0  0  0  0
   -6.7536   12.3051   -6.9109 H   0  0  0  0  0  0  0  0  0  0  0  0
   -4.5183   13.2784   -6.4597 H   0  0  0  0  0  0  0  0  0  0  0  0
   -3.4490   12.0350   -8.2321 H   0  0  0  0  0  0  0  0  0  0  0  0
   -2.6656    9.7487   -8.0502 H   0  0  0  0  0  0  0  0  0  0  0  0
   -4.9040    8.7842   -8.4961 H   0  0  0  0  0  0  0  0  0  0  0  0
   -2.4137   14.2051   -6.1803 H   0  0  0  0  0  0  0  0  0  0  0  0
   -0.6543   10.5597   -7.5981 H   0  0  0  0  0  0  0  0  0  0  0  0
    1.4877   14.2705   -6.0474 H   0  0  0  0  0  0  0  0  0  0  0  0
    0.2364   15.4369   -6.5953 H   0  0  0  0  0  0  0  0  0  0  0  0
    0.1917   14.7932   -4.9189 H   0  0  0  0  0  0  0  0  0  0  0  0
   -3.5156   15.9786  -11.3298 H   0  0  0  0  0  0  0  0  0  0  0  0
   -4.4447   16.0839  -13.8303 H   0  0  0  0  0  0  0  0  0  0  0  0
   -3.8494   14.5427   -9.3295 H   0  0  0  0  0  0  0  0  0  0  0  0
   -5.4922   13.8204   -9.2545 H   0  0  0  0  0  0  0  0  0  0  0  0
   -4.0925   12.8173   -9.7656 H   0  0  0  0  0  0  0  0  0  0  0  0
  1  2  2  0  0  0  0
  1  4  1  0  0  0  0
  1 11  1  0  0  0  0
  2  6  1  0  0  0  0
  3  4  2  0  0  0  0
  3  5  1  0  0  0  0
  5  6  1  0  0  0  0
  5  9  2  0  0  0  0
  6  7  1  0  0  0  0
  7  8  2  0  0  0  0
  7 10  1  0  0  0  0
  8  9  1  0  0  0  0
 10 12  2  0  0  0  0
 11 24  1  0  0  0  0
 11 27  2  0  0  0  0
 12 13  1  0  0  0  0
 12 17  1  0  0  0  0
 13 14  2  0  0  0  0
 14 15  1  0  0  0  0
 15 16  1  0  0  0  0
 15 18  1  0  0  0  0
 16 17  2  0  0  0  0
 18 19  2  0  0  0  0
 18 22  1  0  0  0  0
 19 20  1  0  0  0  0
 20 21  1  0  0  0  0
 20 23  1  0  0  0  0
 21 22  2  0  0  0  0
 24 25  1  0  0  0  0
 24 28  1  0  0  0  0
 25 26  2  0  0  0  0
 26 27  1  0  0  0  0
  2 29  1  0  0  0  0
  3 30  1  0  0  0  0
  4 31  1  0  0  0  0
  6 32  1  0  0  0  0
 10 33  1  0  0  0  0
 13 34  1  0  0  0  0
 14 35  1  0  0  0  0
 15 36  1  0  0  0  0
 16 37  1  0  0  0  0
 17 38  1  0  0  0  0
 19 39  1  0  0  0  0
 22 40  1  0  0  0  0
 23 41  1  0  0  0  0
 23 42  1  0  0  0  0
 23 43  1  0  0  0  0
 25 44  1  0  0  0  0
 26 45  1  0  0  0  0
 28 46  1  0  0  0  0
 28 47  1  0  0  0  0
 28 48  1  0  0  0  0
M  END
> <Name>
22

> <IC50[uM]>
0.032

$$$$
22
  -OEChem-05192314333D
 Structure written by MMmdl.
 48 52  0     0  0  0  0  0  0999 V2000
   -6.3943   12.3306  -11.9839 C   0  0  0  0  0  0  0  0  0  0  0  0
   -6.5449   11.7624  -10.7224 C   0  0  0  0  0  0  0  0  0  0  0  0
   -7.7389   10.5318  -13.0493 C   0  0  0  0  0  0  0  0  0  0  0  0
   -6.9892   11.7416  -13.1218 C   0  0  0  0  0  0  0  0  0  0  0  0
   -7.8445    9.9757  -11.7834 C   0  0  0  0  0  0  0  0  0  0  0  0
   -7.2758   10.5697  -10.6136 C   0  0  0  0  0  0  0  0  0  0  0  0
   -7.6401    9.7111   -9.5254 C   0  0  0  0  0  0  0  0  0  0  0  0
   -8.3075    8.6850  -10.0132 N   0  0  0  0  0  0  0  0  0  0  0  0
   -8.4539    8.8245  -11.3160 N   0  0  0  0  0  0  0  0  0  0  0  0
   -7.3472    9.8680   -8.0446 C   0  0  0  0  0  0  0  0  0  0  0  0
   -5.5569   13.6094  -12.1739 C   0  0  0  0  0  0  0  0  0  0  0  0
   -5.9691   10.4796   -7.7443 C   0  0  0  0  0  0  0  0  0  0  0  0
   -5.8622   11.7497   -7.1624 C   0  0  0  0  0  0  0  0  0  0  0  0
   -4.6000   12.2988   -6.9070 C   0  0  0  0  0  0  0  0  0  0  0  0
   -3.4496   11.5829   -7.2293 C   0  0  0  0  0  0  0  0  0  0  0  0
   -3.5554   10.3089   -7.8035 C   0  0  0  0  0  0  0  0  0  0  0  0
   -4.8209    9.7667   -8.0554 C   0  0  0  0  0  0  0  0  0  0  0  0
   -2.0956   12.1660   -6.9654 C   0  0  0  0  0  0  0  0  0  0  0  0
   -1.7384   13.4130   -6.4683 C   0  0  0  0  0  0  0  0  0  0  0  0
   -0.4069   13.4502   -6.4129 N   0  0  0  0  0  0  0  0  0  0  0  0
    0.1813   12.3566   -6.8171 N   0  0  0  0  0  0  0  0  0  0  0  0
   -0.7988   11.5478   -7.1867 C   0  0  0  0  0  0  0  0  0  0  0  0
    0.4282   14.5550   -5.9664 C   0  0  0  0  0  0  0  0  0  0  0  0
   -4.7714   14.2106  -11.2027 N   0  0  0  0  0  0  0  0  0  0  0  0
   -4.2061   15.2849  -11.7862 C   0  0  0  0  0  0  0  0  0  0  0  0
   -4.6883   15.3268  -13.0997 C   0  0  0  0  0  0  0  0  0  0  0  0
   -5.5027   14.2765  -13.3098 N   0  0  0  0  0  0  0  0  0  0  0  0
   -4.5364   13.8232   -9.7989 C   0  0  0  0  0  0  0  0  0  0  0  0
   -6.1104   12.2275   -9.8498 H   0  0  0  0  0  0  0  0  0  0  0  0
   -8.7553   10.7392  -13.4153 H   0  0  0  0  0  0  0  0  0  0  0  0
   -7.2563    9.7930  -13.7060 H   0  0  0  0  0  0  0  0  0  0  0  0
   -6.8717   12.2251  -14.0803 H   0  0  0  0  0  0  0  0  0  0  0  0
   -8.0435    9.5766   -7.2721 H   0  0  0  0  0  0  0  0  0  0  0  0
   -6.7536   12.3051   -6.9109 H   0  0  0  0  0  0  0  0  0  0  0  0
   -4.5183   13.2784   -6.4597 H   0  0  0  0  0  0  0  0  0  0  0  0
   -3.4490   12.0350   -8.2321 H   0  0  0  0  0  0  0  0  0  0  0  0
   -2.6656    9.7487   -8.0502 H   0  0  0  0  0  0  0  0  0  0  0  0
   -4.9040    8.7842   -8.4961 H   0  0  0  0  0  0  0  0  0  0  0  0
   -2.4137   14.2051   -6.1803 H   0  0  0  0  0  0  0  0  0  0  0  0
   -0.6543   10.5597   -7.5981 H   0  0  0  0  0  0  0  0  0  0  0  0
    1.4877   14.2705   -6.0474 H   0  0  0  0  0  0  0  0  0  0  0  0
    0.2364   15.4369   -6.5953 H   0  0  0  0  0  0  0  0  0  0  0  0
    0.1917   14.7932   -4.9189 H   0  0  0  0  0  0  0  0  0  0  0  0
   -3.5156   15.9786  -11.3298 H   0  0  0  0  0  0  0  0  0  0  0  0
   -4.4447   16.0839  -13.8303 H   0  0  0  0  0  0  0  0  0  0  0  0
   -3.8494   14.5427   -9.3295 H   0  0  0  0  0  0  0  0  0  0  0  0
   -5.4922   13.8204   -9.2545 H   0  0  0  0  0  0  0  0  0  0  0  0
   -4.0925   12.8173   -9.7656 H   0  0  0  0  0  0  0  0  0  0  0  0
  1  2  1  0  0  0  0
  1  4  2  0  0  0  0
  1 11  1  0  0  0  0
  2  6  2  0  0  0  0
  3  4  1  0  0  0  0
  3  5  1  0  0  0  0
  5  6  1  0  0  0  0
  5  9  2  0  0  0  0
  6  7  1  0  0  0  0
  7  8  2  0  0  0  0
  7 10  1  0  0  0  0
  8  9  1  0  0  0  0
 10 12  2  0  0  0  0
 11 24  1  0  0  0  0
 11 27  2  0  0  0  0
 12 13  1  0  0  0  0
 12 17  1  0  0  0  0
 13 14  2  0  0  0  0
 14 15  1  0  0  0  0
 15 16  1  0  0  0  0
 15 18  1  0  0  0  0
 16 17  2  0  0  0  0
 18 19  2  0  0  0  0
 18 22  1  0  0  0  0
 19 20  1  0  0  0  0
 20 21  1  0  0  0  0
 20 23  1  0  0  0  0
 21 22  2  0  0  0  0
 24 25  1  0  0  0  0
 24 28  1  0  0  0  0
 25 26  2  0  0  0  0
 26 27  1  0  0  0  0
  2 29  1  0  0  0  0
  3 30  1  0  0  0  0
  3 31  1  0  0  0  0
  4 32  1  0  0  0  0
 10 33  1  0  0  0  0
 13 34  1  0  0  0  0
 14 35  1  0  0  0  0
 15 36  1  0  0  0  0
 16 37  1  0  0  0  0
 17 38  1  0  0  0  0
 19 39  1  0  0  0  0
 22 40  1  0  0  0  0
 23 41  1  0  0  0  0
 23 42  1  0  0  0  0
 23 43  1  0  0  0  0
 25 44  1  0  0  0  0
 26 45  1  0  0  0  0
 28 46  1  0  0  0  0
 28 47  1  0  0  0  0
 28 48  1  0  0  0  0
M  END
> <Name>
22

> <IC50[uM]>
0.032

$$$$
22
  -OEChem-05192314333D
 Structure written by MMmdl.
 48 52  0     1  0  0  0  0  0999 V2000
   -6.3943   12.3306  -11.9839 C   0  0  3  0  0  0  0  0  0  0  0  0
   -6.5449   11.7624  -10.7224 C   0  0  0  0  0  0  0  0  0  0  0  0
   -7.7389   10.5318  -13.0493 C   0  0  0  0  0  0  0  0  0  0  0  0
   -6.9892   11.7416  -13.1218 C   0  0  0  0  0  0  0  0  0  0  0  0
   -7.8445    9.9757  -11.7834 C   0  0  0  0  0  0  0  0  0  0  0  0
   -7.2758   10.5697  -10.6136 C   0  0  0  0  0  0  0  0  0  0  0  0
   -7.6401    9.7111   -9.5254 C   0  0  0  0  0  0  0  0  0  0  0  0
   -8.3075    8.6850  -10.0132 N   0  0  0  0  0  0  0  0  0  0  0  0
   -8.4539    8.8245  -11.3160 N   0  0  0  0  0  0  0  0  0  0  0  0
   -7.3472    9.8680   -8.0446 C   0  0  0  0  0  0  0  0  0  0  0  0
   -5.5569   13.6094  -12.1739 C   0  0  0  0  0  0  0  0  0  0  0  0
   -5.9691   10.4796   -7.7443 C   0  0  0  0  0  0  0  0  0  0  0  0
   -5.8622   11.7497   -7.1624 C   0  0  0  0  0  0  0  0  0  0  0  0
   -4.6000   12.2988   -6.9070 C   0  0  0  0  0  0  0  0  0  0  0  0
   -3.4496   11.5829   -7.2293 C   0  0  0  0  0  0  0  0  0  0  0  0
   -3.5554   10.3089   -7.8035 C   0  0  0  0  0  0  0  0  0  0  0  0
   -4.8209    9.7667   -8.0554 C   0  0  0  0  0  0  0  0  0  0  0  0
   -2.0956   12.1660   -6.9654 C   0  0  0  0  0  0  0  0  0  0  0  0
   -1.7384   13.4130   -6.4683 C   0  0  0  0  0  0  0  0  0  0  0  0
   -0.4069   13.4502   -6.4129 N   0  0  0  0  0  0  0  0  0  0  0  0
    0.1813   12.3566   -6.8171 N   0  0  0  0  0  0  0  0  0  0  0  0
   -0.7988   11.5478   -7.1867 C   0  0  0  0  0  0  0  0  0  0  0  0
    0.4282   14.5550   -5.9664 C   0  0  0  0  0  0  0  0  0  0  0  0
   -4.7714   14.2106  -11.2027 N   0  0  0  0  0  0  0  0  0  0  0  0
   -4.2061   15.2849  -11.7862 C   0  0  0  0  0  0  0  0  0  0  0  0
   -4.6883   15.3268  -13.0997 C   0  0  0  0  0  0  0  0  0  0  0  0
   -5.5027   14.2765  -13.3098 N   0  0  0  0  0  0  0  0  0  0  0  0
   -4.5364   13.8232   -9.7989 C   0  0  0  0  0  0  0  0  0  0  0  0
   -7.2958   12.9399  -11.8223 H   0  0  0  0  0  0  0  0  0  0  0  0
   -6.1104   12.2275   -9.8498 H   0  0  0  0  0  0  0  0  0  0  0  0
   -8.1928   10.0800  -13.9189 H   0  0  0  0  0  0  0  0  0  0  0  0
   -6.8717   12.2251  -14.0803 H   0  0  0  0  0  0  0  0  0  0  0  0
   -8.0435    9.5766   -7.2721 H   0  0  0  0  0  0  0  0  0  0  0  0
   -6.7536   12.3051   -6.9109 H   0  0  0  0  0  0  0  0  0  0  0  0
   -4.5183   13.2784   -6.4597 H   0  0  0  0  0  0  0  0  0  0  0  0
   -2.6656    9.7487   -8.0502 H   0  0  0  0  0  0  0  0  0  0  0  0
   -4.8756    8.8218   -7.4949 H   0  0  0  0  0  0  0  0  0  0  0  0
   -4.8639    9.5561   -9.1342 H   0  0  0  0  0  0  0  0  0  0  0  0
   -2.4137   14.2051   -6.1803 H   0  0  0  0  0  0  0  0  0  0  0  0
   -0.6543   10.5597   -7.5981 H   0  0  0  0  0  0  0  0  0  0  0  0
    1.4877   14.2705   -6.0474 H   0  0  0  0  0  0  0  0  0  0  0  0
    0.2364   15.4369   -6.5953 H   0  0  0  0  0  0  0  0  0  0  0  0
    0.1917   14.7932   -4.9189 H   0  0  0  0  0  0  0  0  0  0  0  0
   -3.5156   15.9786  -11.3298 H   0  0  0  0  0  0  0  0  0  0  0  0
   -4.4447   16.0839  -13.8303 H   0  0  0  0  0  0  0  0  0  0  0  0
   -3.8494   14.5427   -9.3295 H   0  0  0  0  0  0  0  0  0  0  0  0
   -5.4922   13.8204   -9.2545 H   0  0  0  0  0  0  0  0  0  0  0  0
   -4.0925   12.8173   -9.7656 H   0  0  0  0  0  0  0  0  0  0  0  0
  1  2  1  0  0  0  0
  1  4  1  0  0  0  0
  1 11  1  0  0  0  0
  2  6  2  0  0  0  0
  3  4  2  0  0  0  0
  3  5  1  0  0  0  0
  5  6  1  0  0  0  0
  5  9  2  0  0  0  0
  6  7  1  0  0  0  0
  7  8  2  0  0  0  0
  7 10  1  0  0  0  0
  8  9  1  0  0  0  0
 10 12  2  3  0  0  0
 11 24  1  0  0  0  0
 11 27  2  0  0  0  0
 12 13  1  0  0  0  0
 12 17  1  0  0  0  0
 13 14  2  0  0  0  0
 14 15  1  0  0  0  0
 15 16  2  0  0  0  0
 15 18  1  0  0  0  0
 16 17  1  0  0  0  0
 18 19  2  0  0  0  0
 18 22  1  0  0  0  0
 19 20  1  0  0  0  0
 20 21  1  0  0  0  0
 20 23  1  0  0  0  0
 21 22  2  0  0  0  0
 24 25  1  0  0  0  0
 24 28  1  0  0  0  0
 25 26  2  0  0  0  0
 26 27  1  0  0  0  0
  1 29  1  0  0  0  0
  2 30  1  0  0  0  0
  3 31  1  0  0  0  0
  4 32  1  0  0  0  0
 10 33  1  0  0  0  0
 13 34  1  0  0  0  0
 14 35  1  0  0  0  0
 16 36  1  0  0  0  0
 17 37  1  0  0  0  0
 17 38  1  0  0  0  0
 19 39  1  0  0  0  0
 22 40  1  0  0  0  0
 23 41  1  0  0  0  0
 23 42  1  0  0  0  0
 23 43  1  0  0  0  0
 25 44  1  0  0  0  0
 26 45  1  0  0  0  0
 28 46  1  0  0  0  0
 28 47  1  0  0  0  0
 28 48  1  0  0  0  0
M  END
> <Name>
22

> <IC50[uM]>
0.032

$$$$
22
  -OEChem-05192314333D
 Structure written by MMmdl.
 48 52  0     1  0  0  0  0  0999 V2000
   -6.3943   12.3306  -11.9839 C   0  0  0  0  0  0  0  0  0  0  0  0
   -6.5449   11.7624  -10.7224 C   0  0  0  0  0  0  0  0  0  0  0  0
   -7.7389   10.5318  -13.0493 C   0  0  0  0  0  0  0  0  0  0  0  0
   -6.9892   11.7416  -13.1218 C   0  0  0  0  0  0  0  0  0  0  0  0
   -7.8445    9.9757  -11.7834 C   0  0  0  0  0  0  0  0  0  0  0  0
   -7.2758   10.5697  -10.6136 C   0  0  3  0  0  0  0  0  0  0  0  0
   -7.6401    9.7111   -9.5254 C   0  0  0  0  0  0  0  0  0  0  0  0
   -8.3075    8.6850  -10.0132 N   0  0  0  0  0  0  0  0  0  0  0  0
   -8.4539    8.8245  -11.3160 N   0  0  0  0  0  0  0  0  0  0  0  0
   -7.3472    9.8680   -8.0446 C   0  0  0  0  0  0  0  0  0  0  0  0
   -5.5569   13.6094  -12.1739 C   0  0  0  0  0  0  0  0  0  0  0  0
   -5.9691   10.4796   -7.7443 C   0  0  0  0  0  0  0  0  0  0  0  0
   -5.8622   11.7497   -7.1624 C   0  0  0  0  0  0  0  0  0  0  0  0
   -4.6000   12.2988   -6.9070 C   0  0  0  0  0  0  0  0  0  0  0  0
   -3.4496   11.5829   -7.2293 C   0  0  0  0  0  0  0  0  0  0  0  0
   -3.5554   10.3089   -7.8035 C   0  0  0  0  0  0  0  0  0  0  0  0
   -4.8209    9.7667   -8.0554 C   0  0  0  0  0  0  0  0  0  0  0  0
   -2.0956   12.1660   -6.9654 C   0  0  0  0  0  0  0  0  0  0  0  0
   -1.7384   13.4130   -6.4683 C   0  0  0  0  0  0  0  0  0  0  0  0
   -0.4069   13.4502   -6.4129 N   0  0  0  0  0  0  0  0  0  0  0  0
    0.1813   12.3566   -6.8171 N   0  0  0  0  0  0  0  0  0  0  0  0
   -0.7988   11.5478   -7.1867 C   0  0  0  0  0  0  0  0  0  0  0  0
    0.4282   14.5550   -5.9664 C   0  0  0  0  0  0  0  0  0  0  0  0
   -4.7714   14.2106  -11.2027 N   0  0  0  0  0  0  0  0  0  0  0  0
   -4.2061   15.2849  -11.7862 C   0  0  0  0  0  0  0  0  0  0  0  0
   -4.6883   15.3268  -13.0997 C   0  0  0  0  0  0  0  0  0  0  0  0
   -5.5027   14.2765  -13.3098 N   0  0  0  0  0  0  0  0  0  0  0  0
   -4.5364   13.8232   -9.7989 C   0  0  0  0  0  0  0  0  0  0  0  0
   -6.1104   12.2275   -9.8498 H   0  0  0  0  0  0  0  0  0  0  0  0
   -8.1928   10.0800  -13.9189 H   0  0  0  0  0  0  0  0  0  0  0  0
   -6.8717   12.2251  -14.0803 H   0  0  0  0  0  0  0  0  0  0  0  0
   -6.3539    9.9891  -10.7651 H   0  0  0  0  0  0  0  0  0  0  0  0
   -8.0435    9.5766   -7.2721 H   0  0  0  0  0  0  0  0  0  0  0  0
   -6.7536   12.3051   -6.9109 H   0  0  0  0  0  0  0  0  0  0  0  0
   -4.5183   13.2784   -6.4597 H   0  0  0  0  0  0  0  0  0  0  0  0
   -2.6656    9.7487   -8.0502 H   0  0  0  0  0  0  0  0  0  0  0  0
   -4.8756    8.8218   -7.4949 H   0  0  0  0  0  0  0  0  0  0  0  0
   -4.8639    9.5561   -9.1342 H   0  0  0  0  0  0  0  0  0  0  0  0
   -2.4137   14.2051   -6.1803 H   0  0  0  0  0  0  0  0  0  0  0  0
   -0.6543   10.5597   -7.5981 H   0  0  0  0  0  0  0  0  0  0  0  0
    1.4877   14.2705   -6.0474 H   0  0  0  0  0  0  0  0  0  0  0  0
    0.2364   15.4369   -6.5953 H   0  0  0  0  0  0  0  0  0  0  0  0
    0.1917   14.7932   -4.9189 H   0  0  0  0  0  0  0  0  0  0  0  0
   -3.5156   15.9786  -11.3298 H   0  0  0  0  0  0  0  0  0  0  0  0
   -4.4447   16.0839  -13.8303 H   0  0  0  0  0  0  0  0  0  0  0  0
   -3.8494   14.5427   -9.3295 H   0  0  0  0  0  0  0  0  0  0  0  0
   -5.4922   13.8204   -9.2545 H   0  0  0  0  0  0  0  0  0  0  0  0
   -4.0925   12.8173   -9.7656 H   0  0  0  0  0  0  0  0  0  0  0  0
  1  2  2  0  0  0  0
  1  4  1  0  0  0  0
  1 11  1  0  0  0  0
  2  6  1  0  0  0  0
  3  4  2  0  0  0  0
  3  5  1  0  0  0  0
  5  6  1  0  0  0  0
  5  9  2  0  0  0  0
  6  7  1  0  0  0  0
  7  8  2  0  0  0  0
  7 10  1  0  0  0  0
  8  9  1  0  0  0  0
 10 12  2  3  0  0  0
 11 24  1  0  0  0  0
 11 27  2  0  0  0  0
 12 13  1  0  0  0  0
 12 17  1  0  0  0  0
 13 14  2  0  0  0  0
 14 15  1  0  0  0  0
 15 16  2  0  0  0  0
 15 18  1  0  0  0  0
 16 17  1  0  0  0  0
 18 19  2  0  0  0  0
 18 22  1  0  0  0  0
 19 20  1  0  0  0  0
 20 21  1  0  0  0  0
 20 23  1  0  0  0  0
 21 22  2  0  0  0  0
 24 25  1  0  0  0  0
 24 28  1  0  0  0  0
 25 26  2  0  0  0  0
 26 27  1  0  0  0  0
  2 29  1  0  0  0  0
  3 30  1  0  0  0  0
  4 31  1  0  0  0  0
  6 32  1  0  0  0  0
 10 33  1  0  0  0  0
 13 34  1  0  0  0  0
 14 35  1  0  0  0  0
 16 36  1  0  0  0  0
 17 37  1  0  0  0  0
 17 38  1  0  0  0  0
 19 39  1  0  0  0  0
 22 40  1  0  0  0  0
 23 41  1  0  0  0  0
 23 42  1  0  0  0  0
 23 43  1  0  0  0  0
 25 44  1  0  0  0  0
 26 45  1  0  0  0  0
 28 46  1  0  0  0  0
 28 47  1  0  0  0  0
 28 48  1  0  0  0  0
M  END
> <Name>
22

> <IC50[uM]>
0.032

$$$$
22
  -OEChem-05192314333D
 Structure written by MMmdl.
 48 52  0     0  0  0  0  0  0999 V2000
   -6.3943   12.3306  -11.9839 C   0  0  0  0  0  0  0  0  0  0  0  0
   -6.5449   11.7624  -10.7224 C   0  0  0  0  0  0  0  0  0  0  0  0
   -7.7389   10.5318  -13.0493 C   0  0  0  0  0  0  0  0  0  0  0  0
   -6.9892   11.7416  -13.1218 C   0  0  0  0  0  0  0  0  0  0  0  0
   -7.8445    9.9757  -11.7834 C   0  0  0  0  0  0  0  0  0  0  0  0
   -7.2758   10.5697  -10.6136 C   0  0  0  0  0  0  0  0  0  0  0  0
   -7.6401    9.7111   -9.5254 C   0  0  0  0  0  0  0  0  0  0  0  0
   -8.3075    8.6850  -10.0132 N   0  0  0  0  0  0  0  0  0  0  0  0
   -8.4539    8.8245  -11.3160 N   0  0  0  0  0  0  0  0  0  0  0  0
   -7.3472    9.8680   -8.0446 C   0  0  0  0  0  0  0  0  0  0  0  0
   -5.5569   13.6094  -12.1739 C   0  0  0  0  0  0  0  0  0  0  0  0
   -5.9691   10.4796   -7.7443 C   0  0  0  0  0  0  0  0  0  0  0  0
   -5.8622   11.7497   -7.1624 C   0  0  0  0  0  0  0  0  0  0  0  0
   -4.6000   12.2988   -6.9070 C   0  0  0  0  0  0  0  0  0  0  0  0
   -3.4496   11.5829   -7.2293 C   0  0  0  0  0  0  0  0  0  0  0  0
   -3.5554   10.3089   -7.8035 C   0  0  0  0  0  0  0  0  0  0  0  0
   -4.8209    9.7667   -8.0554 C   0  0  0  0  0  0  0  0  0  0  0  0
   -2.0956   12.1660   -6.9654 C   0  0  0  0  0  0  0  0  0  0  0  0
   -1.7384   13.4130   -6.4683 C   0  0  0  0  0  0  0  0  0  0  0  0
   -0.4069   13.4502   -6.4129 N   0  0  0  0  0  0  0  0  0  0  0  0
    0.1813   12.3566   -6.8171 N   0  0  0  0  0  0  0  0  0  0  0  0
   -0.7988   11.5478   -7.1867 C   0  0  0  0  0  0  0  0  0  0  0  0
    0.4282   14.5550   -5.9664 C   0  0  0  0  0  0  0  0  0  0  0  0
   -4.7714   14.2106  -11.2027 N   0  0  0  0  0  0  0  0  0  0  0  0
   -4.2061   15.2849  -11.7862 C   0  0  0  0  0  0  0  0  0  0  0  0
   -4.6883   15.3268  -13.0997 C   0  0  0  0  0  0  0  0  0  0  0  0
   -5.5027   14.2765  -13.3098 N   0  0  0  0  0  0  0  0  0  0  0  0
   -4.5364   13.8232   -9.7989 C   0  0  0  0  0  0  0  0  0  0  0  0
   -6.1104   12.2275   -9.8498 H   0  0  0  0  0  0  0  0  0  0  0  0
   -8.7553   10.7392  -13.4153 H   0  0  0  0  0  0  0  0  0  0  0  0
   -7.2563    9.7930  -13.7060 H   0  0  0  0  0  0  0  0  0  0  0  0
   -6.8717   12.2251  -14.0803 H   0  0  0  0  0  0  0  0  0  0  0  0
   -8.0435    9.5766   -7.2721 H   0  0  0  0  0  0  0  0  0  0  0  0
   -6.7536   12.3051   -6.9109 H   0  0  0  0  0  0  0  0  0  0  0  0
   -4.5183   13.2784   -6.4597 H   0  0  0  0  0  0  0  0  0  0  0  0
   -2.6656    9.7487   -8.0502 H   0  0  0  0  0  0  0  0  0  0  0  0
   -4.8756    8.8218   -7.4949 H   0  0  0  0  0  0  0  0  0  0  0  0
   -4.8639    9.5561   -9.1342 H   0  0  0  0  0  0  0  0  0  0  0  0
   -2.4137   14.2051   -6.1803 H   0  0  0  0  0  0  0  0  0  0  0  0
   -0.6543   10.5597   -7.5981 H   0  0  0  0  0  0  0  0  0  0  0  0
    1.4877   14.2705   -6.0474 H   0  0  0  0  0  0  0  0  0  0  0  0
    0.2364   15.4369   -6.5953 H   0  0  0  0  0  0  0  0  0  0  0  0
    0.1917   14.7932   -4.9189 H   0  0  0  0  0  0  0  0  0  0  0  0
   -3.5156   15.9786  -11.3298 H   0  0  0  0  0  0  0  0  0  0  0  0
   -4.4447   16.0839  -13.8303 H   0  0  0  0  0  0  0  0  0  0  0  0
   -3.8494   14.5427   -9.3295 H   0  0  0  0  0  0  0  0  0  0  0  0
   -5.4922   13.8204   -9.2545 H   0  0  0  0  0  0  0  0  0  0  0  0
   -4.0925   12.8173   -9.7656 H   0  0  0  0  0  0  0  0  0  0  0  0
  1  2  1  0  0  0  0
  1  4  2  0  0  0  0
  1 11  1  0  0  0  0
  2  6  2  0  0  0  0
  3  4  1  0  0  0  0
  3  5  1  0  0  0  0
  5  6  1  0  0  0  0
  5  9  2  0  0  0  0
  6  7  1  0  0  0  0
  7  8  2  0  0  0  0
  7 10  1  0  0  0  0
  8  9  1  0  0  0  0
 10 12  2  3  0  0  0
 11 24  1  0  0  0  0
 11 27  2  0  0  0  0
 12 13  1  0  0  0  0
 12 17  1  0  0  0  0
 13 14  2  0  0  0  0
 14 15  1  0  0  0  0
 15 16  2  0  0  0  0
 15 18  1  0  0  0  0
 16 17  1  0  0  0  0
 18 19  2  0  0  0  0
 18 22  1  0  0  0  0
 19 20  1  0  0  0  0
 20 21  1  0  0  0  0
 20 23  1  0  0  0  0
 21 22  2  0  0  0  0
 24 25  1  0  0  0  0
 24 28  1  0  0  0  0
 25 26  2  0  0  0  0
 26 27  1  0  0  0  0
  2 29  1  0  0  0  0
  3 30  1  0  0  0  0
  3 31  1  0  0  0  0
  4 32  1  0  0  0  0
 10 33  1  0  0  0  0
 13 34  1  0  0  0  0
 14 35  1  0  0  0  0
 16 36  1  0  0  0  0
 17 37  1  0  0  0  0
 17 38  1  0  0  0  0
 19 39  1  0  0  0  0
 22 40  1  0  0  0  0
 23 41  1  0  0  0  0
 23 42  1  0  0  0  0
 23 43  1  0  0  0  0
 25 44  1  0  0  0  0
 26 45  1  0  0  0  0
 28 46  1  0  0  0  0
 28 47  1  0  0  0  0
 28 48  1  0  0  0  0
M  END
> <Name>
22

> <IC50[uM]>
0.032

$$$$
22
  -OEChem-05192314333D
 Structure written by MMmdl.
 48 52  0     1  0  0  0  0  0999 V2000
   -6.3943   12.3306  -11.9839 C   0  0  0  0  0  0  0  0  0  0  0  0
   -6.5449   11.7624  -10.7224 C   0  0  0  0  0  0  0  0  0  0  0  0
   -7.7389   10.5318  -13.0493 C   0  0  0  0  0  0  0  0  0  0  0  0
   -6.9892   11.7416  -13.1218 C   0  0  0  0  0  0  0  0  0  0  0  0
   -7.8445    9.9757  -11.7834 C   0  0  3  0  0  0  0  0  0  0  0  0
   -7.2758   10.5697  -10.6136 C   0  0  0  0  0  0  0  0  0  0  0  0
   -7.6401    9.7111   -9.5254 C   0  0  0  0  0  0  0  0  0  0  0  0
   -8.3075    8.6850  -10.0132 N   0  0  0  0  0  0  0  0  0  0  0  0
   -8.4539    8.8245  -11.3160 N   0  0  0  0  0  0  0  0  0  0  0  0
   -7.3472    9.8680   -8.0446 C   0  0  0  0  0  0  0  0  0  0  0  0
   -5.5569   13.6094  -12.1739 C   0  0  0  0  0  0  0  0  0  0  0  0
   -5.9691   10.4796   -7.7443 C   0  0  0  0  0  0  0  0  0  0  0  0
   -5.8622   11.7497   -7.1624 C   0  0  0  0  0  0  0  0  0  0  0  0
   -4.6000   12.2988   -6.9070 C   0  0  0  0  0  0  0  0  0  0  0  0
   -3.4496   11.5829   -7.2293 C   0  0  0  0  0  0  0  0  0  0  0  0
   -3.5554   10.3089   -7.8035 C   0  0  0  0  0  0  0  0  0  0  0  0
   -4.8209    9.7667   -8.0554 C   0  0  0  0  0  0  0  0  0  0  0  0
   -2.0956   12.1660   -6.9654 C   0  0  0  0  0  0  0  0  0  0  0  0
   -1.7384   13.4130   -6.4683 C   0  0  0  0  0  0  0  0  0  0  0  0
   -0.4069   13.4502   -6.4129 N   0  0  0  0  0  0  0  0  0  0  0  0
    0.1813   12.3566   -6.8171 N   0  0  0  0  0  0  0  0  0  0  0  0
   -0.7988   11.5478   -7.1867 C   0  0  0  0  0  0  0  0  0  0  0  0
    0.4282   14.5550   -5.9664 C   0  0  0  0  0  0  0  0  0  0  0  0
   -4.7714   14.2106  -11.2027 N   0  0  0  0  0  0  0  0  0  0  0  0
   -4.2061   15.2849  -11.7862 C   0  0  0  0  0  0  0  0  0  0  0  0
   -4.6883   15.3268  -13.0997 C   0  0  0  0  0  0  0  0  0  0  0  0
   -5.5027   14.2765  -13.3098 N   0  0  0  0  0  0  0  0  0  0  0  0
   -4.5364   13.8232   -9.7989 C   0  0  0  0  0  0  0  0  0  0  0  0
   -6.1104   12.2275   -9.8498 H   0  0  0  0  0  0  0  0  0  0  0  0
   -8.1928   10.0800  -13.9189 H   0  0  0  0  0  0  0  0  0  0  0  0
   -6.8717   12.2251  -14.0803 H   0  0  0  0  0  0  0  0  0  0  0  0
   -6.9133    9.4148  -11.9517 H   0  0  0  0  0  0  0  0  0  0  0  0
   -8.0435    9.5766   -7.2721 H   0  0  0  0  0  0  0  0  0  0  0  0
   -6.7536   12.3051   -6.9109 H   0  0  0  0  0  0  0  0  0  0  0  0
   -4.5183   13.2784   -6.4597 H   0  0  0  0  0  0  0  0  0  0  0  0
   -3.4490   12.0350   -8.2321 H   0  0  0  0  0  0  0  0  0  0  0  0
   -2.6656    9.7487   -8.0502 H   0  0  0  0  0  0  0  0  0  0  0  0
   -4.9040    8.7842   -8.4961 H   0  0  0  0  0  0  0  0  0  0  0  0
   -2.4137   14.2051   -6.1803 H   0  0  0  0  0  0  0  0  0  0  0  0
   -0.6543   10.5597   -7.5981 H   0  0  0  0  0  0  0  0  0  0  0  0
    1.4877   14.2705   -6.0474 H   0  0  0  0  0  0  0  0  0  0  0  0
    0.2364   15.4369   -6.5953 H   0  0  0  0  0  0  0  0  0  0  0  0
    0.1917   14.7932   -4.9189 H   0  0  0  0  0  0  0  0  0  0  0  0
   -3.5156   15.9786  -11.3298 H   0  0  0  0  0  0  0  0  0  0  0  0
   -4.4447   16.0839  -13.8303 H   0  0  0  0  0  0  0  0  0  0  0  0
   -3.8494   14.5427   -9.3295 H   0  0  0  0  0  0  0  0  0  0  0  0
   -5.4922   13.8204   -9.2545 H   0  0  0  0  0  0  0  0  0  0  0  0
   -4.0925   12.8173   -9.7656 H   0  0  0  0  0  0  0  0  0  0  0  0
  1  2  2  0  0  0  0
  1  4  1  0  0  0  0
  1 11  1  0  0  0  0
  2  6  1  0  0  0  0
  3  4  2  0  0  0  0
  3  5  1  0  0  0  0
  5  6  1  0  0  0  0
  5  9  1  0  0  0  0
  6  7  2  0  0  0  0
  7  8  1  0  0  0  0
  7 10  1  0  0  0  0
  8  9  2  0  0  0  0
 10 12  2  0  0  0  0
 11 24  1  0  0  0  0
 11 27  2  0  0  0  0
 12 13  1  0  0  0  0
 12 17  1  0  0  0  0
 13 14  2  0  0  0  0
 14 15  1  0  0  0  0
 15 16  1  0  0  0  0
 15 18  1  0  0  0  0
 16 17  2  0  0  0  0
 18 19  2  0  0  0  0
 18 22  1  0  0  0  0
 19 20  1  0  0  0  0
 20 21  1  0  0  0  0
 20 23  1  0  0  0  0
 21 22  2  0  0  0  0
 24 25  1  0  0  0  0
 24 28  1  0  0  0  0
 25 26  2  0  0  0  0
 26 27  1  0  0  0  0
  2 29  1  0  0  0  0
  3 30  1  0  0  0  0
  4 31  1  0  0  0  0
  5 32  1  0  0  0  0
 10 33  1  0  0  0  0
 13 34  1  0  0  0  0
 14 35  1  0  0  0  0
 15 36  1  0  0  0  0
 16 37  1  0  0  0  0
 17 38  1  0  0  0  0
 19 39  1  0  0  0  0
 22 40  1  0  0  0  0
 23 41  1  0  0  0  0
 23 42  1  0  0  0  0
 23 43  1  0  0  0  0
 25 44  1  0  0  0  0
 26 45  1  0  0  0  0
 28 46  1  0  0  0  0
 28 47  1  0  0  0  0
 28 48  1  0  0  0  0
M  END
> <Name>
22

> <IC50[uM]>
0.032

$$$$
22
  -OEChem-05192314333D
 Structure written by MMmdl.
 48 52  0     0  0  0  0  0  0999 V2000
   -6.3943   12.3306  -11.9839 C   0  0  0  0  0  0  0  0  0  0  0  0
   -6.5449   11.7624  -10.7224 C   0  0  0  0  0  0  0  0  0  0  0  0
   -7.7389   10.5318  -13.0493 C   0  0  0  0  0  0  0  0  0  0  0  0
   -6.9892   11.7416  -13.1218 C   0  0  0  0  0  0  0  0  0  0  0  0
   -7.8445    9.9757  -11.7834 C   0  0  0  0  0  0  0  0  0  0  0  0
   -7.2758   10.5697  -10.6136 C   0  0  0  0  0  0  0  0  0  0  0  0
   -7.6401    9.7111   -9.5254 C   0  0  0  0  0  0  0  0  0  0  0  0
   -8.3075    8.6850  -10.0132 N   0  0  0  0  0  0  0  0  0  0  0  0
   -8.4539    8.8245  -11.3160 N   0  0  0  0  0  0  0  0  0  0  0  0
   -7.3472    9.8680   -8.0446 C   0  0  0  0  0  0  0  0  0  0  0  0
   -5.5569   13.6094  -12.1739 C   0  0  0  0  0  0  0  0  0  0  0  0
   -5.9691   10.4796   -7.7443 C   0  0  0  0  0  0  0  0  0  0  0  0
   -5.8622   11.7497   -7.1624 C   0  0  0  0  0  0  0  0  0  0  0  0
   -4.6000   12.2988   -6.9070 C   0  0  0  0  0  0  0  0  0  0  0  0
   -3.4496   11.5829   -7.2293 C   0  0  0  0  0  0  0  0  0  0  0  0
   -3.5554   10.3089   -7.8035 C   0  0  0  0  0  0  0  0  0  0  0  0
   -4.8209    9.7667   -8.0554 C   0  0  0  0  0  0  0  0  0  0  0  0
   -2.0956   12.1660   -6.9654 C   0  0  0  0  0  0  0  0  0  0  0  0
   -1.7384   13.4130   -6.4683 C   0  0  0  0  0  0  0  0  0  0  0  0
   -0.4069   13.4502   -6.4129 N   0  0  0  0  0  0  0  0  0  0  0  0
    0.1813   12.3566   -6.8171 N   0  0  0  0  0  0  0  0  0  0  0  0
   -0.7988   11.5478   -7.1867 C   0  0  0  0  0  0  0  0  0  0  0  0
    0.4282   14.5550   -5.9664 C   0  0  0  0  0  0  0  0  0  0  0  0
   -4.7714   14.2106  -11.2027 N   0  0  0  0  0  0  0  0  0  0  0  0
   -4.2061   15.2849  -11.7862 C   0  0  0  0  0  0  0  0  0  0  0  0
   -4.6883   15.3268  -13.0997 C   0  0  0  0  0  0  0  0  0  0  0  0
   -5.5027   14.2765  -13.3098 N   0  0  0  0  0  0  0  0  0  0  0  0
   -4.5364   13.8232   -9.7989 C   0  0  0  0  0  0  0  0  0  0  0  0
   -6.1104   12.2275   -9.8498 H   0  0  0  0  0  0  0  0  0  0  0  0
   -8.1928   10.0800  -13.9189 H   0  0  0  0  0  0  0  0  0  0  0  0
   -7.6693   12.4990  -13.5386 H   0  0  0  0  0  0  0  0  0  0  0  0
   -6.1709   11.5529  -13.8323 H   0  0  0  0  0  0  0  0  0  0  0  0
   -8.0435    9.5766   -7.2721 H   0  0  0  0  0  0  0  0  0  0  0  0
   -6.7536   12.3051   -6.9109 H   0  0  0  0  0  0  0  0  0  0  0  0
   -4.5183   13.2784   -6.4597 H   0  0  0  0  0  0  0  0  0  0  0  0
   -3.4490   12.0350   -8.2321 H   0  0  0  0  0  0  0  0  0  0  0  0
   -2.6656    9.7487   -8.0502 H   0  0  0  0  0  0  0  0  0  0  0  0
   -4.9040    8.7842   -8.4961 H   0  0  0  0  0  0  0  0  0  0  0  0
   -2.4137   14.2051   -6.1803 H   0  0  0  0  0  0  0  0  0  0  0  0
   -0.6543   10.5597   -7.5981 H   0  0  0  0  0  0  0  0  0  0  0  0
    1.4877   14.2705   -6.0474 H   0  0  0  0  0  0  0  0  0  0  0  0
    0.2364   15.4369   -6.5953 H   0  0  0  0  0  0  0  0  0  0  0  0
    0.1917   14.7932   -4.9189 H   0  0  0  0  0  0  0  0  0  0  0  0
   -3.5156   15.9786  -11.3298 H   0  0  0  0  0  0  0  0  0  0  0  0
   -4.4447   16.0839  -13.8303 H   0  0  0  0  0  0  0  0  0  0  0  0
   -3.8494   14.5427   -9.3295 H   0  0  0  0  0  0  0  0  0  0  0  0
   -5.4922   13.8204   -9.2545 H   0  0  0  0  0  0  0  0  0  0  0  0
   -4.0925   12.8173   -9.7656 H   0  0  0  0  0  0  0  0  0  0  0  0
  1  2  2  0  0  0  0
  1  4  1  0  0  0  0
  1 11  1  0  0  0  0
  2  6  1  0  0  0  0
  3  4  1  0  0  0  0
  3  5  2  0  0  0  0
  5  6  1  0  0  0  0
  5  9  1  0  0  0  0
  6  7  2  0  0  0  0
  7  8  1  0  0  0  0
  7 10  1  0  0  0  0
  8  9  2  0  0  0  0
 10 12  2  0  0  0  0
 11 24  1  0  0  0  0
 11 27  2  0  0  0  0
 12 13  1  0  0  0  0
 12 17  1  0  0  0  0
 13 14  2  0  0  0  0
 14 15  1  0  0  0  0
 15 16  1  0  0  0  0
 15 18  1  0  0  0  0
 16 17  2  0  0  0  0
 18 19  2  0  0  0  0
 18 22  1  0  0  0  0
 19 20  1  0  0  0  0
 20 21  1  0  0  0  0
 20 23  1  0  0  0  0
 21 22  2  0  0  0  0
 24 25  1  0  0  0  0
 24 28  1  0  0  0  0
 25 26  2  0  0  0  0
 26 27  1  0  0  0  0
  2 29  1  0  0  0  0
  3 30  1  0  0  0  0
  4 31  1  0  0  0  0
  4 32  1  0  0  0  0
 10 33  1  0  0  0  0
 13 34  1  0  0  0  0
 14 35  1  0  0  0  0
 15 36  1  0  0  0  0
 16 37  1  0  0  0  0
 17 38  1  0  0  0  0
 19 39  1  0  0  0  0
 22 40  1  0  0  0  0
 23 41  1  0  0  0  0
 23 42  1  0  0  0  0
 23 43  1  0  0  0  0
 25 44  1  0  0  0  0
 26 45  1  0  0  0  0
 28 46  1  0  0  0  0
 28 47  1  0  0  0  0
 28 48  1  0  0  0  0
M  END
> <Name>
22

> <IC50[uM]>
0.032

$$$$
22
  -OEChem-05192314333D
 Structure written by MMmdl.
 48 52  0     1  0  0  0  0  0999 V2000
   -6.3943   12.3306  -11.9839 C   0  0  0  0  0  0  0  0  0  0  0  0
   -6.5449   11.7624  -10.7224 C   0  0  0  0  0  0  0  0  0  0  0  0
   -7.7389   10.5318  -13.0493 C   0  0  0  0  0  0  0  0  0  0  0  0
   -6.9892   11.7416  -13.1218 C   0  0  0  0  0  0  0  0  0  0  0  0
   -7.8445    9.9757  -11.7834 C   0  0  3  0  0  0  0  0  0  0  0  0
   -7.2758   10.5697  -10.6136 C   0  0  0  0  0  0  0  0  0  0  0  0
   -7.6401    9.7111   -9.5254 C   0  0  0  0  0  0  0  0  0  0  0  0
   -8.3075    8.6850  -10.0132 N   0  0  0  0  0  0  0  0  0  0  0  0
   -8.4539    8.8245  -11.3160 N   0  0  0  0  0  0  0  0  0  0  0  0
   -7.3472    9.8680   -8.0446 C   0  0  0  0  0  0  0  0  0  0  0  0
   -5.5569   13.6094  -12.1739 C   0  0  0  0  0  0  0  0  0  0  0  0
   -5.9691   10.4796   -7.7443 C   0  0  0  0  0  0  0  0  0  0  0  0
   -5.8622   11.7497   -7.1624 C   0  0  0  0  0  0  0  0  0  0  0  0
   -4.6000   12.2988   -6.9070 C   0  0  0  0  0  0  0  0  0  0  0  0
   -3.4496   11.5829   -7.2293 C   0  0  0  0  0  0  0  0  0  0  0  0
   -3.5554   10.3089   -7.8035 C   0  0  0  0  0  0  0  0  0  0  0  0
   -4.8209    9.7667   -8.0554 C   0  0  0  0  0  0  0  0  0  0  0  0
   -2.0956   12.1660   -6.9654 C   0  0  0  0  0  0  0  0  0  0  0  0
   -1.7384   13.4130   -6.4683 C   0  0  0  0  0  0  0  0  0  0  0  0
   -0.4069   13.4502   -6.4129 N   0  0  0  0  0  0  0  0  0  0  0  0
    0.1813   12.3566   -6.8171 N   0  0  0  0  0  0  0  0  0  0  0  0
   -0.7988   11.5478   -7.1867 C   0  0  0  0  0  0  0  0  0  0  0  0
    0.4282   14.5550   -5.9664 C   0  0  0  0  0  0  0  0  0  0  0  0
   -4.7714   14.2106  -11.2027 N   0  0  0  0  0  0  0  0  0  0  0  0
   -4.2061   15.2849  -11.7862 C   0  0  0  0  0  0  0  0  0  0  0  0
   -4.6883   15.3268  -13.0997 C   0  0  0  0  0  0  0  0  0  0  0  0
   -5.5027   14.2765  -13.3098 N   0  0  0  0  0  0  0  0  0  0  0  0
   -4.5364   13.8232   -9.7989 C   0  0  0  0  0  0  0  0  0  0  0  0
   -6.1104   12.2275   -9.8498 H   0  0  0  0  0  0  0  0  0  0  0  0
   -8.1928   10.0800  -13.9189 H   0  0  0  0  0  0  0  0  0  0  0  0
   -6.8717   12.2251  -14.0803 H   0  0  0  0  0  0  0  0  0  0  0  0
   -6.9133    9.4148  -11.9517 H   0  0  0  0  0  0  0  0  0  0  0  0
   -8.0435    9.5766   -7.2721 H   0  0  0  0  0  0  0  0  0  0  0  0
   -6.7536   12.3051   -6.9109 H   0  0  0  0  0  0  0  0  0  0  0  0
   -4.5183   13.2784   -6.4597 H   0  0  0  0  0  0  0  0  0  0  0  0
   -2.6656    9.7487   -8.0502 H   0  0  0  0  0  0  0  0  0  0  0  0
   -4.8756    8.8218   -7.4949 H   0  0  0  0  0  0  0  0  0  0  0  0
   -4.8639    9.5561   -9.1342 H   0  0  0  0  0  0  0  0  0  0  0  0
   -2.4137   14.2051   -6.1803 H   0  0  0  0  0  0  0  0  0  0  0  0
   -0.6543   10.5597   -7.5981 H   0  0  0  0  0  0  0  0  0  0  0  0
    1.4877   14.2705   -6.0474 H   0  0  0  0  0  0  0  0  0  0  0  0
    0.2364   15.4369   -6.5953 H   0  0  0  0  0  0  0  0  0  0  0  0
    0.1917   14.7932   -4.9189 H   0  0  0  0  0  0  0  0  0  0  0  0
   -3.5156   15.9786  -11.3298 H   0  0  0  0  0  0  0  0  0  0  0  0
   -4.4447   16.0839  -13.8303 H   0  0  0  0  0  0  0  0  0  0  0  0
   -3.8494   14.5427   -9.3295 H   0  0  0  0  0  0  0  0  0  0  0  0
   -5.4922   13.8204   -9.2545 H   0  0  0  0  0  0  0  0  0  0  0  0
   -4.0925   12.8173   -9.7656 H   0  0  0  0  0  0  0  0  0  0  0  0
  1  2  2  0  0  0  0
  1  4  1  0  0  0  0
  1 11  1  0  0  0  0
  2  6  1  0  0  0  0
  3  4  2  0  0  0  0
  3  5  1  0  0  0  0
  5  6  1  0  0  0  0
  5  9  1  0  0  0  0
  6  7  2  0  0  0  0
  7  8  1  0  0  0  0
  7 10  1  0  0  0  0
  8  9  2  0  0  0  0
 10 12  2  3  0  0  0
 11 24  1  0  0  0  0
 11 27  2  0  0  0  0
 12 13  1  0  0  0  0
 12 17  1  0  0  0  0
 13 14  2  0  0  0  0
 14 15  1  0  0  0  0
 15 16  2  0  0  0  0
 15 18  1  0  0  0  0
 16 17  1  0  0  0  0
 18 19  2  0  0  0  0
 18 22  1  0  0  0  0
 19 20  1  0  0  0  0
 20 21  1  0  0  0  0
 20 23  1  0  0  0  0
 21 22  2  0  0  0  0
 24 25  1  0  0  0  0
 24 28  1  0  0  0  0
 25 26  2  0  0  0  0
 26 27  1  0  0  0  0
  2 29  1  0  0  0  0
  3 30  1  0  0  0  0
  4 31  1  0  0  0  0
  5 32  1  0  0  0  0
 10 33  1  0  0  0  0
 13 34  1  0  0  0  0
 14 35  1  0  0  0  0
 16 36  1  0  0  0  0
 17 37  1  0  0  0  0
 17 38  1  0  0  0  0
 19 39  1  0  0  0  0
 22 40  1  0  0  0  0
 23 41  1  0  0  0  0
 23 42  1  0  0  0  0
 23 43  1  0  0  0  0
 25 44  1  0  0  0  0
 26 45  1  0  0  0  0
 28 46  1  0  0  0  0
 28 47  1  0  0  0  0
 28 48  1  0  0  0  0
M  END
> <Name>
22

> <IC50[uM]>
0.032

$$$$
22
  -OEChem-05192314333D
 Structure written by MMmdl.
 48 52  0     0  0  0  0  0  0999 V2000
   -6.3943   12.3306  -11.9839 C   0  0  0  0  0  0  0  0  0  0  0  0
   -6.5449   11.7624  -10.7224 C   0  0  0  0  0  0  0  0  0  0  0  0
   -7.7389   10.5318  -13.0493 C   0  0  0  0  0  0  0  0  0  0  0  0
   -6.9892   11.7416  -13.1218 C   0  0  0  0  0  0  0  0  0  0  0  0
   -7.8445    9.9757  -11.7834 C   0  0  0  0  0  0  0  0  0  0  0  0
   -7.2758   10.5697  -10.6136 C   0  0  0  0  0  0  0  0  0  0  0  0
   -7.6401    9.7111   -9.5254 C   0  0  0  0  0  0  0  0  0  0  0  0
   -8.3075    8.6850  -10.0132 N   0  0  0  0  0  0  0  0  0  0  0  0
   -8.4539    8.8245  -11.3160 N   0  0  0  0  0  0  0  0  0  0  0  0
   -7.3472    9.8680   -8.0446 C   0  0  0  0  0  0  0  0  0  0  0  0
   -5.5569   13.6094  -12.1739 C   0  0  0  0  0  0  0  0  0  0  0  0
   -5.9691   10.4796   -7.7443 C   0  0  0  0  0  0  0  0  0  0  0  0
   -5.8622   11.7497   -7.1624 C   0  0  0  0  0  0  0  0  0  0  0  0
   -4.6000   12.2988   -6.9070 C   0  0  0  0  0  0  0  0  0  0  0  0
   -3.4496   11.5829   -7.2293 C   0  0  0  0  0  0  0  0  0  0  0  0
   -3.5554   10.3089   -7.8035 C   0  0  0  0  0  0  0  0  0  0  0  0
   -4.8209    9.7667   -8.0554 C   0  0  0  0  0  0  0  0  0  0  0  0
   -2.0956   12.1660   -6.9654 C   0  0  0  0  0  0  0  0  0  0  0  0
   -1.7384   13.4130   -6.4683 C   0  0  0  0  0  0  0  0  0  0  0  0
   -0.4069   13.4502   -6.4129 N   0  0  0  0  0  0  0  0  0  0  0  0
    0.1813   12.3566   -6.8171 N   0  0  0  0  0  0  0  0  0  0  0  0
   -0.7988   11.5478   -7.1867 C   0  0  0  0  0  0  0  0  0  0  0  0
    0.4282   14.5550   -5.9664 C   0  0  0  0  0  0  0  0  0  0  0  0
   -4.7714   14.2106  -11.2027 N   0  0  0  0  0  0  0  0  0  0  0  0
   -4.2061   15.2849  -11.7862 C   0  0  0  0  0  0  0  0  0  0  0  0
   -4.6883   15.3268  -13.0997 C   0  0  0  0  0  0  0  0  0  0  0  0
   -5.5027   14.2765  -13.3098 N   0  0  0  0  0  0  0  0  0  0  0  0
   -4.5364   13.8232   -9.7989 C   0  0  0  0  0  0  0  0  0  0  0  0
   -6.1104   12.2275   -9.8498 H   0  0  0  0  0  0  0  0  0  0  0  0
   -8.1928   10.0800  -13.9189 H   0  0  0  0  0  0  0  0  0  0  0  0
   -7.6693   12.4990  -13.5386 H   0  0  0  0  0  0  0  0  0  0  0  0
   -6.1709   11.5529  -13.8323 H   0  0  0  0  0  0  0  0  0  0  0  0
   -8.0435    9.5766   -7.2721 H   0  0  0  0  0  0  0  0  0  0  0  0
   -6.7536   12.3051   -6.9109 H   0  0  0  0  0  0  0  0  0  0  0  0
   -4.5183   13.2784   -6.4597 H   0  0  0  0  0  0  0  0  0  0  0  0
   -2.6656    9.7487   -8.0502 H   0  0  0  0  0  0  0  0  0  0  0  0
   -4.8756    8.8218   -7.4949 H   0  0  0  0  0  0  0  0  0  0  0  0
   -4.8639    9.5561   -9.1342 H   0  0  0  0  0  0  0  0  0  0  0  0
   -2.4137   14.2051   -6.1803 H   0  0  0  0  0  0  0  0  0  0  0  0
   -0.6543   10.5597   -7.5981 H   0  0  0  0  0  0  0  0  0  0  0  0
    1.4877   14.2705   -6.0474 H   0  0  0  0  0  0  0  0  0  0  0  0
    0.2364   15.4369   -6.5953 H   0  0  0  0  0  0  0  0  0  0  0  0
    0.1917   14.7932   -4.9189 H   0  0  0  0  0  0  0  0  0  0  0  0
   -3.5156   15.9786  -11.3298 H   0  0  0  0  0  0  0  0  0  0  0  0
   -4.4447   16.0839  -13.8303 H   0  0  0  0  0  0  0  0  0  0  0  0
   -3.8494   14.5427   -9.3295 H   0  0  0  0  0  0  0  0  0  0  0  0
   -5.4922   13.8204   -9.2545 H   0  0  0  0  0  0  0  0  0  0  0  0
   -4.0925   12.8173   -9.7656 H   0  0  0  0  0  0  0  0  0  0  0  0
  1  2  2  0  0  0  0
  1  4  1  0  0  0  0
  1 11  1  0  0  0  0
  2  6  1  0  0  0  0
  3  4  1  0  0  0  0
  3  5  2  0  0  0  0
  5  6  1  0  0  0  0
  5  9  1  0  0  0  0
  6  7  2  0  0  0  0
  7  8  1  0  0  0  0
  7 10  1  0  0  0  0
  8  9  2  0  0  0  0
 10 12  2  3  0  0  0
 11 24  1  0  0  0  0
 11 27  2  0  0  0  0
 12 13  1  0  0  0  0
 12 17  1  0  0  0  0
 13 14  2  0  0  0  0
 14 15  1  0  0  0  0
 15 16  2  0  0  0  0
 15 18  1  0  0  0  0
 16 17  1  0  0  0  0
 18 19  2  0  0  0  0
 18 22  1  0  0  0  0
 19 20  1  0  0  0  0
 20 21  1  0  0  0  0
 20 23  1  0  0  0  0
 21 22  2  0  0  0  0
 24 25  1  0  0  0  0
 24 28  1  0  0  0  0
 25 26  2  0  0  0  0
 26 27  1  0  0  0  0
  2 29  1  0  0  0  0
  3 30  1  0  0  0  0
  4 31  1  0  0  0  0
  4 32  1  0  0  0  0
 10 33  1  0  0  0  0
 13 34  1  0  0  0  0
 14 35  1  0  0  0  0
 16 36  1  0  0  0  0
 17 37  1  0  0  0  0
 17 38  1  0  0  0  0
 19 39  1  0  0  0  0
 22 40  1  0  0  0  0
 23 41  1  0  0  0  0
 23 42  1  0  0  0  0
 23 43  1  0  0  0  0
 25 44  1  0  0  0  0
 26 45  1  0  0  0  0
 28 46  1  0  0  0  0
 28 47  1  0  0  0  0
 28 48  1  0  0  0  0
M  END
> <Name>
22

> <IC50[uM]>
0.032

$$$$
22
  -OEChem-05192314333D
 Structure written by MMmdl.
 48 52  0     0  0  0  0  0  0999 V2000
   -6.3943   12.3306  -11.9839 C   0  0  0  0  0  0  0  0  0  0  0  0
   -6.5449   11.7624  -10.7224 C   0  0  0  0  0  0  0  0  0  0  0  0
   -7.7389   10.5318  -13.0493 C   0  0  0  0  0  0  0  0  0  0  0  0
   -6.9892   11.7416  -13.1218 C   0  0  0  0  0  0  0  0  0  0  0  0
   -7.8445    9.9757  -11.7834 C   0  0  0  0  0  0  0  0  0  0  0  0
   -7.2758   10.5697  -10.6136 C   0  0  0  0  0  0  0  0  0  0  0  0
   -7.6401    9.7111   -9.5254 C   0  0  0  0  0  0  0  0  0  0  0  0
   -8.3075    8.6850  -10.0132 N   0  0  0  0  0  0  0  0  0  0  0  0
   -8.4539    8.8245  -11.3160 N   0  0  0  0  0  0  0  0  0  0  0  0
   -7.3472    9.8680   -8.0446 C   0  0  0  0  0  0  0  0  0  0  0  0
   -5.5569   13.6094  -12.1739 C   0  0  0  0  0  0  0  0  0  0  0  0
   -5.9691   10.4796   -7.7443 C   0  0  0  0  0  0  0  0  0  0  0  0
   -5.8622   11.7497   -7.1624 C   0  0  0  0  0  0  0  0  0  0  0  0
   -4.6000   12.2988   -6.9070 C   0  0  0  0  0  0  0  0  0  0  0  0
   -3.4496   11.5829   -7.2293 C   0  0  0  0  0  0  0  0  0  0  0  0
   -3.5554   10.3089   -7.8035 C   0  0  0  0  0  0  0  0  0  0  0  0
   -4.8209    9.7667   -8.0554 C   0  0  0  0  0  0  0  0  0  0  0  0
   -2.0956   12.1660   -6.9654 C   0  0  0  0  0  0  0  0  0  0  0  0
   -1.7384   13.4130   -6.4683 C   0  0  0  0  0  0  0  0  0  0  0  0
   -0.4069   13.4502   -6.4129 N   0  0  0  0  0  0  0  0  0  0  0  0
    0.1813   12.3566   -6.8171 N   0  0  0  0  0  0  0  0  0  0  0  0
   -0.7988   11.5478   -7.1867 C   0  0  0  0  0  0  0  0  0  0  0  0
    0.4282   14.5550   -5.9664 C   0  0  0  0  0  0  0  0  0  0  0  0
   -4.7714   14.2106  -11.2027 N   0  0  0  0  0  0  0  0  0  0  0  0
   -4.2061   15.2849  -11.7862 C   0  0  0  0  0  0  0  0  0  0  0  0
   -4.6883   15.3268  -13.0997 C   0  0  0  0  0  0  0  0  0  0  0  0
   -5.5027   14.2765  -13.3098 N   0  0  0  0  0  0  0  0  0  0  0  0
   -4.5364   13.8232   -9.7989 C   0  0  0  0  0  0  0  0  0  0  0  0
   -5.5359   11.5629  -10.3324 H   0  0  0  0  0  0  0  0  0  0  0  0
   -7.0429   12.5089  -10.0862 H   0  0  0  0  0  0  0  0  0  0  0  0
   -8.1928   10.0800  -13.9189 H   0  0  0  0  0  0  0  0  0  0  0  0
   -6.8717   12.2251  -14.0803 H   0  0  0  0  0  0  0  0  0  0  0  0
   -8.0435    9.5766   -7.2721 H   0  0  0  0  0  0  0  0  0  0  0  0
   -6.7536   12.3051   -6.9109 H   0  0  0  0  0  0  0  0  0  0  0  0
   -4.5183   13.2784   -6.4597 H   0  0  0  0  0  0  0  0  0  0  0  0
   -3.4490   12.0350   -8.2321 H   0  0  0  0  0  0  0  0  0  0  0  0
   -2.6656    9.7487   -8.0502 H   0  0  0  0  0  0  0  0  0  0  0  0
   -4.9040    8.7842   -8.4961 H   0  0  0  0  0  0  0  0  0  0  0  0
   -2.4137   14.2051   -6.1803 H   0  0  0  0  0  0  0  0  0  0  0  0
   -0.6543   10.5597   -7.5981 H   0  0  0  0  0  0  0  0  0  0  0  0
    1.4877   14.2705   -6.0474 H   0  0  0  0  0  0  0  0  0  0  0  0
    0.2364   15.4369   -6.5953 H   0  0  0  0  0  0  0  0  0  0  0  0
    0.1917   14.7932   -4.9189 H   0  0  0  0  0  0  0  0  0  0  0  0
   -3.5156   15.9786  -11.3298 H   0  0  0  0  0  0  0  0  0  0  0  0
   -4.4447   16.0839  -13.8303 H   0  0  0  0  0  0  0  0  0  0  0  0
   -3.8494   14.5427   -9.3295 H   0  0  0  0  0  0  0  0  0  0  0  0
   -5.4922   13.8204   -9.2545 H   0  0  0  0  0  0  0  0  0  0  0  0
   -4.0925   12.8173   -9.7656 H   0  0  0  0  0  0  0  0  0  0  0  0
  1  2  1  0  0  0  0
  1  4  2  0  0  0  0
  1 11  1  0  0  0  0
  2  6  1  0  0  0  0
  3  4  1  0  0  0  0
  3  5  2  0  0  0  0
  5  6  1  0  0  0  0
  5  9  1  0  0  0  0
  6  7  2  0  0  0  0
  7  8  1  0  0  0  0
  7 10  1  0  0  0  0
  8  9  2  0  0  0  0
 10 12  2  0  0  0  0
 11 24  1  0  0  0  0
 11 27  2  0  0  0  0
 12 13  1  0  0  0  0
 12 17  1  0  0  0  0
 13 14  2  0  0  0  0
 14 15  1  0  0  0  0
 15 16  1  0  0  0  0
 15 18  1  0  0  0  0
 16 17  2  0  0  0  0
 18 19  2  0  0  0  0
 18 22  1  0  0  0  0
 19 20  1  0  0  0  0
 20 21  1  0  0  0  0
 20 23  1  0  0  0  0
 21 22  2  0  0  0  0
 24 25  1  0  0  0  0
 24 28  1  0  0  0  0
 25 26  2  0  0  0  0
 26 27  1  0  0  0  0
  2 29  1  0  0  0  0
  2 30  1  0  0  0  0
  3 31  1  0  0  0  0
  4 32  1  0  0  0  0
 10 33  1  0  0  0  0
 13 34  1  0  0  0  0
 14 35  1  0  0  0  0
 15 36  1  0  0  0  0
 16 37  1  0  0  0  0
 17 38  1  0  0  0  0
 19 39  1  0  0  0  0
 22 40  1  0  0  0  0
 23 41  1  0  0  0  0
 23 42  1  0  0  0  0
 23 43  1  0  0  0  0
 25 44  1  0  0  0  0
 26 45  1  0  0  0  0
 28 46  1  0  0  0  0
 28 47  1  0  0  0  0
 28 48  1  0  0  0  0
M  END
> <Name>
22

> <IC50[uM]>
0.032

$$$$
22
  -OEChem-05192314333D
 Structure written by MMmdl.
 48 52  0     0  0  0  0  0  0999 V2000
   -6.3943   12.3306  -11.9839 C   0  0  0  0  0  0  0  0  0  0  0  0
   -6.5449   11.7624  -10.7224 C   0  0  0  0  0  0  0  0  0  0  0  0
   -7.7389   10.5318  -13.0493 C   0  0  0  0  0  0  0  0  0  0  0  0
   -6.9892   11.7416  -13.1218 C   0  0  0  0  0  0  0  0  0  0  0  0
   -7.8445    9.9757  -11.7834 C   0  0  0  0  0  0  0  0  0  0  0  0
   -7.2758   10.5697  -10.6136 C   0  0  0  0  0  0  0  0  0  0  0  0
   -7.6401    9.7111   -9.5254 C   0  0  0  0  0  0  0  0  0  0  0  0
   -8.3075    8.6850  -10.0132 N   0  0  0  0  0  0  0  0  0  0  0  0
   -8.4539    8.8245  -11.3160 N   0  0  0  0  0  0  0  0  0  0  0  0
   -7.3472    9.8680   -8.0446 C   0  0  0  0  0  0  0  0  0  0  0  0
   -5.5569   13.6094  -12.1739 C   0  0  0  0  0  0  0  0  0  0  0  0
   -5.9691   10.4796   -7.7443 C   0  0  0  0  0  0  0  0  0  0  0  0
   -5.8622   11.7497   -7.1624 C   0  0  0  0  0  0  0  0  0  0  0  0
   -4.6000   12.2988   -6.9070 C   0  0  0  0  0  0  0  0  0  0  0  0
   -3.4496   11.5829   -7.2293 C   0  0  0  0  0  0  0  0  0  0  0  0
   -3.5554   10.3089   -7.8035 C   0  0  0  0  0  0  0  0  0  0  0  0
   -4.8209    9.7667   -8.0554 C   0  0  0  0  0  0  0  0  0  0  0  0
   -2.0956   12.1660   -6.9654 C   0  0  0  0  0  0  0  0  0  0  0  0
   -1.7384   13.4130   -6.4683 C   0  0  0  0  0  0  0  0  0  0  0  0
   -0.4069   13.4502   -6.4129 N   0  0  0  0  0  0  0  0  0  0  0  0
    0.1813   12.3566   -6.8171 N   0  0  0  0  0  0  0  0  0  0  0  0
   -0.7988   11.5478   -7.1867 C   0  0  0  0  0  0  0  0  0  0  0  0
    0.4282   14.5550   -5.9664 C   0  0  0  0  0  0  0  0  0  0  0  0
   -4.7714   14.2106  -11.2027 N   0  0  0  0  0  0  0  0  0  0  0  0
   -4.2061   15.2849  -11.7862 C   0  0  0  0  0  0  0  0  0  0  0  0
   -4.6883   15.3268  -13.0997 C   0  0  0  0  0  0  0  0  0  0  0  0
   -5.5027   14.2765  -13.3098 N   0  0  0  0  0  0  0  0  0  0  0  0
   -4.5364   13.8232   -9.7989 C   0  0  0  0  0  0  0  0  0  0  0  0
   -5.5359   11.5629  -10.3324 H   0  0  0  0  0  0  0  0  0  0  0  0
   -7.0429   12.5089  -10.0862 H   0  0  0  0  0  0  0  0  0  0  0  0
   -8.1928   10.0800  -13.9189 H   0  0  0  0  0  0  0  0  0  0  0  0
   -6.8717   12.2251  -14.0803 H   0  0  0  0  0  0  0  0  0  0  0  0
   -8.0435    9.5766   -7.2721 H   0  0  0  0  0  0  0  0  0  0  0  0
   -6.7536   12.3051   -6.9109 H   0  0  0  0  0  0  0  0  0  0  0  0
   -4.5183   13.2784   -6.4597 H   0  0  0  0  0  0  0  0  0  0  0  0
   -2.6656    9.7487   -8.0502 H   0  0  0  0  0  0  0  0  0  0  0  0
   -4.8756    8.8218   -7.4949 H   0  0  0  0  0  0  0  0  0  0  0  0
   -4.8639    9.5561   -9.1342 H   0  0  0  0  0  0  0  0  0  0  0  0
   -2.4137   14.2051   -6.1803 H   0  0  0  0  0  0  0  0  0  0  0  0
   -0.6543   10.5597   -7.5981 H   0  0  0  0  0  0  0  0  0  0  0  0
    1.4877   14.2705   -6.0474 H   0  0  0  0  0  0  0  0  0  0  0  0
    0.2364   15.4369   -6.5953 H   0  0  0  0  0  0  0  0  0  0  0  0
    0.1917   14.7932   -4.9189 H   0  0  0  0  0  0  0  0  0  0  0  0
   -3.5156   15.9786  -11.3298 H   0  0  0  0  0  0  0  0  0  0  0  0
   -4.4447   16.0839  -13.8303 H   0  0  0  0  0  0  0  0  0  0  0  0
   -3.8494   14.5427   -9.3295 H   0  0  0  0  0  0  0  0  0  0  0  0
   -5.4922   13.8204   -9.2545 H   0  0  0  0  0  0  0  0  0  0  0  0
   -4.0925   12.8173   -9.7656 H   0  0  0  0  0  0  0  0  0  0  0  0
  1  2  1  0  0  0  0
  1  4  2  0  0  0  0
  1 11  1  0  0  0  0
  2  6  1  0  0  0  0
  3  4  1  0  0  0  0
  3  5  2  0  0  0  0
  5  6  1  0  0  0  0
  5  9  1  0  0  0  0
  6  7  2  0  0  0  0
  7  8  1  0  0  0  0
  7 10  1  0  0  0  0
  8  9  2  0  0  0  0
 10 12  2  3  0  0  0
 11 24  1  0  0  0  0
 11 27  2  0  0  0  0
 12 13  1  0  0  0  0
 12 17  1  0  0  0  0
 13 14  2  0  0  0  0
 14 15  1  0  0  0  0
 15 16  2  0  0  0  0
 15 18  1  0  0  0  0
 16 17  1  0  0  0  0
 18 19  2  0  0  0  0
 18 22  1  0  0  0  0
 19 20  1  0  0  0  0
 20 21  1  0  0  0  0
 20 23  1  0  0  0  0
 21 22  2  0  0  0  0
 24 25  1  0  0  0  0
 24 28  1  0  0  0  0
 25 26  2  0  0  0  0
 26 27  1  0  0  0  0
  2 29  1  0  0  0  0
  2 30  1  0  0  0  0
  3 31  1  0  0  0  0
  4 32  1  0  0  0  0
 10 33  1  0  0  0  0
 13 34  1  0  0  0  0
 14 35  1  0  0  0  0
 16 36  1  0  0  0  0
 17 37  1  0  0  0  0
 17 38  1  0  0  0  0
 19 39  1  0  0  0  0
 22 40  1  0  0  0  0
 23 41  1  0  0  0  0
 23 42  1  0  0  0  0
 23 43  1  0  0  0  0
 25 44  1  0  0  0  0
 26 45  1  0  0  0  0
 28 46  1  0  0  0  0
 28 47  1  0  0  0  0
 28 48  1  0  0  0  0
M  END
> <Name>
22

> <IC50[uM]>
0.032

$$$$
