40
  -OEChem-05192314333D
 Structure written by MMmdl.
 54 58  0     0  0  0  0  0  0999 V2000
   -6.3583   12.3628  -12.0152 C   0  0  0  0  0  0  0  0  0  0  0  0
   -6.5007   11.8020  -10.7383 C   0  0  0  0  0  0  0  0  0  0  0  0
   -7.7096   10.5772  -13.0382 C   0  0  0  0  0  0  0  0  0  0  0  0
   -6.9777   11.7759  -13.1307 C   0  0  0  0  0  0  0  0  0  0  0  0
   -7.8132   10.0130  -11.7619 C   0  0  0  0  0  0  0  0  0  0  0  0
   -7.2338   10.6200  -10.6051 C   0  0  0  0  0  0  0  0  0  0  0  0
   -7.6121    9.7513   -9.5135 C   0  0  0  0  0  0  0  0  0  0  0  0
   -8.2831    8.7414   -9.9888 N   0  0  0  0  0  0  0  0  0  0  0  0
   -8.4159    8.8683  -11.3018 N   0  0  0  0  0  0  0  0  0  0  0  0
   -7.3364    9.8882   -8.0249 C   0  0  0  0  0  0  0  0  0  0  0  0
   -4.3745   13.7307  -11.4480 N   0  0  0  0  0  0  0  0  0  0  0  0
   -5.5401   13.6479  -12.1823 C   0  0  0  0  0  0  0  0  0  0  0  0
   -5.9305   14.5456  -12.9289 O   0  0  0  0  0  0  0  0  0  0  0  0
   -5.9622   10.4857   -7.7364 C   0  0  0  0  0  0  0  0  0  0  0  0
   -4.8106    9.7658   -8.0516 C   0  0  0  0  0  0  0  0  0  0  0  0
   -3.5548   10.3163   -7.8015 C   0  0  0  0  0  0  0  0  0  0  0  0
   -3.4456   11.5910   -7.2371 C   0  0  0  0  0  0  0  0  0  0  0  0
   -4.5995   12.3069   -6.9174 C   0  0  0  0  0  0  0  0  0  0  0  0
   -5.8550   11.7570   -7.1647 C   0  0  0  0  0  0  0  0  0  0  0  0
   -2.1008   12.1810   -6.9758 C   0  0  0  0  0  0  0  0  0  0  0  0
   -1.7660   13.4388   -6.4773 C   0  0  0  0  0  0  0  0  0  0  0  0
   -0.4314   13.4905   -6.4174 N   0  0  0  0  0  0  0  0  0  0  0  0
    0.1713   12.4042   -6.8124 N   0  0  0  0  0  0  0  0  0  0  0  0
   -0.8030   11.5879   -7.1791 C   0  0  0  0  0  0  0  0  0  0  0  0
    0.3850   14.6084   -5.9658 C   0  0  0  0  0  0  0  0  0  0  0  0
   -3.6973   12.5089  -10.9175 C   0  0  0  0  0  0  0  0  0  0  0  0
   -2.2248   12.4637  -11.4426 C   0  0  0  0  0  0  0  0  0  0  0  0
   -1.4987   13.7622  -11.0653 N   0  0  0  0  0  0  0  0  0  0  0  0
   -2.2038   14.9363  -11.7527 C   0  0  0  0  0  0  0  0  0  0  0  0
   -3.6757   15.0331  -11.3164 C   0  0  0  0  0  0  0  0  0  0  0  0
   -6.0533   12.2736   -9.8759 H   0  0  0  0  0  0  0  0  0  0  0  0
   -8.1654   10.1188  -13.9034 H   0  0  0  0  0  0  0  0  0  0  0  0
   -6.8895   12.2606  -14.0918 H   0  0  0  0  0  0  0  0  0  0  0  0
   -8.6440    7.9838   -9.4449 H   0  0  0  0  0  0  0  0  0  0  0  0
   -8.1042   10.5401   -7.5827 H   0  0  0  0  0  0  0  0  0  0  0  0
   -7.3914    8.8914   -7.5630 H   0  0  0  0  0  0  0  0  0  0  0  0
   -4.8916    8.7819   -8.4894 H   0  0  0  0  0  0  0  0  0  0  0  0
   -2.6635    9.7568   -8.0443 H   0  0  0  0  0  0  0  0  0  0  0  0
   -4.5191   13.2898   -6.4771 H   0  0  0  0  0  0  0  0  0  0  0  0
   -6.7464   12.3131   -6.9146 H   0  0  0  0  0  0  0  0  0  0  0  0
   -2.4534   14.2220   -6.1936 H   0  0  0  0  0  0  0  0  0  0  0  0
   -0.6452   10.5982   -7.5816 H   0  0  0  0  0  0  0  0  0  0  0  0
    1.4489   14.3378   -6.0355 H   0  0  0  0  0  0  0  0  0  0  0  0
    0.1877   15.4858   -6.5992 H   0  0  0  0  0  0  0  0  0  0  0  0
    0.1350   14.8465   -4.9214 H   0  0  0  0  0  0  0  0  0  0  0  0
   -3.6944   12.5388   -9.8179 H   0  0  0  0  0  0  0  0  0  0  0  0
   -4.2365   11.6128  -11.2585 H   0  0  0  0  0  0  0  0  0  0  0  0
   -1.7018   11.6081  -10.9904 H   0  0  0  0  0  0  0  0  0  0  0  0
   -2.2305   12.3532  -12.5370 H   0  0  0  0  0  0  0  0  0  0  0  0
   -1.5260   13.8871  -10.0735 H   0  0  0  0  0  0  0  0  0  0  0  0
   -1.6882   15.8706  -11.4859 H   0  0  0  0  0  0  0  0  0  0  0  0
   -2.1612   14.7923  -12.8424 H   0  0  0  0  0  0  0  0  0  0  0  0
   -4.1860   15.7766  -11.9464 H   0  0  0  0  0  0  0  0  0  0  0  0
   -3.7154   15.3542  -10.2651 H   0  0  0  0  0  0  0  0  0  0  0  0
  1  2  2  0  0  0  0
  1  4  1  0  0  0  0
  1 12  1  0  0  0  0
  2  6  1  0  0  0  0
  3  4  2  0  0  0  0
  3  5  1  0  0  0  0
  5  6  1  0  0  0  0
  5  9  2  0  0  0  0
  6  7  2  0  0  0  0
  7  8  1  0  0  0  0
  7 10  1  0  0  0  0
  8  9  1  0  0  0  0
 10 14  1  0  0  0  0
 11 12  1  0  0  0  0
 11 26  1  0  0  0  0
 11 30  1  0  0  0  0
 12 13  2  0  0  0  0
 14 15  2  0  0  0  0
 14 19  1  0  0  0  0
 15 16  1  0  0  0  0
 16 17  2  0  0  0  0
 17 18  1  0  0  0  0
 17 20  1  0  0  0  0
 18 19  2  0  0  0  0
 20 21  2  0  0  0  0
 20 24  1  0  0  0  0
 21 22  1  0  0  0  0
 22 23  1  0  0  0  0
 22 25  1  0  0  0  0
 23 24  2  0  0  0  0
 26 27  1  0  0  0  0
 27 28  1  0  0  0  0
 28 29  1  0  0  0  0
 29 30  1  0  0  0  0
  2 31  1  0  0  0  0
  3 32  1  0  0  0  0
  4 33  1  0  0  0  0
  8 34  1  0  0  0  0
 10 35  1  0  0  0  0
 10 36  1  0  0  0  0
 15 37  1  0  0  0  0
 16 38  1  0  0  0  0
 18 39  1  0  0  0  0
 19 40  1  0  0  0  0
 21 41  1  0  0  0  0
 24 42  1  0  0  0  0
 25 43  1  0  0  0  0
 25 44  1  0  0  0  0
 25 45  1  0  0  0  0
 26 46  1  0  0  0  0
 26 47  1  0  0  0  0
 27 48  1  0  0  0  0
 27 49  1  0  0  0  0
 28 50  1  0  0  0  0
 29 51  1  0  0  0  0
 29 52  1  0  0  0  0
 30 53  1  0  0  0  0
 30 54  1  0  0  0  0
M  END
> <Name>
40

> <IC50[uM]>
0.007

$$$$
40
  -OEChem-05192314333D
 Structure written by MMmdl.
 54 58  0     0  0  0  0  0  0999 V2000
   -6.3583   12.3628  -12.0152 C   0  0  0  0  0  0  0  0  0  0  0  0
   -6.5007   11.8020  -10.7383 C   0  0  0  0  0  0  0  0  0  0  0  0
   -7.7096   10.5772  -13.0382 C   0  0  0  0  0  0  0  0  0  0  0  0
   -6.9777   11.7759  -13.1307 C   0  0  0  0  0  0  0  0  0  0  0  0
   -7.8132   10.0130  -11.7619 C   0  0  0  0  0  0  0  0  0  0  0  0
   -7.2338   10.6200  -10.6051 C   0  0  0  0  0  0  0  0  0  0  0  0
   -7.6121    9.7513   -9.5135 C   0  0  0  0  0  0  0  0  0  0  0  0
   -8.2831    8.7414   -9.9888 N   0  0  0  0  0  0  0  0  0  0  0  0
   -8.4159    8.8683  -11.3018 N   0  0  0  0  0  0  0  0  0  0  0  0
   -7.3364    9.8882   -8.0249 C   0  0  0  0  0  0  0  0  0  0  0  0
   -4.3745   13.7307  -11.4480 N   0  0  0  0  0  0  0  0  0  0  0  0
   -5.5401   13.6479  -12.1823 C   0  0  0  0  0  0  0  0  0  0  0  0
   -5.9305   14.5456  -12.9289 O   0  0  0  0  0  0  0  0  0  0  0  0
   -5.9622   10.4857   -7.7364 C   0  0  0  0  0  0  0  0  0  0  0  0
   -4.8106    9.7658   -8.0516 C   0  0  0  0  0  0  0  0  0  0  0  0
   -3.5548   10.3163   -7.8015 C   0  0  0  0  0  0  0  0  0  0  0  0
   -3.4456   11.5910   -7.2371 C   0  0  0  0  0  0  0  0  0  0  0  0
   -4.5995   12.3069   -6.9174 C   0  0  0  0  0  0  0  0  0  0  0  0
   -5.8550   11.7570   -7.1647 C   0  0  0  0  0  0  0  0  0  0  0  0
   -2.1008   12.1810   -6.9758 C   0  0  0  0  0  0  0  0  0  0  0  0
   -1.7660   13.4388   -6.4773 C   0  0  0  0  0  0  0  0  0  0  0  0
   -0.4314   13.4905   -6.4174 N   0  0  0  0  0  0  0  0  0  0  0  0
    0.1713   12.4042   -6.8124 N   0  0  0  0  0  0  0  0  0  0  0  0
   -0.8030   11.5879   -7.1791 C   0  0  0  0  0  0  0  0  0  0  0  0
    0.3850   14.6084   -5.9658 C   0  0  0  0  0  0  0  0  0  0  0  0
   -3.6973   12.5089  -10.9175 C   0  0  0  0  0  0  0  0  0  0  0  0
   -2.2248   12.4637  -11.4426 C   0  0  0  0  0  0  0  0  0  0  0  0
   -1.4987   13.7622  -11.0653 N   0  0  0  0  0  0  0  0  0  0  0  0
   -2.2038   14.9363  -11.7527 C   0  0  0  0  0  0  0  0  0  0  0  0
   -3.6757   15.0331  -11.3164 C   0  0  0  0  0  0  0  0  0  0  0  0
   -6.0533   12.2736   -9.8759 H   0  0  0  0  0  0  0  0  0  0  0  0
   -8.1654   10.1188  -13.9034 H   0  0  0  0  0  0  0  0  0  0  0  0
   -6.8895   12.2606  -14.0918 H   0  0  0  0  0  0  0  0  0  0  0  0
   -8.8953    8.2121  -11.8845 H   0  0  0  0  0  0  0  0  0  0  0  0
   -8.1042   10.5401   -7.5827 H   0  0  0  0  0  0  0  0  0  0  0  0
   -7.3914    8.8914   -7.5630 H   0  0  0  0  0  0  0  0  0  0  0  0
   -4.8916    8.7819   -8.4894 H   0  0  0  0  0  0  0  0  0  0  0  0
   -2.6635    9.7568   -8.0443 H   0  0  0  0  0  0  0  0  0  0  0  0
   -4.5191   13.2898   -6.4771 H   0  0  0  0  0  0  0  0  0  0  0  0
   -6.7464   12.3131   -6.9146 H   0  0  0  0  0  0  0  0  0  0  0  0
   -2.4534   14.2220   -6.1936 H   0  0  0  0  0  0  0  0  0  0  0  0
   -0.6452   10.5982   -7.5816 H   0  0  0  0  0  0  0  0  0  0  0  0
    1.4489   14.3378   -6.0355 H   0  0  0  0  0  0  0  0  0  0  0  0
    0.1877   15.4858   -6.5992 H   0  0  0  0  0  0  0  0  0  0  0  0
    0.1350   14.8465   -4.9214 H   0  0  0  0  0  0  0  0  0  0  0  0
   -3.6944   12.5388   -9.8179 H   0  0  0  0  0  0  0  0  0  0  0  0
   -4.2365   11.6128  -11.2585 H   0  0  0  0  0  0  0  0  0  0  0  0
   -1.7018   11.6081  -10.9904 H   0  0  0  0  0  0  0  0  0  0  0  0
   -2.2305   12.3532  -12.5370 H   0  0  0  0  0  0  0  0  0  0  0  0
   -1.5260   13.8871  -10.0735 H   0  0  0  0  0  0  0  0  0  0  0  0
   -1.6882   15.8706  -11.4859 H   0  0  0  0  0  0  0  0  0  0  0  0
   -2.1612   14.7923  -12.8424 H   0  0  0  0  0  0  0  0  0  0  0  0
   -4.1860   15.7766  -11.9464 H   0  0  0  0  0  0  0  0  0  0  0  0
   -3.7154   15.3542  -10.2651 H   0  0  0  0  0  0  0  0  0  0  0  0
  1  2  2  0  0  0  0
  1  4  1  0  0  0  0
  1 12  1  0  0  0  0
  2  6  1  0  0  0  0
  3  4  2  0  0  0  0
  3  5  1  0  0  0  0
  5  6  2  0  0  0  0
  5  9  1  0  0  0  0
  6  7  1  0  0  0  0
  7  8  2  0  0  0  0
  7 10  1  0  0  0  0
  8  9  1  0  0  0  0
 10 14  1  0  0  0  0
 11 12  1  0  0  0  0
 11 26  1  0  0  0  0
 11 30  1  0  0  0  0
 12 13  2  0  0  0  0
 14 15  2  0  0  0  0
 14 19  1  0  0  0  0
 15 16  1  0  0  0  0
 16 17  2  0  0  0  0
 17 18  1  0  0  0  0
 17 20  1  0  0  0  0
 18 19  2  0  0  0  0
 20 21  2  0  0  0  0
 20 24  1  0  0  0  0
 21 22  1  0  0  0  0
 22 23  1  0  0  0  0
 22 25  1  0  0  0  0
 23 24  2  0  0  0  0
 26 27  1  0  0  0  0
 27 28  1  0  0  0  0
 28 29  1  0  0  0  0
 29 30  1  0  0  0  0
  2 31  1  0  0  0  0
  3 32  1  0  0  0  0
  4 33  1  0  0  0  0
  9 34  1  0  0  0  0
 10 35  1  0  0  0  0
 10 36  1  0  0  0  0
 15 37  1  0  0  0  0
 16 38  1  0  0  0  0
 18 39  1  0  0  0  0
 19 40  1  0  0  0  0
 21 41  1  0  0  0  0
 24 42  1  0  0  0  0
 25 43  1  0  0  0  0
 25 44  1  0  0  0  0
 25 45  1  0  0  0  0
 26 46  1  0  0  0  0
 26 47  1  0  0  0  0
 27 48  1  0  0  0  0
 27 49  1  0  0  0  0
 28 50  1  0  0  0  0
 29 51  1  0  0  0  0
 29 52  1  0  0  0  0
 30 53  1  0  0  0  0
 30 54  1  0  0  0  0
M  END
> <Name>
40

> <IC50[uM]>
0.007

$$$$
40
  -OEChem-05192314333D
 Structure written by MMmdl.
 54 58  0     1  0  0  0  0  0999 V2000
   -6.3583   12.3628  -12.0152 C   0  0  0  0  0  0  0  0  0  0  0  0
   -6.5007   11.8020  -10.7383 C   0  0  0  0  0  0  0  0  0  0  0  0
   -7.7096   10.5772  -13.0382 C   0  0  0  0  0  0  0  0  0  0  0  0
   -6.9777   11.7759  -13.1307 C   0  0  0  0  0  0  0  0  0  0  0  0
   -7.8132   10.0130  -11.7619 C   0  0  0  0  0  0  0  0  0  0  0  0
   -7.2338   10.6200  -10.6051 C   0  0  0  0  0  0  0  0  0  0  0  0
   -7.6121    9.7513   -9.5135 C   0  0  3  0  0  0  0  0  0  0  0  0
   -8.2831    8.7414   -9.9888 N   0  0  0  0  0  0  0  0  0  0  0  0
   -8.4159    8.8683  -11.3018 N   0  0  0  0  0  0  0  0  0  0  0  0
   -7.3364    9.8882   -8.0249 C   0  0  0  0  0  0  0  0  0  0  0  0
   -4.3745   13.7307  -11.4480 N   0  0  0  0  0  0  0  0  0  0  0  0
   -5.5401   13.6479  -12.1823 C   0  0  0  0  0  0  0  0  0  0  0  0
   -5.9305   14.5456  -12.9289 O   0  0  0  0  0  0  0  0  0  0  0  0
   -5.9622   10.4857   -7.7364 C   0  0  0  0  0  0  0  0  0  0  0  0
   -4.8106    9.7658   -8.0516 C   0  0  0  0  0  0  0  0  0  0  0  0
   -3.5548   10.3163   -7.8015 C   0  0  0  0  0  0  0  0  0  0  0  0
   -3.4456   11.5910   -7.2371 C   0  0  0  0  0  0  0  0  0  0  0  0
   -4.5995   12.3069   -6.9174 C   0  0  0  0  0  0  0  0  0  0  0  0
   -5.8550   11.7570   -7.1647 C   0  0  0  0  0  0  0  0  0  0  0  0
   -2.1008   12.1810   -6.9758 C   0  0  0  0  0  0  0  0  0  0  0  0
   -1.7660   13.4388   -6.4773 C   0  0  0  0  0  0  0  0  0  0  0  0
   -0.4314   13.4905   -6.4174 N   0  0  0  0  0  0  0  0  0  0  0  0
    0.1713   12.4042   -6.8124 N   0  0  0  0  0  0  0  0  0  0  0  0
   -0.8030   11.5879   -7.1791 C   0  0  0  0  0  0  0  0  0  0  0  0
    0.3850   14.6084   -5.9658 C   0  0  0  0  0  0  0  0  0  0  0  0
   -3.6973   12.5089  -10.9175 C   0  0  0  0  0  0  0  0  0  0  0  0
   -2.2248   12.4637  -11.4426 C   0  0  0  0  0  0  0  0  0  0  0  0
   -1.4987   13.7622  -11.0653 N   0  0  0  0  0  0  0  0  0  0  0  0
   -2.2038   14.9363  -11.7527 C   0  0  0  0  0  0  0  0  0  0  0  0
   -3.6757   15.0331  -11.3164 C   0  0  0  0  0  0  0  0  0  0  0  0
   -6.0533   12.2736   -9.8759 H   0  0  0  0  0  0  0  0  0  0  0  0
   -8.1654   10.1188  -13.9034 H   0  0  0  0  0  0  0  0  0  0  0  0
   -6.8895   12.2606  -14.0918 H   0  0  0  0  0  0  0  0  0  0  0  0
   -6.6753    9.1879   -9.6361 H   0  0  0  0  0  0  0  0  0  0  0  0
   -8.1042   10.5401   -7.5827 H   0  0  0  0  0  0  0  0  0  0  0  0
   -7.3914    8.8914   -7.5630 H   0  0  0  0  0  0  0  0  0  0  0  0
   -4.8916    8.7819   -8.4894 H   0  0  0  0  0  0  0  0  0  0  0  0
   -2.6635    9.7568   -8.0443 H   0  0  0  0  0  0  0  0  0  0  0  0
   -4.5191   13.2898   -6.4771 H   0  0  0  0  0  0  0  0  0  0  0  0
   -6.7464   12.3131   -6.9146 H   0  0  0  0  0  0  0  0  0  0  0  0
   -2.4534   14.2220   -6.1936 H   0  0  0  0  0  0  0  0  0  0  0  0
   -0.6452   10.5982   -7.5816 H   0  0  0  0  0  0  0  0  0  0  0  0
    1.4489   14.3378   -6.0355 H   0  0  0  0  0  0  0  0  0  0  0  0
    0.1877   15.4858   -6.5992 H   0  0  0  0  0  0  0  0  0  0  0  0
    0.1350   14.8465   -4.9214 H   0  0  0  0  0  0  0  0  0  0  0  0
   -3.6944   12.5388   -9.8179 H   0  0  0  0  0  0  0  0  0  0  0  0
   -4.2365   11.6128  -11.2585 H   0  0  0  0  0  0  0  0  0  0  0  0
   -1.7018   11.6081  -10.9904 H   0  0  0  0  0  0  0  0  0  0  0  0
   -2.2305   12.3532  -12.5370 H   0  0  0  0  0  0  0  0  0  0  0  0
   -1.5260   13.8871  -10.0735 H   0  0  0  0  0  0  0  0  0  0  0  0
   -1.6882   15.8706  -11.4859 H   0  0  0  0  0  0  0  0  0  0  0  0
   -2.1612   14.7923  -12.8424 H   0  0  0  0  0  0  0  0  0  0  0  0
   -4.1860   15.7766  -11.9464 H   0  0  0  0  0  0  0  0  0  0  0  0
   -3.7154   15.3542  -10.2651 H   0  0  0  0  0  0  0  0  0  0  0  0
  1  2  2  0  0  0  0
  1  4  1  0  0  0  0
  1 12  1  0  0  0  0
  2  6  1  0  0  0  0
  3  4  2  0  0  0  0
  3  5  1  0  0  0  0
  5  6  2  0  0  0  0
  5  9  1  0  0  0  0
  6  7  1  0  0  0  0
  7  8  1  0  0  0  0
  7 10  1  0  0  0  0
  8  9  2  0  0  0  0
 10 14  1  0  0  0  0
 11 12  1  0  0  0  0
 11 26  1  0  0  0  0
 11 30  1  0  0  0  0
 12 13  2  0  0  0  0
 14 15  2  0  0  0  0
 14 19  1  0  0  0  0
 15 16  1  0  0  0  0
 16 17  2  0  0  0  0
 17 18  1  0  0  0  0
 17 20  1  0  0  0  0
 18 19  2  0  0  0  0
 20 21  2  0  0  0  0
 20 24  1  0  0  0  0
 21 22  1  0  0  0  0
 22 23  1  0  0  0  0
 22 25  1  0  0  0  0
 23 24  2  0  0  0  0
 26 27  1  0  0  0  0
 27 28  1  0  0  0  0
 28 29  1  0  0  0  0
 29 30  1  0  0  0  0
  2 31  1  0  0  0  0
  3 32  1  0  0  0  0
  4 33  1  0  0  0  0
  7 34  1  0  0  0  0
 10 35  1  0  0  0  0
 10 36  1  0  0  0  0
 15 37  1  0  0  0  0
 16 38  1  0  0  0  0
 18 39  1  0  0  0  0
 19 40  1  0  0  0  0
 21 41  1  0  0  0  0
 24 42  1  0  0  0  0
 25 43  1  0  0  0  0
 25 44  1  0  0  0  0
 25 45  1  0  0  0  0
 26 46  1  0  0  0  0
 26 47  1  0  0  0  0
 27 48  1  0  0  0  0
 27 49  1  0  0  0  0
 28 50  1  0  0  0  0
 29 51  1  0  0  0  0
 29 52  1  0  0  0  0
 30 53  1  0  0  0  0
 30 54  1  0  0  0  0
M  END
> <Name>
40

> <IC50[uM]>
0.007

$$$$
40
  -OEChem-05192314333D
 Structure written by MMmdl.
 54 58  0     0  0  0  0  0  0999 V2000
   -6.3583   12.3628  -12.0152 C   0  0  0  0  0  0  0  0  0  0  0  0
   -6.5007   11.8020  -10.7383 C   0  0  0  0  0  0  0  0  0  0  0  0
   -7.7096   10.5772  -13.0382 C   0  0  0  0  0  0  0  0  0  0  0  0
   -6.9777   11.7759  -13.1307 C   0  0  0  0  0  0  0  0  0  0  0  0
   -7.8132   10.0130  -11.7619 C   0  0  0  0  0  0  0  0  0  0  0  0
   -7.2338   10.6200  -10.6051 C   0  0  0  0  0  0  0  0  0  0  0  0
   -7.6121    9.7513   -9.5135 C   0  0  0  0  0  0  0  0  0  0  0  0
   -8.2831    8.7414   -9.9888 N   0  0  0  0  0  0  0  0  0  0  0  0
   -8.4159    8.8683  -11.3018 N   0  0  0  0  0  0  0  0  0  0  0  0
   -7.3364    9.8882   -8.0249 C   0  0  0  0  0  0  0  0  0  0  0  0
   -4.3745   13.7307  -11.4480 N   0  0  0  0  0  0  0  0  0  0  0  0
   -5.5401   13.6479  -12.1823 C   0  0  0  0  0  0  0  0  0  0  0  0
   -5.9305   14.5456  -12.9289 O   0  0  0  0  0  0  0  0  0  0  0  0
   -5.9622   10.4857   -7.7364 C   0  0  0  0  0  0  0  0  0  0  0  0
   -4.8106    9.7658   -8.0516 C   0  0  0  0  0  0  0  0  0  0  0  0
   -3.5548   10.3163   -7.8015 C   0  0  0  0  0  0  0  0  0  0  0  0
   -3.4456   11.5910   -7.2371 C   0  0  0  0  0  0  0  0  0  0  0  0
   -4.5995   12.3069   -6.9174 C   0  0  0  0  0  0  0  0  0  0  0  0
   -5.8550   11.7570   -7.1647 C   0  0  0  0  0  0  0  0  0  0  0  0
   -2.1008   12.1810   -6.9758 C   0  0  0  0  0  0  0  0  0  0  0  0
   -1.7660   13.4388   -6.4773 C   0  0  0  0  0  0  0  0  0  0  0  0
   -0.4314   13.4905   -6.4174 N   0  0  0  0  0  0  0  0  0  0  0  0
    0.1713   12.4042   -6.8124 N   0  0  0  0  0  0  0  0  0  0  0  0
   -0.8030   11.5879   -7.1791 C   0  0  0  0  0  0  0  0  0  0  0  0
    0.3850   14.6084   -5.9658 C   0  0  0  0  0  0  0  0  0  0  0  0
   -3.6973   12.5089  -10.9175 C   0  0  0  0  0  0  0  0  0  0  0  0
   -2.2248   12.4637  -11.4426 C   0  0  0  0  0  0  0  0  0  0  0  0
   -1.4987   13.7622  -11.0653 N   0  0  0  0  0  0  0  0  0  0  0  0
   -2.2038   14.9363  -11.7527 C   0  0  0  0  0  0  0  0  0  0  0  0
   -3.6757   15.0331  -11.3164 C   0  0  0  0  0  0  0  0  0  0  0  0
   -6.0533   12.2736   -9.8759 H   0  0  0  0  0  0  0  0  0  0  0  0
   -8.1654   10.1188  -13.9034 H   0  0  0  0  0  0  0  0  0  0  0  0
   -6.8895   12.2606  -14.0918 H   0  0  0  0  0  0  0  0  0  0  0  0
   -7.7947    7.8929   -9.7850 H   0  0  0  0  0  0  0  0  0  0  0  0
   -9.3894    8.9006  -11.5280 H   0  0  0  0  0  0  0  0  0  0  0  0
   -8.0360    9.5949   -7.2562 H   0  0  0  0  0  0  0  0  0  0  0  0
   -4.8916    8.7819   -8.4894 H   0  0  0  0  0  0  0  0  0  0  0  0
   -2.6635    9.7568   -8.0443 H   0  0  0  0  0  0  0  0  0  0  0  0
   -4.5191   13.2898   -6.4771 H   0  0  0  0  0  0  0  0  0  0  0  0
   -6.7464   12.3131   -6.9146 H   0  0  0  0  0  0  0  0  0  0  0  0
   -2.4534   14.2220   -6.1936 H   0  0  0  0  0  0  0  0  0  0  0  0
   -0.6452   10.5982   -7.5816 H   0  0  0  0  0  0  0  0  0  0  0  0
    1.4489   14.3378   -6.0355 H   0  0  0  0  0  0  0  0  0  0  0  0
    0.1877   15.4858   -6.5992 H   0  0  0  0  0  0  0  0  0  0  0  0
    0.1350   14.8465   -4.9214 H   0  0  0  0  0  0  0  0  0  0  0  0
   -3.6944   12.5388   -9.8179 H   0  0  0  0  0  0  0  0  0  0  0  0
   -4.2365   11.6128  -11.2585 H   0  0  0  0  0  0  0  0  0  0  0  0
   -1.7018   11.6081  -10.9904 H   0  0  0  0  0  0  0  0  0  0  0  0
   -2.2305   12.3532  -12.5370 H   0  0  0  0  0  0  0  0  0  0  0  0
   -1.5260   13.8871  -10.0735 H   0  0  0  0  0  0  0  0  0  0  0  0
   -1.6882   15.8706  -11.4859 H   0  0  0  0  0  0  0  0  0  0  0  0
   -2.1612   14.7923  -12.8424 H   0  0  0  0  0  0  0  0  0  0  0  0
   -4.1860   15.7766  -11.9464 H   0  0  0  0  0  0  0  0  0  0  0  0
   -3.7154   15.3542  -10.2651 H   0  0  0  0  0  0  0  0  0  0  0  0
  1  2  2  0  0  0  0
  1  4  1  0  0  0  0
  1 12  1  0  0  0  0
  2  6  1  0  0  0  0
  3  4  2  0  0  0  0
  3  5  1  0  0  0  0
  5  6  2  0  0  0  0
  5  9  1  0  0  0  0
  6  7  1  0  0  0  0
  7  8  1  0  0  0  0
  7 10  2  3  0  0  0
  8  9  1  0  0  0  0
 10 14  1  0  0  0  0
 11 12  1  0  0  0  0
 11 26  1  0  0  0  0
 11 30  1  0  0  0  0
 12 13  2  0  0  0  0
 14 15  2  0  0  0  0
 14 19  1  0  0  0  0
 15 16  1  0  0  0  0
 16 17  2  0  0  0  0
 17 18  1  0  0  0  0
 17 20  1  0  0  0  0
 18 19  2  0  0  0  0
 20 21  2  0  0  0  0
 20 24  1  0  0  0  0
 21 22  1  0  0  0  0
 22 23  1  0  0  0  0
 22 25  1  0  0  0  0
 23 24  2  0  0  0  0
 26 27  1  0  0  0  0
 27 28  1  0  0  0  0
 28 29  1  0  0  0  0
 29 30  1  0  0  0  0
  2 31  1  0  0  0  0
  3 32  1  0  0  0  0
  4 33  1  0  0  0  0
  8 34  1  0  0  0  0
  9 35  1  0  0  0  0
 10 36  1  0  0  0  0
 15 37  1  0  0  0  0
 16 38  1  0  0  0  0
 18 39  1  0  0  0  0
 19 40  1  0  0  0  0
 21 41  1  0  0  0  0
 24 42  1  0  0  0  0
 25 43  1  0  0  0  0
 25 44  1  0  0  0  0
 25 45  1  0  0  0  0
 26 46  1  0  0  0  0
 26 47  1  0  0  0  0
 27 48  1  0  0  0  0
 27 49  1  0  0  0  0
 28 50  1  0  0  0  0
 29 51  1  0  0  0  0
 29 52  1  0  0  0  0
 30 53  1  0  0  0  0
 30 54  1  0  0  0  0
M  END
> <Name>
40

> <IC50[uM]>
0.007

$$$$
40
  -OEChem-05192314333D
 Structure written by MMmdl.
 54 58  0     1  0  0  0  0  0999 V2000
   -6.3583   12.3628  -12.0152 C   0  0  3  0  0  0  0  0  0  0  0  0
   -6.5007   11.8020  -10.7383 C   0  0  0  0  0  0  0  0  0  0  0  0
   -7.7096   10.5772  -13.0382 C   0  0  0  0  0  0  0  0  0  0  0  0
   -6.9777   11.7759  -13.1307 C   0  0  0  0  0  0  0  0  0  0  0  0
   -7.8132   10.0130  -11.7619 C   0  0  0  0  0  0  0  0  0  0  0  0
   -7.2338   10.6200  -10.6051 C   0  0  0  0  0  0  0  0  0  0  0  0
   -7.6121    9.7513   -9.5135 C   0  0  0  0  0  0  0  0  0  0  0  0
   -8.2831    8.7414   -9.9888 N   0  0  0  0  0  0  0  0  0  0  0  0
   -8.4159    8.8683  -11.3018 N   0  0  0  0  0  0  0  0  0  0  0  0
   -7.3364    9.8882   -8.0249 C   0  0  0  0  0  0  0  0  0  0  0  0
   -4.3745   13.7307  -11.4480 N   0  0  0  0  0  0  0  0  0  0  0  0
   -5.5401   13.6479  -12.1823 C   0  0  0  0  0  0  0  0  0  0  0  0
   -5.9305   14.5456  -12.9289 O   0  0  0  0  0  0  0  0  0  0  0  0
   -5.9622   10.4857   -7.7364 C   0  0  0  0  0  0  0  0  0  0  0  0
   -4.8106    9.7658   -8.0516 C   0  0  0  0  0  0  0  0  0  0  0  0
   -3.5548   10.3163   -7.8015 C   0  0  0  0  0  0  0  0  0  0  0  0
   -3.4456   11.5910   -7.2371 C   0  0  0  0  0  0  0  0  0  0  0  0
   -4.5995   12.3069   -6.9174 C   0  0  0  0  0  0  0  0  0  0  0  0
   -5.8550   11.7570   -7.1647 C   0  0  0  0  0  0  0  0  0  0  0  0
   -2.1008   12.1810   -6.9758 C   0  0  0  0  0  0  0  0  0  0  0  0
   -1.7660   13.4388   -6.4773 C   0  0  0  0  0  0  0  0  0  0  0  0
   -0.4314   13.4905   -6.4174 N   0  0  0  0  0  0  0  0  0  0  0  0
    0.1713   12.4042   -6.8124 N   0  0  0  0  0  0  0  0  0  0  0  0
   -0.8030   11.5879   -7.1791 C   0  0  0  0  0  0  0  0  0  0  0  0
    0.3850   14.6084   -5.9658 C   0  0  0  0  0  0  0  0  0  0  0  0
   -3.6973   12.5089  -10.9175 C   0  0  0  0  0  0  0  0  0  0  0  0
   -2.2248   12.4637  -11.4426 C   0  0  0  0  0  0  0  0  0  0  0  0
   -1.4987   13.7622  -11.0653 N   0  0  0  0  0  0  0  0  0  0  0  0
   -2.2038   14.9363  -11.7527 C   0  0  0  0  0  0  0  0  0  0  0  0
   -3.6757   15.0331  -11.3164 C   0  0  0  0  0  0  0  0  0  0  0  0
   -5.4561   11.7578  -12.1885 H   0  0  0  0  0  0  0  0  0  0  0  0
   -6.0533   12.2736   -9.8759 H   0  0  0  0  0  0  0  0  0  0  0  0
   -8.1654   10.1188  -13.9034 H   0  0  0  0  0  0  0  0  0  0  0  0
   -6.8895   12.2606  -14.0918 H   0  0  0  0  0  0  0  0  0  0  0  0
   -8.6440    7.9838   -9.4449 H   0  0  0  0  0  0  0  0  0  0  0  0
   -8.0360    9.5949   -7.2562 H   0  0  0  0  0  0  0  0  0  0  0  0
   -4.8916    8.7819   -8.4894 H   0  0  0  0  0  0  0  0  0  0  0  0
   -2.6635    9.7568   -8.0443 H   0  0  0  0  0  0  0  0  0  0  0  0
   -4.5191   13.2898   -6.4771 H   0  0  0  0  0  0  0  0  0  0  0  0
   -6.7464   12.3131   -6.9146 H   0  0  0  0  0  0  0  0  0  0  0  0
   -2.4534   14.2220   -6.1936 H   0  0  0  0  0  0  0  0  0  0  0  0
   -0.6452   10.5982   -7.5816 H   0  0  0  0  0  0  0  0  0  0  0  0
    1.4489   14.3378   -6.0355 H   0  0  0  0  0  0  0  0  0  0  0  0
    0.1877   15.4858   -6.5992 H   0  0  0  0  0  0  0  0  0  0  0  0
    0.1350   14.8465   -4.9214 H   0  0  0  0  0  0  0  0  0  0  0  0
   -3.6944   12.5388   -9.8179 H   0  0  0  0  0  0  0  0  0  0  0  0
   -4.2365   11.6128  -11.2585 H   0  0  0  0  0  0  0  0  0  0  0  0
   -1.7018   11.6081  -10.9904 H   0  0  0  0  0  0  0  0  0  0  0  0
   -2.2305   12.3532  -12.5370 H   0  0  0  0  0  0  0  0  0  0  0  0
   -1.5260   13.8871  -10.0735 H   0  0  0  0  0  0  0  0  0  0  0  0
   -1.6882   15.8706  -11.4859 H   0  0  0  0  0  0  0  0  0  0  0  0
   -2.1612   14.7923  -12.8424 H   0  0  0  0  0  0  0  0  0  0  0  0
   -4.1860   15.7766  -11.9464 H   0  0  0  0  0  0  0  0  0  0  0  0
   -3.7154   15.3542  -10.2651 H   0  0  0  0  0  0  0  0  0  0  0  0
  1  2  1  0  0  0  0
  1  4  1  0  0  0  0
  1 12  1  0  0  0  0
  2  6  2  0  0  0  0
  3  4  2  0  0  0  0
  3  5  1  0  0  0  0
  5  6  1  0  0  0  0
  5  9  2  0  0  0  0
  6  7  1  0  0  0  0
  7  8  1  0  0  0  0
  7 10  2  3  0  0  0
  8  9  1  0  0  0  0
 10 14  1  0  0  0  0
 11 12  1  0  0  0  0
 11 26  1  0  0  0  0
 11 30  1  0  0  0  0
 12 13  2  0  0  0  0
 14 15  2  0  0  0  0
 14 19  1  0  0  0  0
 15 16  1  0  0  0  0
 16 17  2  0  0  0  0
 17 18  1  0  0  0  0
 17 20  1  0  0  0  0
 18 19  2  0  0  0  0
 20 21  2  0  0  0  0
 20 24  1  0  0  0  0
 21 22  1  0  0  0  0
 22 23  1  0  0  0  0
 22 25  1  0  0  0  0
 23 24  2  0  0  0  0
 26 27  1  0  0  0  0
 27 28  1  0  0  0  0
 28 29  1  0  0  0  0
 29 30  1  0  0  0  0
  1 31  1  0  0  0  0
  2 32  1  0  0  0  0
  3 33  1  0  0  0  0
  4 34  1  0  0  0  0
  8 35  1  0  0  0  0
 10 36  1  0  0  0  0
 15 37  1  0  0  0  0
 16 38  1  0  0  0  0
 18 39  1  0  0  0  0
 19 40  1  0  0  0  0
 21 41  1  0  0  0  0
 24 42  1  0  0  0  0
 25 43  1  0  0  0  0
 25 44  1  0  0  0  0
 25 45  1  0  0  0  0
 26 46  1  0  0  0  0
 26 47  1  0  0  0  0
 27 48  1  0  0  0  0
 27 49  1  0  0  0  0
 28 50  1  0  0  0  0
 29 51  1  0  0  0  0
 29 52  1  0  0  0  0
 30 53  1  0  0  0  0
 30 54  1  0  0  0  0
M  END
> <Name>
40

> <IC50[uM]>
0.007

$$$$
40
  -OEChem-05192314333D
 Structure written by MMmdl.
 54 58  0     0  0  0  0  0  0999 V2000
   -6.3583   12.3628  -12.0152 C   0  0  0  0  0  0  0  0  0  0  0  0
   -6.5007   11.8020  -10.7383 C   0  0  0  0  0  0  0  0  0  0  0  0
   -7.7096   10.5772  -13.0382 C   0  0  0  0  0  0  0  0  0  0  0  0
   -6.9777   11.7759  -13.1307 C   0  0  0  0  0  0  0  0  0  0  0  0
   -7.8132   10.0130  -11.7619 C   0  0  0  0  0  0  0  0  0  0  0  0
   -7.2338   10.6200  -10.6051 C   0  0  0  0  0  0  0  0  0  0  0  0
   -7.6121    9.7513   -9.5135 C   0  0  0  0  0  0  0  0  0  0  0  0
   -8.2831    8.7414   -9.9888 N   0  0  0  0  0  0  0  0  0  0  0  0
   -8.4159    8.8683  -11.3018 N   0  0  0  0  0  0  0  0  0  0  0  0
   -7.3364    9.8882   -8.0249 C   0  0  0  0  0  0  0  0  0  0  0  0
   -4.3745   13.7307  -11.4480 N   0  0  0  0  0  0  0  0  0  0  0  0
   -5.5401   13.6479  -12.1823 C   0  0  0  0  0  0  0  0  0  0  0  0
   -5.9305   14.5456  -12.9289 O   0  0  0  0  0  0  0  0  0  0  0  0
   -5.9622   10.4857   -7.7364 C   0  0  0  0  0  0  0  0  0  0  0  0
   -4.8106    9.7658   -8.0516 C   0  0  0  0  0  0  0  0  0  0  0  0
   -3.5548   10.3163   -7.8015 C   0  0  0  0  0  0  0  0  0  0  0  0
   -3.4456   11.5910   -7.2371 C   0  0  0  0  0  0  0  0  0  0  0  0
   -4.5995   12.3069   -6.9174 C   0  0  0  0  0  0  0  0  0  0  0  0
   -5.8550   11.7570   -7.1647 C   0  0  0  0  0  0  0  0  0  0  0  0
   -2.1008   12.1810   -6.9758 C   0  0  0  0  0  0  0  0  0  0  0  0
   -1.7660   13.4388   -6.4773 C   0  0  0  0  0  0  0  0  0  0  0  0
   -0.4314   13.4905   -6.4174 N   0  0  0  0  0  0  0  0  0  0  0  0
    0.1713   12.4042   -6.8124 N   0  0  0  0  0  0  0  0  0  0  0  0
   -0.8030   11.5879   -7.1791 C   0  0  0  0  0  0  0  0  0  0  0  0
    0.3850   14.6084   -5.9658 C   0  0  0  0  0  0  0  0  0  0  0  0
   -3.6973   12.5089  -10.9175 C   0  0  0  0  0  0  0  0  0  0  0  0
   -2.2248   12.4637  -11.4426 C   0  0  0  0  0  0  0  0  0  0  0  0
   -1.4987   13.7622  -11.0653 N   0  0  0  0  0  0  0  0  0  0  0  0
   -2.2038   14.9363  -11.7527 C   0  0  0  0  0  0  0  0  0  0  0  0
   -3.6757   15.0331  -11.3164 C   0  0  0  0  0  0  0  0  0  0  0  0
   -6.0533   12.2736   -9.8759 H   0  0  0  0  0  0  0  0  0  0  0  0
   -8.7288   10.7776  -13.4002 H   0  0  0  0  0  0  0  0  0  0  0  0
   -7.2265    9.8377  -13.6937 H   0  0  0  0  0  0  0  0  0  0  0  0
   -6.8895   12.2606  -14.0918 H   0  0  0  0  0  0  0  0  0  0  0  0
   -8.6440    7.9838   -9.4449 H   0  0  0  0  0  0  0  0  0  0  0  0
   -8.0360    9.5949   -7.2562 H   0  0  0  0  0  0  0  0  0  0  0  0
   -4.8916    8.7819   -8.4894 H   0  0  0  0  0  0  0  0  0  0  0  0
   -2.6635    9.7568   -8.0443 H   0  0  0  0  0  0  0  0  0  0  0  0
   -4.5191   13.2898   -6.4771 H   0  0  0  0  0  0  0  0  0  0  0  0
   -6.7464   12.3131   -6.9146 H   0  0  0  0  0  0  0  0  0  0  0  0
   -2.4534   14.2220   -6.1936 H   0  0  0  0  0  0  0  0  0  0  0  0
   -0.6452   10.5982   -7.5816 H   0  0  0  0  0  0  0  0  0  0  0  0
    1.4489   14.3378   -6.0355 H   0  0  0  0  0  0  0  0  0  0  0  0
    0.1877   15.4858   -6.5992 H   0  0  0  0  0  0  0  0  0  0  0  0
    0.1350   14.8465   -4.9214 H   0  0  0  0  0  0  0  0  0  0  0  0
   -3.6944   12.5388   -9.8179 H   0  0  0  0  0  0  0  0  0  0  0  0
   -4.2365   11.6128  -11.2585 H   0  0  0  0  0  0  0  0  0  0  0  0
   -1.7018   11.6081  -10.9904 H   0  0  0  0  0  0  0  0  0  0  0  0
   -2.2305   12.3532  -12.5370 H   0  0  0  0  0  0  0  0  0  0  0  0
   -1.5260   13.8871  -10.0735 H   0  0  0  0  0  0  0  0  0  0  0  0
   -1.6882   15.8706  -11.4859 H   0  0  0  0  0  0  0  0  0  0  0  0
   -2.1612   14.7923  -12.8424 H   0  0  0  0  0  0  0  0  0  0  0  0
   -4.1860   15.7766  -11.9464 H   0  0  0  0  0  0  0  0  0  0  0  0
   -3.7154   15.3542  -10.2651 H   0  0  0  0  0  0  0  0  0  0  0  0
  1  2  1  0  0  0  0
  1  4  2  0  0  0  0
  1 12  1  0  0  0  0
  2  6  2  0  0  0  0
  3  4  1  0  0  0  0
  3  5  1  0  0  0  0
  5  6  1  0  0  0  0
  5  9  2  0  0  0  0
  6  7  1  0  0  0  0
  7  8  1  0  0  0  0
  7 10  2  3  0  0  0
  8  9  1  0  0  0  0
 10 14  1  0  0  0  0
 11 12  1  0  0  0  0
 11 26  1  0  0  0  0
 11 30  1  0  0  0  0
 12 13  2  0  0  0  0
 14 15  2  0  0  0  0
 14 19  1  0  0  0  0
 15 16  1  0  0  0  0
 16 17  2  0  0  0  0
 17 18  1  0  0  0  0
 17 20  1  0  0  0  0
 18 19  2  0  0  0  0
 20 21  2  0  0  0  0
 20 24  1  0  0  0  0
 21 22  1  0  0  0  0
 22 23  1  0  0  0  0
 22 25  1  0  0  0  0
 23 24  2  0  0  0  0
 26 27  1  0  0  0  0
 27 28  1  0  0  0  0
 28 29  1  0  0  0  0
 29 30  1  0  0  0  0
  2 31  1  0  0  0  0
  3 32  1  0  0  0  0
  3 33  1  0  0  0  0
  4 34  1  0  0  0  0
  8 35  1  0  0  0  0
 10 36  1  0  0  0  0
 15 37  1  0  0  0  0
 16 38  1  0  0  0  0
 18 39  1  0  0  0  0
 19 40  1  0  0  0  0
 21 41  1  0  0  0  0
 24 42  1  0  0  0  0
 25 43  1  0  0  0  0
 25 44  1  0  0  0  0
 25 45  1  0  0  0  0
 26 46  1  0  0  0  0
 26 47  1  0  0  0  0
 27 48  1  0  0  0  0
 27 49  1  0  0  0  0
 28 50  1  0  0  0  0
 29 51  1  0  0  0  0
 29 52  1  0  0  0  0
 30 53  1  0  0  0  0
 30 54  1  0  0  0  0
M  END
> <Name>
40

> <IC50[uM]>
0.007

$$$$
40
  -OEChem-05192314333D
 Structure written by MMmdl.
 54 58  0     1  0  0  0  0  0999 V2000
   -6.3583   12.3628  -12.0152 C   0  0  0  0  0  0  0  0  0  0  0  0
   -6.5007   11.8020  -10.7383 C   0  0  0  0  0  0  0  0  0  0  0  0
   -7.7096   10.5772  -13.0382 C   0  0  0  0  0  0  0  0  0  0  0  0
   -6.9777   11.7759  -13.1307 C   0  0  0  0  0  0  0  0  0  0  0  0
   -7.8132   10.0130  -11.7619 C   0  0  0  0  0  0  0  0  0  0  0  0
   -7.2338   10.6200  -10.6051 C   0  0  0  0  0  0  0  0  0  0  0  0
   -7.6121    9.7513   -9.5135 C   0  0  0  0  0  0  0  0  0  0  0  0
   -8.2831    8.7414   -9.9888 N   0  0  0  0  0  0  0  0  0  0  0  0
   -8.4159    8.8683  -11.3018 N   0  0  0  0  0  0  0  0  0  0  0  0
   -7.3364    9.8882   -8.0249 C   0  0  0  0  0  0  0  0  0  0  0  0
   -4.3745   13.7307  -11.4480 N   0  0  0  0  0  0  0  0  0  0  0  0
   -5.5401   13.6479  -12.1823 C   0  0  0  0  0  0  0  0  0  0  0  0
   -5.9305   14.5456  -12.9289 O   0  0  0  0  0  0  0  0  0  0  0  0
   -5.9622   10.4857   -7.7364 C   0  0  0  0  0  0  0  0  0  0  0  0
   -4.8106    9.7658   -8.0516 C   0  0  0  0  0  0  0  0  0  0  0  0
   -3.5548   10.3163   -7.8015 C   0  0  0  0  0  0  0  0  0  0  0  0
   -3.4456   11.5910   -7.2371 C   0  0  0  0  0  0  0  0  0  0  0  0
   -4.5995   12.3069   -6.9174 C   0  0  0  0  0  0  0  0  0  0  0  0
   -5.8550   11.7570   -7.1647 C   0  0  0  0  0  0  0  0  0  0  0  0
   -2.1008   12.1810   -6.9758 C   0  0  0  0  0  0  0  0  0  0  0  0
   -1.7660   13.4388   -6.4773 C   0  0  0  0  0  0  0  0  0  0  0  0
   -0.4314   13.4905   -6.4174 N   0  0  3  0  0  0  0  0  0  0  0  0
    0.1713   12.4042   -6.8124 N   0  0  0  0  0  0  0  0  0  0  0  0
   -0.8030   11.5879   -7.1791 C   0  0  0  0  0  0  0  0  0  0  0  0
    0.3850   14.6084   -5.9658 C   0  0  0  0  0  0  0  0  0  0  0  0
   -3.6973   12.5089  -10.9175 C   0  0  0  0  0  0  0  0  0  0  0  0
   -2.2248   12.4637  -11.4426 C   0  0  0  0  0  0  0  0  0  0  0  0
   -1.4987   13.7622  -11.0653 N   0  0  0  0  0  0  0  0  0  0  0  0
   -2.2038   14.9363  -11.7527 C   0  0  0  0  0  0  0  0  0  0  0  0
   -3.6757   15.0331  -11.3164 C   0  0  0  0  0  0  0  0  0  0  0  0
   -6.0533   12.2736   -9.8759 H   0  0  0  0  0  0  0  0  0  0  0  0
   -8.1654   10.1188  -13.9034 H   0  0  0  0  0  0  0  0  0  0  0  0
   -6.8895   12.2606  -14.0918 H   0  0  0  0  0  0  0  0  0  0  0  0
   -8.6440    7.9838   -9.4449 H   0  0  0  0  0  0  0  0  0  0  0  0
   -8.0360    9.5949   -7.2562 H   0  0  0  0  0  0  0  0  0  0  0  0
   -4.8916    8.7819   -8.4894 H   0  0  0  0  0  0  0  0  0  0  0  0
   -2.6635    9.7568   -8.0443 H   0  0  0  0  0  0  0  0  0  0  0  0
   -4.5191   13.2898   -6.4771 H   0  0  0  0  0  0  0  0  0  0  0  0
   -6.7464   12.3131   -6.9146 H   0  0  0  0  0  0  0  0  0  0  0  0
   -2.1452   14.2244   -7.1474 H   0  0  0  0  0  0  0  0  0  0  0  0
   -2.1952   13.5743   -5.4736 H   0  0  0  0  0  0  0  0  0  0  0  0
   -0.6452   10.5982   -7.5816 H   0  0  0  0  0  0  0  0  0  0  0  0
    1.4489   14.3378   -6.0355 H   0  0  0  0  0  0  0  0  0  0  0  0
    0.1877   15.4858   -6.5992 H   0  0  0  0  0  0  0  0  0  0  0  0
    0.1350   14.8465   -4.9214 H   0  0  0  0  0  0  0  0  0  0  0  0
   -3.6944   12.5388   -9.8179 H   0  0  0  0  0  0  0  0  0  0  0  0
   -4.2365   11.6128  -11.2585 H   0  0  0  0  0  0  0  0  0  0  0  0
   -1.7018   11.6081  -10.9904 H   0  0  0  0  0  0  0  0  0  0  0  0
   -2.2305   12.3532  -12.5370 H   0  0  0  0  0  0  0  0  0  0  0  0
   -1.5260   13.8871  -10.0735 H   0  0  0  0  0  0  0  0  0  0  0  0
   -1.6882   15.8706  -11.4859 H   0  0  0  0  0  0  0  0  0  0  0  0
   -2.1612   14.7923  -12.8424 H   0  0  0  0  0  0  0  0  0  0  0  0
   -4.1860   15.7766  -11.9464 H   0  0  0  0  0  0  0  0  0  0  0  0
   -3.7154   15.3542  -10.2651 H   0  0  0  0  0  0  0  0  0  0  0  0
  1  2  2  0  0  0  0
  1  4  1  0  0  0  0
  1 12  1  0  0  0  0
  2  6  1  0  0  0  0
  3  4  2  0  0  0  0
  3  5  1  0  0  0  0
  5  6  1  0  0  0  0
  5  9  2  0  0  0  0
  6  7  2  0  0  0  0
  7  8  1  0  0  0  0
  7 10  1  0  0  0  0
  8  9  1  0  0  0  0
 10 14  2  0  0  0  0
 11 12  1  0  0  0  0
 11 26  1  0  0  0  0
 11 30  1  0  0  0  0
 12 13  2  0  0  0  0
 14 15  1  0  0  0  0
 14 19  1  0  0  0  0
 15 16  2  0  0  0  0
 16 17  1  0  0  0  0
 17 18  1  0  0  0  0
 17 20  2  0  0  0  0
 18 19  2  0  0  0  0
 20 21  1  0  0  0  0
 20 24  1  0  0  0  0
 21 22  1  0  0  0  0
 22 23  1  0  0  0  0
 22 25  1  0  0  0  0
 23 24  2  0  0  0  0
 26 27  1  0  0  0  0
 27 28  1  0  0  0  0
 28 29  1  0  0  0  0
 29 30  1  0  0  0  0
  2 31  1  0  0  0  0
  3 32  1  0  0  0  0
  4 33  1  0  0  0  0
  8 34  1  0  0  0  0
 10 35  1  0  0  0  0
 15 36  1  0  0  0  0
 16 37  1  0  0  0  0
 18 38  1  0  0  0  0
 19 39  1  0  0  0  0
 21 40  1  0  0  0  0
 21 41  1  0  0  0  0
 24 42  1  0  0  0  0
 25 43  1  0  0  0  0
 25 44  1  0  0  0  0
 25 45  1  0  0  0  0
 26 46  1  0  0  0  0
 26 47  1  0  0  0  0
 27 48  1  0  0  0  0
 27 49  1  0  0  0  0
 28 50  1  0  0  0  0
 29 51  1  0  0  0  0
 29 52  1  0  0  0  0
 30 53  1  0  0  0  0
 30 54  1  0  0  0  0
M  END
> <Name>
40

> <IC50[uM]>
0.007

$$$$
40
  -OEChem-05192314333D
 Structure written by MMmdl.
 54 58  0     1  0  0  0  0  0999 V2000
   -6.3583   12.3628  -12.0152 C   0  0  0  0  0  0  0  0  0  0  0  0
   -6.5007   11.8020  -10.7383 C   0  0  0  0  0  0  0  0  0  0  0  0
   -7.7096   10.5772  -13.0382 C   0  0  0  0  0  0  0  0  0  0  0  0
   -6.9777   11.7759  -13.1307 C   0  0  0  0  0  0  0  0  0  0  0  0
   -7.8132   10.0130  -11.7619 C   0  0  0  0  0  0  0  0  0  0  0  0
   -7.2338   10.6200  -10.6051 C   0  0  0  0  0  0  0  0  0  0  0  0
   -7.6121    9.7513   -9.5135 C   0  0  0  0  0  0  0  0  0  0  0  0
   -8.2831    8.7414   -9.9888 N   0  0  0  0  0  0  0  0  0  0  0  0
   -8.4159    8.8683  -11.3018 N   0  0  0  0  0  0  0  0  0  0  0  0
   -7.3364    9.8882   -8.0249 C   0  0  0  0  0  0  0  0  0  0  0  0
   -4.3745   13.7307  -11.4480 N   0  0  0  0  0  0  0  0  0  0  0  0
   -5.5401   13.6479  -12.1823 C   0  0  0  0  0  0  0  0  0  0  0  0
   -5.9305   14.5456  -12.9289 O   0  0  0  0  0  0  0  0  0  0  0  0
   -5.9622   10.4857   -7.7364 C   0  0  0  0  0  0  0  0  0  0  0  0
   -4.8106    9.7658   -8.0516 C   0  0  0  0  0  0  0  0  0  0  0  0
   -3.5548   10.3163   -7.8015 C   0  0  0  0  0  0  0  0  0  0  0  0
   -3.4456   11.5910   -7.2371 C   0  0  0  0  0  0  0  0  0  0  0  0
   -4.5995   12.3069   -6.9174 C   0  0  0  0  0  0  0  0  0  0  0  0
   -5.8550   11.7570   -7.1647 C   0  0  0  0  0  0  0  0  0  0  0  0
   -2.1008   12.1810   -6.9758 C   0  0  0  0  0  0  0  0  0  0  0  0
   -1.7660   13.4388   -6.4773 C   0  0  0  0  0  0  0  0  0  0  0  0
   -0.4314   13.4905   -6.4174 N   0  0  3  0  0  0  0  0  0  0  0  0
    0.1713   12.4042   -6.8124 N   0  0  0  0  0  0  0  0  0  0  0  0
   -0.8030   11.5879   -7.1791 C   0  0  0  0  0  0  0  0  0  0  0  0
    0.3850   14.6084   -5.9658 C   0  0  0  0  0  0  0  0  0  0  0  0
   -3.6973   12.5089  -10.9175 C   0  0  0  0  0  0  0  0  0  0  0  0
   -2.2248   12.4637  -11.4426 C   0  0  0  0  0  0  0  0  0  0  0  0
   -1.4987   13.7622  -11.0653 N   0  0  0  0  0  0  0  0  0  0  0  0
   -2.2038   14.9363  -11.7527 C   0  0  0  0  0  0  0  0  0  0  0  0
   -3.6757   15.0331  -11.3164 C   0  0  0  0  0  0  0  0  0  0  0  0
   -6.0533   12.2736   -9.8759 H   0  0  0  0  0  0  0  0  0  0  0  0
   -8.1654   10.1188  -13.9034 H   0  0  0  0  0  0  0  0  0  0  0  0
   -6.8895   12.2606  -14.0918 H   0  0  0  0  0  0  0  0  0  0  0  0
   -8.8953    8.2121  -11.8845 H   0  0  0  0  0  0  0  0  0  0  0  0
   -8.0360    9.5949   -7.2562 H   0  0  0  0  0  0  0  0  0  0  0  0
   -4.8916    8.7819   -8.4894 H   0  0  0  0  0  0  0  0  0  0  0  0
   -2.6635    9.7568   -8.0443 H   0  0  0  0  0  0  0  0  0  0  0  0
   -4.5191   13.2898   -6.4771 H   0  0  0  0  0  0  0  0  0  0  0  0
   -6.7464   12.3131   -6.9146 H   0  0  0  0  0  0  0  0  0  0  0  0
   -2.1452   14.2244   -7.1474 H   0  0  0  0  0  0  0  0  0  0  0  0
   -2.1952   13.5743   -5.4736 H   0  0  0  0  0  0  0  0  0  0  0  0
   -0.6452   10.5982   -7.5816 H   0  0  0  0  0  0  0  0  0  0  0  0
    1.4489   14.3378   -6.0355 H   0  0  0  0  0  0  0  0  0  0  0  0
    0.1877   15.4858   -6.5992 H   0  0  0  0  0  0  0  0  0  0  0  0
    0.1350   14.8465   -4.9214 H   0  0  0  0  0  0  0  0  0  0  0  0
   -3.6944   12.5388   -9.8179 H   0  0  0  0  0  0  0  0  0  0  0  0
   -4.2365   11.6128  -11.2585 H   0  0  0  0  0  0  0  0  0  0  0  0
   -1.7018   11.6081  -10.9904 H   0  0  0  0  0  0  0  0  0  0  0  0
   -2.2305   12.3532  -12.5370 H   0  0  0  0  0  0  0  0  0  0  0  0
   -1.5260   13.8871  -10.0735 H   0  0  0  0  0  0  0  0  0  0  0  0
   -1.6882   15.8706  -11.4859 H   0  0  0  0  0  0  0  0  0  0  0  0
   -2.1612   14.7923  -12.8424 H   0  0  0  0  0  0  0  0  0  0  0  0
   -4.1860   15.7766  -11.9464 H   0  0  0  0  0  0  0  0  0  0  0  0
   -3.7154   15.3542  -10.2651 H   0  0  0  0  0  0  0  0  0  0  0  0
  1  2  2  0  0  0  0
  1  4  1  0  0  0  0
  1 12  1  0  0  0  0
  2  6  1  0  0  0  0
  3  4  2  0  0  0  0
  3  5  1  0  0  0  0
  5  6  2  0  0  0  0
  5  9  1  0  0  0  0
  6  7  1  0  0  0  0
  7  8  2  0  0  0  0
  7 10  1  0  0  0  0
  8  9  1  0  0  0  0
 10 14  2  0  0  0  0
 11 12  1  0  0  0  0
 11 26  1  0  0  0  0
 11 30  1  0  0  0  0
 12 13  2  0  0  0  0
 14 15  1  0  0  0  0
 14 19  1  0  0  0  0
 15 16  2  0  0  0  0
 16 17  1  0  0  0  0
 17 18  1  0  0  0  0
 17 20  2  0  0  0  0
 18 19  2  0  0  0  0
 20 21  1  0  0  0  0
 20 24  1  0  0  0  0
 21 22  1  0  0  0  0
 22 23  1  0  0  0  0
 22 25  1  0  0  0  0
 23 24  2  0  0  0  0
 26 27  1  0  0  0  0
 27 28  1  0  0  0  0
 28 29  1  0  0  0  0
 29 30  1  0  0  0  0
  2 31  1  0  0  0  0
  3 32  1  0  0  0  0
  4 33  1  0  0  0  0
  9 34  1  0  0  0  0
 10 35  1  0  0  0  0
 15 36  1  0  0  0  0
 16 37  1  0  0  0  0
 18 38  1  0  0  0  0
 19 39  1  0  0  0  0
 21 40  1  0  0  0  0
 21 41  1  0  0  0  0
 24 42  1  0  0  0  0
 25 43  1  0  0  0  0
 25 44  1  0  0  0  0
 25 45  1  0  0  0  0
 26 46  1  0  0  0  0
 26 47  1  0  0  0  0
 27 48  1  0  0  0  0
 27 49  1  0  0  0  0
 28 50  1  0  0  0  0
 29 51  1  0  0  0  0
 29 52  1  0  0  0  0
 30 53  1  0  0  0  0
 30 54  1  0  0  0  0
M  END
> <Name>
40

> <IC50[uM]>
0.007

$$$$
40
  -OEChem-05192314333D
 Structure written by MMmdl.
 54 58  0     0  0  0  0  0  0999 V2000
   -6.3583   12.3628  -12.0152 C   0  0  0  0  0  0  0  0  0  0  0  0
   -6.5007   11.8020  -10.7383 C   0  0  0  0  0  0  0  0  0  0  0  0
   -7.7096   10.5772  -13.0382 C   0  0  0  0  0  0  0  0  0  0  0  0
   -6.9777   11.7759  -13.1307 C   0  0  0  0  0  0  0  0  0  0  0  0
   -7.8132   10.0130  -11.7619 C   0  0  0  0  0  0  0  0  0  0  0  0
   -7.2338   10.6200  -10.6051 C   0  0  0  0  0  0  0  0  0  0  0  0
   -7.6121    9.7513   -9.5135 C   0  0  0  0  0  0  0  0  0  0  0  0
   -8.2831    8.7414   -9.9888 N   0  0  0  0  0  0  0  0  0  0  0  0
   -8.4159    8.8683  -11.3018 N   0  0  0  0  0  0  0  0  0  0  0  0
   -7.3364    9.8882   -8.0249 C   0  0  0  0  0  0  0  0  0  0  0  0
   -4.3745   13.7307  -11.4480 N   0  0  0  0  0  0  0  0  0  0  0  0
   -5.5401   13.6479  -12.1823 C   0  0  0  0  0  0  0  0  0  0  0  0
   -5.9305   14.5456  -12.9289 O   0  0  0  0  0  0  0  0  0  0  0  0
   -5.9622   10.4857   -7.7364 C   0  0  0  0  0  0  0  0  0  0  0  0
   -4.8106    9.7658   -8.0516 C   0  0  0  0  0  0  0  0  0  0  0  0
   -3.5548   10.3163   -7.8015 C   0  0  0  0  0  0  0  0  0  0  0  0
   -3.4456   11.5910   -7.2371 C   0  0  0  0  0  0  0  0  0  0  0  0
   -4.5995   12.3069   -6.9174 C   0  0  0  0  0  0  0  0  0  0  0  0
   -5.8550   11.7570   -7.1647 C   0  0  0  0  0  0  0  0  0  0  0  0
   -2.1008   12.1810   -6.9758 C   0  0  0  0  0  0  0  0  0  0  0  0
   -1.7660   13.4388   -6.4773 C   0  0  0  0  0  0  0  0  0  0  0  0
   -0.4314   13.4905   -6.4174 N   0  0  0  0  0  0  0  0  0  0  0  0
    0.1713   12.4042   -6.8124 N   0  0  0  0  0  0  0  0  0  0  0  0
   -0.8030   11.5879   -7.1791 C   0  0  0  0  0  0  0  0  0  0  0  0
    0.3850   14.6084   -5.9658 C   0  0  0  0  0  0  0  0  0  0  0  0
   -3.6973   12.5089  -10.9175 C   0  0  0  0  0  0  0  0  0  0  0  0
   -2.2248   12.4637  -11.4426 C   0  0  0  0  0  0  0  0  0  0  0  0
   -1.4987   13.7622  -11.0653 N   0  0  0  0  0  0  0  0  0  0  0  0
   -2.2038   14.9363  -11.7527 C   0  0  0  0  0  0  0  0  0  0  0  0
   -3.6757   15.0331  -11.3164 C   0  0  0  0  0  0  0  0  0  0  0  0
   -6.0533   12.2736   -9.8759 H   0  0  0  0  0  0  0  0  0  0  0  0
   -8.1654   10.1188  -13.9034 H   0  0  0  0  0  0  0  0  0  0  0  0
   -6.8895   12.2606  -14.0918 H   0  0  0  0  0  0  0  0  0  0  0  0
   -8.6440    7.9838   -9.4449 H   0  0  0  0  0  0  0  0  0  0  0  0
   -8.0360    9.5949   -7.2562 H   0  0  0  0  0  0  0  0  0  0  0  0
   -4.8916    8.7819   -8.4894 H   0  0  0  0  0  0  0  0  0  0  0  0
   -2.6635    9.7568   -8.0443 H   0  0  0  0  0  0  0  0  0  0  0  0
   -3.4466   12.0370   -8.2426 H   0  0  0  0  0  0  0  0  0  0  0  0
   -4.5191   13.2898   -6.4771 H   0  0  0  0  0  0  0  0  0  0  0  0
   -6.7464   12.3131   -6.9146 H   0  0  0  0  0  0  0  0  0  0  0  0
   -2.4534   14.2220   -6.1936 H   0  0  0  0  0  0  0  0  0  0  0  0
   -0.6452   10.5982   -7.5816 H   0  0  0  0  0  0  0  0  0  0  0  0
    1.4489   14.3378   -6.0355 H   0  0  0  0  0  0  0  0  0  0  0  0
    0.1877   15.4858   -6.5992 H   0  0  0  0  0  0  0  0  0  0  0  0
    0.1350   14.8465   -4.9214 H   0  0  0  0  0  0  0  0  0  0  0  0
   -3.6944   12.5388   -9.8179 H   0  0  0  0  0  0  0  0  0  0  0  0
   -4.2365   11.6128  -11.2585 H   0  0  0  0  0  0  0  0  0  0  0  0
   -1.7018   11.6081  -10.9904 H   0  0  0  0  0  0  0  0  0  0  0  0
   -2.2305   12.3532  -12.5370 H   0  0  0  0  0  0  0  0  0  0  0  0
   -1.5260   13.8871  -10.0735 H   0  0  0  0  0  0  0  0  0  0  0  0
   -1.6882   15.8706  -11.4859 H   0  0  0  0  0  0  0  0  0  0  0  0
   -2.1612   14.7923  -12.8424 H   0  0  0  0  0  0  0  0  0  0  0  0
   -4.1860   15.7766  -11.9464 H   0  0  0  0  0  0  0  0  0  0  0  0
   -3.7154   15.3542  -10.2651 H   0  0  0  0  0  0  0  0  0  0  0  0
  1  2  2  0  0  0  0
  1  4  1  0  0  0  0
  1 12  1  0  0  0  0
  2  6  1  0  0  0  0
  3  4  2  0  0  0  0
  3  5  1  0  0  0  0
  5  6  1  0  0  0  0
  5  9  2  0  0  0  0
  6  7  2  0  0  0  0
  7  8  1  0  0  0  0
  7 10  1  0  0  0  0
  8  9  1  0  0  0  0
 10 14  2  0  0  0  0
 11 12  1  0  0  0  0
 11 26  1  0  0  0  0
 11 30  1  0  0  0  0
 12 13  2  0  0  0  0
 14 15  1  0  0  0  0
 14 19  1  0  0  0  0
 15 16  2  0  0  0  0
 16 17  1  0  0  0  0
 17 18  1  0  0  0  0
 17 20  1  0  0  0  0
 18 19  2  0  0  0  0
 20 21  2  0  0  0  0
 20 24  1  0  0  0  0
 21 22  1  0  0  0  0
 22 23  1  0  0  0  0
 22 25  1  0  0  0  0
 23 24  2  0  0  0  0
 26 27  1  0  0  0  0
 27 28  1  0  0  0  0
 28 29  1  0  0  0  0
 29 30  1  0  0  0  0
  2 31  1  0  0  0  0
  3 32  1  0  0  0  0
  4 33  1  0  0  0  0
  8 34  1  0  0  0  0
 10 35  1  0  0  0  0
 15 36  1  0  0  0  0
 16 37  1  0  0  0  0
 17 38  1  0  0  0  0
 18 39  1  0  0  0  0
 19 40  1  0  0  0  0
 21 41  1  0  0  0  0
 24 42  1  0  0  0  0
 25 43  1  0  0  0  0
 25 44  1  0  0  0  0
 25 45  1  0  0  0  0
 26 46  1  0  0  0  0
 26 47  1  0  0  0  0
 27 48  1  0  0  0  0
 27 49  1  0  0  0  0
 28 50  1  0  0  0  0
 29 51  1  0  0  0  0
 29 52  1  0  0  0  0
 30 53  1  0  0  0  0
 30 54  1  0  0  0  0
M  END
> <Name>
40

> <IC50[uM]>
0.007

$$$$
40
  -OEChem-05192314333D
 Structure written by MMmdl.
 54 58  0     0  0  0  0  0  0999 V2000
   -6.3583   12.3628  -12.0152 C   0  0  0  0  0  0  0  0  0  0  0  0
   -6.5007   11.8020  -10.7383 C   0  0  0  0  0  0  0  0  0  0  0  0
   -7.7096   10.5772  -13.0382 C   0  0  0  0  0  0  0  0  0  0  0  0
   -6.9777   11.7759  -13.1307 C   0  0  0  0  0  0  0  0  0  0  0  0
   -7.8132   10.0130  -11.7619 C   0  0  0  0  0  0  0  0  0  0  0  0
   -7.2338   10.6200  -10.6051 C   0  0  0  0  0  0  0  0  0  0  0  0
   -7.6121    9.7513   -9.5135 C   0  0  0  0  0  0  0  0  0  0  0  0
   -8.2831    8.7414   -9.9888 N   0  0  0  0  0  0  0  0  0  0  0  0
   -8.4159    8.8683  -11.3018 N   0  0  0  0  0  0  0  0  0  0  0  0
   -7.3364    9.8882   -8.0249 C   0  0  0  0  0  0  0  0  0  0  0  0
   -4.3745   13.7307  -11.4480 N   0  0  0  0  0  0  0  0  0  0  0  0
   -5.5401   13.6479  -12.1823 C   0  0  0  0  0  0  0  0  0  0  0  0
   -5.9305   14.5456  -12.9289 O   0  0  0  0  0  0  0  0  0  0  0  0
   -5.9622   10.4857   -7.7364 C   0  0  0  0  0  0  0  0  0  0  0  0
   -4.8106    9.7658   -8.0516 C   0  0  0  0  0  0  0  0  0  0  0  0
   -3.5548   10.3163   -7.8015 C   0  0  0  0  0  0  0  0  0  0  0  0
   -3.4456   11.5910   -7.2371 C   0  0  0  0  0  0  0  0  0  0  0  0
   -4.5995   12.3069   -6.9174 C   0  0  0  0  0  0  0  0  0  0  0  0
   -5.8550   11.7570   -7.1647 C   0  0  0  0  0  0  0  0  0  0  0  0
   -2.1008   12.1810   -6.9758 C   0  0  0  0  0  0  0  0  0  0  0  0
   -1.7660   13.4388   -6.4773 C   0  0  0  0  0  0  0  0  0  0  0  0
   -0.4314   13.4905   -6.4174 N   0  0  0  0  0  0  0  0  0  0  0  0
    0.1713   12.4042   -6.8124 N   0  0  0  0  0  0  0  0  0  0  0  0
   -0.8030   11.5879   -7.1791 C   0  0  0  0  0  0  0  0  0  0  0  0
    0.3850   14.6084   -5.9658 C   0  0  0  0  0  0  0  0  0  0  0  0
   -3.6973   12.5089  -10.9175 C   0  0  0  0  0  0  0  0  0  0  0  0
   -2.2248   12.4637  -11.4426 C   0  0  0  0  0  0  0  0  0  0  0  0
   -1.4987   13.7622  -11.0653 N   0  0  0  0  0  0  0  0  0  0  0  0
   -2.2038   14.9363  -11.7527 C   0  0  0  0  0  0  0  0  0  0  0  0
   -3.6757   15.0331  -11.3164 C   0  0  0  0  0  0  0  0  0  0  0  0
   -6.0533   12.2736   -9.8759 H   0  0  0  0  0  0  0  0  0  0  0  0
   -8.1654   10.1188  -13.9034 H   0  0  0  0  0  0  0  0  0  0  0  0
   -6.8895   12.2606  -14.0918 H   0  0  0  0  0  0  0  0  0  0  0  0
   -8.8953    8.2121  -11.8845 H   0  0  0  0  0  0  0  0  0  0  0  0
   -8.0360    9.5949   -7.2562 H   0  0  0  0  0  0  0  0  0  0  0  0
   -4.8916    8.7819   -8.4894 H   0  0  0  0  0  0  0  0  0  0  0  0
   -2.6635    9.7568   -8.0443 H   0  0  0  0  0  0  0  0  0  0  0  0
   -3.4466   12.0370   -8.2426 H   0  0  0  0  0  0  0  0  0  0  0  0
   -4.5191   13.2898   -6.4771 H   0  0  0  0  0  0  0  0  0  0  0  0
   -6.7464   12.3131   -6.9146 H   0  0  0  0  0  0  0  0  0  0  0  0
   -2.4534   14.2220   -6.1936 H   0  0  0  0  0  0  0  0  0  0  0  0
   -0.6452   10.5982   -7.5816 H   0  0  0  0  0  0  0  0  0  0  0  0
    1.4489   14.3378   -6.0355 H   0  0  0  0  0  0  0  0  0  0  0  0
    0.1877   15.4858   -6.5992 H   0  0  0  0  0  0  0  0  0  0  0  0
    0.1350   14.8465   -4.9214 H   0  0  0  0  0  0  0  0  0  0  0  0
   -3.6944   12.5388   -9.8179 H   0  0  0  0  0  0  0  0  0  0  0  0
   -4.2365   11.6128  -11.2585 H   0  0  0  0  0  0  0  0  0  0  0  0
   -1.7018   11.6081  -10.9904 H   0  0  0  0  0  0  0  0  0  0  0  0
   -2.2305   12.3532  -12.5370 H   0  0  0  0  0  0  0  0  0  0  0  0
   -1.5260   13.8871  -10.0735 H   0  0  0  0  0  0  0  0  0  0  0  0
   -1.6882   15.8706  -11.4859 H   0  0  0  0  0  0  0  0  0  0  0  0
   -2.1612   14.7923  -12.8424 H   0  0  0  0  0  0  0  0  0  0  0  0
   -4.1860   15.7766  -11.9464 H   0  0  0  0  0  0  0  0  0  0  0  0
   -3.7154   15.3542  -10.2651 H   0  0  0  0  0  0  0  0  0  0  0  0
  1  2  2  0  0  0  0
  1  4  1  0  0  0  0
  1 12  1  0  0  0  0
  2  6  1  0  0  0  0
  3  4  2  0  0  0  0
  3  5  1  0  0  0  0
  5  6  2  0  0  0  0
  5  9  1  0  0  0  0
  6  7  1  0  0  0  0
  7  8  2  0  0  0  0
  7 10  1  0  0  0  0
  8  9  1  0  0  0  0
 10 14  2  0  0  0  0
 11 12  1  0  0  0  0
 11 26  1  0  0  0  0
 11 30  1  0  0  0  0
 12 13  2  0  0  0  0
 14 15  1  0  0  0  0
 14 19  1  0  0  0  0
 15 16  2  0  0  0  0
 16 17  1  0  0  0  0
 17 18  1  0  0  0  0
 17 20  1  0  0  0  0
 18 19  2  0  0  0  0
 20 21  2  0  0  0  0
 20 24  1  0  0  0  0
 21 22  1  0  0  0  0
 22 23  1  0  0  0  0
 22 25  1  0  0  0  0
 23 24  2  0  0  0  0
 26 27  1  0  0  0  0
 27 28  1  0  0  0  0
 28 29  1  0  0  0  0
 29 30  1  0  0  0  0
  2 31  1  0  0  0  0
  3 32  1  0  0  0  0
  4 33  1  0  0  0  0
  9 34  1  0  0  0  0
 10 35  1  0  0  0  0
 15 36  1  0  0  0  0
 16 37  1  0  0  0  0
 17 38  1  0  0  0  0
 18 39  1  0  0  0  0
 19 40  1  0  0  0  0
 21 41  1  0  0  0  0
 24 42  1  0  0  0  0
 25 43  1  0  0  0  0
 25 44  1  0  0  0  0
 25 45  1  0  0  0  0
 26 46  1  0  0  0  0
 26 47  1  0  0  0  0
 27 48  1  0  0  0  0
 27 49  1  0  0  0  0
 28 50  1  0  0  0  0
 29 51  1  0  0  0  0
 29 52  1  0  0  0  0
 30 53  1  0  0  0  0
 30 54  1  0  0  0  0
M  END
> <Name>
40

> <IC50[uM]>
0.007

$$$$
40
  -OEChem-05192314333D
 Structure written by MMmdl.
 54 58  0     0  0  0  0  0  0999 V2000
   -6.3583   12.3628  -12.0152 C   0  0  0  0  0  0  0  0  0  0  0  0
   -6.5007   11.8020  -10.7383 C   0  0  0  0  0  0  0  0  0  0  0  0
   -7.7096   10.5772  -13.0382 C   0  0  0  0  0  0  0  0  0  0  0  0
   -6.9777   11.7759  -13.1307 C   0  0  0  0  0  0  0  0  0  0  0  0
   -7.8132   10.0130  -11.7619 C   0  0  0  0  0  0  0  0  0  0  0  0
   -7.2338   10.6200  -10.6051 C   0  0  0  0  0  0  0  0  0  0  0  0
   -7.6121    9.7513   -9.5135 C   0  0  0  0  0  0  0  0  0  0  0  0
   -8.2831    8.7414   -9.9888 N   0  0  0  0  0  0  0  0  0  0  0  0
   -8.4159    8.8683  -11.3018 N   0  0  0  0  0  0  0  0  0  0  0  0
   -7.3364    9.8882   -8.0249 C   0  0  0  0  0  0  0  0  0  0  0  0
   -4.3745   13.7307  -11.4480 N   0  0  0  0  0  0  0  0  0  0  0  0
   -5.5401   13.6479  -12.1823 C   0  0  0  0  0  0  0  0  0  0  0  0
   -5.9305   14.5456  -12.9289 O   0  0  0  0  0  0  0  0  0  0  0  0
   -5.9622   10.4857   -7.7364 C   0  0  0  0  0  0  0  0  0  0  0  0
   -4.8106    9.7658   -8.0516 C   0  0  0  0  0  0  0  0  0  0  0  0
   -3.5548   10.3163   -7.8015 C   0  0  0  0  0  0  0  0  0  0  0  0
   -3.4456   11.5910   -7.2371 C   0  0  0  0  0  0  0  0  0  0  0  0
   -4.5995   12.3069   -6.9174 C   0  0  0  0  0  0  0  0  0  0  0  0
   -5.8550   11.7570   -7.1647 C   0  0  0  0  0  0  0  0  0  0  0  0
   -2.1008   12.1810   -6.9758 C   0  0  0  0  0  0  0  0  0  0  0  0
   -1.7660   13.4388   -6.4773 C   0  0  0  0  0  0  0  0  0  0  0  0
   -0.4314   13.4905   -6.4174 N   0  0  0  0  0  0  0  0  0  0  0  0
    0.1713   12.4042   -6.8124 N   0  0  0  0  0  0  0  0  0  0  0  0
   -0.8030   11.5879   -7.1791 C   0  0  0  0  0  0  0  0  0  0  0  0
    0.3850   14.6084   -5.9658 C   0  0  0  0  0  0  0  0  0  0  0  0
   -3.6973   12.5089  -10.9175 C   0  0  0  0  0  0  0  0  0  0  0  0
   -2.2248   12.4637  -11.4426 C   0  0  0  0  0  0  0  0  0  0  0  0
   -1.4987   13.7622  -11.0653 N   0  0  0  0  0  0  0  0  0  0  0  0
   -2.2038   14.9363  -11.7527 C   0  0  0  0  0  0  0  0  0  0  0  0
   -3.6757   15.0331  -11.3164 C   0  0  0  0  0  0  0  0  0  0  0  0
   -6.0533   12.2736   -9.8759 H   0  0  0  0  0  0  0  0  0  0  0  0
   -8.1654   10.1188  -13.9034 H   0  0  0  0  0  0  0  0  0  0  0  0
   -6.8895   12.2606  -14.0918 H   0  0  0  0  0  0  0  0  0  0  0  0
   -8.6440    7.9838   -9.4449 H   0  0  0  0  0  0  0  0  0  0  0  0
   -8.0360    9.5949   -7.2562 H   0  0  0  0  0  0  0  0  0  0  0  0
   -4.8916    8.7819   -8.4894 H   0  0  0  0  0  0  0  0  0  0  0  0
   -2.6635    9.7568   -8.0443 H   0  0  0  0  0  0  0  0  0  0  0  0
   -4.5191   13.2898   -6.4771 H   0  0  0  0  0  0  0  0  0  0  0  0
   -6.3792   12.4524   -7.8368 H   0  0  0  0  0  0  0  0  0  0  0  0
   -6.3792   11.7156   -6.1985 H   0  0  0  0  0  0  0  0  0  0  0  0
   -2.4534   14.2220   -6.1936 H   0  0  0  0  0  0  0  0  0  0  0  0
   -0.6452   10.5982   -7.5816 H   0  0  0  0  0  0  0  0  0  0  0  0
    1.4489   14.3378   -6.0355 H   0  0  0  0  0  0  0  0  0  0  0  0
    0.1877   15.4858   -6.5992 H   0  0  0  0  0  0  0  0  0  0  0  0
    0.1350   14.8465   -4.9214 H   0  0  0  0  0  0  0  0  0  0  0  0
   -3.6944   12.5388   -9.8179 H   0  0  0  0  0  0  0  0  0  0  0  0
   -4.2365   11.6128  -11.2585 H   0  0  0  0  0  0  0  0  0  0  0  0
   -1.7018   11.6081  -10.9904 H   0  0  0  0  0  0  0  0  0  0  0  0
   -2.2305   12.3532  -12.5370 H   0  0  0  0  0  0  0  0  0  0  0  0
   -1.5260   13.8871  -10.0735 H   0  0  0  0  0  0  0  0  0  0  0  0
   -1.6882   15.8706  -11.4859 H   0  0  0  0  0  0  0  0  0  0  0  0
   -2.1612   14.7923  -12.8424 H   0  0  0  0  0  0  0  0  0  0  0  0
   -4.1860   15.7766  -11.9464 H   0  0  0  0  0  0  0  0  0  0  0  0
   -3.7154   15.3542  -10.2651 H   0  0  0  0  0  0  0  0  0  0  0  0
  1  2  2  0  0  0  0
  1  4  1  0  0  0  0
  1 12  1  0  0  0  0
  2  6  1  0  0  0  0
  3  4  2  0  0  0  0
  3  5  1  0  0  0  0
  5  6  1  0  0  0  0
  5  9  2  0  0  0  0
  6  7  2  0  0  0  0
  7  8  1  0  0  0  0
  7 10  1  0  0  0  0
  8  9  1  0  0  0  0
 10 14  2  3  0  0  0
 11 12  1  0  0  0  0
 11 26  1  0  0  0  0
 11 30  1  0  0  0  0
 12 13  2  0  0  0  0
 14 15  1  0  0  0  0
 14 19  1  0  0  0  0
 15 16  2  0  0  0  0
 16 17  1  0  0  0  0
 17 18  2  0  0  0  0
 17 20  1  0  0  0  0
 18 19  1  0  0  0  0
 20 21  2  0  0  0  0
 20 24  1  0  0  0  0
 21 22  1  0  0  0  0
 22 23  1  0  0  0  0
 22 25  1  0  0  0  0
 23 24  2  0  0  0  0
 26 27  1  0  0  0  0
 27 28  1  0  0  0  0
 28 29  1  0  0  0  0
 29 30  1  0  0  0  0
  2 31  1  0  0  0  0
  3 32  1  0  0  0  0
  4 33  1  0  0  0  0
  8 34  1  0  0  0  0
 10 35  1  0  0  0  0
 15 36  1  0  0  0  0
 16 37  1  0  0  0  0
 18 38  1  0  0  0  0
 19 39  1  0  0  0  0
 19 40  1  0  0  0  0
 21 41  1  0  0  0  0
 24 42  1  0  0  0  0
 25 43  1  0  0  0  0
 25 44  1  0  0  0  0
 25 45  1  0  0  0  0
 26 46  1  0  0  0  0
 26 47  1  0  0  0  0
 27 48  1  0  0  0  0
 27 49  1  0  0  0  0
 28 50  1  0  0  0  0
 29 51  1  0  0  0  0
 29 52  1  0  0  0  0
 30 53  1  0  0  0  0
 30 54  1  0  0  0  0
M  END
> <Name>
40

> <IC50[uM]>
0.007

$$$$
40
  -OEChem-05192314333D
 Structure written by MMmdl.
 54 58  0     0  0  0  0  0  0999 V2000
   -6.3583   12.3628  -12.0152 C   0  0  0  0  0  0  0  0  0  0  0  0
   -6.5007   11.8020  -10.7383 C   0  0  0  0  0  0  0  0  0  0  0  0
   -7.7096   10.5772  -13.0382 C   0  0  0  0  0  0  0  0  0  0  0  0
   -6.9777   11.7759  -13.1307 C   0  0  0  0  0  0  0  0  0  0  0  0
   -7.8132   10.0130  -11.7619 C   0  0  0  0  0  0  0  0  0  0  0  0
   -7.2338   10.6200  -10.6051 C   0  0  0  0  0  0  0  0  0  0  0  0
   -7.6121    9.7513   -9.5135 C   0  0  0  0  0  0  0  0  0  0  0  0
   -8.2831    8.7414   -9.9888 N   0  0  0  0  0  0  0  0  0  0  0  0
   -8.4159    8.8683  -11.3018 N   0  0  0  0  0  0  0  0  0  0  0  0
   -7.3364    9.8882   -8.0249 C   0  0  0  0  0  0  0  0  0  0  0  0
   -4.3745   13.7307  -11.4480 N   0  0  0  0  0  0  0  0  0  0  0  0
   -5.5401   13.6479  -12.1823 C   0  0  0  0  0  0  0  0  0  0  0  0
   -5.9305   14.5456  -12.9289 O   0  0  0  0  0  0  0  0  0  0  0  0
   -5.9622   10.4857   -7.7364 C   0  0  0  0  0  0  0  0  0  0  0  0
   -4.8106    9.7658   -8.0516 C   0  0  0  0  0  0  0  0  0  0  0  0
   -3.5548   10.3163   -7.8015 C   0  0  0  0  0  0  0  0  0  0  0  0
   -3.4456   11.5910   -7.2371 C   0  0  0  0  0  0  0  0  0  0  0  0
   -4.5995   12.3069   -6.9174 C   0  0  0  0  0  0  0  0  0  0  0  0
   -5.8550   11.7570   -7.1647 C   0  0  0  0  0  0  0  0  0  0  0  0
   -2.1008   12.1810   -6.9758 C   0  0  0  0  0  0  0  0  0  0  0  0
   -1.7660   13.4388   -6.4773 C   0  0  0  0  0  0  0  0  0  0  0  0
   -0.4314   13.4905   -6.4174 N   0  0  0  0  0  0  0  0  0  0  0  0
    0.1713   12.4042   -6.8124 N   0  0  0  0  0  0  0  0  0  0  0  0
   -0.8030   11.5879   -7.1791 C   0  0  0  0  0  0  0  0  0  0  0  0
    0.3850   14.6084   -5.9658 C   0  0  0  0  0  0  0  0  0  0  0  0
   -3.6973   12.5089  -10.9175 C   0  0  0  0  0  0  0  0  0  0  0  0
   -2.2248   12.4637  -11.4426 C   0  0  0  0  0  0  0  0  0  0  0  0
   -1.4987   13.7622  -11.0653 N   0  0  0  0  0  0  0  0  0  0  0  0
   -2.2038   14.9363  -11.7527 C   0  0  0  0  0  0  0  0  0  0  0  0
   -3.6757   15.0331  -11.3164 C   0  0  0  0  0  0  0  0  0  0  0  0
   -6.0533   12.2736   -9.8759 H   0  0  0  0  0  0  0  0  0  0  0  0
   -8.1654   10.1188  -13.9034 H   0  0  0  0  0  0  0  0  0  0  0  0
   -6.8895   12.2606  -14.0918 H   0  0  0  0  0  0  0  0  0  0  0  0
   -8.8953    8.2121  -11.8845 H   0  0  0  0  0  0  0  0  0  0  0  0
   -8.0360    9.5949   -7.2562 H   0  0  0  0  0  0  0  0  0  0  0  0
   -4.8916    8.7819   -8.4894 H   0  0  0  0  0  0  0  0  0  0  0  0
   -2.6635    9.7568   -8.0443 H   0  0  0  0  0  0  0  0  0  0  0  0
   -4.5191   13.2898   -6.4771 H   0  0  0  0  0  0  0  0  0  0  0  0
   -6.3792   12.4524   -7.8368 H   0  0  0  0  0  0  0  0  0  0  0  0
   -6.3792   11.7156   -6.1985 H   0  0  0  0  0  0  0  0  0  0  0  0
   -2.4534   14.2220   -6.1936 H   0  0  0  0  0  0  0  0  0  0  0  0
   -0.6452   10.5982   -7.5816 H   0  0  0  0  0  0  0  0  0  0  0  0
    1.4489   14.3378   -6.0355 H   0  0  0  0  0  0  0  0  0  0  0  0
    0.1877   15.4858   -6.5992 H   0  0  0  0  0  0  0  0  0  0  0  0
    0.1350   14.8465   -4.9214 H   0  0  0  0  0  0  0  0  0  0  0  0
   -3.6944   12.5388   -9.8179 H   0  0  0  0  0  0  0  0  0  0  0  0
   -4.2365   11.6128  -11.2585 H   0  0  0  0  0  0  0  0  0  0  0  0
   -1.7018   11.6081  -10.9904 H   0  0  0  0  0  0  0  0  0  0  0  0
   -2.2305   12.3532  -12.5370 H   0  0  0  0  0  0  0  0  0  0  0  0
   -1.5260   13.8871  -10.0735 H   0  0  0  0  0  0  0  0  0  0  0  0
   -1.6882   15.8706  -11.4859 H   0  0  0  0  0  0  0  0  0  0  0  0
   -2.1612   14.7923  -12.8424 H   0  0  0  0  0  0  0  0  0  0  0  0
   -4.1860   15.7766  -11.9464 H   0  0  0  0  0  0  0  0  0  0  0  0
   -3.7154   15.3542  -10.2651 H   0  0  0  0  0  0  0  0  0  0  0  0
  1  2  2  0  0  0  0
  1  4  1  0  0  0  0
  1 12  1  0  0  0  0
  2  6  1  0  0  0  0
  3  4  2  0  0  0  0
  3  5  1  0  0  0  0
  5  6  2  0  0  0  0
  5  9  1  0  0  0  0
  6  7  1  0  0  0  0
  7  8  2  0  0  0  0
  7 10  1  0  0  0  0
  8  9  1  0  0  0  0
 10 14  2  3  0  0  0
 11 12  1  0  0  0  0
 11 26  1  0  0  0  0
 11 30  1  0  0  0  0
 12 13  2  0  0  0  0
 14 15  1  0  0  0  0
 14 19  1  0  0  0  0
 15 16  2  0  0  0  0
 16 17  1  0  0  0  0
 17 18  2  0  0  0  0
 17 20  1  0  0  0  0
 18 19  1  0  0  0  0
 20 21  2  0  0  0  0
 20 24  1  0  0  0  0
 21 22  1  0  0  0  0
 22 23  1  0  0  0  0
 22 25  1  0  0  0  0
 23 24  2  0  0  0  0
 26 27  1  0  0  0  0
 27 28  1  0  0  0  0
 28 29  1  0  0  0  0
 29 30  1  0  0  0  0
  2 31  1  0  0  0  0
  3 32  1  0  0  0  0
  4 33  1  0  0  0  0
  9 34  1  0  0  0  0
 10 35  1  0  0  0  0
 15 36  1  0  0  0  0
 16 37  1  0  0  0  0
 18 38  1  0  0  0  0
 19 39  1  0  0  0  0
 19 40  1  0  0  0  0
 21 41  1  0  0  0  0
 24 42  1  0  0  0  0
 25 43  1  0  0  0  0
 25 44  1  0  0  0  0
 25 45  1  0  0  0  0
 26 46  1  0  0  0  0
 26 47  1  0  0  0  0
 27 48  1  0  0  0  0
 27 49  1  0  0  0  0
 28 50  1  0  0  0  0
 29 51  1  0  0  0  0
 29 52  1  0  0  0  0
 30 53  1  0  0  0  0
 30 54  1  0  0  0  0
M  END
> <Name>
40

> <IC50[uM]>
0.007

$$$$
40
  -OEChem-05192314333D
 Structure written by MMmdl.
 54 58  0     1  0  0  0  0  0999 V2000
   -6.3583   12.3628  -12.0152 C   0  0  0  0  0  0  0  0  0  0  0  0
   -6.5007   11.8020  -10.7383 C   0  0  0  0  0  0  0  0  0  0  0  0
   -7.7096   10.5772  -13.0382 C   0  0  0  0  0  0  0  0  0  0  0  0
   -6.9777   11.7759  -13.1307 C   0  0  0  0  0  0  0  0  0  0  0  0
   -7.8132   10.0130  -11.7619 C   0  0  0  0  0  0  0  0  0  0  0  0
   -7.2338   10.6200  -10.6051 C   0  0  0  0  0  0  0  0  0  0  0  0
   -7.6121    9.7513   -9.5135 C   0  0  0  0  0  0  0  0  0  0  0  0
   -8.2831    8.7414   -9.9888 N   0  0  0  0  0  0  0  0  0  0  0  0
   -8.4159    8.8683  -11.3018 N   0  0  0  0  0  0  0  0  0  0  0  0
   -7.3364    9.8882   -8.0249 C   0  0  0  0  0  0  0  0  0  0  0  0
   -4.3745   13.7307  -11.4480 N   0  0  0  0  0  0  0  0  0  0  0  0
   -5.5401   13.6479  -12.1823 C   0  0  0  0  0  0  0  0  0  0  0  0
   -5.9305   14.5456  -12.9289 O   0  0  0  0  0  0  0  0  0  0  0  0
   -5.9622   10.4857   -7.7364 C   0  0  0  0  0  0  0  0  0  0  0  0
   -4.8106    9.7658   -8.0516 C   0  0  0  0  0  0  0  0  0  0  0  0
   -3.5548   10.3163   -7.8015 C   0  0  0  0  0  0  0  0  0  0  0  0
   -3.4456   11.5910   -7.2371 C   0  0  0  0  0  0  0  0  0  0  0  0
   -4.5995   12.3069   -6.9174 C   0  0  0  0  0  0  0  0  0  0  0  0
   -5.8550   11.7570   -7.1647 C   0  0  0  0  0  0  0  0  0  0  0  0
   -2.1008   12.1810   -6.9758 C   0  0  3  0  0  0  0  0  0  0  0  0
   -1.7660   13.4388   -6.4773 C   0  0  0  0  0  0  0  0  0  0  0  0
   -0.4314   13.4905   -6.4174 N   0  0  3  0  0  0  0  0  0  0  0  0
    0.1713   12.4042   -6.8124 N   0  0  0  0  0  0  0  0  0  0  0  0
   -0.8030   11.5879   -7.1791 C   0  0  0  0  0  0  0  0  0  0  0  0
    0.3850   14.6084   -5.9658 C   0  0  0  0  0  0  0  0  0  0  0  0
   -3.6973   12.5089  -10.9175 C   0  0  0  0  0  0  0  0  0  0  0  0
   -2.2248   12.4637  -11.4426 C   0  0  0  0  0  0  0  0  0  0  0  0
   -1.4987   13.7622  -11.0653 N   0  0  0  0  0  0  0  0  0  0  0  0
   -2.2038   14.9363  -11.7527 C   0  0  0  0  0  0  0  0  0  0  0  0
   -3.6757   15.0331  -11.3164 C   0  0  0  0  0  0  0  0  0  0  0  0
   -6.0533   12.2736   -9.8759 H   0  0  0  0  0  0  0  0  0  0  0  0
   -8.1654   10.1188  -13.9034 H   0  0  0  0  0  0  0  0  0  0  0  0
   -6.8895   12.2606  -14.0918 H   0  0  0  0  0  0  0  0  0  0  0  0
   -8.0360    9.5949   -7.2562 H   0  0  0  0  0  0  0  0  0  0  0  0
   -4.8916    8.7819   -8.4894 H   0  0  0  0  0  0  0  0  0  0  0  0
   -2.6635    9.7568   -8.0443 H   0  0  0  0  0  0  0  0  0  0  0  0
   -4.5191   13.2898   -6.4771 H   0  0  0  0  0  0  0  0  0  0  0  0
   -6.7464   12.3131   -6.9146 H   0  0  0  0  0  0  0  0  0  0  0  0
   -2.1238   11.7807   -5.9515 H   0  0  0  0  0  0  0  0  0  0  0  0
   -2.1452   14.2244   -7.1474 H   0  0  0  0  0  0  0  0  0  0  0  0
   -2.1952   13.5743   -5.4736 H   0  0  0  0  0  0  0  0  0  0  0  0
   -0.6452   10.5982   -7.5816 H   0  0  0  0  0  0  0  0  0  0  0  0
    1.4489   14.3378   -6.0355 H   0  0  0  0  0  0  0  0  0  0  0  0
    0.1877   15.4858   -6.5992 H   0  0  0  0  0  0  0  0  0  0  0  0
    0.1350   14.8465   -4.9214 H   0  0  0  0  0  0  0  0  0  0  0  0
   -3.6944   12.5388   -9.8179 H   0  0  0  0  0  0  0  0  0  0  0  0
   -4.2365   11.6128  -11.2585 H   0  0  0  0  0  0  0  0  0  0  0  0
   -1.7018   11.6081  -10.9904 H   0  0  0  0  0  0  0  0  0  0  0  0
   -2.2305   12.3532  -12.5370 H   0  0  0  0  0  0  0  0  0  0  0  0
   -1.5260   13.8871  -10.0735 H   0  0  0  0  0  0  0  0  0  0  0  0
   -1.6882   15.8706  -11.4859 H   0  0  0  0  0  0  0  0  0  0  0  0
   -2.1612   14.7923  -12.8424 H   0  0  0  0  0  0  0  0  0  0  0  0
   -4.1860   15.7766  -11.9464 H   0  0  0  0  0  0  0  0  0  0  0  0
   -3.7154   15.3542  -10.2651 H   0  0  0  0  0  0  0  0  0  0  0  0
  1  2  2  0  0  0  0
  1  4  1  0  0  0  0
  1 12  1  0  0  0  0
  2  6  1  0  0  0  0
  3  4  2  0  0  0  0
  3  5  1  0  0  0  0
  5  6  2  0  0  0  0
  5  9  1  0  0  0  0
  6  7  1  0  0  0  0
  7  8  1  0  0  0  0
  7 10  2  3  0  0  0
  8  9  2  0  0  0  0
 10 14  1  0  0  0  0
 11 12  1  0  0  0  0
 11 26  1  0  0  0  0
 11 30  1  0  0  0  0
 12 13  2  0  0  0  0
 14 15  2  0  0  0  0
 14 19  1  0  0  0  0
 15 16  1  0  0  0  0
 16 17  2  0  0  0  0
 17 18  1  0  0  0  0
 17 20  1  0  0  0  0
 18 19  2  0  0  0  0
 20 21  1  0  0  0  0
 20 24  1  0  0  0  0
 21 22  1  0  0  0  0
 22 23  1  0  0  0  0
 22 25  1  0  0  0  0
 23 24  2  0  0  0  0
 26 27  1  0  0  0  0
 27 28  1  0  0  0  0
 28 29  1  0  0  0  0
 29 30  1  0  0  0  0
  2 31  1  0  0  0  0
  3 32  1  0  0  0  0
  4 33  1  0  0  0  0
 10 34  1  0  0  0  0
 15 35  1  0  0  0  0
 16 36  1  0  0  0  0
 18 37  1  0  0  0  0
 19 38  1  0  0  0  0
 20 39  1  0  0  0  0
 21 40  1  0  0  0  0
 21 41  1  0  0  0  0
 24 42  1  0  0  0  0
 25 43  1  0  0  0  0
 25 44  1  0  0  0  0
 25 45  1  0  0  0  0
 26 46  1  0  0  0  0
 26 47  1  0  0  0  0
 27 48  1  0  0  0  0
 27 49  1  0  0  0  0
 28 50  1  0  0  0  0
 29 51  1  0  0  0  0
 29 52  1  0  0  0  0
 30 53  1  0  0  0  0
 30 54  1  0  0  0  0
M  END
> <Name>
40

> <IC50[uM]>
0.007

$$$$
40
  -OEChem-05192314333D
 Structure written by MMmdl.
 54 58  0     1  0  0  0  0  0999 V2000
   -6.3583   12.3628  -12.0152 C   0  0  0  0  0  0  0  0  0  0  0  0
   -6.5007   11.8020  -10.7383 C   0  0  0  0  0  0  0  0  0  0  0  0
   -7.7096   10.5772  -13.0382 C   0  0  0  0  0  0  0  0  0  0  0  0
   -6.9777   11.7759  -13.1307 C   0  0  0  0  0  0  0  0  0  0  0  0
   -7.8132   10.0130  -11.7619 C   0  0  0  0  0  0  0  0  0  0  0  0
   -7.2338   10.6200  -10.6051 C   0  0  0  0  0  0  0  0  0  0  0  0
   -7.6121    9.7513   -9.5135 C   0  0  0  0  0  0  0  0  0  0  0  0
   -8.2831    8.7414   -9.9888 N   0  0  0  0  0  0  0  0  0  0  0  0
   -8.4159    8.8683  -11.3018 N   0  0  0  0  0  0  0  0  0  0  0  0
   -7.3364    9.8882   -8.0249 C   0  0  0  0  0  0  0  0  0  0  0  0
   -4.3745   13.7307  -11.4480 N   0  0  0  0  0  0  0  0  0  0  0  0
   -5.5401   13.6479  -12.1823 C   0  0  0  0  0  0  0  0  0  0  0  0
   -5.9305   14.5456  -12.9289 O   0  0  0  0  0  0  0  0  0  0  0  0
   -5.9622   10.4857   -7.7364 C   0  0  0  0  0  0  0  0  0  0  0  0
   -4.8106    9.7658   -8.0516 C   0  0  0  0  0  0  0  0  0  0  0  0
   -3.5548   10.3163   -7.8015 C   0  0  0  0  0  0  0  0  0  0  0  0
   -3.4456   11.5910   -7.2371 C   0  0  0  0  0  0  0  0  0  0  0  0
   -4.5995   12.3069   -6.9174 C   0  0  0  0  0  0  0  0  0  0  0  0
   -5.8550   11.7570   -7.1647 C   0  0  0  0  0  0  0  0  0  0  0  0
   -2.1008   12.1810   -6.9758 C   0  0  0  0  0  0  0  0  0  0  0  0
   -1.7660   13.4388   -6.4773 C   0  0  0  0  0  0  0  0  0  0  0  0
   -0.4314   13.4905   -6.4174 N   0  0  3  0  0  0  0  0  0  0  0  0
    0.1713   12.4042   -6.8124 N   0  0  0  0  0  0  0  0  0  0  0  0
   -0.8030   11.5879   -7.1791 C   0  0  0  0  0  0  0  0  0  0  0  0
    0.3850   14.6084   -5.9658 C   0  0  0  0  0  0  0  0  0  0  0  0
   -3.6973   12.5089  -10.9175 C   0  0  0  0  0  0  0  0  0  0  0  0
   -2.2248   12.4637  -11.4426 C   0  0  0  0  0  0  0  0  0  0  0  0
   -1.4987   13.7622  -11.0653 N   0  0  0  0  0  0  0  0  0  0  0  0
   -2.2038   14.9363  -11.7527 C   0  0  0  0  0  0  0  0  0  0  0  0
   -3.6757   15.0331  -11.3164 C   0  0  0  0  0  0  0  0  0  0  0  0
   -6.0533   12.2736   -9.8759 H   0  0  0  0  0  0  0  0  0  0  0  0
   -8.1654   10.1188  -13.9034 H   0  0  0  0  0  0  0  0  0  0  0  0
   -6.8895   12.2606  -14.0918 H   0  0  0  0  0  0  0  0  0  0  0  0
   -8.0360    9.5949   -7.2562 H   0  0  0  0  0  0  0  0  0  0  0  0
   -4.8916    8.7819   -8.4894 H   0  0  0  0  0  0  0  0  0  0  0  0
   -2.6635    9.7568   -8.0443 H   0  0  0  0  0  0  0  0  0  0  0  0
   -4.5191   13.2898   -6.4771 H   0  0  0  0  0  0  0  0  0  0  0  0
   -6.7464   12.3131   -6.9146 H   0  0  0  0  0  0  0  0  0  0  0  0
   -2.4534   14.2220   -6.1936 H   0  0  0  0  0  0  0  0  0  0  0  0
    0.7765   12.5986   -7.5843 H   0  0  0  0  0  0  0  0  0  0  0  0
   -0.7364   10.6642   -6.5856 H   0  0  0  0  0  0  0  0  0  0  0  0
   -0.6841   11.3476   -8.2459 H   0  0  0  0  0  0  0  0  0  0  0  0
    1.4490   14.3384   -6.0369 H   0  0  0  0  0  0  0  0  0  0  0  0
    0.1865   15.4862   -6.5983 H   0  0  0  0  0  0  0  0  0  0  0  0
    0.1361   14.8455   -4.9209 H   0  0  0  0  0  0  0  0  0  0  0  0
   -3.6944   12.5388   -9.8179 H   0  0  0  0  0  0  0  0  0  0  0  0
   -4.2365   11.6128  -11.2585 H   0  0  0  0  0  0  0  0  0  0  0  0
   -1.7018   11.6081  -10.9904 H   0  0  0  0  0  0  0  0  0  0  0  0
   -2.2305   12.3532  -12.5370 H   0  0  0  0  0  0  0  0  0  0  0  0
   -1.5260   13.8871  -10.0735 H   0  0  0  0  0  0  0  0  0  0  0  0
   -1.6882   15.8706  -11.4859 H   0  0  0  0  0  0  0  0  0  0  0  0
   -2.1612   14.7923  -12.8424 H   0  0  0  0  0  0  0  0  0  0  0  0
   -4.1860   15.7766  -11.9464 H   0  0  0  0  0  0  0  0  0  0  0  0
   -3.7154   15.3542  -10.2651 H   0  0  0  0  0  0  0  0  0  0  0  0
  1  2  2  0  0  0  0
  1  4  1  0  0  0  0
  1 12  1  0  0  0  0
  2  6  1  0  0  0  0
  3  4  2  0  0  0  0
  3  5  1  0  0  0  0
  5  6  2  0  0  0  0
  5  9  1  0  0  0  0
  6  7  1  0  0  0  0
  7  8  1  0  0  0  0
  7 10  2  3  0  0  0
  8  9  2  0  0  0  0
 10 14  1  0  0  0  0
 11 12  1  0  0  0  0
 11 26  1  0  0  0  0
 11 30  1  0  0  0  0
 12 13  2  0  0  0  0
 14 15  2  0  0  0  0
 14 19  1  0  0  0  0
 15 16  1  0  0  0  0
 16 17  2  0  0  0  0
 17 18  1  0  0  0  0
 17 20  1  0  0  0  0
 18 19  2  0  0  0  0
 20 21  2  0  0  0  0
 20 24  1  0  0  0  0
 21 22  1  0  0  0  0
 22 23  1  0  0  0  0
 22 25  1  0  0  0  0
 23 24  1  0  0  0  0
 26 27  1  0  0  0  0
 27 28  1  0  0  0  0
 28 29  1  0  0  0  0
 29 30  1  0  0  0  0
  2 31  1  0  0  0  0
  3 32  1  0  0  0  0
  4 33  1  0  0  0  0
 10 34  1  0  0  0  0
 15 35  1  0  0  0  0
 16 36  1  0  0  0  0
 18 37  1  0  0  0  0
 19 38  1  0  0  0  0
 21 39  1  0  0  0  0
 23 40  1  0  0  0  0
 24 41  1  0  0  0  0
 24 42  1  0  0  0  0
 25 43  1  0  0  0  0
 25 44  1  0  0  0  0
 25 45  1  0  0  0  0
 26 46  1  0  0  0  0
 26 47  1  0  0  0  0
 27 48  1  0  0  0  0
 27 49  1  0  0  0  0
 28 50  1  0  0  0  0
 29 51  1  0  0  0  0
 29 52  1  0  0  0  0
 30 53  1  0  0  0  0
 30 54  1  0  0  0  0
M  END
> <Name>
40

> <IC50[uM]>
0.007

$$$$
40
  -OEChem-05192314333D
 Structure written by MMmdl.
 54 58  0     1  0  0  0  0  0999 V2000
   -6.3583   12.3628  -12.0152 C   0  0  0  0  0  0  0  0  0  0  0  0
   -6.5007   11.8020  -10.7383 C   0  0  0  0  0  0  0  0  0  0  0  0
   -7.7096   10.5772  -13.0382 C   0  0  0  0  0  0  0  0  0  0  0  0
   -6.9777   11.7759  -13.1307 C   0  0  0  0  0  0  0  0  0  0  0  0
   -7.8132   10.0130  -11.7619 C   0  0  0  0  0  0  0  0  0  0  0  0
   -7.2338   10.6200  -10.6051 C   0  0  0  0  0  0  0  0  0  0  0  0
   -7.6121    9.7513   -9.5135 C   0  0  0  0  0  0  0  0  0  0  0  0
   -8.2831    8.7414   -9.9888 N   0  0  0  0  0  0  0  0  0  0  0  0
   -8.4159    8.8683  -11.3018 N   0  0  0  0  0  0  0  0  0  0  0  0
   -7.3364    9.8882   -8.0249 C   0  0  0  0  0  0  0  0  0  0  0  0
   -4.3745   13.7307  -11.4480 N   0  0  0  0  0  0  0  0  0  0  0  0
   -5.5401   13.6479  -12.1823 C   0  0  0  0  0  0  0  0  0  0  0  0
   -5.9305   14.5456  -12.9289 O   0  0  0  0  0  0  0  0  0  0  0  0
   -5.9622   10.4857   -7.7364 C   0  0  0  0  0  0  0  0  0  0  0  0
   -4.8106    9.7658   -8.0516 C   0  0  0  0  0  0  0  0  0  0  0  0
   -3.5548   10.3163   -7.8015 C   0  0  0  0  0  0  0  0  0  0  0  0
   -3.4456   11.5910   -7.2371 C   0  0  0  0  0  0  0  0  0  0  0  0
   -4.5995   12.3069   -6.9174 C   0  0  0  0  0  0  0  0  0  0  0  0
   -5.8550   11.7570   -7.1647 C   0  0  0  0  0  0  0  0  0  0  0  0
   -2.1008   12.1810   -6.9758 C   0  0  0  0  0  0  0  0  0  0  0  0
   -1.7660   13.4388   -6.4773 C   0  0  0  0  0  0  0  0  0  0  0  0
   -0.4314   13.4905   -6.4174 N   0  0  3  0  0  0  0  0  0  0  0  0
    0.1713   12.4042   -6.8124 N   0  0  0  0  0  0  0  0  0  0  0  0
   -0.8030   11.5879   -7.1791 C   0  0  0  0  0  0  0  0  0  0  0  0
    0.3850   14.6084   -5.9658 C   0  0  0  0  0  0  0  0  0  0  0  0
   -3.6973   12.5089  -10.9175 C   0  0  0  0  0  0  0  0  0  0  0  0
   -2.2248   12.4637  -11.4426 C   0  0  0  0  0  0  0  0  0  0  0  0
   -1.4987   13.7622  -11.0653 N   0  0  0  0  0  0  0  0  0  0  0  0
   -2.2038   14.9363  -11.7527 C   0  0  0  0  0  0  0  0  0  0  0  0
   -3.6757   15.0331  -11.3164 C   0  0  0  0  0  0  0  0  0  0  0  0
   -6.0533   12.2736   -9.8759 H   0  0  0  0  0  0  0  0  0  0  0  0
   -8.1654   10.1188  -13.9034 H   0  0  0  0  0  0  0  0  0  0  0  0
   -6.8895   12.2606  -14.0918 H   0  0  0  0  0  0  0  0  0  0  0  0
   -8.0360    9.5949   -7.2562 H   0  0  0  0  0  0  0  0  0  0  0  0
   -4.8916    8.7819   -8.4894 H   0  0  0  0  0  0  0  0  0  0  0  0
   -2.6635    9.7568   -8.0443 H   0  0  0  0  0  0  0  0  0  0  0  0
   -4.5191   13.2898   -6.4771 H   0  0  0  0  0  0  0  0  0  0  0  0
   -6.7464   12.3131   -6.9146 H   0  0  0  0  0  0  0  0  0  0  0  0
   -2.1452   14.2244   -7.1474 H   0  0  0  0  0  0  0  0  0  0  0  0
   -2.1952   13.5743   -5.4736 H   0  0  0  0  0  0  0  0  0  0  0  0
    0.7765   12.5986   -7.5843 H   0  0  0  0  0  0  0  0  0  0  0  0
   -0.6452   10.5982   -7.5816 H   0  0  0  0  0  0  0  0  0  0  0  0
    1.4490   14.3384   -6.0369 H   0  0  0  0  0  0  0  0  0  0  0  0
    0.1865   15.4862   -6.5983 H   0  0  0  0  0  0  0  0  0  0  0  0
    0.1361   14.8455   -4.9209 H   0  0  0  0  0  0  0  0  0  0  0  0
   -3.6944   12.5388   -9.8179 H   0  0  0  0  0  0  0  0  0  0  0  0
   -4.2365   11.6128  -11.2585 H   0  0  0  0  0  0  0  0  0  0  0  0
   -1.7018   11.6081  -10.9904 H   0  0  0  0  0  0  0  0  0  0  0  0
   -2.2305   12.3532  -12.5370 H   0  0  0  0  0  0  0  0  0  0  0  0
   -1.5260   13.8871  -10.0735 H   0  0  0  0  0  0  0  0  0  0  0  0
   -1.6882   15.8706  -11.4859 H   0  0  0  0  0  0  0  0  0  0  0  0
   -2.1612   14.7923  -12.8424 H   0  0  0  0  0  0  0  0  0  0  0  0
   -4.1860   15.7766  -11.9464 H   0  0  0  0  0  0  0  0  0  0  0  0
   -3.7154   15.3542  -10.2651 H   0  0  0  0  0  0  0  0  0  0  0  0
  1  2  2  0  0  0  0
  1  4  1  0  0  0  0
  1 12  1  0  0  0  0
  2  6  1  0  0  0  0
  3  4  2  0  0  0  0
  3  5  1  0  0  0  0
  5  6  2  0  0  0  0
  5  9  1  0  0  0  0
  6  7  1  0  0  0  0
  7  8  1  0  0  0  0
  7 10  2  3  0  0  0
  8  9  2  0  0  0  0
 10 14  1  0  0  0  0
 11 12  1  0  0  0  0
 11 26  1  0  0  0  0
 11 30  1  0  0  0  0
 12 13  2  0  0  0  0
 14 15  2  0  0  0  0
 14 19  1  0  0  0  0
 15 16  1  0  0  0  0
 16 17  2  0  0  0  0
 17 18  1  0  0  0  0
 17 20  1  0  0  0  0
 18 19  2  0  0  0  0
 20 21  1  0  0  0  0
 20 24  2  0  0  0  0
 21 22  1  0  0  0  0
 22 23  1  0  0  0  0
 22 25  1  0  0  0  0
 23 24  1  0  0  0  0
 26 27  1  0  0  0  0
 27 28  1  0  0  0  0
 28 29  1  0  0  0  0
 29 30  1  0  0  0  0
  2 31  1  0  0  0  0
  3 32  1  0  0  0  0
  4 33  1  0  0  0  0
 10 34  1  0  0  0  0
 15 35  1  0  0  0  0
 16 36  1  0  0  0  0
 18 37  1  0  0  0  0
 19 38  1  0  0  0  0
 21 39  1  0  0  0  0
 21 40  1  0  0  0  0
 23 41  1  0  0  0  0
 24 42  1  0  0  0  0
 25 43  1  0  0  0  0
 25 44  1  0  0  0  0
 25 45  1  0  0  0  0
 26 46  1  0  0  0  0
 26 47  1  0  0  0  0
 27 48  1  0  0  0  0
 27 49  1  0  0  0  0
 28 50  1  0  0  0  0
 29 51  1  0  0  0  0
 29 52  1  0  0  0  0
 30 53  1  0  0  0  0
 30 54  1  0  0  0  0
M  END
> <Name>
40

> <IC50[uM]>
0.007

$$$$
40
  -OEChem-05192314333D
 Structure written by MMmdl.
 54 58  0     1  0  0  0  0  0999 V2000
   -6.3583   12.3628  -12.0152 C   0  0  0  0  0  0  0  0  0  0  0  0
   -6.5007   11.8020  -10.7383 C   0  0  0  0  0  0  0  0  0  0  0  0
   -7.7096   10.5772  -13.0382 C   0  0  0  0  0  0  0  0  0  0  0  0
   -6.9777   11.7759  -13.1307 C   0  0  0  0  0  0  0  0  0  0  0  0
   -7.8132   10.0130  -11.7619 C   0  0  0  0  0  0  0  0  0  0  0  0
   -7.2338   10.6200  -10.6051 C   0  0  0  0  0  0  0  0  0  0  0  0
   -7.6121    9.7513   -9.5135 C   0  0  3  0  0  0  0  0  0  0  0  0
   -8.2831    8.7414   -9.9888 N   0  0  0  0  0  0  0  0  0  0  0  0
   -8.4159    8.8683  -11.3018 N   0  0  0  0  0  0  0  0  0  0  0  0
   -7.3364    9.8882   -8.0249 C   0  0  0  0  0  0  0  0  0  0  0  0
   -4.3745   13.7307  -11.4480 N   0  0  0  0  0  0  0  0  0  0  0  0
   -5.5401   13.6479  -12.1823 C   0  0  0  0  0  0  0  0  0  0  0  0
   -5.9305   14.5456  -12.9289 O   0  0  0  0  0  0  0  0  0  0  0  0
   -5.9622   10.4857   -7.7364 C   0  0  0  0  0  0  0  0  0  0  0  0
   -4.8106    9.7658   -8.0516 C   0  0  0  0  0  0  0  0  0  0  0  0
   -3.5548   10.3163   -7.8015 C   0  0  0  0  0  0  0  0  0  0  0  0
   -3.4456   11.5910   -7.2371 C   0  0  0  0  0  0  0  0  0  0  0  0
   -4.5995   12.3069   -6.9174 C   0  0  0  0  0  0  0  0  0  0  0  0
   -5.8550   11.7570   -7.1647 C   0  0  0  0  0  0  0  0  0  0  0  0
   -2.1008   12.1810   -6.9758 C   0  0  0  0  0  0  0  0  0  0  0  0
   -1.7660   13.4388   -6.4773 C   0  0  0  0  0  0  0  0  0  0  0  0
   -0.4314   13.4905   -6.4174 N   0  0  3  0  0  0  0  0  0  0  0  0
    0.1713   12.4042   -6.8124 N   0  0  0  0  0  0  0  0  0  0  0  0
   -0.8030   11.5879   -7.1791 C   0  0  0  0  0  0  0  0  0  0  0  0
    0.3850   14.6084   -5.9658 C   0  0  0  0  0  0  0  0  0  0  0  0
   -3.6973   12.5089  -10.9175 C   0  0  0  0  0  0  0  0  0  0  0  0
   -2.2248   12.4637  -11.4426 C   0  0  0  0  0  0  0  0  0  0  0  0
   -1.4987   13.7622  -11.0653 N   0  0  0  0  0  0  0  0  0  0  0  0
   -2.2038   14.9363  -11.7527 C   0  0  0  0  0  0  0  0  0  0  0  0
   -3.6757   15.0331  -11.3164 C   0  0  0  0  0  0  0  0  0  0  0  0
   -6.0533   12.2736   -9.8759 H   0  0  0  0  0  0  0  0  0  0  0  0
   -8.1654   10.1188  -13.9034 H   0  0  0  0  0  0  0  0  0  0  0  0
   -6.8895   12.2606  -14.0918 H   0  0  0  0  0  0  0  0  0  0  0  0
   -6.6753    9.1879   -9.6361 H   0  0  0  0  0  0  0  0  0  0  0  0
   -8.0360    9.5949   -7.2562 H   0  0  0  0  0  0  0  0  0  0  0  0
   -4.8916    8.7819   -8.4894 H   0  0  0  0  0  0  0  0  0  0  0  0
   -2.6635    9.7568   -8.0443 H   0  0  0  0  0  0  0  0  0  0  0  0
   -4.5191   13.2898   -6.4771 H   0  0  0  0  0  0  0  0  0  0  0  0
   -6.7464   12.3131   -6.9146 H   0  0  0  0  0  0  0  0  0  0  0  0
   -2.1452   14.2244   -7.1474 H   0  0  0  0  0  0  0  0  0  0  0  0
   -2.1952   13.5743   -5.4736 H   0  0  0  0  0  0  0  0  0  0  0  0
   -0.6452   10.5982   -7.5816 H   0  0  0  0  0  0  0  0  0  0  0  0
    1.4489   14.3378   -6.0355 H   0  0  0  0  0  0  0  0  0  0  0  0
    0.1877   15.4858   -6.5992 H   0  0  0  0  0  0  0  0  0  0  0  0
    0.1350   14.8465   -4.9214 H   0  0  0  0  0  0  0  0  0  0  0  0
   -3.6944   12.5388   -9.8179 H   0  0  0  0  0  0  0  0  0  0  0  0
   -4.2365   11.6128  -11.2585 H   0  0  0  0  0  0  0  0  0  0  0  0
   -1.7018   11.6081  -10.9904 H   0  0  0  0  0  0  0  0  0  0  0  0
   -2.2305   12.3532  -12.5370 H   0  0  0  0  0  0  0  0  0  0  0  0
   -1.5260   13.8871  -10.0735 H   0  0  0  0  0  0  0  0  0  0  0  0
   -1.6882   15.8706  -11.4859 H   0  0  0  0  0  0  0  0  0  0  0  0
   -2.1612   14.7923  -12.8424 H   0  0  0  0  0  0  0  0  0  0  0  0
   -4.1860   15.7766  -11.9464 H   0  0  0  0  0  0  0  0  0  0  0  0
   -3.7154   15.3542  -10.2651 H   0  0  0  0  0  0  0  0  0  0  0  0
  1  2  2  0  0  0  0
  1  4  1  0  0  0  0
  1 12  1  0  0  0  0
  2  6  1  0  0  0  0
  3  4  2  0  0  0  0
  3  5  1  0  0  0  0
  5  6  2  0  0  0  0
  5  9  1  0  0  0  0
  6  7  1  0  0  0  0
  7  8  1  0  0  0  0
  7 10  1  0  0  0  0
  8  9  2  0  0  0  0
 10 14  2  0  0  0  0
 11 12  1  0  0  0  0
 11 26  1  0  0  0  0
 11 30  1  0  0  0  0
 12 13  2  0  0  0  0
 14 15  1  0  0  0  0
 14 19  1  0  0  0  0
 15 16  2  0  0  0  0
 16 17  1  0  0  0  0
 17 18  1  0  0  0  0
 17 20  2  0  0  0  0
 18 19  2  0  0  0  0
 20 21  1  0  0  0  0
 20 24  1  0  0  0  0
 21 22  1  0  0  0  0
 22 23  1  0  0  0  0
 22 25  1  0  0  0  0
 23 24  2  0  0  0  0
 26 27  1  0  0  0  0
 27 28  1  0  0  0  0
 28 29  1  0  0  0  0
 29 30  1  0  0  0  0
  2 31  1  0  0  0  0
  3 32  1  0  0  0  0
  4 33  1  0  0  0  0
  7 34  1  0  0  0  0
 10 35  1  0  0  0  0
 15 36  1  0  0  0  0
 16 37  1  0  0  0  0
 18 38  1  0  0  0  0
 19 39  1  0  0  0  0
 21 40  1  0  0  0  0
 21 41  1  0  0  0  0
 24 42  1  0  0  0  0
 25 43  1  0  0  0  0
 25 44  1  0  0  0  0
 25 45  1  0  0  0  0
 26 46  1  0  0  0  0
 26 47  1  0  0  0  0
 27 48  1  0  0  0  0
 27 49  1  0  0  0  0
 28 50  1  0  0  0  0
 29 51  1  0  0  0  0
 29 52  1  0  0  0  0
 30 53  1  0  0  0  0
 30 54  1  0  0  0  0
M  END
> <Name>
40

> <IC50[uM]>
0.007

$$$$
40
  -OEChem-05192314333D
 Structure written by MMmdl.
 54 58  0     1  0  0  0  0  0999 V2000
   -6.3583   12.3628  -12.0152 C   0  0  3  0  0  0  0  0  0  0  0  0
   -6.5007   11.8020  -10.7383 C   0  0  0  0  0  0  0  0  0  0  0  0
   -7.7096   10.5772  -13.0382 C   0  0  0  0  0  0  0  0  0  0  0  0
   -6.9777   11.7759  -13.1307 C   0  0  0  0  0  0  0  0  0  0  0  0
   -7.8132   10.0130  -11.7619 C   0  0  0  0  0  0  0  0  0  0  0  0
   -7.2338   10.6200  -10.6051 C   0  0  0  0  0  0  0  0  0  0  0  0
   -7.6121    9.7513   -9.5135 C   0  0  0  0  0  0  0  0  0  0  0  0
   -8.2831    8.7414   -9.9888 N   0  0  0  0  0  0  0  0  0  0  0  0
   -8.4159    8.8683  -11.3018 N   0  0  0  0  0  0  0  0  0  0  0  0
   -7.3364    9.8882   -8.0249 C   0  0  0  0  0  0  0  0  0  0  0  0
   -4.3745   13.7307  -11.4480 N   0  0  0  0  0  0  0  0  0  0  0  0
   -5.5401   13.6479  -12.1823 C   0  0  0  0  0  0  0  0  0  0  0  0
   -5.9305   14.5456  -12.9289 O   0  0  0  0  0  0  0  0  0  0  0  0
   -5.9622   10.4857   -7.7364 C   0  0  0  0  0  0  0  0  0  0  0  0
   -4.8106    9.7658   -8.0516 C   0  0  0  0  0  0  0  0  0  0  0  0
   -3.5548   10.3163   -7.8015 C   0  0  0  0  0  0  0  0  0  0  0  0
   -3.4456   11.5910   -7.2371 C   0  0  0  0  0  0  0  0  0  0  0  0
   -4.5995   12.3069   -6.9174 C   0  0  0  0  0  0  0  0  0  0  0  0
   -5.8550   11.7570   -7.1647 C   0  0  0  0  0  0  0  0  0  0  0  0
   -2.1008   12.1810   -6.9758 C   0  0  0  0  0  0  0  0  0  0  0  0
   -1.7660   13.4388   -6.4773 C   0  0  0  0  0  0  0  0  0  0  0  0
   -0.4314   13.4905   -6.4174 N   0  0  0  0  0  0  0  0  0  0  0  0
    0.1713   12.4042   -6.8124 N   0  0  0  0  0  0  0  0  0  0  0  0
   -0.8030   11.5879   -7.1791 C   0  0  0  0  0  0  0  0  0  0  0  0
    0.3850   14.6084   -5.9658 C   0  0  0  0  0  0  0  0  0  0  0  0
   -3.6973   12.5089  -10.9175 C   0  0  0  0  0  0  0  0  0  0  0  0
   -2.2248   12.4637  -11.4426 C   0  0  0  0  0  0  0  0  0  0  0  0
   -1.4987   13.7622  -11.0653 N   0  0  0  0  0  0  0  0  0  0  0  0
   -2.2038   14.9363  -11.7527 C   0  0  0  0  0  0  0  0  0  0  0  0
   -3.6757   15.0331  -11.3164 C   0  0  0  0  0  0  0  0  0  0  0  0
   -5.4561   11.7578  -12.1885 H   0  0  0  0  0  0  0  0  0  0  0  0
   -6.0533   12.2736   -9.8759 H   0  0  0  0  0  0  0  0  0  0  0  0
   -8.1654   10.1188  -13.9034 H   0  0  0  0  0  0  0  0  0  0  0  0
   -6.8895   12.2606  -14.0918 H   0  0  0  0  0  0  0  0  0  0  0  0
   -8.1042   10.5401   -7.5827 H   0  0  0  0  0  0  0  0  0  0  0  0
   -7.3914    8.8914   -7.5630 H   0  0  0  0  0  0  0  0  0  0  0  0
   -4.8916    8.7819   -8.4894 H   0  0  0  0  0  0  0  0  0  0  0  0
   -2.6635    9.7568   -8.0443 H   0  0  0  0  0  0  0  0  0  0  0  0
   -4.5191   13.2898   -6.4771 H   0  0  0  0  0  0  0  0  0  0  0  0
   -6.7464   12.3131   -6.9146 H   0  0  0  0  0  0  0  0  0  0  0  0
   -2.4534   14.2220   -6.1936 H   0  0  0  0  0  0  0  0  0  0  0  0
   -0.6452   10.5982   -7.5816 H   0  0  0  0  0  0  0  0  0  0  0  0
    1.4489   14.3378   -6.0355 H   0  0  0  0  0  0  0  0  0  0  0  0
    0.1877   15.4858   -6.5992 H   0  0  0  0  0  0  0  0  0  0  0  0
    0.1350   14.8465   -4.9214 H   0  0  0  0  0  0  0  0  0  0  0  0
   -3.6944   12.5388   -9.8179 H   0  0  0  0  0  0  0  0  0  0  0  0
   -4.2365   11.6128  -11.2585 H   0  0  0  0  0  0  0  0  0  0  0  0
   -1.7018   11.6081  -10.9904 H   0  0  0  0  0  0  0  0  0  0  0  0
   -2.2305   12.3532  -12.5370 H   0  0  0  0  0  0  0  0  0  0  0  0
   -1.5260   13.8871  -10.0735 H   0  0  0  0  0  0  0  0  0  0  0  0
   -1.6882   15.8706  -11.4859 H   0  0  0  0  0  0  0  0  0  0  0  0
   -2.1612   14.7923  -12.8424 H   0  0  0  0  0  0  0  0  0  0  0  0
   -4.1860   15.7766  -11.9464 H   0  0  0  0  0  0  0  0  0  0  0  0
   -3.7154   15.3542  -10.2651 H   0  0  0  0  0  0  0  0  0  0  0  0
  1  2  1  0  0  0  0
  1  4  1  0  0  0  0
  1 12  1  0  0  0  0
  2  6  2  0  0  0  0
  3  4  2  0  0  0  0
  3  5  1  0  0  0  0
  5  6  1  0  0  0  0
  5  9  2  0  0  0  0
  6  7  1  0  0  0  0
  7  8  2  0  0  0  0
  7 10  1  0  0  0  0
  8  9  1  0  0  0  0
 10 14  1  0  0  0  0
 11 12  1  0  0  0  0
 11 26  1  0  0  0  0
 11 30  1  0  0  0  0
 12 13  2  0  0  0  0
 14 15  2  0  0  0  0
 14 19  1  0  0  0  0
 15 16  1  0  0  0  0
 16 17  2  0  0  0  0
 17 18  1  0  0  0  0
 17 20  1  0  0  0  0
 18 19  2  0  0  0  0
 20 21  2  0  0  0  0
 20 24  1  0  0  0  0
 21 22  1  0  0  0  0
 22 23  1  0  0  0  0
 22 25  1  0  0  0  0
 23 24  2  0  0  0  0
 26 27  1  0  0  0  0
 27 28  1  0  0  0  0
 28 29  1  0  0  0  0
 29 30  1  0  0  0  0
  1 31  1  0  0  0  0
  2 32  1  0  0  0  0
  3 33  1  0  0  0  0
  4 34  1  0  0  0  0
 10 35  1  0  0  0  0
 10 36  1  0  0  0  0
 15 37  1  0  0  0  0
 16 38  1  0  0  0  0
 18 39  1  0  0  0  0
 19 40  1  0  0  0  0
 21 41  1  0  0  0  0
 24 42  1  0  0  0  0
 25 43  1  0  0  0  0
 25 44  1  0  0  0  0
 25 45  1  0  0  0  0
 26 46  1  0  0  0  0
 26 47  1  0  0  0  0
 27 48  1  0  0  0  0
 27 49  1  0  0  0  0
 28 50  1  0  0  0  0
 29 51  1  0  0  0  0
 29 52  1  0  0  0  0
 30 53  1  0  0  0  0
 30 54  1  0  0  0  0
M  END
> <Name>
40

> <IC50[uM]>
0.007

$$$$
40
  -OEChem-05192314333D
 Structure written by MMmdl.
 54 58  0     1  0  0  0  0  0999 V2000
   -6.3583   12.3628  -12.0152 C   0  0  0  0  0  0  0  0  0  0  0  0
   -6.5007   11.8020  -10.7383 C   0  0  0  0  0  0  0  0  0  0  0  0
   -7.7096   10.5772  -13.0382 C   0  0  0  0  0  0  0  0  0  0  0  0
   -6.9777   11.7759  -13.1307 C   0  0  0  0  0  0  0  0  0  0  0  0
   -7.8132   10.0130  -11.7619 C   0  0  0  0  0  0  0  0  0  0  0  0
   -7.2338   10.6200  -10.6051 C   0  0  3  0  0  0  0  0  0  0  0  0
   -7.6121    9.7513   -9.5135 C   0  0  0  0  0  0  0  0  0  0  0  0
   -8.2831    8.7414   -9.9888 N   0  0  0  0  0  0  0  0  0  0  0  0
   -8.4159    8.8683  -11.3018 N   0  0  0  0  0  0  0  0  0  0  0  0
   -7.3364    9.8882   -8.0249 C   0  0  0  0  0  0  0  0  0  0  0  0
   -4.3745   13.7307  -11.4480 N   0  0  0  0  0  0  0  0  0  0  0  0
   -5.5401   13.6479  -12.1823 C   0  0  0  0  0  0  0  0  0  0  0  0
   -5.9305   14.5456  -12.9289 O   0  0  0  0  0  0  0  0  0  0  0  0
   -5.9622   10.4857   -7.7364 C   0  0  0  0  0  0  0  0  0  0  0  0
   -4.8106    9.7658   -8.0516 C   0  0  0  0  0  0  0  0  0  0  0  0
   -3.5548   10.3163   -7.8015 C   0  0  0  0  0  0  0  0  0  0  0  0
   -3.4456   11.5910   -7.2371 C   0  0  0  0  0  0  0  0  0  0  0  0
   -4.5995   12.3069   -6.9174 C   0  0  0  0  0  0  0  0  0  0  0  0
   -5.8550   11.7570   -7.1647 C   0  0  0  0  0  0  0  0  0  0  0  0
   -2.1008   12.1810   -6.9758 C   0  0  0  0  0  0  0  0  0  0  0  0
   -1.7660   13.4388   -6.4773 C   0  0  0  0  0  0  0  0  0  0  0  0
   -0.4314   13.4905   -6.4174 N   0  0  0  0  0  0  0  0  0  0  0  0
    0.1713   12.4042   -6.8124 N   0  0  0  0  0  0  0  0  0  0  0  0
   -0.8030   11.5879   -7.1791 C   0  0  0  0  0  0  0  0  0  0  0  0
    0.3850   14.6084   -5.9658 C   0  0  0  0  0  0  0  0  0  0  0  0
   -3.6973   12.5089  -10.9175 C   0  0  0  0  0  0  0  0  0  0  0  0
   -2.2248   12.4637  -11.4426 C   0  0  0  0  0  0  0  0  0  0  0  0
   -1.4987   13.7622  -11.0653 N   0  0  0  0  0  0  0  0  0  0  0  0
   -2.2038   14.9363  -11.7527 C   0  0  0  0  0  0  0  0  0  0  0  0
   -3.6757   15.0331  -11.3164 C   0  0  0  0  0  0  0  0  0  0  0  0
   -6.0533   12.2736   -9.8759 H   0  0  0  0  0  0  0  0  0  0  0  0
   -8.1654   10.1188  -13.9034 H   0  0  0  0  0  0  0  0  0  0  0  0
   -6.8895   12.2606  -14.0918 H   0  0  0  0  0  0  0  0  0  0  0  0
   -6.3160   10.0327  -10.7556 H   0  0  0  0  0  0  0  0  0  0  0  0
   -8.1042   10.5401   -7.5827 H   0  0  0  0  0  0  0  0  0  0  0  0
   -7.3914    8.8914   -7.5630 H   0  0  0  0  0  0  0  0  0  0  0  0
   -4.8916    8.7819   -8.4894 H   0  0  0  0  0  0  0  0  0  0  0  0
   -2.6635    9.7568   -8.0443 H   0  0  0  0  0  0  0  0  0  0  0  0
   -4.5191   13.2898   -6.4771 H   0  0  0  0  0  0  0  0  0  0  0  0
   -6.7464   12.3131   -6.9146 H   0  0  0  0  0  0  0  0  0  0  0  0
   -2.4534   14.2220   -6.1936 H   0  0  0  0  0  0  0  0  0  0  0  0
   -0.6452   10.5982   -7.5816 H   0  0  0  0  0  0  0  0  0  0  0  0
    1.4489   14.3378   -6.0355 H   0  0  0  0  0  0  0  0  0  0  0  0
    0.1877   15.4858   -6.5992 H   0  0  0  0  0  0  0  0  0  0  0  0
    0.1350   14.8465   -4.9214 H   0  0  0  0  0  0  0  0  0  0  0  0
   -3.6944   12.5388   -9.8179 H   0  0  0  0  0  0  0  0  0  0  0  0
   -4.2365   11.6128  -11.2585 H   0  0  0  0  0  0  0  0  0  0  0  0
   -1.7018   11.6081  -10.9904 H   0  0  0  0  0  0  0  0  0  0  0  0
   -2.2305   12.3532  -12.5370 H   0  0  0  0  0  0  0  0  0  0  0  0
   -1.5260   13.8871  -10.0735 H   0  0  0  0  0  0  0  0  0  0  0  0
   -1.6882   15.8706  -11.4859 H   0  0  0  0  0  0  0  0  0  0  0  0
   -2.1612   14.7923  -12.8424 H   0  0  0  0  0  0  0  0  0  0  0  0
   -4.1860   15.7766  -11.9464 H   0  0  0  0  0  0  0  0  0  0  0  0
   -3.7154   15.3542  -10.2651 H   0  0  0  0  0  0  0  0  0  0  0  0
  1  2  2  0  0  0  0
  1  4  1  0  0  0  0
  1 12  1  0  0  0  0
  2  6  1  0  0  0  0
  3  4  2  0  0  0  0
  3  5  1  0  0  0  0
  5  6  1  0  0  0  0
  5  9  2  0  0  0  0
  6  7  1  0  0  0  0
  7  8  2  0  0  0  0
  7 10  1  0  0  0  0
  8  9  1  0  0  0  0
 10 14  1  0  0  0  0
 11 12  1  0  0  0  0
 11 26  1  0  0  0  0
 11 30  1  0  0  0  0
 12 13  2  0  0  0  0
 14 15  2  0  0  0  0
 14 19  1  0  0  0  0
 15 16  1  0  0  0  0
 16 17  2  0  0  0  0
 17 18  1  0  0  0  0
 17 20  1  0  0  0  0
 18 19  2  0  0  0  0
 20 21  2  0  0  0  0
 20 24  1  0  0  0  0
 21 22  1  0  0  0  0
 22 23  1  0  0  0  0
 22 25  1  0  0  0  0
 23 24  2  0  0  0  0
 26 27  1  0  0  0  0
 27 28  1  0  0  0  0
 28 29  1  0  0  0  0
 29 30  1  0  0  0  0
  2 31  1  0  0  0  0
  3 32  1  0  0  0  0
  4 33  1  0  0  0  0
  6 34  1  0  0  0  0
 10 35  1  0  0  0  0
 10 36  1  0  0  0  0
 15 37  1  0  0  0  0
 16 38  1  0  0  0  0
 18 39  1  0  0  0  0
 19 40  1  0  0  0  0
 21 41  1  0  0  0  0
 24 42  1  0  0  0  0
 25 43  1  0  0  0  0
 25 44  1  0  0  0  0
 25 45  1  0  0  0  0
 26 46  1  0  0  0  0
 26 47  1  0  0  0  0
 27 48  1  0  0  0  0
 27 49  1  0  0  0  0
 28 50  1  0  0  0  0
 29 51  1  0  0  0  0
 29 52  1  0  0  0  0
 30 53  1  0  0  0  0
 30 54  1  0  0  0  0
M  END
> <Name>
40

> <IC50[uM]>
0.007

$$$$
40
  -OEChem-05192314333D
 Structure written by MMmdl.
 54 58  0     0  0  0  0  0  0999 V2000
   -6.3583   12.3628  -12.0152 C   0  0  0  0  0  0  0  0  0  0  0  0
   -6.5007   11.8020  -10.7383 C   0  0  0  0  0  0  0  0  0  0  0  0
   -7.7096   10.5772  -13.0382 C   0  0  0  0  0  0  0  0  0  0  0  0
   -6.9777   11.7759  -13.1307 C   0  0  0  0  0  0  0  0  0  0  0  0
   -7.8132   10.0130  -11.7619 C   0  0  0  0  0  0  0  0  0  0  0  0
   -7.2338   10.6200  -10.6051 C   0  0  0  0  0  0  0  0  0  0  0  0
   -7.6121    9.7513   -9.5135 C   0  0  0  0  0  0  0  0  0  0  0  0
   -8.2831    8.7414   -9.9888 N   0  0  0  0  0  0  0  0  0  0  0  0
   -8.4159    8.8683  -11.3018 N   0  0  0  0  0  0  0  0  0  0  0  0
   -7.3364    9.8882   -8.0249 C   0  0  0  0  0  0  0  0  0  0  0  0
   -4.3745   13.7307  -11.4480 N   0  0  0  0  0  0  0  0  0  0  0  0
   -5.5401   13.6479  -12.1823 C   0  0  0  0  0  0  0  0  0  0  0  0
   -5.9305   14.5456  -12.9289 O   0  0  0  0  0  0  0  0  0  0  0  0
   -5.9622   10.4857   -7.7364 C   0  0  0  0  0  0  0  0  0  0  0  0
   -4.8106    9.7658   -8.0516 C   0  0  0  0  0  0  0  0  0  0  0  0
   -3.5548   10.3163   -7.8015 C   0  0  0  0  0  0  0  0  0  0  0  0
   -3.4456   11.5910   -7.2371 C   0  0  0  0  0  0  0  0  0  0  0  0
   -4.5995   12.3069   -6.9174 C   0  0  0  0  0  0  0  0  0  0  0  0
   -5.8550   11.7570   -7.1647 C   0  0  0  0  0  0  0  0  0  0  0  0
   -2.1008   12.1810   -6.9758 C   0  0  0  0  0  0  0  0  0  0  0  0
   -1.7660   13.4388   -6.4773 C   0  0  0  0  0  0  0  0  0  0  0  0
   -0.4314   13.4905   -6.4174 N   0  0  0  0  0  0  0  0  0  0  0  0
    0.1713   12.4042   -6.8124 N   0  0  0  0  0  0  0  0  0  0  0  0
   -0.8030   11.5879   -7.1791 C   0  0  0  0  0  0  0  0  0  0  0  0
    0.3850   14.6084   -5.9658 C   0  0  0  0  0  0  0  0  0  0  0  0
   -3.6973   12.5089  -10.9175 C   0  0  0  0  0  0  0  0  0  0  0  0
   -2.2248   12.4637  -11.4426 C   0  0  0  0  0  0  0  0  0  0  0  0
   -1.4987   13.7622  -11.0653 N   0  0  0  0  0  0  0  0  0  0  0  0
   -2.2038   14.9363  -11.7527 C   0  0  0  0  0  0  0  0  0  0  0  0
   -3.6757   15.0331  -11.3164 C   0  0  0  0  0  0  0  0  0  0  0  0
   -6.0533   12.2736   -9.8759 H   0  0  0  0  0  0  0  0  0  0  0  0
   -8.7288   10.7776  -13.4002 H   0  0  0  0  0  0  0  0  0  0  0  0
   -7.2265    9.8377  -13.6937 H   0  0  0  0  0  0  0  0  0  0  0  0
   -6.8895   12.2606  -14.0918 H   0  0  0  0  0  0  0  0  0  0  0  0
   -8.1042   10.5401   -7.5827 H   0  0  0  0  0  0  0  0  0  0  0  0
   -7.3914    8.8914   -7.5630 H   0  0  0  0  0  0  0  0  0  0  0  0
   -4.8916    8.7819   -8.4894 H   0  0  0  0  0  0  0  0  0  0  0  0
   -2.6635    9.7568   -8.0443 H   0  0  0  0  0  0  0  0  0  0  0  0
   -4.5191   13.2898   -6.4771 H   0  0  0  0  0  0  0  0  0  0  0  0
   -6.7464   12.3131   -6.9146 H   0  0  0  0  0  0  0  0  0  0  0  0
   -2.4534   14.2220   -6.1936 H   0  0  0  0  0  0  0  0  0  0  0  0
   -0.6452   10.5982   -7.5816 H   0  0  0  0  0  0  0  0  0  0  0  0
    1.4489   14.3378   -6.0355 H   0  0  0  0  0  0  0  0  0  0  0  0
    0.1877   15.4858   -6.5992 H   0  0  0  0  0  0  0  0  0  0  0  0
    0.1350   14.8465   -4.9214 H   0  0  0  0  0  0  0  0  0  0  0  0
   -3.6944   12.5388   -9.8179 H   0  0  0  0  0  0  0  0  0  0  0  0
   -4.2365   11.6128  -11.2585 H   0  0  0  0  0  0  0  0  0  0  0  0
   -1.7018   11.6081  -10.9904 H   0  0  0  0  0  0  0  0  0  0  0  0
   -2.2305   12.3532  -12.5370 H   0  0  0  0  0  0  0  0  0  0  0  0
   -1.5260   13.8871  -10.0735 H   0  0  0  0  0  0  0  0  0  0  0  0
   -1.6882   15.8706  -11.4859 H   0  0  0  0  0  0  0  0  0  0  0  0
   -2.1612   14.7923  -12.8424 H   0  0  0  0  0  0  0  0  0  0  0  0
   -4.1860   15.7766  -11.9464 H   0  0  0  0  0  0  0  0  0  0  0  0
   -3.7154   15.3542  -10.2651 H   0  0  0  0  0  0  0  0  0  0  0  0
  1  2  1  0  0  0  0
  1  4  2  0  0  0  0
  1 12  1  0  0  0  0
  2  6  2  0  0  0  0
  3  4  1  0  0  0  0
  3  5  1  0  0  0  0
  5  6  1  0  0  0  0
  5  9  2  0  0  0  0
  6  7  1  0  0  0  0
  7  8  2  0  0  0  0
  7 10  1  0  0  0  0
  8  9  1  0  0  0  0
 10 14  1  0  0  0  0
 11 12  1  0  0  0  0
 11 26  1  0  0  0  0
 11 30  1  0  0  0  0
 12 13  2  0  0  0  0
 14 15  2  0  0  0  0
 14 19  1  0  0  0  0
 15 16  1  0  0  0  0
 16 17  2  0  0  0  0
 17 18  1  0  0  0  0
 17 20  1  0  0  0  0
 18 19  2  0  0  0  0
 20 21  2  0  0  0  0
 20 24  1  0  0  0  0
 21 22  1  0  0  0  0
 22 23  1  0  0  0  0
 22 25  1  0  0  0  0
 23 24  2  0  0  0  0
 26 27  1  0  0  0  0
 27 28  1  0  0  0  0
 28 29  1  0  0  0  0
 29 30  1  0  0  0  0
  2 31  1  0  0  0  0
  3 32  1  0  0  0  0
  3 33  1  0  0  0  0
  4 34  1  0  0  0  0
 10 35  1  0  0  0  0
 10 36  1  0  0  0  0
 15 37  1  0  0  0  0
 16 38  1  0  0  0  0
 18 39  1  0  0  0  0
 19 40  1  0  0  0  0
 21 41  1  0  0  0  0
 24 42  1  0  0  0  0
 25 43  1  0  0  0  0
 25 44  1  0  0  0  0
 25 45  1  0  0  0  0
 26 46  1  0  0  0  0
 26 47  1  0  0  0  0
 27 48  1  0  0  0  0
 27 49  1  0  0  0  0
 28 50  1  0  0  0  0
 29 51  1  0  0  0  0
 29 52  1  0  0  0  0
 30 53  1  0  0  0  0
 30 54  1  0  0  0  0
M  END
> <Name>
40

> <IC50[uM]>
0.007

$$$$
40
  -OEChem-05192314333D
 Structure written by MMmdl.
 54 58  0     0  0  0  0  0  0999 V2000
   -6.3583   12.3628  -12.0152 C   0  0  0  0  0  0  0  0  0  0  0  0
   -6.5007   11.8020  -10.7383 C   0  0  0  0  0  0  0  0  0  0  0  0
   -7.7096   10.5772  -13.0382 C   0  0  0  0  0  0  0  0  0  0  0  0
   -6.9777   11.7759  -13.1307 C   0  0  0  0  0  0  0  0  0  0  0  0
   -7.8132   10.0130  -11.7619 C   0  0  0  0  0  0  0  0  0  0  0  0
   -7.2338   10.6200  -10.6051 C   0  0  0  0  0  0  0  0  0  0  0  0
   -7.6121    9.7513   -9.5135 C   0  0  0  0  0  0  0  0  0  0  0  0
   -8.2831    8.7414   -9.9888 N   0  0  0  0  0  0  0  0  0  0  0  0
   -8.4159    8.8683  -11.3018 N   0  0  0  0  0  0  0  0  0  0  0  0
   -7.3364    9.8882   -8.0249 C   0  0  0  0  0  0  0  0  0  0  0  0
   -4.3745   13.7307  -11.4480 N   0  0  0  0  0  0  0  0  0  0  0  0
   -5.5401   13.6479  -12.1823 C   0  0  0  0  0  0  0  0  0  0  0  0
   -5.9305   14.5456  -12.9289 O   0  0  0  0  0  0  0  0  0  0  0  0
   -5.9622   10.4857   -7.7364 C   0  0  0  0  0  0  0  0  0  0  0  0
   -4.8106    9.7658   -8.0516 C   0  0  0  0  0  0  0  0  0  0  0  0
   -3.5548   10.3163   -7.8015 C   0  0  0  0  0  0  0  0  0  0  0  0
   -3.4456   11.5910   -7.2371 C   0  0  0  0  0  0  0  0  0  0  0  0
   -4.5995   12.3069   -6.9174 C   0  0  0  0  0  0  0  0  0  0  0  0
   -5.8550   11.7570   -7.1647 C   0  0  0  0  0  0  0  0  0  0  0  0
   -2.1008   12.1810   -6.9758 C   0  0  0  0  0  0  0  0  0  0  0  0
   -1.7660   13.4388   -6.4773 C   0  0  0  0  0  0  0  0  0  0  0  0
   -0.4314   13.4905   -6.4174 N   0  0  0  0  0  0  0  0  0  0  0  0
    0.1713   12.4042   -6.8124 N   0  0  0  0  0  0  0  0  0  0  0  0
   -0.8030   11.5879   -7.1791 C   0  0  0  0  0  0  0  0  0  0  0  0
    0.3850   14.6084   -5.9658 C   0  0  0  0  0  0  0  0  0  0  0  0
   -3.6973   12.5089  -10.9175 C   0  0  0  0  0  0  0  0  0  0  0  0
   -2.2248   12.4637  -11.4426 C   0  0  0  0  0  0  0  0  0  0  0  0
   -1.4987   13.7622  -11.0653 N   0  0  0  0  0  0  0  0  0  0  0  0
   -2.2038   14.9363  -11.7527 C   0  0  0  0  0  0  0  0  0  0  0  0
   -3.6757   15.0331  -11.3164 C   0  0  0  0  0  0  0  0  0  0  0  0
   -6.0533   12.2736   -9.8759 H   0  0  0  0  0  0  0  0  0  0  0  0
   -8.1654   10.1188  -13.9034 H   0  0  0  0  0  0  0  0  0  0  0  0
   -6.8895   12.2606  -14.0918 H   0  0  0  0  0  0  0  0  0  0  0  0
   -8.0360    9.5949   -7.2562 H   0  0  0  0  0  0  0  0  0  0  0  0
   -5.9735   10.0332   -6.7338 H   0  0  0  0  0  0  0  0  0  0  0  0
   -4.8916    8.7819   -8.4894 H   0  0  0  0  0  0  0  0  0  0  0  0
   -2.6635    9.7568   -8.0443 H   0  0  0  0  0  0  0  0  0  0  0  0
   -3.4466   12.0370   -8.2426 H   0  0  0  0  0  0  0  0  0  0  0  0
   -4.5191   13.2898   -6.4771 H   0  0  0  0  0  0  0  0  0  0  0  0
   -6.7464   12.3131   -6.9146 H   0  0  0  0  0  0  0  0  0  0  0  0
   -2.4534   14.2220   -6.1936 H   0  0  0  0  0  0  0  0  0  0  0  0
   -0.6452   10.5982   -7.5816 H   0  0  0  0  0  0  0  0  0  0  0  0
    1.4489   14.3378   -6.0355 H   0  0  0  0  0  0  0  0  0  0  0  0
    0.1877   15.4858   -6.5992 H   0  0  0  0  0  0  0  0  0  0  0  0
    0.1350   14.8465   -4.9214 H   0  0  0  0  0  0  0  0  0  0  0  0
   -3.6944   12.5388   -9.8179 H   0  0  0  0  0  0  0  0  0  0  0  0
   -4.2365   11.6128  -11.2585 H   0  0  0  0  0  0  0  0  0  0  0  0
   -1.7018   11.6081  -10.9904 H   0  0  0  0  0  0  0  0  0  0  0  0
   -2.2305   12.3532  -12.5370 H   0  0  0  0  0  0  0  0  0  0  0  0
   -1.5260   13.8871  -10.0735 H   0  0  0  0  0  0  0  0  0  0  0  0
   -1.6882   15.8706  -11.4859 H   0  0  0  0  0  0  0  0  0  0  0  0
   -2.1612   14.7923  -12.8424 H   0  0  0  0  0  0  0  0  0  0  0  0
   -4.1860   15.7766  -11.9464 H   0  0  0  0  0  0  0  0  0  0  0  0
   -3.7154   15.3542  -10.2651 H   0  0  0  0  0  0  0  0  0  0  0  0
  1  2  2  0  0  0  0
  1  4  1  0  0  0  0
  1 12  1  0  0  0  0
  2  6  1  0  0  0  0
  3  4  2  0  0  0  0
  3  5  1  0  0  0  0
  5  6  2  0  0  0  0
  5  9  1  0  0  0  0
  6  7  1  0  0  0  0
  7  8  1  0  0  0  0
  7 10  2  3  0  0  0
  8  9  2  0  0  0  0
 10 14  1  0  0  0  0
 11 12  1  0  0  0  0
 11 26  1  0  0  0  0
 11 30  1  0  0  0  0
 12 13  2  0  0  0  0
 14 15  1  0  0  0  0
 14 19  1  0  0  0  0
 15 16  2  0  0  0  0
 16 17  1  0  0  0  0
 17 18  1  0  0  0  0
 17 20  1  0  0  0  0
 18 19  2  0  0  0  0
 20 21  2  0  0  0  0
 20 24  1  0  0  0  0
 21 22  1  0  0  0  0
 22 23  1  0  0  0  0
 22 25  1  0  0  0  0
 23 24  2  0  0  0  0
 26 27  1  0  0  0  0
 27 28  1  0  0  0  0
 28 29  1  0  0  0  0
 29 30  1  0  0  0  0
  2 31  1  0  0  0  0
  3 32  1  0  0  0  0
  4 33  1  0  0  0  0
 10 34  1  0  0  0  0
 14 35  1  0  0  0  0
 15 36  1  0  0  0  0
 16 37  1  0  0  0  0
 17 38  1  0  0  0  0
 18 39  1  0  0  0  0
 19 40  1  0  0  0  0
 21 41  1  0  0  0  0
 24 42  1  0  0  0  0
 25 43  1  0  0  0  0
 25 44  1  0  0  0  0
 25 45  1  0  0  0  0
 26 46  1  0  0  0  0
 26 47  1  0  0  0  0
 27 48  1  0  0  0  0
 27 49  1  0  0  0  0
 28 50  1  0  0  0  0
 29 51  1  0  0  0  0
 29 52  1  0  0  0  0
 30 53  1  0  0  0  0
 30 54  1  0  0  0  0
M  END
> <Name>
40

> <IC50[uM]>
0.007

$$$$
40
  -OEChem-05192314333D
 Structure written by MMmdl.
 54 58  0     1  0  0  0  0  0999 V2000
   -6.3583   12.3628  -12.0152 C   0  0  0  0  0  0  0  0  0  0  0  0
   -6.5007   11.8020  -10.7383 C   0  0  0  0  0  0  0  0  0  0  0  0
   -7.7096   10.5772  -13.0382 C   0  0  0  0  0  0  0  0  0  0  0  0
   -6.9777   11.7759  -13.1307 C   0  0  0  0  0  0  0  0  0  0  0  0
   -7.8132   10.0130  -11.7619 C   0  0  0  0  0  0  0  0  0  0  0  0
   -7.2338   10.6200  -10.6051 C   0  0  0  0  0  0  0  0  0  0  0  0
   -7.6121    9.7513   -9.5135 C   0  0  3  0  0  0  0  0  0  0  0  0
   -8.2831    8.7414   -9.9888 N   0  0  0  0  0  0  0  0  0  0  0  0
   -8.4159    8.8683  -11.3018 N   0  0  0  0  0  0  0  0  0  0  0  0
   -7.3364    9.8882   -8.0249 C   0  0  0  0  0  0  0  0  0  0  0  0
   -4.3745   13.7307  -11.4480 N   0  0  0  0  0  0  0  0  0  0  0  0
   -5.5401   13.6479  -12.1823 C   0  0  0  0  0  0  0  0  0  0  0  0
   -5.9305   14.5456  -12.9289 O   0  0  0  0  0  0  0  0  0  0  0  0
   -5.9622   10.4857   -7.7364 C   0  0  0  0  0  0  0  0  0  0  0  0
   -4.8106    9.7658   -8.0516 C   0  0  0  0  0  0  0  0  0  0  0  0
   -3.5548   10.3163   -7.8015 C   0  0  0  0  0  0  0  0  0  0  0  0
   -3.4456   11.5910   -7.2371 C   0  0  0  0  0  0  0  0  0  0  0  0
   -4.5995   12.3069   -6.9174 C   0  0  0  0  0  0  0  0  0  0  0  0
   -5.8550   11.7570   -7.1647 C   0  0  0  0  0  0  0  0  0  0  0  0
   -2.1008   12.1810   -6.9758 C   0  0  0  0  0  0  0  0  0  0  0  0
   -1.7660   13.4388   -6.4773 C   0  0  0  0  0  0  0  0  0  0  0  0
   -0.4314   13.4905   -6.4174 N   0  0  0  0  0  0  0  0  0  0  0  0
    0.1713   12.4042   -6.8124 N   0  0  0  0  0  0  0  0  0  0  0  0
   -0.8030   11.5879   -7.1791 C   0  0  0  0  0  0  0  0  0  0  0  0
    0.3850   14.6084   -5.9658 C   0  0  0  0  0  0  0  0  0  0  0  0
   -3.6973   12.5089  -10.9175 C   0  0  0  0  0  0  0  0  0  0  0  0
   -2.2248   12.4637  -11.4426 C   0  0  0  0  0  0  0  0  0  0  0  0
   -1.4987   13.7622  -11.0653 N   0  0  0  0  0  0  0  0  0  0  0  0
   -2.2038   14.9363  -11.7527 C   0  0  0  0  0  0  0  0  0  0  0  0
   -3.6757   15.0331  -11.3164 C   0  0  0  0  0  0  0  0  0  0  0  0
   -6.0533   12.2736   -9.8759 H   0  0  0  0  0  0  0  0  0  0  0  0
   -8.1654   10.1188  -13.9034 H   0  0  0  0  0  0  0  0  0  0  0  0
   -6.8895   12.2606  -14.0918 H   0  0  0  0  0  0  0  0  0  0  0  0
   -6.6753    9.1879   -9.6361 H   0  0  0  0  0  0  0  0  0  0  0  0
   -8.0360    9.5949   -7.2562 H   0  0  0  0  0  0  0  0  0  0  0  0
   -4.8916    8.7819   -8.4894 H   0  0  0  0  0  0  0  0  0  0  0  0
   -2.6635    9.7568   -8.0443 H   0  0  0  0  0  0  0  0  0  0  0  0
   -3.4466   12.0370   -8.2426 H   0  0  0  0  0  0  0  0  0  0  0  0
   -4.5191   13.2898   -6.4771 H   0  0  0  0  0  0  0  0  0  0  0  0
   -6.7464   12.3131   -6.9146 H   0  0  0  0  0  0  0  0  0  0  0  0
   -2.4534   14.2220   -6.1936 H   0  0  0  0  0  0  0  0  0  0  0  0
   -0.6452   10.5982   -7.5816 H   0  0  0  0  0  0  0  0  0  0  0  0
    1.4489   14.3378   -6.0355 H   0  0  0  0  0  0  0  0  0  0  0  0
    0.1877   15.4858   -6.5992 H   0  0  0  0  0  0  0  0  0  0  0  0
    0.1350   14.8465   -4.9214 H   0  0  0  0  0  0  0  0  0  0  0  0
   -3.6944   12.5388   -9.8179 H   0  0  0  0  0  0  0  0  0  0  0  0
   -4.2365   11.6128  -11.2585 H   0  0  0  0  0  0  0  0  0  0  0  0
   -1.7018   11.6081  -10.9904 H   0  0  0  0  0  0  0  0  0  0  0  0
   -2.2305   12.3532  -12.5370 H   0  0  0  0  0  0  0  0  0  0  0  0
   -1.5260   13.8871  -10.0735 H   0  0  0  0  0  0  0  0  0  0  0  0
   -1.6882   15.8706  -11.4859 H   0  0  0  0  0  0  0  0  0  0  0  0
   -2.1612   14.7923  -12.8424 H   0  0  0  0  0  0  0  0  0  0  0  0
   -4.1860   15.7766  -11.9464 H   0  0  0  0  0  0  0  0  0  0  0  0
   -3.7154   15.3542  -10.2651 H   0  0  0  0  0  0  0  0  0  0  0  0
  1  2  2  0  0  0  0
  1  4  1  0  0  0  0
  1 12  1  0  0  0  0
  2  6  1  0  0  0  0
  3  4  2  0  0  0  0
  3  5  1  0  0  0  0
  5  6  2  0  0  0  0
  5  9  1  0  0  0  0
  6  7  1  0  0  0  0
  7  8  1  0  0  0  0
  7 10  1  0  0  0  0
  8  9  2  0  0  0  0
 10 14  2  0  0  0  0
 11 12  1  0  0  0  0
 11 26  1  0  0  0  0
 11 30  1  0  0  0  0
 12 13  2  0  0  0  0
 14 15  1  0  0  0  0
 14 19  1  0  0  0  0
 15 16  2  0  0  0  0
 16 17  1  0  0  0  0
 17 18  1  0  0  0  0
 17 20  1  0  0  0  0
 18 19  2  0  0  0  0
 20 21  2  0  0  0  0
 20 24  1  0  0  0  0
 21 22  1  0  0  0  0
 22 23  1  0  0  0  0
 22 25  1  0  0  0  0
 23 24  2  0  0  0  0
 26 27  1  0  0  0  0
 27 28  1  0  0  0  0
 28 29  1  0  0  0  0
 29 30  1  0  0  0  0
  2 31  1  0  0  0  0
  3 32  1  0  0  0  0
  4 33  1  0  0  0  0
  7 34  1  0  0  0  0
 10 35  1  0  0  0  0
 15 36  1  0  0  0  0
 16 37  1  0  0  0  0
 17 38  1  0  0  0  0
 18 39  1  0  0  0  0
 19 40  1  0  0  0  0
 21 41  1  0  0  0  0
 24 42  1  0  0  0  0
 25 43  1  0  0  0  0
 25 44  1  0  0  0  0
 25 45  1  0  0  0  0
 26 46  1  0  0  0  0
 26 47  1  0  0  0  0
 27 48  1  0  0  0  0
 27 49  1  0  0  0  0
 28 50  1  0  0  0  0
 29 51  1  0  0  0  0
 29 52  1  0  0  0  0
 30 53  1  0  0  0  0
 30 54  1  0  0  0  0
M  END
> <Name>
40

> <IC50[uM]>
0.007

$$$$
40
  -OEChem-05192314333D
 Structure written by MMmdl.
 54 58  0     1  0  0  0  0  0999 V2000
   -6.3583   12.3628  -12.0152 C   0  0  3  0  0  0  0  0  0  0  0  0
   -6.5007   11.8020  -10.7383 C   0  0  0  0  0  0  0  0  0  0  0  0
   -7.7096   10.5772  -13.0382 C   0  0  0  0  0  0  0  0  0  0  0  0
   -6.9777   11.7759  -13.1307 C   0  0  0  0  0  0  0  0  0  0  0  0
   -7.8132   10.0130  -11.7619 C   0  0  3  0  0  0  0  0  0  0  0  0
   -7.2338   10.6200  -10.6051 C   0  0  0  0  0  0  0  0  0  0  0  0
   -7.6121    9.7513   -9.5135 C   0  0  0  0  0  0  0  0  0  0  0  0
   -8.2831    8.7414   -9.9888 N   0  0  0  0  0  0  0  0  0  0  0  0
   -8.4159    8.8683  -11.3018 N   0  0  0  0  0  0  0  0  0  0  0  0
   -7.3364    9.8882   -8.0249 C   0  0  0  0  0  0  0  0  0  0  0  0
   -4.3745   13.7307  -11.4480 N   0  0  0  0  0  0  0  0  0  0  0  0
   -5.5401   13.6479  -12.1823 C   0  0  0  0  0  0  0  0  0  0  0  0
   -5.9305   14.5456  -12.9289 O   0  0  0  0  0  0  0  0  0  0  0  0
   -5.9622   10.4857   -7.7364 C   0  0  0  0  0  0  0  0  0  0  0  0
   -4.8106    9.7658   -8.0516 C   0  0  0  0  0  0  0  0  0  0  0  0
   -3.5548   10.3163   -7.8015 C   0  0  0  0  0  0  0  0  0  0  0  0
   -3.4456   11.5910   -7.2371 C   0  0  0  0  0  0  0  0  0  0  0  0
   -4.5995   12.3069   -6.9174 C   0  0  0  0  0  0  0  0  0  0  0  0
   -5.8550   11.7570   -7.1647 C   0  0  0  0  0  0  0  0  0  0  0  0
   -2.1008   12.1810   -6.9758 C   0  0  0  0  0  0  0  0  0  0  0  0
   -1.7660   13.4388   -6.4773 C   0  0  0  0  0  0  0  0  0  0  0  0
   -0.4314   13.4905   -6.4174 N   0  0  0  0  0  0  0  0  0  0  0  0
    0.1713   12.4042   -6.8124 N   0  0  0  0  0  0  0  0  0  0  0  0
   -0.8030   11.5879   -7.1791 C   0  0  0  0  0  0  0  0  0  0  0  0
    0.3850   14.6084   -5.9658 C   0  0  0  0  0  0  0  0  0  0  0  0
   -3.6973   12.5089  -10.9175 C   0  0  0  0  0  0  0  0  0  0  0  0
   -2.2248   12.4637  -11.4426 C   0  0  0  0  0  0  0  0  0  0  0  0
   -1.4987   13.7622  -11.0653 N   0  0  0  0  0  0  0  0  0  0  0  0
   -2.2038   14.9363  -11.7527 C   0  0  0  0  0  0  0  0  0  0  0  0
   -3.6757   15.0331  -11.3164 C   0  0  0  0  0  0  0  0  0  0  0  0
   -5.4561   11.7578  -12.1885 H   0  0  0  0  0  0  0  0  0  0  0  0
   -6.0533   12.2736   -9.8759 H   0  0  0  0  0  0  0  0  0  0  0  0
   -8.1654   10.1188  -13.9034 H   0  0  0  0  0  0  0  0  0  0  0  0
   -6.8895   12.2606  -14.0918 H   0  0  0  0  0  0  0  0  0  0  0  0
   -8.7443   10.5728  -11.5897 H   0  0  0  0  0  0  0  0  0  0  0  0
   -8.0360    9.5949   -7.2562 H   0  0  0  0  0  0  0  0  0  0  0  0
   -4.8916    8.7819   -8.4894 H   0  0  0  0  0  0  0  0  0  0  0  0
   -2.6635    9.7568   -8.0443 H   0  0  0  0  0  0  0  0  0  0  0  0
   -4.5191   13.2898   -6.4771 H   0  0  0  0  0  0  0  0  0  0  0  0
   -6.7464   12.3131   -6.9146 H   0  0  0  0  0  0  0  0  0  0  0  0
   -2.4534   14.2220   -6.1936 H   0  0  0  0  0  0  0  0  0  0  0  0
   -0.6452   10.5982   -7.5816 H   0  0  0  0  0  0  0  0  0  0  0  0
    1.4489   14.3378   -6.0355 H   0  0  0  0  0  0  0  0  0  0  0  0
    0.1877   15.4858   -6.5992 H   0  0  0  0  0  0  0  0  0  0  0  0
    0.1350   14.8465   -4.9214 H   0  0  0  0  0  0  0  0  0  0  0  0
   -3.6944   12.5388   -9.8179 H   0  0  0  0  0  0  0  0  0  0  0  0
   -4.2365   11.6128  -11.2585 H   0  0  0  0  0  0  0  0  0  0  0  0
   -1.7018   11.6081  -10.9904 H   0  0  0  0  0  0  0  0  0  0  0  0
   -2.2305   12.3532  -12.5370 H   0  0  0  0  0  0  0  0  0  0  0  0
   -1.5260   13.8871  -10.0735 H   0  0  0  0  0  0  0  0  0  0  0  0
   -1.6882   15.8706  -11.4859 H   0  0  0  0  0  0  0  0  0  0  0  0
   -2.1612   14.7923  -12.8424 H   0  0  0  0  0  0  0  0  0  0  0  0
   -4.1860   15.7766  -11.9464 H   0  0  0  0  0  0  0  0  0  0  0  0
   -3.7154   15.3542  -10.2651 H   0  0  0  0  0  0  0  0  0  0  0  0
  1  2  1  0  0  0  0
  1  4  1  0  0  0  0
  1 12  1  0  0  0  0
  2  6  2  0  0  0  0
  3  4  2  0  0  0  0
  3  5  1  0  0  0  0
  5  6  1  0  0  0  0
  5  9  1  0  0  0  0
  6  7  1  0  0  0  0
  7  8  1  0  0  0  0
  7 10  2  3  0  0  0
  8  9  2  0  0  0  0
 10 14  1  0  0  0  0
 11 12  1  0  0  0  0
 11 26  1  0  0  0  0
 11 30  1  0  0  0  0
 12 13  2  0  0  0  0
 14 15  2  0  0  0  0
 14 19  1  0  0  0  0
 15 16  1  0  0  0  0
 16 17  2  0  0  0  0
 17 18  1  0  0  0  0
 17 20  1  0  0  0  0
 18 19  2  0  0  0  0
 20 21  2  0  0  0  0
 20 24  1  0  0  0  0
 21 22  1  0  0  0  0
 22 23  1  0  0  0  0
 22 25  1  0  0  0  0
 23 24  2  0  0  0  0
 26 27  1  0  0  0  0
 27 28  1  0  0  0  0
 28 29  1  0  0  0  0
 29 30  1  0  0  0  0
  1 31  1  0  0  0  0
  2 32  1  0  0  0  0
  3 33  1  0  0  0  0
  4 34  1  0  0  0  0
  5 35  1  0  0  0  0
 10 36  1  0  0  0  0
 15 37  1  0  0  0  0
 16 38  1  0  0  0  0
 18 39  1  0  0  0  0
 19 40  1  0  0  0  0
 21 41  1  0  0  0  0
 24 42  1  0  0  0  0
 25 43  1  0  0  0  0
 25 44  1  0  0  0  0
 25 45  1  0  0  0  0
 26 46  1  0  0  0  0
 26 47  1  0  0  0  0
 27 48  1  0  0  0  0
 27 49  1  0  0  0  0
 28 50  1  0  0  0  0
 29 51  1  0  0  0  0
 29 52  1  0  0  0  0
 30 53  1  0  0  0  0
 30 54  1  0  0  0  0
M  END
> <Name>
40

> <IC50[uM]>
0.007

$$$$
40
  -OEChem-05192314333D
 Structure written by MMmdl.
 54 58  0     1  0  0  0  0  0999 V2000
   -6.3583   12.3628  -12.0152 C   0  0  0  0  0  0  0  0  0  0  0  0
   -6.5007   11.8020  -10.7383 C   0  0  0  0  0  0  0  0  0  0  0  0
   -7.7096   10.5772  -13.0382 C   0  0  0  0  0  0  0  0  0  0  0  0
   -6.9777   11.7759  -13.1307 C   0  0  0  0  0  0  0  0  0  0  0  0
   -7.8132   10.0130  -11.7619 C   0  0  3  0  0  0  0  0  0  0  0  0
   -7.2338   10.6200  -10.6051 C   0  0  3  0  0  0  0  0  0  0  0  0
   -7.6121    9.7513   -9.5135 C   0  0  0  0  0  0  0  0  0  0  0  0
   -8.2831    8.7414   -9.9888 N   0  0  0  0  0  0  0  0  0  0  0  0
   -8.4159    8.8683  -11.3018 N   0  0  0  0  0  0  0  0  0  0  0  0
   -7.3364    9.8882   -8.0249 C   0  0  0  0  0  0  0  0  0  0  0  0
   -4.3745   13.7307  -11.4480 N   0  0  0  0  0  0  0  0  0  0  0  0
   -5.5401   13.6479  -12.1823 C   0  0  0  0  0  0  0  0  0  0  0  0
   -5.9305   14.5456  -12.9289 O   0  0  0  0  0  0  0  0  0  0  0  0
   -5.9622   10.4857   -7.7364 C   0  0  0  0  0  0  0  0  0  0  0  0
   -4.8106    9.7658   -8.0516 C   0  0  0  0  0  0  0  0  0  0  0  0
   -3.5548   10.3163   -7.8015 C   0  0  0  0  0  0  0  0  0  0  0  0
   -3.4456   11.5910   -7.2371 C   0  0  0  0  0  0  0  0  0  0  0  0
   -4.5995   12.3069   -6.9174 C   0  0  0  0  0  0  0  0  0  0  0  0
   -5.8550   11.7570   -7.1647 C   0  0  0  0  0  0  0  0  0  0  0  0
   -2.1008   12.1810   -6.9758 C   0  0  0  0  0  0  0  0  0  0  0  0
   -1.7660   13.4388   -6.4773 C   0  0  0  0  0  0  0  0  0  0  0  0
   -0.4314   13.4905   -6.4174 N   0  0  0  0  0  0  0  0  0  0  0  0
    0.1713   12.4042   -6.8124 N   0  0  0  0  0  0  0  0  0  0  0  0
   -0.8030   11.5879   -7.1791 C   0  0  0  0  0  0  0  0  0  0  0  0
    0.3850   14.6084   -5.9658 C   0  0  0  0  0  0  0  0  0  0  0  0
   -3.6973   12.5089  -10.9175 C   0  0  0  0  0  0  0  0  0  0  0  0
   -2.2248   12.4637  -11.4426 C   0  0  0  0  0  0  0  0  0  0  0  0
   -1.4987   13.7622  -11.0653 N   0  0  0  0  0  0  0  0  0  0  0  0
   -2.2038   14.9363  -11.7527 C   0  0  0  0  0  0  0  0  0  0  0  0
   -3.6757   15.0331  -11.3164 C   0  0  0  0  0  0  0  0  0  0  0  0
   -6.0533   12.2736   -9.8759 H   0  0  0  0  0  0  0  0  0  0  0  0
   -8.1654   10.1188  -13.9034 H   0  0  0  0  0  0  0  0  0  0  0  0
   -6.8895   12.2606  -14.0918 H   0  0  0  0  0  0  0  0  0  0  0  0
   -8.7443   10.5728  -11.5897 H   0  0  0  0  0  0  0  0  0  0  0  0
   -6.3160   10.0327  -10.7556 H   0  0  0  0  0  0  0  0  0  0  0  0
   -8.0360    9.5949   -7.2562 H   0  0  0  0  0  0  0  0  0  0  0  0
   -4.8916    8.7819   -8.4894 H   0  0  0  0  0  0  0  0  0  0  0  0
   -2.6635    9.7568   -8.0443 H   0  0  0  0  0  0  0  0  0  0  0  0
   -4.5191   13.2898   -6.4771 H   0  0  0  0  0  0  0  0  0  0  0  0
   -6.7464   12.3131   -6.9146 H   0  0  0  0  0  0  0  0  0  0  0  0
   -2.4534   14.2220   -6.1936 H   0  0  0  0  0  0  0  0  0  0  0  0
   -0.6452   10.5982   -7.5816 H   0  0  0  0  0  0  0  0  0  0  0  0
    1.4489   14.3378   -6.0355 H   0  0  0  0  0  0  0  0  0  0  0  0
    0.1877   15.4858   -6.5992 H   0  0  0  0  0  0  0  0  0  0  0  0
    0.1350   14.8465   -4.9214 H   0  0  0  0  0  0  0  0  0  0  0  0
   -3.6944   12.5388   -9.8179 H   0  0  0  0  0  0  0  0  0  0  0  0
   -4.2365   11.6128  -11.2585 H   0  0  0  0  0  0  0  0  0  0  0  0
   -1.7018   11.6081  -10.9904 H   0  0  0  0  0  0  0  0  0  0  0  0
   -2.2305   12.3532  -12.5370 H   0  0  0  0  0  0  0  0  0  0  0  0
   -1.5260   13.8871  -10.0735 H   0  0  0  0  0  0  0  0  0  0  0  0
   -1.6882   15.8706  -11.4859 H   0  0  0  0  0  0  0  0  0  0  0  0
   -2.1612   14.7923  -12.8424 H   0  0  0  0  0  0  0  0  0  0  0  0
   -4.1860   15.7766  -11.9464 H   0  0  0  0  0  0  0  0  0  0  0  0
   -3.7154   15.3542  -10.2651 H   0  0  0  0  0  0  0  0  0  0  0  0
  1  2  2  0  0  0  0
  1  4  1  0  0  0  0
  1 12  1  0  0  0  0
  2  6  1  0  0  0  0
  3  4  2  0  0  0  0
  3  5  1  0  0  0  0
  5  6  1  0  0  0  0
  5  9  1  0  0  0  0
  6  7  1  0  0  0  0
  7  8  1  0  0  0  0
  7 10  2  3  0  0  0
  8  9  2  0  0  0  0
 10 14  1  0  0  0  0
 11 12  1  0  0  0  0
 11 26  1  0  0  0  0
 11 30  1  0  0  0  0
 12 13  2  0  0  0  0
 14 15  2  0  0  0  0
 14 19  1  0  0  0  0
 15 16  1  0  0  0  0
 16 17  2  0  0  0  0
 17 18  1  0  0  0  0
 17 20  1  0  0  0  0
 18 19  2  0  0  0  0
 20 21  2  0  0  0  0
 20 24  1  0  0  0  0
 21 22  1  0  0  0  0
 22 23  1  0  0  0  0
 22 25  1  0  0  0  0
 23 24  2  0  0  0  0
 26 27  1  0  0  0  0
 27 28  1  0  0  0  0
 28 29  1  0  0  0  0
 29 30  1  0  0  0  0
  2 31  1  0  0  0  0
  3 32  1  0  0  0  0
  4 33  1  0  0  0  0
  5 34  1  0  0  0  0
  6 35  1  0  0  0  0
 10 36  1  0  0  0  0
 15 37  1  0  0  0  0
 16 38  1  0  0  0  0
 18 39  1  0  0  0  0
 19 40  1  0  0  0  0
 21 41  1  0  0  0  0
 24 42  1  0  0  0  0
 25 43  1  0  0  0  0
 25 44  1  0  0  0  0
 25 45  1  0  0  0  0
 26 46  1  0  0  0  0
 26 47  1  0  0  0  0
 27 48  1  0  0  0  0
 27 49  1  0  0  0  0
 28 50  1  0  0  0  0
 29 51  1  0  0  0  0
 29 52  1  0  0  0  0
 30 53  1  0  0  0  0
 30 54  1  0  0  0  0
M  END
> <Name>
40

> <IC50[uM]>
0.007

$$$$
40
  -OEChem-05192314333D
 Structure written by MMmdl.
 54 58  0     1  0  0  0  0  0999 V2000
   -6.3583   12.3628  -12.0152 C   0  0  0  0  0  0  0  0  0  0  0  0
   -6.5007   11.8020  -10.7383 C   0  0  0  0  0  0  0  0  0  0  0  0
   -7.7096   10.5772  -13.0382 C   0  0  0  0  0  0  0  0  0  0  0  0
   -6.9777   11.7759  -13.1307 C   0  0  0  0  0  0  0  0  0  0  0  0
   -7.8132   10.0130  -11.7619 C   0  0  3  0  0  0  0  0  0  0  0  0
   -7.2338   10.6200  -10.6051 C   0  0  0  0  0  0  0  0  0  0  0  0
   -7.6121    9.7513   -9.5135 C   0  0  0  0  0  0  0  0  0  0  0  0
   -8.2831    8.7414   -9.9888 N   0  0  0  0  0  0  0  0  0  0  0  0
   -8.4159    8.8683  -11.3018 N   0  0  0  0  0  0  0  0  0  0  0  0
   -7.3364    9.8882   -8.0249 C   0  0  0  0  0  0  0  0  0  0  0  0
   -4.3745   13.7307  -11.4480 N   0  0  0  0  0  0  0  0  0  0  0  0
   -5.5401   13.6479  -12.1823 C   0  0  0  0  0  0  0  0  0  0  0  0
   -5.9305   14.5456  -12.9289 O   0  0  0  0  0  0  0  0  0  0  0  0
   -5.9622   10.4857   -7.7364 C   0  0  0  0  0  0  0  0  0  0  0  0
   -4.8106    9.7658   -8.0516 C   0  0  0  0  0  0  0  0  0  0  0  0
   -3.5548   10.3163   -7.8015 C   0  0  0  0  0  0  0  0  0  0  0  0
   -3.4456   11.5910   -7.2371 C   0  0  0  0  0  0  0  0  0  0  0  0
   -4.5995   12.3069   -6.9174 C   0  0  0  0  0  0  0  0  0  0  0  0
   -5.8550   11.7570   -7.1647 C   0  0  0  0  0  0  0  0  0  0  0  0
   -2.1008   12.1810   -6.9758 C   0  0  0  0  0  0  0  0  0  0  0  0
   -1.7660   13.4388   -6.4773 C   0  0  0  0  0  0  0  0  0  0  0  0
   -0.4314   13.4905   -6.4174 N   0  0  0  0  0  0  0  0  0  0  0  0
    0.1713   12.4042   -6.8124 N   0  0  0  0  0  0  0  0  0  0  0  0
   -0.8030   11.5879   -7.1791 C   0  0  0  0  0  0  0  0  0  0  0  0
    0.3850   14.6084   -5.9658 C   0  0  0  0  0  0  0  0  0  0  0  0
   -3.6973   12.5089  -10.9175 C   0  0  0  0  0  0  0  0  0  0  0  0
   -2.2248   12.4637  -11.4426 C   0  0  0  0  0  0  0  0  0  0  0  0
   -1.4987   13.7622  -11.0653 N   0  0  0  0  0  0  0  0  0  0  0  0
   -2.2038   14.9363  -11.7527 C   0  0  0  0  0  0  0  0  0  0  0  0
   -3.6757   15.0331  -11.3164 C   0  0  0  0  0  0  0  0  0  0  0  0
   -6.0533   12.2736   -9.8759 H   0  0  0  0  0  0  0  0  0  0  0  0
   -8.7288   10.7776  -13.4002 H   0  0  0  0  0  0  0  0  0  0  0  0
   -7.2265    9.8377  -13.6937 H   0  0  0  0  0  0  0  0  0  0  0  0
   -6.8895   12.2606  -14.0918 H   0  0  0  0  0  0  0  0  0  0  0  0
   -8.7443   10.5728  -11.5897 H   0  0  0  0  0  0  0  0  0  0  0  0
   -8.0360    9.5949   -7.2562 H   0  0  0  0  0  0  0  0  0  0  0  0
   -4.8916    8.7819   -8.4894 H   0  0  0  0  0  0  0  0  0  0  0  0
   -2.6635    9.7568   -8.0443 H   0  0  0  0  0  0  0  0  0  0  0  0
   -4.5191   13.2898   -6.4771 H   0  0  0  0  0  0  0  0  0  0  0  0
   -6.7464   12.3131   -6.9146 H   0  0  0  0  0  0  0  0  0  0  0  0
   -2.4534   14.2220   -6.1936 H   0  0  0  0  0  0  0  0  0  0  0  0
   -0.6452   10.5982   -7.5816 H   0  0  0  0  0  0  0  0  0  0  0  0
    1.4489   14.3378   -6.0355 H   0  0  0  0  0  0  0  0  0  0  0  0
    0.1877   15.4858   -6.5992 H   0  0  0  0  0  0  0  0  0  0  0  0
    0.1350   14.8465   -4.9214 H   0  0  0  0  0  0  0  0  0  0  0  0
   -3.6944   12.5388   -9.8179 H   0  0  0  0  0  0  0  0  0  0  0  0
   -4.2365   11.6128  -11.2585 H   0  0  0  0  0  0  0  0  0  0  0  0
   -1.7018   11.6081  -10.9904 H   0  0  0  0  0  0  0  0  0  0  0  0
   -2.2305   12.3532  -12.5370 H   0  0  0  0  0  0  0  0  0  0  0  0
   -1.5260   13.8871  -10.0735 H   0  0  0  0  0  0  0  0  0  0  0  0
   -1.6882   15.8706  -11.4859 H   0  0  0  0  0  0  0  0  0  0  0  0
   -2.1612   14.7923  -12.8424 H   0  0  0  0  0  0  0  0  0  0  0  0
   -4.1860   15.7766  -11.9464 H   0  0  0  0  0  0  0  0  0  0  0  0
   -3.7154   15.3542  -10.2651 H   0  0  0  0  0  0  0  0  0  0  0  0
  1  2  1  0  0  0  0
  1  4  2  0  0  0  0
  1 12  1  0  0  0  0
  2  6  2  0  0  0  0
  3  4  1  0  0  0  0
  3  5  1  0  0  0  0
  5  6  1  0  0  0  0
  5  9  1  0  0  0  0
  6  7  1  0  0  0  0
  7  8  1  0  0  0  0
  7 10  2  3  0  0  0
  8  9  2  0  0  0  0
 10 14  1  0  0  0  0
 11 12  1  0  0  0  0
 11 26  1  0  0  0  0
 11 30  1  0  0  0  0
 12 13  2  0  0  0  0
 14 15  2  0  0  0  0
 14 19  1  0  0  0  0
 15 16  1  0  0  0  0
 16 17  2  0  0  0  0
 17 18  1  0  0  0  0
 17 20  1  0  0  0  0
 18 19  2  0  0  0  0
 20 21  2  0  0  0  0
 20 24  1  0  0  0  0
 21 22  1  0  0  0  0
 22 23  1  0  0  0  0
 22 25  1  0  0  0  0
 23 24  2  0  0  0  0
 26 27  1  0  0  0  0
 27 28  1  0  0  0  0
 28 29  1  0  0  0  0
 29 30  1  0  0  0  0
  2 31  1  0  0  0  0
  3 32  1  0  0  0  0
  3 33  1  0  0  0  0
  4 34  1  0  0  0  0
  5 35  1  0  0  0  0
 10 36  1  0  0  0  0
 15 37  1  0  0  0  0
 16 38  1  0  0  0  0
 18 39  1  0  0  0  0
 19 40  1  0  0  0  0
 21 41  1  0  0  0  0
 24 42  1  0  0  0  0
 25 43  1  0  0  0  0
 25 44  1  0  0  0  0
 25 45  1  0  0  0  0
 26 46  1  0  0  0  0
 26 47  1  0  0  0  0
 27 48  1  0  0  0  0
 27 49  1  0  0  0  0
 28 50  1  0  0  0  0
 29 51  1  0  0  0  0
 29 52  1  0  0  0  0
 30 53  1  0  0  0  0
 30 54  1  0  0  0  0
M  END
> <Name>
40

> <IC50[uM]>
0.007

$$$$
40
  -OEChem-05192314333D
 Structure written by MMmdl.
 54 58  0     1  0  0  0  0  0999 V2000
   -6.3583   12.3628  -12.0152 C   0  0  0  0  0  0  0  0  0  0  0  0
   -6.5007   11.8020  -10.7383 C   0  0  0  0  0  0  0  0  0  0  0  0
   -7.7096   10.5772  -13.0382 C   0  0  0  0  0  0  0  0  0  0  0  0
   -6.9777   11.7759  -13.1307 C   0  0  0  0  0  0  0  0  0  0  0  0
   -7.8132   10.0130  -11.7619 C   0  0  0  0  0  0  0  0  0  0  0  0
   -7.2338   10.6200  -10.6051 C   0  0  0  0  0  0  0  0  0  0  0  0
   -7.6121    9.7513   -9.5135 C   0  0  0  0  0  0  0  0  0  0  0  0
   -8.2831    8.7414   -9.9888 N   0  0  0  0  0  0  0  0  0  0  0  0
   -8.4159    8.8683  -11.3018 N   0  0  0  0  0  0  0  0  0  0  0  0
   -7.3364    9.8882   -8.0249 C   0  0  0  0  0  0  0  0  0  0  0  0
   -4.3745   13.7307  -11.4480 N   0  0  0  0  0  0  0  0  0  0  0  0
   -5.5401   13.6479  -12.1823 C   0  0  0  0  0  0  0  0  0  0  0  0
   -5.9305   14.5456  -12.9289 O   0  0  0  0  0  0  0  0  0  0  0  0
   -5.9622   10.4857   -7.7364 C   0  0  0  0  0  0  0  0  0  0  0  0
   -4.8106    9.7658   -8.0516 C   0  0  0  0  0  0  0  0  0  0  0  0
   -3.5548   10.3163   -7.8015 C   0  0  0  0  0  0  0  0  0  0  0  0
   -3.4456   11.5910   -7.2371 C   0  0  3  0  0  0  0  0  0  0  0  0
   -4.5995   12.3069   -6.9174 C   0  0  0  0  0  0  0  0  0  0  0  0
   -5.8550   11.7570   -7.1647 C   0  0  0  0  0  0  0  0  0  0  0  0
   -2.1008   12.1810   -6.9758 C   0  0  0  0  0  0  0  0  0  0  0  0
   -1.7660   13.4388   -6.4773 C   0  0  0  0  0  0  0  0  0  0  0  0
   -0.4314   13.4905   -6.4174 N   0  0  0  0  0  0  0  0  0  0  0  0
    0.1713   12.4042   -6.8124 N   0  0  0  0  0  0  0  0  0  0  0  0
   -0.8030   11.5879   -7.1791 C   0  0  0  0  0  0  0  0  0  0  0  0
    0.3850   14.6084   -5.9658 C   0  0  0  0  0  0  0  0  0  0  0  0
   -3.6973   12.5089  -10.9175 C   0  0  0  0  0  0  0  0  0  0  0  0
   -2.2248   12.4637  -11.4426 C   0  0  0  0  0  0  0  0  0  0  0  0
   -1.4987   13.7622  -11.0653 N   0  0  0  0  0  0  0  0  0  0  0  0
   -2.2038   14.9363  -11.7527 C   0  0  0  0  0  0  0  0  0  0  0  0
   -3.6757   15.0331  -11.3164 C   0  0  0  0  0  0  0  0  0  0  0  0
   -6.0533   12.2736   -9.8759 H   0  0  0  0  0  0  0  0  0  0  0  0
   -8.1654   10.1188  -13.9034 H   0  0  0  0  0  0  0  0  0  0  0  0
   -6.8895   12.2606  -14.0918 H   0  0  0  0  0  0  0  0  0  0  0  0
   -8.0360    9.5949   -7.2562 H   0  0  0  0  0  0  0  0  0  0  0  0
   -4.8916    8.7819   -8.4894 H   0  0  0  0  0  0  0  0  0  0  0  0
   -3.0350    9.6240   -7.1229 H   0  0  0  0  0  0  0  0  0  0  0  0
   -3.0264   10.3506   -8.7657 H   0  0  0  0  0  0  0  0  0  0  0  0
   -3.4466   12.0370   -8.2426 H   0  0  0  0  0  0  0  0  0  0  0  0
   -4.5191   13.2898   -6.4771 H   0  0  0  0  0  0  0  0  0  0  0  0
   -6.7464   12.3131   -6.9146 H   0  0  0  0  0  0  0  0  0  0  0  0
   -2.4534   14.2220   -6.1936 H   0  0  0  0  0  0  0  0  0  0  0  0
   -0.6452   10.5982   -7.5816 H   0  0  0  0  0  0  0  0  0  0  0  0
    1.4489   14.3378   -6.0355 H   0  0  0  0  0  0  0  0  0  0  0  0
    0.1877   15.4858   -6.5992 H   0  0  0  0  0  0  0  0  0  0  0  0
    0.1350   14.8465   -4.9214 H   0  0  0  0  0  0  0  0  0  0  0  0
   -3.6944   12.5388   -9.8179 H   0  0  0  0  0  0  0  0  0  0  0  0
   -4.2365   11.6128  -11.2585 H   0  0  0  0  0  0  0  0  0  0  0  0
   -1.7018   11.6081  -10.9904 H   0  0  0  0  0  0  0  0  0  0  0  0
   -2.2305   12.3532  -12.5370 H   0  0  0  0  0  0  0  0  0  0  0  0
   -1.5260   13.8871  -10.0735 H   0  0  0  0  0  0  0  0  0  0  0  0
   -1.6882   15.8706  -11.4859 H   0  0  0  0  0  0  0  0  0  0  0  0
   -2.1612   14.7923  -12.8424 H   0  0  0  0  0  0  0  0  0  0  0  0
   -4.1860   15.7766  -11.9464 H   0  0  0  0  0  0  0  0  0  0  0  0
   -3.7154   15.3542  -10.2651 H   0  0  0  0  0  0  0  0  0  0  0  0
  1  2  2  0  0  0  0
  1  4  1  0  0  0  0
  1 12  1  0  0  0  0
  2  6  1  0  0  0  0
  3  4  2  0  0  0  0
  3  5  1  0  0  0  0
  5  6  2  0  0  0  0
  5  9  1  0  0  0  0
  6  7  1  0  0  0  0
  7  8  1  0  0  0  0
  7 10  2  3  0  0  0
  8  9  2  0  0  0  0
 10 14  1  0  0  0  0
 11 12  1  0  0  0  0
 11 26  1  0  0  0  0
 11 30  1  0  0  0  0
 12 13  2  0  0  0  0
 14 15  2  0  0  0  0
 14 19  1  0  0  0  0
 15 16  1  0  0  0  0
 16 17  1  0  0  0  0
 17 18  1  0  0  0  0
 17 20  1  0  0  0  0
 18 19  2  0  0  0  0
 20 21  2  0  0  0  0
 20 24  1  0  0  0  0
 21 22  1  0  0  0  0
 22 23  1  0  0  0  0
 22 25  1  0  0  0  0
 23 24  2  0  0  0  0
 26 27  1  0  0  0  0
 27 28  1  0  0  0  0
 28 29  1  0  0  0  0
 29 30  1  0  0  0  0
  2 31  1  0  0  0  0
  3 32  1  0  0  0  0
  4 33  1  0  0  0  0
 10 34  1  0  0  0  0
 15 35  1  0  0  0  0
 16 36  1  0  0  0  0
 16 37  1  0  0  0  0
 17 38  1  0  0  0  0
 18 39  1  0  0  0  0
 19 40  1  0  0  0  0
 21 41  1  0  0  0  0
 24 42  1  0  0  0  0
 25 43  1  0  0  0  0
 25 44  1  0  0  0  0
 25 45  1  0  0  0  0
 26 46  1  0  0  0  0
 26 47  1  0  0  0  0
 27 48  1  0  0  0  0
 27 49  1  0  0  0  0
 28 50  1  0  0  0  0
 29 51  1  0  0  0  0
 29 52  1  0  0  0  0
 30 53  1  0  0  0  0
 30 54  1  0  0  0  0
M  END
> <Name>
40

> <IC50[uM]>
0.007

$$$$
40
  -OEChem-05192314333D
 Structure written by MMmdl.
 54 58  0     1  0  0  0  0  0999 V2000
   -6.3583   12.3628  -12.0152 C   0  0  3  0  0  0  0  0  0  0  0  0
   -6.5007   11.8020  -10.7383 C   0  0  0  0  0  0  0  0  0  0  0  0
   -7.7096   10.5772  -13.0382 C   0  0  0  0  0  0  0  0  0  0  0  0
   -6.9777   11.7759  -13.1307 C   0  0  0  0  0  0  0  0  0  0  0  0
   -7.8132   10.0130  -11.7619 C   0  0  0  0  0  0  0  0  0  0  0  0
   -7.2338   10.6200  -10.6051 C   0  0  0  0  0  0  0  0  0  0  0  0
   -7.6121    9.7513   -9.5135 C   0  0  0  0  0  0  0  0  0  0  0  0
   -8.2831    8.7414   -9.9888 N   0  0  0  0  0  0  0  0  0  0  0  0
   -8.4159    8.8683  -11.3018 N   0  0  0  0  0  0  0  0  0  0  0  0
   -7.3364    9.8882   -8.0249 C   0  0  0  0  0  0  0  0  0  0  0  0
   -4.3745   13.7307  -11.4480 N   0  0  0  0  0  0  0  0  0  0  0  0
   -5.5401   13.6479  -12.1823 C   0  0  0  0  0  0  0  0  0  0  0  0
   -5.9305   14.5456  -12.9289 O   0  0  0  0  0  0  0  0  0  0  0  0
   -5.9622   10.4857   -7.7364 C   0  0  0  0  0  0  0  0  0  0  0  0
   -4.8106    9.7658   -8.0516 C   0  0  0  0  0  0  0  0  0  0  0  0
   -3.5548   10.3163   -7.8015 C   0  0  0  0  0  0  0  0  0  0  0  0
   -3.4456   11.5910   -7.2371 C   0  0  0  0  0  0  0  0  0  0  0  0
   -4.5995   12.3069   -6.9174 C   0  0  0  0  0  0  0  0  0  0  0  0
   -5.8550   11.7570   -7.1647 C   0  0  0  0  0  0  0  0  0  0  0  0
   -2.1008   12.1810   -6.9758 C   0  0  0  0  0  0  0  0  0  0  0  0
   -1.7660   13.4388   -6.4773 C   0  0  0  0  0  0  0  0  0  0  0  0
   -0.4314   13.4905   -6.4174 N   0  0  0  0  0  0  0  0  0  0  0  0
    0.1713   12.4042   -6.8124 N   0  0  0  0  0  0  0  0  0  0  0  0
   -0.8030   11.5879   -7.1791 C   0  0  0  0  0  0  0  0  0  0  0  0
    0.3850   14.6084   -5.9658 C   0  0  0  0  0  0  0  0  0  0  0  0
   -3.6973   12.5089  -10.9175 C   0  0  0  0  0  0  0  0  0  0  0  0
   -2.2248   12.4637  -11.4426 C   0  0  0  0  0  0  0  0  0  0  0  0
   -1.4987   13.7622  -11.0653 N   0  0  0  0  0  0  0  0  0  0  0  0
   -2.2038   14.9363  -11.7527 C   0  0  0  0  0  0  0  0  0  0  0  0
   -3.6757   15.0331  -11.3164 C   0  0  0  0  0  0  0  0  0  0  0  0
   -5.4561   11.7578  -12.1885 H   0  0  0  0  0  0  0  0  0  0  0  0
   -6.0533   12.2736   -9.8759 H   0  0  0  0  0  0  0  0  0  0  0  0
   -8.1654   10.1188  -13.9034 H   0  0  0  0  0  0  0  0  0  0  0  0
   -7.6730   12.5301  -13.5278 H   0  0  0  0  0  0  0  0  0  0  0  0
   -6.1786   11.5918  -13.8639 H   0  0  0  0  0  0  0  0  0  0  0  0
   -8.0360    9.5949   -7.2562 H   0  0  0  0  0  0  0  0  0  0  0  0
   -4.8916    8.7819   -8.4894 H   0  0  0  0  0  0  0  0  0  0  0  0
   -2.6635    9.7568   -8.0443 H   0  0  0  0  0  0  0  0  0  0  0  0
   -4.5191   13.2898   -6.4771 H   0  0  0  0  0  0  0  0  0  0  0  0
   -6.7464   12.3131   -6.9146 H   0  0  0  0  0  0  0  0  0  0  0  0
   -2.4534   14.2220   -6.1936 H   0  0  0  0  0  0  0  0  0  0  0  0
   -0.6452   10.5982   -7.5816 H   0  0  0  0  0  0  0  0  0  0  0  0
    1.4489   14.3378   -6.0355 H   0  0  0  0  0  0  0  0  0  0  0  0
    0.1877   15.4858   -6.5992 H   0  0  0  0  0  0  0  0  0  0  0  0
    0.1350   14.8465   -4.9214 H   0  0  0  0  0  0  0  0  0  0  0  0
   -3.6944   12.5388   -9.8179 H   0  0  0  0  0  0  0  0  0  0  0  0
   -4.2365   11.6128  -11.2585 H   0  0  0  0  0  0  0  0  0  0  0  0
   -1.7018   11.6081  -10.9904 H   0  0  0  0  0  0  0  0  0  0  0  0
   -2.2305   12.3532  -12.5370 H   0  0  0  0  0  0  0  0  0  0  0  0
   -1.5260   13.8871  -10.0735 H   0  0  0  0  0  0  0  0  0  0  0  0
   -1.6882   15.8706  -11.4859 H   0  0  0  0  0  0  0  0  0  0  0  0
   -2.1612   14.7923  -12.8424 H   0  0  0  0  0  0  0  0  0  0  0  0
   -4.1860   15.7766  -11.9464 H   0  0  0  0  0  0  0  0  0  0  0  0
   -3.7154   15.3542  -10.2651 H   0  0  0  0  0  0  0  0  0  0  0  0
  1  2  1  0  0  0  0
  1  4  1  0  0  0  0
  1 12  1  0  0  0  0
  2  6  2  0  0  0  0
  3  4  1  0  0  0  0
  3  5  2  0  0  0  0
  5  6  1  0  0  0  0
  5  9  1  0  0  0  0
  6  7  1  0  0  0  0
  7  8  1  0  0  0  0
  7 10  2  3  0  0  0
  8  9  2  0  0  0  0
 10 14  1  0  0  0  0
 11 12  1  0  0  0  0
 11 26  1  0  0  0  0
 11 30  1  0  0  0  0
 12 13  2  0  0  0  0
 14 15  2  0  0  0  0
 14 19  1  0  0  0  0
 15 16  1  0  0  0  0
 16 17  2  0  0  0  0
 17 18  1  0  0  0  0
 17 20  1  0  0  0  0
 18 19  2  0  0  0  0
 20 21  2  0  0  0  0
 20 24  1  0  0  0  0
 21 22  1  0  0  0  0
 22 23  1  0  0  0  0
 22 25  1  0  0  0  0
 23 24  2  0  0  0  0
 26 27  1  0  0  0  0
 27 28  1  0  0  0  0
 28 29  1  0  0  0  0
 29 30  1  0  0  0  0
  1 31  1  0  0  0  0
  2 32  1  0  0  0  0
  3 33  1  0  0  0  0
  4 34  1  0  0  0  0
  4 35  1  0  0  0  0
 10 36  1  0  0  0  0
 15 37  1  0  0  0  0
 16 38  1  0  0  0  0
 18 39  1  0  0  0  0
 19 40  1  0  0  0  0
 21 41  1  0  0  0  0
 24 42  1  0  0  0  0
 25 43  1  0  0  0  0
 25 44  1  0  0  0  0
 25 45  1  0  0  0  0
 26 46  1  0  0  0  0
 26 47  1  0  0  0  0
 27 48  1  0  0  0  0
 27 49  1  0  0  0  0
 28 50  1  0  0  0  0
 29 51  1  0  0  0  0
 29 52  1  0  0  0  0
 30 53  1  0  0  0  0
 30 54  1  0  0  0  0
M  END
> <Name>
40

> <IC50[uM]>
0.007

$$$$
40
  -OEChem-05192314333D
 Structure written by MMmdl.
 54 58  0     1  0  0  0  0  0999 V2000
   -6.3583   12.3628  -12.0152 C   0  0  0  0  0  0  0  0  0  0  0  0
   -6.5007   11.8020  -10.7383 C   0  0  0  0  0  0  0  0  0  0  0  0
   -7.7096   10.5772  -13.0382 C   0  0  0  0  0  0  0  0  0  0  0  0
   -6.9777   11.7759  -13.1307 C   0  0  0  0  0  0  0  0  0  0  0  0
   -7.8132   10.0130  -11.7619 C   0  0  0  0  0  0  0  0  0  0  0  0
   -7.2338   10.6200  -10.6051 C   0  0  3  0  0  0  0  0  0  0  0  0
   -7.6121    9.7513   -9.5135 C   0  0  0  0  0  0  0  0  0  0  0  0
   -8.2831    8.7414   -9.9888 N   0  0  0  0  0  0  0  0  0  0  0  0
   -8.4159    8.8683  -11.3018 N   0  0  0  0  0  0  0  0  0  0  0  0
   -7.3364    9.8882   -8.0249 C   0  0  0  0  0  0  0  0  0  0  0  0
   -4.3745   13.7307  -11.4480 N   0  0  0  0  0  0  0  0  0  0  0  0
   -5.5401   13.6479  -12.1823 C   0  0  0  0  0  0  0  0  0  0  0  0
   -5.9305   14.5456  -12.9289 O   0  0  0  0  0  0  0  0  0  0  0  0
   -5.9622   10.4857   -7.7364 C   0  0  0  0  0  0  0  0  0  0  0  0
   -4.8106    9.7658   -8.0516 C   0  0  0  0  0  0  0  0  0  0  0  0
   -3.5548   10.3163   -7.8015 C   0  0  0  0  0  0  0  0  0  0  0  0
   -3.4456   11.5910   -7.2371 C   0  0  0  0  0  0  0  0  0  0  0  0
   -4.5995   12.3069   -6.9174 C   0  0  0  0  0  0  0  0  0  0  0  0
   -5.8550   11.7570   -7.1647 C   0  0  0  0  0  0  0  0  0  0  0  0
   -2.1008   12.1810   -6.9758 C   0  0  0  0  0  0  0  0  0  0  0  0
   -1.7660   13.4388   -6.4773 C   0  0  0  0  0  0  0  0  0  0  0  0
   -0.4314   13.4905   -6.4174 N   0  0  0  0  0  0  0  0  0  0  0  0
    0.1713   12.4042   -6.8124 N   0  0  0  0  0  0  0  0  0  0  0  0
   -0.8030   11.5879   -7.1791 C   0  0  0  0  0  0  0  0  0  0  0  0
    0.3850   14.6084   -5.9658 C   0  0  0  0  0  0  0  0  0  0  0  0
   -3.6973   12.5089  -10.9175 C   0  0  0  0  0  0  0  0  0  0  0  0
   -2.2248   12.4637  -11.4426 C   0  0  0  0  0  0  0  0  0  0  0  0
   -1.4987   13.7622  -11.0653 N   0  0  0  0  0  0  0  0  0  0  0  0
   -2.2038   14.9363  -11.7527 C   0  0  0  0  0  0  0  0  0  0  0  0
   -3.6757   15.0331  -11.3164 C   0  0  0  0  0  0  0  0  0  0  0  0
   -6.0533   12.2736   -9.8759 H   0  0  0  0  0  0  0  0  0  0  0  0
   -8.1654   10.1188  -13.9034 H   0  0  0  0  0  0  0  0  0  0  0  0
   -7.6730   12.5301  -13.5278 H   0  0  0  0  0  0  0  0  0  0  0  0
   -6.1786   11.5918  -13.8639 H   0  0  0  0  0  0  0  0  0  0  0  0
   -6.3160   10.0327  -10.7556 H   0  0  0  0  0  0  0  0  0  0  0  0
   -8.0360    9.5949   -7.2562 H   0  0  0  0  0  0  0  0  0  0  0  0
   -4.8916    8.7819   -8.4894 H   0  0  0  0  0  0  0  0  0  0  0  0
   -2.6635    9.7568   -8.0443 H   0  0  0  0  0  0  0  0  0  0  0  0
   -4.5191   13.2898   -6.4771 H   0  0  0  0  0  0  0  0  0  0  0  0
   -6.7464   12.3131   -6.9146 H   0  0  0  0  0  0  0  0  0  0  0  0
   -2.4534   14.2220   -6.1936 H   0  0  0  0  0  0  0  0  0  0  0  0
   -0.6452   10.5982   -7.5816 H   0  0  0  0  0  0  0  0  0  0  0  0
    1.4489   14.3378   -6.0355 H   0  0  0  0  0  0  0  0  0  0  0  0
    0.1877   15.4858   -6.5992 H   0  0  0  0  0  0  0  0  0  0  0  0
    0.1350   14.8465   -4.9214 H   0  0  0  0  0  0  0  0  0  0  0  0
   -3.6944   12.5388   -9.8179 H   0  0  0  0  0  0  0  0  0  0  0  0
   -4.2365   11.6128  -11.2585 H   0  0  0  0  0  0  0  0  0  0  0  0
   -1.7018   11.6081  -10.9904 H   0  0  0  0  0  0  0  0  0  0  0  0
   -2.2305   12.3532  -12.5370 H   0  0  0  0  0  0  0  0  0  0  0  0
   -1.5260   13.8871  -10.0735 H   0  0  0  0  0  0  0  0  0  0  0  0
   -1.6882   15.8706  -11.4859 H   0  0  0  0  0  0  0  0  0  0  0  0
   -2.1612   14.7923  -12.8424 H   0  0  0  0  0  0  0  0  0  0  0  0
   -4.1860   15.7766  -11.9464 H   0  0  0  0  0  0  0  0  0  0  0  0
   -3.7154   15.3542  -10.2651 H   0  0  0  0  0  0  0  0  0  0  0  0
  1  2  2  0  0  0  0
  1  4  1  0  0  0  0
  1 12  1  0  0  0  0
  2  6  1  0  0  0  0
  3  4  1  0  0  0  0
  3  5  2  0  0  0  0
  5  6  1  0  0  0  0
  5  9  1  0  0  0  0
  6  7  1  0  0  0  0
  7  8  1  0  0  0  0
  7 10  2  3  0  0  0
  8  9  2  0  0  0  0
 10 14  1  0  0  0  0
 11 12  1  0  0  0  0
 11 26  1  0  0  0  0
 11 30  1  0  0  0  0
 12 13  2  0  0  0  0
 14 15  2  0  0  0  0
 14 19  1  0  0  0  0
 15 16  1  0  0  0  0
 16 17  2  0  0  0  0
 17 18  1  0  0  0  0
 17 20  1  0  0  0  0
 18 19  2  0  0  0  0
 20 21  2  0  0  0  0
 20 24  1  0  0  0  0
 21 22  1  0  0  0  0
 22 23  1  0  0  0  0
 22 25  1  0  0  0  0
 23 24  2  0  0  0  0
 26 27  1  0  0  0  0
 27 28  1  0  0  0  0
 28 29  1  0  0  0  0
 29 30  1  0  0  0  0
  2 31  1  0  0  0  0
  3 32  1  0  0  0  0
  4 33  1  0  0  0  0
  4 34  1  0  0  0  0
  6 35  1  0  0  0  0
 10 36  1  0  0  0  0
 15 37  1  0  0  0  0
 16 38  1  0  0  0  0
 18 39  1  0  0  0  0
 19 40  1  0  0  0  0
 21 41  1  0  0  0  0
 24 42  1  0  0  0  0
 25 43  1  0  0  0  0
 25 44  1  0  0  0  0
 25 45  1  0  0  0  0
 26 46  1  0  0  0  0
 26 47  1  0  0  0  0
 27 48  1  0  0  0  0
 27 49  1  0  0  0  0
 28 50  1  0  0  0  0
 29 51  1  0  0  0  0
 29 52  1  0  0  0  0
 30 53  1  0  0  0  0
 30 54  1  0  0  0  0
M  END
> <Name>
40

> <IC50[uM]>
0.007

$$$$
40
  -OEChem-05192314333D
 Structure written by MMmdl.
 54 58  0     0  0  0  0  0  0999 V2000
   -6.3583   12.3628  -12.0152 C   0  0  0  0  0  0  0  0  0  0  0  0
   -6.5007   11.8020  -10.7383 C   0  0  0  0  0  0  0  0  0  0  0  0
   -7.7096   10.5772  -13.0382 C   0  0  0  0  0  0  0  0  0  0  0  0
   -6.9777   11.7759  -13.1307 C   0  0  0  0  0  0  0  0  0  0  0  0
   -7.8132   10.0130  -11.7619 C   0  0  0  0  0  0  0  0  0  0  0  0
   -7.2338   10.6200  -10.6051 C   0  0  0  0  0  0  0  0  0  0  0  0
   -7.6121    9.7513   -9.5135 C   0  0  0  0  0  0  0  0  0  0  0  0
   -8.2831    8.7414   -9.9888 N   0  0  0  0  0  0  0  0  0  0  0  0
   -8.4159    8.8683  -11.3018 N   0  0  0  0  0  0  0  0  0  0  0  0
   -7.3364    9.8882   -8.0249 C   0  0  0  0  0  0  0  0  0  0  0  0
   -4.3745   13.7307  -11.4480 N   0  0  0  0  0  0  0  0  0  0  0  0
   -5.5401   13.6479  -12.1823 C   0  0  0  0  0  0  0  0  0  0  0  0
   -5.9305   14.5456  -12.9289 O   0  0  0  0  0  0  0  0  0  0  0  0
   -5.9622   10.4857   -7.7364 C   0  0  0  0  0  0  0  0  0  0  0  0
   -4.8106    9.7658   -8.0516 C   0  0  0  0  0  0  0  0  0  0  0  0
   -3.5548   10.3163   -7.8015 C   0  0  0  0  0  0  0  0  0  0  0  0
   -3.4456   11.5910   -7.2371 C   0  0  0  0  0  0  0  0  0  0  0  0
   -4.5995   12.3069   -6.9174 C   0  0  0  0  0  0  0  0  0  0  0  0
   -5.8550   11.7570   -7.1647 C   0  0  0  0  0  0  0  0  0  0  0  0
   -2.1008   12.1810   -6.9758 C   0  0  0  0  0  0  0  0  0  0  0  0
   -1.7660   13.4388   -6.4773 C   0  0  0  0  0  0  0  0  0  0  0  0
   -0.4314   13.4905   -6.4174 N   0  0  0  0  0  0  0  0  0  0  0  0
    0.1713   12.4042   -6.8124 N   0  0  0  0  0  0  0  0  0  0  0  0
   -0.8030   11.5879   -7.1791 C   0  0  0  0  0  0  0  0  0  0  0  0
    0.3850   14.6084   -5.9658 C   0  0  0  0  0  0  0  0  0  0  0  0
   -3.6973   12.5089  -10.9175 C   0  0  0  0  0  0  0  0  0  0  0  0
   -2.2248   12.4637  -11.4426 C   0  0  0  0  0  0  0  0  0  0  0  0
   -1.4987   13.7622  -11.0653 N   0  0  0  0  0  0  0  0  0  0  0  0
   -2.2038   14.9363  -11.7527 C   0  0  0  0  0  0  0  0  0  0  0  0
   -3.6757   15.0331  -11.3164 C   0  0  0  0  0  0  0  0  0  0  0  0
   -6.0533   12.2736   -9.8759 H   0  0  0  0  0  0  0  0  0  0  0  0
   -8.7288   10.7776  -13.4002 H   0  0  0  0  0  0  0  0  0  0  0  0
   -7.2265    9.8377  -13.6937 H   0  0  0  0  0  0  0  0  0  0  0  0
   -7.6730   12.5301  -13.5278 H   0  0  0  0  0  0  0  0  0  0  0  0
   -6.1786   11.5918  -13.8639 H   0  0  0  0  0  0  0  0  0  0  0  0
   -8.0360    9.5949   -7.2562 H   0  0  0  0  0  0  0  0  0  0  0  0
   -4.8916    8.7819   -8.4894 H   0  0  0  0  0  0  0  0  0  0  0  0
   -2.6635    9.7568   -8.0443 H   0  0  0  0  0  0  0  0  0  0  0  0
   -4.5191   13.2898   -6.4771 H   0  0  0  0  0  0  0  0  0  0  0  0
   -6.7464   12.3131   -6.9146 H   0  0  0  0  0  0  0  0  0  0  0  0
   -2.4534   14.2220   -6.1936 H   0  0  0  0  0  0  0  0  0  0  0  0
   -0.6452   10.5982   -7.5816 H   0  0  0  0  0  0  0  0  0  0  0  0
    1.4489   14.3378   -6.0355 H   0  0  0  0  0  0  0  0  0  0  0  0
    0.1877   15.4858   -6.5992 H   0  0  0  0  0  0  0  0  0  0  0  0
    0.1350   14.8465   -4.9214 H   0  0  0  0  0  0  0  0  0  0  0  0
   -3.6944   12.5388   -9.8179 H   0  0  0  0  0  0  0  0  0  0  0  0
   -4.2365   11.6128  -11.2585 H   0  0  0  0  0  0  0  0  0  0  0  0
   -1.7018   11.6081  -10.9904 H   0  0  0  0  0  0  0  0  0  0  0  0
   -2.2305   12.3532  -12.5370 H   0  0  0  0  0  0  0  0  0  0  0  0
   -1.5260   13.8871  -10.0735 H   0  0  0  0  0  0  0  0  0  0  0  0
   -1.6882   15.8706  -11.4859 H   0  0  0  0  0  0  0  0  0  0  0  0
   -2.1612   14.7923  -12.8424 H   0  0  0  0  0  0  0  0  0  0  0  0
   -4.1860   15.7766  -11.9464 H   0  0  0  0  0  0  0  0  0  0  0  0
   -3.7154   15.3542  -10.2651 H   0  0  0  0  0  0  0  0  0  0  0  0
  1  2  2  0  0  0  0
  1  4  1  0  0  0  0
  1 12  1  0  0  0  0
  2  6  1  0  0  0  0
  3  4  1  0  0  0  0
  3  5  1  0  0  0  0
  5  6  2  0  0  0  0
  5  9  1  0  0  0  0
  6  7  1  0  0  0  0
  7  8  1  0  0  0  0
  7 10  2  3  0  0  0
  8  9  2  0  0  0  0
 10 14  1  0  0  0  0
 11 12  1  0  0  0  0
 11 26  1  0  0  0  0
 11 30  1  0  0  0  0
 12 13  2  0  0  0  0
 14 15  2  0  0  0  0
 14 19  1  0  0  0  0
 15 16  1  0  0  0  0
 16 17  2  0  0  0  0
 17 18  1  0  0  0  0
 17 20  1  0  0  0  0
 18 19  2  0  0  0  0
 20 21  2  0  0  0  0
 20 24  1  0  0  0  0
 21 22  1  0  0  0  0
 22 23  1  0  0  0  0
 22 25  1  0  0  0  0
 23 24  2  0  0  0  0
 26 27  1  0  0  0  0
 27 28  1  0  0  0  0
 28 29  1  0  0  0  0
 29 30  1  0  0  0  0
  2 31  1  0  0  0  0
  3 32  1  0  0  0  0
  3 33  1  0  0  0  0
  4 34  1  0  0  0  0
  4 35  1  0  0  0  0
 10 36  1  0  0  0  0
 15 37  1  0  0  0  0
 16 38  1  0  0  0  0
 18 39  1  0  0  0  0
 19 40  1  0  0  0  0
 21 41  1  0  0  0  0
 24 42  1  0  0  0  0
 25 43  1  0  0  0  0
 25 44  1  0  0  0  0
 25 45  1  0  0  0  0
 26 46  1  0  0  0  0
 26 47  1  0  0  0  0
 27 48  1  0  0  0  0
 27 49  1  0  0  0  0
 28 50  1  0  0  0  0
 29 51  1  0  0  0  0
 29 52  1  0  0  0  0
 30 53  1  0  0  0  0
 30 54  1  0  0  0  0
M  END
> <Name>
40

> <IC50[uM]>
0.007

$$$$
40
  -OEChem-05192314333D
 Structure written by MMmdl.
 54 58  0     1  0  0  0  0  0999 V2000
   -6.3583   12.3628  -12.0152 C   0  0  0  0  0  0  0  0  0  0  0  0
   -6.5007   11.8020  -10.7383 C   0  0  0  0  0  0  0  0  0  0  0  0
   -7.7096   10.5772  -13.0382 C   0  0  0  0  0  0  0  0  0  0  0  0
   -6.9777   11.7759  -13.1307 C   0  0  0  0  0  0  0  0  0  0  0  0
   -7.8132   10.0130  -11.7619 C   0  0  0  0  0  0  0  0  0  0  0  0
   -7.2338   10.6200  -10.6051 C   0  0  0  0  0  0  0  0  0  0  0  0
   -7.6121    9.7513   -9.5135 C   0  0  0  0  0  0  0  0  0  0  0  0
   -8.2831    8.7414   -9.9888 N   0  0  0  0  0  0  0  0  0  0  0  0
   -8.4159    8.8683  -11.3018 N   0  0  0  0  0  0  0  0  0  0  0  0
   -7.3364    9.8882   -8.0249 C   0  0  0  0  0  0  0  0  0  0  0  0
   -4.3745   13.7307  -11.4480 N   0  0  0  0  0  0  0  0  0  0  0  0
   -5.5401   13.6479  -12.1823 C   0  0  0  0  0  0  0  0  0  0  0  0
   -5.9305   14.5456  -12.9289 O   0  0  0  0  0  0  0  0  0  0  0  0
   -5.9622   10.4857   -7.7364 C   0  0  3  0  0  0  0  0  0  0  0  0
   -4.8106    9.7658   -8.0516 C   0  0  0  0  0  0  0  0  0  0  0  0
   -3.5548   10.3163   -7.8015 C   0  0  0  0  0  0  0  0  0  0  0  0
   -3.4456   11.5910   -7.2371 C   0  0  0  0  0  0  0  0  0  0  0  0
   -4.5995   12.3069   -6.9174 C   0  0  0  0  0  0  0  0  0  0  0  0
   -5.8550   11.7570   -7.1647 C   0  0  0  0  0  0  0  0  0  0  0  0
   -2.1008   12.1810   -6.9758 C   0  0  0  0  0  0  0  0  0  0  0  0
   -1.7660   13.4388   -6.4773 C   0  0  0  0  0  0  0  0  0  0  0  0
   -0.4314   13.4905   -6.4174 N   0  0  0  0  0  0  0  0  0  0  0  0
    0.1713   12.4042   -6.8124 N   0  0  0  0  0  0  0  0  0  0  0  0
   -0.8030   11.5879   -7.1791 C   0  0  0  0  0  0  0  0  0  0  0  0
    0.3850   14.6084   -5.9658 C   0  0  0  0  0  0  0  0  0  0  0  0
   -3.6973   12.5089  -10.9175 C   0  0  0  0  0  0  0  0  0  0  0  0
   -2.2248   12.4637  -11.4426 C   0  0  0  0  0  0  0  0  0  0  0  0
   -1.4987   13.7622  -11.0653 N   0  0  0  0  0  0  0  0  0  0  0  0
   -2.2038   14.9363  -11.7527 C   0  0  0  0  0  0  0  0  0  0  0  0
   -3.6757   15.0331  -11.3164 C   0  0  0  0  0  0  0  0  0  0  0  0
   -6.0533   12.2736   -9.8759 H   0  0  0  0  0  0  0  0  0  0  0  0
   -8.1654   10.1188  -13.9034 H   0  0  0  0  0  0  0  0  0  0  0  0
   -6.8895   12.2606  -14.0918 H   0  0  0  0  0  0  0  0  0  0  0  0
   -8.0360    9.5949   -7.2562 H   0  0  0  0  0  0  0  0  0  0  0  0
   -5.9735   10.0332   -6.7338 H   0  0  0  0  0  0  0  0  0  0  0  0
   -4.8916    8.7819   -8.4894 H   0  0  0  0  0  0  0  0  0  0  0  0
   -2.6635    9.7568   -8.0443 H   0  0  0  0  0  0  0  0  0  0  0  0
   -4.5191   13.2898   -6.4771 H   0  0  0  0  0  0  0  0  0  0  0  0
   -6.3792   12.4524   -7.8368 H   0  0  0  0  0  0  0  0  0  0  0  0
   -6.3792   11.7156   -6.1985 H   0  0  0  0  0  0  0  0  0  0  0  0
   -2.4534   14.2220   -6.1936 H   0  0  0  0  0  0  0  0  0  0  0  0
   -0.6452   10.5982   -7.5816 H   0  0  0  0  0  0  0  0  0  0  0  0
    1.4489   14.3378   -6.0355 H   0  0  0  0  0  0  0  0  0  0  0  0
    0.1877   15.4858   -6.5992 H   0  0  0  0  0  0  0  0  0  0  0  0
    0.1350   14.8465   -4.9214 H   0  0  0  0  0  0  0  0  0  0  0  0
   -3.6944   12.5388   -9.8179 H   0  0  0  0  0  0  0  0  0  0  0  0
   -4.2365   11.6128  -11.2585 H   0  0  0  0  0  0  0  0  0  0  0  0
   -1.7018   11.6081  -10.9904 H   0  0  0  0  0  0  0  0  0  0  0  0
   -2.2305   12.3532  -12.5370 H   0  0  0  0  0  0  0  0  0  0  0  0
   -1.5260   13.8871  -10.0735 H   0  0  0  0  0  0  0  0  0  0  0  0
   -1.6882   15.8706  -11.4859 H   0  0  0  0  0  0  0  0  0  0  0  0
   -2.1612   14.7923  -12.8424 H   0  0  0  0  0  0  0  0  0  0  0  0
   -4.1860   15.7766  -11.9464 H   0  0  0  0  0  0  0  0  0  0  0  0
   -3.7154   15.3542  -10.2651 H   0  0  0  0  0  0  0  0  0  0  0  0
  1  2  2  0  0  0  0
  1  4  1  0  0  0  0
  1 12  1  0  0  0  0
  2  6  1  0  0  0  0
  3  4  2  0  0  0  0
  3  5  1  0  0  0  0
  5  6  2  0  0  0  0
  5  9  1  0  0  0  0
  6  7  1  0  0  0  0
  7  8  1  0  0  0  0
  7 10  2  3  0  0  0
  8  9  2  0  0  0  0
 10 14  1  0  0  0  0
 11 12  1  0  0  0  0
 11 26  1  0  0  0  0
 11 30  1  0  0  0  0
 12 13  2  0  0  0  0
 14 15  1  0  0  0  0
 14 19  1  0  0  0  0
 15 16  2  0  0  0  0
 16 17  1  0  0  0  0
 17 18  2  0  0  0  0
 17 20  1  0  0  0  0
 18 19  1  0  0  0  0
 20 21  2  0  0  0  0
 20 24  1  0  0  0  0
 21 22  1  0  0  0  0
 22 23  1  0  0  0  0
 22 25  1  0  0  0  0
 23 24  2  0  0  0  0
 26 27  1  0  0  0  0
 27 28  1  0  0  0  0
 28 29  1  0  0  0  0
 29 30  1  0  0  0  0
  2 31  1  0  0  0  0
  3 32  1  0  0  0  0
  4 33  1  0  0  0  0
 10 34  1  0  0  0  0
 14 35  1  0  0  0  0
 15 36  1  0  0  0  0
 16 37  1  0  0  0  0
 18 38  1  0  0  0  0
 19 39  1  0  0  0  0
 19 40  1  0  0  0  0
 21 41  1  0  0  0  0
 24 42  1  0  0  0  0
 25 43  1  0  0  0  0
 25 44  1  0  0  0  0
 25 45  1  0  0  0  0
 26 46  1  0  0  0  0
 26 47  1  0  0  0  0
 27 48  1  0  0  0  0
 27 49  1  0  0  0  0
 28 50  1  0  0  0  0
 29 51  1  0  0  0  0
 29 52  1  0  0  0  0
 30 53  1  0  0  0  0
 30 54  1  0  0  0  0
M  END
> <Name>
40

> <IC50[uM]>
0.007

$$$$
40
  -OEChem-05192314333D
 Structure written by MMmdl.
 54 58  0     1  0  0  0  0  0999 V2000
   -6.3583   12.3628  -12.0152 C   0  0  0  0  0  0  0  0  0  0  0  0
   -6.5007   11.8020  -10.7383 C   0  0  0  0  0  0  0  0  0  0  0  0
   -7.7096   10.5772  -13.0382 C   0  0  0  0  0  0  0  0  0  0  0  0
   -6.9777   11.7759  -13.1307 C   0  0  0  0  0  0  0  0  0  0  0  0
   -7.8132   10.0130  -11.7619 C   0  0  0  0  0  0  0  0  0  0  0  0
   -7.2338   10.6200  -10.6051 C   0  0  0  0  0  0  0  0  0  0  0  0
   -7.6121    9.7513   -9.5135 C   0  0  3  0  0  0  0  0  0  0  0  0
   -8.2831    8.7414   -9.9888 N   0  0  0  0  0  0  0  0  0  0  0  0
   -8.4159    8.8683  -11.3018 N   0  0  0  0  0  0  0  0  0  0  0  0
   -7.3364    9.8882   -8.0249 C   0  0  0  0  0  0  0  0  0  0  0  0
   -4.3745   13.7307  -11.4480 N   0  0  0  0  0  0  0  0  0  0  0  0
   -5.5401   13.6479  -12.1823 C   0  0  0  0  0  0  0  0  0  0  0  0
   -5.9305   14.5456  -12.9289 O   0  0  0  0  0  0  0  0  0  0  0  0
   -5.9622   10.4857   -7.7364 C   0  0  0  0  0  0  0  0  0  0  0  0
   -4.8106    9.7658   -8.0516 C   0  0  0  0  0  0  0  0  0  0  0  0
   -3.5548   10.3163   -7.8015 C   0  0  0  0  0  0  0  0  0  0  0  0
   -3.4456   11.5910   -7.2371 C   0  0  0  0  0  0  0  0  0  0  0  0
   -4.5995   12.3069   -6.9174 C   0  0  0  0  0  0  0  0  0  0  0  0
   -5.8550   11.7570   -7.1647 C   0  0  0  0  0  0  0  0  0  0  0  0
   -2.1008   12.1810   -6.9758 C   0  0  0  0  0  0  0  0  0  0  0  0
   -1.7660   13.4388   -6.4773 C   0  0  0  0  0  0  0  0  0  0  0  0
   -0.4314   13.4905   -6.4174 N   0  0  0  0  0  0  0  0  0  0  0  0
    0.1713   12.4042   -6.8124 N   0  0  0  0  0  0  0  0  0  0  0  0
   -0.8030   11.5879   -7.1791 C   0  0  0  0  0  0  0  0  0  0  0  0
    0.3850   14.6084   -5.9658 C   0  0  0  0  0  0  0  0  0  0  0  0
   -3.6973   12.5089  -10.9175 C   0  0  0  0  0  0  0  0  0  0  0  0
   -2.2248   12.4637  -11.4426 C   0  0  0  0  0  0  0  0  0  0  0  0
   -1.4987   13.7622  -11.0653 N   0  0  0  0  0  0  0  0  0  0  0  0
   -2.2038   14.9363  -11.7527 C   0  0  0  0  0  0  0  0  0  0  0  0
   -3.6757   15.0331  -11.3164 C   0  0  0  0  0  0  0  0  0  0  0  0
   -6.0533   12.2736   -9.8759 H   0  0  0  0  0  0  0  0  0  0  0  0
   -8.1654   10.1188  -13.9034 H   0  0  0  0  0  0  0  0  0  0  0  0
   -6.8895   12.2606  -14.0918 H   0  0  0  0  0  0  0  0  0  0  0  0
   -6.6753    9.1879   -9.6361 H   0  0  0  0  0  0  0  0  0  0  0  0
   -8.0360    9.5949   -7.2562 H   0  0  0  0  0  0  0  0  0  0  0  0
   -4.8916    8.7819   -8.4894 H   0  0  0  0  0  0  0  0  0  0  0  0
   -2.6635    9.7568   -8.0443 H   0  0  0  0  0  0  0  0  0  0  0  0
   -4.5191   13.2898   -6.4771 H   0  0  0  0  0  0  0  0  0  0  0  0
   -6.3792   12.4524   -7.8368 H   0  0  0  0  0  0  0  0  0  0  0  0
   -6.3792   11.7156   -6.1985 H   0  0  0  0  0  0  0  0  0  0  0  0
   -2.4534   14.2220   -6.1936 H   0  0  0  0  0  0  0  0  0  0  0  0
   -0.6452   10.5982   -7.5816 H   0  0  0  0  0  0  0  0  0  0  0  0
    1.4489   14.3378   -6.0355 H   0  0  0  0  0  0  0  0  0  0  0  0
    0.1877   15.4858   -6.5992 H   0  0  0  0  0  0  0  0  0  0  0  0
    0.1350   14.8465   -4.9214 H   0  0  0  0  0  0  0  0  0  0  0  0
   -3.6944   12.5388   -9.8179 H   0  0  0  0  0  0  0  0  0  0  0  0
   -4.2365   11.6128  -11.2585 H   0  0  0  0  0  0  0  0  0  0  0  0
   -1.7018   11.6081  -10.9904 H   0  0  0  0  0  0  0  0  0  0  0  0
   -2.2305   12.3532  -12.5370 H   0  0  0  0  0  0  0  0  0  0  0  0
   -1.5260   13.8871  -10.0735 H   0  0  0  0  0  0  0  0  0  0  0  0
   -1.6882   15.8706  -11.4859 H   0  0  0  0  0  0  0  0  0  0  0  0
   -2.1612   14.7923  -12.8424 H   0  0  0  0  0  0  0  0  0  0  0  0
   -4.1860   15.7766  -11.9464 H   0  0  0  0  0  0  0  0  0  0  0  0
   -3.7154   15.3542  -10.2651 H   0  0  0  0  0  0  0  0  0  0  0  0
  1  2  2  0  0  0  0
  1  4  1  0  0  0  0
  1 12  1  0  0  0  0
  2  6  1  0  0  0  0
  3  4  2  0  0  0  0
  3  5  1  0  0  0  0
  5  6  2  0  0  0  0
  5  9  1  0  0  0  0
  6  7  1  0  0  0  0
  7  8  1  0  0  0  0
  7 10  1  0  0  0  0
  8  9  2  0  0  0  0
 10 14  2  3  0  0  0
 11 12  1  0  0  0  0
 11 26  1  0  0  0  0
 11 30  1  0  0  0  0
 12 13  2  0  0  0  0
 14 15  1  0  0  0  0
 14 19  1  0  0  0  0
 15 16  2  0  0  0  0
 16 17  1  0  0  0  0
 17 18  2  0  0  0  0
 17 20  1  0  0  0  0
 18 19  1  0  0  0  0
 20 21  2  0  0  0  0
 20 24  1  0  0  0  0
 21 22  1  0  0  0  0
 22 23  1  0  0  0  0
 22 25  1  0  0  0  0
 23 24  2  0  0  0  0
 26 27  1  0  0  0  0
 27 28  1  0  0  0  0
 28 29  1  0  0  0  0
 29 30  1  0  0  0  0
  2 31  1  0  0  0  0
  3 32  1  0  0  0  0
  4 33  1  0  0  0  0
  7 34  1  0  0  0  0
 10 35  1  0  0  0  0
 15 36  1  0  0  0  0
 16 37  1  0  0  0  0
 18 38  1  0  0  0  0
 19 39  1  0  0  0  0
 19 40  1  0  0  0  0
 21 41  1  0  0  0  0
 24 42  1  0  0  0  0
 25 43  1  0  0  0  0
 25 44  1  0  0  0  0
 25 45  1  0  0  0  0
 26 46  1  0  0  0  0
 26 47  1  0  0  0  0
 27 48  1  0  0  0  0
 27 49  1  0  0  0  0
 28 50  1  0  0  0  0
 29 51  1  0  0  0  0
 29 52  1  0  0  0  0
 30 53  1  0  0  0  0
 30 54  1  0  0  0  0
M  END
> <Name>
40

> <IC50[uM]>
0.007

$$$$
40
  -OEChem-05192314333D
 Structure written by MMmdl.
 54 58  0     0  0  0  0  0  0999 V2000
   -6.3583   12.3628  -12.0152 C   0  0  0  0  0  0  0  0  0  0  0  0
   -6.5007   11.8020  -10.7383 C   0  0  0  0  0  0  0  0  0  0  0  0
   -7.7096   10.5772  -13.0382 C   0  0  0  0  0  0  0  0  0  0  0  0
   -6.9777   11.7759  -13.1307 C   0  0  0  0  0  0  0  0  0  0  0  0
   -7.8132   10.0130  -11.7619 C   0  0  0  0  0  0  0  0  0  0  0  0
   -7.2338   10.6200  -10.6051 C   0  0  0  0  0  0  0  0  0  0  0  0
   -7.6121    9.7513   -9.5135 C   0  0  0  0  0  0  0  0  0  0  0  0
   -8.2831    8.7414   -9.9888 N   0  0  0  0  0  0  0  0  0  0  0  0
   -8.4159    8.8683  -11.3018 N   0  0  0  0  0  0  0  0  0  0  0  0
   -7.3364    9.8882   -8.0249 C   0  0  0  0  0  0  0  0  0  0  0  0
   -4.3745   13.7307  -11.4480 N   0  0  0  0  0  0  0  0  0  0  0  0
   -5.5401   13.6479  -12.1823 C   0  0  0  0  0  0  0  0  0  0  0  0
   -5.9305   14.5456  -12.9289 O   0  0  0  0  0  0  0  0  0  0  0  0
   -5.9622   10.4857   -7.7364 C   0  0  0  0  0  0  0  0  0  0  0  0
   -4.8106    9.7658   -8.0516 C   0  0  0  0  0  0  0  0  0  0  0  0
   -3.5548   10.3163   -7.8015 C   0  0  0  0  0  0  0  0  0  0  0  0
   -3.4456   11.5910   -7.2371 C   0  0  0  0  0  0  0  0  0  0  0  0
   -4.5995   12.3069   -6.9174 C   0  0  0  0  0  0  0  0  0  0  0  0
   -5.8550   11.7570   -7.1647 C   0  0  0  0  0  0  0  0  0  0  0  0
   -2.1008   12.1810   -6.9758 C   0  0  0  0  0  0  0  0  0  0  0  0
   -1.7660   13.4388   -6.4773 C   0  0  0  0  0  0  0  0  0  0  0  0
   -0.4314   13.4905   -6.4174 N   0  0  0  0  0  0  0  0  0  0  0  0
    0.1713   12.4042   -6.8124 N   0  0  0  0  0  0  0  0  0  0  0  0
   -0.8030   11.5879   -7.1791 C   0  0  0  0  0  0  0  0  0  0  0  0
    0.3850   14.6084   -5.9658 C   0  0  0  0  0  0  0  0  0  0  0  0
   -3.6973   12.5089  -10.9175 C   0  0  0  0  0  0  0  0  0  0  0  0
   -2.2248   12.4637  -11.4426 C   0  0  0  0  0  0  0  0  0  0  0  0
   -1.4987   13.7622  -11.0653 N   0  0  0  0  0  0  0  0  0  0  0  0
   -2.2038   14.9363  -11.7527 C   0  0  0  0  0  0  0  0  0  0  0  0
   -3.6757   15.0331  -11.3164 C   0  0  0  0  0  0  0  0  0  0  0  0
   -6.0533   12.2736   -9.8759 H   0  0  0  0  0  0  0  0  0  0  0  0
   -8.1654   10.1188  -13.9034 H   0  0  0  0  0  0  0  0  0  0  0  0
   -6.8895   12.2606  -14.0918 H   0  0  0  0  0  0  0  0  0  0  0  0
   -8.0360    9.5949   -7.2562 H   0  0  0  0  0  0  0  0  0  0  0  0
   -4.8916    8.7819   -8.4894 H   0  0  0  0  0  0  0  0  0  0  0  0
   -3.0350    9.6240   -7.1229 H   0  0  0  0  0  0  0  0  0  0  0  0
   -3.0264   10.3506   -8.7657 H   0  0  0  0  0  0  0  0  0  0  0  0
   -4.5191   13.2898   -6.4771 H   0  0  0  0  0  0  0  0  0  0  0  0
   -6.3792   12.4524   -7.8368 H   0  0  0  0  0  0  0  0  0  0  0  0
   -6.3792   11.7156   -6.1985 H   0  0  0  0  0  0  0  0  0  0  0  0
   -2.4534   14.2220   -6.1936 H   0  0  0  0  0  0  0  0  0  0  0  0
   -0.6452   10.5982   -7.5816 H   0  0  0  0  0  0  0  0  0  0  0  0
    1.4489   14.3378   -6.0355 H   0  0  0  0  0  0  0  0  0  0  0  0
    0.1877   15.4858   -6.5992 H   0  0  0  0  0  0  0  0  0  0  0  0
    0.1350   14.8465   -4.9214 H   0  0  0  0  0  0  0  0  0  0  0  0
   -3.6944   12.5388   -9.8179 H   0  0  0  0  0  0  0  0  0  0  0  0
   -4.2365   11.6128  -11.2585 H   0  0  0  0  0  0  0  0  0  0  0  0
   -1.7018   11.6081  -10.9904 H   0  0  0  0  0  0  0  0  0  0  0  0
   -2.2305   12.3532  -12.5370 H   0  0  0  0  0  0  0  0  0  0  0  0
   -1.5260   13.8871  -10.0735 H   0  0  0  0  0  0  0  0  0  0  0  0
   -1.6882   15.8706  -11.4859 H   0  0  0  0  0  0  0  0  0  0  0  0
   -2.1612   14.7923  -12.8424 H   0  0  0  0  0  0  0  0  0  0  0  0
   -4.1860   15.7766  -11.9464 H   0  0  0  0  0  0  0  0  0  0  0  0
   -3.7154   15.3542  -10.2651 H   0  0  0  0  0  0  0  0  0  0  0  0
  1  2  2  0  0  0  0
  1  4  1  0  0  0  0
  1 12  1  0  0  0  0
  2  6  1  0  0  0  0
  3  4  2  0  0  0  0
  3  5  1  0  0  0  0
  5  6  2  0  0  0  0
  5  9  1  0  0  0  0
  6  7  1  0  0  0  0
  7  8  1  0  0  0  0
  7 10  2  3  0  0  0
  8  9  2  0  0  0  0
 10 14  1  0  0  0  0
 11 12  1  0  0  0  0
 11 26  1  0  0  0  0
 11 30  1  0  0  0  0
 12 13  2  0  0  0  0
 14 15  2  0  0  0  0
 14 19  1  0  0  0  0
 15 16  1  0  0  0  0
 16 17  1  0  0  0  0
 17 18  2  0  0  0  0
 17 20  1  0  0  0  0
 18 19  1  0  0  0  0
 20 21  2  0  0  0  0
 20 24  1  0  0  0  0
 21 22  1  0  0  0  0
 22 23  1  0  0  0  0
 22 25  1  0  0  0  0
 23 24  2  0  0  0  0
 26 27  1  0  0  0  0
 27 28  1  0  0  0  0
 28 29  1  0  0  0  0
 29 30  1  0  0  0  0
  2 31  1  0  0  0  0
  3 32  1  0  0  0  0
  4 33  1  0  0  0  0
 10 34  1  0  0  0  0
 15 35  1  0  0  0  0
 16 36  1  0  0  0  0
 16 37  1  0  0  0  0
 18 38  1  0  0  0  0
 19 39  1  0  0  0  0
 19 40  1  0  0  0  0
 21 41  1  0  0  0  0
 24 42  1  0  0  0  0
 25 43  1  0  0  0  0
 25 44  1  0  0  0  0
 25 45  1  0  0  0  0
 26 46  1  0  0  0  0
 26 47  1  0  0  0  0
 27 48  1  0  0  0  0
 27 49  1  0  0  0  0
 28 50  1  0  0  0  0
 29 51  1  0  0  0  0
 29 52  1  0  0  0  0
 30 53  1  0  0  0  0
 30 54  1  0  0  0  0
M  END
> <Name>
40

> <IC50[uM]>
0.007

$$$$
40
  -OEChem-05192314333D
 Structure written by MMmdl.
 54 58  0     0  0  0  0  0  0999 V2000
   -6.3583   12.3628  -12.0152 C   0  0  0  0  0  0  0  0  0  0  0  0
   -6.5007   11.8020  -10.7383 C   0  0  0  0  0  0  0  0  0  0  0  0
   -7.7096   10.5772  -13.0382 C   0  0  0  0  0  0  0  0  0  0  0  0
   -6.9777   11.7759  -13.1307 C   0  0  0  0  0  0  0  0  0  0  0  0
   -7.8132   10.0130  -11.7619 C   0  0  0  0  0  0  0  0  0  0  0  0
   -7.2338   10.6200  -10.6051 C   0  0  0  0  0  0  0  0  0  0  0  0
   -7.6121    9.7513   -9.5135 C   0  0  0  0  0  0  0  0  0  0  0  0
   -8.2831    8.7414   -9.9888 N   0  0  0  0  0  0  0  0  0  0  0  0
   -8.4159    8.8683  -11.3018 N   0  0  0  0  0  0  0  0  0  0  0  0
   -7.3364    9.8882   -8.0249 C   0  0  0  0  0  0  0  0  0  0  0  0
   -4.3745   13.7307  -11.4480 N   0  0  0  0  0  0  0  0  0  0  0  0
   -5.5401   13.6479  -12.1823 C   0  0  0  0  0  0  0  0  0  0  0  0
   -5.9305   14.5456  -12.9289 O   0  0  0  0  0  0  0  0  0  0  0  0
   -5.9622   10.4857   -7.7364 C   0  0  0  0  0  0  0  0  0  0  0  0
   -4.8106    9.7658   -8.0516 C   0  0  0  0  0  0  0  0  0  0  0  0
   -3.5548   10.3163   -7.8015 C   0  0  0  0  0  0  0  0  0  0  0  0
   -3.4456   11.5910   -7.2371 C   0  0  0  0  0  0  0  0  0  0  0  0
   -4.5995   12.3069   -6.9174 C   0  0  0  0  0  0  0  0  0  0  0  0
   -5.8550   11.7570   -7.1647 C   0  0  0  0  0  0  0  0  0  0  0  0
   -2.1008   12.1810   -6.9758 C   0  0  0  0  0  0  0  0  0  0  0  0
   -1.7660   13.4388   -6.4773 C   0  0  0  0  0  0  0  0  0  0  0  0
   -0.4314   13.4905   -6.4174 N   0  0  0  0  0  0  0  0  0  0  0  0
    0.1713   12.4042   -6.8124 N   0  0  0  0  0  0  0  0  0  0  0  0
   -0.8030   11.5879   -7.1791 C   0  0  0  0  0  0  0  0  0  0  0  0
    0.3850   14.6084   -5.9658 C   0  0  0  0  0  0  0  0  0  0  0  0
   -3.6973   12.5089  -10.9175 C   0  0  0  0  0  0  0  0  0  0  0  0
   -2.2248   12.4637  -11.4426 C   0  0  0  0  0  0  0  0  0  0  0  0
   -1.4987   13.7622  -11.0653 N   0  0  0  0  0  0  0  0  0  0  0  0
   -2.2038   14.9363  -11.7527 C   0  0  0  0  0  0  0  0  0  0  0  0
   -3.6757   15.0331  -11.3164 C   0  0  0  0  0  0  0  0  0  0  0  0
   -6.0533   12.2736   -9.8759 H   0  0  0  0  0  0  0  0  0  0  0  0
   -8.1654   10.1188  -13.9034 H   0  0  0  0  0  0  0  0  0  0  0  0
   -6.8895   12.2606  -14.0918 H   0  0  0  0  0  0  0  0  0  0  0  0
   -8.0360    9.5949   -7.2562 H   0  0  0  0  0  0  0  0  0  0  0  0
   -4.8916    8.7819   -8.4894 H   0  0  0  0  0  0  0  0  0  0  0  0
   -2.6635    9.7568   -8.0443 H   0  0  0  0  0  0  0  0  0  0  0  0
   -4.5529   12.5178   -5.8388 H   0  0  0  0  0  0  0  0  0  0  0  0
   -4.5515   13.2520   -7.4782 H   0  0  0  0  0  0  0  0  0  0  0  0
   -6.3792   12.4524   -7.8368 H   0  0  0  0  0  0  0  0  0  0  0  0
   -6.3792   11.7156   -6.1985 H   0  0  0  0  0  0  0  0  0  0  0  0
   -2.4534   14.2220   -6.1936 H   0  0  0  0  0  0  0  0  0  0  0  0
   -0.6452   10.5982   -7.5816 H   0  0  0  0  0  0  0  0  0  0  0  0
    1.4489   14.3378   -6.0355 H   0  0  0  0  0  0  0  0  0  0  0  0
    0.1877   15.4858   -6.5992 H   0  0  0  0  0  0  0  0  0  0  0  0
    0.1350   14.8465   -4.9214 H   0  0  0  0  0  0  0  0  0  0  0  0
   -3.6944   12.5388   -9.8179 H   0  0  0  0  0  0  0  0  0  0  0  0
   -4.2365   11.6128  -11.2585 H   0  0  0  0  0  0  0  0  0  0  0  0
   -1.7018   11.6081  -10.9904 H   0  0  0  0  0  0  0  0  0  0  0  0
   -2.2305   12.3532  -12.5370 H   0  0  0  0  0  0  0  0  0  0  0  0
   -1.5260   13.8871  -10.0735 H   0  0  0  0  0  0  0  0  0  0  0  0
   -1.6882   15.8706  -11.4859 H   0  0  0  0  0  0  0  0  0  0  0  0
   -2.1612   14.7923  -12.8424 H   0  0  0  0  0  0  0  0  0  0  0  0
   -4.1860   15.7766  -11.9464 H   0  0  0  0  0  0  0  0  0  0  0  0
   -3.7154   15.3542  -10.2651 H   0  0  0  0  0  0  0  0  0  0  0  0
  1  2  2  0  0  0  0
  1  4  1  0  0  0  0
  1 12  1  0  0  0  0
  2  6  1  0  0  0  0
  3  4  2  0  0  0  0
  3  5  1  0  0  0  0
  5  6  2  0  0  0  0
  5  9  1  0  0  0  0
  6  7  1  0  0  0  0
  7  8  1  0  0  0  0
  7 10  2  3  0  0  0
  8  9  2  0  0  0  0
 10 14  1  0  0  0  0
 11 12  1  0  0  0  0
 11 26  1  0  0  0  0
 11 30  1  0  0  0  0
 12 13  2  0  0  0  0
 14 15  2  0  0  0  0
 14 19  1  0  0  0  0
 15 16  1  0  0  0  0
 16 17  2  0  0  0  0
 17 18  1  0  0  0  0
 17 20  1  0  0  0  0
 18 19  1  0  0  0  0
 20 21  2  0  0  0  0
 20 24  1  0  0  0  0
 21 22  1  0  0  0  0
 22 23  1  0  0  0  0
 22 25  1  0  0  0  0
 23 24  2  0  0  0  0
 26 27  1  0  0  0  0
 27 28  1  0  0  0  0
 28 29  1  0  0  0  0
 29 30  1  0  0  0  0
  2 31  1  0  0  0  0
  3 32  1  0  0  0  0
  4 33  1  0  0  0  0
 10 34  1  0  0  0  0
 15 35  1  0  0  0  0
 16 36  1  0  0  0  0
 18 37  1  0  0  0  0
 18 38  1  0  0  0  0
 19 39  1  0  0  0  0
 19 40  1  0  0  0  0
 21 41  1  0  0  0  0
 24 42  1  0  0  0  0
 25 43  1  0  0  0  0
 25 44  1  0  0  0  0
 25 45  1  0  0  0  0
 26 46  1  0  0  0  0
 26 47  1  0  0  0  0
 27 48  1  0  0  0  0
 27 49  1  0  0  0  0
 28 50  1  0  0  0  0
 29 51  1  0  0  0  0
 29 52  1  0  0  0  0
 30 53  1  0  0  0  0
 30 54  1  0  0  0  0
M  END
> <Name>
40

> <IC50[uM]>
0.007

$$$$
40
  -OEChem-05192314333D
 Structure written by MMmdl.
 54 58  0     1  0  0  0  0  0999 V2000
   -6.3583   12.3628  -12.0152 C   0  0  3  0  0  0  0  0  0  0  0  0
   -6.5007   11.8020  -10.7383 C   0  0  0  0  0  0  0  0  0  0  0  0
   -7.7096   10.5772  -13.0382 C   0  0  0  0  0  0  0  0  0  0  0  0
   -6.9777   11.7759  -13.1307 C   0  0  0  0  0  0  0  0  0  0  0  0
   -7.8132   10.0130  -11.7619 C   0  0  0  0  0  0  0  0  0  0  0  0
   -7.2338   10.6200  -10.6051 C   0  0  0  0  0  0  0  0  0  0  0  0
   -7.6121    9.7513   -9.5135 C   0  0  0  0  0  0  0  0  0  0  0  0
   -8.2831    8.7414   -9.9888 N   0  0  0  0  0  0  0  0  0  0  0  0
   -8.4159    8.8683  -11.3018 N   0  0  0  0  0  0  0  0  0  0  0  0
   -7.3364    9.8882   -8.0249 C   0  0  0  0  0  0  0  0  0  0  0  0
   -4.3745   13.7307  -11.4480 N   0  0  0  0  0  0  0  0  0  0  0  0
   -5.5401   13.6479  -12.1823 C   0  0  0  0  0  0  0  0  0  0  0  0
   -5.9305   14.5456  -12.9289 O   0  0  0  0  0  0  0  0  0  0  0  0
   -5.9622   10.4857   -7.7364 C   0  0  0  0  0  0  0  0  0  0  0  0
   -4.8106    9.7658   -8.0516 C   0  0  0  0  0  0  0  0  0  0  0  0
   -3.5548   10.3163   -7.8015 C   0  0  0  0  0  0  0  0  0  0  0  0
   -3.4456   11.5910   -7.2371 C   0  0  0  0  0  0  0  0  0  0  0  0
   -4.5995   12.3069   -6.9174 C   0  0  0  0  0  0  0  0  0  0  0  0
   -5.8550   11.7570   -7.1647 C   0  0  0  0  0  0  0  0  0  0  0  0
   -2.1008   12.1810   -6.9758 C   0  0  0  0  0  0  0  0  0  0  0  0
   -1.7660   13.4388   -6.4773 C   0  0  0  0  0  0  0  0  0  0  0  0
   -0.4314   13.4905   -6.4174 N   0  0  0  0  0  0  0  0  0  0  0  0
    0.1713   12.4042   -6.8124 N   0  0  0  0  0  0  0  0  0  0  0  0
   -0.8030   11.5879   -7.1791 C   0  0  0  0  0  0  0  0  0  0  0  0
    0.3850   14.6084   -5.9658 C   0  0  0  0  0  0  0  0  0  0  0  0
   -3.6973   12.5089  -10.9175 C   0  0  0  0  0  0  0  0  0  0  0  0
   -2.2248   12.4637  -11.4426 C   0  0  0  0  0  0  0  0  0  0  0  0
   -1.4987   13.7622  -11.0653 N   0  0  0  0  0  0  0  0  0  0  0  0
   -2.2038   14.9363  -11.7527 C   0  0  0  0  0  0  0  0  0  0  0  0
   -3.6757   15.0331  -11.3164 C   0  0  0  0  0  0  0  0  0  0  0  0
   -5.4561   11.7578  -12.1885 H   0  0  0  0  0  0  0  0  0  0  0  0
   -5.4884   11.6004  -10.3579 H   0  0  0  0  0  0  0  0  0  0  0  0
   -6.9867   12.5582  -10.1044 H   0  0  0  0  0  0  0  0  0  0  0  0
   -8.1654   10.1188  -13.9034 H   0  0  0  0  0  0  0  0  0  0  0  0
   -6.8895   12.2606  -14.0918 H   0  0  0  0  0  0  0  0  0  0  0  0
   -8.0360    9.5949   -7.2562 H   0  0  0  0  0  0  0  0  0  0  0  0
   -4.8916    8.7819   -8.4894 H   0  0  0  0  0  0  0  0  0  0  0  0
   -2.6635    9.7568   -8.0443 H   0  0  0  0  0  0  0  0  0  0  0  0
   -4.5191   13.2898   -6.4771 H   0  0  0  0  0  0  0  0  0  0  0  0
   -6.7464   12.3131   -6.9146 H   0  0  0  0  0  0  0  0  0  0  0  0
   -2.4534   14.2220   -6.1936 H   0  0  0  0  0  0  0  0  0  0  0  0
   -0.6452   10.5982   -7.5816 H   0  0  0  0  0  0  0  0  0  0  0  0
    1.4489   14.3378   -6.0355 H   0  0  0  0  0  0  0  0  0  0  0  0
    0.1877   15.4858   -6.5992 H   0  0  0  0  0  0  0  0  0  0  0  0
    0.1350   14.8465   -4.9214 H   0  0  0  0  0  0  0  0  0  0  0  0
   -3.6944   12.5388   -9.8179 H   0  0  0  0  0  0  0  0  0  0  0  0
   -4.2365   11.6128  -11.2585 H   0  0  0  0  0  0  0  0  0  0  0  0
   -1.7018   11.6081  -10.9904 H   0  0  0  0  0  0  0  0  0  0  0  0
   -2.2305   12.3532  -12.5370 H   0  0  0  0  0  0  0  0  0  0  0  0
   -1.5260   13.8871  -10.0735 H   0  0  0  0  0  0  0  0  0  0  0  0
   -1.6882   15.8706  -11.4859 H   0  0  0  0  0  0  0  0  0  0  0  0
   -2.1612   14.7923  -12.8424 H   0  0  0  0  0  0  0  0  0  0  0  0
   -4.1860   15.7766  -11.9464 H   0  0  0  0  0  0  0  0  0  0  0  0
   -3.7154   15.3542  -10.2651 H   0  0  0  0  0  0  0  0  0  0  0  0
  1  2  1  0  0  0  0
  1  4  1  0  0  0  0
  1 12  1  0  0  0  0
  2  6  1  0  0  0  0
  3  4  2  0  0  0  0
  3  5  1  0  0  0  0
  5  6  2  0  0  0  0
  5  9  1  0  0  0  0
  6  7  1  0  0  0  0
  7  8  1  0  0  0  0
  7 10  2  3  0  0  0
  8  9  2  0  0  0  0
 10 14  1  0  0  0  0
 11 12  1  0  0  0  0
 11 26  1  0  0  0  0
 11 30  1  0  0  0  0
 12 13  2  0  0  0  0
 14 15  2  0  0  0  0
 14 19  1  0  0  0  0
 15 16  1  0  0  0  0
 16 17  2  0  0  0  0
 17 18  1  0  0  0  0
 17 20  1  0  0  0  0
 18 19  2  0  0  0  0
 20 21  2  0  0  0  0
 20 24  1  0  0  0  0
 21 22  1  0  0  0  0
 22 23  1  0  0  0  0
 22 25  1  0  0  0  0
 23 24  2  0  0  0  0
 26 27  1  0  0  0  0
 27 28  1  0  0  0  0
 28 29  1  0  0  0  0
 29 30  1  0  0  0  0
  1 31  1  0  0  0  0
  2 32  1  0  0  0  0
  2 33  1  0  0  0  0
  3 34  1  0  0  0  0
  4 35  1  0  0  0  0
 10 36  1  0  0  0  0
 15 37  1  0  0  0  0
 16 38  1  0  0  0  0
 18 39  1  0  0  0  0
 19 40  1  0  0  0  0
 21 41  1  0  0  0  0
 24 42  1  0  0  0  0
 25 43  1  0  0  0  0
 25 44  1  0  0  0  0
 25 45  1  0  0  0  0
 26 46  1  0  0  0  0
 26 47  1  0  0  0  0
 27 48  1  0  0  0  0
 27 49  1  0  0  0  0
 28 50  1  0  0  0  0
 29 51  1  0  0  0  0
 29 52  1  0  0  0  0
 30 53  1  0  0  0  0
 30 54  1  0  0  0  0
M  END
> <Name>
40

> <IC50[uM]>
0.007

$$$$
40
  -OEChem-05192314333D
 Structure written by MMmdl.
 54 58  0     1  0  0  0  0  0999 V2000
   -6.3583   12.3628  -12.0152 C   0  0  0  0  0  0  0  0  0  0  0  0
   -6.5007   11.8020  -10.7383 C   0  0  0  0  0  0  0  0  0  0  0  0
   -7.7096   10.5772  -13.0382 C   0  0  0  0  0  0  0  0  0  0  0  0
   -6.9777   11.7759  -13.1307 C   0  0  0  0  0  0  0  0  0  0  0  0
   -7.8132   10.0130  -11.7619 C   0  0  0  0  0  0  0  0  0  0  0  0
   -7.2338   10.6200  -10.6051 C   0  0  3  0  0  0  0  0  0  0  0  0
   -7.6121    9.7513   -9.5135 C   0  0  0  0  0  0  0  0  0  0  0  0
   -8.2831    8.7414   -9.9888 N   0  0  0  0  0  0  0  0  0  0  0  0
   -8.4159    8.8683  -11.3018 N   0  0  0  0  0  0  0  0  0  0  0  0
   -7.3364    9.8882   -8.0249 C   0  0  0  0  0  0  0  0  0  0  0  0
   -4.3745   13.7307  -11.4480 N   0  0  0  0  0  0  0  0  0  0  0  0
   -5.5401   13.6479  -12.1823 C   0  0  0  0  0  0  0  0  0  0  0  0
   -5.9305   14.5456  -12.9289 O   0  0  0  0  0  0  0  0  0  0  0  0
   -5.9622   10.4857   -7.7364 C   0  0  0  0  0  0  0  0  0  0  0  0
   -4.8106    9.7658   -8.0516 C   0  0  0  0  0  0  0  0  0  0  0  0
   -3.5548   10.3163   -7.8015 C   0  0  0  0  0  0  0  0  0  0  0  0
   -3.4456   11.5910   -7.2371 C   0  0  0  0  0  0  0  0  0  0  0  0
   -4.5995   12.3069   -6.9174 C   0  0  0  0  0  0  0  0  0  0  0  0
   -5.8550   11.7570   -7.1647 C   0  0  0  0  0  0  0  0  0  0  0  0
   -2.1008   12.1810   -6.9758 C   0  0  0  0  0  0  0  0  0  0  0  0
   -1.7660   13.4388   -6.4773 C   0  0  0  0  0  0  0  0  0  0  0  0
   -0.4314   13.4905   -6.4174 N   0  0  0  0  0  0  0  0  0  0  0  0
    0.1713   12.4042   -6.8124 N   0  0  0  0  0  0  0  0  0  0  0  0
   -0.8030   11.5879   -7.1791 C   0  0  0  0  0  0  0  0  0  0  0  0
    0.3850   14.6084   -5.9658 C   0  0  0  0  0  0  0  0  0  0  0  0
   -3.6973   12.5089  -10.9175 C   0  0  0  0  0  0  0  0  0  0  0  0
   -2.2248   12.4637  -11.4426 C   0  0  0  0  0  0  0  0  0  0  0  0
   -1.4987   13.7622  -11.0653 N   0  0  0  0  0  0  0  0  0  0  0  0
   -2.2038   14.9363  -11.7527 C   0  0  0  0  0  0  0  0  0  0  0  0
   -3.6757   15.0331  -11.3164 C   0  0  0  0  0  0  0  0  0  0  0  0
   -5.4884   11.6004  -10.3579 H   0  0  0  0  0  0  0  0  0  0  0  0
   -6.9867   12.5582  -10.1044 H   0  0  0  0  0  0  0  0  0  0  0  0
   -8.1654   10.1188  -13.9034 H   0  0  0  0  0  0  0  0  0  0  0  0
   -6.8895   12.2606  -14.0918 H   0  0  0  0  0  0  0  0  0  0  0  0
   -6.3160   10.0327  -10.7556 H   0  0  0  0  0  0  0  0  0  0  0  0
   -8.0360    9.5949   -7.2562 H   0  0  0  0  0  0  0  0  0  0  0  0
   -4.8916    8.7819   -8.4894 H   0  0  0  0  0  0  0  0  0  0  0  0
   -2.6635    9.7568   -8.0443 H   0  0  0  0  0  0  0  0  0  0  0  0
   -4.5191   13.2898   -6.4771 H   0  0  0  0  0  0  0  0  0  0  0  0
   -6.7464   12.3131   -6.9146 H   0  0  0  0  0  0  0  0  0  0  0  0
   -2.4534   14.2220   -6.1936 H   0  0  0  0  0  0  0  0  0  0  0  0
   -0.6452   10.5982   -7.5816 H   0  0  0  0  0  0  0  0  0  0  0  0
    1.4489   14.3378   -6.0355 H   0  0  0  0  0  0  0  0  0  0  0  0
    0.1877   15.4858   -6.5992 H   0  0  0  0  0  0  0  0  0  0  0  0
    0.1350   14.8465   -4.9214 H   0  0  0  0  0  0  0  0  0  0  0  0
   -3.6944   12.5388   -9.8179 H   0  0  0  0  0  0  0  0  0  0  0  0
   -4.2365   11.6128  -11.2585 H   0  0  0  0  0  0  0  0  0  0  0  0
   -1.7018   11.6081  -10.9904 H   0  0  0  0  0  0  0  0  0  0  0  0
   -2.2305   12.3532  -12.5370 H   0  0  0  0  0  0  0  0  0  0  0  0
   -1.5260   13.8871  -10.0735 H   0  0  0  0  0  0  0  0  0  0  0  0
   -1.6882   15.8706  -11.4859 H   0  0  0  0  0  0  0  0  0  0  0  0
   -2.1612   14.7923  -12.8424 H   0  0  0  0  0  0  0  0  0  0  0  0
   -4.1860   15.7766  -11.9464 H   0  0  0  0  0  0  0  0  0  0  0  0
   -3.7154   15.3542  -10.2651 H   0  0  0  0  0  0  0  0  0  0  0  0
  1  2  1  0  0  0  0
  1  4  2  0  0  0  0
  1 12  1  0  0  0  0
  2  6  1  0  0  0  0
  3  4  1  0  0  0  0
  3  5  2  0  0  0  0
  5  6  1  0  0  0  0
  5  9  1  0  0  0  0
  6  7  1  0  0  0  0
  7  8  1  0  0  0  0
  7 10  2  3  0  0  0
  8  9  2  0  0  0  0
 10 14  1  0  0  0  0
 11 12  1  0  0  0  0
 11 26  1  0  0  0  0
 11 30  1  0  0  0  0
 12 13  2  0  0  0  0
 14 15  2  0  0  0  0
 14 19  1  0  0  0  0
 15 16  1  0  0  0  0
 16 17  2  0  0  0  0
 17 18  1  0  0  0  0
 17 20  1  0  0  0  0
 18 19  2  0  0  0  0
 20 21  2  0  0  0  0
 20 24  1  0  0  0  0
 21 22  1  0  0  0  0
 22 23  1  0  0  0  0
 22 25  1  0  0  0  0
 23 24  2  0  0  0  0
 26 27  1  0  0  0  0
 27 28  1  0  0  0  0
 28 29  1  0  0  0  0
 29 30  1  0  0  0  0
  2 31  1  0  0  0  0
  2 32  1  0  0  0  0
  3 33  1  0  0  0  0
  4 34  1  0  0  0  0
  6 35  1  0  0  0  0
 10 36  1  0  0  0  0
 15 37  1  0  0  0  0
 16 38  1  0  0  0  0
 18 39  1  0  0  0  0
 19 40  1  0  0  0  0
 21 41  1  0  0  0  0
 24 42  1  0  0  0  0
 25 43  1  0  0  0  0
 25 44  1  0  0  0  0
 25 45  1  0  0  0  0
 26 46  1  0  0  0  0
 26 47  1  0  0  0  0
 27 48  1  0  0  0  0
 27 49  1  0  0  0  0
 28 50  1  0  0  0  0
 29 51  1  0  0  0  0
 29 52  1  0  0  0  0
 30 53  1  0  0  0  0
 30 54  1  0  0  0  0
M  END
> <Name>
40

> <IC50[uM]>
0.007

$$$$
40
  -OEChem-05192314333D
 Structure written by MMmdl.
 54 58  0     0  0  0  0  0  0999 V2000
   -6.3583   12.3628  -12.0152 C   0  0  0  0  0  0  0  0  0  0  0  0
   -6.5007   11.8020  -10.7383 C   0  0  0  0  0  0  0  0  0  0  0  0
   -7.7096   10.5772  -13.0382 C   0  0  0  0  0  0  0  0  0  0  0  0
   -6.9777   11.7759  -13.1307 C   0  0  0  0  0  0  0  0  0  0  0  0
   -7.8132   10.0130  -11.7619 C   0  0  0  0  0  0  0  0  0  0  0  0
   -7.2338   10.6200  -10.6051 C   0  0  0  0  0  0  0  0  0  0  0  0
   -7.6121    9.7513   -9.5135 C   0  0  0  0  0  0  0  0  0  0  0  0
   -8.2831    8.7414   -9.9888 N   0  0  0  0  0  0  0  0  0  0  0  0
   -8.4159    8.8683  -11.3018 N   0  0  0  0  0  0  0  0  0  0  0  0
   -7.3364    9.8882   -8.0249 C   0  0  0  0  0  0  0  0  0  0  0  0
   -4.3745   13.7307  -11.4480 N   0  0  0  0  0  0  0  0  0  0  0  0
   -5.5401   13.6479  -12.1823 C   0  0  0  0  0  0  0  0  0  0  0  0
   -5.9305   14.5456  -12.9289 O   0  0  0  0  0  0  0  0  0  0  0  0
   -5.9622   10.4857   -7.7364 C   0  0  0  0  0  0  0  0  0  0  0  0
   -4.8106    9.7658   -8.0516 C   0  0  0  0  0  0  0  0  0  0  0  0
   -3.5548   10.3163   -7.8015 C   0  0  0  0  0  0  0  0  0  0  0  0
   -3.4456   11.5910   -7.2371 C   0  0  0  0  0  0  0  0  0  0  0  0
   -4.5995   12.3069   -6.9174 C   0  0  0  0  0  0  0  0  0  0  0  0
   -5.8550   11.7570   -7.1647 C   0  0  0  0  0  0  0  0  0  0  0  0
   -2.1008   12.1810   -6.9758 C   0  0  0  0  0  0  0  0  0  0  0  0
   -1.7660   13.4388   -6.4773 C   0  0  0  0  0  0  0  0  0  0  0  0
   -0.4314   13.4905   -6.4174 N   0  0  0  0  0  0  0  0  0  0  0  0
    0.1713   12.4042   -6.8124 N   0  0  0  0  0  0  0  0  0  0  0  0
   -0.8030   11.5879   -7.1791 C   0  0  0  0  0  0  0  0  0  0  0  0
    0.3850   14.6084   -5.9658 C   0  0  0  0  0  0  0  0  0  0  0  0
   -3.6973   12.5089  -10.9175 C   0  0  0  0  0  0  0  0  0  0  0  0
   -2.2248   12.4637  -11.4426 C   0  0  0  0  0  0  0  0  0  0  0  0
   -1.4987   13.7622  -11.0653 N   0  0  0  0  0  0  0  0  0  0  0  0
   -2.2038   14.9363  -11.7527 C   0  0  0  0  0  0  0  0  0  0  0  0
   -3.6757   15.0331  -11.3164 C   0  0  0  0  0  0  0  0  0  0  0  0
   -5.4884   11.6004  -10.3579 H   0  0  0  0  0  0  0  0  0  0  0  0
   -6.9867   12.5582  -10.1044 H   0  0  0  0  0  0  0  0  0  0  0  0
   -8.7288   10.7776  -13.4002 H   0  0  0  0  0  0  0  0  0  0  0  0
   -7.2265    9.8377  -13.6937 H   0  0  0  0  0  0  0  0  0  0  0  0
   -6.8895   12.2606  -14.0918 H   0  0  0  0  0  0  0  0  0  0  0  0
   -8.0360    9.5949   -7.2562 H   0  0  0  0  0  0  0  0  0  0  0  0
   -4.8916    8.7819   -8.4894 H   0  0  0  0  0  0  0  0  0  0  0  0
   -2.6635    9.7568   -8.0443 H   0  0  0  0  0  0  0  0  0  0  0  0
   -4.5191   13.2898   -6.4771 H   0  0  0  0  0  0  0  0  0  0  0  0
   -6.7464   12.3131   -6.9146 H   0  0  0  0  0  0  0  0  0  0  0  0
   -2.4534   14.2220   -6.1936 H   0  0  0  0  0  0  0  0  0  0  0  0
   -0.6452   10.5982   -7.5816 H   0  0  0  0  0  0  0  0  0  0  0  0
    1.4489   14.3378   -6.0355 H   0  0  0  0  0  0  0  0  0  0  0  0
    0.1877   15.4858   -6.5992 H   0  0  0  0  0  0  0  0  0  0  0  0
    0.1350   14.8465   -4.9214 H   0  0  0  0  0  0  0  0  0  0  0  0
   -3.6944   12.5388   -9.8179 H   0  0  0  0  0  0  0  0  0  0  0  0
   -4.2365   11.6128  -11.2585 H   0  0  0  0  0  0  0  0  0  0  0  0
   -1.7018   11.6081  -10.9904 H   0  0  0  0  0  0  0  0  0  0  0  0
   -2.2305   12.3532  -12.5370 H   0  0  0  0  0  0  0  0  0  0  0  0
   -1.5260   13.8871  -10.0735 H   0  0  0  0  0  0  0  0  0  0  0  0
   -1.6882   15.8706  -11.4859 H   0  0  0  0  0  0  0  0  0  0  0  0
   -2.1612   14.7923  -12.8424 H   0  0  0  0  0  0  0  0  0  0  0  0
   -4.1860   15.7766  -11.9464 H   0  0  0  0  0  0  0  0  0  0  0  0
   -3.7154   15.3542  -10.2651 H   0  0  0  0  0  0  0  0  0  0  0  0
  1  2  1  0  0  0  0
  1  4  2  0  0  0  0
  1 12  1  0  0  0  0
  2  6  1  0  0  0  0
  3  4  1  0  0  0  0
  3  5  1  0  0  0  0
  5  6  2  0  0  0  0
  5  9  1  0  0  0  0
  6  7  1  0  0  0  0
  7  8  1  0  0  0  0
  7 10  2  3  0  0  0
  8  9  2  0  0  0  0
 10 14  1  0  0  0  0
 11 12  1  0  0  0  0
 11 26  1  0  0  0  0
 11 30  1  0  0  0  0
 12 13  2  0  0  0  0
 14 15  2  0  0  0  0
 14 19  1  0  0  0  0
 15 16  1  0  0  0  0
 16 17  2  0  0  0  0
 17 18  1  0  0  0  0
 17 20  1  0  0  0  0
 18 19  2  0  0  0  0
 20 21  2  0  0  0  0
 20 24  1  0  0  0  0
 21 22  1  0  0  0  0
 22 23  1  0  0  0  0
 22 25  1  0  0  0  0
 23 24  2  0  0  0  0
 26 27  1  0  0  0  0
 27 28  1  0  0  0  0
 28 29  1  0  0  0  0
 29 30  1  0  0  0  0
  2 31  1  0  0  0  0
  2 32  1  0  0  0  0
  3 33  1  0  0  0  0
  3 34  1  0  0  0  0
  4 35  1  0  0  0  0
 10 36  1  0  0  0  0
 15 37  1  0  0  0  0
 16 38  1  0  0  0  0
 18 39  1  0  0  0  0
 19 40  1  0  0  0  0
 21 41  1  0  0  0  0
 24 42  1  0  0  0  0
 25 43  1  0  0  0  0
 25 44  1  0  0  0  0
 25 45  1  0  0  0  0
 26 46  1  0  0  0  0
 26 47  1  0  0  0  0
 27 48  1  0  0  0  0
 27 49  1  0  0  0  0
 28 50  1  0  0  0  0
 29 51  1  0  0  0  0
 29 52  1  0  0  0  0
 30 53  1  0  0  0  0
 30 54  1  0  0  0  0
M  END
> <Name>
40

> <IC50[uM]>
0.007

$$$$
40
  -OEChem-05192314333D
 Structure written by MMmdl.
 54 58  0     1  0  0  0  0  0999 V2000
   -6.3583   12.3628  -12.0152 C   0  0  0  0  0  0  0  0  0  0  0  0
   -6.5007   11.8020  -10.7383 C   0  0  0  0  0  0  0  0  0  0  0  0
   -7.7096   10.5772  -13.0382 C   0  0  0  0  0  0  0  0  0  0  0  0
   -6.9777   11.7759  -13.1307 C   0  0  0  0  0  0  0  0  0  0  0  0
   -7.8132   10.0130  -11.7619 C   0  0  3  0  0  0  0  0  0  0  0  0
   -7.2338   10.6200  -10.6051 C   0  0  0  0  0  0  0  0  0  0  0  0
   -7.6121    9.7513   -9.5135 C   0  0  0  0  0  0  0  0  0  0  0  0
   -8.2831    8.7414   -9.9888 N   0  0  0  0  0  0  0  0  0  0  0  0
   -8.4159    8.8683  -11.3018 N   0  0  0  0  0  0  0  0  0  0  0  0
   -7.3364    9.8882   -8.0249 C   0  0  0  0  0  0  0  0  0  0  0  0
   -4.3745   13.7307  -11.4480 N   0  0  0  0  0  0  0  0  0  0  0  0
   -5.5401   13.6479  -12.1823 C   0  0  0  0  0  0  0  0  0  0  0  0
   -5.9305   14.5456  -12.9289 O   0  0  0  0  0  0  0  0  0  0  0  0
   -5.9622   10.4857   -7.7364 C   0  0  0  0  0  0  0  0  0  0  0  0
   -4.8106    9.7658   -8.0516 C   0  0  0  0  0  0  0  0  0  0  0  0
   -3.5548   10.3163   -7.8015 C   0  0  0  0  0  0  0  0  0  0  0  0
   -3.4456   11.5910   -7.2371 C   0  0  0  0  0  0  0  0  0  0  0  0
   -4.5995   12.3069   -6.9174 C   0  0  0  0  0  0  0  0  0  0  0  0
   -5.8550   11.7570   -7.1647 C   0  0  0  0  0  0  0  0  0  0  0  0
   -2.1008   12.1810   -6.9758 C   0  0  0  0  0  0  0  0  0  0  0  0
   -1.7660   13.4388   -6.4773 C   0  0  0  0  0  0  0  0  0  0  0  0
   -0.4314   13.4905   -6.4174 N   0  0  0  0  0  0  0  0  0  0  0  0
    0.1713   12.4042   -6.8124 N   0  0  0  0  0  0  0  0  0  0  0  0
   -0.8030   11.5879   -7.1791 C   0  0  0  0  0  0  0  0  0  0  0  0
    0.3850   14.6084   -5.9658 C   0  0  0  0  0  0  0  0  0  0  0  0
   -3.6973   12.5089  -10.9175 C   0  0  0  0  0  0  0  0  0  0  0  0
   -2.2248   12.4637  -11.4426 C   0  0  0  0  0  0  0  0  0  0  0  0
   -1.4987   13.7622  -11.0653 N   0  0  0  0  0  0  0  0  0  0  0  0
   -2.2038   14.9363  -11.7527 C   0  0  0  0  0  0  0  0  0  0  0  0
   -3.6757   15.0331  -11.3164 C   0  0  0  0  0  0  0  0  0  0  0  0
   -6.0533   12.2736   -9.8759 H   0  0  0  0  0  0  0  0  0  0  0  0
   -8.1654   10.1188  -13.9034 H   0  0  0  0  0  0  0  0  0  0  0  0
   -6.8895   12.2606  -14.0918 H   0  0  0  0  0  0  0  0  0  0  0  0
   -8.7443   10.5728  -11.5897 H   0  0  0  0  0  0  0  0  0  0  0  0
   -8.1042   10.5401   -7.5827 H   0  0  0  0  0  0  0  0  0  0  0  0
   -7.3914    8.8914   -7.5630 H   0  0  0  0  0  0  0  0  0  0  0  0
   -4.8916    8.7819   -8.4894 H   0  0  0  0  0  0  0  0  0  0  0  0
   -2.6635    9.7568   -8.0443 H   0  0  0  0  0  0  0  0  0  0  0  0
   -4.5191   13.2898   -6.4771 H   0  0  0  0  0  0  0  0  0  0  0  0
   -6.7464   12.3131   -6.9146 H   0  0  0  0  0  0  0  0  0  0  0  0
   -2.4534   14.2220   -6.1936 H   0  0  0  0  0  0  0  0  0  0  0  0
   -0.6452   10.5982   -7.5816 H   0  0  0  0  0  0  0  0  0  0  0  0
    1.4489   14.3378   -6.0355 H   0  0  0  0  0  0  0  0  0  0  0  0
    0.1877   15.4858   -6.5992 H   0  0  0  0  0  0  0  0  0  0  0  0
    0.1350   14.8465   -4.9214 H   0  0  0  0  0  0  0  0  0  0  0  0
   -3.6944   12.5388   -9.8179 H   0  0  0  0  0  0  0  0  0  0  0  0
   -4.2365   11.6128  -11.2585 H   0  0  0  0  0  0  0  0  0  0  0  0
   -1.7018   11.6081  -10.9904 H   0  0  0  0  0  0  0  0  0  0  0  0
   -2.2305   12.3532  -12.5370 H   0  0  0  0  0  0  0  0  0  0  0  0
   -1.5260   13.8871  -10.0735 H   0  0  0  0  0  0  0  0  0  0  0  0
   -1.6882   15.8706  -11.4859 H   0  0  0  0  0  0  0  0  0  0  0  0
   -2.1612   14.7923  -12.8424 H   0  0  0  0  0  0  0  0  0  0  0  0
   -4.1860   15.7766  -11.9464 H   0  0  0  0  0  0  0  0  0  0  0  0
   -3.7154   15.3542  -10.2651 H   0  0  0  0  0  0  0  0  0  0  0  0
  1  2  2  0  0  0  0
  1  4  1  0  0  0  0
  1 12  1  0  0  0  0
  2  6  1  0  0  0  0
  3  4  2  0  0  0  0
  3  5  1  0  0  0  0
  5  6  1  0  0  0  0
  5  9  1  0  0  0  0
  6  7  2  0  0  0  0
  7  8  1  0  0  0  0
  7 10  1  0  0  0  0
  8  9  2  0  0  0  0
 10 14  1  0  0  0  0
 11 12  1  0  0  0  0
 11 26  1  0  0  0  0
 11 30  1  0  0  0  0
 12 13  2  0  0  0  0
 14 15  2  0  0  0  0
 14 19  1  0  0  0  0
 15 16  1  0  0  0  0
 16 17  2  0  0  0  0
 17 18  1  0  0  0  0
 17 20  1  0  0  0  0
 18 19  2  0  0  0  0
 20 21  2  0  0  0  0
 20 24  1  0  0  0  0
 21 22  1  0  0  0  0
 22 23  1  0  0  0  0
 22 25  1  0  0  0  0
 23 24  2  0  0  0  0
 26 27  1  0  0  0  0
 27 28  1  0  0  0  0
 28 29  1  0  0  0  0
 29 30  1  0  0  0  0
  2 31  1  0  0  0  0
  3 32  1  0  0  0  0
  4 33  1  0  0  0  0
  5 34  1  0  0  0  0
 10 35  1  0  0  0  0
 10 36  1  0  0  0  0
 15 37  1  0  0  0  0
 16 38  1  0  0  0  0
 18 39  1  0  0  0  0
 19 40  1  0  0  0  0
 21 41  1  0  0  0  0
 24 42  1  0  0  0  0
 25 43  1  0  0  0  0
 25 44  1  0  0  0  0
 25 45  1  0  0  0  0
 26 46  1  0  0  0  0
 26 47  1  0  0  0  0
 27 48  1  0  0  0  0
 27 49  1  0  0  0  0
 28 50  1  0  0  0  0
 29 51  1  0  0  0  0
 29 52  1  0  0  0  0
 30 53  1  0  0  0  0
 30 54  1  0  0  0  0
M  END
> <Name>
40

> <IC50[uM]>
0.007

$$$$
40
  -OEChem-05192314333D
 Structure written by MMmdl.
 54 58  0     0  0  0  0  0  0999 V2000
   -6.3583   12.3628  -12.0152 C   0  0  0  0  0  0  0  0  0  0  0  0
   -6.5007   11.8020  -10.7383 C   0  0  0  0  0  0  0  0  0  0  0  0
   -7.7096   10.5772  -13.0382 C   0  0  0  0  0  0  0  0  0  0  0  0
   -6.9777   11.7759  -13.1307 C   0  0  0  0  0  0  0  0  0  0  0  0
   -7.8132   10.0130  -11.7619 C   0  0  0  0  0  0  0  0  0  0  0  0
   -7.2338   10.6200  -10.6051 C   0  0  0  0  0  0  0  0  0  0  0  0
   -7.6121    9.7513   -9.5135 C   0  0  0  0  0  0  0  0  0  0  0  0
   -8.2831    8.7414   -9.9888 N   0  0  0  0  0  0  0  0  0  0  0  0
   -8.4159    8.8683  -11.3018 N   0  0  0  0  0  0  0  0  0  0  0  0
   -7.3364    9.8882   -8.0249 C   0  0  0  0  0  0  0  0  0  0  0  0
   -4.3745   13.7307  -11.4480 N   0  0  0  0  0  0  0  0  0  0  0  0
   -5.5401   13.6479  -12.1823 C   0  0  0  0  0  0  0  0  0  0  0  0
   -5.9305   14.5456  -12.9289 O   0  0  0  0  0  0  0  0  0  0  0  0
   -5.9622   10.4857   -7.7364 C   0  0  0  0  0  0  0  0  0  0  0  0
   -4.8106    9.7658   -8.0516 C   0  0  0  0  0  0  0  0  0  0  0  0
   -3.5548   10.3163   -7.8015 C   0  0  0  0  0  0  0  0  0  0  0  0
   -3.4456   11.5910   -7.2371 C   0  0  0  0  0  0  0  0  0  0  0  0
   -4.5995   12.3069   -6.9174 C   0  0  0  0  0  0  0  0  0  0  0  0
   -5.8550   11.7570   -7.1647 C   0  0  0  0  0  0  0  0  0  0  0  0
   -2.1008   12.1810   -6.9758 C   0  0  0  0  0  0  0  0  0  0  0  0
   -1.7660   13.4388   -6.4773 C   0  0  0  0  0  0  0  0  0  0  0  0
   -0.4314   13.4905   -6.4174 N   0  0  0  0  0  0  0  0  0  0  0  0
    0.1713   12.4042   -6.8124 N   0  0  0  0  0  0  0  0  0  0  0  0
   -0.8030   11.5879   -7.1791 C   0  0  0  0  0  0  0  0  0  0  0  0
    0.3850   14.6084   -5.9658 C   0  0  0  0  0  0  0  0  0  0  0  0
   -3.6973   12.5089  -10.9175 C   0  0  0  0  0  0  0  0  0  0  0  0
   -2.2248   12.4637  -11.4426 C   0  0  0  0  0  0  0  0  0  0  0  0
   -1.4987   13.7622  -11.0653 N   0  0  0  0  0  0  0  0  0  0  0  0
   -2.2038   14.9363  -11.7527 C   0  0  0  0  0  0  0  0  0  0  0  0
   -3.6757   15.0331  -11.3164 C   0  0  0  0  0  0  0  0  0  0  0  0
   -6.0533   12.2736   -9.8759 H   0  0  0  0  0  0  0  0  0  0  0  0
   -8.1654   10.1188  -13.9034 H   0  0  0  0  0  0  0  0  0  0  0  0
   -7.6730   12.5301  -13.5278 H   0  0  0  0  0  0  0  0  0  0  0  0
   -6.1786   11.5918  -13.8639 H   0  0  0  0  0  0  0  0  0  0  0  0
   -8.1042   10.5401   -7.5827 H   0  0  0  0  0  0  0  0  0  0  0  0
   -7.3914    8.8914   -7.5630 H   0  0  0  0  0  0  0  0  0  0  0  0
   -4.8916    8.7819   -8.4894 H   0  0  0  0  0  0  0  0  0  0  0  0
   -2.6635    9.7568   -8.0443 H   0  0  0  0  0  0  0  0  0  0  0  0
   -4.5191   13.2898   -6.4771 H   0  0  0  0  0  0  0  0  0  0  0  0
   -6.7464   12.3131   -6.9146 H   0  0  0  0  0  0  0  0  0  0  0  0
   -2.4534   14.2220   -6.1936 H   0  0  0  0  0  0  0  0  0  0  0  0
   -0.6452   10.5982   -7.5816 H   0  0  0  0  0  0  0  0  0  0  0  0
    1.4489   14.3378   -6.0355 H   0  0  0  0  0  0  0  0  0  0  0  0
    0.1877   15.4858   -6.5992 H   0  0  0  0  0  0  0  0  0  0  0  0
    0.1350   14.8465   -4.9214 H   0  0  0  0  0  0  0  0  0  0  0  0
   -3.6944   12.5388   -9.8179 H   0  0  0  0  0  0  0  0  0  0  0  0
   -4.2365   11.6128  -11.2585 H   0  0  0  0  0  0  0  0  0  0  0  0
   -1.7018   11.6081  -10.9904 H   0  0  0  0  0  0  0  0  0  0  0  0
   -2.2305   12.3532  -12.5370 H   0  0  0  0  0  0  0  0  0  0  0  0
   -1.5260   13.8871  -10.0735 H   0  0  0  0  0  0  0  0  0  0  0  0
   -1.6882   15.8706  -11.4859 H   0  0  0  0  0  0  0  0  0  0  0  0
   -2.1612   14.7923  -12.8424 H   0  0  0  0  0  0  0  0  0  0  0  0
   -4.1860   15.7766  -11.9464 H   0  0  0  0  0  0  0  0  0  0  0  0
   -3.7154   15.3542  -10.2651 H   0  0  0  0  0  0  0  0  0  0  0  0
  1  2  2  0  0  0  0
  1  4  1  0  0  0  0
  1 12  1  0  0  0  0
  2  6  1  0  0  0  0
  3  4  1  0  0  0  0
  3  5  2  0  0  0  0
  5  6  1  0  0  0  0
  5  9  1  0  0  0  0
  6  7  2  0  0  0  0
  7  8  1  0  0  0  0
  7 10  1  0  0  0  0
  8  9  2  0  0  0  0
 10 14  1  0  0  0  0
 11 12  1  0  0  0  0
 11 26  1  0  0  0  0
 11 30  1  0  0  0  0
 12 13  2  0  0  0  0
 14 15  2  0  0  0  0
 14 19  1  0  0  0  0
 15 16  1  0  0  0  0
 16 17  2  0  0  0  0
 17 18  1  0  0  0  0
 17 20  1  0  0  0  0
 18 19  2  0  0  0  0
 20 21  2  0  0  0  0
 20 24  1  0  0  0  0
 21 22  1  0  0  0  0
 22 23  1  0  0  0  0
 22 25  1  0  0  0  0
 23 24  2  0  0  0  0
 26 27  1  0  0  0  0
 27 28  1  0  0  0  0
 28 29  1  0  0  0  0
 29 30  1  0  0  0  0
  2 31  1  0  0  0  0
  3 32  1  0  0  0  0
  4 33  1  0  0  0  0
  4 34  1  0  0  0  0
 10 35  1  0  0  0  0
 10 36  1  0  0  0  0
 15 37  1  0  0  0  0
 16 38  1  0  0  0  0
 18 39  1  0  0  0  0
 19 40  1  0  0  0  0
 21 41  1  0  0  0  0
 24 42  1  0  0  0  0
 25 43  1  0  0  0  0
 25 44  1  0  0  0  0
 25 45  1  0  0  0  0
 26 46  1  0  0  0  0
 26 47  1  0  0  0  0
 27 48  1  0  0  0  0
 27 49  1  0  0  0  0
 28 50  1  0  0  0  0
 29 51  1  0  0  0  0
 29 52  1  0  0  0  0
 30 53  1  0  0  0  0
 30 54  1  0  0  0  0
M  END
> <Name>
40

> <IC50[uM]>
0.007

$$$$
40
  -OEChem-05192314333D
 Structure written by MMmdl.
 54 58  0     0  0  0  0  0  0999 V2000
   -6.3583   12.3628  -12.0152 C   0  0  0  0  0  0  0  0  0  0  0  0
   -6.5007   11.8020  -10.7383 C   0  0  0  0  0  0  0  0  0  0  0  0
   -7.7096   10.5772  -13.0382 C   0  0  0  0  0  0  0  0  0  0  0  0
   -6.9777   11.7759  -13.1307 C   0  0  0  0  0  0  0  0  0  0  0  0
   -7.8132   10.0130  -11.7619 C   0  0  0  0  0  0  0  0  0  0  0  0
   -7.2338   10.6200  -10.6051 C   0  0  0  0  0  0  0  0  0  0  0  0
   -7.6121    9.7513   -9.5135 C   0  0  0  0  0  0  0  0  0  0  0  0
   -8.2831    8.7414   -9.9888 N   0  0  0  0  0  0  0  0  0  0  0  0
   -8.4159    8.8683  -11.3018 N   0  0  0  0  0  0  0  0  0  0  0  0
   -7.3364    9.8882   -8.0249 C   0  0  0  0  0  0  0  0  0  0  0  0
   -4.3745   13.7307  -11.4480 N   0  0  0  0  0  0  0  0  0  0  0  0
   -5.5401   13.6479  -12.1823 C   0  0  0  0  0  0  0  0  0  0  0  0
   -5.9305   14.5456  -12.9289 O   0  0  0  0  0  0  0  0  0  0  0  0
   -5.9622   10.4857   -7.7364 C   0  0  0  0  0  0  0  0  0  0  0  0
   -4.8106    9.7658   -8.0516 C   0  0  0  0  0  0  0  0  0  0  0  0
   -3.5548   10.3163   -7.8015 C   0  0  0  0  0  0  0  0  0  0  0  0
   -3.4456   11.5910   -7.2371 C   0  0  0  0  0  0  0  0  0  0  0  0
   -4.5995   12.3069   -6.9174 C   0  0  0  0  0  0  0  0  0  0  0  0
   -5.8550   11.7570   -7.1647 C   0  0  0  0  0  0  0  0  0  0  0  0
   -2.1008   12.1810   -6.9758 C   0  0  0  0  0  0  0  0  0  0  0  0
   -1.7660   13.4388   -6.4773 C   0  0  0  0  0  0  0  0  0  0  0  0
   -0.4314   13.4905   -6.4174 N   0  0  0  0  0  0  0  0  0  0  0  0
    0.1713   12.4042   -6.8124 N   0  0  0  0  0  0  0  0  0  0  0  0
   -0.8030   11.5879   -7.1791 C   0  0  0  0  0  0  0  0  0  0  0  0
    0.3850   14.6084   -5.9658 C   0  0  0  0  0  0  0  0  0  0  0  0
   -3.6973   12.5089  -10.9175 C   0  0  0  0  0  0  0  0  0  0  0  0
   -2.2248   12.4637  -11.4426 C   0  0  0  0  0  0  0  0  0  0  0  0
   -1.4987   13.7622  -11.0653 N   0  0  0  0  0  0  0  0  0  0  0  0
   -2.2038   14.9363  -11.7527 C   0  0  0  0  0  0  0  0  0  0  0  0
   -3.6757   15.0331  -11.3164 C   0  0  0  0  0  0  0  0  0  0  0  0
   -5.4884   11.6004  -10.3579 H   0  0  0  0  0  0  0  0  0  0  0  0
   -6.9867   12.5582  -10.1044 H   0  0  0  0  0  0  0  0  0  0  0  0
   -8.1654   10.1188  -13.9034 H   0  0  0  0  0  0  0  0  0  0  0  0
   -6.8895   12.2606  -14.0918 H   0  0  0  0  0  0  0  0  0  0  0  0
   -8.1042   10.5401   -7.5827 H   0  0  0  0  0  0  0  0  0  0  0  0
   -7.3914    8.8914   -7.5630 H   0  0  0  0  0  0  0  0  0  0  0  0
   -4.8916    8.7819   -8.4894 H   0  0  0  0  0  0  0  0  0  0  0  0
   -2.6635    9.7568   -8.0443 H   0  0  0  0  0  0  0  0  0  0  0  0
   -4.5191   13.2898   -6.4771 H   0  0  0  0  0  0  0  0  0  0  0  0
   -6.7464   12.3131   -6.9146 H   0  0  0  0  0  0  0  0  0  0  0  0
   -2.4534   14.2220   -6.1936 H   0  0  0  0  0  0  0  0  0  0  0  0
   -0.6452   10.5982   -7.5816 H   0  0  0  0  0  0  0  0  0  0  0  0
    1.4489   14.3378   -6.0355 H   0  0  0  0  0  0  0  0  0  0  0  0
    0.1877   15.4858   -6.5992 H   0  0  0  0  0  0  0  0  0  0  0  0
    0.1350   14.8465   -4.9214 H   0  0  0  0  0  0  0  0  0  0  0  0
   -3.6944   12.5388   -9.8179 H   0  0  0  0  0  0  0  0  0  0  0  0
   -4.2365   11.6128  -11.2585 H   0  0  0  0  0  0  0  0  0  0  0  0
   -1.7018   11.6081  -10.9904 H   0  0  0  0  0  0  0  0  0  0  0  0
   -2.2305   12.3532  -12.5370 H   0  0  0  0  0  0  0  0  0  0  0  0
   -1.5260   13.8871  -10.0735 H   0  0  0  0  0  0  0  0  0  0  0  0
   -1.6882   15.8706  -11.4859 H   0  0  0  0  0  0  0  0  0  0  0  0
   -2.1612   14.7923  -12.8424 H   0  0  0  0  0  0  0  0  0  0  0  0
   -4.1860   15.7766  -11.9464 H   0  0  0  0  0  0  0  0  0  0  0  0
   -3.7154   15.3542  -10.2651 H   0  0  0  0  0  0  0  0  0  0  0  0
  1  2  1  0  0  0  0
  1  4  2  0  0  0  0
  1 12  1  0  0  0  0
  2  6  1  0  0  0  0
  3  4  1  0  0  0  0
  3  5  2  0  0  0  0
  5  6  1  0  0  0  0
  5  9  1  0  0  0  0
  6  7  2  0  0  0  0
  7  8  1  0  0  0  0
  7 10  1  0  0  0  0
  8  9  2  0  0  0  0
 10 14  1  0  0  0  0
 11 12  1  0  0  0  0
 11 26  1  0  0  0  0
 11 30  1  0  0  0  0
 12 13  2  0  0  0  0
 14 15  2  0  0  0  0
 14 19  1  0  0  0  0
 15 16  1  0  0  0  0
 16 17  2  0  0  0  0
 17 18  1  0  0  0  0
 17 20  1  0  0  0  0
 18 19  2  0  0  0  0
 20 21  2  0  0  0  0
 20 24  1  0  0  0  0
 21 22  1  0  0  0  0
 22 23  1  0  0  0  0
 22 25  1  0  0  0  0
 23 24  2  0  0  0  0
 26 27  1  0  0  0  0
 27 28  1  0  0  0  0
 28 29  1  0  0  0  0
 29 30  1  0  0  0  0
  2 31  1  0  0  0  0
  2 32  1  0  0  0  0
  3 33  1  0  0  0  0
  4 34  1  0  0  0  0
 10 35  1  0  0  0  0
 10 36  1  0  0  0  0
 15 37  1  0  0  0  0
 16 38  1  0  0  0  0
 18 39  1  0  0  0  0
 19 40  1  0  0  0  0
 21 41  1  0  0  0  0
 24 42  1  0  0  0  0
 25 43  1  0  0  0  0
 25 44  1  0  0  0  0
 25 45  1  0  0  0  0
 26 46  1  0  0  0  0
 26 47  1  0  0  0  0
 27 48  1  0  0  0  0
 27 49  1  0  0  0  0
 28 50  1  0  0  0  0
 29 51  1  0  0  0  0
 29 52  1  0  0  0  0
 30 53  1  0  0  0  0
 30 54  1  0  0  0  0
M  END
> <Name>
40

> <IC50[uM]>
0.007

$$$$
40
  -OEChem-05192314333D
 Structure written by MMmdl.
 54 58  0     1  0  0  0  0  0999 V2000
   -6.3583   12.3628  -12.0152 C   0  0  0  0  0  0  0  0  0  0  0  0
   -6.5007   11.8020  -10.7383 C   0  0  0  0  0  0  0  0  0  0  0  0
   -7.7096   10.5772  -13.0382 C   0  0  0  0  0  0  0  0  0  0  0  0
   -6.9777   11.7759  -13.1307 C   0  0  0  0  0  0  0  0  0  0  0  0
   -7.8132   10.0130  -11.7619 C   0  0  0  0  0  0  0  0  0  0  0  0
   -7.2338   10.6200  -10.6051 C   0  0  3  0  0  0  0  0  0  0  0  0
   -7.6121    9.7513   -9.5135 C   0  0  0  0  0  0  0  0  0  0  0  0
   -8.2831    8.7414   -9.9888 N   0  0  0  0  0  0  0  0  0  0  0  0
   -8.4159    8.8683  -11.3018 N   0  0  0  0  0  0  0  0  0  0  0  0
   -7.3364    9.8882   -8.0249 C   0  0  0  0  0  0  0  0  0  0  0  0
   -4.3745   13.7307  -11.4480 N   0  0  0  0  0  0  0  0  0  0  0  0
   -5.5401   13.6479  -12.1823 C   0  0  0  0  0  0  0  0  0  0  0  0
   -5.9305   14.5456  -12.9289 O   0  0  0  0  0  0  0  0  0  0  0  0
   -5.9622   10.4857   -7.7364 C   0  0  0  0  0  0  0  0  0  0  0  0
   -4.8106    9.7658   -8.0516 C   0  0  0  0  0  0  0  0  0  0  0  0
   -3.5548   10.3163   -7.8015 C   0  0  0  0  0  0  0  0  0  0  0  0
   -3.4456   11.5910   -7.2371 C   0  0  0  0  0  0  0  0  0  0  0  0
   -4.5995   12.3069   -6.9174 C   0  0  0  0  0  0  0  0  0  0  0  0
   -5.8550   11.7570   -7.1647 C   0  0  0  0  0  0  0  0  0  0  0  0
   -2.1008   12.1810   -6.9758 C   0  0  0  0  0  0  0  0  0  0  0  0
   -1.7660   13.4388   -6.4773 C   0  0  0  0  0  0  0  0  0  0  0  0
   -0.4314   13.4905   -6.4174 N   0  0  0  0  0  0  0  0  0  0  0  0
    0.1713   12.4042   -6.8124 N   0  0  0  0  0  0  0  0  0  0  0  0
   -0.8030   11.5879   -7.1791 C   0  0  0  0  0  0  0  0  0  0  0  0
    0.3850   14.6084   -5.9658 C   0  0  0  0  0  0  0  0  0  0  0  0
   -3.6973   12.5089  -10.9175 C   0  0  0  0  0  0  0  0  0  0  0  0
   -2.2248   12.4637  -11.4426 C   0  0  0  0  0  0  0  0  0  0  0  0
   -1.4987   13.7622  -11.0653 N   0  0  0  0  0  0  0  0  0  0  0  0
   -2.2038   14.9363  -11.7527 C   0  0  0  0  0  0  0  0  0  0  0  0
   -3.6757   15.0331  -11.3164 C   0  0  0  0  0  0  0  0  0  0  0  0
   -6.0533   12.2736   -9.8759 H   0  0  0  0  0  0  0  0  0  0  0  0
   -8.1654   10.1188  -13.9034 H   0  0  0  0  0  0  0  0  0  0  0  0
   -6.8895   12.2606  -14.0918 H   0  0  0  0  0  0  0  0  0  0  0  0
   -6.3160   10.0327  -10.7556 H   0  0  0  0  0  0  0  0  0  0  0  0
   -8.6440    7.9838   -9.4449 H   0  0  0  0  0  0  0  0  0  0  0  0
   -8.0360    9.5949   -7.2562 H   0  0  0  0  0  0  0  0  0  0  0  0
   -4.8916    8.7819   -8.4894 H   0  0  0  0  0  0  0  0  0  0  0  0
   -2.6635    9.7568   -8.0443 H   0  0  0  0  0  0  0  0  0  0  0  0
   -4.5191   13.2898   -6.4771 H   0  0  0  0  0  0  0  0  0  0  0  0
   -6.7464   12.3131   -6.9146 H   0  0  0  0  0  0  0  0  0  0  0  0
   -2.4534   14.2220   -6.1936 H   0  0  0  0  0  0  0  0  0  0  0  0
   -0.6452   10.5982   -7.5816 H   0  0  0  0  0  0  0  0  0  0  0  0
    1.4489   14.3378   -6.0355 H   0  0  0  0  0  0  0  0  0  0  0  0
    0.1877   15.4858   -6.5992 H   0  0  0  0  0  0  0  0  0  0  0  0
    0.1350   14.8465   -4.9214 H   0  0  0  0  0  0  0  0  0  0  0  0
   -3.6944   12.5388   -9.8179 H   0  0  0  0  0  0  0  0  0  0  0  0
   -4.2365   11.6128  -11.2585 H   0  0  0  0  0  0  0  0  0  0  0  0
   -1.7018   11.6081  -10.9904 H   0  0  0  0  0  0  0  0  0  0  0  0
   -2.2305   12.3532  -12.5370 H   0  0  0  0  0  0  0  0  0  0  0  0
   -1.5260   13.8871  -10.0735 H   0  0  0  0  0  0  0  0  0  0  0  0
   -1.6882   15.8706  -11.4859 H   0  0  0  0  0  0  0  0  0  0  0  0
   -2.1612   14.7923  -12.8424 H   0  0  0  0  0  0  0  0  0  0  0  0
   -4.1860   15.7766  -11.9464 H   0  0  0  0  0  0  0  0  0  0  0  0
   -3.7154   15.3542  -10.2651 H   0  0  0  0  0  0  0  0  0  0  0  0
  1  2  2  0  0  0  0
  1  4  1  0  0  0  0
  1 12  1  0  0  0  0
  2  6  1  0  0  0  0
  3  4  2  0  0  0  0
  3  5  1  0  0  0  0
  5  6  1  0  0  0  0
  5  9  2  0  0  0  0
  6  7  1  0  0  0  0
  7  8  1  0  0  0  0
  7 10  2  3  0  0  0
  8  9  1  0  0  0  0
 10 14  1  0  0  0  0
 11 12  1  0  0  0  0
 11 26  1  0  0  0  0
 11 30  1  0  0  0  0
 12 13  2  0  0  0  0
 14 15  2  0  0  0  0
 14 19  1  0  0  0  0
 15 16  1  0  0  0  0
 16 17  2  0  0  0  0
 17 18  1  0  0  0  0
 17 20  1  0  0  0  0
 18 19  2  0  0  0  0
 20 21  2  0  0  0  0
 20 24  1  0  0  0  0
 21 22  1  0  0  0  0
 22 23  1  0  0  0  0
 22 25  1  0  0  0  0
 23 24  2  0  0  0  0
 26 27  1  0  0  0  0
 27 28  1  0  0  0  0
 28 29  1  0  0  0  0
 29 30  1  0  0  0  0
  2 31  1  0  0  0  0
  3 32  1  0  0  0  0
  4 33  1  0  0  0  0
  6 34  1  0  0  0  0
  8 35  1  0  0  0  0
 10 36  1  0  0  0  0
 15 37  1  0  0  0  0
 16 38  1  0  0  0  0
 18 39  1  0  0  0  0
 19 40  1  0  0  0  0
 21 41  1  0  0  0  0
 24 42  1  0  0  0  0
 25 43  1  0  0  0  0
 25 44  1  0  0  0  0
 25 45  1  0  0  0  0
 26 46  1  0  0  0  0
 26 47  1  0  0  0  0
 27 48  1  0  0  0  0
 27 49  1  0  0  0  0
 28 50  1  0  0  0  0
 29 51  1  0  0  0  0
 29 52  1  0  0  0  0
 30 53  1  0  0  0  0
 30 54  1  0  0  0  0
M  END
> <Name>
40

> <IC50[uM]>
0.007

$$$$
40
  -OEChem-05192314333D
 Structure written by MMmdl.
 54 58  0     1  0  0  0  0  0999 V2000
   -6.3583   12.3628  -12.0152 C   0  0  0  0  0  0  0  0  0  0  0  0
   -6.5007   11.8020  -10.7383 C   0  0  0  0  0  0  0  0  0  0  0  0
   -7.7096   10.5772  -13.0382 C   0  0  0  0  0  0  0  0  0  0  0  0
   -6.9777   11.7759  -13.1307 C   0  0  0  0  0  0  0  0  0  0  0  0
   -7.8132   10.0130  -11.7619 C   0  0  0  0  0  0  0  0  0  0  0  0
   -7.2338   10.6200  -10.6051 C   0  0  0  0  0  0  0  0  0  0  0  0
   -7.6121    9.7513   -9.5135 C   0  0  0  0  0  0  0  0  0  0  0  0
   -8.2831    8.7414   -9.9888 N   0  0  0  0  0  0  0  0  0  0  0  0
   -8.4159    8.8683  -11.3018 N   0  0  0  0  0  0  0  0  0  0  0  0
   -7.3364    9.8882   -8.0249 C   0  0  0  0  0  0  0  0  0  0  0  0
   -4.3745   13.7307  -11.4480 N   0  0  0  0  0  0  0  0  0  0  0  0
   -5.5401   13.6479  -12.1823 C   0  0  0  0  0  0  0  0  0  0  0  0
   -5.9305   14.5456  -12.9289 O   0  0  0  0  0  0  0  0  0  0  0  0
   -5.9622   10.4857   -7.7364 C   0  0  0  0  0  0  0  0  0  0  0  0
   -4.8106    9.7658   -8.0516 C   0  0  0  0  0  0  0  0  0  0  0  0
   -3.5548   10.3163   -7.8015 C   0  0  0  0  0  0  0  0  0  0  0  0
   -3.4456   11.5910   -7.2371 C   0  0  0  0  0  0  0  0  0  0  0  0
   -4.5995   12.3069   -6.9174 C   0  0  0  0  0  0  0  0  0  0  0  0
   -5.8550   11.7570   -7.1647 C   0  0  0  0  0  0  0  0  0  0  0  0
   -2.1008   12.1810   -6.9758 C   0  0  0  0  0  0  0  0  0  0  0  0
   -1.7660   13.4388   -6.4773 C   0  0  0  0  0  0  0  0  0  0  0  0
   -0.4314   13.4905   -6.4174 N   0  0  3  0  0  0  0  0  0  0  0  0
    0.1713   12.4042   -6.8124 N   0  0  0  0  0  0  0  0  0  0  0  0
   -0.8030   11.5879   -7.1791 C   0  0  0  0  0  0  0  0  0  0  0  0
    0.3850   14.6084   -5.9658 C   0  0  0  0  0  0  0  0  0  0  0  0
   -3.6973   12.5089  -10.9175 C   0  0  0  0  0  0  0  0  0  0  0  0
   -2.2248   12.4637  -11.4426 C   0  0  0  0  0  0  0  0  0  0  0  0
   -1.4987   13.7622  -11.0653 N   0  0  0  0  0  0  0  0  0  0  0  0
   -2.2038   14.9363  -11.7527 C   0  0  0  0  0  0  0  0  0  0  0  0
   -3.6757   15.0331  -11.3164 C   0  0  0  0  0  0  0  0  0  0  0  0
   -6.0533   12.2736   -9.8759 H   0  0  0  0  0  0  0  0  0  0  0  0
   -8.1654   10.1188  -13.9034 H   0  0  0  0  0  0  0  0  0  0  0  0
   -6.8895   12.2606  -14.0918 H   0  0  0  0  0  0  0  0  0  0  0  0
   -8.0360    9.5949   -7.2562 H   0  0  0  0  0  0  0  0  0  0  0  0
   -5.9735   10.0332   -6.7338 H   0  0  0  0  0  0  0  0  0  0  0  0
   -4.8916    8.7819   -8.4894 H   0  0  0  0  0  0  0  0  0  0  0  0
   -2.6635    9.7568   -8.0443 H   0  0  0  0  0  0  0  0  0  0  0  0
   -4.5191   13.2898   -6.4771 H   0  0  0  0  0  0  0  0  0  0  0  0
   -6.7464   12.3131   -6.9146 H   0  0  0  0  0  0  0  0  0  0  0  0
   -2.1452   14.2244   -7.1474 H   0  0  0  0  0  0  0  0  0  0  0  0
   -2.1952   13.5743   -5.4736 H   0  0  0  0  0  0  0  0  0  0  0  0
   -0.6452   10.5982   -7.5816 H   0  0  0  0  0  0  0  0  0  0  0  0
    1.4489   14.3378   -6.0355 H   0  0  0  0  0  0  0  0  0  0  0  0
    0.1877   15.4858   -6.5992 H   0  0  0  0  0  0  0  0  0  0  0  0
    0.1350   14.8465   -4.9214 H   0  0  0  0  0  0  0  0  0  0  0  0
   -3.6944   12.5388   -9.8179 H   0  0  0  0  0  0  0  0  0  0  0  0
   -4.2365   11.6128  -11.2585 H   0  0  0  0  0  0  0  0  0  0  0  0
   -1.7018   11.6081  -10.9904 H   0  0  0  0  0  0  0  0  0  0  0  0
   -2.2305   12.3532  -12.5370 H   0  0  0  0  0  0  0  0  0  0  0  0
   -1.5260   13.8871  -10.0735 H   0  0  0  0  0  0  0  0  0  0  0  0
   -1.6882   15.8706  -11.4859 H   0  0  0  0  0  0  0  0  0  0  0  0
   -2.1612   14.7923  -12.8424 H   0  0  0  0  0  0  0  0  0  0  0  0
   -4.1860   15.7766  -11.9464 H   0  0  0  0  0  0  0  0  0  0  0  0
   -3.7154   15.3542  -10.2651 H   0  0  0  0  0  0  0  0  0  0  0  0
  1  2  2  0  0  0  0
  1  4  1  0  0  0  0
  1 12  1  0  0  0  0
  2  6  1  0  0  0  0
  3  4  2  0  0  0  0
  3  5  1  0  0  0  0
  5  6  2  0  0  0  0
  5  9  1  0  0  0  0
  6  7  1  0  0  0  0
  7  8  1  0  0  0  0
  7 10  2  3  0  0  0
  8  9  2  0  0  0  0
 10 14  1  0  0  0  0
 11 12  1  0  0  0  0
 11 26  1  0  0  0  0
 11 30  1  0  0  0  0
 12 13  2  0  0  0  0
 14 15  1  0  0  0  0
 14 19  1  0  0  0  0
 15 16  2  0  0  0  0
 16 17  1  0  0  0  0
 17 18  1  0  0  0  0
 17 20  2  0  0  0  0
 18 19  2  0  0  0  0
 20 21  1  0  0  0  0
 20 24  1  0  0  0  0
 21 22  1  0  0  0  0
 22 23  1  0  0  0  0
 22 25  1  0  0  0  0
 23 24  2  0  0  0  0
 26 27  1  0  0  0  0
 27 28  1  0  0  0  0
 28 29  1  0  0  0  0
 29 30  1  0  0  0  0
  2 31  1  0  0  0  0
  3 32  1  0  0  0  0
  4 33  1  0  0  0  0
 10 34  1  0  0  0  0
 14 35  1  0  0  0  0
 15 36  1  0  0  0  0
 16 37  1  0  0  0  0
 18 38  1  0  0  0  0
 19 39  1  0  0  0  0
 21 40  1  0  0  0  0
 21 41  1  0  0  0  0
 24 42  1  0  0  0  0
 25 43  1  0  0  0  0
 25 44  1  0  0  0  0
 25 45  1  0  0  0  0
 26 46  1  0  0  0  0
 26 47  1  0  0  0  0
 27 48  1  0  0  0  0
 27 49  1  0  0  0  0
 28 50  1  0  0  0  0
 29 51  1  0  0  0  0
 29 52  1  0  0  0  0
 30 53  1  0  0  0  0
 30 54  1  0  0  0  0
M  END
> <Name>
40

> <IC50[uM]>
0.007

$$$$
40
  -OEChem-05192314333D
 Structure written by MMmdl.
 54 58  0     1  0  0  0  0  0999 V2000
   -6.3583   12.3628  -12.0152 C   0  0  0  0  0  0  0  0  0  0  0  0
   -6.5007   11.8020  -10.7383 C   0  0  0  0  0  0  0  0  0  0  0  0
   -7.7096   10.5772  -13.0382 C   0  0  0  0  0  0  0  0  0  0  0  0
   -6.9777   11.7759  -13.1307 C   0  0  0  0  0  0  0  0  0  0  0  0
   -7.8132   10.0130  -11.7619 C   0  0  0  0  0  0  0  0  0  0  0  0
   -7.2338   10.6200  -10.6051 C   0  0  0  0  0  0  0  0  0  0  0  0
   -7.6121    9.7513   -9.5135 C   0  0  0  0  0  0  0  0  0  0  0  0
   -8.2831    8.7414   -9.9888 N   0  0  0  0  0  0  0  0  0  0  0  0
   -8.4159    8.8683  -11.3018 N   0  0  0  0  0  0  0  0  0  0  0  0
   -7.3364    9.8882   -8.0249 C   0  0  0  0  0  0  0  0  0  0  0  0
   -4.3745   13.7307  -11.4480 N   0  0  0  0  0  0  0  0  0  0  0  0
   -5.5401   13.6479  -12.1823 C   0  0  0  0  0  0  0  0  0  0  0  0
   -5.9305   14.5456  -12.9289 O   0  0  0  0  0  0  0  0  0  0  0  0
   -5.9622   10.4857   -7.7364 C   0  0  0  0  0  0  0  0  0  0  0  0
   -4.8106    9.7658   -8.0516 C   0  0  0  0  0  0  0  0  0  0  0  0
   -3.5548   10.3163   -7.8015 C   0  0  0  0  0  0  0  0  0  0  0  0
   -3.4456   11.5910   -7.2371 C   0  0  0  0  0  0  0  0  0  0  0  0
   -4.5995   12.3069   -6.9174 C   0  0  0  0  0  0  0  0  0  0  0  0
   -5.8550   11.7570   -7.1647 C   0  0  0  0  0  0  0  0  0  0  0  0
   -2.1008   12.1810   -6.9758 C   0  0  0  0  0  0  0  0  0  0  0  0
   -1.7660   13.4388   -6.4773 C   0  0  0  0  0  0  0  0  0  0  0  0
   -0.4314   13.4905   -6.4174 N   0  0  3  0  0  0  0  0  0  0  0  0
    0.1713   12.4042   -6.8124 N   0  0  0  0  0  0  0  0  0  0  0  0
   -0.8030   11.5879   -7.1791 C   0  0  0  0  0  0  0  0  0  0  0  0
    0.3850   14.6084   -5.9658 C   0  0  0  0  0  0  0  0  0  0  0  0
   -3.6973   12.5089  -10.9175 C   0  0  0  0  0  0  0  0  0  0  0  0
   -2.2248   12.4637  -11.4426 C   0  0  0  0  0  0  0  0  0  0  0  0
   -1.4987   13.7622  -11.0653 N   0  0  0  0  0  0  0  0  0  0  0  0
   -2.2038   14.9363  -11.7527 C   0  0  0  0  0  0  0  0  0  0  0  0
   -3.6757   15.0331  -11.3164 C   0  0  0  0  0  0  0  0  0  0  0  0
   -6.0533   12.2736   -9.8759 H   0  0  0  0  0  0  0  0  0  0  0  0
   -8.1654   10.1188  -13.9034 H   0  0  0  0  0  0  0  0  0  0  0  0
   -6.8895   12.2606  -14.0918 H   0  0  0  0  0  0  0  0  0  0  0  0
   -8.0360    9.5949   -7.2562 H   0  0  0  0  0  0  0  0  0  0  0  0
   -4.8916    8.7819   -8.4894 H   0  0  0  0  0  0  0  0  0  0  0  0
   -3.0350    9.6240   -7.1229 H   0  0  0  0  0  0  0  0  0  0  0  0
   -3.0264   10.3506   -8.7657 H   0  0  0  0  0  0  0  0  0  0  0  0
   -4.5191   13.2898   -6.4771 H   0  0  0  0  0  0  0  0  0  0  0  0
   -6.7464   12.3131   -6.9146 H   0  0  0  0  0  0  0  0  0  0  0  0
   -2.1452   14.2244   -7.1474 H   0  0  0  0  0  0  0  0  0  0  0  0
   -2.1952   13.5743   -5.4736 H   0  0  0  0  0  0  0  0  0  0  0  0
   -0.6452   10.5982   -7.5816 H   0  0  0  0  0  0  0  0  0  0  0  0
    1.4489   14.3378   -6.0355 H   0  0  0  0  0  0  0  0  0  0  0  0
    0.1877   15.4858   -6.5992 H   0  0  0  0  0  0  0  0  0  0  0  0
    0.1350   14.8465   -4.9214 H   0  0  0  0  0  0  0  0  0  0  0  0
   -3.6944   12.5388   -9.8179 H   0  0  0  0  0  0  0  0  0  0  0  0
   -4.2365   11.6128  -11.2585 H   0  0  0  0  0  0  0  0  0  0  0  0
   -1.7018   11.6081  -10.9904 H   0  0  0  0  0  0  0  0  0  0  0  0
   -2.2305   12.3532  -12.5370 H   0  0  0  0  0  0  0  0  0  0  0  0
   -1.5260   13.8871  -10.0735 H   0  0  0  0  0  0  0  0  0  0  0  0
   -1.6882   15.8706  -11.4859 H   0  0  0  0  0  0  0  0  0  0  0  0
   -2.1612   14.7923  -12.8424 H   0  0  0  0  0  0  0  0  0  0  0  0
   -4.1860   15.7766  -11.9464 H   0  0  0  0  0  0  0  0  0  0  0  0
   -3.7154   15.3542  -10.2651 H   0  0  0  0  0  0  0  0  0  0  0  0
  1  2  2  0  0  0  0
  1  4  1  0  0  0  0
  1 12  1  0  0  0  0
  2  6  1  0  0  0  0
  3  4  2  0  0  0  0
  3  5  1  0  0  0  0
  5  6  2  0  0  0  0
  5  9  1  0  0  0  0
  6  7  1  0  0  0  0
  7  8  1  0  0  0  0
  7 10  2  3  0  0  0
  8  9  2  0  0  0  0
 10 14  1  0  0  0  0
 11 12  1  0  0  0  0
 11 26  1  0  0  0  0
 11 30  1  0  0  0  0
 12 13  2  0  0  0  0
 14 15  2  0  0  0  0
 14 19  1  0  0  0  0
 15 16  1  0  0  0  0
 16 17  1  0  0  0  0
 17 18  1  0  0  0  0
 17 20  2  0  0  0  0
 18 19  2  0  0  0  0
 20 21  1  0  0  0  0
 20 24  1  0  0  0  0
 21 22  1  0  0  0  0
 22 23  1  0  0  0  0
 22 25  1  0  0  0  0
 23 24  2  0  0  0  0
 26 27  1  0  0  0  0
 27 28  1  0  0  0  0
 28 29  1  0  0  0  0
 29 30  1  0  0  0  0
  2 31  1  0  0  0  0
  3 32  1  0  0  0  0
  4 33  1  0  0  0  0
 10 34  1  0  0  0  0
 15 35  1  0  0  0  0
 16 36  1  0  0  0  0
 16 37  1  0  0  0  0
 18 38  1  0  0  0  0
 19 39  1  0  0  0  0
 21 40  1  0  0  0  0
 21 41  1  0  0  0  0
 24 42  1  0  0  0  0
 25 43  1  0  0  0  0
 25 44  1  0  0  0  0
 25 45  1  0  0  0  0
 26 46  1  0  0  0  0
 26 47  1  0  0  0  0
 27 48  1  0  0  0  0
 27 49  1  0  0  0  0
 28 50  1  0  0  0  0
 29 51  1  0  0  0  0
 29 52  1  0  0  0  0
 30 53  1  0  0  0  0
 30 54  1  0  0  0  0
M  END
> <Name>
40

> <IC50[uM]>
0.007

$$$$
40
  -OEChem-05192314333D
 Structure written by MMmdl.
 54 58  0     1  0  0  0  0  0999 V2000
   -6.3583   12.3628  -12.0152 C   0  0  3  0  0  0  0  0  0  0  0  0
   -6.5007   11.8020  -10.7383 C   0  0  0  0  0  0  0  0  0  0  0  0
   -7.7096   10.5772  -13.0382 C   0  0  0  0  0  0  0  0  0  0  0  0
   -6.9777   11.7759  -13.1307 C   0  0  0  0  0  0  0  0  0  0  0  0
   -7.8132   10.0130  -11.7619 C   0  0  0  0  0  0  0  0  0  0  0  0
   -7.2338   10.6200  -10.6051 C   0  0  0  0  0  0  0  0  0  0  0  0
   -7.6121    9.7513   -9.5135 C   0  0  0  0  0  0  0  0  0  0  0  0
   -8.2831    8.7414   -9.9888 N   0  0  0  0  0  0  0  0  0  0  0  0
   -8.4159    8.8683  -11.3018 N   0  0  0  0  0  0  0  0  0  0  0  0
   -7.3364    9.8882   -8.0249 C   0  0  0  0  0  0  0  0  0  0  0  0
   -4.3745   13.7307  -11.4480 N   0  0  0  0  0  0  0  0  0  0  0  0
   -5.5401   13.6479  -12.1823 C   0  0  0  0  0  0  0  0  0  0  0  0
   -5.9305   14.5456  -12.9289 O   0  0  0  0  0  0  0  0  0  0  0  0
   -5.9622   10.4857   -7.7364 C   0  0  0  0  0  0  0  0  0  0  0  0
   -4.8106    9.7658   -8.0516 C   0  0  0  0  0  0  0  0  0  0  0  0
   -3.5548   10.3163   -7.8015 C   0  0  0  0  0  0  0  0  0  0  0  0
   -3.4456   11.5910   -7.2371 C   0  0  0  0  0  0  0  0  0  0  0  0
   -4.5995   12.3069   -6.9174 C   0  0  0  0  0  0  0  0  0  0  0  0
   -5.8550   11.7570   -7.1647 C   0  0  0  0  0  0  0  0  0  0  0  0
   -2.1008   12.1810   -6.9758 C   0  0  0  0  0  0  0  0  0  0  0  0
   -1.7660   13.4388   -6.4773 C   0  0  0  0  0  0  0  0  0  0  0  0
   -0.4314   13.4905   -6.4174 N   0  0  3  0  0  0  0  0  0  0  0  0
    0.1713   12.4042   -6.8124 N   0  0  0  0  0  0  0  0  0  0  0  0
   -0.8030   11.5879   -7.1791 C   0  0  0  0  0  0  0  0  0  0  0  0
    0.3850   14.6084   -5.9658 C   0  0  0  0  0  0  0  0  0  0  0  0
   -3.6973   12.5089  -10.9175 C   0  0  0  0  0  0  0  0  0  0  0  0
   -2.2248   12.4637  -11.4426 C   0  0  0  0  0  0  0  0  0  0  0  0
   -1.4987   13.7622  -11.0653 N   0  0  0  0  0  0  0  0  0  0  0  0
   -2.2038   14.9363  -11.7527 C   0  0  0  0  0  0  0  0  0  0  0  0
   -3.6757   15.0331  -11.3164 C   0  0  0  0  0  0  0  0  0  0  0  0
   -5.4561   11.7578  -12.1885 H   0  0  0  0  0  0  0  0  0  0  0  0
   -6.0533   12.2736   -9.8759 H   0  0  0  0  0  0  0  0  0  0  0  0
   -8.1654   10.1188  -13.9034 H   0  0  0  0  0  0  0  0  0  0  0  0
   -6.8895   12.2606  -14.0918 H   0  0  0  0  0  0  0  0  0  0  0  0
   -8.0360    9.5949   -7.2562 H   0  0  0  0  0  0  0  0  0  0  0  0
   -4.8916    8.7819   -8.4894 H   0  0  0  0  0  0  0  0  0  0  0  0
   -2.6635    9.7568   -8.0443 H   0  0  0  0  0  0  0  0  0  0  0  0
   -4.5191   13.2898   -6.4771 H   0  0  0  0  0  0  0  0  0  0  0  0
   -6.7464   12.3131   -6.9146 H   0  0  0  0  0  0  0  0  0  0  0  0
   -2.1452   14.2244   -7.1474 H   0  0  0  0  0  0  0  0  0  0  0  0
   -2.1952   13.5743   -5.4736 H   0  0  0  0  0  0  0  0  0  0  0  0
   -0.6452   10.5982   -7.5816 H   0  0  0  0  0  0  0  0  0  0  0  0
    1.4489   14.3378   -6.0355 H   0  0  0  0  0  0  0  0  0  0  0  0
    0.1877   15.4858   -6.5992 H   0  0  0  0  0  0  0  0  0  0  0  0
    0.1350   14.8465   -4.9214 H   0  0  0  0  0  0  0  0  0  0  0  0
   -3.6944   12.5388   -9.8179 H   0  0  0  0  0  0  0  0  0  0  0  0
   -4.2365   11.6128  -11.2585 H   0  0  0  0  0  0  0  0  0  0  0  0
   -1.7018   11.6081  -10.9904 H   0  0  0  0  0  0  0  0  0  0  0  0
   -2.2305   12.3532  -12.5370 H   0  0  0  0  0  0  0  0  0  0  0  0
   -1.5260   13.8871  -10.0735 H   0  0  0  0  0  0  0  0  0  0  0  0
   -1.6882   15.8706  -11.4859 H   0  0  0  0  0  0  0  0  0  0  0  0
   -2.1612   14.7923  -12.8424 H   0  0  0  0  0  0  0  0  0  0  0  0
   -4.1860   15.7766  -11.9464 H   0  0  0  0  0  0  0  0  0  0  0  0
   -3.7154   15.3542  -10.2651 H   0  0  0  0  0  0  0  0  0  0  0  0
  1  2  1  0  0  0  0
  1  4  1  0  0  0  0
  1 12  1  0  0  0  0
  2  6  2  0  0  0  0
  3  4  2  0  0  0  0
  3  5  1  0  0  0  0
  5  6  1  0  0  0  0
  5  9  2  0  0  0  0
  6  7  1  0  0  0  0
  7  8  2  0  0  0  0
  7 10  1  0  0  0  0
  8  9  1  0  0  0  0
 10 14  2  0  0  0  0
 11 12  1  0  0  0  0
 11 26  1  0  0  0  0
 11 30  1  0  0  0  0
 12 13  2  0  0  0  0
 14 15  1  0  0  0  0
 14 19  1  0  0  0  0
 15 16  2  0  0  0  0
 16 17  1  0  0  0  0
 17 18  1  0  0  0  0
 17 20  2  0  0  0  0
 18 19  2  0  0  0  0
 20 21  1  0  0  0  0
 20 24  1  0  0  0  0
 21 22  1  0  0  0  0
 22 23  1  0  0  0  0
 22 25  1  0  0  0  0
 23 24  2  0  0  0  0
 26 27  1  0  0  0  0
 27 28  1  0  0  0  0
 28 29  1  0  0  0  0
 29 30  1  0  0  0  0
  1 31  1  0  0  0  0
  2 32  1  0  0  0  0
  3 33  1  0  0  0  0
  4 34  1  0  0  0  0
 10 35  1  0  0  0  0
 15 36  1  0  0  0  0
 16 37  1  0  0  0  0
 18 38  1  0  0  0  0
 19 39  1  0  0  0  0
 21 40  1  0  0  0  0
 21 41  1  0  0  0  0
 24 42  1  0  0  0  0
 25 43  1  0  0  0  0
 25 44  1  0  0  0  0
 25 45  1  0  0  0  0
 26 46  1  0  0  0  0
 26 47  1  0  0  0  0
 27 48  1  0  0  0  0
 27 49  1  0  0  0  0
 28 50  1  0  0  0  0
 29 51  1  0  0  0  0
 29 52  1  0  0  0  0
 30 53  1  0  0  0  0
 30 54  1  0  0  0  0
M  END
> <Name>
40

> <IC50[uM]>
0.007

$$$$
40
  -OEChem-05192314333D
 Structure written by MMmdl.
 54 58  0     1  0  0  0  0  0999 V2000
   -6.3583   12.3628  -12.0152 C   0  0  0  0  0  0  0  0  0  0  0  0
   -6.5007   11.8020  -10.7383 C   0  0  0  0  0  0  0  0  0  0  0  0
   -7.7096   10.5772  -13.0382 C   0  0  0  0  0  0  0  0  0  0  0  0
   -6.9777   11.7759  -13.1307 C   0  0  0  0  0  0  0  0  0  0  0  0
   -7.8132   10.0130  -11.7619 C   0  0  0  0  0  0  0  0  0  0  0  0
   -7.2338   10.6200  -10.6051 C   0  0  3  0  0  0  0  0  0  0  0  0
   -7.6121    9.7513   -9.5135 C   0  0  0  0  0  0  0  0  0  0  0  0
   -8.2831    8.7414   -9.9888 N   0  0  0  0  0  0  0  0  0  0  0  0
   -8.4159    8.8683  -11.3018 N   0  0  0  0  0  0  0  0  0  0  0  0
   -7.3364    9.8882   -8.0249 C   0  0  0  0  0  0  0  0  0  0  0  0
   -4.3745   13.7307  -11.4480 N   0  0  0  0  0  0  0  0  0  0  0  0
   -5.5401   13.6479  -12.1823 C   0  0  0  0  0  0  0  0  0  0  0  0
   -5.9305   14.5456  -12.9289 O   0  0  0  0  0  0  0  0  0  0  0  0
   -5.9622   10.4857   -7.7364 C   0  0  0  0  0  0  0  0  0  0  0  0
   -4.8106    9.7658   -8.0516 C   0  0  0  0  0  0  0  0  0  0  0  0
   -3.5548   10.3163   -7.8015 C   0  0  0  0  0  0  0  0  0  0  0  0
   -3.4456   11.5910   -7.2371 C   0  0  0  0  0  0  0  0  0  0  0  0
   -4.5995   12.3069   -6.9174 C   0  0  0  0  0  0  0  0  0  0  0  0
   -5.8550   11.7570   -7.1647 C   0  0  0  0  0  0  0  0  0  0  0  0
   -2.1008   12.1810   -6.9758 C   0  0  0  0  0  0  0  0  0  0  0  0
   -1.7660   13.4388   -6.4773 C   0  0  0  0  0  0  0  0  0  0  0  0
   -0.4314   13.4905   -6.4174 N   0  0  3  0  0  0  0  0  0  0  0  0
    0.1713   12.4042   -6.8124 N   0  0  0  0  0  0  0  0  0  0  0  0
   -0.8030   11.5879   -7.1791 C   0  0  0  0  0  0  0  0  0  0  0  0
    0.3850   14.6084   -5.9658 C   0  0  0  0  0  0  0  0  0  0  0  0
   -3.6973   12.5089  -10.9175 C   0  0  0  0  0  0  0  0  0  0  0  0
   -2.2248   12.4637  -11.4426 C   0  0  0  0  0  0  0  0  0  0  0  0
   -1.4987   13.7622  -11.0653 N   0  0  0  0  0  0  0  0  0  0  0  0
   -2.2038   14.9363  -11.7527 C   0  0  0  0  0  0  0  0  0  0  0  0
   -3.6757   15.0331  -11.3164 C   0  0  0  0  0  0  0  0  0  0  0  0
   -6.0533   12.2736   -9.8759 H   0  0  0  0  0  0  0  0  0  0  0  0
   -8.1654   10.1188  -13.9034 H   0  0  0  0  0  0  0  0  0  0  0  0
   -6.8895   12.2606  -14.0918 H   0  0  0  0  0  0  0  0  0  0  0  0
   -6.3160   10.0327  -10.7556 H   0  0  0  0  0  0  0  0  0  0  0  0
   -8.0360    9.5949   -7.2562 H   0  0  0  0  0  0  0  0  0  0  0  0
   -4.8916    8.7819   -8.4894 H   0  0  0  0  0  0  0  0  0  0  0  0
   -2.6635    9.7568   -8.0443 H   0  0  0  0  0  0  0  0  0  0  0  0
   -4.5191   13.2898   -6.4771 H   0  0  0  0  0  0  0  0  0  0  0  0
   -6.7464   12.3131   -6.9146 H   0  0  0  0  0  0  0  0  0  0  0  0
   -2.1452   14.2244   -7.1474 H   0  0  0  0  0  0  0  0  0  0  0  0
   -2.1952   13.5743   -5.4736 H   0  0  0  0  0  0  0  0  0  0  0  0
   -0.6452   10.5982   -7.5816 H   0  0  0  0  0  0  0  0  0  0  0  0
    1.4489   14.3378   -6.0355 H   0  0  0  0  0  0  0  0  0  0  0  0
    0.1877   15.4858   -6.5992 H   0  0  0  0  0  0  0  0  0  0  0  0
    0.1350   14.8465   -4.9214 H   0  0  0  0  0  0  0  0  0  0  0  0
   -3.6944   12.5388   -9.8179 H   0  0  0  0  0  0  0  0  0  0  0  0
   -4.2365   11.6128  -11.2585 H   0  0  0  0  0  0  0  0  0  0  0  0
   -1.7018   11.6081  -10.9904 H   0  0  0  0  0  0  0  0  0  0  0  0
   -2.2305   12.3532  -12.5370 H   0  0  0  0  0  0  0  0  0  0  0  0
   -1.5260   13.8871  -10.0735 H   0  0  0  0  0  0  0  0  0  0  0  0
   -1.6882   15.8706  -11.4859 H   0  0  0  0  0  0  0  0  0  0  0  0
   -2.1612   14.7923  -12.8424 H   0  0  0  0  0  0  0  0  0  0  0  0
   -4.1860   15.7766  -11.9464 H   0  0  0  0  0  0  0  0  0  0  0  0
   -3.7154   15.3542  -10.2651 H   0  0  0  0  0  0  0  0  0  0  0  0
  1  2  2  0  0  0  0
  1  4  1  0  0  0  0
  1 12  1  0  0  0  0
  2  6  1  0  0  0  0
  3  4  2  0  0  0  0
  3  5  1  0  0  0  0
  5  6  1  0  0  0  0
  5  9  2  0  0  0  0
  6  7  1  0  0  0  0
  7  8  2  0  0  0  0
  7 10  1  0  0  0  0
  8  9  1  0  0  0  0
 10 14  2  0  0  0  0
 11 12  1  0  0  0  0
 11 26  1  0  0  0  0
 11 30  1  0  0  0  0
 12 13  2  0  0  0  0
 14 15  1  0  0  0  0
 14 19  1  0  0  0  0
 15 16  2  0  0  0  0
 16 17  1  0  0  0  0
 17 18  1  0  0  0  0
 17 20  2  0  0  0  0
 18 19  2  0  0  0  0
 20 21  1  0  0  0  0
 20 24  1  0  0  0  0
 21 22  1  0  0  0  0
 22 23  1  0  0  0  0
 22 25  1  0  0  0  0
 23 24  2  0  0  0  0
 26 27  1  0  0  0  0
 27 28  1  0  0  0  0
 28 29  1  0  0  0  0
 29 30  1  0  0  0  0
  2 31  1  0  0  0  0
  3 32  1  0  0  0  0
  4 33  1  0  0  0  0
  6 34  1  0  0  0  0
 10 35  1  0  0  0  0
 15 36  1  0  0  0  0
 16 37  1  0  0  0  0
 18 38  1  0  0  0  0
 19 39  1  0  0  0  0
 21 40  1  0  0  0  0
 21 41  1  0  0  0  0
 24 42  1  0  0  0  0
 25 43  1  0  0  0  0
 25 44  1  0  0  0  0
 25 45  1  0  0  0  0
 26 46  1  0  0  0  0
 26 47  1  0  0  0  0
 27 48  1  0  0  0  0
 27 49  1  0  0  0  0
 28 50  1  0  0  0  0
 29 51  1  0  0  0  0
 29 52  1  0  0  0  0
 30 53  1  0  0  0  0
 30 54  1  0  0  0  0
M  END
> <Name>
40

> <IC50[uM]>
0.007

$$$$
40
  -OEChem-05192314333D
 Structure written by MMmdl.
 54 58  0     1  0  0  0  0  0999 V2000
   -6.3583   12.3628  -12.0152 C   0  0  0  0  0  0  0  0  0  0  0  0
   -6.5007   11.8020  -10.7383 C   0  0  0  0  0  0  0  0  0  0  0  0
   -7.7096   10.5772  -13.0382 C   0  0  0  0  0  0  0  0  0  0  0  0
   -6.9777   11.7759  -13.1307 C   0  0  0  0  0  0  0  0  0  0  0  0
   -7.8132   10.0130  -11.7619 C   0  0  0  0  0  0  0  0  0  0  0  0
   -7.2338   10.6200  -10.6051 C   0  0  0  0  0  0  0  0  0  0  0  0
   -7.6121    9.7513   -9.5135 C   0  0  0  0  0  0  0  0  0  0  0  0
   -8.2831    8.7414   -9.9888 N   0  0  0  0  0  0  0  0  0  0  0  0
   -8.4159    8.8683  -11.3018 N   0  0  0  0  0  0  0  0  0  0  0  0
   -7.3364    9.8882   -8.0249 C   0  0  0  0  0  0  0  0  0  0  0  0
   -4.3745   13.7307  -11.4480 N   0  0  0  0  0  0  0  0  0  0  0  0
   -5.5401   13.6479  -12.1823 C   0  0  0  0  0  0  0  0  0  0  0  0
   -5.9305   14.5456  -12.9289 O   0  0  0  0  0  0  0  0  0  0  0  0
   -5.9622   10.4857   -7.7364 C   0  0  0  0  0  0  0  0  0  0  0  0
   -4.8106    9.7658   -8.0516 C   0  0  0  0  0  0  0  0  0  0  0  0
   -3.5548   10.3163   -7.8015 C   0  0  0  0  0  0  0  0  0  0  0  0
   -3.4456   11.5910   -7.2371 C   0  0  0  0  0  0  0  0  0  0  0  0
   -4.5995   12.3069   -6.9174 C   0  0  0  0  0  0  0  0  0  0  0  0
   -5.8550   11.7570   -7.1647 C   0  0  0  0  0  0  0  0  0  0  0  0
   -2.1008   12.1810   -6.9758 C   0  0  0  0  0  0  0  0  0  0  0  0
   -1.7660   13.4388   -6.4773 C   0  0  0  0  0  0  0  0  0  0  0  0
   -0.4314   13.4905   -6.4174 N   0  0  3  0  0  0  0  0  0  0  0  0
    0.1713   12.4042   -6.8124 N   0  0  0  0  0  0  0  0  0  0  0  0
   -0.8030   11.5879   -7.1791 C   0  0  0  0  0  0  0  0  0  0  0  0
    0.3850   14.6084   -5.9658 C   0  0  0  0  0  0  0  0  0  0  0  0
   -3.6973   12.5089  -10.9175 C   0  0  0  0  0  0  0  0  0  0  0  0
   -2.2248   12.4637  -11.4426 C   0  0  0  0  0  0  0  0  0  0  0  0
   -1.4987   13.7622  -11.0653 N   0  0  0  0  0  0  0  0  0  0  0  0
   -2.2038   14.9363  -11.7527 C   0  0  0  0  0  0  0  0  0  0  0  0
   -3.6757   15.0331  -11.3164 C   0  0  0  0  0  0  0  0  0  0  0  0
   -6.0533   12.2736   -9.8759 H   0  0  0  0  0  0  0  0  0  0  0  0
   -8.7288   10.7776  -13.4002 H   0  0  0  0  0  0  0  0  0  0  0  0
   -7.2265    9.8377  -13.6937 H   0  0  0  0  0  0  0  0  0  0  0  0
   -6.8895   12.2606  -14.0918 H   0  0  0  0  0  0  0  0  0  0  0  0
   -8.0360    9.5949   -7.2562 H   0  0  0  0  0  0  0  0  0  0  0  0
   -4.8916    8.7819   -8.4894 H   0  0  0  0  0  0  0  0  0  0  0  0
   -2.6635    9.7568   -8.0443 H   0  0  0  0  0  0  0  0  0  0  0  0
   -4.5191   13.2898   -6.4771 H   0  0  0  0  0  0  0  0  0  0  0  0
   -6.7464   12.3131   -6.9146 H   0  0  0  0  0  0  0  0  0  0  0  0
   -2.1452   14.2244   -7.1474 H   0  0  0  0  0  0  0  0  0  0  0  0
   -2.1952   13.5743   -5.4736 H   0  0  0  0  0  0  0  0  0  0  0  0
   -0.6452   10.5982   -7.5816 H   0  0  0  0  0  0  0  0  0  0  0  0
    1.4489   14.3378   -6.0355 H   0  0  0  0  0  0  0  0  0  0  0  0
    0.1877   15.4858   -6.5992 H   0  0  0  0  0  0  0  0  0  0  0  0
    0.1350   14.8465   -4.9214 H   0  0  0  0  0  0  0  0  0  0  0  0
   -3.6944   12.5388   -9.8179 H   0  0  0  0  0  0  0  0  0  0  0  0
   -4.2365   11.6128  -11.2585 H   0  0  0  0  0  0  0  0  0  0  0  0
   -1.7018   11.6081  -10.9904 H   0  0  0  0  0  0  0  0  0  0  0  0
   -2.2305   12.3532  -12.5370 H   0  0  0  0  0  0  0  0  0  0  0  0
   -1.5260   13.8871  -10.0735 H   0  0  0  0  0  0  0  0  0  0  0  0
   -1.6882   15.8706  -11.4859 H   0  0  0  0  0  0  0  0  0  0  0  0
   -2.1612   14.7923  -12.8424 H   0  0  0  0  0  0  0  0  0  0  0  0
   -4.1860   15.7766  -11.9464 H   0  0  0  0  0  0  0  0  0  0  0  0
   -3.7154   15.3542  -10.2651 H   0  0  0  0  0  0  0  0  0  0  0  0
  1  2  1  0  0  0  0
  1  4  2  0  0  0  0
  1 12  1  0  0  0  0
  2  6  2  0  0  0  0
  3  4  1  0  0  0  0
  3  5  1  0  0  0  0
  5  6  1  0  0  0  0
  5  9  2  0  0  0  0
  6  7  1  0  0  0  0
  7  8  2  0  0  0  0
  7 10  1  0  0  0  0
  8  9  1  0  0  0  0
 10 14  2  0  0  0  0
 11 12  1  0  0  0  0
 11 26  1  0  0  0  0
 11 30  1  0  0  0  0
 12 13  2  0  0  0  0
 14 15  1  0  0  0  0
 14 19  1  0  0  0  0
 15 16  2  0  0  0  0
 16 17  1  0  0  0  0
 17 18  1  0  0  0  0
 17 20  2  0  0  0  0
 18 19  2  0  0  0  0
 20 21  1  0  0  0  0
 20 24  1  0  0  0  0
 21 22  1  0  0  0  0
 22 23  1  0  0  0  0
 22 25  1  0  0  0  0
 23 24  2  0  0  0  0
 26 27  1  0  0  0  0
 27 28  1  0  0  0  0
 28 29  1  0  0  0  0
 29 30  1  0  0  0  0
  2 31  1  0  0  0  0
  3 32  1  0  0  0  0
  3 33  1  0  0  0  0
  4 34  1  0  0  0  0
 10 35  1  0  0  0  0
 15 36  1  0  0  0  0
 16 37  1  0  0  0  0
 18 38  1  0  0  0  0
 19 39  1  0  0  0  0
 21 40  1  0  0  0  0
 21 41  1  0  0  0  0
 24 42  1  0  0  0  0
 25 43  1  0  0  0  0
 25 44  1  0  0  0  0
 25 45  1  0  0  0  0
 26 46  1  0  0  0  0
 26 47  1  0  0  0  0
 27 48  1  0  0  0  0
 27 49  1  0  0  0  0
 28 50  1  0  0  0  0
 29 51  1  0  0  0  0
 29 52  1  0  0  0  0
 30 53  1  0  0  0  0
 30 54  1  0  0  0  0
M  END
> <Name>
40

> <IC50[uM]>
0.007

$$$$
40
  -OEChem-05192314333D
 Structure written by MMmdl.
 54 58  0     1  0  0  0  0  0999 V2000
   -6.3583   12.3628  -12.0152 C   0  0  0  0  0  0  0  0  0  0  0  0
   -6.5007   11.8020  -10.7383 C   0  0  0  0  0  0  0  0  0  0  0  0
   -7.7096   10.5772  -13.0382 C   0  0  0  0  0  0  0  0  0  0  0  0
   -6.9777   11.7759  -13.1307 C   0  0  0  0  0  0  0  0  0  0  0  0
   -7.8132   10.0130  -11.7619 C   0  0  3  0  0  0  0  0  0  0  0  0
   -7.2338   10.6200  -10.6051 C   0  0  0  0  0  0  0  0  0  0  0  0
   -7.6121    9.7513   -9.5135 C   0  0  0  0  0  0  0  0  0  0  0  0
   -8.2831    8.7414   -9.9888 N   0  0  0  0  0  0  0  0  0  0  0  0
   -8.4159    8.8683  -11.3018 N   0  0  0  0  0  0  0  0  0  0  0  0
   -7.3364    9.8882   -8.0249 C   0  0  0  0  0  0  0  0  0  0  0  0
   -4.3745   13.7307  -11.4480 N   0  0  0  0  0  0  0  0  0  0  0  0
   -5.5401   13.6479  -12.1823 C   0  0  0  0  0  0  0  0  0  0  0  0
   -5.9305   14.5456  -12.9289 O   0  0  0  0  0  0  0  0  0  0  0  0
   -5.9622   10.4857   -7.7364 C   0  0  0  0  0  0  0  0  0  0  0  0
   -4.8106    9.7658   -8.0516 C   0  0  0  0  0  0  0  0  0  0  0  0
   -3.5548   10.3163   -7.8015 C   0  0  0  0  0  0  0  0  0  0  0  0
   -3.4456   11.5910   -7.2371 C   0  0  0  0  0  0  0  0  0  0  0  0
   -4.5995   12.3069   -6.9174 C   0  0  0  0  0  0  0  0  0  0  0  0
   -5.8550   11.7570   -7.1647 C   0  0  0  0  0  0  0  0  0  0  0  0
   -2.1008   12.1810   -6.9758 C   0  0  0  0  0  0  0  0  0  0  0  0
   -1.7660   13.4388   -6.4773 C   0  0  0  0  0  0  0  0  0  0  0  0
   -0.4314   13.4905   -6.4174 N   0  0  3  0  0  0  0  0  0  0  0  0
    0.1713   12.4042   -6.8124 N   0  0  0  0  0  0  0  0  0  0  0  0
   -0.8030   11.5879   -7.1791 C   0  0  0  0  0  0  0  0  0  0  0  0
    0.3850   14.6084   -5.9658 C   0  0  0  0  0  0  0  0  0  0  0  0
   -3.6973   12.5089  -10.9175 C   0  0  0  0  0  0  0  0  0  0  0  0
   -2.2248   12.4637  -11.4426 C   0  0  0  0  0  0  0  0  0  0  0  0
   -1.4987   13.7622  -11.0653 N   0  0  0  0  0  0  0  0  0  0  0  0
   -2.2038   14.9363  -11.7527 C   0  0  0  0  0  0  0  0  0  0  0  0
   -3.6757   15.0331  -11.3164 C   0  0  0  0  0  0  0  0  0  0  0  0
   -6.0533   12.2736   -9.8759 H   0  0  0  0  0  0  0  0  0  0  0  0
   -8.1654   10.1188  -13.9034 H   0  0  0  0  0  0  0  0  0  0  0  0
   -6.8895   12.2606  -14.0918 H   0  0  0  0  0  0  0  0  0  0  0  0
   -8.7443   10.5728  -11.5897 H   0  0  0  0  0  0  0  0  0  0  0  0
   -8.0360    9.5949   -7.2562 H   0  0  0  0  0  0  0  0  0  0  0  0
   -4.8916    8.7819   -8.4894 H   0  0  0  0  0  0  0  0  0  0  0  0
   -2.6635    9.7568   -8.0443 H   0  0  0  0  0  0  0  0  0  0  0  0
   -4.5191   13.2898   -6.4771 H   0  0  0  0  0  0  0  0  0  0  0  0
   -6.7464   12.3131   -6.9146 H   0  0  0  0  0  0  0  0  0  0  0  0
   -2.1452   14.2244   -7.1474 H   0  0  0  0  0  0  0  0  0  0  0  0
   -2.1952   13.5743   -5.4736 H   0  0  0  0  0  0  0  0  0  0  0  0
   -0.6452   10.5982   -7.5816 H   0  0  0  0  0  0  0  0  0  0  0  0
    1.4489   14.3378   -6.0355 H   0  0  0  0  0  0  0  0  0  0  0  0
    0.1877   15.4858   -6.5992 H   0  0  0  0  0  0  0  0  0  0  0  0
    0.1350   14.8465   -4.9214 H   0  0  0  0  0  0  0  0  0  0  0  0
   -3.6944   12.5388   -9.8179 H   0  0  0  0  0  0  0  0  0  0  0  0
   -4.2365   11.6128  -11.2585 H   0  0  0  0  0  0  0  0  0  0  0  0
   -1.7018   11.6081  -10.9904 H   0  0  0  0  0  0  0  0  0  0  0  0
   -2.2305   12.3532  -12.5370 H   0  0  0  0  0  0  0  0  0  0  0  0
   -1.5260   13.8871  -10.0735 H   0  0  0  0  0  0  0  0  0  0  0  0
   -1.6882   15.8706  -11.4859 H   0  0  0  0  0  0  0  0  0  0  0  0
   -2.1612   14.7923  -12.8424 H   0  0  0  0  0  0  0  0  0  0  0  0
   -4.1860   15.7766  -11.9464 H   0  0  0  0  0  0  0  0  0  0  0  0
   -3.7154   15.3542  -10.2651 H   0  0  0  0  0  0  0  0  0  0  0  0
  1  2  2  0  0  0  0
  1  4  1  0  0  0  0
  1 12  1  0  0  0  0
  2  6  1  0  0  0  0
  3  4  2  0  0  0  0
  3  5  1  0  0  0  0
  5  6  1  0  0  0  0
  5  9  1  0  0  0  0
  6  7  2  0  0  0  0
  7  8  1  0  0  0  0
  7 10  1  0  0  0  0
  8  9  2  0  0  0  0
 10 14  2  0  0  0  0
 11 12  1  0  0  0  0
 11 26  1  0  0  0  0
 11 30  1  0  0  0  0
 12 13  2  0  0  0  0
 14 15  1  0  0  0  0
 14 19  1  0  0  0  0
 15 16  2  0  0  0  0
 16 17  1  0  0  0  0
 17 18  1  0  0  0  0
 17 20  2  0  0  0  0
 18 19  2  0  0  0  0
 20 21  1  0  0  0  0
 20 24  1  0  0  0  0
 21 22  1  0  0  0  0
 22 23  1  0  0  0  0
 22 25  1  0  0  0  0
 23 24  2  0  0  0  0
 26 27  1  0  0  0  0
 27 28  1  0  0  0  0
 28 29  1  0  0  0  0
 29 30  1  0  0  0  0
  2 31  1  0  0  0  0
  3 32  1  0  0  0  0
  4 33  1  0  0  0  0
  5 34  1  0  0  0  0
 10 35  1  0  0  0  0
 15 36  1  0  0  0  0
 16 37  1  0  0  0  0
 18 38  1  0  0  0  0
 19 39  1  0  0  0  0
 21 40  1  0  0  0  0
 21 41  1  0  0  0  0
 24 42  1  0  0  0  0
 25 43  1  0  0  0  0
 25 44  1  0  0  0  0
 25 45  1  0  0  0  0
 26 46  1  0  0  0  0
 26 47  1  0  0  0  0
 27 48  1  0  0  0  0
 27 49  1  0  0  0  0
 28 50  1  0  0  0  0
 29 51  1  0  0  0  0
 29 52  1  0  0  0  0
 30 53  1  0  0  0  0
 30 54  1  0  0  0  0
M  END
> <Name>
40

> <IC50[uM]>
0.007

$$$$
40
  -OEChem-05192314333D
 Structure written by MMmdl.
 54 58  0     1  0  0  0  0  0999 V2000
   -6.3583   12.3628  -12.0152 C   0  0  0  0  0  0  0  0  0  0  0  0
   -6.5007   11.8020  -10.7383 C   0  0  0  0  0  0  0  0  0  0  0  0
   -7.7096   10.5772  -13.0382 C   0  0  0  0  0  0  0  0  0  0  0  0
   -6.9777   11.7759  -13.1307 C   0  0  0  0  0  0  0  0  0  0  0  0
   -7.8132   10.0130  -11.7619 C   0  0  0  0  0  0  0  0  0  0  0  0
   -7.2338   10.6200  -10.6051 C   0  0  0  0  0  0  0  0  0  0  0  0
   -7.6121    9.7513   -9.5135 C   0  0  0  0  0  0  0  0  0  0  0  0
   -8.2831    8.7414   -9.9888 N   0  0  0  0  0  0  0  0  0  0  0  0
   -8.4159    8.8683  -11.3018 N   0  0  0  0  0  0  0  0  0  0  0  0
   -7.3364    9.8882   -8.0249 C   0  0  0  0  0  0  0  0  0  0  0  0
   -4.3745   13.7307  -11.4480 N   0  0  0  0  0  0  0  0  0  0  0  0
   -5.5401   13.6479  -12.1823 C   0  0  0  0  0  0  0  0  0  0  0  0
   -5.9305   14.5456  -12.9289 O   0  0  0  0  0  0  0  0  0  0  0  0
   -5.9622   10.4857   -7.7364 C   0  0  0  0  0  0  0  0  0  0  0  0
   -4.8106    9.7658   -8.0516 C   0  0  0  0  0  0  0  0  0  0  0  0
   -3.5548   10.3163   -7.8015 C   0  0  0  0  0  0  0  0  0  0  0  0
   -3.4456   11.5910   -7.2371 C   0  0  0  0  0  0  0  0  0  0  0  0
   -4.5995   12.3069   -6.9174 C   0  0  0  0  0  0  0  0  0  0  0  0
   -5.8550   11.7570   -7.1647 C   0  0  0  0  0  0  0  0  0  0  0  0
   -2.1008   12.1810   -6.9758 C   0  0  0  0  0  0  0  0  0  0  0  0
   -1.7660   13.4388   -6.4773 C   0  0  0  0  0  0  0  0  0  0  0  0
   -0.4314   13.4905   -6.4174 N   0  0  3  0  0  0  0  0  0  0  0  0
    0.1713   12.4042   -6.8124 N   0  0  0  0  0  0  0  0  0  0  0  0
   -0.8030   11.5879   -7.1791 C   0  0  0  0  0  0  0  0  0  0  0  0
    0.3850   14.6084   -5.9658 C   0  0  0  0  0  0  0  0  0  0  0  0
   -3.6973   12.5089  -10.9175 C   0  0  0  0  0  0  0  0  0  0  0  0
   -2.2248   12.4637  -11.4426 C   0  0  0  0  0  0  0  0  0  0  0  0
   -1.4987   13.7622  -11.0653 N   0  0  0  0  0  0  0  0  0  0  0  0
   -2.2038   14.9363  -11.7527 C   0  0  0  0  0  0  0  0  0  0  0  0
   -3.6757   15.0331  -11.3164 C   0  0  0  0  0  0  0  0  0  0  0  0
   -6.0533   12.2736   -9.8759 H   0  0  0  0  0  0  0  0  0  0  0  0
   -8.1654   10.1188  -13.9034 H   0  0  0  0  0  0  0  0  0  0  0  0
   -7.6730   12.5301  -13.5278 H   0  0  0  0  0  0  0  0  0  0  0  0
   -6.1786   11.5918  -13.8639 H   0  0  0  0  0  0  0  0  0  0  0  0
   -8.0360    9.5949   -7.2562 H   0  0  0  0  0  0  0  0  0  0  0  0
   -4.8916    8.7819   -8.4894 H   0  0  0  0  0  0  0  0  0  0  0  0
   -2.6635    9.7568   -8.0443 H   0  0  0  0  0  0  0  0  0  0  0  0
   -4.5191   13.2898   -6.4771 H   0  0  0  0  0  0  0  0  0  0  0  0
   -6.7464   12.3131   -6.9146 H   0  0  0  0  0  0  0  0  0  0  0  0
   -2.1452   14.2244   -7.1474 H   0  0  0  0  0  0  0  0  0  0  0  0
   -2.1952   13.5743   -5.4736 H   0  0  0  0  0  0  0  0  0  0  0  0
   -0.6452   10.5982   -7.5816 H   0  0  0  0  0  0  0  0  0  0  0  0
    1.4489   14.3378   -6.0355 H   0  0  0  0  0  0  0  0  0  0  0  0
    0.1877   15.4858   -6.5992 H   0  0  0  0  0  0  0  0  0  0  0  0
    0.1350   14.8465   -4.9214 H   0  0  0  0  0  0  0  0  0  0  0  0
   -3.6944   12.5388   -9.8179 H   0  0  0  0  0  0  0  0  0  0  0  0
   -4.2365   11.6128  -11.2585 H   0  0  0  0  0  0  0  0  0  0  0  0
   -1.7018   11.6081  -10.9904 H   0  0  0  0  0  0  0  0  0  0  0  0
   -2.2305   12.3532  -12.5370 H   0  0  0  0  0  0  0  0  0  0  0  0
   -1.5260   13.8871  -10.0735 H   0  0  0  0  0  0  0  0  0  0  0  0
   -1.6882   15.8706  -11.4859 H   0  0  0  0  0  0  0  0  0  0  0  0
   -2.1612   14.7923  -12.8424 H   0  0  0  0  0  0  0  0  0  0  0  0
   -4.1860   15.7766  -11.9464 H   0  0  0  0  0  0  0  0  0  0  0  0
   -3.7154   15.3542  -10.2651 H   0  0  0  0  0  0  0  0  0  0  0  0
  1  2  2  0  0  0  0
  1  4  1  0  0  0  0
  1 12  1  0  0  0  0
  2  6  1  0  0  0  0
  3  4  1  0  0  0  0
  3  5  2  0  0  0  0
  5  6  1  0  0  0  0
  5  9  1  0  0  0  0
  6  7  2  0  0  0  0
  7  8  1  0  0  0  0
  7 10  1  0  0  0  0
  8  9  2  0  0  0  0
 10 14  2  0  0  0  0
 11 12  1  0  0  0  0
 11 26  1  0  0  0  0
 11 30  1  0  0  0  0
 12 13  2  0  0  0  0
 14 15  1  0  0  0  0
 14 19  1  0  0  0  0
 15 16  2  0  0  0  0
 16 17  1  0  0  0  0
 17 18  1  0  0  0  0
 17 20  2  0  0  0  0
 18 19  2  0  0  0  0
 20 21  1  0  0  0  0
 20 24  1  0  0  0  0
 21 22  1  0  0  0  0
 22 23  1  0  0  0  0
 22 25  1  0  0  0  0
 23 24  2  0  0  0  0
 26 27  1  0  0  0  0
 27 28  1  0  0  0  0
 28 29  1  0  0  0  0
 29 30  1  0  0  0  0
  2 31  1  0  0  0  0
  3 32  1  0  0  0  0
  4 33  1  0  0  0  0
  4 34  1  0  0  0  0
 10 35  1  0  0  0  0
 15 36  1  0  0  0  0
 16 37  1  0  0  0  0
 18 38  1  0  0  0  0
 19 39  1  0  0  0  0
 21 40  1  0  0  0  0
 21 41  1  0  0  0  0
 24 42  1  0  0  0  0
 25 43  1  0  0  0  0
 25 44  1  0  0  0  0
 25 45  1  0  0  0  0
 26 46  1  0  0  0  0
 26 47  1  0  0  0  0
 27 48  1  0  0  0  0
 27 49  1  0  0  0  0
 28 50  1  0  0  0  0
 29 51  1  0  0  0  0
 29 52  1  0  0  0  0
 30 53  1  0  0  0  0
 30 54  1  0  0  0  0
M  END
> <Name>
40

> <IC50[uM]>
0.007

$$$$
40
  -OEChem-05192314333D
 Structure written by MMmdl.
 54 58  0     1  0  0  0  0  0999 V2000
   -6.3583   12.3628  -12.0152 C   0  0  0  0  0  0  0  0  0  0  0  0
   -6.5007   11.8020  -10.7383 C   0  0  0  0  0  0  0  0  0  0  0  0
   -7.7096   10.5772  -13.0382 C   0  0  0  0  0  0  0  0  0  0  0  0
   -6.9777   11.7759  -13.1307 C   0  0  0  0  0  0  0  0  0  0  0  0
   -7.8132   10.0130  -11.7619 C   0  0  0  0  0  0  0  0  0  0  0  0
   -7.2338   10.6200  -10.6051 C   0  0  0  0  0  0  0  0  0  0  0  0
   -7.6121    9.7513   -9.5135 C   0  0  0  0  0  0  0  0  0  0  0  0
   -8.2831    8.7414   -9.9888 N   0  0  0  0  0  0  0  0  0  0  0  0
   -8.4159    8.8683  -11.3018 N   0  0  0  0  0  0  0  0  0  0  0  0
   -7.3364    9.8882   -8.0249 C   0  0  0  0  0  0  0  0  0  0  0  0
   -4.3745   13.7307  -11.4480 N   0  0  0  0  0  0  0  0  0  0  0  0
   -5.5401   13.6479  -12.1823 C   0  0  0  0  0  0  0  0  0  0  0  0
   -5.9305   14.5456  -12.9289 O   0  0  0  0  0  0  0  0  0  0  0  0
   -5.9622   10.4857   -7.7364 C   0  0  0  0  0  0  0  0  0  0  0  0
   -4.8106    9.7658   -8.0516 C   0  0  0  0  0  0  0  0  0  0  0  0
   -3.5548   10.3163   -7.8015 C   0  0  0  0  0  0  0  0  0  0  0  0
   -3.4456   11.5910   -7.2371 C   0  0  0  0  0  0  0  0  0  0  0  0
   -4.5995   12.3069   -6.9174 C   0  0  0  0  0  0  0  0  0  0  0  0
   -5.8550   11.7570   -7.1647 C   0  0  0  0  0  0  0  0  0  0  0  0
   -2.1008   12.1810   -6.9758 C   0  0  0  0  0  0  0  0  0  0  0  0
   -1.7660   13.4388   -6.4773 C   0  0  0  0  0  0  0  0  0  0  0  0
   -0.4314   13.4905   -6.4174 N   0  0  3  0  0  0  0  0  0  0  0  0
    0.1713   12.4042   -6.8124 N   0  0  0  0  0  0  0  0  0  0  0  0
   -0.8030   11.5879   -7.1791 C   0  0  0  0  0  0  0  0  0  0  0  0
    0.3850   14.6084   -5.9658 C   0  0  0  0  0  0  0  0  0  0  0  0
   -3.6973   12.5089  -10.9175 C   0  0  0  0  0  0  0  0  0  0  0  0
   -2.2248   12.4637  -11.4426 C   0  0  0  0  0  0  0  0  0  0  0  0
   -1.4987   13.7622  -11.0653 N   0  0  0  0  0  0  0  0  0  0  0  0
   -2.2038   14.9363  -11.7527 C   0  0  0  0  0  0  0  0  0  0  0  0
   -3.6757   15.0331  -11.3164 C   0  0  0  0  0  0  0  0  0  0  0  0
   -5.4884   11.6004  -10.3579 H   0  0  0  0  0  0  0  0  0  0  0  0
   -6.9867   12.5582  -10.1044 H   0  0  0  0  0  0  0  0  0  0  0  0
   -8.1654   10.1188  -13.9034 H   0  0  0  0  0  0  0  0  0  0  0  0
   -6.8895   12.2606  -14.0918 H   0  0  0  0  0  0  0  0  0  0  0  0
   -8.0360    9.5949   -7.2562 H   0  0  0  0  0  0  0  0  0  0  0  0
   -4.8916    8.7819   -8.4894 H   0  0  0  0  0  0  0  0  0  0  0  0
   -2.6635    9.7568   -8.0443 H   0  0  0  0  0  0  0  0  0  0  0  0
   -4.5191   13.2898   -6.4771 H   0  0  0  0  0  0  0  0  0  0  0  0
   -6.7464   12.3131   -6.9146 H   0  0  0  0  0  0  0  0  0  0  0  0
   -2.1452   14.2244   -7.1474 H   0  0  0  0  0  0  0  0  0  0  0  0
   -2.1952   13.5743   -5.4736 H   0  0  0  0  0  0  0  0  0  0  0  0
   -0.6452   10.5982   -7.5816 H   0  0  0  0  0  0  0  0  0  0  0  0
    1.4489   14.3378   -6.0355 H   0  0  0  0  0  0  0  0  0  0  0  0
    0.1877   15.4858   -6.5992 H   0  0  0  0  0  0  0  0  0  0  0  0
    0.1350   14.8465   -4.9214 H   0  0  0  0  0  0  0  0  0  0  0  0
   -3.6944   12.5388   -9.8179 H   0  0  0  0  0  0  0  0  0  0  0  0
   -4.2365   11.6128  -11.2585 H   0  0  0  0  0  0  0  0  0  0  0  0
   -1.7018   11.6081  -10.9904 H   0  0  0  0  0  0  0  0  0  0  0  0
   -2.2305   12.3532  -12.5370 H   0  0  0  0  0  0  0  0  0  0  0  0
   -1.5260   13.8871  -10.0735 H   0  0  0  0  0  0  0  0  0  0  0  0
   -1.6882   15.8706  -11.4859 H   0  0  0  0  0  0  0  0  0  0  0  0
   -2.1612   14.7923  -12.8424 H   0  0  0  0  0  0  0  0  0  0  0  0
   -4.1860   15.7766  -11.9464 H   0  0  0  0  0  0  0  0  0  0  0  0
   -3.7154   15.3542  -10.2651 H   0  0  0  0  0  0  0  0  0  0  0  0
  1  2  1  0  0  0  0
  1  4  2  0  0  0  0
  1 12  1  0  0  0  0
  2  6  1  0  0  0  0
  3  4  1  0  0  0  0
  3  5  2  0  0  0  0
  5  6  1  0  0  0  0
  5  9  1  0  0  0  0
  6  7  2  0  0  0  0
  7  8  1  0  0  0  0
  7 10  1  0  0  0  0
  8  9  2  0  0  0  0
 10 14  2  0  0  0  0
 11 12  1  0  0  0  0
 11 26  1  0  0  0  0
 11 30  1  0  0  0  0
 12 13  2  0  0  0  0
 14 15  1  0  0  0  0
 14 19  1  0  0  0  0
 15 16  2  0  0  0  0
 16 17  1  0  0  0  0
 17 18  1  0  0  0  0
 17 20  2  0  0  0  0
 18 19  2  0  0  0  0
 20 21  1  0  0  0  0
 20 24  1  0  0  0  0
 21 22  1  0  0  0  0
 22 23  1  0  0  0  0
 22 25  1  0  0  0  0
 23 24  2  0  0  0  0
 26 27  1  0  0  0  0
 27 28  1  0  0  0  0
 28 29  1  0  0  0  0
 29 30  1  0  0  0  0
  2 31  1  0  0  0  0
  2 32  1  0  0  0  0
  3 33  1  0  0  0  0
  4 34  1  0  0  0  0
 10 35  1  0  0  0  0
 15 36  1  0  0  0  0
 16 37  1  0  0  0  0
 18 38  1  0  0  0  0
 19 39  1  0  0  0  0
 21 40  1  0  0  0  0
 21 41  1  0  0  0  0
 24 42  1  0  0  0  0
 25 43  1  0  0  0  0
 25 44  1  0  0  0  0
 25 45  1  0  0  0  0
 26 46  1  0  0  0  0
 26 47  1  0  0  0  0
 27 48  1  0  0  0  0
 27 49  1  0  0  0  0
 28 50  1  0  0  0  0
 29 51  1  0  0  0  0
 29 52  1  0  0  0  0
 30 53  1  0  0  0  0
 30 54  1  0  0  0  0
M  END
> <Name>
40

> <IC50[uM]>
0.007

$$$$
40
  -OEChem-05192314333D
 Structure written by MMmdl.
 54 58  0     1  0  0  0  0  0999 V2000
   -6.3583   12.3628  -12.0152 C   0  0  3  0  0  0  0  0  0  0  0  0
   -6.5007   11.8020  -10.7383 C   0  0  0  0  0  0  0  0  0  0  0  0
   -7.7096   10.5772  -13.0382 C   0  0  0  0  0  0  0  0  0  0  0  0
   -6.9777   11.7759  -13.1307 C   0  0  0  0  0  0  0  0  0  0  0  0
   -7.8132   10.0130  -11.7619 C   0  0  0  0  0  0  0  0  0  0  0  0
   -7.2338   10.6200  -10.6051 C   0  0  0  0  0  0  0  0  0  0  0  0
   -7.6121    9.7513   -9.5135 C   0  0  0  0  0  0  0  0  0  0  0  0
   -8.2831    8.7414   -9.9888 N   0  0  0  0  0  0  0  0  0  0  0  0
   -8.4159    8.8683  -11.3018 N   0  0  0  0  0  0  0  0  0  0  0  0
   -7.3364    9.8882   -8.0249 C   0  0  0  0  0  0  0  0  0  0  0  0
   -4.3745   13.7307  -11.4480 N   0  0  0  0  0  0  0  0  0  0  0  0
   -5.5401   13.6479  -12.1823 C   0  0  0  0  0  0  0  0  0  0  0  0
   -5.9305   14.5456  -12.9289 O   0  0  0  0  0  0  0  0  0  0  0  0
   -5.9622   10.4857   -7.7364 C   0  0  0  0  0  0  0  0  0  0  0  0
   -4.8106    9.7658   -8.0516 C   0  0  0  0  0  0  0  0  0  0  0  0
   -3.5548   10.3163   -7.8015 C   0  0  0  0  0  0  0  0  0  0  0  0
   -3.4456   11.5910   -7.2371 C   0  0  0  0  0  0  0  0  0  0  0  0
   -4.5995   12.3069   -6.9174 C   0  0  0  0  0  0  0  0  0  0  0  0
   -5.8550   11.7570   -7.1647 C   0  0  0  0  0  0  0  0  0  0  0  0
   -2.1008   12.1810   -6.9758 C   0  0  0  0  0  0  0  0  0  0  0  0
   -1.7660   13.4388   -6.4773 C   0  0  0  0  0  0  0  0  0  0  0  0
   -0.4314   13.4905   -6.4174 N   0  0  0  0  0  0  0  0  0  0  0  0
    0.1713   12.4042   -6.8124 N   0  0  0  0  0  0  0  0  0  0  0  0
   -0.8030   11.5879   -7.1791 C   0  0  0  0  0  0  0  0  0  0  0  0
    0.3850   14.6084   -5.9658 C   0  0  0  0  0  0  0  0  0  0  0  0
   -3.6973   12.5089  -10.9175 C   0  0  0  0  0  0  0  0  0  0  0  0
   -2.2248   12.4637  -11.4426 C   0  0  0  0  0  0  0  0  0  0  0  0
   -1.4987   13.7622  -11.0653 N   0  0  0  0  0  0  0  0  0  0  0  0
   -2.2038   14.9363  -11.7527 C   0  0  0  0  0  0  0  0  0  0  0  0
   -3.6757   15.0331  -11.3164 C   0  0  0  0  0  0  0  0  0  0  0  0
   -5.4561   11.7578  -12.1885 H   0  0  0  0  0  0  0  0  0  0  0  0
   -6.0533   12.2736   -9.8759 H   0  0  0  0  0  0  0  0  0  0  0  0
   -8.1654   10.1188  -13.9034 H   0  0  0  0  0  0  0  0  0  0  0  0
   -6.8895   12.2606  -14.0918 H   0  0  0  0  0  0  0  0  0  0  0  0
   -8.0360    9.5949   -7.2562 H   0  0  0  0  0  0  0  0  0  0  0  0
   -4.8916    8.7819   -8.4894 H   0  0  0  0  0  0  0  0  0  0  0  0
   -2.6635    9.7568   -8.0443 H   0  0  0  0  0  0  0  0  0  0  0  0
   -3.4466   12.0370   -8.2426 H   0  0  0  0  0  0  0  0  0  0  0  0
   -4.5191   13.2898   -6.4771 H   0  0  0  0  0  0  0  0  0  0  0  0
   -6.7464   12.3131   -6.9146 H   0  0  0  0  0  0  0  0  0  0  0  0
   -2.4534   14.2220   -6.1936 H   0  0  0  0  0  0  0  0  0  0  0  0
   -0.6452   10.5982   -7.5816 H   0  0  0  0  0  0  0  0  0  0  0  0
    1.4489   14.3378   -6.0355 H   0  0  0  0  0  0  0  0  0  0  0  0
    0.1877   15.4858   -6.5992 H   0  0  0  0  0  0  0  0  0  0  0  0
    0.1350   14.8465   -4.9214 H   0  0  0  0  0  0  0  0  0  0  0  0
   -3.6944   12.5388   -9.8179 H   0  0  0  0  0  0  0  0  0  0  0  0
   -4.2365   11.6128  -11.2585 H   0  0  0  0  0  0  0  0  0  0  0  0
   -1.7018   11.6081  -10.9904 H   0  0  0  0  0  0  0  0  0  0  0  0
   -2.2305   12.3532  -12.5370 H   0  0  0  0  0  0  0  0  0  0  0  0
   -1.5260   13.8871  -10.0735 H   0  0  0  0  0  0  0  0  0  0  0  0
   -1.6882   15.8706  -11.4859 H   0  0  0  0  0  0  0  0  0  0  0  0
   -2.1612   14.7923  -12.8424 H   0  0  0  0  0  0  0  0  0  0  0  0
   -4.1860   15.7766  -11.9464 H   0  0  0  0  0  0  0  0  0  0  0  0
   -3.7154   15.3542  -10.2651 H   0  0  0  0  0  0  0  0  0  0  0  0
  1  2  1  0  0  0  0
  1  4  1  0  0  0  0
  1 12  1  0  0  0  0
  2  6  2  0  0  0  0
  3  4  2  0  0  0  0
  3  5  1  0  0  0  0
  5  6  1  0  0  0  0
  5  9  2  0  0  0  0
  6  7  1  0  0  0  0
  7  8  2  0  0  0  0
  7 10  1  0  0  0  0
  8  9  1  0  0  0  0
 10 14  2  0  0  0  0
 11 12  1  0  0  0  0
 11 26  1  0  0  0  0
 11 30  1  0  0  0  0
 12 13  2  0  0  0  0
 14 15  1  0  0  0  0
 14 19  1  0  0  0  0
 15 16  2  0  0  0  0
 16 17  1  0  0  0  0
 17 18  1  0  0  0  0
 17 20  1  0  0  0  0
 18 19  2  0  0  0  0
 20 21  2  0  0  0  0
 20 24  1  0  0  0  0
 21 22  1  0  0  0  0
 22 23  1  0  0  0  0
 22 25  1  0  0  0  0
 23 24  2  0  0  0  0
 26 27  1  0  0  0  0
 27 28  1  0  0  0  0
 28 29  1  0  0  0  0
 29 30  1  0  0  0  0
  1 31  1  0  0  0  0
  2 32  1  0  0  0  0
  3 33  1  0  0  0  0
  4 34  1  0  0  0  0
 10 35  1  0  0  0  0
 15 36  1  0  0  0  0
 16 37  1  0  0  0  0
 17 38  1  0  0  0  0
 18 39  1  0  0  0  0
 19 40  1  0  0  0  0
 21 41  1  0  0  0  0
 24 42  1  0  0  0  0
 25 43  1  0  0  0  0
 25 44  1  0  0  0  0
 25 45  1  0  0  0  0
 26 46  1  0  0  0  0
 26 47  1  0  0  0  0
 27 48  1  0  0  0  0
 27 49  1  0  0  0  0
 28 50  1  0  0  0  0
 29 51  1  0  0  0  0
 29 52  1  0  0  0  0
 30 53  1  0  0  0  0
 30 54  1  0  0  0  0
M  END
> <Name>
40

> <IC50[uM]>
0.007

$$$$
40
  -OEChem-05192314333D
 Structure written by MMmdl.
 54 58  0     1  0  0  0  0  0999 V2000
   -6.3583   12.3628  -12.0152 C   0  0  0  0  0  0  0  0  0  0  0  0
   -6.5007   11.8020  -10.7383 C   0  0  0  0  0  0  0  0  0  0  0  0
   -7.7096   10.5772  -13.0382 C   0  0  0  0  0  0  0  0  0  0  0  0
   -6.9777   11.7759  -13.1307 C   0  0  0  0  0  0  0  0  0  0  0  0
   -7.8132   10.0130  -11.7619 C   0  0  0  0  0  0  0  0  0  0  0  0
   -7.2338   10.6200  -10.6051 C   0  0  3  0  0  0  0  0  0  0  0  0
   -7.6121    9.7513   -9.5135 C   0  0  0  0  0  0  0  0  0  0  0  0
   -8.2831    8.7414   -9.9888 N   0  0  0  0  0  0  0  0  0  0  0  0
   -8.4159    8.8683  -11.3018 N   0  0  0  0  0  0  0  0  0  0  0  0
   -7.3364    9.8882   -8.0249 C   0  0  0  0  0  0  0  0  0  0  0  0
   -4.3745   13.7307  -11.4480 N   0  0  0  0  0  0  0  0  0  0  0  0
   -5.5401   13.6479  -12.1823 C   0  0  0  0  0  0  0  0  0  0  0  0
   -5.9305   14.5456  -12.9289 O   0  0  0  0  0  0  0  0  0  0  0  0
   -5.9622   10.4857   -7.7364 C   0  0  0  0  0  0  0  0  0  0  0  0
   -4.8106    9.7658   -8.0516 C   0  0  0  0  0  0  0  0  0  0  0  0
   -3.5548   10.3163   -7.8015 C   0  0  0  0  0  0  0  0  0  0  0  0
   -3.4456   11.5910   -7.2371 C   0  0  0  0  0  0  0  0  0  0  0  0
   -4.5995   12.3069   -6.9174 C   0  0  0  0  0  0  0  0  0  0  0  0
   -5.8550   11.7570   -7.1647 C   0  0  0  0  0  0  0  0  0  0  0  0
   -2.1008   12.1810   -6.9758 C   0  0  0  0  0  0  0  0  0  0  0  0
   -1.7660   13.4388   -6.4773 C   0  0  0  0  0  0  0  0  0  0  0  0
   -0.4314   13.4905   -6.4174 N   0  0  0  0  0  0  0  0  0  0  0  0
    0.1713   12.4042   -6.8124 N   0  0  0  0  0  0  0  0  0  0  0  0
   -0.8030   11.5879   -7.1791 C   0  0  0  0  0  0  0  0  0  0  0  0
    0.3850   14.6084   -5.9658 C   0  0  0  0  0  0  0  0  0  0  0  0
   -3.6973   12.5089  -10.9175 C   0  0  0  0  0  0  0  0  0  0  0  0
   -2.2248   12.4637  -11.4426 C   0  0  0  0  0  0  0  0  0  0  0  0
   -1.4987   13.7622  -11.0653 N   0  0  0  0  0  0  0  0  0  0  0  0
   -2.2038   14.9363  -11.7527 C   0  0  0  0  0  0  0  0  0  0  0  0
   -3.6757   15.0331  -11.3164 C   0  0  0  0  0  0  0  0  0  0  0  0
   -6.0533   12.2736   -9.8759 H   0  0  0  0  0  0  0  0  0  0  0  0
   -8.1654   10.1188  -13.9034 H   0  0  0  0  0  0  0  0  0  0  0  0
   -6.8895   12.2606  -14.0918 H   0  0  0  0  0  0  0  0  0  0  0  0
   -6.3160   10.0327  -10.7556 H   0  0  0  0  0  0  0  0  0  0  0  0
   -8.0360    9.5949   -7.2562 H   0  0  0  0  0  0  0  0  0  0  0  0
   -4.8916    8.7819   -8.4894 H   0  0  0  0  0  0  0  0  0  0  0  0
   -2.6635    9.7568   -8.0443 H   0  0  0  0  0  0  0  0  0  0  0  0
   -3.4466   12.0370   -8.2426 H   0  0  0  0  0  0  0  0  0  0  0  0
   -4.5191   13.2898   -6.4771 H   0  0  0  0  0  0  0  0  0  0  0  0
   -6.7464   12.3131   -6.9146 H   0  0  0  0  0  0  0  0  0  0  0  0
   -2.4534   14.2220   -6.1936 H   0  0  0  0  0  0  0  0  0  0  0  0
   -0.6452   10.5982   -7.5816 H   0  0  0  0  0  0  0  0  0  0  0  0
    1.4489   14.3378   -6.0355 H   0  0  0  0  0  0  0  0  0  0  0  0
    0.1877   15.4858   -6.5992 H   0  0  0  0  0  0  0  0  0  0  0  0
    0.1350   14.8465   -4.9214 H   0  0  0  0  0  0  0  0  0  0  0  0
   -3.6944   12.5388   -9.8179 H   0  0  0  0  0  0  0  0  0  0  0  0
   -4.2365   11.6128  -11.2585 H   0  0  0  0  0  0  0  0  0  0  0  0
   -1.7018   11.6081  -10.9904 H   0  0  0  0  0  0  0  0  0  0  0  0
   -2.2305   12.3532  -12.5370 H   0  0  0  0  0  0  0  0  0  0  0  0
   -1.5260   13.8871  -10.0735 H   0  0  0  0  0  0  0  0  0  0  0  0
   -1.6882   15.8706  -11.4859 H   0  0  0  0  0  0  0  0  0  0  0  0
   -2.1612   14.7923  -12.8424 H   0  0  0  0  0  0  0  0  0  0  0  0
   -4.1860   15.7766  -11.9464 H   0  0  0  0  0  0  0  0  0  0  0  0
   -3.7154   15.3542  -10.2651 H   0  0  0  0  0  0  0  0  0  0  0  0
  1  2  2  0  0  0  0
  1  4  1  0  0  0  0
  1 12  1  0  0  0  0
  2  6  1  0  0  0  0
  3  4  2  0  0  0  0
  3  5  1  0  0  0  0
  5  6  1  0  0  0  0
  5  9  2  0  0  0  0
  6  7  1  0  0  0  0
  7  8  2  0  0  0  0
  7 10  1  0  0  0  0
  8  9  1  0  0  0  0
 10 14  2  0  0  0  0
 11 12  1  0  0  0  0
 11 26  1  0  0  0  0
 11 30  1  0  0  0  0
 12 13  2  0  0  0  0
 14 15  1  0  0  0  0
 14 19  1  0  0  0  0
 15 16  2  0  0  0  0
 16 17  1  0  0  0  0
 17 18  1  0  0  0  0
 17 20  1  0  0  0  0
 18 19  2  0  0  0  0
 20 21  2  0  0  0  0
 20 24  1  0  0  0  0
 21 22  1  0  0  0  0
 22 23  1  0  0  0  0
 22 25  1  0  0  0  0
 23 24  2  0  0  0  0
 26 27  1  0  0  0  0
 27 28  1  0  0  0  0
 28 29  1  0  0  0  0
 29 30  1  0  0  0  0
  2 31  1  0  0  0  0
  3 32  1  0  0  0  0
  4 33  1  0  0  0  0
  6 34  1  0  0  0  0
 10 35  1  0  0  0  0
 15 36  1  0  0  0  0
 16 37  1  0  0  0  0
 17 38  1  0  0  0  0
 18 39  1  0  0  0  0
 19 40  1  0  0  0  0
 21 41  1  0  0  0  0
 24 42  1  0  0  0  0
 25 43  1  0  0  0  0
 25 44  1  0  0  0  0
 25 45  1  0  0  0  0
 26 46  1  0  0  0  0
 26 47  1  0  0  0  0
 27 48  1  0  0  0  0
 27 49  1  0  0  0  0
 28 50  1  0  0  0  0
 29 51  1  0  0  0  0
 29 52  1  0  0  0  0
 30 53  1  0  0  0  0
 30 54  1  0  0  0  0
M  END
> <Name>
40

> <IC50[uM]>
0.007

$$$$
40
  -OEChem-05192314333D
 Structure written by MMmdl.
 54 58  0     0  0  0  0  0  0999 V2000
   -6.3583   12.3628  -12.0152 C   0  0  0  0  0  0  0  0  0  0  0  0
   -6.5007   11.8020  -10.7383 C   0  0  0  0  0  0  0  0  0  0  0  0
   -7.7096   10.5772  -13.0382 C   0  0  0  0  0  0  0  0  0  0  0  0
   -6.9777   11.7759  -13.1307 C   0  0  0  0  0  0  0  0  0  0  0  0
   -7.8132   10.0130  -11.7619 C   0  0  0  0  0  0  0  0  0  0  0  0
   -7.2338   10.6200  -10.6051 C   0  0  0  0  0  0  0  0  0  0  0  0
   -7.6121    9.7513   -9.5135 C   0  0  0  0  0  0  0  0  0  0  0  0
   -8.2831    8.7414   -9.9888 N   0  0  0  0  0  0  0  0  0  0  0  0
   -8.4159    8.8683  -11.3018 N   0  0  0  0  0  0  0  0  0  0  0  0
   -7.3364    9.8882   -8.0249 C   0  0  0  0  0  0  0  0  0  0  0  0
   -4.3745   13.7307  -11.4480 N   0  0  0  0  0  0  0  0  0  0  0  0
   -5.5401   13.6479  -12.1823 C   0  0  0  0  0  0  0  0  0  0  0  0
   -5.9305   14.5456  -12.9289 O   0  0  0  0  0  0  0  0  0  0  0  0
   -5.9622   10.4857   -7.7364 C   0  0  0  0  0  0  0  0  0  0  0  0
   -4.8106    9.7658   -8.0516 C   0  0  0  0  0  0  0  0  0  0  0  0
   -3.5548   10.3163   -7.8015 C   0  0  0  0  0  0  0  0  0  0  0  0
   -3.4456   11.5910   -7.2371 C   0  0  0  0  0  0  0  0  0  0  0  0
   -4.5995   12.3069   -6.9174 C   0  0  0  0  0  0  0  0  0  0  0  0
   -5.8550   11.7570   -7.1647 C   0  0  0  0  0  0  0  0  0  0  0  0
   -2.1008   12.1810   -6.9758 C   0  0  0  0  0  0  0  0  0  0  0  0
   -1.7660   13.4388   -6.4773 C   0  0  0  0  0  0  0  0  0  0  0  0
   -0.4314   13.4905   -6.4174 N   0  0  0  0  0  0  0  0  0  0  0  0
    0.1713   12.4042   -6.8124 N   0  0  0  0  0  0  0  0  0  0  0  0
   -0.8030   11.5879   -7.1791 C   0  0  0  0  0  0  0  0  0  0  0  0
    0.3850   14.6084   -5.9658 C   0  0  0  0  0  0  0  0  0  0  0  0
   -3.6973   12.5089  -10.9175 C   0  0  0  0  0  0  0  0  0  0  0  0
   -2.2248   12.4637  -11.4426 C   0  0  0  0  0  0  0  0  0  0  0  0
   -1.4987   13.7622  -11.0653 N   0  0  0  0  0  0  0  0  0  0  0  0
   -2.2038   14.9363  -11.7527 C   0  0  0  0  0  0  0  0  0  0  0  0
   -3.6757   15.0331  -11.3164 C   0  0  0  0  0  0  0  0  0  0  0  0
   -6.0533   12.2736   -9.8759 H   0  0  0  0  0  0  0  0  0  0  0  0
   -8.7288   10.7776  -13.4002 H   0  0  0  0  0  0  0  0  0  0  0  0
   -7.2265    9.8377  -13.6937 H   0  0  0  0  0  0  0  0  0  0  0  0
   -6.8895   12.2606  -14.0918 H   0  0  0  0  0  0  0  0  0  0  0  0
   -8.0360    9.5949   -7.2562 H   0  0  0  0  0  0  0  0  0  0  0  0
   -4.8916    8.7819   -8.4894 H   0  0  0  0  0  0  0  0  0  0  0  0
   -2.6635    9.7568   -8.0443 H   0  0  0  0  0  0  0  0  0  0  0  0
   -3.4466   12.0370   -8.2426 H   0  0  0  0  0  0  0  0  0  0  0  0
   -4.5191   13.2898   -6.4771 H   0  0  0  0  0  0  0  0  0  0  0  0
   -6.7464   12.3131   -6.9146 H   0  0  0  0  0  0  0  0  0  0  0  0
   -2.4534   14.2220   -6.1936 H   0  0  0  0  0  0  0  0  0  0  0  0
   -0.6452   10.5982   -7.5816 H   0  0  0  0  0  0  0  0  0  0  0  0
    1.4489   14.3378   -6.0355 H   0  0  0  0  0  0  0  0  0  0  0  0
    0.1877   15.4858   -6.5992 H   0  0  0  0  0  0  0  0  0  0  0  0
    0.1350   14.8465   -4.9214 H   0  0  0  0  0  0  0  0  0  0  0  0
   -3.6944   12.5388   -9.8179 H   0  0  0  0  0  0  0  0  0  0  0  0
   -4.2365   11.6128  -11.2585 H   0  0  0  0  0  0  0  0  0  0  0  0
   -1.7018   11.6081  -10.9904 H   0  0  0  0  0  0  0  0  0  0  0  0
   -2.2305   12.3532  -12.5370 H   0  0  0  0  0  0  0  0  0  0  0  0
   -1.5260   13.8871  -10.0735 H   0  0  0  0  0  0  0  0  0  0  0  0
   -1.6882   15.8706  -11.4859 H   0  0  0  0  0  0  0  0  0  0  0  0
   -2.1612   14.7923  -12.8424 H   0  0  0  0  0  0  0  0  0  0  0  0
   -4.1860   15.7766  -11.9464 H   0  0  0  0  0  0  0  0  0  0  0  0
   -3.7154   15.3542  -10.2651 H   0  0  0  0  0  0  0  0  0  0  0  0
  1  2  1  0  0  0  0
  1  4  2  0  0  0  0
  1 12  1  0  0  0  0
  2  6  2  0  0  0  0
  3  4  1  0  0  0  0
  3  5  1  0  0  0  0
  5  6  1  0  0  0  0
  5  9  2  0  0  0  0
  6  7  1  0  0  0  0
  7  8  2  0  0  0  0
  7 10  1  0  0  0  0
  8  9  1  0  0  0  0
 10 14  2  0  0  0  0
 11 12  1  0  0  0  0
 11 26  1  0  0  0  0
 11 30  1  0  0  0  0
 12 13  2  0  0  0  0
 14 15  1  0  0  0  0
 14 19  1  0  0  0  0
 15 16  2  0  0  0  0
 16 17  1  0  0  0  0
 17 18  1  0  0  0  0
 17 20  1  0  0  0  0
 18 19  2  0  0  0  0
 20 21  2  0  0  0  0
 20 24  1  0  0  0  0
 21 22  1  0  0  0  0
 22 23  1  0  0  0  0
 22 25  1  0  0  0  0
 23 24  2  0  0  0  0
 26 27  1  0  0  0  0
 27 28  1  0  0  0  0
 28 29  1  0  0  0  0
 29 30  1  0  0  0  0
  2 31  1  0  0  0  0
  3 32  1  0  0  0  0
  3 33  1  0  0  0  0
  4 34  1  0  0  0  0
 10 35  1  0  0  0  0
 15 36  1  0  0  0  0
 16 37  1  0  0  0  0
 17 38  1  0  0  0  0
 18 39  1  0  0  0  0
 19 40  1  0  0  0  0
 21 41  1  0  0  0  0
 24 42  1  0  0  0  0
 25 43  1  0  0  0  0
 25 44  1  0  0  0  0
 25 45  1  0  0  0  0
 26 46  1  0  0  0  0
 26 47  1  0  0  0  0
 27 48  1  0  0  0  0
 27 49  1  0  0  0  0
 28 50  1  0  0  0  0
 29 51  1  0  0  0  0
 29 52  1  0  0  0  0
 30 53  1  0  0  0  0
 30 54  1  0  0  0  0
M  END
> <Name>
40

> <IC50[uM]>
0.007

$$$$
40
  -OEChem-05192314333D
 Structure written by MMmdl.
 54 58  0     1  0  0  0  0  0999 V2000
   -6.3583   12.3628  -12.0152 C   0  0  3  0  0  0  0  0  0  0  0  0
   -6.5007   11.8020  -10.7383 C   0  0  0  0  0  0  0  0  0  0  0  0
   -7.7096   10.5772  -13.0382 C   0  0  0  0  0  0  0  0  0  0  0  0
   -6.9777   11.7759  -13.1307 C   0  0  0  0  0  0  0  0  0  0  0  0
   -7.8132   10.0130  -11.7619 C   0  0  0  0  0  0  0  0  0  0  0  0
   -7.2338   10.6200  -10.6051 C   0  0  0  0  0  0  0  0  0  0  0  0
   -7.6121    9.7513   -9.5135 C   0  0  0  0  0  0  0  0  0  0  0  0
   -8.2831    8.7414   -9.9888 N   0  0  0  0  0  0  0  0  0  0  0  0
   -8.4159    8.8683  -11.3018 N   0  0  0  0  0  0  0  0  0  0  0  0
   -7.3364    9.8882   -8.0249 C   0  0  0  0  0  0  0  0  0  0  0  0
   -4.3745   13.7307  -11.4480 N   0  0  0  0  0  0  0  0  0  0  0  0
   -5.5401   13.6479  -12.1823 C   0  0  0  0  0  0  0  0  0  0  0  0
   -5.9305   14.5456  -12.9289 O   0  0  0  0  0  0  0  0  0  0  0  0
   -5.9622   10.4857   -7.7364 C   0  0  0  0  0  0  0  0  0  0  0  0
   -4.8106    9.7658   -8.0516 C   0  0  0  0  0  0  0  0  0  0  0  0
   -3.5548   10.3163   -7.8015 C   0  0  0  0  0  0  0  0  0  0  0  0
   -3.4456   11.5910   -7.2371 C   0  0  0  0  0  0  0  0  0  0  0  0
   -4.5995   12.3069   -6.9174 C   0  0  0  0  0  0  0  0  0  0  0  0
   -5.8550   11.7570   -7.1647 C   0  0  0  0  0  0  0  0  0  0  0  0
   -2.1008   12.1810   -6.9758 C   0  0  0  0  0  0  0  0  0  0  0  0
   -1.7660   13.4388   -6.4773 C   0  0  0  0  0  0  0  0  0  0  0  0
   -0.4314   13.4905   -6.4174 N   0  0  0  0  0  0  0  0  0  0  0  0
    0.1713   12.4042   -6.8124 N   0  0  0  0  0  0  0  0  0  0  0  0
   -0.8030   11.5879   -7.1791 C   0  0  0  0  0  0  0  0  0  0  0  0
    0.3850   14.6084   -5.9658 C   0  0  0  0  0  0  0  0  0  0  0  0
   -3.6973   12.5089  -10.9175 C   0  0  0  0  0  0  0  0  0  0  0  0
   -2.2248   12.4637  -11.4426 C   0  0  0  0  0  0  0  0  0  0  0  0
   -1.4987   13.7622  -11.0653 N   0  0  0  0  0  0  0  0  0  0  0  0
   -2.2038   14.9363  -11.7527 C   0  0  0  0  0  0  0  0  0  0  0  0
   -3.6757   15.0331  -11.3164 C   0  0  0  0  0  0  0  0  0  0  0  0
   -5.4561   11.7578  -12.1885 H   0  0  0  0  0  0  0  0  0  0  0  0
   -6.0533   12.2736   -9.8759 H   0  0  0  0  0  0  0  0  0  0  0  0
   -8.1654   10.1188  -13.9034 H   0  0  0  0  0  0  0  0  0  0  0  0
   -6.8895   12.2606  -14.0918 H   0  0  0  0  0  0  0  0  0  0  0  0
   -8.0360    9.5949   -7.2562 H   0  0  0  0  0  0  0  0  0  0  0  0
   -4.8916    8.7819   -8.4894 H   0  0  0  0  0  0  0  0  0  0  0  0
   -2.6635    9.7568   -8.0443 H   0  0  0  0  0  0  0  0  0  0  0  0
   -4.5191   13.2898   -6.4771 H   0  0  0  0  0  0  0  0  0  0  0  0
   -6.3792   12.4524   -7.8368 H   0  0  0  0  0  0  0  0  0  0  0  0
   -6.3792   11.7156   -6.1985 H   0  0  0  0  0  0  0  0  0  0  0  0
   -2.4534   14.2220   -6.1936 H   0  0  0  0  0  0  0  0  0  0  0  0
   -0.6452   10.5982   -7.5816 H   0  0  0  0  0  0  0  0  0  0  0  0
    1.4489   14.3378   -6.0355 H   0  0  0  0  0  0  0  0  0  0  0  0
    0.1877   15.4858   -6.5992 H   0  0  0  0  0  0  0  0  0  0  0  0
    0.1350   14.8465   -4.9214 H   0  0  0  0  0  0  0  0  0  0  0  0
   -3.6944   12.5388   -9.8179 H   0  0  0  0  0  0  0  0  0  0  0  0
   -4.2365   11.6128  -11.2585 H   0  0  0  0  0  0  0  0  0  0  0  0
   -1.7018   11.6081  -10.9904 H   0  0  0  0  0  0  0  0  0  0  0  0
   -2.2305   12.3532  -12.5370 H   0  0  0  0  0  0  0  0  0  0  0  0
   -1.5260   13.8871  -10.0735 H   0  0  0  0  0  0  0  0  0  0  0  0
   -1.6882   15.8706  -11.4859 H   0  0  0  0  0  0  0  0  0  0  0  0
   -2.1612   14.7923  -12.8424 H   0  0  0  0  0  0  0  0  0  0  0  0
   -4.1860   15.7766  -11.9464 H   0  0  0  0  0  0  0  0  0  0  0  0
   -3.7154   15.3542  -10.2651 H   0  0  0  0  0  0  0  0  0  0  0  0
  1  2  1  0  0  0  0
  1  4  1  0  0  0  0
  1 12  1  0  0  0  0
  2  6  2  0  0  0  0
  3  4  2  0  0  0  0
  3  5  1  0  0  0  0
  5  6  1  0  0  0  0
  5  9  2  0  0  0  0
  6  7  1  0  0  0  0
  7  8  2  0  0  0  0
  7 10  1  0  0  0  0
  8  9  1  0  0  0  0
 10 14  2  3  0  0  0
 11 12  1  0  0  0  0
 11 26  1  0  0  0  0
 11 30  1  0  0  0  0
 12 13  2  0  0  0  0
 14 15  1  0  0  0  0
 14 19  1  0  0  0  0
 15 16  2  0  0  0  0
 16 17  1  0  0  0  0
 17 18  2  0  0  0  0
 17 20  1  0  0  0  0
 18 19  1  0  0  0  0
 20 21  2  0  0  0  0
 20 24  1  0  0  0  0
 21 22  1  0  0  0  0
 22 23  1  0  0  0  0
 22 25  1  0  0  0  0
 23 24  2  0  0  0  0
 26 27  1  0  0  0  0
 27 28  1  0  0  0  0
 28 29  1  0  0  0  0
 29 30  1  0  0  0  0
  1 31  1  0  0  0  0
  2 32  1  0  0  0  0
  3 33  1  0  0  0  0
  4 34  1  0  0  0  0
 10 35  1  0  0  0  0
 15 36  1  0  0  0  0
 16 37  1  0  0  0  0
 18 38  1  0  0  0  0
 19 39  1  0  0  0  0
 19 40  1  0  0  0  0
 21 41  1  0  0  0  0
 24 42  1  0  0  0  0
 25 43  1  0  0  0  0
 25 44  1  0  0  0  0
 25 45  1  0  0  0  0
 26 46  1  0  0  0  0
 26 47  1  0  0  0  0
 27 48  1  0  0  0  0
 27 49  1  0  0  0  0
 28 50  1  0  0  0  0
 29 51  1  0  0  0  0
 29 52  1  0  0  0  0
 30 53  1  0  0  0  0
 30 54  1  0  0  0  0
M  END
> <Name>
40

> <IC50[uM]>
0.007

$$$$
40
  -OEChem-05192314333D
 Structure written by MMmdl.
 54 58  0     1  0  0  0  0  0999 V2000
   -6.3583   12.3628  -12.0152 C   0  0  0  0  0  0  0  0  0  0  0  0
   -6.5007   11.8020  -10.7383 C   0  0  0  0  0  0  0  0  0  0  0  0
   -7.7096   10.5772  -13.0382 C   0  0  0  0  0  0  0  0  0  0  0  0
   -6.9777   11.7759  -13.1307 C   0  0  0  0  0  0  0  0  0  0  0  0
   -7.8132   10.0130  -11.7619 C   0  0  0  0  0  0  0  0  0  0  0  0
   -7.2338   10.6200  -10.6051 C   0  0  3  0  0  0  0  0  0  0  0  0
   -7.6121    9.7513   -9.5135 C   0  0  0  0  0  0  0  0  0  0  0  0
   -8.2831    8.7414   -9.9888 N   0  0  0  0  0  0  0  0  0  0  0  0
   -8.4159    8.8683  -11.3018 N   0  0  0  0  0  0  0  0  0  0  0  0
   -7.3364    9.8882   -8.0249 C   0  0  0  0  0  0  0  0  0  0  0  0
   -4.3745   13.7307  -11.4480 N   0  0  0  0  0  0  0  0  0  0  0  0
   -5.5401   13.6479  -12.1823 C   0  0  0  0  0  0  0  0  0  0  0  0
   -5.9305   14.5456  -12.9289 O   0  0  0  0  0  0  0  0  0  0  0  0
   -5.9622   10.4857   -7.7364 C   0  0  0  0  0  0  0  0  0  0  0  0
   -4.8106    9.7658   -8.0516 C   0  0  0  0  0  0  0  0  0  0  0  0
   -3.5548   10.3163   -7.8015 C   0  0  0  0  0  0  0  0  0  0  0  0
   -3.4456   11.5910   -7.2371 C   0  0  0  0  0  0  0  0  0  0  0  0
   -4.5995   12.3069   -6.9174 C   0  0  0  0  0  0  0  0  0  0  0  0
   -5.8550   11.7570   -7.1647 C   0  0  0  0  0  0  0  0  0  0  0  0
   -2.1008   12.1810   -6.9758 C   0  0  0  0  0  0  0  0  0  0  0  0
   -1.7660   13.4388   -6.4773 C   0  0  0  0  0  0  0  0  0  0  0  0
   -0.4314   13.4905   -6.4174 N   0  0  0  0  0  0  0  0  0  0  0  0
    0.1713   12.4042   -6.8124 N   0  0  0  0  0  0  0  0  0  0  0  0
   -0.8030   11.5879   -7.1791 C   0  0  0  0  0  0  0  0  0  0  0  0
    0.3850   14.6084   -5.9658 C   0  0  0  0  0  0  0  0  0  0  0  0
   -3.6973   12.5089  -10.9175 C   0  0  0  0  0  0  0  0  0  0  0  0
   -2.2248   12.4637  -11.4426 C   0  0  0  0  0  0  0  0  0  0  0  0
   -1.4987   13.7622  -11.0653 N   0  0  0  0  0  0  0  0  0  0  0  0
   -2.2038   14.9363  -11.7527 C   0  0  0  0  0  0  0  0  0  0  0  0
   -3.6757   15.0331  -11.3164 C   0  0  0  0  0  0  0  0  0  0  0  0
   -6.0533   12.2736   -9.8759 H   0  0  0  0  0  0  0  0  0  0  0  0
   -8.1654   10.1188  -13.9034 H   0  0  0  0  0  0  0  0  0  0  0  0
   -6.8895   12.2606  -14.0918 H   0  0  0  0  0  0  0  0  0  0  0  0
   -6.3160   10.0327  -10.7556 H   0  0  0  0  0  0  0  0  0  0  0  0
   -8.0360    9.5949   -7.2562 H   0  0  0  0  0  0  0  0  0  0  0  0
   -4.8916    8.7819   -8.4894 H   0  0  0  0  0  0  0  0  0  0  0  0
   -2.6635    9.7568   -8.0443 H   0  0  0  0  0  0  0  0  0  0  0  0
   -4.5191   13.2898   -6.4771 H   0  0  0  0  0  0  0  0  0  0  0  0
   -6.3792   12.4524   -7.8368 H   0  0  0  0  0  0  0  0  0  0  0  0
   -6.3792   11.7156   -6.1985 H   0  0  0  0  0  0  0  0  0  0  0  0
   -2.4534   14.2220   -6.1936 H   0  0  0  0  0  0  0  0  0  0  0  0
   -0.6452   10.5982   -7.5816 H   0  0  0  0  0  0  0  0  0  0  0  0
    1.4489   14.3378   -6.0355 H   0  0  0  0  0  0  0  0  0  0  0  0
    0.1877   15.4858   -6.5992 H   0  0  0  0  0  0  0  0  0  0  0  0
    0.1350   14.8465   -4.9214 H   0  0  0  0  0  0  0  0  0  0  0  0
   -3.6944   12.5388   -9.8179 H   0  0  0  0  0  0  0  0  0  0  0  0
   -4.2365   11.6128  -11.2585 H   0  0  0  0  0  0  0  0  0  0  0  0
   -1.7018   11.6081  -10.9904 H   0  0  0  0  0  0  0  0  0  0  0  0
   -2.2305   12.3532  -12.5370 H   0  0  0  0  0  0  0  0  0  0  0  0
   -1.5260   13.8871  -10.0735 H   0  0  0  0  0  0  0  0  0  0  0  0
   -1.6882   15.8706  -11.4859 H   0  0  0  0  0  0  0  0  0  0  0  0
   -2.1612   14.7923  -12.8424 H   0  0  0  0  0  0  0  0  0  0  0  0
   -4.1860   15.7766  -11.9464 H   0  0  0  0  0  0  0  0  0  0  0  0
   -3.7154   15.3542  -10.2651 H   0  0  0  0  0  0  0  0  0  0  0  0
  1  2  2  0  0  0  0
  1  4  1  0  0  0  0
  1 12  1  0  0  0  0
  2  6  1  0  0  0  0
  3  4  2  0  0  0  0
  3  5  1  0  0  0  0
  5  6  1  0  0  0  0
  5  9  2  0  0  0  0
  6  7  1  0  0  0  0
  7  8  2  0  0  0  0
  7 10  1  0  0  0  0
  8  9  1  0  0  0  0
 10 14  2  3  0  0  0
 11 12  1  0  0  0  0
 11 26  1  0  0  0  0
 11 30  1  0  0  0  0
 12 13  2  0  0  0  0
 14 15  1  0  0  0  0
 14 19  1  0  0  0  0
 15 16  2  0  0  0  0
 16 17  1  0  0  0  0
 17 18  2  0  0  0  0
 17 20  1  0  0  0  0
 18 19  1  0  0  0  0
 20 21  2  0  0  0  0
 20 24  1  0  0  0  0
 21 22  1  0  0  0  0
 22 23  1  0  0  0  0
 22 25  1  0  0  0  0
 23 24  2  0  0  0  0
 26 27  1  0  0  0  0
 27 28  1  0  0  0  0
 28 29  1  0  0  0  0
 29 30  1  0  0  0  0
  2 31  1  0  0  0  0
  3 32  1  0  0  0  0
  4 33  1  0  0  0  0
  6 34  1  0  0  0  0
 10 35  1  0  0  0  0
 15 36  1  0  0  0  0
 16 37  1  0  0  0  0
 18 38  1  0  0  0  0
 19 39  1  0  0  0  0
 19 40  1  0  0  0  0
 21 41  1  0  0  0  0
 24 42  1  0  0  0  0
 25 43  1  0  0  0  0
 25 44  1  0  0  0  0
 25 45  1  0  0  0  0
 26 46  1  0  0  0  0
 26 47  1  0  0  0  0
 27 48  1  0  0  0  0
 27 49  1  0  0  0  0
 28 50  1  0  0  0  0
 29 51  1  0  0  0  0
 29 52  1  0  0  0  0
 30 53  1  0  0  0  0
 30 54  1  0  0  0  0
M  END
> <Name>
40

> <IC50[uM]>
0.007

$$$$
40
  -OEChem-05192314333D
 Structure written by MMmdl.
 54 58  0     0  0  0  0  0  0999 V2000
   -6.3583   12.3628  -12.0152 C   0  0  0  0  0  0  0  0  0  0  0  0
   -6.5007   11.8020  -10.7383 C   0  0  0  0  0  0  0  0  0  0  0  0
   -7.7096   10.5772  -13.0382 C   0  0  0  0  0  0  0  0  0  0  0  0
   -6.9777   11.7759  -13.1307 C   0  0  0  0  0  0  0  0  0  0  0  0
   -7.8132   10.0130  -11.7619 C   0  0  0  0  0  0  0  0  0  0  0  0
   -7.2338   10.6200  -10.6051 C   0  0  0  0  0  0  0  0  0  0  0  0
   -7.6121    9.7513   -9.5135 C   0  0  0  0  0  0  0  0  0  0  0  0
   -8.2831    8.7414   -9.9888 N   0  0  0  0  0  0  0  0  0  0  0  0
   -8.4159    8.8683  -11.3018 N   0  0  0  0  0  0  0  0  0  0  0  0
   -7.3364    9.8882   -8.0249 C   0  0  0  0  0  0  0  0  0  0  0  0
   -4.3745   13.7307  -11.4480 N   0  0  0  0  0  0  0  0  0  0  0  0
   -5.5401   13.6479  -12.1823 C   0  0  0  0  0  0  0  0  0  0  0  0
   -5.9305   14.5456  -12.9289 O   0  0  0  0  0  0  0  0  0  0  0  0
   -5.9622   10.4857   -7.7364 C   0  0  0  0  0  0  0  0  0  0  0  0
   -4.8106    9.7658   -8.0516 C   0  0  0  0  0  0  0  0  0  0  0  0
   -3.5548   10.3163   -7.8015 C   0  0  0  0  0  0  0  0  0  0  0  0
   -3.4456   11.5910   -7.2371 C   0  0  0  0  0  0  0  0  0  0  0  0
   -4.5995   12.3069   -6.9174 C   0  0  0  0  0  0  0  0  0  0  0  0
   -5.8550   11.7570   -7.1647 C   0  0  0  0  0  0  0  0  0  0  0  0
   -2.1008   12.1810   -6.9758 C   0  0  0  0  0  0  0  0  0  0  0  0
   -1.7660   13.4388   -6.4773 C   0  0  0  0  0  0  0  0  0  0  0  0
   -0.4314   13.4905   -6.4174 N   0  0  0  0  0  0  0  0  0  0  0  0
    0.1713   12.4042   -6.8124 N   0  0  0  0  0  0  0  0  0  0  0  0
   -0.8030   11.5879   -7.1791 C   0  0  0  0  0  0  0  0  0  0  0  0
    0.3850   14.6084   -5.9658 C   0  0  0  0  0  0  0  0  0  0  0  0
   -3.6973   12.5089  -10.9175 C   0  0  0  0  0  0  0  0  0  0  0  0
   -2.2248   12.4637  -11.4426 C   0  0  0  0  0  0  0  0  0  0  0  0
   -1.4987   13.7622  -11.0653 N   0  0  0  0  0  0  0  0  0  0  0  0
   -2.2038   14.9363  -11.7527 C   0  0  0  0  0  0  0  0  0  0  0  0
   -3.6757   15.0331  -11.3164 C   0  0  0  0  0  0  0  0  0  0  0  0
   -6.0533   12.2736   -9.8759 H   0  0  0  0  0  0  0  0  0  0  0  0
   -8.7288   10.7776  -13.4002 H   0  0  0  0  0  0  0  0  0  0  0  0
   -7.2265    9.8377  -13.6937 H   0  0  0  0  0  0  0  0  0  0  0  0
   -6.8895   12.2606  -14.0918 H   0  0  0  0  0  0  0  0  0  0  0  0
   -8.0360    9.5949   -7.2562 H   0  0  0  0  0  0  0  0  0  0  0  0
   -4.8916    8.7819   -8.4894 H   0  0  0  0  0  0  0  0  0  0  0  0
   -2.6635    9.7568   -8.0443 H   0  0  0  0  0  0  0  0  0  0  0  0
   -4.5191   13.2898   -6.4771 H   0  0  0  0  0  0  0  0  0  0  0  0
   -6.3792   12.4524   -7.8368 H   0  0  0  0  0  0  0  0  0  0  0  0
   -6.3792   11.7156   -6.1985 H   0  0  0  0  0  0  0  0  0  0  0  0
   -2.4534   14.2220   -6.1936 H   0  0  0  0  0  0  0  0  0  0  0  0
   -0.6452   10.5982   -7.5816 H   0  0  0  0  0  0  0  0  0  0  0  0
    1.4489   14.3378   -6.0355 H   0  0  0  0  0  0  0  0  0  0  0  0
    0.1877   15.4858   -6.5992 H   0  0  0  0  0  0  0  0  0  0  0  0
    0.1350   14.8465   -4.9214 H   0  0  0  0  0  0  0  0  0  0  0  0
   -3.6944   12.5388   -9.8179 H   0  0  0  0  0  0  0  0  0  0  0  0
   -4.2365   11.6128  -11.2585 H   0  0  0  0  0  0  0  0  0  0  0  0
   -1.7018   11.6081  -10.9904 H   0  0  0  0  0  0  0  0  0  0  0  0
   -2.2305   12.3532  -12.5370 H   0  0  0  0  0  0  0  0  0  0  0  0
   -1.5260   13.8871  -10.0735 H   0  0  0  0  0  0  0  0  0  0  0  0
   -1.6882   15.8706  -11.4859 H   0  0  0  0  0  0  0  0  0  0  0  0
   -2.1612   14.7923  -12.8424 H   0  0  0  0  0  0  0  0  0  0  0  0
   -4.1860   15.7766  -11.9464 H   0  0  0  0  0  0  0  0  0  0  0  0
   -3.7154   15.3542  -10.2651 H   0  0  0  0  0  0  0  0  0  0  0  0
  1  2  1  0  0  0  0
  1  4  2  0  0  0  0
  1 12  1  0  0  0  0
  2  6  2  0  0  0  0
  3  4  1  0  0  0  0
  3  5  1  0  0  0  0
  5  6  1  0  0  0  0
  5  9  2  0  0  0  0
  6  7  1  0  0  0  0
  7  8  2  0  0  0  0
  7 10  1  0  0  0  0
  8  9  1  0  0  0  0
 10 14  2  3  0  0  0
 11 12  1  0  0  0  0
 11 26  1  0  0  0  0
 11 30  1  0  0  0  0
 12 13  2  0  0  0  0
 14 15  1  0  0  0  0
 14 19  1  0  0  0  0
 15 16  2  0  0  0  0
 16 17  1  0  0  0  0
 17 18  2  0  0  0  0
 17 20  1  0  0  0  0
 18 19  1  0  0  0  0
 20 21  2  0  0  0  0
 20 24  1  0  0  0  0
 21 22  1  0  0  0  0
 22 23  1  0  0  0  0
 22 25  1  0  0  0  0
 23 24  2  0  0  0  0
 26 27  1  0  0  0  0
 27 28  1  0  0  0  0
 28 29  1  0  0  0  0
 29 30  1  0  0  0  0
  2 31  1  0  0  0  0
  3 32  1  0  0  0  0
  3 33  1  0  0  0  0
  4 34  1  0  0  0  0
 10 35  1  0  0  0  0
 15 36  1  0  0  0  0
 16 37  1  0  0  0  0
 18 38  1  0  0  0  0
 19 39  1  0  0  0  0
 19 40  1  0  0  0  0
 21 41  1  0  0  0  0
 24 42  1  0  0  0  0
 25 43  1  0  0  0  0
 25 44  1  0  0  0  0
 25 45  1  0  0  0  0
 26 46  1  0  0  0  0
 26 47  1  0  0  0  0
 27 48  1  0  0  0  0
 27 49  1  0  0  0  0
 28 50  1  0  0  0  0
 29 51  1  0  0  0  0
 29 52  1  0  0  0  0
 30 53  1  0  0  0  0
 30 54  1  0  0  0  0
M  END
> <Name>
40

> <IC50[uM]>
0.007

$$$$
40
  -OEChem-05192314333D
 Structure written by MMmdl.
 54 58  0     1  0  0  0  0  0999 V2000
   -6.3583   12.3628  -12.0152 C   0  0  0  0  0  0  0  0  0  0  0  0
   -6.5007   11.8020  -10.7383 C   0  0  0  0  0  0  0  0  0  0  0  0
   -7.7096   10.5772  -13.0382 C   0  0  0  0  0  0  0  0  0  0  0  0
   -6.9777   11.7759  -13.1307 C   0  0  0  0  0  0  0  0  0  0  0  0
   -7.8132   10.0130  -11.7619 C   0  0  3  0  0  0  0  0  0  0  0  0
   -7.2338   10.6200  -10.6051 C   0  0  0  0  0  0  0  0  0  0  0  0
   -7.6121    9.7513   -9.5135 C   0  0  0  0  0  0  0  0  0  0  0  0
   -8.2831    8.7414   -9.9888 N   0  0  0  0  0  0  0  0  0  0  0  0
   -8.4159    8.8683  -11.3018 N   0  0  0  0  0  0  0  0  0  0  0  0
   -7.3364    9.8882   -8.0249 C   0  0  0  0  0  0  0  0  0  0  0  0
   -4.3745   13.7307  -11.4480 N   0  0  0  0  0  0  0  0  0  0  0  0
   -5.5401   13.6479  -12.1823 C   0  0  0  0  0  0  0  0  0  0  0  0
   -5.9305   14.5456  -12.9289 O   0  0  0  0  0  0  0  0  0  0  0  0
   -5.9622   10.4857   -7.7364 C   0  0  0  0  0  0  0  0  0  0  0  0
   -4.8106    9.7658   -8.0516 C   0  0  0  0  0  0  0  0  0  0  0  0
   -3.5548   10.3163   -7.8015 C   0  0  0  0  0  0  0  0  0  0  0  0
   -3.4456   11.5910   -7.2371 C   0  0  0  0  0  0  0  0  0  0  0  0
   -4.5995   12.3069   -6.9174 C   0  0  0  0  0  0  0  0  0  0  0  0
   -5.8550   11.7570   -7.1647 C   0  0  0  0  0  0  0  0  0  0  0  0
   -2.1008   12.1810   -6.9758 C   0  0  0  0  0  0  0  0  0  0  0  0
   -1.7660   13.4388   -6.4773 C   0  0  0  0  0  0  0  0  0  0  0  0
   -0.4314   13.4905   -6.4174 N   0  0  0  0  0  0  0  0  0  0  0  0
    0.1713   12.4042   -6.8124 N   0  0  0  0  0  0  0  0  0  0  0  0
   -0.8030   11.5879   -7.1791 C   0  0  0  0  0  0  0  0  0  0  0  0
    0.3850   14.6084   -5.9658 C   0  0  0  0  0  0  0  0  0  0  0  0
   -3.6973   12.5089  -10.9175 C   0  0  0  0  0  0  0  0  0  0  0  0
   -2.2248   12.4637  -11.4426 C   0  0  0  0  0  0  0  0  0  0  0  0
   -1.4987   13.7622  -11.0653 N   0  0  0  0  0  0  0  0  0  0  0  0
   -2.2038   14.9363  -11.7527 C   0  0  0  0  0  0  0  0  0  0  0  0
   -3.6757   15.0331  -11.3164 C   0  0  0  0  0  0  0  0  0  0  0  0
   -6.0533   12.2736   -9.8759 H   0  0  0  0  0  0  0  0  0  0  0  0
   -8.1654   10.1188  -13.9034 H   0  0  0  0  0  0  0  0  0  0  0  0
   -6.8895   12.2606  -14.0918 H   0  0  0  0  0  0  0  0  0  0  0  0
   -8.7443   10.5728  -11.5897 H   0  0  0  0  0  0  0  0  0  0  0  0
   -8.0360    9.5949   -7.2562 H   0  0  0  0  0  0  0  0  0  0  0  0
   -4.8916    8.7819   -8.4894 H   0  0  0  0  0  0  0  0  0  0  0  0
   -2.6635    9.7568   -8.0443 H   0  0  0  0  0  0  0  0  0  0  0  0
   -3.4466   12.0370   -8.2426 H   0  0  0  0  0  0  0  0  0  0  0  0
   -4.5191   13.2898   -6.4771 H   0  0  0  0  0  0  0  0  0  0  0  0
   -6.7464   12.3131   -6.9146 H   0  0  0  0  0  0  0  0  0  0  0  0
   -2.4534   14.2220   -6.1936 H   0  0  0  0  0  0  0  0  0  0  0  0
   -0.6452   10.5982   -7.5816 H   0  0  0  0  0  0  0  0  0  0  0  0
    1.4489   14.3378   -6.0355 H   0  0  0  0  0  0  0  0  0  0  0  0
    0.1877   15.4858   -6.5992 H   0  0  0  0  0  0  0  0  0  0  0  0
    0.1350   14.8465   -4.9214 H   0  0  0  0  0  0  0  0  0  0  0  0
   -3.6944   12.5388   -9.8179 H   0  0  0  0  0  0  0  0  0  0  0  0
   -4.2365   11.6128  -11.2585 H   0  0  0  0  0  0  0  0  0  0  0  0
   -1.7018   11.6081  -10.9904 H   0  0  0  0  0  0  0  0  0  0  0  0
   -2.2305   12.3532  -12.5370 H   0  0  0  0  0  0  0  0  0  0  0  0
   -1.5260   13.8871  -10.0735 H   0  0  0  0  0  0  0  0  0  0  0  0
   -1.6882   15.8706  -11.4859 H   0  0  0  0  0  0  0  0  0  0  0  0
   -2.1612   14.7923  -12.8424 H   0  0  0  0  0  0  0  0  0  0  0  0
   -4.1860   15.7766  -11.9464 H   0  0  0  0  0  0  0  0  0  0  0  0
   -3.7154   15.3542  -10.2651 H   0  0  0  0  0  0  0  0  0  0  0  0
  1  2  2  0  0  0  0
  1  4  1  0  0  0  0
  1 12  1  0  0  0  0
  2  6  1  0  0  0  0
  3  4  2  0  0  0  0
  3  5  1  0  0  0  0
  5  6  1  0  0  0  0
  5  9  1  0  0  0  0
  6  7  2  0  0  0  0
  7  8  1  0  0  0  0
  7 10  1  0  0  0  0
  8  9  2  0  0  0  0
 10 14  2  0  0  0  0
 11 12  1  0  0  0  0
 11 26  1  0  0  0  0
 11 30  1  0  0  0  0
 12 13  2  0  0  0  0
 14 15  1  0  0  0  0
 14 19  1  0  0  0  0
 15 16  2  0  0  0  0
 16 17  1  0  0  0  0
 17 18  1  0  0  0  0
 17 20  1  0  0  0  0
 18 19  2  0  0  0  0
 20 21  2  0  0  0  0
 20 24  1  0  0  0  0
 21 22  1  0  0  0  0
 22 23  1  0  0  0  0
 22 25  1  0  0  0  0
 23 24  2  0  0  0  0
 26 27  1  0  0  0  0
 27 28  1  0  0  0  0
 28 29  1  0  0  0  0
 29 30  1  0  0  0  0
  2 31  1  0  0  0  0
  3 32  1  0  0  0  0
  4 33  1  0  0  0  0
  5 34  1  0  0  0  0
 10 35  1  0  0  0  0
 15 36  1  0  0  0  0
 16 37  1  0  0  0  0
 17 38  1  0  0  0  0
 18 39  1  0  0  0  0
 19 40  1  0  0  0  0
 21 41  1  0  0  0  0
 24 42  1  0  0  0  0
 25 43  1  0  0  0  0
 25 44  1  0  0  0  0
 25 45  1  0  0  0  0
 26 46  1  0  0  0  0
 26 47  1  0  0  0  0
 27 48  1  0  0  0  0
 27 49  1  0  0  0  0
 28 50  1  0  0  0  0
 29 51  1  0  0  0  0
 29 52  1  0  0  0  0
 30 53  1  0  0  0  0
 30 54  1  0  0  0  0
M  END
> <Name>
40

> <IC50[uM]>
0.007

$$$$
40
  -OEChem-05192314333D
 Structure written by MMmdl.
 54 58  0     0  0  0  0  0  0999 V2000
   -6.3583   12.3628  -12.0152 C   0  0  0  0  0  0  0  0  0  0  0  0
   -6.5007   11.8020  -10.7383 C   0  0  0  0  0  0  0  0  0  0  0  0
   -7.7096   10.5772  -13.0382 C   0  0  0  0  0  0  0  0  0  0  0  0
   -6.9777   11.7759  -13.1307 C   0  0  0  0  0  0  0  0  0  0  0  0
   -7.8132   10.0130  -11.7619 C   0  0  0  0  0  0  0  0  0  0  0  0
   -7.2338   10.6200  -10.6051 C   0  0  0  0  0  0  0  0  0  0  0  0
   -7.6121    9.7513   -9.5135 C   0  0  0  0  0  0  0  0  0  0  0  0
   -8.2831    8.7414   -9.9888 N   0  0  0  0  0  0  0  0  0  0  0  0
   -8.4159    8.8683  -11.3018 N   0  0  0  0  0  0  0  0  0  0  0  0
   -7.3364    9.8882   -8.0249 C   0  0  0  0  0  0  0  0  0  0  0  0
   -4.3745   13.7307  -11.4480 N   0  0  0  0  0  0  0  0  0  0  0  0
   -5.5401   13.6479  -12.1823 C   0  0  0  0  0  0  0  0  0  0  0  0
   -5.9305   14.5456  -12.9289 O   0  0  0  0  0  0  0  0  0  0  0  0
   -5.9622   10.4857   -7.7364 C   0  0  0  0  0  0  0  0  0  0  0  0
   -4.8106    9.7658   -8.0516 C   0  0  0  0  0  0  0  0  0  0  0  0
   -3.5548   10.3163   -7.8015 C   0  0  0  0  0  0  0  0  0  0  0  0
   -3.4456   11.5910   -7.2371 C   0  0  0  0  0  0  0  0  0  0  0  0
   -4.5995   12.3069   -6.9174 C   0  0  0  0  0  0  0  0  0  0  0  0
   -5.8550   11.7570   -7.1647 C   0  0  0  0  0  0  0  0  0  0  0  0
   -2.1008   12.1810   -6.9758 C   0  0  0  0  0  0  0  0  0  0  0  0
   -1.7660   13.4388   -6.4773 C   0  0  0  0  0  0  0  0  0  0  0  0
   -0.4314   13.4905   -6.4174 N   0  0  0  0  0  0  0  0  0  0  0  0
    0.1713   12.4042   -6.8124 N   0  0  0  0  0  0  0  0  0  0  0  0
   -0.8030   11.5879   -7.1791 C   0  0  0  0  0  0  0  0  0  0  0  0
    0.3850   14.6084   -5.9658 C   0  0  0  0  0  0  0  0  0  0  0  0
   -3.6973   12.5089  -10.9175 C   0  0  0  0  0  0  0  0  0  0  0  0
   -2.2248   12.4637  -11.4426 C   0  0  0  0  0  0  0  0  0  0  0  0
   -1.4987   13.7622  -11.0653 N   0  0  0  0  0  0  0  0  0  0  0  0
   -2.2038   14.9363  -11.7527 C   0  0  0  0  0  0  0  0  0  0  0  0
   -3.6757   15.0331  -11.3164 C   0  0  0  0  0  0  0  0  0  0  0  0
   -6.0533   12.2736   -9.8759 H   0  0  0  0  0  0  0  0  0  0  0  0
   -8.1654   10.1188  -13.9034 H   0  0  0  0  0  0  0  0  0  0  0  0
   -7.6730   12.5301  -13.5278 H   0  0  0  0  0  0  0  0  0  0  0  0
   -6.1786   11.5918  -13.8639 H   0  0  0  0  0  0  0  0  0  0  0  0
   -8.0360    9.5949   -7.2562 H   0  0  0  0  0  0  0  0  0  0  0  0
   -4.8916    8.7819   -8.4894 H   0  0  0  0  0  0  0  0  0  0  0  0
   -2.6635    9.7568   -8.0443 H   0  0  0  0  0  0  0  0  0  0  0  0
   -3.4466   12.0370   -8.2426 H   0  0  0  0  0  0  0  0  0  0  0  0
   -4.5191   13.2898   -6.4771 H   0  0  0  0  0  0  0  0  0  0  0  0
   -6.7464   12.3131   -6.9146 H   0  0  0  0  0  0  0  0  0  0  0  0
   -2.4534   14.2220   -6.1936 H   0  0  0  0  0  0  0  0  0  0  0  0
   -0.6452   10.5982   -7.5816 H   0  0  0  0  0  0  0  0  0  0  0  0
    1.4489   14.3378   -6.0355 H   0  0  0  0  0  0  0  0  0  0  0  0
    0.1877   15.4858   -6.5992 H   0  0  0  0  0  0  0  0  0  0  0  0
    0.1350   14.8465   -4.9214 H   0  0  0  0  0  0  0  0  0  0  0  0
   -3.6944   12.5388   -9.8179 H   0  0  0  0  0  0  0  0  0  0  0  0
   -4.2365   11.6128  -11.2585 H   0  0  0  0  0  0  0  0  0  0  0  0
   -1.7018   11.6081  -10.9904 H   0  0  0  0  0  0  0  0  0  0  0  0
   -2.2305   12.3532  -12.5370 H   0  0  0  0  0  0  0  0  0  0  0  0
   -1.5260   13.8871  -10.0735 H   0  0  0  0  0  0  0  0  0  0  0  0
   -1.6882   15.8706  -11.4859 H   0  0  0  0  0  0  0  0  0  0  0  0
   -2.1612   14.7923  -12.8424 H   0  0  0  0  0  0  0  0  0  0  0  0
   -4.1860   15.7766  -11.9464 H   0  0  0  0  0  0  0  0  0  0  0  0
   -3.7154   15.3542  -10.2651 H   0  0  0  0  0  0  0  0  0  0  0  0
  1  2  2  0  0  0  0
  1  4  1  0  0  0  0
  1 12  1  0  0  0  0
  2  6  1  0  0  0  0
  3  4  1  0  0  0  0
  3  5  2  0  0  0  0
  5  6  1  0  0  0  0
  5  9  1  0  0  0  0
  6  7  2  0  0  0  0
  7  8  1  0  0  0  0
  7 10  1  0  0  0  0
  8  9  2  0  0  0  0
 10 14  2  0  0  0  0
 11 12  1  0  0  0  0
 11 26  1  0  0  0  0
 11 30  1  0  0  0  0
 12 13  2  0  0  0  0
 14 15  1  0  0  0  0
 14 19  1  0  0  0  0
 15 16  2  0  0  0  0
 16 17  1  0  0  0  0
 17 18  1  0  0  0  0
 17 20  1  0  0  0  0
 18 19  2  0  0  0  0
 20 21  2  0  0  0  0
 20 24  1  0  0  0  0
 21 22  1  0  0  0  0
 22 23  1  0  0  0  0
 22 25  1  0  0  0  0
 23 24  2  0  0  0  0
 26 27  1  0  0  0  0
 27 28  1  0  0  0  0
 28 29  1  0  0  0  0
 29 30  1  0  0  0  0
  2 31  1  0  0  0  0
  3 32  1  0  0  0  0
  4 33  1  0  0  0  0
  4 34  1  0  0  0  0
 10 35  1  0  0  0  0
 15 36  1  0  0  0  0
 16 37  1  0  0  0  0
 17 38  1  0  0  0  0
 18 39  1  0  0  0  0
 19 40  1  0  0  0  0
 21 41  1  0  0  0  0
 24 42  1  0  0  0  0
 25 43  1  0  0  0  0
 25 44  1  0  0  0  0
 25 45  1  0  0  0  0
 26 46  1  0  0  0  0
 26 47  1  0  0  0  0
 27 48  1  0  0  0  0
 27 49  1  0  0  0  0
 28 50  1  0  0  0  0
 29 51  1  0  0  0  0
 29 52  1  0  0  0  0
 30 53  1  0  0  0  0
 30 54  1  0  0  0  0
M  END
> <Name>
40

> <IC50[uM]>
0.007

$$$$
40
  -OEChem-05192314333D
 Structure written by MMmdl.
 54 58  0     1  0  0  0  0  0999 V2000
   -6.3583   12.3628  -12.0152 C   0  0  0  0  0  0  0  0  0  0  0  0
   -6.5007   11.8020  -10.7383 C   0  0  0  0  0  0  0  0  0  0  0  0
   -7.7096   10.5772  -13.0382 C   0  0  0  0  0  0  0  0  0  0  0  0
   -6.9777   11.7759  -13.1307 C   0  0  0  0  0  0  0  0  0  0  0  0
   -7.8132   10.0130  -11.7619 C   0  0  3  0  0  0  0  0  0  0  0  0
   -7.2338   10.6200  -10.6051 C   0  0  0  0  0  0  0  0  0  0  0  0
   -7.6121    9.7513   -9.5135 C   0  0  0  0  0  0  0  0  0  0  0  0
   -8.2831    8.7414   -9.9888 N   0  0  0  0  0  0  0  0  0  0  0  0
   -8.4159    8.8683  -11.3018 N   0  0  0  0  0  0  0  0  0  0  0  0
   -7.3364    9.8882   -8.0249 C   0  0  0  0  0  0  0  0  0  0  0  0
   -4.3745   13.7307  -11.4480 N   0  0  0  0  0  0  0  0  0  0  0  0
   -5.5401   13.6479  -12.1823 C   0  0  0  0  0  0  0  0  0  0  0  0
   -5.9305   14.5456  -12.9289 O   0  0  0  0  0  0  0  0  0  0  0  0
   -5.9622   10.4857   -7.7364 C   0  0  0  0  0  0  0  0  0  0  0  0
   -4.8106    9.7658   -8.0516 C   0  0  0  0  0  0  0  0  0  0  0  0
   -3.5548   10.3163   -7.8015 C   0  0  0  0  0  0  0  0  0  0  0  0
   -3.4456   11.5910   -7.2371 C   0  0  0  0  0  0  0  0  0  0  0  0
   -4.5995   12.3069   -6.9174 C   0  0  0  0  0  0  0  0  0  0  0  0
   -5.8550   11.7570   -7.1647 C   0  0  0  0  0  0  0  0  0  0  0  0
   -2.1008   12.1810   -6.9758 C   0  0  0  0  0  0  0  0  0  0  0  0
   -1.7660   13.4388   -6.4773 C   0  0  0  0  0  0  0  0  0  0  0  0
   -0.4314   13.4905   -6.4174 N   0  0  0  0  0  0  0  0  0  0  0  0
    0.1713   12.4042   -6.8124 N   0  0  0  0  0  0  0  0  0  0  0  0
   -0.8030   11.5879   -7.1791 C   0  0  0  0  0  0  0  0  0  0  0  0
    0.3850   14.6084   -5.9658 C   0  0  0  0  0  0  0  0  0  0  0  0
   -3.6973   12.5089  -10.9175 C   0  0  0  0  0  0  0  0  0  0  0  0
   -2.2248   12.4637  -11.4426 C   0  0  0  0  0  0  0  0  0  0  0  0
   -1.4987   13.7622  -11.0653 N   0  0  0  0  0  0  0  0  0  0  0  0
   -2.2038   14.9363  -11.7527 C   0  0  0  0  0  0  0  0  0  0  0  0
   -3.6757   15.0331  -11.3164 C   0  0  0  0  0  0  0  0  0  0  0  0
   -6.0533   12.2736   -9.8759 H   0  0  0  0  0  0  0  0  0  0  0  0
   -8.1654   10.1188  -13.9034 H   0  0  0  0  0  0  0  0  0  0  0  0
   -6.8895   12.2606  -14.0918 H   0  0  0  0  0  0  0  0  0  0  0  0
   -8.7443   10.5728  -11.5897 H   0  0  0  0  0  0  0  0  0  0  0  0
   -8.0360    9.5949   -7.2562 H   0  0  0  0  0  0  0  0  0  0  0  0
   -4.8916    8.7819   -8.4894 H   0  0  0  0  0  0  0  0  0  0  0  0
   -2.6635    9.7568   -8.0443 H   0  0  0  0  0  0  0  0  0  0  0  0
   -4.5191   13.2898   -6.4771 H   0  0  0  0  0  0  0  0  0  0  0  0
   -6.3792   12.4524   -7.8368 H   0  0  0  0  0  0  0  0  0  0  0  0
   -6.3792   11.7156   -6.1985 H   0  0  0  0  0  0  0  0  0  0  0  0
   -2.4534   14.2220   -6.1936 H   0  0  0  0  0  0  0  0  0  0  0  0
   -0.6452   10.5982   -7.5816 H   0  0  0  0  0  0  0  0  0  0  0  0
    1.4489   14.3378   -6.0355 H   0  0  0  0  0  0  0  0  0  0  0  0
    0.1877   15.4858   -6.5992 H   0  0  0  0  0  0  0  0  0  0  0  0
    0.1350   14.8465   -4.9214 H   0  0  0  0  0  0  0  0  0  0  0  0
   -3.6944   12.5388   -9.8179 H   0  0  0  0  0  0  0  0  0  0  0  0
   -4.2365   11.6128  -11.2585 H   0  0  0  0  0  0  0  0  0  0  0  0
   -1.7018   11.6081  -10.9904 H   0  0  0  0  0  0  0  0  0  0  0  0
   -2.2305   12.3532  -12.5370 H   0  0  0  0  0  0  0  0  0  0  0  0
   -1.5260   13.8871  -10.0735 H   0  0  0  0  0  0  0  0  0  0  0  0
   -1.6882   15.8706  -11.4859 H   0  0  0  0  0  0  0  0  0  0  0  0
   -2.1612   14.7923  -12.8424 H   0  0  0  0  0  0  0  0  0  0  0  0
   -4.1860   15.7766  -11.9464 H   0  0  0  0  0  0  0  0  0  0  0  0
   -3.7154   15.3542  -10.2651 H   0  0  0  0  0  0  0  0  0  0  0  0
  1  2  2  0  0  0  0
  1  4  1  0  0  0  0
  1 12  1  0  0  0  0
  2  6  1  0  0  0  0
  3  4  2  0  0  0  0
  3  5  1  0  0  0  0
  5  6  1  0  0  0  0
  5  9  1  0  0  0  0
  6  7  2  0  0  0  0
  7  8  1  0  0  0  0
  7 10  1  0  0  0  0
  8  9  2  0  0  0  0
 10 14  2  3  0  0  0
 11 12  1  0  0  0  0
 11 26  1  0  0  0  0
 11 30  1  0  0  0  0
 12 13  2  0  0  0  0
 14 15  1  0  0  0  0
 14 19  1  0  0  0  0
 15 16  2  0  0  0  0
 16 17  1  0  0  0  0
 17 18  2  0  0  0  0
 17 20  1  0  0  0  0
 18 19  1  0  0  0  0
 20 21  2  0  0  0  0
 20 24  1  0  0  0  0
 21 22  1  0  0  0  0
 22 23  1  0  0  0  0
 22 25  1  0  0  0  0
 23 24  2  0  0  0  0
 26 27  1  0  0  0  0
 27 28  1  0  0  0  0
 28 29  1  0  0  0  0
 29 30  1  0  0  0  0
  2 31  1  0  0  0  0
  3 32  1  0  0  0  0
  4 33  1  0  0  0  0
  5 34  1  0  0  0  0
 10 35  1  0  0  0  0
 15 36  1  0  0  0  0
 16 37  1  0  0  0  0
 18 38  1  0  0  0  0
 19 39  1  0  0  0  0
 19 40  1  0  0  0  0
 21 41  1  0  0  0  0
 24 42  1  0  0  0  0
 25 43  1  0  0  0  0
 25 44  1  0  0  0  0
 25 45  1  0  0  0  0
 26 46  1  0  0  0  0
 26 47  1  0  0  0  0
 27 48  1  0  0  0  0
 27 49  1  0  0  0  0
 28 50  1  0  0  0  0
 29 51  1  0  0  0  0
 29 52  1  0  0  0  0
 30 53  1  0  0  0  0
 30 54  1  0  0  0  0
M  END
> <Name>
40

> <IC50[uM]>
0.007

$$$$
40
  -OEChem-05192314333D
 Structure written by MMmdl.
 54 58  0     0  0  0  0  0  0999 V2000
   -6.3583   12.3628  -12.0152 C   0  0  0  0  0  0  0  0  0  0  0  0
   -6.5007   11.8020  -10.7383 C   0  0  0  0  0  0  0  0  0  0  0  0
   -7.7096   10.5772  -13.0382 C   0  0  0  0  0  0  0  0  0  0  0  0
   -6.9777   11.7759  -13.1307 C   0  0  0  0  0  0  0  0  0  0  0  0
   -7.8132   10.0130  -11.7619 C   0  0  0  0  0  0  0  0  0  0  0  0
   -7.2338   10.6200  -10.6051 C   0  0  0  0  0  0  0  0  0  0  0  0
   -7.6121    9.7513   -9.5135 C   0  0  0  0  0  0  0  0  0  0  0  0
   -8.2831    8.7414   -9.9888 N   0  0  0  0  0  0  0  0  0  0  0  0
   -8.4159    8.8683  -11.3018 N   0  0  0  0  0  0  0  0  0  0  0  0
   -7.3364    9.8882   -8.0249 C   0  0  0  0  0  0  0  0  0  0  0  0
   -4.3745   13.7307  -11.4480 N   0  0  0  0  0  0  0  0  0  0  0  0
   -5.5401   13.6479  -12.1823 C   0  0  0  0  0  0  0  0  0  0  0  0
   -5.9305   14.5456  -12.9289 O   0  0  0  0  0  0  0  0  0  0  0  0
   -5.9622   10.4857   -7.7364 C   0  0  0  0  0  0  0  0  0  0  0  0
   -4.8106    9.7658   -8.0516 C   0  0  0  0  0  0  0  0  0  0  0  0
   -3.5548   10.3163   -7.8015 C   0  0  0  0  0  0  0  0  0  0  0  0
   -3.4456   11.5910   -7.2371 C   0  0  0  0  0  0  0  0  0  0  0  0
   -4.5995   12.3069   -6.9174 C   0  0  0  0  0  0  0  0  0  0  0  0
   -5.8550   11.7570   -7.1647 C   0  0  0  0  0  0  0  0  0  0  0  0
   -2.1008   12.1810   -6.9758 C   0  0  0  0  0  0  0  0  0  0  0  0
   -1.7660   13.4388   -6.4773 C   0  0  0  0  0  0  0  0  0  0  0  0
   -0.4314   13.4905   -6.4174 N   0  0  0  0  0  0  0  0  0  0  0  0
    0.1713   12.4042   -6.8124 N   0  0  0  0  0  0  0  0  0  0  0  0
   -0.8030   11.5879   -7.1791 C   0  0  0  0  0  0  0  0  0  0  0  0
    0.3850   14.6084   -5.9658 C   0  0  0  0  0  0  0  0  0  0  0  0
   -3.6973   12.5089  -10.9175 C   0  0  0  0  0  0  0  0  0  0  0  0
   -2.2248   12.4637  -11.4426 C   0  0  0  0  0  0  0  0  0  0  0  0
   -1.4987   13.7622  -11.0653 N   0  0  0  0  0  0  0  0  0  0  0  0
   -2.2038   14.9363  -11.7527 C   0  0  0  0  0  0  0  0  0  0  0  0
   -3.6757   15.0331  -11.3164 C   0  0  0  0  0  0  0  0  0  0  0  0
   -6.0533   12.2736   -9.8759 H   0  0  0  0  0  0  0  0  0  0  0  0
   -8.1654   10.1188  -13.9034 H   0  0  0  0  0  0  0  0  0  0  0  0
   -7.6730   12.5301  -13.5278 H   0  0  0  0  0  0  0  0  0  0  0  0
   -6.1786   11.5918  -13.8639 H   0  0  0  0  0  0  0  0  0  0  0  0
   -8.0360    9.5949   -7.2562 H   0  0  0  0  0  0  0  0  0  0  0  0
   -4.8916    8.7819   -8.4894 H   0  0  0  0  0  0  0  0  0  0  0  0
   -2.6635    9.7568   -8.0443 H   0  0  0  0  0  0  0  0  0  0  0  0
   -4.5191   13.2898   -6.4771 H   0  0  0  0  0  0  0  0  0  0  0  0
   -6.3792   12.4524   -7.8368 H   0  0  0  0  0  0  0  0  0  0  0  0
   -6.3792   11.7156   -6.1985 H   0  0  0  0  0  0  0  0  0  0  0  0
   -2.4534   14.2220   -6.1936 H   0  0  0  0  0  0  0  0  0  0  0  0
   -0.6452   10.5982   -7.5816 H   0  0  0  0  0  0  0  0  0  0  0  0
    1.4489   14.3378   -6.0355 H   0  0  0  0  0  0  0  0  0  0  0  0
    0.1877   15.4858   -6.5992 H   0  0  0  0  0  0  0  0  0  0  0  0
    0.1350   14.8465   -4.9214 H   0  0  0  0  0  0  0  0  0  0  0  0
   -3.6944   12.5388   -9.8179 H   0  0  0  0  0  0  0  0  0  0  0  0
   -4.2365   11.6128  -11.2585 H   0  0  0  0  0  0  0  0  0  0  0  0
   -1.7018   11.6081  -10.9904 H   0  0  0  0  0  0  0  0  0  0  0  0
   -2.2305   12.3532  -12.5370 H   0  0  0  0  0  0  0  0  0  0  0  0
   -1.5260   13.8871  -10.0735 H   0  0  0  0  0  0  0  0  0  0  0  0
   -1.6882   15.8706  -11.4859 H   0  0  0  0  0  0  0  0  0  0  0  0
   -2.1612   14.7923  -12.8424 H   0  0  0  0  0  0  0  0  0  0  0  0
   -4.1860   15.7766  -11.9464 H   0  0  0  0  0  0  0  0  0  0  0  0
   -3.7154   15.3542  -10.2651 H   0  0  0  0  0  0  0  0  0  0  0  0
  1  2  2  0  0  0  0
  1  4  1  0  0  0  0
  1 12  1  0  0  0  0
  2  6  1  0  0  0  0
  3  4  1  0  0  0  0
  3  5  2  0  0  0  0
  5  6  1  0  0  0  0
  5  9  1  0  0  0  0
  6  7  2  0  0  0  0
  7  8  1  0  0  0  0
  7 10  1  0  0  0  0
  8  9  2  0  0  0  0
 10 14  2  3  0  0  0
 11 12  1  0  0  0  0
 11 26  1  0  0  0  0
 11 30  1  0  0  0  0
 12 13  2  0  0  0  0
 14 15  1  0  0  0  0
 14 19  1  0  0  0  0
 15 16  2  0  0  0  0
 16 17  1  0  0  0  0
 17 18  2  0  0  0  0
 17 20  1  0  0  0  0
 18 19  1  0  0  0  0
 20 21  2  0  0  0  0
 20 24  1  0  0  0  0
 21 22  1  0  0  0  0
 22 23  1  0  0  0  0
 22 25  1  0  0  0  0
 23 24  2  0  0  0  0
 26 27  1  0  0  0  0
 27 28  1  0  0  0  0
 28 29  1  0  0  0  0
 29 30  1  0  0  0  0
  2 31  1  0  0  0  0
  3 32  1  0  0  0  0
  4 33  1  0  0  0  0
  4 34  1  0  0  0  0
 10 35  1  0  0  0  0
 15 36  1  0  0  0  0
 16 37  1  0  0  0  0
 18 38  1  0  0  0  0
 19 39  1  0  0  0  0
 19 40  1  0  0  0  0
 21 41  1  0  0  0  0
 24 42  1  0  0  0  0
 25 43  1  0  0  0  0
 25 44  1  0  0  0  0
 25 45  1  0  0  0  0
 26 46  1  0  0  0  0
 26 47  1  0  0  0  0
 27 48  1  0  0  0  0
 27 49  1  0  0  0  0
 28 50  1  0  0  0  0
 29 51  1  0  0  0  0
 29 52  1  0  0  0  0
 30 53  1  0  0  0  0
 30 54  1  0  0  0  0
M  END
> <Name>
40

> <IC50[uM]>
0.007

$$$$
40
  -OEChem-05192314333D
 Structure written by MMmdl.
 54 58  0     0  0  0  0  0  0999 V2000
   -6.3583   12.3628  -12.0152 C   0  0  0  0  0  0  0  0  0  0  0  0
   -6.5007   11.8020  -10.7383 C   0  0  0  0  0  0  0  0  0  0  0  0
   -7.7096   10.5772  -13.0382 C   0  0  0  0  0  0  0  0  0  0  0  0
   -6.9777   11.7759  -13.1307 C   0  0  0  0  0  0  0  0  0  0  0  0
   -7.8132   10.0130  -11.7619 C   0  0  0  0  0  0  0  0  0  0  0  0
   -7.2338   10.6200  -10.6051 C   0  0  0  0  0  0  0  0  0  0  0  0
   -7.6121    9.7513   -9.5135 C   0  0  0  0  0  0  0  0  0  0  0  0
   -8.2831    8.7414   -9.9888 N   0  0  0  0  0  0  0  0  0  0  0  0
   -8.4159    8.8683  -11.3018 N   0  0  0  0  0  0  0  0  0  0  0  0
   -7.3364    9.8882   -8.0249 C   0  0  0  0  0  0  0  0  0  0  0  0
   -4.3745   13.7307  -11.4480 N   0  0  0  0  0  0  0  0  0  0  0  0
   -5.5401   13.6479  -12.1823 C   0  0  0  0  0  0  0  0  0  0  0  0
   -5.9305   14.5456  -12.9289 O   0  0  0  0  0  0  0  0  0  0  0  0
   -5.9622   10.4857   -7.7364 C   0  0  0  0  0  0  0  0  0  0  0  0
   -4.8106    9.7658   -8.0516 C   0  0  0  0  0  0  0  0  0  0  0  0
   -3.5548   10.3163   -7.8015 C   0  0  0  0  0  0  0  0  0  0  0  0
   -3.4456   11.5910   -7.2371 C   0  0  0  0  0  0  0  0  0  0  0  0
   -4.5995   12.3069   -6.9174 C   0  0  0  0  0  0  0  0  0  0  0  0
   -5.8550   11.7570   -7.1647 C   0  0  0  0  0  0  0  0  0  0  0  0
   -2.1008   12.1810   -6.9758 C   0  0  0  0  0  0  0  0  0  0  0  0
   -1.7660   13.4388   -6.4773 C   0  0  0  0  0  0  0  0  0  0  0  0
   -0.4314   13.4905   -6.4174 N   0  0  0  0  0  0  0  0  0  0  0  0
    0.1713   12.4042   -6.8124 N   0  0  0  0  0  0  0  0  0  0  0  0
   -0.8030   11.5879   -7.1791 C   0  0  0  0  0  0  0  0  0  0  0  0
    0.3850   14.6084   -5.9658 C   0  0  0  0  0  0  0  0  0  0  0  0
   -3.6973   12.5089  -10.9175 C   0  0  0  0  0  0  0  0  0  0  0  0
   -2.2248   12.4637  -11.4426 C   0  0  0  0  0  0  0  0  0  0  0  0
   -1.4987   13.7622  -11.0653 N   0  0  0  0  0  0  0  0  0  0  0  0
   -2.2038   14.9363  -11.7527 C   0  0  0  0  0  0  0  0  0  0  0  0
   -3.6757   15.0331  -11.3164 C   0  0  0  0  0  0  0  0  0  0  0  0
   -5.4884   11.6004  -10.3579 H   0  0  0  0  0  0  0  0  0  0  0  0
   -6.9867   12.5582  -10.1044 H   0  0  0  0  0  0  0  0  0  0  0  0
   -8.1654   10.1188  -13.9034 H   0  0  0  0  0  0  0  0  0  0  0  0
   -6.8895   12.2606  -14.0918 H   0  0  0  0  0  0  0  0  0  0  0  0
   -8.0360    9.5949   -7.2562 H   0  0  0  0  0  0  0  0  0  0  0  0
   -4.8916    8.7819   -8.4894 H   0  0  0  0  0  0  0  0  0  0  0  0
   -2.6635    9.7568   -8.0443 H   0  0  0  0  0  0  0  0  0  0  0  0
   -3.4466   12.0370   -8.2426 H   0  0  0  0  0  0  0  0  0  0  0  0
   -4.5191   13.2898   -6.4771 H   0  0  0  0  0  0  0  0  0  0  0  0
   -6.7464   12.3131   -6.9146 H   0  0  0  0  0  0  0  0  0  0  0  0
   -2.4534   14.2220   -6.1936 H   0  0  0  0  0  0  0  0  0  0  0  0
   -0.6452   10.5982   -7.5816 H   0  0  0  0  0  0  0  0  0  0  0  0
    1.4489   14.3378   -6.0355 H   0  0  0  0  0  0  0  0  0  0  0  0
    0.1877   15.4858   -6.5992 H   0  0  0  0  0  0  0  0  0  0  0  0
    0.1350   14.8465   -4.9214 H   0  0  0  0  0  0  0  0  0  0  0  0
   -3.6944   12.5388   -9.8179 H   0  0  0  0  0  0  0  0  0  0  0  0
   -4.2365   11.6128  -11.2585 H   0  0  0  0  0  0  0  0  0  0  0  0
   -1.7018   11.6081  -10.9904 H   0  0  0  0  0  0  0  0  0  0  0  0
   -2.2305   12.3532  -12.5370 H   0  0  0  0  0  0  0  0  0  0  0  0
   -1.5260   13.8871  -10.0735 H   0  0  0  0  0  0  0  0  0  0  0  0
   -1.6882   15.8706  -11.4859 H   0  0  0  0  0  0  0  0  0  0  0  0
   -2.1612   14.7923  -12.8424 H   0  0  0  0  0  0  0  0  0  0  0  0
   -4.1860   15.7766  -11.9464 H   0  0  0  0  0  0  0  0  0  0  0  0
   -3.7154   15.3542  -10.2651 H   0  0  0  0  0  0  0  0  0  0  0  0
  1  2  1  0  0  0  0
  1  4  2  0  0  0  0
  1 12  1  0  0  0  0
  2  6  1  0  0  0  0
  3  4  1  0  0  0  0
  3  5  2  0  0  0  0
  5  6  1  0  0  0  0
  5  9  1  0  0  0  0
  6  7  2  0  0  0  0
  7  8  1  0  0  0  0
  7 10  1  0  0  0  0
  8  9  2  0  0  0  0
 10 14  2  0  0  0  0
 11 12  1  0  0  0  0
 11 26  1  0  0  0  0
 11 30  1  0  0  0  0
 12 13  2  0  0  0  0
 14 15  1  0  0  0  0
 14 19  1  0  0  0  0
 15 16  2  0  0  0  0
 16 17  1  0  0  0  0
 17 18  1  0  0  0  0
 17 20  1  0  0  0  0
 18 19  2  0  0  0  0
 20 21  2  0  0  0  0
 20 24  1  0  0  0  0
 21 22  1  0  0  0  0
 22 23  1  0  0  0  0
 22 25  1  0  0  0  0
 23 24  2  0  0  0  0
 26 27  1  0  0  0  0
 27 28  1  0  0  0  0
 28 29  1  0  0  0  0
 29 30  1  0  0  0  0
  2 31  1  0  0  0  0
  2 32  1  0  0  0  0
  3 33  1  0  0  0  0
  4 34  1  0  0  0  0
 10 35  1  0  0  0  0
 15 36  1  0  0  0  0
 16 37  1  0  0  0  0
 17 38  1  0  0  0  0
 18 39  1  0  0  0  0
 19 40  1  0  0  0  0
 21 41  1  0  0  0  0
 24 42  1  0  0  0  0
 25 43  1  0  0  0  0
 25 44  1  0  0  0  0
 25 45  1  0  0  0  0
 26 46  1  0  0  0  0
 26 47  1  0  0  0  0
 27 48  1  0  0  0  0
 27 49  1  0  0  0  0
 28 50  1  0  0  0  0
 29 51  1  0  0  0  0
 29 52  1  0  0  0  0
 30 53  1  0  0  0  0
 30 54  1  0  0  0  0
M  END
> <Name>
40

> <IC50[uM]>
0.007

$$$$
40
  -OEChem-05192314333D
 Structure written by MMmdl.
 54 58  0     0  0  0  0  0  0999 V2000
   -6.3583   12.3628  -12.0152 C   0  0  0  0  0  0  0  0  0  0  0  0
   -6.5007   11.8020  -10.7383 C   0  0  0  0  0  0  0  0  0  0  0  0
   -7.7096   10.5772  -13.0382 C   0  0  0  0  0  0  0  0  0  0  0  0
   -6.9777   11.7759  -13.1307 C   0  0  0  0  0  0  0  0  0  0  0  0
   -7.8132   10.0130  -11.7619 C   0  0  0  0  0  0  0  0  0  0  0  0
   -7.2338   10.6200  -10.6051 C   0  0  0  0  0  0  0  0  0  0  0  0
   -7.6121    9.7513   -9.5135 C   0  0  0  0  0  0  0  0  0  0  0  0
   -8.2831    8.7414   -9.9888 N   0  0  0  0  0  0  0  0  0  0  0  0
   -8.4159    8.8683  -11.3018 N   0  0  0  0  0  0  0  0  0  0  0  0
   -7.3364    9.8882   -8.0249 C   0  0  0  0  0  0  0  0  0  0  0  0
   -4.3745   13.7307  -11.4480 N   0  0  0  0  0  0  0  0  0  0  0  0
   -5.5401   13.6479  -12.1823 C   0  0  0  0  0  0  0  0  0  0  0  0
   -5.9305   14.5456  -12.9289 O   0  0  0  0  0  0  0  0  0  0  0  0
   -5.9622   10.4857   -7.7364 C   0  0  0  0  0  0  0  0  0  0  0  0
   -4.8106    9.7658   -8.0516 C   0  0  0  0  0  0  0  0  0  0  0  0
   -3.5548   10.3163   -7.8015 C   0  0  0  0  0  0  0  0  0  0  0  0
   -3.4456   11.5910   -7.2371 C   0  0  0  0  0  0  0  0  0  0  0  0
   -4.5995   12.3069   -6.9174 C   0  0  0  0  0  0  0  0  0  0  0  0
   -5.8550   11.7570   -7.1647 C   0  0  0  0  0  0  0  0  0  0  0  0
   -2.1008   12.1810   -6.9758 C   0  0  0  0  0  0  0  0  0  0  0  0
   -1.7660   13.4388   -6.4773 C   0  0  0  0  0  0  0  0  0  0  0  0
   -0.4314   13.4905   -6.4174 N   0  0  0  0  0  0  0  0  0  0  0  0
    0.1713   12.4042   -6.8124 N   0  0  0  0  0  0  0  0  0  0  0  0
   -0.8030   11.5879   -7.1791 C   0  0  0  0  0  0  0  0  0  0  0  0
    0.3850   14.6084   -5.9658 C   0  0  0  0  0  0  0  0  0  0  0  0
   -3.6973   12.5089  -10.9175 C   0  0  0  0  0  0  0  0  0  0  0  0
   -2.2248   12.4637  -11.4426 C   0  0  0  0  0  0  0  0  0  0  0  0
   -1.4987   13.7622  -11.0653 N   0  0  0  0  0  0  0  0  0  0  0  0
   -2.2038   14.9363  -11.7527 C   0  0  0  0  0  0  0  0  0  0  0  0
   -3.6757   15.0331  -11.3164 C   0  0  0  0  0  0  0  0  0  0  0  0
   -5.4884   11.6004  -10.3579 H   0  0  0  0  0  0  0  0  0  0  0  0
   -6.9867   12.5582  -10.1044 H   0  0  0  0  0  0  0  0  0  0  0  0
   -8.1654   10.1188  -13.9034 H   0  0  0  0  0  0  0  0  0  0  0  0
   -6.8895   12.2606  -14.0918 H   0  0  0  0  0  0  0  0  0  0  0  0
   -8.0360    9.5949   -7.2562 H   0  0  0  0  0  0  0  0  0  0  0  0
   -4.8916    8.7819   -8.4894 H   0  0  0  0  0  0  0  0  0  0  0  0
   -2.6635    9.7568   -8.0443 H   0  0  0  0  0  0  0  0  0  0  0  0
   -4.5191   13.2898   -6.4771 H   0  0  0  0  0  0  0  0  0  0  0  0
   -6.3792   12.4524   -7.8368 H   0  0  0  0  0  0  0  0  0  0  0  0
   -6.3792   11.7156   -6.1985 H   0  0  0  0  0  0  0  0  0  0  0  0
   -2.4534   14.2220   -6.1936 H   0  0  0  0  0  0  0  0  0  0  0  0
   -0.6452   10.5982   -7.5816 H   0  0  0  0  0  0  0  0  0  0  0  0
    1.4489   14.3378   -6.0355 H   0  0  0  0  0  0  0  0  0  0  0  0
    0.1877   15.4858   -6.5992 H   0  0  0  0  0  0  0  0  0  0  0  0
    0.1350   14.8465   -4.9214 H   0  0  0  0  0  0  0  0  0  0  0  0
   -3.6944   12.5388   -9.8179 H   0  0  0  0  0  0  0  0  0  0  0  0
   -4.2365   11.6128  -11.2585 H   0  0  0  0  0  0  0  0  0  0  0  0
   -1.7018   11.6081  -10.9904 H   0  0  0  0  0  0  0  0  0  0  0  0
   -2.2305   12.3532  -12.5370 H   0  0  0  0  0  0  0  0  0  0  0  0
   -1.5260   13.8871  -10.0735 H   0  0  0  0  0  0  0  0  0  0  0  0
   -1.6882   15.8706  -11.4859 H   0  0  0  0  0  0  0  0  0  0  0  0
   -2.1612   14.7923  -12.8424 H   0  0  0  0  0  0  0  0  0  0  0  0
   -4.1860   15.7766  -11.9464 H   0  0  0  0  0  0  0  0  0  0  0  0
   -3.7154   15.3542  -10.2651 H   0  0  0  0  0  0  0  0  0  0  0  0
  1  2  1  0  0  0  0
  1  4  2  0  0  0  0
  1 12  1  0  0  0  0
  2  6  1  0  0  0  0
  3  4  1  0  0  0  0
  3  5  2  0  0  0  0
  5  6  1  0  0  0  0
  5  9  1  0  0  0  0
  6  7  2  0  0  0  0
  7  8  1  0  0  0  0
  7 10  1  0  0  0  0
  8  9  2  0  0  0  0
 10 14  2  3  0  0  0
 11 12  1  0  0  0  0
 11 26  1  0  0  0  0
 11 30  1  0  0  0  0
 12 13  2  0  0  0  0
 14 15  1  0  0  0  0
 14 19  1  0  0  0  0
 15 16  2  0  0  0  0
 16 17  1  0  0  0  0
 17 18  2  0  0  0  0
 17 20  1  0  0  0  0
 18 19  1  0  0  0  0
 20 21  2  0  0  0  0
 20 24  1  0  0  0  0
 21 22  1  0  0  0  0
 22 23  1  0  0  0  0
 22 25  1  0  0  0  0
 23 24  2  0  0  0  0
 26 27  1  0  0  0  0
 27 28  1  0  0  0  0
 28 29  1  0  0  0  0
 29 30  1  0  0  0  0
  2 31  1  0  0  0  0
  2 32  1  0  0  0  0
  3 33  1  0  0  0  0
  4 34  1  0  0  0  0
 10 35  1  0  0  0  0
 15 36  1  0  0  0  0
 16 37  1  0  0  0  0
 18 38  1  0  0  0  0
 19 39  1  0  0  0  0
 19 40  1  0  0  0  0
 21 41  1  0  0  0  0
 24 42  1  0  0  0  0
 25 43  1  0  0  0  0
 25 44  1  0  0  0  0
 25 45  1  0  0  0  0
 26 46  1  0  0  0  0
 26 47  1  0  0  0  0
 27 48  1  0  0  0  0
 27 49  1  0  0  0  0
 28 50  1  0  0  0  0
 29 51  1  0  0  0  0
 29 52  1  0  0  0  0
 30 53  1  0  0  0  0
 30 54  1  0  0  0  0
M  END
> <Name>
40

> <IC50[uM]>
0.007

$$$$
40
  -OEChem-05192314333D
 Structure written by MMmdl.
 54 58  0     0  0  0  0  0  0999 V2000
   -6.3583   12.3628  -12.0152 C   0  0  0  0  0  0  0  0  0  0  0  0
   -6.5007   11.8020  -10.7383 C   0  0  0  0  0  0  0  0  0  0  0  0
   -7.7096   10.5772  -13.0382 C   0  0  0  0  0  0  0  0  0  0  0  0
   -6.9777   11.7759  -13.1307 C   0  0  0  0  0  0  0  0  0  0  0  0
   -7.8132   10.0130  -11.7619 C   0  0  0  0  0  0  0  0  0  0  0  0
   -7.2338   10.6200  -10.6051 C   0  0  0  0  0  0  0  0  0  0  0  0
   -7.6121    9.7513   -9.5135 C   0  0  0  0  0  0  0  0  0  0  0  0
   -8.2831    8.7414   -9.9888 N   0  0  0  0  0  0  0  0  0  0  0  0
   -8.4159    8.8683  -11.3018 N   0  0  0  0  0  0  0  0  0  0  0  0
   -7.3364    9.8882   -8.0249 C   0  0  0  0  0  0  0  0  0  0  0  0
   -4.3745   13.7307  -11.4480 N   0  0  0  0  0  0  0  0  0  0  0  0
   -5.5401   13.6479  -12.1823 C   0  0  0  0  0  0  0  0  0  0  0  0
   -5.9305   14.5456  -12.9289 O   0  0  0  0  0  0  0  0  0  0  0  0
   -5.9622   10.4857   -7.7364 C   0  0  0  0  0  0  0  0  0  0  0  0
   -4.8106    9.7658   -8.0516 C   0  0  0  0  0  0  0  0  0  0  0  0
   -3.5548   10.3163   -7.8015 C   0  0  0  0  0  0  0  0  0  0  0  0
   -3.4456   11.5910   -7.2371 C   0  0  0  0  0  0  0  0  0  0  0  0
   -4.5995   12.3069   -6.9174 C   0  0  0  0  0  0  0  0  0  0  0  0
   -5.8550   11.7570   -7.1647 C   0  0  0  0  0  0  0  0  0  0  0  0
   -2.1008   12.1810   -6.9758 C   0  0  0  0  0  0  0  0  0  0  0  0
   -1.7660   13.4388   -6.4773 C   0  0  0  0  0  0  0  0  0  0  0  0
   -0.4314   13.4905   -6.4174 N   0  0  0  0  0  0  0  0  0  0  0  0
    0.1713   12.4042   -6.8124 N   0  0  0  0  0  0  0  0  0  0  0  0
   -0.8030   11.5879   -7.1791 C   0  0  0  0  0  0  0  0  0  0  0  0
    0.3850   14.6084   -5.9658 C   0  0  0  0  0  0  0  0  0  0  0  0
   -3.6973   12.5089  -10.9175 C   0  0  0  0  0  0  0  0  0  0  0  0
   -2.2248   12.4637  -11.4426 C   0  0  0  0  0  0  0  0  0  0  0  0
   -1.4987   13.7622  -11.0653 N   0  0  0  0  0  0  0  0  0  0  0  0
   -2.2038   14.9363  -11.7527 C   0  0  0  0  0  0  0  0  0  0  0  0
   -3.6757   15.0331  -11.3164 C   0  0  0  0  0  0  0  0  0  0  0  0
   -6.0533   12.2736   -9.8759 H   0  0  0  0  0  0  0  0  0  0  0  0
   -8.1654   10.1188  -13.9034 H   0  0  0  0  0  0  0  0  0  0  0  0
   -6.8895   12.2606  -14.0918 H   0  0  0  0  0  0  0  0  0  0  0  0
   -8.6440    7.9838   -9.4449 H   0  0  0  0  0  0  0  0  0  0  0  0
   -8.0360    9.5949   -7.2562 H   0  0  0  0  0  0  0  0  0  0  0  0
   -5.3084   15.2634  -12.9141 H   0  0  0  0  0  0  0  0  0  0  0  0
   -4.8916    8.7819   -8.4894 H   0  0  0  0  0  0  0  0  0  0  0  0
   -2.6635    9.7568   -8.0443 H   0  0  0  0  0  0  0  0  0  0  0  0
   -4.5191   13.2898   -6.4771 H   0  0  0  0  0  0  0  0  0  0  0  0
   -6.7464   12.3131   -6.9146 H   0  0  0  0  0  0  0  0  0  0  0  0
   -2.4534   14.2220   -6.1936 H   0  0  0  0  0  0  0  0  0  0  0  0
   -0.6452   10.5982   -7.5816 H   0  0  0  0  0  0  0  0  0  0  0  0
    1.4489   14.3378   -6.0355 H   0  0  0  0  0  0  0  0  0  0  0  0
    0.1877   15.4858   -6.5992 H   0  0  0  0  0  0  0  0  0  0  0  0
    0.1350   14.8465   -4.9214 H   0  0  0  0  0  0  0  0  0  0  0  0
   -3.6944   12.5388   -9.8179 H   0  0  0  0  0  0  0  0  0  0  0  0
   -4.2365   11.6128  -11.2585 H   0  0  0  0  0  0  0  0  0  0  0  0
   -1.7018   11.6081  -10.9904 H   0  0  0  0  0  0  0  0  0  0  0  0
   -2.2305   12.3532  -12.5370 H   0  0  0  0  0  0  0  0  0  0  0  0
   -1.5260   13.8871  -10.0735 H   0  0  0  0  0  0  0  0  0  0  0  0
   -1.6882   15.8706  -11.4859 H   0  0  0  0  0  0  0  0  0  0  0  0
   -2.1612   14.7923  -12.8424 H   0  0  0  0  0  0  0  0  0  0  0  0
   -4.1860   15.7766  -11.9464 H   0  0  0  0  0  0  0  0  0  0  0  0
   -3.7154   15.3542  -10.2651 H   0  0  0  0  0  0  0  0  0  0  0  0
  1  2  1  0  0  0  0
  1  4  1  0  0  0  0
  1 12  2  3  0  0  0
  2  6  2  0  0  0  0
  3  4  2  0  0  0  0
  3  5  1  0  0  0  0
  5  6  1  0  0  0  0
  5  9  2  0  0  0  0
  6  7  1  0  0  0  0
  7  8  1  0  0  0  0
  7 10  2  3  0  0  0
  8  9  1  0  0  0  0
 10 14  1  0  0  0  0
 11 12  1  0  0  0  0
 11 26  1  0  0  0  0
 11 30  1  0  0  0  0
 12 13  1  0  0  0  0
 14 15  2  0  0  0  0
 14 19  1  0  0  0  0
 15 16  1  0  0  0  0
 16 17  2  0  0  0  0
 17 18  1  0  0  0  0
 17 20  1  0  0  0  0
 18 19  2  0  0  0  0
 20 21  2  0  0  0  0
 20 24  1  0  0  0  0
 21 22  1  0  0  0  0
 22 23  1  0  0  0  0
 22 25  1  0  0  0  0
 23 24  2  0  0  0  0
 26 27  1  0  0  0  0
 27 28  1  0  0  0  0
 28 29  1  0  0  0  0
 29 30  1  0  0  0  0
  2 31  1  0  0  0  0
  3 32  1  0  0  0  0
  4 33  1  0  0  0  0
  8 34  1  0  0  0  0
 10 35  1  0  0  0  0
 13 36  1  0  0  0  0
 15 37  1  0  0  0  0
 16 38  1  0  0  0  0
 18 39  1  0  0  0  0
 19 40  1  0  0  0  0
 21 41  1  0  0  0  0
 24 42  1  0  0  0  0
 25 43  1  0  0  0  0
 25 44  1  0  0  0  0
 25 45  1  0  0  0  0
 26 46  1  0  0  0  0
 26 47  1  0  0  0  0
 27 48  1  0  0  0  0
 27 49  1  0  0  0  0
 28 50  1  0  0  0  0
 29 51  1  0  0  0  0
 29 52  1  0  0  0  0
 30 53  1  0  0  0  0
 30 54  1  0  0  0  0
M  END
> <Name>
40

> <IC50[uM]>
0.007

$$$$
40
  -OEChem-05192314333D
 Structure written by MMmdl.
 54 58  0     1  0  0  0  0  0999 V2000
   -6.3583   12.3628  -12.0152 C   0  0  0  0  0  0  0  0  0  0  0  0
   -6.5007   11.8020  -10.7383 C   0  0  0  0  0  0  0  0  0  0  0  0
   -7.7096   10.5772  -13.0382 C   0  0  0  0  0  0  0  0  0  0  0  0
   -6.9777   11.7759  -13.1307 C   0  0  0  0  0  0  0  0  0  0  0  0
   -7.8132   10.0130  -11.7619 C   0  0  0  0  0  0  0  0  0  0  0  0
   -7.2338   10.6200  -10.6051 C   0  0  0  0  0  0  0  0  0  0  0  0
   -7.6121    9.7513   -9.5135 C   0  0  0  0  0  0  0  0  0  0  0  0
   -8.2831    8.7414   -9.9888 N   0  0  0  0  0  0  0  0  0  0  0  0
   -8.4159    8.8683  -11.3018 N   0  0  0  0  0  0  0  0  0  0  0  0
   -7.3364    9.8882   -8.0249 C   0  0  0  0  0  0  0  0  0  0  0  0
   -4.3745   13.7307  -11.4480 N   0  0  0  0  0  0  0  0  0  0  0  0
   -5.5401   13.6479  -12.1823 C   0  0  3  0  0  0  0  0  0  0  0  0
   -5.9305   14.5456  -12.9289 O   0  0  0  0  0  0  0  0  0  0  0  0
   -5.9622   10.4857   -7.7364 C   0  0  0  0  0  0  0  0  0  0  0  0
   -4.8106    9.7658   -8.0516 C   0  0  0  0  0  0  0  0  0  0  0  0
   -3.5548   10.3163   -7.8015 C   0  0  0  0  0  0  0  0  0  0  0  0
   -3.4456   11.5910   -7.2371 C   0  0  0  0  0  0  0  0  0  0  0  0
   -4.5995   12.3069   -6.9174 C   0  0  0  0  0  0  0  0  0  0  0  0
   -5.8550   11.7570   -7.1647 C   0  0  0  0  0  0  0  0  0  0  0  0
   -2.1008   12.1810   -6.9758 C   0  0  0  0  0  0  0  0  0  0  0  0
   -1.7660   13.4388   -6.4773 C   0  0  0  0  0  0  0  0  0  0  0  0
   -0.4314   13.4905   -6.4174 N   0  0  0  0  0  0  0  0  0  0  0  0
    0.1713   12.4042   -6.8124 N   0  0  0  0  0  0  0  0  0  0  0  0
   -0.8030   11.5879   -7.1791 C   0  0  0  0  0  0  0  0  0  0  0  0
    0.3850   14.6084   -5.9658 C   0  0  0  0  0  0  0  0  0  0  0  0
   -3.6973   12.5089  -10.9175 C   0  0  0  0  0  0  0  0  0  0  0  0
   -2.2248   12.4637  -11.4426 C   0  0  0  0  0  0  0  0  0  0  0  0
   -1.4987   13.7622  -11.0653 N   0  0  0  0  0  0  0  0  0  0  0  0
   -2.2038   14.9363  -11.7527 C   0  0  0  0  0  0  0  0  0  0  0  0
   -3.6757   15.0331  -11.3164 C   0  0  0  0  0  0  0  0  0  0  0  0
   -6.0533   12.2736   -9.8759 H   0  0  0  0  0  0  0  0  0  0  0  0
   -8.1654   10.1188  -13.9034 H   0  0  0  0  0  0  0  0  0  0  0  0
   -6.8895   12.2606  -14.0918 H   0  0  0  0  0  0  0  0  0  0  0  0
   -8.0360    9.5949   -7.2562 H   0  0  0  0  0  0  0  0  0  0  0  0
   -4.9865   13.1906  -13.0156 H   0  0  0  0  0  0  0  0  0  0  0  0
   -5.3084   15.2634  -12.9141 H   0  0  0  0  0  0  0  0  0  0  0  0
   -4.8916    8.7819   -8.4894 H   0  0  0  0  0  0  0  0  0  0  0  0
   -2.6635    9.7568   -8.0443 H   0  0  0  0  0  0  0  0  0  0  0  0
   -4.5191   13.2898   -6.4771 H   0  0  0  0  0  0  0  0  0  0  0  0
   -6.7464   12.3131   -6.9146 H   0  0  0  0  0  0  0  0  0  0  0  0
   -2.4534   14.2220   -6.1936 H   0  0  0  0  0  0  0  0  0  0  0  0
   -0.6452   10.5982   -7.5816 H   0  0  0  0  0  0  0  0  0  0  0  0
    1.4489   14.3378   -6.0355 H   0  0  0  0  0  0  0  0  0  0  0  0
    0.1877   15.4858   -6.5992 H   0  0  0  0  0  0  0  0  0  0  0  0
    0.1350   14.8465   -4.9214 H   0  0  0  0  0  0  0  0  0  0  0  0
   -3.6944   12.5388   -9.8179 H   0  0  0  0  0  0  0  0  0  0  0  0
   -4.2365   11.6128  -11.2585 H   0  0  0  0  0  0  0  0  0  0  0  0
   -1.7018   11.6081  -10.9904 H   0  0  0  0  0  0  0  0  0  0  0  0
   -2.2305   12.3532  -12.5370 H   0  0  0  0  0  0  0  0  0  0  0  0
   -1.5260   13.8871  -10.0735 H   0  0  0  0  0  0  0  0  0  0  0  0
   -1.6882   15.8706  -11.4859 H   0  0  0  0  0  0  0  0  0  0  0  0
   -2.1612   14.7923  -12.8424 H   0  0  0  0  0  0  0  0  0  0  0  0
   -4.1860   15.7766  -11.9464 H   0  0  0  0  0  0  0  0  0  0  0  0
   -3.7154   15.3542  -10.2651 H   0  0  0  0  0  0  0  0  0  0  0  0
  1  2  2  0  0  0  0
  1  4  1  0  0  0  0
  1 12  1  0  0  0  0
  2  6  1  0  0  0  0
  3  4  2  0  0  0  0
  3  5  1  0  0  0  0
  5  6  2  0  0  0  0
  5  9  1  0  0  0  0
  6  7  1  0  0  0  0
  7  8  1  0  0  0  0
  7 10  2  3  0  0  0
  8  9  2  0  0  0  0
 10 14  1  0  0  0  0
 11 12  1  0  0  0  0
 11 26  1  0  0  0  0
 11 30  1  0  0  0  0
 12 13  1  0  0  0  0
 14 15  2  0  0  0  0
 14 19  1  0  0  0  0
 15 16  1  0  0  0  0
 16 17  2  0  0  0  0
 17 18  1  0  0  0  0
 17 20  1  0  0  0  0
 18 19  2  0  0  0  0
 20 21  2  0  0  0  0
 20 24  1  0  0  0  0
 21 22  1  0  0  0  0
 22 23  1  0  0  0  0
 22 25  1  0  0  0  0
 23 24  2  0  0  0  0
 26 27  1  0  0  0  0
 27 28  1  0  0  0  0
 28 29  1  0  0  0  0
 29 30  1  0  0  0  0
  2 31  1  0  0  0  0
  3 32  1  0  0  0  0
  4 33  1  0  0  0  0
 10 34  1  0  0  0  0
 12 35  1  0  0  0  0
 13 36  1  0  0  0  0
 15 37  1  0  0  0  0
 16 38  1  0  0  0  0
 18 39  1  0  0  0  0
 19 40  1  0  0  0  0
 21 41  1  0  0  0  0
 24 42  1  0  0  0  0
 25 43  1  0  0  0  0
 25 44  1  0  0  0  0
 25 45  1  0  0  0  0
 26 46  1  0  0  0  0
 26 47  1  0  0  0  0
 27 48  1  0  0  0  0
 27 49  1  0  0  0  0
 28 50  1  0  0  0  0
 29 51  1  0  0  0  0
 29 52  1  0  0  0  0
 30 53  1  0  0  0  0
 30 54  1  0  0  0  0
M  END
> <Name>
40

> <IC50[uM]>
0.007

$$$$
40
  -OEChem-05192314333D
 Structure written by MMmdl.
 54 58  0     0  0  0  0  0  0999 V2000
   -6.3583   12.3628  -12.0152 C   0  0  0  0  0  0  0  0  0  0  0  0
   -6.5007   11.8020  -10.7383 C   0  0  0  0  0  0  0  0  0  0  0  0
   -7.7096   10.5772  -13.0382 C   0  0  0  0  0  0  0  0  0  0  0  0
   -6.9777   11.7759  -13.1307 C   0  0  0  0  0  0  0  0  0  0  0  0
   -7.8132   10.0130  -11.7619 C   0  0  0  0  0  0  0  0  0  0  0  0
   -7.2338   10.6200  -10.6051 C   0  0  0  0  0  0  0  0  0  0  0  0
   -7.6121    9.7513   -9.5135 C   0  0  0  0  0  0  0  0  0  0  0  0
   -8.2831    8.7414   -9.9888 N   0  0  0  0  0  0  0  0  0  0  0  0
   -8.4159    8.8683  -11.3018 N   0  0  0  0  0  0  0  0  0  0  0  0
   -7.3364    9.8882   -8.0249 C   0  0  0  0  0  0  0  0  0  0  0  0
   -4.3745   13.7307  -11.4480 N   0  0  0  0  0  0  0  0  0  0  0  0
   -5.5401   13.6479  -12.1823 C   0  0  0  0  0  0  0  0  0  0  0  0
   -5.9305   14.5456  -12.9289 O   0  0  0  0  0  0  0  0  0  0  0  0
   -5.9622   10.4857   -7.7364 C   0  0  0  0  0  0  0  0  0  0  0  0
   -4.8106    9.7658   -8.0516 C   0  0  0  0  0  0  0  0  0  0  0  0
   -3.5548   10.3163   -7.8015 C   0  0  0  0  0  0  0  0  0  0  0  0
   -3.4456   11.5910   -7.2371 C   0  0  0  0  0  0  0  0  0  0  0  0
   -4.5995   12.3069   -6.9174 C   0  0  0  0  0  0  0  0  0  0  0  0
   -5.8550   11.7570   -7.1647 C   0  0  0  0  0  0  0  0  0  0  0  0
   -2.1008   12.1810   -6.9758 C   0  0  0  0  0  0  0  0  0  0  0  0
   -1.7660   13.4388   -6.4773 C   0  0  0  0  0  0  0  0  0  0  0  0
   -0.4314   13.4905   -6.4174 N   0  0  0  0  0  0  0  0  0  0  0  0
    0.1713   12.4042   -6.8124 N   0  0  0  0  0  0  0  0  0  0  0  0
   -0.8030   11.5879   -7.1791 C   0  0  0  0  0  0  0  0  0  0  0  0
    0.3850   14.6084   -5.9658 C   0  0  0  0  0  0  0  0  0  0  0  0
   -3.6973   12.5089  -10.9175 C   0  0  0  0  0  0  0  0  0  0  0  0
   -2.2248   12.4637  -11.4426 C   0  0  0  0  0  0  0  0  0  0  0  0
   -1.4987   13.7622  -11.0653 N   0  0  0  0  0  0  0  0  0  0  0  0
   -2.2038   14.9363  -11.7527 C   0  0  0  0  0  0  0  0  0  0  0  0
   -3.6757   15.0331  -11.3164 C   0  0  0  0  0  0  0  0  0  0  0  0
   -6.0533   12.2736   -9.8759 H   0  0  0  0  0  0  0  0  0  0  0  0
   -8.1654   10.1188  -13.9034 H   0  0  0  0  0  0  0  0  0  0  0  0
   -6.8895   12.2606  -14.0918 H   0  0  0  0  0  0  0  0  0  0  0  0
   -8.1042   10.5401   -7.5827 H   0  0  0  0  0  0  0  0  0  0  0  0
   -7.3914    8.8914   -7.5630 H   0  0  0  0  0  0  0  0  0  0  0  0
   -5.3084   15.2634  -12.9141 H   0  0  0  0  0  0  0  0  0  0  0  0
   -4.8916    8.7819   -8.4894 H   0  0  0  0  0  0  0  0  0  0  0  0
   -2.6635    9.7568   -8.0443 H   0  0  0  0  0  0  0  0  0  0  0  0
   -4.5191   13.2898   -6.4771 H   0  0  0  0  0  0  0  0  0  0  0  0
   -6.7464   12.3131   -6.9146 H   0  0  0  0  0  0  0  0  0  0  0  0
   -2.4534   14.2220   -6.1936 H   0  0  0  0  0  0  0  0  0  0  0  0
   -0.6452   10.5982   -7.5816 H   0  0  0  0  0  0  0  0  0  0  0  0
    1.4489   14.3378   -6.0355 H   0  0  0  0  0  0  0  0  0  0  0  0
    0.1877   15.4858   -6.5992 H   0  0  0  0  0  0  0  0  0  0  0  0
    0.1350   14.8465   -4.9214 H   0  0  0  0  0  0  0  0  0  0  0  0
   -3.6944   12.5388   -9.8179 H   0  0  0  0  0  0  0  0  0  0  0  0
   -4.2365   11.6128  -11.2585 H   0  0  0  0  0  0  0  0  0  0  0  0
   -1.7018   11.6081  -10.9904 H   0  0  0  0  0  0  0  0  0  0  0  0
   -2.2305   12.3532  -12.5370 H   0  0  0  0  0  0  0  0  0  0  0  0
   -1.5260   13.8871  -10.0735 H   0  0  0  0  0  0  0  0  0  0  0  0
   -1.6882   15.8706  -11.4859 H   0  0  0  0  0  0  0  0  0  0  0  0
   -2.1612   14.7923  -12.8424 H   0  0  0  0  0  0  0  0  0  0  0  0
   -4.1860   15.7766  -11.9464 H   0  0  0  0  0  0  0  0  0  0  0  0
   -3.7154   15.3542  -10.2651 H   0  0  0  0  0  0  0  0  0  0  0  0
  1  2  1  0  0  0  0
  1  4  1  0  0  0  0
  1 12  2  3  0  0  0
  2  6  2  0  0  0  0
  3  4  2  0  0  0  0
  3  5  1  0  0  0  0
  5  6  1  0  0  0  0
  5  9  2  0  0  0  0
  6  7  1  0  0  0  0
  7  8  2  0  0  0  0
  7 10  1  0  0  0  0
  8  9  1  0  0  0  0
 10 14  1  0  0  0  0
 11 12  1  0  0  0  0
 11 26  1  0  0  0  0
 11 30  1  0  0  0  0
 12 13  1  0  0  0  0
 14 15  2  0  0  0  0
 14 19  1  0  0  0  0
 15 16  1  0  0  0  0
 16 17  2  0  0  0  0
 17 18  1  0  0  0  0
 17 20  1  0  0  0  0
 18 19  2  0  0  0  0
 20 21  2  0  0  0  0
 20 24  1  0  0  0  0
 21 22  1  0  0  0  0
 22 23  1  0  0  0  0
 22 25  1  0  0  0  0
 23 24  2  0  0  0  0
 26 27  1  0  0  0  0
 27 28  1  0  0  0  0
 28 29  1  0  0  0  0
 29 30  1  0  0  0  0
  2 31  1  0  0  0  0
  3 32  1  0  0  0  0
  4 33  1  0  0  0  0
 10 34  1  0  0  0  0
 10 35  1  0  0  0  0
 13 36  1  0  0  0  0
 15 37  1  0  0  0  0
 16 38  1  0  0  0  0
 18 39  1  0  0  0  0
 19 40  1  0  0  0  0
 21 41  1  0  0  0  0
 24 42  1  0  0  0  0
 25 43  1  0  0  0  0
 25 44  1  0  0  0  0
 25 45  1  0  0  0  0
 26 46  1  0  0  0  0
 26 47  1  0  0  0  0
 27 48  1  0  0  0  0
 27 49  1  0  0  0  0
 28 50  1  0  0  0  0
 29 51  1  0  0  0  0
 29 52  1  0  0  0  0
 30 53  1  0  0  0  0
 30 54  1  0  0  0  0
M  END
> <Name>
40

> <IC50[uM]>
0.007

$$$$
40
  -OEChem-05192314333D
 Structure written by MMmdl.
 54 58  0     1  0  0  0  0  0999 V2000
   -6.3583   12.3628  -12.0152 C   0  0  0  0  0  0  0  0  0  0  0  0
   -6.5007   11.8020  -10.7383 C   0  0  0  0  0  0  0  0  0  0  0  0
   -7.7096   10.5772  -13.0382 C   0  0  0  0  0  0  0  0  0  0  0  0
   -6.9777   11.7759  -13.1307 C   0  0  0  0  0  0  0  0  0  0  0  0
   -7.8132   10.0130  -11.7619 C   0  0  0  0  0  0  0  0  0  0  0  0
   -7.2338   10.6200  -10.6051 C   0  0  0  0  0  0  0  0  0  0  0  0
   -7.6121    9.7513   -9.5135 C   0  0  0  0  0  0  0  0  0  0  0  0
   -8.2831    8.7414   -9.9888 N   0  0  0  0  0  0  0  0  0  0  0  0
   -8.4159    8.8683  -11.3018 N   0  0  0  0  0  0  0  0  0  0  0  0
   -7.3364    9.8882   -8.0249 C   0  0  0  0  0  0  0  0  0  0  0  0
   -4.3745   13.7307  -11.4480 N   0  0  0  0  0  0  0  0  0  0  0  0
   -5.5401   13.6479  -12.1823 C   0  0  0  0  0  0  0  0  0  0  0  0
   -5.9305   14.5456  -12.9289 O   0  0  0  0  0  0  0  0  0  0  0  0
   -5.9622   10.4857   -7.7364 C   0  0  0  0  0  0  0  0  0  0  0  0
   -4.8106    9.7658   -8.0516 C   0  0  0  0  0  0  0  0  0  0  0  0
   -3.5548   10.3163   -7.8015 C   0  0  0  0  0  0  0  0  0  0  0  0
   -3.4456   11.5910   -7.2371 C   0  0  0  0  0  0  0  0  0  0  0  0
   -4.5995   12.3069   -6.9174 C   0  0  0  0  0  0  0  0  0  0  0  0
   -5.8550   11.7570   -7.1647 C   0  0  0  0  0  0  0  0  0  0  0  0
   -2.1008   12.1810   -6.9758 C   0  0  0  0  0  0  0  0  0  0  0  0
   -1.7660   13.4388   -6.4773 C   0  0  0  0  0  0  0  0  0  0  0  0
   -0.4314   13.4905   -6.4174 N   0  0  3  0  0  0  0  0  0  0  0  0
    0.1713   12.4042   -6.8124 N   0  0  0  0  0  0  0  0  0  0  0  0
   -0.8030   11.5879   -7.1791 C   0  0  0  0  0  0  0  0  0  0  0  0
    0.3850   14.6084   -5.9658 C   0  0  0  0  0  0  0  0  0  0  0  0
   -3.6973   12.5089  -10.9175 C   0  0  0  0  0  0  0  0  0  0  0  0
   -2.2248   12.4637  -11.4426 C   0  0  0  0  0  0  0  0  0  0  0  0
   -1.4987   13.7622  -11.0653 N   0  0  0  0  0  0  0  0  0  0  0  0
   -2.2038   14.9363  -11.7527 C   0  0  0  0  0  0  0  0  0  0  0  0
   -3.6757   15.0331  -11.3164 C   0  0  0  0  0  0  0  0  0  0  0  0
   -6.0533   12.2736   -9.8759 H   0  0  0  0  0  0  0  0  0  0  0  0
   -8.1654   10.1188  -13.9034 H   0  0  0  0  0  0  0  0  0  0  0  0
   -6.8895   12.2606  -14.0918 H   0  0  0  0  0  0  0  0  0  0  0  0
   -8.0360    9.5949   -7.2562 H   0  0  0  0  0  0  0  0  0  0  0  0
   -5.3084   15.2634  -12.9141 H   0  0  0  0  0  0  0  0  0  0  0  0
   -4.8916    8.7819   -8.4894 H   0  0  0  0  0  0  0  0  0  0  0  0
   -2.6635    9.7568   -8.0443 H   0  0  0  0  0  0  0  0  0  0  0  0
   -4.5191   13.2898   -6.4771 H   0  0  0  0  0  0  0  0  0  0  0  0
   -6.7464   12.3131   -6.9146 H   0  0  0  0  0  0  0  0  0  0  0  0
   -2.1452   14.2244   -7.1474 H   0  0  0  0  0  0  0  0  0  0  0  0
   -2.1952   13.5743   -5.4736 H   0  0  0  0  0  0  0  0  0  0  0  0
   -0.6452   10.5982   -7.5816 H   0  0  0  0  0  0  0  0  0  0  0  0
    1.4489   14.3378   -6.0355 H   0  0  0  0  0  0  0  0  0  0  0  0
    0.1877   15.4858   -6.5992 H   0  0  0  0  0  0  0  0  0  0  0  0
    0.1350   14.8465   -4.9214 H   0  0  0  0  0  0  0  0  0  0  0  0
   -3.6944   12.5388   -9.8179 H   0  0  0  0  0  0  0  0  0  0  0  0
   -4.2365   11.6128  -11.2585 H   0  0  0  0  0  0  0  0  0  0  0  0
   -1.7018   11.6081  -10.9904 H   0  0  0  0  0  0  0  0  0  0  0  0
   -2.2305   12.3532  -12.5370 H   0  0  0  0  0  0  0  0  0  0  0  0
   -1.5260   13.8871  -10.0735 H   0  0  0  0  0  0  0  0  0  0  0  0
   -1.6882   15.8706  -11.4859 H   0  0  0  0  0  0  0  0  0  0  0  0
   -2.1612   14.7923  -12.8424 H   0  0  0  0  0  0  0  0  0  0  0  0
   -4.1860   15.7766  -11.9464 H   0  0  0  0  0  0  0  0  0  0  0  0
   -3.7154   15.3542  -10.2651 H   0  0  0  0  0  0  0  0  0  0  0  0
  1  2  1  0  0  0  0
  1  4  1  0  0  0  0
  1 12  2  3  0  0  0
  2  6  2  0  0  0  0
  3  4  2  0  0  0  0
  3  5  1  0  0  0  0
  5  6  1  0  0  0  0
  5  9  2  0  0  0  0
  6  7  1  0  0  0  0
  7  8  2  0  0  0  0
  7 10  1  0  0  0  0
  8  9  1  0  0  0  0
 10 14  2  0  0  0  0
 11 12  1  0  0  0  0
 11 26  1  0  0  0  0
 11 30  1  0  0  0  0
 12 13  1  0  0  0  0
 14 15  1  0  0  0  0
 14 19  1  0  0  0  0
 15 16  2  0  0  0  0
 16 17  1  0  0  0  0
 17 18  1  0  0  0  0
 17 20  2  0  0  0  0
 18 19  2  0  0  0  0
 20 21  1  0  0  0  0
 20 24  1  0  0  0  0
 21 22  1  0  0  0  0
 22 23  1  0  0  0  0
 22 25  1  0  0  0  0
 23 24  2  0  0  0  0
 26 27  1  0  0  0  0
 27 28  1  0  0  0  0
 28 29  1  0  0  0  0
 29 30  1  0  0  0  0
  2 31  1  0  0  0  0
  3 32  1  0  0  0  0
  4 33  1  0  0  0  0
 10 34  1  0  0  0  0
 13 35  1  0  0  0  0
 15 36  1  0  0  0  0
 16 37  1  0  0  0  0
 18 38  1  0  0  0  0
 19 39  1  0  0  0  0
 21 40  1  0  0  0  0
 21 41  1  0  0  0  0
 24 42  1  0  0  0  0
 25 43  1  0  0  0  0
 25 44  1  0  0  0  0
 25 45  1  0  0  0  0
 26 46  1  0  0  0  0
 26 47  1  0  0  0  0
 27 48  1  0  0  0  0
 27 49  1  0  0  0  0
 28 50  1  0  0  0  0
 29 51  1  0  0  0  0
 29 52  1  0  0  0  0
 30 53  1  0  0  0  0
 30 54  1  0  0  0  0
M  END
> <Name>
40

> <IC50[uM]>
0.007

$$$$
40
  -OEChem-05192314333D
 Structure written by MMmdl.
 54 58  0     1  0  0  0  0  0999 V2000
   -6.3583   12.3628  -12.0152 C   0  0  0  0  0  0  0  0  0  0  0  0
   -6.5007   11.8020  -10.7383 C   0  0  0  0  0  0  0  0  0  0  0  0
   -7.7096   10.5772  -13.0382 C   0  0  0  0  0  0  0  0  0  0  0  0
   -6.9777   11.7759  -13.1307 C   0  0  0  0  0  0  0  0  0  0  0  0
   -7.8132   10.0130  -11.7619 C   0  0  3  0  0  0  0  0  0  0  0  0
   -7.2338   10.6200  -10.6051 C   0  0  0  0  0  0  0  0  0  0  0  0
   -7.6121    9.7513   -9.5135 C   0  0  0  0  0  0  0  0  0  0  0  0
   -8.2831    8.7414   -9.9888 N   0  0  0  0  0  0  0  0  0  0  0  0
   -8.4159    8.8683  -11.3018 N   0  0  0  0  0  0  0  0  0  0  0  0
   -7.3364    9.8882   -8.0249 C   0  0  0  0  0  0  0  0  0  0  0  0
   -4.3745   13.7307  -11.4480 N   0  0  0  0  0  0  0  0  0  0  0  0
   -5.5401   13.6479  -12.1823 C   0  0  0  0  0  0  0  0  0  0  0  0
   -5.9305   14.5456  -12.9289 O   0  0  0  0  0  0  0  0  0  0  0  0
   -5.9622   10.4857   -7.7364 C   0  0  0  0  0  0  0  0  0  0  0  0
   -4.8106    9.7658   -8.0516 C   0  0  0  0  0  0  0  0  0  0  0  0
   -3.5548   10.3163   -7.8015 C   0  0  0  0  0  0  0  0  0  0  0  0
   -3.4456   11.5910   -7.2371 C   0  0  0  0  0  0  0  0  0  0  0  0
   -4.5995   12.3069   -6.9174 C   0  0  0  0  0  0  0  0  0  0  0  0
   -5.8550   11.7570   -7.1647 C   0  0  0  0  0  0  0  0  0  0  0  0
   -2.1008   12.1810   -6.9758 C   0  0  0  0  0  0  0  0  0  0  0  0
   -1.7660   13.4388   -6.4773 C   0  0  0  0  0  0  0  0  0  0  0  0
   -0.4314   13.4905   -6.4174 N   0  0  0  0  0  0  0  0  0  0  0  0
    0.1713   12.4042   -6.8124 N   0  0  0  0  0  0  0  0  0  0  0  0
   -0.8030   11.5879   -7.1791 C   0  0  0  0  0  0  0  0  0  0  0  0
    0.3850   14.6084   -5.9658 C   0  0  0  0  0  0  0  0  0  0  0  0
   -3.6973   12.5089  -10.9175 C   0  0  0  0  0  0  0  0  0  0  0  0
   -2.2248   12.4637  -11.4426 C   0  0  0  0  0  0  0  0  0  0  0  0
   -1.4987   13.7622  -11.0653 N   0  0  0  0  0  0  0  0  0  0  0  0
   -2.2038   14.9363  -11.7527 C   0  0  0  0  0  0  0  0  0  0  0  0
   -3.6757   15.0331  -11.3164 C   0  0  0  0  0  0  0  0  0  0  0  0
   -6.0533   12.2736   -9.8759 H   0  0  0  0  0  0  0  0  0  0  0  0
   -8.1654   10.1188  -13.9034 H   0  0  0  0  0  0  0  0  0  0  0  0
   -6.8895   12.2606  -14.0918 H   0  0  0  0  0  0  0  0  0  0  0  0
   -8.7443   10.5728  -11.5897 H   0  0  0  0  0  0  0  0  0  0  0  0
   -8.0360    9.5949   -7.2562 H   0  0  0  0  0  0  0  0  0  0  0  0
   -5.3084   15.2634  -12.9141 H   0  0  0  0  0  0  0  0  0  0  0  0
   -4.8916    8.7819   -8.4894 H   0  0  0  0  0  0  0  0  0  0  0  0
   -2.6635    9.7568   -8.0443 H   0  0  0  0  0  0  0  0  0  0  0  0
   -4.5191   13.2898   -6.4771 H   0  0  0  0  0  0  0  0  0  0  0  0
   -6.7464   12.3131   -6.9146 H   0  0  0  0  0  0  0  0  0  0  0  0
   -2.4534   14.2220   -6.1936 H   0  0  0  0  0  0  0  0  0  0  0  0
   -0.6452   10.5982   -7.5816 H   0  0  0  0  0  0  0  0  0  0  0  0
    1.4489   14.3378   -6.0355 H   0  0  0  0  0  0  0  0  0  0  0  0
    0.1877   15.4858   -6.5992 H   0  0  0  0  0  0  0  0  0  0  0  0
    0.1350   14.8465   -4.9214 H   0  0  0  0  0  0  0  0  0  0  0  0
   -3.6944   12.5388   -9.8179 H   0  0  0  0  0  0  0  0  0  0  0  0
   -4.2365   11.6128  -11.2585 H   0  0  0  0  0  0  0  0  0  0  0  0
   -1.7018   11.6081  -10.9904 H   0  0  0  0  0  0  0  0  0  0  0  0
   -2.2305   12.3532  -12.5370 H   0  0  0  0  0  0  0  0  0  0  0  0
   -1.5260   13.8871  -10.0735 H   0  0  0  0  0  0  0  0  0  0  0  0
   -1.6882   15.8706  -11.4859 H   0  0  0  0  0  0  0  0  0  0  0  0
   -2.1612   14.7923  -12.8424 H   0  0  0  0  0  0  0  0  0  0  0  0
   -4.1860   15.7766  -11.9464 H   0  0  0  0  0  0  0  0  0  0  0  0
   -3.7154   15.3542  -10.2651 H   0  0  0  0  0  0  0  0  0  0  0  0
  1  2  1  0  0  0  0
  1  4  1  0  0  0  0
  1 12  2  3  0  0  0
  2  6  2  0  0  0  0
  3  4  2  0  0  0  0
  3  5  1  0  0  0  0
  5  6  1  0  0  0  0
  5  9  1  0  0  0  0
  6  7  1  0  0  0  0
  7  8  1  0  0  0  0
  7 10  2  3  0  0  0
  8  9  2  0  0  0  0
 10 14  1  0  0  0  0
 11 12  1  0  0  0  0
 11 26  1  0  0  0  0
 11 30  1  0  0  0  0
 12 13  1  0  0  0  0
 14 15  2  0  0  0  0
 14 19  1  0  0  0  0
 15 16  1  0  0  0  0
 16 17  2  0  0  0  0
 17 18  1  0  0  0  0
 17 20  1  0  0  0  0
 18 19  2  0  0  0  0
 20 21  2  0  0  0  0
 20 24  1  0  0  0  0
 21 22  1  0  0  0  0
 22 23  1  0  0  0  0
 22 25  1  0  0  0  0
 23 24  2  0  0  0  0
 26 27  1  0  0  0  0
 27 28  1  0  0  0  0
 28 29  1  0  0  0  0
 29 30  1  0  0  0  0
  2 31  1  0  0  0  0
  3 32  1  0  0  0  0
  4 33  1  0  0  0  0
  5 34  1  0  0  0  0
 10 35  1  0  0  0  0
 13 36  1  0  0  0  0
 15 37  1  0  0  0  0
 16 38  1  0  0  0  0
 18 39  1  0  0  0  0
 19 40  1  0  0  0  0
 21 41  1  0  0  0  0
 24 42  1  0  0  0  0
 25 43  1  0  0  0  0
 25 44  1  0  0  0  0
 25 45  1  0  0  0  0
 26 46  1  0  0  0  0
 26 47  1  0  0  0  0
 27 48  1  0  0  0  0
 27 49  1  0  0  0  0
 28 50  1  0  0  0  0
 29 51  1  0  0  0  0
 29 52  1  0  0  0  0
 30 53  1  0  0  0  0
 30 54  1  0  0  0  0
M  END
> <Name>
40

> <IC50[uM]>
0.007

$$$$
40
  -OEChem-05192314333D
 Structure written by MMmdl.
 54 58  0     0  0  0  0  0  0999 V2000
   -6.3583   12.3628  -12.0152 C   0  0  0  0  0  0  0  0  0  0  0  0
   -6.5007   11.8020  -10.7383 C   0  0  0  0  0  0  0  0  0  0  0  0
   -7.7096   10.5772  -13.0382 C   0  0  0  0  0  0  0  0  0  0  0  0
   -6.9777   11.7759  -13.1307 C   0  0  0  0  0  0  0  0  0  0  0  0
   -7.8132   10.0130  -11.7619 C   0  0  0  0  0  0  0  0  0  0  0  0
   -7.2338   10.6200  -10.6051 C   0  0  0  0  0  0  0  0  0  0  0  0
   -7.6121    9.7513   -9.5135 C   0  0  0  0  0  0  0  0  0  0  0  0
   -8.2831    8.7414   -9.9888 N   0  0  0  0  0  0  0  0  0  0  0  0
   -8.4159    8.8683  -11.3018 N   0  0  0  0  0  0  0  0  0  0  0  0
   -7.3364    9.8882   -8.0249 C   0  0  0  0  0  0  0  0  0  0  0  0
   -4.3745   13.7307  -11.4480 N   0  0  0  0  0  0  0  0  0  0  0  0
   -5.5401   13.6479  -12.1823 C   0  0  0  0  0  0  0  0  0  0  0  0
   -5.9305   14.5456  -12.9289 O   0  0  0  0  0  0  0  0  0  0  0  0
   -5.9622   10.4857   -7.7364 C   0  0  0  0  0  0  0  0  0  0  0  0
   -4.8106    9.7658   -8.0516 C   0  0  0  0  0  0  0  0  0  0  0  0
   -3.5548   10.3163   -7.8015 C   0  0  0  0  0  0  0  0  0  0  0  0
   -3.4456   11.5910   -7.2371 C   0  0  0  0  0  0  0  0  0  0  0  0
   -4.5995   12.3069   -6.9174 C   0  0  0  0  0  0  0  0  0  0  0  0
   -5.8550   11.7570   -7.1647 C   0  0  0  0  0  0  0  0  0  0  0  0
   -2.1008   12.1810   -6.9758 C   0  0  0  0  0  0  0  0  0  0  0  0
   -1.7660   13.4388   -6.4773 C   0  0  0  0  0  0  0  0  0  0  0  0
   -0.4314   13.4905   -6.4174 N   0  0  0  0  0  0  0  0  0  0  0  0
    0.1713   12.4042   -6.8124 N   0  0  0  0  0  0  0  0  0  0  0  0
   -0.8030   11.5879   -7.1791 C   0  0  0  0  0  0  0  0  0  0  0  0
    0.3850   14.6084   -5.9658 C   0  0  0  0  0  0  0  0  0  0  0  0
   -3.6973   12.5089  -10.9175 C   0  0  0  0  0  0  0  0  0  0  0  0
   -2.2248   12.4637  -11.4426 C   0  0  0  0  0  0  0  0  0  0  0  0
   -1.4987   13.7622  -11.0653 N   0  0  0  0  0  0  0  0  0  0  0  0
   -2.2038   14.9363  -11.7527 C   0  0  0  0  0  0  0  0  0  0  0  0
   -3.6757   15.0331  -11.3164 C   0  0  0  0  0  0  0  0  0  0  0  0
   -6.0533   12.2736   -9.8759 H   0  0  0  0  0  0  0  0  0  0  0  0
   -8.1654   10.1188  -13.9034 H   0  0  0  0  0  0  0  0  0  0  0  0
   -7.6730   12.5301  -13.5278 H   0  0  0  0  0  0  0  0  0  0  0  0
   -6.1786   11.5918  -13.8639 H   0  0  0  0  0  0  0  0  0  0  0  0
   -8.0360    9.5949   -7.2562 H   0  0  0  0  0  0  0  0  0  0  0  0
   -5.3084   15.2634  -12.9141 H   0  0  0  0  0  0  0  0  0  0  0  0
   -4.8916    8.7819   -8.4894 H   0  0  0  0  0  0  0  0  0  0  0  0
   -2.6635    9.7568   -8.0443 H   0  0  0  0  0  0  0  0  0  0  0  0
   -4.5191   13.2898   -6.4771 H   0  0  0  0  0  0  0  0  0  0  0  0
   -6.7464   12.3131   -6.9146 H   0  0  0  0  0  0  0  0  0  0  0  0
   -2.4534   14.2220   -6.1936 H   0  0  0  0  0  0  0  0  0  0  0  0
   -0.6452   10.5982   -7.5816 H   0  0  0  0  0  0  0  0  0  0  0  0
    1.4489   14.3378   -6.0355 H   0  0  0  0  0  0  0  0  0  0  0  0
    0.1877   15.4858   -6.5992 H   0  0  0  0  0  0  0  0  0  0  0  0
    0.1350   14.8465   -4.9214 H   0  0  0  0  0  0  0  0  0  0  0  0
   -3.6944   12.5388   -9.8179 H   0  0  0  0  0  0  0  0  0  0  0  0
   -4.2365   11.6128  -11.2585 H   0  0  0  0  0  0  0  0  0  0  0  0
   -1.7018   11.6081  -10.9904 H   0  0  0  0  0  0  0  0  0  0  0  0
   -2.2305   12.3532  -12.5370 H   0  0  0  0  0  0  0  0  0  0  0  0
   -1.5260   13.8871  -10.0735 H   0  0  0  0  0  0  0  0  0  0  0  0
   -1.6882   15.8706  -11.4859 H   0  0  0  0  0  0  0  0  0  0  0  0
   -2.1612   14.7923  -12.8424 H   0  0  0  0  0  0  0  0  0  0  0  0
   -4.1860   15.7766  -11.9464 H   0  0  0  0  0  0  0  0  0  0  0  0
   -3.7154   15.3542  -10.2651 H   0  0  0  0  0  0  0  0  0  0  0  0
  1  2  1  0  0  0  0
  1  4  1  0  0  0  0
  1 12  2  3  0  0  0
  2  6  2  0  0  0  0
  3  4  1  0  0  0  0
  3  5  2  0  0  0  0
  5  6  1  0  0  0  0
  5  9  1  0  0  0  0
  6  7  1  0  0  0  0
  7  8  1  0  0  0  0
  7 10  2  3  0  0  0
  8  9  2  0  0  0  0
 10 14  1  0  0  0  0
 11 12  1  0  0  0  0
 11 26  1  0  0  0  0
 11 30  1  0  0  0  0
 12 13  1  0  0  0  0
 14 15  2  0  0  0  0
 14 19  1  0  0  0  0
 15 16  1  0  0  0  0
 16 17  2  0  0  0  0
 17 18  1  0  0  0  0
 17 20  1  0  0  0  0
 18 19  2  0  0  0  0
 20 21  2  0  0  0  0
 20 24  1  0  0  0  0
 21 22  1  0  0  0  0
 22 23  1  0  0  0  0
 22 25  1  0  0  0  0
 23 24  2  0  0  0  0
 26 27  1  0  0  0  0
 27 28  1  0  0  0  0
 28 29  1  0  0  0  0
 29 30  1  0  0  0  0
  2 31  1  0  0  0  0
  3 32  1  0  0  0  0
  4 33  1  0  0  0  0
  4 34  1  0  0  0  0
 10 35  1  0  0  0  0
 13 36  1  0  0  0  0
 15 37  1  0  0  0  0
 16 38  1  0  0  0  0
 18 39  1  0  0  0  0
 19 40  1  0  0  0  0
 21 41  1  0  0  0  0
 24 42  1  0  0  0  0
 25 43  1  0  0  0  0
 25 44  1  0  0  0  0
 25 45  1  0  0  0  0
 26 46  1  0  0  0  0
 26 47  1  0  0  0  0
 27 48  1  0  0  0  0
 27 49  1  0  0  0  0
 28 50  1  0  0  0  0
 29 51  1  0  0  0  0
 29 52  1  0  0  0  0
 30 53  1  0  0  0  0
 30 54  1  0  0  0  0
M  END
> <Name>
40

> <IC50[uM]>
0.007

$$$$
40
  -OEChem-05192314333D
 Structure written by MMmdl.
 54 58  0     0  0  0  0  0  0999 V2000
   -6.3583   12.3628  -12.0152 C   0  0  0  0  0  0  0  0  0  0  0  0
   -6.5007   11.8020  -10.7383 C   0  0  0  0  0  0  0  0  0  0  0  0
   -7.7096   10.5772  -13.0382 C   0  0  0  0  0  0  0  0  0  0  0  0
   -6.9777   11.7759  -13.1307 C   0  0  0  0  0  0  0  0  0  0  0  0
   -7.8132   10.0130  -11.7619 C   0  0  0  0  0  0  0  0  0  0  0  0
   -7.2338   10.6200  -10.6051 C   0  0  0  0  0  0  0  0  0  0  0  0
   -7.6121    9.7513   -9.5135 C   0  0  0  0  0  0  0  0  0  0  0  0
   -8.2831    8.7414   -9.9888 N   0  0  0  0  0  0  0  0  0  0  0  0
   -8.4159    8.8683  -11.3018 N   0  0  0  0  0  0  0  0  0  0  0  0
   -7.3364    9.8882   -8.0249 C   0  0  0  0  0  0  0  0  0  0  0  0
   -4.3745   13.7307  -11.4480 N   0  0  0  0  0  0  0  0  0  0  0  0
   -5.5401   13.6479  -12.1823 C   0  0  0  0  0  0  0  0  0  0  0  0
   -5.9305   14.5456  -12.9289 O   0  0  0  0  0  0  0  0  0  0  0  0
   -5.9622   10.4857   -7.7364 C   0  0  0  0  0  0  0  0  0  0  0  0
   -4.8106    9.7658   -8.0516 C   0  0  0  0  0  0  0  0  0  0  0  0
   -3.5548   10.3163   -7.8015 C   0  0  0  0  0  0  0  0  0  0  0  0
   -3.4456   11.5910   -7.2371 C   0  0  0  0  0  0  0  0  0  0  0  0
   -4.5995   12.3069   -6.9174 C   0  0  0  0  0  0  0  0  0  0  0  0
   -5.8550   11.7570   -7.1647 C   0  0  0  0  0  0  0  0  0  0  0  0
   -2.1008   12.1810   -6.9758 C   0  0  0  0  0  0  0  0  0  0  0  0
   -1.7660   13.4388   -6.4773 C   0  0  0  0  0  0  0  0  0  0  0  0
   -0.4314   13.4905   -6.4174 N   0  0  0  0  0  0  0  0  0  0  0  0
    0.1713   12.4042   -6.8124 N   0  0  0  0  0  0  0  0  0  0  0  0
   -0.8030   11.5879   -7.1791 C   0  0  0  0  0  0  0  0  0  0  0  0
    0.3850   14.6084   -5.9658 C   0  0  0  0  0  0  0  0  0  0  0  0
   -3.6973   12.5089  -10.9175 C   0  0  0  0  0  0  0  0  0  0  0  0
   -2.2248   12.4637  -11.4426 C   0  0  0  0  0  0  0  0  0  0  0  0
   -1.4987   13.7622  -11.0653 N   0  0  0  0  0  0  0  0  0  0  0  0
   -2.2038   14.9363  -11.7527 C   0  0  0  0  0  0  0  0  0  0  0  0
   -3.6757   15.0331  -11.3164 C   0  0  0  0  0  0  0  0  0  0  0  0
   -5.4884   11.6004  -10.3579 H   0  0  0  0  0  0  0  0  0  0  0  0
   -6.9867   12.5582  -10.1044 H   0  0  0  0  0  0  0  0  0  0  0  0
   -8.1654   10.1188  -13.9034 H   0  0  0  0  0  0  0  0  0  0  0  0
   -6.8895   12.2606  -14.0918 H   0  0  0  0  0  0  0  0  0  0  0  0
   -8.0360    9.5949   -7.2562 H   0  0  0  0  0  0  0  0  0  0  0  0
   -5.3084   15.2634  -12.9141 H   0  0  0  0  0  0  0  0  0  0  0  0
   -4.8916    8.7819   -8.4894 H   0  0  0  0  0  0  0  0  0  0  0  0
   -2.6635    9.7568   -8.0443 H   0  0  0  0  0  0  0  0  0  0  0  0
   -4.5191   13.2898   -6.4771 H   0  0  0  0  0  0  0  0  0  0  0  0
   -6.7464   12.3131   -6.9146 H   0  0  0  0  0  0  0  0  0  0  0  0
   -2.4534   14.2220   -6.1936 H   0  0  0  0  0  0  0  0  0  0  0  0
   -0.6452   10.5982   -7.5816 H   0  0  0  0  0  0  0  0  0  0  0  0
    1.4489   14.3378   -6.0355 H   0  0  0  0  0  0  0  0  0  0  0  0
    0.1877   15.4858   -6.5992 H   0  0  0  0  0  0  0  0  0  0  0  0
    0.1350   14.8465   -4.9214 H   0  0  0  0  0  0  0  0  0  0  0  0
   -3.6944   12.5388   -9.8179 H   0  0  0  0  0  0  0  0  0  0  0  0
   -4.2365   11.6128  -11.2585 H   0  0  0  0  0  0  0  0  0  0  0  0
   -1.7018   11.6081  -10.9904 H   0  0  0  0  0  0  0  0  0  0  0  0
   -2.2305   12.3532  -12.5370 H   0  0  0  0  0  0  0  0  0  0  0  0
   -1.5260   13.8871  -10.0735 H   0  0  0  0  0  0  0  0  0  0  0  0
   -1.6882   15.8706  -11.4859 H   0  0  0  0  0  0  0  0  0  0  0  0
   -2.1612   14.7923  -12.8424 H   0  0  0  0  0  0  0  0  0  0  0  0
   -4.1860   15.7766  -11.9464 H   0  0  0  0  0  0  0  0  0  0  0  0
   -3.7154   15.3542  -10.2651 H   0  0  0  0  0  0  0  0  0  0  0  0
  1  2  1  0  0  0  0
  1  4  1  0  0  0  0
  1 12  2  3  0  0  0
  2  6  1  0  0  0  0
  3  4  2  0  0  0  0
  3  5  1  0  0  0  0
  5  6  2  0  0  0  0
  5  9  1  0  0  0  0
  6  7  1  0  0  0  0
  7  8  1  0  0  0  0
  7 10  2  3  0  0  0
  8  9  2  0  0  0  0
 10 14  1  0  0  0  0
 11 12  1  0  0  0  0
 11 26  1  0  0  0  0
 11 30  1  0  0  0  0
 12 13  1  0  0  0  0
 14 15  2  0  0  0  0
 14 19  1  0  0  0  0
 15 16  1  0  0  0  0
 16 17  2  0  0  0  0
 17 18  1  0  0  0  0
 17 20  1  0  0  0  0
 18 19  2  0  0  0  0
 20 21  2  0  0  0  0
 20 24  1  0  0  0  0
 21 22  1  0  0  0  0
 22 23  1  0  0  0  0
 22 25  1  0  0  0  0
 23 24  2  0  0  0  0
 26 27  1  0  0  0  0
 27 28  1  0  0  0  0
 28 29  1  0  0  0  0
 29 30  1  0  0  0  0
  2 31  1  0  0  0  0
  2 32  1  0  0  0  0
  3 33  1  0  0  0  0
  4 34  1  0  0  0  0
 10 35  1  0  0  0  0
 13 36  1  0  0  0  0
 15 37  1  0  0  0  0
 16 38  1  0  0  0  0
 18 39  1  0  0  0  0
 19 40  1  0  0  0  0
 21 41  1  0  0  0  0
 24 42  1  0  0  0  0
 25 43  1  0  0  0  0
 25 44  1  0  0  0  0
 25 45  1  0  0  0  0
 26 46  1  0  0  0  0
 26 47  1  0  0  0  0
 27 48  1  0  0  0  0
 27 49  1  0  0  0  0
 28 50  1  0  0  0  0
 29 51  1  0  0  0  0
 29 52  1  0  0  0  0
 30 53  1  0  0  0  0
 30 54  1  0  0  0  0
M  END
> <Name>
40

> <IC50[uM]>
0.007

$$$$
40
  -OEChem-05192314333D
 Structure written by MMmdl.
 54 58  0     0  0  0  0  0  0999 V2000
   -6.3583   12.3628  -12.0152 C   0  0  0  0  0  0  0  0  0  0  0  0
   -6.5007   11.8020  -10.7383 C   0  0  0  0  0  0  0  0  0  0  0  0
   -7.7096   10.5772  -13.0382 C   0  0  0  0  0  0  0  0  0  0  0  0
   -6.9777   11.7759  -13.1307 C   0  0  0  0  0  0  0  0  0  0  0  0
   -7.8132   10.0130  -11.7619 C   0  0  0  0  0  0  0  0  0  0  0  0
   -7.2338   10.6200  -10.6051 C   0  0  0  0  0  0  0  0  0  0  0  0
   -7.6121    9.7513   -9.5135 C   0  0  0  0  0  0  0  0  0  0  0  0
   -8.2831    8.7414   -9.9888 N   0  0  0  0  0  0  0  0  0  0  0  0
   -8.4159    8.8683  -11.3018 N   0  0  0  0  0  0  0  0  0  0  0  0
   -7.3364    9.8882   -8.0249 C   0  0  0  0  0  0  0  0  0  0  0  0
   -4.3745   13.7307  -11.4480 N   0  0  0  0  0  0  0  0  0  0  0  0
   -5.5401   13.6479  -12.1823 C   0  0  0  0  0  0  0  0  0  0  0  0
   -5.9305   14.5456  -12.9289 O   0  0  0  0  0  0  0  0  0  0  0  0
   -5.9622   10.4857   -7.7364 C   0  0  0  0  0  0  0  0  0  0  0  0
   -4.8106    9.7658   -8.0516 C   0  0  0  0  0  0  0  0  0  0  0  0
   -3.5548   10.3163   -7.8015 C   0  0  0  0  0  0  0  0  0  0  0  0
   -3.4456   11.5910   -7.2371 C   0  0  0  0  0  0  0  0  0  0  0  0
   -4.5995   12.3069   -6.9174 C   0  0  0  0  0  0  0  0  0  0  0  0
   -5.8550   11.7570   -7.1647 C   0  0  0  0  0  0  0  0  0  0  0  0
   -2.1008   12.1810   -6.9758 C   0  0  0  0  0  0  0  0  0  0  0  0
   -1.7660   13.4388   -6.4773 C   0  0  0  0  0  0  0  0  0  0  0  0
   -0.4314   13.4905   -6.4174 N   0  0  0  0  0  0  0  0  0  0  0  0
    0.1713   12.4042   -6.8124 N   0  0  0  0  0  0  0  0  0  0  0  0
   -0.8030   11.5879   -7.1791 C   0  0  0  0  0  0  0  0  0  0  0  0
    0.3850   14.6084   -5.9658 C   0  0  0  0  0  0  0  0  0  0  0  0
   -3.6973   12.5089  -10.9175 C   0  0  0  0  0  0  0  0  0  0  0  0
   -2.2248   12.4637  -11.4426 C   0  0  0  0  0  0  0  0  0  0  0  0
   -1.4987   13.7622  -11.0653 N   0  0  0  0  0  0  0  0  0  0  0  0
   -2.2038   14.9363  -11.7527 C   0  0  0  0  0  0  0  0  0  0  0  0
   -3.6757   15.0331  -11.3164 C   0  0  0  0  0  0  0  0  0  0  0  0
   -6.0533   12.2736   -9.8759 H   0  0  0  0  0  0  0  0  0  0  0  0
   -8.1654   10.1188  -13.9034 H   0  0  0  0  0  0  0  0  0  0  0  0
   -6.8895   12.2606  -14.0918 H   0  0  0  0  0  0  0  0  0  0  0  0
   -8.0360    9.5949   -7.2562 H   0  0  0  0  0  0  0  0  0  0  0  0
   -5.3084   15.2634  -12.9141 H   0  0  0  0  0  0  0  0  0  0  0  0
   -4.8916    8.7819   -8.4894 H   0  0  0  0  0  0  0  0  0  0  0  0
   -2.6635    9.7568   -8.0443 H   0  0  0  0  0  0  0  0  0  0  0  0
   -3.4466   12.0370   -8.2426 H   0  0  0  0  0  0  0  0  0  0  0  0
   -4.5191   13.2898   -6.4771 H   0  0  0  0  0  0  0  0  0  0  0  0
   -6.7464   12.3131   -6.9146 H   0  0  0  0  0  0  0  0  0  0  0  0
   -2.4534   14.2220   -6.1936 H   0  0  0  0  0  0  0  0  0  0  0  0
   -0.6452   10.5982   -7.5816 H   0  0  0  0  0  0  0  0  0  0  0  0
    1.4489   14.3378   -6.0355 H   0  0  0  0  0  0  0  0  0  0  0  0
    0.1877   15.4858   -6.5992 H   0  0  0  0  0  0  0  0  0  0  0  0
    0.1350   14.8465   -4.9214 H   0  0  0  0  0  0  0  0  0  0  0  0
   -3.6944   12.5388   -9.8179 H   0  0  0  0  0  0  0  0  0  0  0  0
   -4.2365   11.6128  -11.2585 H   0  0  0  0  0  0  0  0  0  0  0  0
   -1.7018   11.6081  -10.9904 H   0  0  0  0  0  0  0  0  0  0  0  0
   -2.2305   12.3532  -12.5370 H   0  0  0  0  0  0  0  0  0  0  0  0
   -1.5260   13.8871  -10.0735 H   0  0  0  0  0  0  0  0  0  0  0  0
   -1.6882   15.8706  -11.4859 H   0  0  0  0  0  0  0  0  0  0  0  0
   -2.1612   14.7923  -12.8424 H   0  0  0  0  0  0  0  0  0  0  0  0
   -4.1860   15.7766  -11.9464 H   0  0  0  0  0  0  0  0  0  0  0  0
   -3.7154   15.3542  -10.2651 H   0  0  0  0  0  0  0  0  0  0  0  0
  1  2  1  0  0  0  0
  1  4  1  0  0  0  0
  1 12  2  3  0  0  0
  2  6  2  0  0  0  0
  3  4  2  0  0  0  0
  3  5  1  0  0  0  0
  5  6  1  0  0  0  0
  5  9  2  0  0  0  0
  6  7  1  0  0  0  0
  7  8  2  0  0  0  0
  7 10  1  0  0  0  0
  8  9  1  0  0  0  0
 10 14  2  0  0  0  0
 11 12  1  0  0  0  0
 11 26  1  0  0  0  0
 11 30  1  0  0  0  0
 12 13  1  0  0  0  0
 14 15  1  0  0  0  0
 14 19  1  0  0  0  0
 15 16  2  0  0  0  0
 16 17  1  0  0  0  0
 17 18  1  0  0  0  0
 17 20  1  0  0  0  0
 18 19  2  0  0  0  0
 20 21  2  0  0  0  0
 20 24  1  0  0  0  0
 21 22  1  0  0  0  0
 22 23  1  0  0  0  0
 22 25  1  0  0  0  0
 23 24  2  0  0  0  0
 26 27  1  0  0  0  0
 27 28  1  0  0  0  0
 28 29  1  0  0  0  0
 29 30  1  0  0  0  0
  2 31  1  0  0  0  0
  3 32  1  0  0  0  0
  4 33  1  0  0  0  0
 10 34  1  0  0  0  0
 13 35  1  0  0  0  0
 15 36  1  0  0  0  0
 16 37  1  0  0  0  0
 17 38  1  0  0  0  0
 18 39  1  0  0  0  0
 19 40  1  0  0  0  0
 21 41  1  0  0  0  0
 24 42  1  0  0  0  0
 25 43  1  0  0  0  0
 25 44  1  0  0  0  0
 25 45  1  0  0  0  0
 26 46  1  0  0  0  0
 26 47  1  0  0  0  0
 27 48  1  0  0  0  0
 27 49  1  0  0  0  0
 28 50  1  0  0  0  0
 29 51  1  0  0  0  0
 29 52  1  0  0  0  0
 30 53  1  0  0  0  0
 30 54  1  0  0  0  0
M  END
> <Name>
40

> <IC50[uM]>
0.007

$$$$
40
  -OEChem-05192314333D
 Structure written by MMmdl.
 54 58  0     0  0  0  0  0  0999 V2000
   -6.3583   12.3628  -12.0152 C   0  0  0  0  0  0  0  0  0  0  0  0
   -6.5007   11.8020  -10.7383 C   0  0  0  0  0  0  0  0  0  0  0  0
   -7.7096   10.5772  -13.0382 C   0  0  0  0  0  0  0  0  0  0  0  0
   -6.9777   11.7759  -13.1307 C   0  0  0  0  0  0  0  0  0  0  0  0
   -7.8132   10.0130  -11.7619 C   0  0  0  0  0  0  0  0  0  0  0  0
   -7.2338   10.6200  -10.6051 C   0  0  0  0  0  0  0  0  0  0  0  0
   -7.6121    9.7513   -9.5135 C   0  0  0  0  0  0  0  0  0  0  0  0
   -8.2831    8.7414   -9.9888 N   0  0  0  0  0  0  0  0  0  0  0  0
   -8.4159    8.8683  -11.3018 N   0  0  0  0  0  0  0  0  0  0  0  0
   -7.3364    9.8882   -8.0249 C   0  0  0  0  0  0  0  0  0  0  0  0
   -4.3745   13.7307  -11.4480 N   0  0  0  0  0  0  0  0  0  0  0  0
   -5.5401   13.6479  -12.1823 C   0  0  0  0  0  0  0  0  0  0  0  0
   -5.9305   14.5456  -12.9289 O   0  0  0  0  0  0  0  0  0  0  0  0
   -5.9622   10.4857   -7.7364 C   0  0  0  0  0  0  0  0  0  0  0  0
   -4.8106    9.7658   -8.0516 C   0  0  0  0  0  0  0  0  0  0  0  0
   -3.5548   10.3163   -7.8015 C   0  0  0  0  0  0  0  0  0  0  0  0
   -3.4456   11.5910   -7.2371 C   0  0  0  0  0  0  0  0  0  0  0  0
   -4.5995   12.3069   -6.9174 C   0  0  0  0  0  0  0  0  0  0  0  0
   -5.8550   11.7570   -7.1647 C   0  0  0  0  0  0  0  0  0  0  0  0
   -2.1008   12.1810   -6.9758 C   0  0  0  0  0  0  0  0  0  0  0  0
   -1.7660   13.4388   -6.4773 C   0  0  0  0  0  0  0  0  0  0  0  0
   -0.4314   13.4905   -6.4174 N   0  0  0  0  0  0  0  0  0  0  0  0
    0.1713   12.4042   -6.8124 N   0  0  0  0  0  0  0  0  0  0  0  0
   -0.8030   11.5879   -7.1791 C   0  0  0  0  0  0  0  0  0  0  0  0
    0.3850   14.6084   -5.9658 C   0  0  0  0  0  0  0  0  0  0  0  0
   -3.6973   12.5089  -10.9175 C   0  0  0  0  0  0  0  0  0  0  0  0
   -2.2248   12.4637  -11.4426 C   0  0  0  0  0  0  0  0  0  0  0  0
   -1.4987   13.7622  -11.0653 N   0  0  0  0  0  0  0  0  0  0  0  0
   -2.2038   14.9363  -11.7527 C   0  0  0  0  0  0  0  0  0  0  0  0
   -3.6757   15.0331  -11.3164 C   0  0  0  0  0  0  0  0  0  0  0  0
   -6.0533   12.2736   -9.8759 H   0  0  0  0  0  0  0  0  0  0  0  0
   -8.1654   10.1188  -13.9034 H   0  0  0  0  0  0  0  0  0  0  0  0
   -6.8895   12.2606  -14.0918 H   0  0  0  0  0  0  0  0  0  0  0  0
   -8.0360    9.5949   -7.2562 H   0  0  0  0  0  0  0  0  0  0  0  0
   -5.3084   15.2634  -12.9141 H   0  0  0  0  0  0  0  0  0  0  0  0
   -4.8916    8.7819   -8.4894 H   0  0  0  0  0  0  0  0  0  0  0  0
   -2.6635    9.7568   -8.0443 H   0  0  0  0  0  0  0  0  0  0  0  0
   -4.5191   13.2898   -6.4771 H   0  0  0  0  0  0  0  0  0  0  0  0
   -6.3792   12.4524   -7.8368 H   0  0  0  0  0  0  0  0  0  0  0  0
   -6.3792   11.7156   -6.1985 H   0  0  0  0  0  0  0  0  0  0  0  0
   -2.4534   14.2220   -6.1936 H   0  0  0  0  0  0  0  0  0  0  0  0
   -0.6452   10.5982   -7.5816 H   0  0  0  0  0  0  0  0  0  0  0  0
    1.4489   14.3378   -6.0355 H   0  0  0  0  0  0  0  0  0  0  0  0
    0.1877   15.4858   -6.5992 H   0  0  0  0  0  0  0  0  0  0  0  0
    0.1350   14.8465   -4.9214 H   0  0  0  0  0  0  0  0  0  0  0  0
   -3.6944   12.5388   -9.8179 H   0  0  0  0  0  0  0  0  0  0  0  0
   -4.2365   11.6128  -11.2585 H   0  0  0  0  0  0  0  0  0  0  0  0
   -1.7018   11.6081  -10.9904 H   0  0  0  0  0  0  0  0  0  0  0  0
   -2.2305   12.3532  -12.5370 H   0  0  0  0  0  0  0  0  0  0  0  0
   -1.5260   13.8871  -10.0735 H   0  0  0  0  0  0  0  0  0  0  0  0
   -1.6882   15.8706  -11.4859 H   0  0  0  0  0  0  0  0  0  0  0  0
   -2.1612   14.7923  -12.8424 H   0  0  0  0  0  0  0  0  0  0  0  0
   -4.1860   15.7766  -11.9464 H   0  0  0  0  0  0  0  0  0  0  0  0
   -3.7154   15.3542  -10.2651 H   0  0  0  0  0  0  0  0  0  0  0  0
  1  2  1  0  0  0  0
  1  4  1  0  0  0  0
  1 12  2  3  0  0  0
  2  6  2  0  0  0  0
  3  4  2  0  0  0  0
  3  5  1  0  0  0  0
  5  6  1  0  0  0  0
  5  9  2  0  0  0  0
  6  7  1  0  0  0  0
  7  8  2  0  0  0  0
  7 10  1  0  0  0  0
  8  9  1  0  0  0  0
 10 14  2  3  0  0  0
 11 12  1  0  0  0  0
 11 26  1  0  0  0  0
 11 30  1  0  0  0  0
 12 13  1  0  0  0  0
 14 15  1  0  0  0  0
 14 19  1  0  0  0  0
 15 16  2  0  0  0  0
 16 17  1  0  0  0  0
 17 18  2  0  0  0  0
 17 20  1  0  0  0  0
 18 19  1  0  0  0  0
 20 21  2  0  0  0  0
 20 24  1  0  0  0  0
 21 22  1  0  0  0  0
 22 23  1  0  0  0  0
 22 25  1  0  0  0  0
 23 24  2  0  0  0  0
 26 27  1  0  0  0  0
 27 28  1  0  0  0  0
 28 29  1  0  0  0  0
 29 30  1  0  0  0  0
  2 31  1  0  0  0  0
  3 32  1  0  0  0  0
  4 33  1  0  0  0  0
 10 34  1  0  0  0  0
 13 35  1  0  0  0  0
 15 36  1  0  0  0  0
 16 37  1  0  0  0  0
 18 38  1  0  0  0  0
 19 39  1  0  0  0  0
 19 40  1  0  0  0  0
 21 41  1  0  0  0  0
 24 42  1  0  0  0  0
 25 43  1  0  0  0  0
 25 44  1  0  0  0  0
 25 45  1  0  0  0  0
 26 46  1  0  0  0  0
 26 47  1  0  0  0  0
 27 48  1  0  0  0  0
 27 49  1  0  0  0  0
 28 50  1  0  0  0  0
 29 51  1  0  0  0  0
 29 52  1  0  0  0  0
 30 53  1  0  0  0  0
 30 54  1  0  0  0  0
M  END
> <Name>
40

> <IC50[uM]>
0.007

$$$$
