43
  -OEChem-05192314333D
 Structure written by MMmdl.
 48 52  0     0  0  0  0  0  0999 V2000
   -6.3694   12.3608  -12.0100 C   0  0  0  0  0  0  0  0  0  0  0  0
   -6.5170   11.8053  -10.7333 C   0  0  0  0  0  0  0  0  0  0  0  0
   -7.7298   10.5799  -13.0278 C   0  0  0  0  0  0  0  0  0  0  0  0
   -6.9915   11.7687  -13.1228 C   0  0  0  0  0  0  0  0  0  0  0  0
   -7.8213   10.0100  -11.7550 C   0  0  0  0  0  0  0  0  0  0  0  0
   -7.2397   10.6196  -10.6003 C   0  0  0  0  0  0  0  0  0  0  0  0
   -7.6092    9.7471   -9.5124 C   0  0  0  0  0  0  0  0  0  0  0  0
   -8.2773    8.7308   -9.9855 N   0  0  0  0  0  0  0  0  0  0  0  0
   -8.4143    8.8607  -11.2979 N   0  0  0  0  0  0  0  0  0  0  0  0
   -7.3268    9.8907   -8.0257 C   0  0  0  0  0  0  0  0  0  0  0  0
   -4.3565   13.7183  -11.5055 N   0  0  0  0  0  0  0  0  0  0  0  0
   -5.5483   13.6363  -12.1897 C   0  0  0  0  0  0  0  0  0  0  0  0
   -5.9477   14.5322  -12.9368 O   0  0  0  0  0  0  0  0  0  0  0  0
   -5.9513   10.4999   -7.7281 C   0  0  0  0  0  0  0  0  0  0  0  0
   -5.8738   11.7695   -7.1531 C   0  0  0  0  0  0  0  0  0  0  0  0
   -4.6094   12.3134   -6.9136 C   0  0  0  0  0  0  0  0  0  0  0  0
   -3.4376   11.5622   -7.2444 C   0  0  0  0  0  0  0  0  0  0  0  0
   -3.5099   10.2841   -7.8101 C   0  0  0  0  0  0  0  0  0  0  0  0
   -4.7961    9.7769   -8.0457 C   0  0  0  0  0  0  0  0  0  0  0  0
   -4.0914   13.5427   -6.3707 C   0  0  0  0  0  0  0  0  0  0  0  0
   -2.7880   13.5314   -6.3772 N   0  0  0  0  0  0  0  0  0  0  0  0
   -2.3819   12.3721   -6.8788 N   0  0  0  0  0  0  0  0  0  0  0  0
   -0.9505   12.1058   -6.9728 C   0  0  0  0  0  0  0  0  0  0  0  0
   -3.7111   12.5665  -10.8449 C   0  0  0  0  0  0  0  0  0  0  0  0
   -2.2188   12.9372  -10.9792 C   0  0  0  0  0  0  0  0  0  0  0  0
   -2.1852   14.4611  -10.9536 C   0  0  0  0  0  0  0  0  0  0  0  0
   -3.5089   14.9092  -11.5986 C   0  0  0  0  0  0  0  0  0  0  0  0
   -1.7019   12.4742  -12.1199 F   0  0  0  0  0  0  0  0  0  0  0  0
   -1.4726   12.4435   -9.9943 F   0  0  0  0  0  0  0  0  0  0  0  0
   -6.0805   12.2847   -9.8696 H   0  0  0  0  0  0  0  0  0  0  0  0
   -8.2009   10.1304  -13.8894 H   0  0  0  0  0  0  0  0  0  0  0  0
   -6.8975   12.2468  -14.0866 H   0  0  0  0  0  0  0  0  0  0  0  0
   -8.6317    7.9703   -9.4414 H   0  0  0  0  0  0  0  0  0  0  0  0
   -8.0988   10.5380   -7.5841 H   0  0  0  0  0  0  0  0  0  0  0  0
   -7.3753    8.8940   -7.5628 H   0  0  0  0  0  0  0  0  0  0  0  0
   -6.7691   12.3178   -6.8996 H   0  0  0  0  0  0  0  0  0  0  0  0
   -2.6224    9.7184   -8.0524 H   0  0  0  0  0  0  0  0  0  0  0  0
   -4.8983    8.7963   -8.4866 H   0  0  0  0  0  0  0  0  0  0  0  0
   -4.6981   14.3596   -6.0088 H   0  0  0  0  0  0  0  0  0  0  0  0
   -0.3901   12.9695   -6.5854 H   0  0  0  0  0  0  0  0  0  0  0  0
   -0.7040   11.2129   -6.3795 H   0  0  0  0  0  0  0  0  0  0  0  0
   -0.6780   11.9339   -8.0245 H   0  0  0  0  0  0  0  0  0  0  0  0
   -4.0127   12.4865   -9.7901 H   0  0  0  0  0  0  0  0  0  0  0  0
   -3.9402   11.6243  -11.3642 H   0  0  0  0  0  0  0  0  0  0  0  0
   -2.1179   14.8274   -9.9186 H   0  0  0  0  0  0  0  0  0  0  0  0
   -1.3284   14.8371  -11.5320 H   0  0  0  0  0  0  0  0  0  0  0  0
   -3.3556   15.2013  -12.6480 H   0  0  0  0  0  0  0  0  0  0  0  0
   -3.9510   15.7504  -11.0446 H   0  0  0  0  0  0  0  0  0  0  0  0
  1  2  2  0  0  0  0
  1  4  1  0  0  0  0
  1 12  1  0  0  0  0
  2  6  1  0  0  0  0
  3  4  2  0  0  0  0
  3  5  1  0  0  0  0
  5  6  1  0  0  0  0
  5  9  2  0  0  0  0
  6  7  2  0  0  0  0
  7  8  1  0  0  0  0
  7 10  1  0  0  0  0
  8  9  1  0  0  0  0
 10 14  1  0  0  0  0
 11 12  1  0  0  0  0
 11 24  1  0  0  0  0
 11 27  1  0  0  0  0
 12 13  2  0  0  0  0
 14 15  2  0  0  0  0
 14 19  1  0  0  0  0
 15 16  1  0  0  0  0
 16 17  2  0  0  0  0
 16 20  1  0  0  0  0
 17 18  1  0  0  0  0
 17 22  1  0  0  0  0
 18 19  2  0  0  0  0
 20 21  2  0  0  0  0
 21 22  1  0  0  0  0
 22 23  1  0  0  0  0
 24 25  1  0  0  0  0
 25 26  1  0  0  0  0
 25 28  1  0  0  0  0
 25 29  1  0  0  0  0
 26 27  1  0  0  0  0
  2 30  1  0  0  0  0
  3 31  1  0  0  0  0
  4 32  1  0  0  0  0
  8 33  1  0  0  0  0
 10 34  1  0  0  0  0
 10 35  1  0  0  0  0
 15 36  1  0  0  0  0
 18 37  1  0  0  0  0
 19 38  1  0  0  0  0
 20 39  1  0  0  0  0
 23 40  1  0  0  0  0
 23 41  1  0  0  0  0
 23 42  1  0  0  0  0
 24 43  1  0  0  0  0
 24 44  1  0  0  0  0
 26 45  1  0  0  0  0
 26 46  1  0  0  0  0
 27 47  1  0  0  0  0
 27 48  1  0  0  0  0
M  END
> <Name>
43

> <IC50[uM]>
0.002

$$$$
43
  -OEChem-05192314333D
 Structure written by MMmdl.
 48 52  0     0  0  0  0  0  0999 V2000
   -6.3694   12.3608  -12.0100 C   0  0  0  0  0  0  0  0  0  0  0  0
   -6.5170   11.8053  -10.7333 C   0  0  0  0  0  0  0  0  0  0  0  0
   -7.7298   10.5799  -13.0278 C   0  0  0  0  0  0  0  0  0  0  0  0
   -6.9915   11.7687  -13.1228 C   0  0  0  0  0  0  0  0  0  0  0  0
   -7.8213   10.0100  -11.7550 C   0  0  0  0  0  0  0  0  0  0  0  0
   -7.2397   10.6196  -10.6003 C   0  0  0  0  0  0  0  0  0  0  0  0
   -7.6092    9.7471   -9.5124 C   0  0  0  0  0  0  0  0  0  0  0  0
   -8.2773    8.7308   -9.9855 N   0  0  0  0  0  0  0  0  0  0  0  0
   -8.4143    8.8607  -11.2979 N   0  0  0  0  0  0  0  0  0  0  0  0
   -7.3268    9.8907   -8.0257 C   0  0  0  0  0  0  0  0  0  0  0  0
   -4.3565   13.7183  -11.5055 N   0  0  0  0  0  0  0  0  0  0  0  0
   -5.5483   13.6363  -12.1897 C   0  0  0  0  0  0  0  0  0  0  0  0
   -5.9477   14.5322  -12.9368 O   0  0  0  0  0  0  0  0  0  0  0  0
   -5.9513   10.4999   -7.7281 C   0  0  0  0  0  0  0  0  0  0  0  0
   -5.8738   11.7695   -7.1531 C   0  0  0  0  0  0  0  0  0  0  0  0
   -4.6094   12.3134   -6.9136 C   0  0  0  0  0  0  0  0  0  0  0  0
   -3.4376   11.5622   -7.2444 C   0  0  0  0  0  0  0  0  0  0  0  0
   -3.5099   10.2841   -7.8101 C   0  0  0  0  0  0  0  0  0  0  0  0
   -4.7961    9.7769   -8.0457 C   0  0  0  0  0  0  0  0  0  0  0  0
   -4.0914   13.5427   -6.3707 C   0  0  0  0  0  0  0  0  0  0  0  0
   -2.7880   13.5314   -6.3772 N   0  0  0  0  0  0  0  0  0  0  0  0
   -2.3819   12.3721   -6.8788 N   0  0  0  0  0  0  0  0  0  0  0  0
   -0.9505   12.1058   -6.9728 C   0  0  0  0  0  0  0  0  0  0  0  0
   -3.7111   12.5665  -10.8449 C   0  0  0  0  0  0  0  0  0  0  0  0
   -2.2188   12.9372  -10.9792 C   0  0  0  0  0  0  0  0  0  0  0  0
   -2.1852   14.4611  -10.9536 C   0  0  0  0  0  0  0  0  0  0  0  0
   -3.5089   14.9092  -11.5986 C   0  0  0  0  0  0  0  0  0  0  0  0
   -1.7019   12.4742  -12.1199 F   0  0  0  0  0  0  0  0  0  0  0  0
   -1.4726   12.4435   -9.9943 F   0  0  0  0  0  0  0  0  0  0  0  0
   -6.0805   12.2847   -9.8696 H   0  0  0  0  0  0  0  0  0  0  0  0
   -8.2009   10.1304  -13.8894 H   0  0  0  0  0  0  0  0  0  0  0  0
   -6.8975   12.2468  -14.0866 H   0  0  0  0  0  0  0  0  0  0  0  0
   -8.8905    8.2030  -11.8816 H   0  0  0  0  0  0  0  0  0  0  0  0
   -8.0988   10.5380   -7.5841 H   0  0  0  0  0  0  0  0  0  0  0  0
   -7.3753    8.8940   -7.5628 H   0  0  0  0  0  0  0  0  0  0  0  0
   -6.7691   12.3178   -6.8996 H   0  0  0  0  0  0  0  0  0  0  0  0
   -2.6224    9.7184   -8.0524 H   0  0  0  0  0  0  0  0  0  0  0  0
   -4.8983    8.7963   -8.4866 H   0  0  0  0  0  0  0  0  0  0  0  0
   -4.6981   14.3596   -6.0088 H   0  0  0  0  0  0  0  0  0  0  0  0
   -0.3901   12.9695   -6.5854 H   0  0  0  0  0  0  0  0  0  0  0  0
   -0.7040   11.2129   -6.3795 H   0  0  0  0  0  0  0  0  0  0  0  0
   -0.6780   11.9339   -8.0245 H   0  0  0  0  0  0  0  0  0  0  0  0
   -4.0127   12.4865   -9.7901 H   0  0  0  0  0  0  0  0  0  0  0  0
   -3.9402   11.6243  -11.3642 H   0  0  0  0  0  0  0  0  0  0  0  0
   -2.1179   14.8274   -9.9186 H   0  0  0  0  0  0  0  0  0  0  0  0
   -1.3284   14.8371  -11.5320 H   0  0  0  0  0  0  0  0  0  0  0  0
   -3.3556   15.2013  -12.6480 H   0  0  0  0  0  0  0  0  0  0  0  0
   -3.9510   15.7504  -11.0446 H   0  0  0  0  0  0  0  0  0  0  0  0
  1  2  2  0  0  0  0
  1  4  1  0  0  0  0
  1 12  1  0  0  0  0
  2  6  1  0  0  0  0
  3  4  2  0  0  0  0
  3  5  1  0  0  0  0
  5  6  2  0  0  0  0
  5  9  1  0  0  0  0
  6  7  1  0  0  0  0
  7  8  2  0  0  0  0
  7 10  1  0  0  0  0
  8  9  1  0  0  0  0
 10 14  1  0  0  0  0
 11 12  1  0  0  0  0
 11 24  1  0  0  0  0
 11 27  1  0  0  0  0
 12 13  2  0  0  0  0
 14 15  2  0  0  0  0
 14 19  1  0  0  0  0
 15 16  1  0  0  0  0
 16 17  2  0  0  0  0
 16 20  1  0  0  0  0
 17 18  1  0  0  0  0
 17 22  1  0  0  0  0
 18 19  2  0  0  0  0
 20 21  2  0  0  0  0
 21 22  1  0  0  0  0
 22 23  1  0  0  0  0
 24 25  1  0  0  0  0
 25 26  1  0  0  0  0
 25 28  1  0  0  0  0
 25 29  1  0  0  0  0
 26 27  1  0  0  0  0
  2 30  1  0  0  0  0
  3 31  1  0  0  0  0
  4 32  1  0  0  0  0
  9 33  1  0  0  0  0
 10 34  1  0  0  0  0
 10 35  1  0  0  0  0
 15 36  1  0  0  0  0
 18 37  1  0  0  0  0
 19 38  1  0  0  0  0
 20 39  1  0  0  0  0
 23 40  1  0  0  0  0
 23 41  1  0  0  0  0
 23 42  1  0  0  0  0
 24 43  1  0  0  0  0
 24 44  1  0  0  0  0
 26 45  1  0  0  0  0
 26 46  1  0  0  0  0
 27 47  1  0  0  0  0
 27 48  1  0  0  0  0
M  END
> <Name>
43

> <IC50[uM]>
0.002

$$$$
43
  -OEChem-05192314333D
 Structure written by MMmdl.
 48 52  0     1  0  0  0  0  0999 V2000
   -6.3694   12.3608  -12.0100 C   0  0  0  0  0  0  0  0  0  0  0  0
   -6.5170   11.8053  -10.7333 C   0  0  0  0  0  0  0  0  0  0  0  0
   -7.7298   10.5799  -13.0278 C   0  0  0  0  0  0  0  0  0  0  0  0
   -6.9915   11.7687  -13.1228 C   0  0  0  0  0  0  0  0  0  0  0  0
   -7.8213   10.0100  -11.7550 C   0  0  0  0  0  0  0  0  0  0  0  0
   -7.2397   10.6196  -10.6003 C   0  0  0  0  0  0  0  0  0  0  0  0
   -7.6092    9.7471   -9.5124 C   0  0  3  0  0  0  0  0  0  0  0  0
   -8.2773    8.7308   -9.9855 N   0  0  0  0  0  0  0  0  0  0  0  0
   -8.4143    8.8607  -11.2979 N   0  0  0  0  0  0  0  0  0  0  0  0
   -7.3268    9.8907   -8.0257 C   0  0  0  0  0  0  0  0  0  0  0  0
   -4.3565   13.7183  -11.5055 N   0  0  0  0  0  0  0  0  0  0  0  0
   -5.5483   13.6363  -12.1897 C   0  0  0  0  0  0  0  0  0  0  0  0
   -5.9477   14.5322  -12.9368 O   0  0  0  0  0  0  0  0  0  0  0  0
   -5.9513   10.4999   -7.7281 C   0  0  0  0  0  0  0  0  0  0  0  0
   -5.8738   11.7695   -7.1531 C   0  0  0  0  0  0  0  0  0  0  0  0
   -4.6094   12.3134   -6.9136 C   0  0  0  0  0  0  0  0  0  0  0  0
   -3.4376   11.5622   -7.2444 C   0  0  0  0  0  0  0  0  0  0  0  0
   -3.5099   10.2841   -7.8101 C   0  0  0  0  0  0  0  0  0  0  0  0
   -4.7961    9.7769   -8.0457 C   0  0  0  0  0  0  0  0  0  0  0  0
   -4.0914   13.5427   -6.3707 C   0  0  0  0  0  0  0  0  0  0  0  0
   -2.7880   13.5314   -6.3772 N   0  0  0  0  0  0  0  0  0  0  0  0
   -2.3819   12.3721   -6.8788 N   0  0  0  0  0  0  0  0  0  0  0  0
   -0.9505   12.1058   -6.9728 C   0  0  0  0  0  0  0  0  0  0  0  0
   -3.7111   12.5665  -10.8449 C   0  0  0  0  0  0  0  0  0  0  0  0
   -2.2188   12.9372  -10.9792 C   0  0  0  0  0  0  0  0  0  0  0  0
   -2.1852   14.4611  -10.9536 C   0  0  0  0  0  0  0  0  0  0  0  0
   -3.5089   14.9092  -11.5986 C   0  0  0  0  0  0  0  0  0  0  0  0
   -1.7019   12.4742  -12.1199 F   0  0  0  0  0  0  0  0  0  0  0  0
   -1.4726   12.4435   -9.9943 F   0  0  0  0  0  0  0  0  0  0  0  0
   -6.0805   12.2847   -9.8696 H   0  0  0  0  0  0  0  0  0  0  0  0
   -8.2009   10.1304  -13.8894 H   0  0  0  0  0  0  0  0  0  0  0  0
   -6.8975   12.2468  -14.0866 H   0  0  0  0  0  0  0  0  0  0  0  0
   -6.6693    9.1897   -9.6384 H   0  0  0  0  0  0  0  0  0  0  0  0
   -8.0988   10.5380   -7.5841 H   0  0  0  0  0  0  0  0  0  0  0  0
   -7.3753    8.8940   -7.5628 H   0  0  0  0  0  0  0  0  0  0  0  0
   -6.7691   12.3178   -6.8996 H   0  0  0  0  0  0  0  0  0  0  0  0
   -2.6224    9.7184   -8.0524 H   0  0  0  0  0  0  0  0  0  0  0  0
   -4.8983    8.7963   -8.4866 H   0  0  0  0  0  0  0  0  0  0  0  0
   -4.6981   14.3596   -6.0088 H   0  0  0  0  0  0  0  0  0  0  0  0
   -0.3901   12.9695   -6.5854 H   0  0  0  0  0  0  0  0  0  0  0  0
   -0.7040   11.2129   -6.3795 H   0  0  0  0  0  0  0  0  0  0  0  0
   -0.6780   11.9339   -8.0245 H   0  0  0  0  0  0  0  0  0  0  0  0
   -4.0127   12.4865   -9.7901 H   0  0  0  0  0  0  0  0  0  0  0  0
   -3.9402   11.6243  -11.3642 H   0  0  0  0  0  0  0  0  0  0  0  0
   -2.1179   14.8274   -9.9186 H   0  0  0  0  0  0  0  0  0  0  0  0
   -1.3284   14.8371  -11.5320 H   0  0  0  0  0  0  0  0  0  0  0  0
   -3.3556   15.2013  -12.6480 H   0  0  0  0  0  0  0  0  0  0  0  0
   -3.9510   15.7504  -11.0446 H   0  0  0  0  0  0  0  0  0  0  0  0
  1  2  2  0  0  0  0
  1  4  1  0  0  0  0
  1 12  1  0  0  0  0
  2  6  1  0  0  0  0
  3  4  2  0  0  0  0
  3  5  1  0  0  0  0
  5  6  2  0  0  0  0
  5  9  1  0  0  0  0
  6  7  1  0  0  0  0
  7  8  1  0  0  0  0
  7 10  1  0  0  0  0
  8  9  2  0  0  0  0
 10 14  1  0  0  0  0
 11 12  1  0  0  0  0
 11 24  1  0  0  0  0
 11 27  1  0  0  0  0
 12 13  2  0  0  0  0
 14 15  2  0  0  0  0
 14 19  1  0  0  0  0
 15 16  1  0  0  0  0
 16 17  2  0  0  0  0
 16 20  1  0  0  0  0
 17 18  1  0  0  0  0
 17 22  1  0  0  0  0
 18 19  2  0  0  0  0
 20 21  2  0  0  0  0
 21 22  1  0  0  0  0
 22 23  1  0  0  0  0
 24 25  1  0  0  0  0
 25 26  1  0  0  0  0
 25 28  1  0  0  0  0
 25 29  1  0  0  0  0
 26 27  1  0  0  0  0
  2 30  1  0  0  0  0
  3 31  1  0  0  0  0
  4 32  1  0  0  0  0
  7 33  1  0  0  0  0
 10 34  1  0  0  0  0
 10 35  1  0  0  0  0
 15 36  1  0  0  0  0
 18 37  1  0  0  0  0
 19 38  1  0  0  0  0
 20 39  1  0  0  0  0
 23 40  1  0  0  0  0
 23 41  1  0  0  0  0
 23 42  1  0  0  0  0
 24 43  1  0  0  0  0
 24 44  1  0  0  0  0
 26 45  1  0  0  0  0
 26 46  1  0  0  0  0
 27 47  1  0  0  0  0
 27 48  1  0  0  0  0
M  END
> <Name>
43

> <IC50[uM]>
0.002

$$$$
43
  -OEChem-05192314333D
 Structure written by MMmdl.
 48 52  0     0  0  0  0  0  0999 V2000
   -6.3694   12.3608  -12.0100 C   0  0  0  0  0  0  0  0  0  0  0  0
   -6.5170   11.8053  -10.7333 C   0  0  0  0  0  0  0  0  0  0  0  0
   -7.7298   10.5799  -13.0278 C   0  0  0  0  0  0  0  0  0  0  0  0
   -6.9915   11.7687  -13.1228 C   0  0  0  0  0  0  0  0  0  0  0  0
   -7.8213   10.0100  -11.7550 C   0  0  0  0  0  0  0  0  0  0  0  0
   -7.2397   10.6196  -10.6003 C   0  0  0  0  0  0  0  0  0  0  0  0
   -7.6092    9.7471   -9.5124 C   0  0  0  0  0  0  0  0  0  0  0  0
   -8.2773    8.7308   -9.9855 N   0  0  0  0  0  0  0  0  0  0  0  0
   -8.4143    8.8607  -11.2979 N   0  0  0  0  0  0  0  0  0  0  0  0
   -7.3268    9.8907   -8.0257 C   0  0  0  0  0  0  0  0  0  0  0  0
   -4.3565   13.7183  -11.5055 N   0  0  0  0  0  0  0  0  0  0  0  0
   -5.5483   13.6363  -12.1897 C   0  0  0  0  0  0  0  0  0  0  0  0
   -5.9477   14.5322  -12.9368 O   0  0  0  0  0  0  0  0  0  0  0  0
   -5.9513   10.4999   -7.7281 C   0  0  0  0  0  0  0  0  0  0  0  0
   -5.8738   11.7695   -7.1531 C   0  0  0  0  0  0  0  0  0  0  0  0
   -4.6094   12.3134   -6.9136 C   0  0  0  0  0  0  0  0  0  0  0  0
   -3.4376   11.5622   -7.2444 C   0  0  0  0  0  0  0  0  0  0  0  0
   -3.5099   10.2841   -7.8101 C   0  0  0  0  0  0  0  0  0  0  0  0
   -4.7961    9.7769   -8.0457 C   0  0  0  0  0  0  0  0  0  0  0  0
   -4.0914   13.5427   -6.3707 C   0  0  0  0  0  0  0  0  0  0  0  0
   -2.7880   13.5314   -6.3772 N   0  0  0  0  0  0  0  0  0  0  0  0
   -2.3819   12.3721   -6.8788 N   0  0  0  0  0  0  0  0  0  0  0  0
   -0.9505   12.1058   -6.9728 C   0  0  0  0  0  0  0  0  0  0  0  0
   -3.7111   12.5665  -10.8449 C   0  0  0  0  0  0  0  0  0  0  0  0
   -2.2188   12.9372  -10.9792 C   0  0  0  0  0  0  0  0  0  0  0  0
   -2.1852   14.4611  -10.9536 C   0  0  0  0  0  0  0  0  0  0  0  0
   -3.5089   14.9092  -11.5986 C   0  0  0  0  0  0  0  0  0  0  0  0
   -1.7019   12.4742  -12.1199 F   0  0  0  0  0  0  0  0  0  0  0  0
   -1.4726   12.4435   -9.9943 F   0  0  0  0  0  0  0  0  0  0  0  0
   -6.0805   12.2847   -9.8696 H   0  0  0  0  0  0  0  0  0  0  0  0
   -8.2009   10.1304  -13.8894 H   0  0  0  0  0  0  0  0  0  0  0  0
   -6.8975   12.2468  -14.0866 H   0  0  0  0  0  0  0  0  0  0  0  0
   -7.7831    7.8850   -9.7846 H   0  0  0  0  0  0  0  0  0  0  0  0
   -9.3886    8.8868  -11.5217 H   0  0  0  0  0  0  0  0  0  0  0  0
   -8.0244    9.5937   -7.2566 H   0  0  0  0  0  0  0  0  0  0  0  0
   -6.7691   12.3178   -6.8996 H   0  0  0  0  0  0  0  0  0  0  0  0
   -2.6224    9.7184   -8.0524 H   0  0  0  0  0  0  0  0  0  0  0  0
   -4.8983    8.7963   -8.4866 H   0  0  0  0  0  0  0  0  0  0  0  0
   -4.6981   14.3596   -6.0088 H   0  0  0  0  0  0  0  0  0  0  0  0
   -0.3901   12.9695   -6.5854 H   0  0  0  0  0  0  0  0  0  0  0  0
   -0.7040   11.2129   -6.3795 H   0  0  0  0  0  0  0  0  0  0  0  0
   -0.6780   11.9339   -8.0245 H   0  0  0  0  0  0  0  0  0  0  0  0
   -4.0127   12.4865   -9.7901 H   0  0  0  0  0  0  0  0  0  0  0  0
   -3.9402   11.6243  -11.3642 H   0  0  0  0  0  0  0  0  0  0  0  0
   -2.1179   14.8274   -9.9186 H   0  0  0  0  0  0  0  0  0  0  0  0
   -1.3284   14.8371  -11.5320 H   0  0  0  0  0  0  0  0  0  0  0  0
   -3.3556   15.2013  -12.6480 H   0  0  0  0  0  0  0  0  0  0  0  0
   -3.9510   15.7504  -11.0446 H   0  0  0  0  0  0  0  0  0  0  0  0
  1  2  2  0  0  0  0
  1  4  1  0  0  0  0
  1 12  1  0  0  0  0
  2  6  1  0  0  0  0
  3  4  2  0  0  0  0
  3  5  1  0  0  0  0
  5  6  2  0  0  0  0
  5  9  1  0  0  0  0
  6  7  1  0  0  0  0
  7  8  1  0  0  0  0
  7 10  2  3  0  0  0
  8  9  1  0  0  0  0
 10 14  1  0  0  0  0
 11 12  1  0  0  0  0
 11 24  1  0  0  0  0
 11 27  1  0  0  0  0
 12 13  2  0  0  0  0
 14 15  2  0  0  0  0
 14 19  1  0  0  0  0
 15 16  1  0  0  0  0
 16 17  2  0  0  0  0
 16 20  1  0  0  0  0
 17 18  1  0  0  0  0
 17 22  1  0  0  0  0
 18 19  2  0  0  0  0
 20 21  2  0  0  0  0
 21 22  1  0  0  0  0
 22 23  1  0  0  0  0
 24 25  1  0  0  0  0
 25 26  1  0  0  0  0
 25 28  1  0  0  0  0
 25 29  1  0  0  0  0
 26 27  1  0  0  0  0
  2 30  1  0  0  0  0
  3 31  1  0  0  0  0
  4 32  1  0  0  0  0
  8 33  1  0  0  0  0
  9 34  1  0  0  0  0
 10 35  1  0  0  0  0
 15 36  1  0  0  0  0
 18 37  1  0  0  0  0
 19 38  1  0  0  0  0
 20 39  1  0  0  0  0
 23 40  1  0  0  0  0
 23 41  1  0  0  0  0
 23 42  1  0  0  0  0
 24 43  1  0  0  0  0
 24 44  1  0  0  0  0
 26 45  1  0  0  0  0
 26 46  1  0  0  0  0
 27 47  1  0  0  0  0
 27 48  1  0  0  0  0
M  END
> <Name>
43

> <IC50[uM]>
0.002

$$$$
43
  -OEChem-05192314333D
 Structure written by MMmdl.
 48 52  0     0  0  0  0  0  0999 V2000
   -6.3694   12.3608  -12.0100 C   0  0  0  0  0  0  0  0  0  0  0  0
   -6.5170   11.8053  -10.7333 C   0  0  0  0  0  0  0  0  0  0  0  0
   -7.7298   10.5799  -13.0278 C   0  0  0  0  0  0  0  0  0  0  0  0
   -6.9915   11.7687  -13.1228 C   0  0  0  0  0  0  0  0  0  0  0  0
   -7.8213   10.0100  -11.7550 C   0  0  0  0  0  0  0  0  0  0  0  0
   -7.2397   10.6196  -10.6003 C   0  0  0  0  0  0  0  0  0  0  0  0
   -7.6092    9.7471   -9.5124 C   0  0  0  0  0  0  0  0  0  0  0  0
   -8.2773    8.7308   -9.9855 N   0  0  0  0  0  0  0  0  0  0  0  0
   -8.4143    8.8607  -11.2979 N   0  0  0  0  0  0  0  0  0  0  0  0
   -7.3268    9.8907   -8.0257 C   0  0  0  0  0  0  0  0  0  0  0  0
   -4.3565   13.7183  -11.5055 N   0  0  0  0  0  0  0  0  0  0  0  0
   -5.5483   13.6363  -12.1897 C   0  0  0  0  0  0  0  0  0  0  0  0
   -5.9477   14.5322  -12.9368 O   0  0  0  0  0  0  0  0  0  0  0  0
   -5.9513   10.4999   -7.7281 C   0  0  0  0  0  0  0  0  0  0  0  0
   -5.8738   11.7695   -7.1531 C   0  0  0  0  0  0  0  0  0  0  0  0
   -4.6094   12.3134   -6.9136 C   0  0  0  0  0  0  0  0  0  0  0  0
   -3.4376   11.5622   -7.2444 C   0  0  0  0  0  0  0  0  0  0  0  0
   -3.5099   10.2841   -7.8101 C   0  0  0  0  0  0  0  0  0  0  0  0
   -4.7961    9.7769   -8.0457 C   0  0  0  0  0  0  0  0  0  0  0  0
   -4.0914   13.5427   -6.3707 C   0  0  0  0  0  0  0  0  0  0  0  0
   -2.7880   13.5314   -6.3772 N   0  0  0  0  0  0  0  0  0  0  0  0
   -2.3819   12.3721   -6.8788 N   0  0  0  0  0  0  0  0  0  0  0  0
   -0.9505   12.1058   -6.9728 C   0  0  0  0  0  0  0  0  0  0  0  0
   -3.7111   12.5665  -10.8449 C   0  0  0  0  0  0  0  0  0  0  0  0
   -2.2188   12.9372  -10.9792 C   0  0  0  0  0  0  0  0  0  0  0  0
   -2.1852   14.4611  -10.9536 C   0  0  0  0  0  0  0  0  0  0  0  0
   -3.5089   14.9092  -11.5986 C   0  0  0  0  0  0  0  0  0  0  0  0
   -1.7019   12.4742  -12.1199 F   0  0  0  0  0  0  0  0  0  0  0  0
   -1.4726   12.4435   -9.9943 F   0  0  0  0  0  0  0  0  0  0  0  0
   -6.0805   12.2847   -9.8696 H   0  0  0  0  0  0  0  0  0  0  0  0
   -8.2009   10.1304  -13.8894 H   0  0  0  0  0  0  0  0  0  0  0  0
   -6.8975   12.2468  -14.0866 H   0  0  0  0  0  0  0  0  0  0  0  0
   -8.6317    7.9703   -9.4414 H   0  0  0  0  0  0  0  0  0  0  0  0
   -8.0244    9.5937   -7.2566 H   0  0  0  0  0  0  0  0  0  0  0  0
   -6.4048   12.4627   -7.8221 H   0  0  0  0  0  0  0  0  0  0  0  0
   -6.3957   11.7211   -6.1860 H   0  0  0  0  0  0  0  0  0  0  0  0
   -2.6224    9.7184   -8.0524 H   0  0  0  0  0  0  0  0  0  0  0  0
   -4.8983    8.7963   -8.4866 H   0  0  0  0  0  0  0  0  0  0  0  0
   -4.6981   14.3596   -6.0088 H   0  0  0  0  0  0  0  0  0  0  0  0
   -0.3901   12.9695   -6.5854 H   0  0  0  0  0  0  0  0  0  0  0  0
   -0.7040   11.2129   -6.3795 H   0  0  0  0  0  0  0  0  0  0  0  0
   -0.6780   11.9339   -8.0245 H   0  0  0  0  0  0  0  0  0  0  0  0
   -4.0127   12.4865   -9.7901 H   0  0  0  0  0  0  0  0  0  0  0  0
   -3.9402   11.6243  -11.3642 H   0  0  0  0  0  0  0  0  0  0  0  0
   -2.1179   14.8274   -9.9186 H   0  0  0  0  0  0  0  0  0  0  0  0
   -1.3284   14.8371  -11.5320 H   0  0  0  0  0  0  0  0  0  0  0  0
   -3.3556   15.2013  -12.6480 H   0  0  0  0  0  0  0  0  0  0  0  0
   -3.9510   15.7504  -11.0446 H   0  0  0  0  0  0  0  0  0  0  0  0
  1  2  2  0  0  0  0
  1  4  1  0  0  0  0
  1 12  1  0  0  0  0
  2  6  1  0  0  0  0
  3  4  2  0  0  0  0
  3  5  1  0  0  0  0
  5  6  1  0  0  0  0
  5  9  2  0  0  0  0
  6  7  2  0  0  0  0
  7  8  1  0  0  0  0
  7 10  1  0  0  0  0
  8  9  1  0  0  0  0
 10 14  2  3  0  0  0
 11 12  1  0  0  0  0
 11 24  1  0  0  0  0
 11 27  1  0  0  0  0
 12 13  2  0  0  0  0
 14 15  1  0  0  0  0
 14 19  1  0  0  0  0
 15 16  1  0  0  0  0
 16 17  2  0  0  0  0
 16 20  1  0  0  0  0
 17 18  1  0  0  0  0
 17 22  1  0  0  0  0
 18 19  2  0  0  0  0
 20 21  2  0  0  0  0
 21 22  1  0  0  0  0
 22 23  1  0  0  0  0
 24 25  1  0  0  0  0
 25 26  1  0  0  0  0
 25 28  1  0  0  0  0
 25 29  1  0  0  0  0
 26 27  1  0  0  0  0
  2 30  1  0  0  0  0
  3 31  1  0  0  0  0
  4 32  1  0  0  0  0
  8 33  1  0  0  0  0
 10 34  1  0  0  0  0
 15 35  1  0  0  0  0
 15 36  1  0  0  0  0
 18 37  1  0  0  0  0
 19 38  1  0  0  0  0
 20 39  1  0  0  0  0
 23 40  1  0  0  0  0
 23 41  1  0  0  0  0
 23 42  1  0  0  0  0
 24 43  1  0  0  0  0
 24 44  1  0  0  0  0
 26 45  1  0  0  0  0
 26 46  1  0  0  0  0
 27 47  1  0  0  0  0
 27 48  1  0  0  0  0
M  END
> <Name>
43

> <IC50[uM]>
0.002

$$$$
43
  -OEChem-05192314333D
 Structure written by MMmdl.
 48 52  0     0  0  0  0  0  0999 V2000
   -6.3694   12.3608  -12.0100 C   0  0  0  0  0  0  0  0  0  0  0  0
   -6.5170   11.8053  -10.7333 C   0  0  0  0  0  0  0  0  0  0  0  0
   -7.7298   10.5799  -13.0278 C   0  0  0  0  0  0  0  0  0  0  0  0
   -6.9915   11.7687  -13.1228 C   0  0  0  0  0  0  0  0  0  0  0  0
   -7.8213   10.0100  -11.7550 C   0  0  0  0  0  0  0  0  0  0  0  0
   -7.2397   10.6196  -10.6003 C   0  0  0  0  0  0  0  0  0  0  0  0
   -7.6092    9.7471   -9.5124 C   0  0  0  0  0  0  0  0  0  0  0  0
   -8.2773    8.7308   -9.9855 N   0  0  0  0  0  0  0  0  0  0  0  0
   -8.4143    8.8607  -11.2979 N   0  0  0  0  0  0  0  0  0  0  0  0
   -7.3268    9.8907   -8.0257 C   0  0  0  0  0  0  0  0  0  0  0  0
   -4.3565   13.7183  -11.5055 N   0  0  0  0  0  0  0  0  0  0  0  0
   -5.5483   13.6363  -12.1897 C   0  0  0  0  0  0  0  0  0  0  0  0
   -5.9477   14.5322  -12.9368 O   0  0  0  0  0  0  0  0  0  0  0  0
   -5.9513   10.4999   -7.7281 C   0  0  0  0  0  0  0  0  0  0  0  0
   -5.8738   11.7695   -7.1531 C   0  0  0  0  0  0  0  0  0  0  0  0
   -4.6094   12.3134   -6.9136 C   0  0  0  0  0  0  0  0  0  0  0  0
   -3.4376   11.5622   -7.2444 C   0  0  0  0  0  0  0  0  0  0  0  0
   -3.5099   10.2841   -7.8101 C   0  0  0  0  0  0  0  0  0  0  0  0
   -4.7961    9.7769   -8.0457 C   0  0  0  0  0  0  0  0  0  0  0  0
   -4.0914   13.5427   -6.3707 C   0  0  0  0  0  0  0  0  0  0  0  0
   -2.7880   13.5314   -6.3772 N   0  0  0  0  0  0  0  0  0  0  0  0
   -2.3819   12.3721   -6.8788 N   0  0  0  0  0  0  0  0  0  0  0  0
   -0.9505   12.1058   -6.9728 C   0  0  0  0  0  0  0  0  0  0  0  0
   -3.7111   12.5665  -10.8449 C   0  0  0  0  0  0  0  0  0  0  0  0
   -2.2188   12.9372  -10.9792 C   0  0  0  0  0  0  0  0  0  0  0  0
   -2.1852   14.4611  -10.9536 C   0  0  0  0  0  0  0  0  0  0  0  0
   -3.5089   14.9092  -11.5986 C   0  0  0  0  0  0  0  0  0  0  0  0
   -1.7019   12.4742  -12.1199 F   0  0  0  0  0  0  0  0  0  0  0  0
   -1.4726   12.4435   -9.9943 F   0  0  0  0  0  0  0  0  0  0  0  0
   -6.0805   12.2847   -9.8696 H   0  0  0  0  0  0  0  0  0  0  0  0
   -8.2009   10.1304  -13.8894 H   0  0  0  0  0  0  0  0  0  0  0  0
   -6.8975   12.2468  -14.0866 H   0  0  0  0  0  0  0  0  0  0  0  0
   -8.8905    8.2030  -11.8816 H   0  0  0  0  0  0  0  0  0  0  0  0
   -8.0244    9.5937   -7.2566 H   0  0  0  0  0  0  0  0  0  0  0  0
   -6.4048   12.4627   -7.8221 H   0  0  0  0  0  0  0  0  0  0  0  0
   -6.3957   11.7211   -6.1860 H   0  0  0  0  0  0  0  0  0  0  0  0
   -2.6224    9.7184   -8.0524 H   0  0  0  0  0  0  0  0  0  0  0  0
   -4.8983    8.7963   -8.4866 H   0  0  0  0  0  0  0  0  0  0  0  0
   -4.6981   14.3596   -6.0088 H   0  0  0  0  0  0  0  0  0  0  0  0
   -0.3901   12.9695   -6.5854 H   0  0  0  0  0  0  0  0  0  0  0  0
   -0.7040   11.2129   -6.3795 H   0  0  0  0  0  0  0  0  0  0  0  0
   -0.6780   11.9339   -8.0245 H   0  0  0  0  0  0  0  0  0  0  0  0
   -4.0127   12.4865   -9.7901 H   0  0  0  0  0  0  0  0  0  0  0  0
   -3.9402   11.6243  -11.3642 H   0  0  0  0  0  0  0  0  0  0  0  0
   -2.1179   14.8274   -9.9186 H   0  0  0  0  0  0  0  0  0  0  0  0
   -1.3284   14.8371  -11.5320 H   0  0  0  0  0  0  0  0  0  0  0  0
   -3.3556   15.2013  -12.6480 H   0  0  0  0  0  0  0  0  0  0  0  0
   -3.9510   15.7504  -11.0446 H   0  0  0  0  0  0  0  0  0  0  0  0
  1  2  2  0  0  0  0
  1  4  1  0  0  0  0
  1 12  1  0  0  0  0
  2  6  1  0  0  0  0
  3  4  2  0  0  0  0
  3  5  1  0  0  0  0
  5  6  2  0  0  0  0
  5  9  1  0  0  0  0
  6  7  1  0  0  0  0
  7  8  2  0  0  0  0
  7 10  1  0  0  0  0
  8  9  1  0  0  0  0
 10 14  2  3  0  0  0
 11 12  1  0  0  0  0
 11 24  1  0  0  0  0
 11 27  1  0  0  0  0
 12 13  2  0  0  0  0
 14 15  1  0  0  0  0
 14 19  1  0  0  0  0
 15 16  1  0  0  0  0
 16 17  2  0  0  0  0
 16 20  1  0  0  0  0
 17 18  1  0  0  0  0
 17 22  1  0  0  0  0
 18 19  2  0  0  0  0
 20 21  2  0  0  0  0
 21 22  1  0  0  0  0
 22 23  1  0  0  0  0
 24 25  1  0  0  0  0
 25 26  1  0  0  0  0
 25 28  1  0  0  0  0
 25 29  1  0  0  0  0
 26 27  1  0  0  0  0
  2 30  1  0  0  0  0
  3 31  1  0  0  0  0
  4 32  1  0  0  0  0
  9 33  1  0  0  0  0
 10 34  1  0  0  0  0
 15 35  1  0  0  0  0
 15 36  1  0  0  0  0
 18 37  1  0  0  0  0
 19 38  1  0  0  0  0
 20 39  1  0  0  0  0
 23 40  1  0  0  0  0
 23 41  1  0  0  0  0
 23 42  1  0  0  0  0
 24 43  1  0  0  0  0
 24 44  1  0  0  0  0
 26 45  1  0  0  0  0
 26 46  1  0  0  0  0
 27 47  1  0  0  0  0
 27 48  1  0  0  0  0
M  END
> <Name>
43

> <IC50[uM]>
0.002

$$$$
43
  -OEChem-05192314333D
 Structure written by MMmdl.
 48 52  0     1  0  0  0  0  0999 V2000
   -6.3694   12.3608  -12.0100 C   0  0  3  0  0  0  0  0  0  0  0  0
   -6.5170   11.8053  -10.7333 C   0  0  0  0  0  0  0  0  0  0  0  0
   -7.7298   10.5799  -13.0278 C   0  0  0  0  0  0  0  0  0  0  0  0
   -6.9915   11.7687  -13.1228 C   0  0  0  0  0  0  0  0  0  0  0  0
   -7.8213   10.0100  -11.7550 C   0  0  0  0  0  0  0  0  0  0  0  0
   -7.2397   10.6196  -10.6003 C   0  0  0  0  0  0  0  0  0  0  0  0
   -7.6092    9.7471   -9.5124 C   0  0  0  0  0  0  0  0  0  0  0  0
   -8.2773    8.7308   -9.9855 N   0  0  0  0  0  0  0  0  0  0  0  0
   -8.4143    8.8607  -11.2979 N   0  0  0  0  0  0  0  0  0  0  0  0
   -7.3268    9.8907   -8.0257 C   0  0  0  0  0  0  0  0  0  0  0  0
   -4.3565   13.7183  -11.5055 N   0  0  0  0  0  0  0  0  0  0  0  0
   -5.5483   13.6363  -12.1897 C   0  0  0  0  0  0  0  0  0  0  0  0
   -5.9477   14.5322  -12.9368 O   0  0  0  0  0  0  0  0  0  0  0  0
   -5.9513   10.4999   -7.7281 C   0  0  0  0  0  0  0  0  0  0  0  0
   -5.8738   11.7695   -7.1531 C   0  0  0  0  0  0  0  0  0  0  0  0
   -4.6094   12.3134   -6.9136 C   0  0  0  0  0  0  0  0  0  0  0  0
   -3.4376   11.5622   -7.2444 C   0  0  0  0  0  0  0  0  0  0  0  0
   -3.5099   10.2841   -7.8101 C   0  0  0  0  0  0  0  0  0  0  0  0
   -4.7961    9.7769   -8.0457 C   0  0  0  0  0  0  0  0  0  0  0  0
   -4.0914   13.5427   -6.3707 C   0  0  0  0  0  0  0  0  0  0  0  0
   -2.7880   13.5314   -6.3772 N   0  0  0  0  0  0  0  0  0  0  0  0
   -2.3819   12.3721   -6.8788 N   0  0  0  0  0  0  0  0  0  0  0  0
   -0.9505   12.1058   -6.9728 C   0  0  0  0  0  0  0  0  0  0  0  0
   -3.7111   12.5665  -10.8449 C   0  0  0  0  0  0  0  0  0  0  0  0
   -2.2188   12.9372  -10.9792 C   0  0  0  0  0  0  0  0  0  0  0  0
   -2.1852   14.4611  -10.9536 C   0  0  0  0  0  0  0  0  0  0  0  0
   -3.5089   14.9092  -11.5986 C   0  0  0  0  0  0  0  0  0  0  0  0
   -1.7019   12.4742  -12.1199 F   0  0  0  0  0  0  0  0  0  0  0  0
   -1.4726   12.4435   -9.9943 F   0  0  0  0  0  0  0  0  0  0  0  0
   -5.4701   11.7504  -12.1792 H   0  0  0  0  0  0  0  0  0  0  0  0
   -6.0805   12.2847   -9.8696 H   0  0  0  0  0  0  0  0  0  0  0  0
   -8.2009   10.1304  -13.8894 H   0  0  0  0  0  0  0  0  0  0  0  0
   -6.8975   12.2468  -14.0866 H   0  0  0  0  0  0  0  0  0  0  0  0
   -8.6317    7.9703   -9.4414 H   0  0  0  0  0  0  0  0  0  0  0  0
   -8.0244    9.5937   -7.2566 H   0  0  0  0  0  0  0  0  0  0  0  0
   -6.7691   12.3178   -6.8996 H   0  0  0  0  0  0  0  0  0  0  0  0
   -2.6224    9.7184   -8.0524 H   0  0  0  0  0  0  0  0  0  0  0  0
   -4.8983    8.7963   -8.4866 H   0  0  0  0  0  0  0  0  0  0  0  0
   -4.6981   14.3596   -6.0088 H   0  0  0  0  0  0  0  0  0  0  0  0
   -0.3901   12.9695   -6.5854 H   0  0  0  0  0  0  0  0  0  0  0  0
   -0.7040   11.2129   -6.3795 H   0  0  0  0  0  0  0  0  0  0  0  0
   -0.6780   11.9339   -8.0245 H   0  0  0  0  0  0  0  0  0  0  0  0
   -4.0127   12.4865   -9.7901 H   0  0  0  0  0  0  0  0  0  0  0  0
   -3.9402   11.6243  -11.3642 H   0  0  0  0  0  0  0  0  0  0  0  0
   -2.1179   14.8274   -9.9186 H   0  0  0  0  0  0  0  0  0  0  0  0
   -1.3284   14.8371  -11.5320 H   0  0  0  0  0  0  0  0  0  0  0  0
   -3.3556   15.2013  -12.6480 H   0  0  0  0  0  0  0  0  0  0  0  0
   -3.9510   15.7504  -11.0446 H   0  0  0  0  0  0  0  0  0  0  0  0
  1  2  1  0  0  0  0
  1  4  1  0  0  0  0
  1 12  1  0  0  0  0
  2  6  2  0  0  0  0
  3  4  2  0  0  0  0
  3  5  1  0  0  0  0
  5  6  1  0  0  0  0
  5  9  2  0  0  0  0
  6  7  1  0  0  0  0
  7  8  1  0  0  0  0
  7 10  2  3  0  0  0
  8  9  1  0  0  0  0
 10 14  1  0  0  0  0
 11 12  1  0  0  0  0
 11 24  1  0  0  0  0
 11 27  1  0  0  0  0
 12 13  2  0  0  0  0
 14 15  2  0  0  0  0
 14 19  1  0  0  0  0
 15 16  1  0  0  0  0
 16 17  2  0  0  0  0
 16 20  1  0  0  0  0
 17 18  1  0  0  0  0
 17 22  1  0  0  0  0
 18 19  2  0  0  0  0
 20 21  2  0  0  0  0
 21 22  1  0  0  0  0
 22 23  1  0  0  0  0
 24 25  1  0  0  0  0
 25 26  1  0  0  0  0
 25 28  1  0  0  0  0
 25 29  1  0  0  0  0
 26 27  1  0  0  0  0
  1 30  1  0  0  0  0
  2 31  1  0  0  0  0
  3 32  1  0  0  0  0
  4 33  1  0  0  0  0
  8 34  1  0  0  0  0
 10 35  1  0  0  0  0
 15 36  1  0  0  0  0
 18 37  1  0  0  0  0
 19 38  1  0  0  0  0
 20 39  1  0  0  0  0
 23 40  1  0  0  0  0
 23 41  1  0  0  0  0
 23 42  1  0  0  0  0
 24 43  1  0  0  0  0
 24 44  1  0  0  0  0
 26 45  1  0  0  0  0
 26 46  1  0  0  0  0
 27 47  1  0  0  0  0
 27 48  1  0  0  0  0
M  END
> <Name>
43

> <IC50[uM]>
0.002

$$$$
43
  -OEChem-05192314333D
 Structure written by MMmdl.
 48 52  0     0  0  0  0  0  0999 V2000
   -6.3694   12.3608  -12.0100 C   0  0  0  0  0  0  0  0  0  0  0  0
   -6.5170   11.8053  -10.7333 C   0  0  0  0  0  0  0  0  0  0  0  0
   -7.7298   10.5799  -13.0278 C   0  0  0  0  0  0  0  0  0  0  0  0
   -6.9915   11.7687  -13.1228 C   0  0  0  0  0  0  0  0  0  0  0  0
   -7.8213   10.0100  -11.7550 C   0  0  0  0  0  0  0  0  0  0  0  0
   -7.2397   10.6196  -10.6003 C   0  0  0  0  0  0  0  0  0  0  0  0
   -7.6092    9.7471   -9.5124 C   0  0  0  0  0  0  0  0  0  0  0  0
   -8.2773    8.7308   -9.9855 N   0  0  0  0  0  0  0  0  0  0  0  0
   -8.4143    8.8607  -11.2979 N   0  0  0  0  0  0  0  0  0  0  0  0
   -7.3268    9.8907   -8.0257 C   0  0  0  0  0  0  0  0  0  0  0  0
   -4.3565   13.7183  -11.5055 N   0  0  0  0  0  0  0  0  0  0  0  0
   -5.5483   13.6363  -12.1897 C   0  0  0  0  0  0  0  0  0  0  0  0
   -5.9477   14.5322  -12.9368 O   0  0  0  0  0  0  0  0  0  0  0  0
   -5.9513   10.4999   -7.7281 C   0  0  0  0  0  0  0  0  0  0  0  0
   -5.8738   11.7695   -7.1531 C   0  0  0  0  0  0  0  0  0  0  0  0
   -4.6094   12.3134   -6.9136 C   0  0  0  0  0  0  0  0  0  0  0  0
   -3.4376   11.5622   -7.2444 C   0  0  0  0  0  0  0  0  0  0  0  0
   -3.5099   10.2841   -7.8101 C   0  0  0  0  0  0  0  0  0  0  0  0
   -4.7961    9.7769   -8.0457 C   0  0  0  0  0  0  0  0  0  0  0  0
   -4.0914   13.5427   -6.3707 C   0  0  0  0  0  0  0  0  0  0  0  0
   -2.7880   13.5314   -6.3772 N   0  0  0  0  0  0  0  0  0  0  0  0
   -2.3819   12.3721   -6.8788 N   0  0  0  0  0  0  0  0  0  0  0  0
   -0.9505   12.1058   -6.9728 C   0  0  0  0  0  0  0  0  0  0  0  0
   -3.7111   12.5665  -10.8449 C   0  0  0  0  0  0  0  0  0  0  0  0
   -2.2188   12.9372  -10.9792 C   0  0  0  0  0  0  0  0  0  0  0  0
   -2.1852   14.4611  -10.9536 C   0  0  0  0  0  0  0  0  0  0  0  0
   -3.5089   14.9092  -11.5986 C   0  0  0  0  0  0  0  0  0  0  0  0
   -1.7019   12.4742  -12.1199 F   0  0  0  0  0  0  0  0  0  0  0  0
   -1.4726   12.4435   -9.9943 F   0  0  0  0  0  0  0  0  0  0  0  0
   -6.0805   12.2847   -9.8696 H   0  0  0  0  0  0  0  0  0  0  0  0
   -8.7519   10.7911  -13.3751 H   0  0  0  0  0  0  0  0  0  0  0  0
   -7.2617    9.8401  -13.6938 H   0  0  0  0  0  0  0  0  0  0  0  0
   -6.8975   12.2468  -14.0866 H   0  0  0  0  0  0  0  0  0  0  0  0
   -8.6317    7.9703   -9.4414 H   0  0  0  0  0  0  0  0  0  0  0  0
   -8.0244    9.5937   -7.2566 H   0  0  0  0  0  0  0  0  0  0  0  0
   -6.7691   12.3178   -6.8996 H   0  0  0  0  0  0  0  0  0  0  0  0
   -2.6224    9.7184   -8.0524 H   0  0  0  0  0  0  0  0  0  0  0  0
   -4.8983    8.7963   -8.4866 H   0  0  0  0  0  0  0  0  0  0  0  0
   -4.6981   14.3596   -6.0088 H   0  0  0  0  0  0  0  0  0  0  0  0
   -0.3901   12.9695   -6.5854 H   0  0  0  0  0  0  0  0  0  0  0  0
   -0.7040   11.2129   -6.3795 H   0  0  0  0  0  0  0  0  0  0  0  0
   -0.6780   11.9339   -8.0245 H   0  0  0  0  0  0  0  0  0  0  0  0
   -4.0127   12.4865   -9.7901 H   0  0  0  0  0  0  0  0  0  0  0  0
   -3.9402   11.6243  -11.3642 H   0  0  0  0  0  0  0  0  0  0  0  0
   -2.1179   14.8274   -9.9186 H   0  0  0  0  0  0  0  0  0  0  0  0
   -1.3284   14.8371  -11.5320 H   0  0  0  0  0  0  0  0  0  0  0  0
   -3.3556   15.2013  -12.6480 H   0  0  0  0  0  0  0  0  0  0  0  0
   -3.9510   15.7504  -11.0446 H   0  0  0  0  0  0  0  0  0  0  0  0
  1  2  1  0  0  0  0
  1  4  2  0  0  0  0
  1 12  1  0  0  0  0
  2  6  2  0  0  0  0
  3  4  1  0  0  0  0
  3  5  1  0  0  0  0
  5  6  1  0  0  0  0
  5  9  2  0  0  0  0
  6  7  1  0  0  0  0
  7  8  1  0  0  0  0
  7 10  2  3  0  0  0
  8  9  1  0  0  0  0
 10 14  1  0  0  0  0
 11 12  1  0  0  0  0
 11 24  1  0  0  0  0
 11 27  1  0  0  0  0
 12 13  2  0  0  0  0
 14 15  2  0  0  0  0
 14 19  1  0  0  0  0
 15 16  1  0  0  0  0
 16 17  2  0  0  0  0
 16 20  1  0  0  0  0
 17 18  1  0  0  0  0
 17 22  1  0  0  0  0
 18 19  2  0  0  0  0
 20 21  2  0  0  0  0
 21 22  1  0  0  0  0
 22 23  1  0  0  0  0
 24 25  1  0  0  0  0
 25 26  1  0  0  0  0
 25 28  1  0  0  0  0
 25 29  1  0  0  0  0
 26 27  1  0  0  0  0
  2 30  1  0  0  0  0
  3 31  1  0  0  0  0
  3 32  1  0  0  0  0
  4 33  1  0  0  0  0
  8 34  1  0  0  0  0
 10 35  1  0  0  0  0
 15 36  1  0  0  0  0
 18 37  1  0  0  0  0
 19 38  1  0  0  0  0
 20 39  1  0  0  0  0
 23 40  1  0  0  0  0
 23 41  1  0  0  0  0
 23 42  1  0  0  0  0
 24 43  1  0  0  0  0
 24 44  1  0  0  0  0
 26 45  1  0  0  0  0
 26 46  1  0  0  0  0
 27 47  1  0  0  0  0
 27 48  1  0  0  0  0
M  END
> <Name>
43

> <IC50[uM]>
0.002

$$$$
43
  -OEChem-05192314333D
 Structure written by MMmdl.
 48 52  0     0  0  0  0  0  0999 V2000
   -6.3694   12.3608  -12.0100 C   0  0  0  0  0  0  0  0  0  0  0  0
   -6.5170   11.8053  -10.7333 C   0  0  0  0  0  0  0  0  0  0  0  0
   -7.7298   10.5799  -13.0278 C   0  0  0  0  0  0  0  0  0  0  0  0
   -6.9915   11.7687  -13.1228 C   0  0  0  0  0  0  0  0  0  0  0  0
   -7.8213   10.0100  -11.7550 C   0  0  0  0  0  0  0  0  0  0  0  0
   -7.2397   10.6196  -10.6003 C   0  0  0  0  0  0  0  0  0  0  0  0
   -7.6092    9.7471   -9.5124 C   0  0  0  0  0  0  0  0  0  0  0  0
   -8.2773    8.7308   -9.9855 N   0  0  0  0  0  0  0  0  0  0  0  0
   -8.4143    8.8607  -11.2979 N   0  0  0  0  0  0  0  0  0  0  0  0
   -7.3268    9.8907   -8.0257 C   0  0  0  0  0  0  0  0  0  0  0  0
   -4.3565   13.7183  -11.5055 N   0  0  0  0  0  0  0  0  0  0  0  0
   -5.5483   13.6363  -12.1897 C   0  0  0  0  0  0  0  0  0  0  0  0
   -5.9477   14.5322  -12.9368 O   0  0  0  0  0  0  0  0  0  0  0  0
   -5.9513   10.4999   -7.7281 C   0  0  0  0  0  0  0  0  0  0  0  0
   -5.8738   11.7695   -7.1531 C   0  0  0  0  0  0  0  0  0  0  0  0
   -4.6094   12.3134   -6.9136 C   0  0  0  0  0  0  0  0  0  0  0  0
   -3.4376   11.5622   -7.2444 C   0  0  0  0  0  0  0  0  0  0  0  0
   -3.5099   10.2841   -7.8101 C   0  0  0  0  0  0  0  0  0  0  0  0
   -4.7961    9.7769   -8.0457 C   0  0  0  0  0  0  0  0  0  0  0  0
   -4.0914   13.5427   -6.3707 C   0  0  0  0  0  0  0  0  0  0  0  0
   -2.7880   13.5314   -6.3772 N   0  0  0  0  0  0  0  0  0  0  0  0
   -2.3819   12.3721   -6.8788 N   0  0  0  0  0  0  0  0  0  0  0  0
   -0.9505   12.1058   -6.9728 C   0  0  0  0  0  0  0  0  0  0  0  0
   -3.7111   12.5665  -10.8449 C   0  0  0  0  0  0  0  0  0  0  0  0
   -2.2188   12.9372  -10.9792 C   0  0  0  0  0  0  0  0  0  0  0  0
   -2.1852   14.4611  -10.9536 C   0  0  0  0  0  0  0  0  0  0  0  0
   -3.5089   14.9092  -11.5986 C   0  0  0  0  0  0  0  0  0  0  0  0
   -1.7019   12.4742  -12.1199 F   0  0  0  0  0  0  0  0  0  0  0  0
   -1.4726   12.4435   -9.9943 F   0  0  0  0  0  0  0  0  0  0  0  0
   -6.0805   12.2847   -9.8696 H   0  0  0  0  0  0  0  0  0  0  0  0
   -8.2009   10.1304  -13.8894 H   0  0  0  0  0  0  0  0  0  0  0  0
   -6.8975   12.2468  -14.0866 H   0  0  0  0  0  0  0  0  0  0  0  0
   -8.6317    7.9703   -9.4414 H   0  0  0  0  0  0  0  0  0  0  0  0
   -8.0244    9.5937   -7.2566 H   0  0  0  0  0  0  0  0  0  0  0  0
   -6.7691   12.3178   -6.8996 H   0  0  0  0  0  0  0  0  0  0  0  0
   -2.6224    9.7184   -8.0524 H   0  0  0  0  0  0  0  0  0  0  0  0
   -4.8612    8.8324   -7.4857 H   0  0  0  0  0  0  0  0  0  0  0  0
   -4.8512    9.5682   -9.1243 H   0  0  0  0  0  0  0  0  0  0  0  0
   -4.6981   14.3596   -6.0088 H   0  0  0  0  0  0  0  0  0  0  0  0
   -0.3901   12.9695   -6.5854 H   0  0  0  0  0  0  0  0  0  0  0  0
   -0.7040   11.2129   -6.3795 H   0  0  0  0  0  0  0  0  0  0  0  0
   -0.6780   11.9339   -8.0245 H   0  0  0  0  0  0  0  0  0  0  0  0
   -4.0127   12.4865   -9.7901 H   0  0  0  0  0  0  0  0  0  0  0  0
   -3.9402   11.6243  -11.3642 H   0  0  0  0  0  0  0  0  0  0  0  0
   -2.1179   14.8274   -9.9186 H   0  0  0  0  0  0  0  0  0  0  0  0
   -1.3284   14.8371  -11.5320 H   0  0  0  0  0  0  0  0  0  0  0  0
   -3.3556   15.2013  -12.6480 H   0  0  0  0  0  0  0  0  0  0  0  0
   -3.9510   15.7504  -11.0446 H   0  0  0  0  0  0  0  0  0  0  0  0
  1  2  2  0  0  0  0
  1  4  1  0  0  0  0
  1 12  1  0  0  0  0
  2  6  1  0  0  0  0
  3  4  2  0  0  0  0
  3  5  1  0  0  0  0
  5  6  1  0  0  0  0
  5  9  2  0  0  0  0
  6  7  2  0  0  0  0
  7  8  1  0  0  0  0
  7 10  1  0  0  0  0
  8  9  1  0  0  0  0
 10 14  2  3  0  0  0
 11 12  1  0  0  0  0
 11 24  1  0  0  0  0
 11 27  1  0  0  0  0
 12 13  2  0  0  0  0
 14 15  1  0  0  0  0
 14 19  1  0  0  0  0
 15 16  2  0  0  0  0
 16 17  1  0  0  0  0
 16 20  1  0  0  0  0
 17 18  2  0  0  0  0
 17 22  1  0  0  0  0
 18 19  1  0  0  0  0
 20 21  2  0  0  0  0
 21 22  1  0  0  0  0
 22 23  1  0  0  0  0
 24 25  1  0  0  0  0
 25 26  1  0  0  0  0
 25 28  1  0  0  0  0
 25 29  1  0  0  0  0
 26 27  1  0  0  0  0
  2 30  1  0  0  0  0
  3 31  1  0  0  0  0
  4 32  1  0  0  0  0
  8 33  1  0  0  0  0
 10 34  1  0  0  0  0
 15 35  1  0  0  0  0
 18 36  1  0  0  0  0
 19 37  1  0  0  0  0
 19 38  1  0  0  0  0
 20 39  1  0  0  0  0
 23 40  1  0  0  0  0
 23 41  1  0  0  0  0
 23 42  1  0  0  0  0
 24 43  1  0  0  0  0
 24 44  1  0  0  0  0
 26 45  1  0  0  0  0
 26 46  1  0  0  0  0
 27 47  1  0  0  0  0
 27 48  1  0  0  0  0
M  END
> <Name>
43

> <IC50[uM]>
0.002

$$$$
43
  -OEChem-05192314333D
 Structure written by MMmdl.
 48 52  0     0  0  0  0  0  0999 V2000
   -6.3694   12.3608  -12.0100 C   0  0  0  0  0  0  0  0  0  0  0  0
   -6.5170   11.8053  -10.7333 C   0  0  0  0  0  0  0  0  0  0  0  0
   -7.7298   10.5799  -13.0278 C   0  0  0  0  0  0  0  0  0  0  0  0
   -6.9915   11.7687  -13.1228 C   0  0  0  0  0  0  0  0  0  0  0  0
   -7.8213   10.0100  -11.7550 C   0  0  0  0  0  0  0  0  0  0  0  0
   -7.2397   10.6196  -10.6003 C   0  0  0  0  0  0  0  0  0  0  0  0
   -7.6092    9.7471   -9.5124 C   0  0  0  0  0  0  0  0  0  0  0  0
   -8.2773    8.7308   -9.9855 N   0  0  0  0  0  0  0  0  0  0  0  0
   -8.4143    8.8607  -11.2979 N   0  0  0  0  0  0  0  0  0  0  0  0
   -7.3268    9.8907   -8.0257 C   0  0  0  0  0  0  0  0  0  0  0  0
   -4.3565   13.7183  -11.5055 N   0  0  0  0  0  0  0  0  0  0  0  0
   -5.5483   13.6363  -12.1897 C   0  0  0  0  0  0  0  0  0  0  0  0
   -5.9477   14.5322  -12.9368 O   0  0  0  0  0  0  0  0  0  0  0  0
   -5.9513   10.4999   -7.7281 C   0  0  0  0  0  0  0  0  0  0  0  0
   -5.8738   11.7695   -7.1531 C   0  0  0  0  0  0  0  0  0  0  0  0
   -4.6094   12.3134   -6.9136 C   0  0  0  0  0  0  0  0  0  0  0  0
   -3.4376   11.5622   -7.2444 C   0  0  0  0  0  0  0  0  0  0  0  0
   -3.5099   10.2841   -7.8101 C   0  0  0  0  0  0  0  0  0  0  0  0
   -4.7961    9.7769   -8.0457 C   0  0  0  0  0  0  0  0  0  0  0  0
   -4.0914   13.5427   -6.3707 C   0  0  0  0  0  0  0  0  0  0  0  0
   -2.7880   13.5314   -6.3772 N   0  0  0  0  0  0  0  0  0  0  0  0
   -2.3819   12.3721   -6.8788 N   0  0  0  0  0  0  0  0  0  0  0  0
   -0.9505   12.1058   -6.9728 C   0  0  0  0  0  0  0  0  0  0  0  0
   -3.7111   12.5665  -10.8449 C   0  0  0  0  0  0  0  0  0  0  0  0
   -2.2188   12.9372  -10.9792 C   0  0  0  0  0  0  0  0  0  0  0  0
   -2.1852   14.4611  -10.9536 C   0  0  0  0  0  0  0  0  0  0  0  0
   -3.5089   14.9092  -11.5986 C   0  0  0  0  0  0  0  0  0  0  0  0
   -1.7019   12.4742  -12.1199 F   0  0  0  0  0  0  0  0  0  0  0  0
   -1.4726   12.4435   -9.9943 F   0  0  0  0  0  0  0  0  0  0  0  0
   -6.0805   12.2847   -9.8696 H   0  0  0  0  0  0  0  0  0  0  0  0
   -8.2009   10.1304  -13.8894 H   0  0  0  0  0  0  0  0  0  0  0  0
   -6.8975   12.2468  -14.0866 H   0  0  0  0  0  0  0  0  0  0  0  0
   -8.8905    8.2030  -11.8816 H   0  0  0  0  0  0  0  0  0  0  0  0
   -8.0244    9.5937   -7.2566 H   0  0  0  0  0  0  0  0  0  0  0  0
   -6.7691   12.3178   -6.8996 H   0  0  0  0  0  0  0  0  0  0  0  0
   -2.6224    9.7184   -8.0524 H   0  0  0  0  0  0  0  0  0  0  0  0
   -4.8612    8.8324   -7.4857 H   0  0  0  0  0  0  0  0  0  0  0  0
   -4.8512    9.5682   -9.1243 H   0  0  0  0  0  0  0  0  0  0  0  0
   -4.6981   14.3596   -6.0088 H   0  0  0  0  0  0  0  0  0  0  0  0
   -0.3901   12.9695   -6.5854 H   0  0  0  0  0  0  0  0  0  0  0  0
   -0.7040   11.2129   -6.3795 H   0  0  0  0  0  0  0  0  0  0  0  0
   -0.6780   11.9339   -8.0245 H   0  0  0  0  0  0  0  0  0  0  0  0
   -4.0127   12.4865   -9.7901 H   0  0  0  0  0  0  0  0  0  0  0  0
   -3.9402   11.6243  -11.3642 H   0  0  0  0  0  0  0  0  0  0  0  0
   -2.1179   14.8274   -9.9186 H   0  0  0  0  0  0  0  0  0  0  0  0
   -1.3284   14.8371  -11.5320 H   0  0  0  0  0  0  0  0  0  0  0  0
   -3.3556   15.2013  -12.6480 H   0  0  0  0  0  0  0  0  0  0  0  0
   -3.9510   15.7504  -11.0446 H   0  0  0  0  0  0  0  0  0  0  0  0
  1  2  2  0  0  0  0
  1  4  1  0  0  0  0
  1 12  1  0  0  0  0
  2  6  1  0  0  0  0
  3  4  2  0  0  0  0
  3  5  1  0  0  0  0
  5  6  2  0  0  0  0
  5  9  1  0  0  0  0
  6  7  1  0  0  0  0
  7  8  2  0  0  0  0
  7 10  1  0  0  0  0
  8  9  1  0  0  0  0
 10 14  2  3  0  0  0
 11 12  1  0  0  0  0
 11 24  1  0  0  0  0
 11 27  1  0  0  0  0
 12 13  2  0  0  0  0
 14 15  1  0  0  0  0
 14 19  1  0  0  0  0
 15 16  2  0  0  0  0
 16 17  1  0  0  0  0
 16 20  1  0  0  0  0
 17 18  2  0  0  0  0
 17 22  1  0  0  0  0
 18 19  1  0  0  0  0
 20 21  2  0  0  0  0
 21 22  1  0  0  0  0
 22 23  1  0  0  0  0
 24 25  1  0  0  0  0
 25 26  1  0  0  0  0
 25 28  1  0  0  0  0
 25 29  1  0  0  0  0
 26 27  1  0  0  0  0
  2 30  1  0  0  0  0
  3 31  1  0  0  0  0
  4 32  1  0  0  0  0
  9 33  1  0  0  0  0
 10 34  1  0  0  0  0
 15 35  1  0  0  0  0
 18 36  1  0  0  0  0
 19 37  1  0  0  0  0
 19 38  1  0  0  0  0
 20 39  1  0  0  0  0
 23 40  1  0  0  0  0
 23 41  1  0  0  0  0
 23 42  1  0  0  0  0
 24 43  1  0  0  0  0
 24 44  1  0  0  0  0
 26 45  1  0  0  0  0
 26 46  1  0  0  0  0
 27 47  1  0  0  0  0
 27 48  1  0  0  0  0
M  END
> <Name>
43

> <IC50[uM]>
0.002

$$$$
43
  -OEChem-05192314333D
 Structure written by MMmdl.
 48 52  0     1  0  0  0  0  0999 V2000
   -6.3694   12.3608  -12.0100 C   0  0  0  0  0  0  0  0  0  0  0  0
   -6.5170   11.8053  -10.7333 C   0  0  0  0  0  0  0  0  0  0  0  0
   -7.7298   10.5799  -13.0278 C   0  0  0  0  0  0  0  0  0  0  0  0
   -6.9915   11.7687  -13.1228 C   0  0  0  0  0  0  0  0  0  0  0  0
   -7.8213   10.0100  -11.7550 C   0  0  0  0  0  0  0  0  0  0  0  0
   -7.2397   10.6196  -10.6003 C   0  0  0  0  0  0  0  0  0  0  0  0
   -7.6092    9.7471   -9.5124 C   0  0  0  0  0  0  0  0  0  0  0  0
   -8.2773    8.7308   -9.9855 N   0  0  0  0  0  0  0  0  0  0  0  0
   -8.4143    8.8607  -11.2979 N   0  0  0  0  0  0  0  0  0  0  0  0
   -7.3268    9.8907   -8.0257 C   0  0  0  0  0  0  0  0  0  0  0  0
   -4.3565   13.7183  -11.5055 N   0  0  0  0  0  0  0  0  0  0  0  0
   -5.5483   13.6363  -12.1897 C   0  0  0  0  0  0  0  0  0  0  0  0
   -5.9477   14.5322  -12.9368 O   0  0  0  0  0  0  0  0  0  0  0  0
   -5.9513   10.4999   -7.7281 C   0  0  0  0  0  0  0  0  0  0  0  0
   -5.8738   11.7695   -7.1531 C   0  0  0  0  0  0  0  0  0  0  0  0
   -4.6094   12.3134   -6.9136 C   0  0  0  0  0  0  0  0  0  0  0  0
   -3.4376   11.5622   -7.2444 C   0  0  0  0  0  0  0  0  0  0  0  0
   -3.5099   10.2841   -7.8101 C   0  0  0  0  0  0  0  0  0  0  0  0
   -4.7961    9.7769   -8.0457 C   0  0  0  0  0  0  0  0  0  0  0  0
   -4.0914   13.5427   -6.3707 C   0  0  0  0  0  0  0  0  0  0  0  0
   -2.7880   13.5314   -6.3772 N   0  0  0  0  0  0  0  0  0  0  0  0
   -2.3819   12.3721   -6.8788 N   0  0  3  0  0  0  0  0  0  0  0  0
   -0.9505   12.1058   -6.9728 C   0  0  0  0  0  0  0  0  0  0  0  0
   -3.7111   12.5665  -10.8449 C   0  0  0  0  0  0  0  0  0  0  0  0
   -2.2188   12.9372  -10.9792 C   0  0  0  0  0  0  0  0  0  0  0  0
   -2.1852   14.4611  -10.9536 C   0  0  0  0  0  0  0  0  0  0  0  0
   -3.5089   14.9092  -11.5986 C   0  0  0  0  0  0  0  0  0  0  0  0
   -1.7019   12.4742  -12.1199 F   0  0  0  0  0  0  0  0  0  0  0  0
   -1.4726   12.4435   -9.9943 F   0  0  0  0  0  0  0  0  0  0  0  0
   -6.0805   12.2847   -9.8696 H   0  0  0  0  0  0  0  0  0  0  0  0
   -8.2009   10.1304  -13.8894 H   0  0  0  0  0  0  0  0  0  0  0  0
   -6.8975   12.2468  -14.0866 H   0  0  0  0  0  0  0  0  0  0  0  0
   -8.0244    9.5937   -7.2566 H   0  0  0  0  0  0  0  0  0  0  0  0
   -6.7691   12.3178   -6.8996 H   0  0  0  0  0  0  0  0  0  0  0  0
   -2.6224    9.7184   -8.0524 H   0  0  0  0  0  0  0  0  0  0  0  0
   -4.8983    8.7963   -8.4866 H   0  0  0  0  0  0  0  0  0  0  0  0
   -4.4491   14.3863   -6.9793 H   0  0  0  0  0  0  0  0  0  0  0  0
   -4.4472   13.6599   -5.3365 H   0  0  0  0  0  0  0  0  0  0  0  0
   -2.4465   14.2822   -6.9426 H   0  0  0  0  0  0  0  0  0  0  0  0
   -0.3900   12.9716   -6.5903 H   0  0  0  0  0  0  0  0  0  0  0  0
   -0.7032   11.2160   -6.3752 H   0  0  0  0  0  0  0  0  0  0  0  0
   -0.6789   11.9286   -8.0239 H   0  0  0  0  0  0  0  0  0  0  0  0
   -4.0127   12.4865   -9.7901 H   0  0  0  0  0  0  0  0  0  0  0  0
   -3.9402   11.6243  -11.3642 H   0  0  0  0  0  0  0  0  0  0  0  0
   -2.1179   14.8274   -9.9186 H   0  0  0  0  0  0  0  0  0  0  0  0
   -1.3284   14.8371  -11.5320 H   0  0  0  0  0  0  0  0  0  0  0  0
   -3.3556   15.2013  -12.6480 H   0  0  0  0  0  0  0  0  0  0  0  0
   -3.9510   15.7504  -11.0446 H   0  0  0  0  0  0  0  0  0  0  0  0
  1  2  2  0  0  0  0
  1  4  1  0  0  0  0
  1 12  1  0  0  0  0
  2  6  1  0  0  0  0
  3  4  2  0  0  0  0
  3  5  1  0  0  0  0
  5  6  2  0  0  0  0
  5  9  1  0  0  0  0
  6  7  1  0  0  0  0
  7  8  1  0  0  0  0
  7 10  2  3  0  0  0
  8  9  2  0  0  0  0
 10 14  1  0  0  0  0
 11 12  1  0  0  0  0
 11 24  1  0  0  0  0
 11 27  1  0  0  0  0
 12 13  2  0  0  0  0
 14 15  2  0  0  0  0
 14 19  1  0  0  0  0
 15 16  1  0  0  0  0
 16 17  2  0  0  0  0
 16 20  1  0  0  0  0
 17 18  1  0  0  0  0
 17 22  1  0  0  0  0
 18 19  2  0  0  0  0
 20 21  1  0  0  0  0
 21 22  1  0  0  0  0
 22 23  1  0  0  0  0
 24 25  1  0  0  0  0
 25 26  1  0  0  0  0
 25 28  1  0  0  0  0
 25 29  1  0  0  0  0
 26 27  1  0  0  0  0
  2 30  1  0  0  0  0
  3 31  1  0  0  0  0
  4 32  1  0  0  0  0
 10 33  1  0  0  0  0
 15 34  1  0  0  0  0
 18 35  1  0  0  0  0
 19 36  1  0  0  0  0
 20 37  1  0  0  0  0
 20 38  1  0  0  0  0
 21 39  1  0  0  0  0
 23 40  1  0  0  0  0
 23 41  1  0  0  0  0
 23 42  1  0  0  0  0
 24 43  1  0  0  0  0
 24 44  1  0  0  0  0
 26 45  1  0  0  0  0
 26 46  1  0  0  0  0
 27 47  1  0  0  0  0
 27 48  1  0  0  0  0
M  END
> <Name>
43

> <IC50[uM]>
0.002

$$$$
43
  -OEChem-05192314333D
 Structure written by MMmdl.
 48 52  0     0  0  0  0  0  0999 V2000
   -6.3694   12.3608  -12.0100 C   0  0  0  0  0  0  0  0  0  0  0  0
   -6.5170   11.8053  -10.7333 C   0  0  0  0  0  0  0  0  0  0  0  0
   -7.7298   10.5799  -13.0278 C   0  0  0  0  0  0  0  0  0  0  0  0
   -6.9915   11.7687  -13.1228 C   0  0  0  0  0  0  0  0  0  0  0  0
   -7.8213   10.0100  -11.7550 C   0  0  0  0  0  0  0  0  0  0  0  0
   -7.2397   10.6196  -10.6003 C   0  0  0  0  0  0  0  0  0  0  0  0
   -7.6092    9.7471   -9.5124 C   0  0  0  0  0  0  0  0  0  0  0  0
   -8.2773    8.7308   -9.9855 N   0  0  0  0  0  0  0  0  0  0  0  0
   -8.4143    8.8607  -11.2979 N   0  0  0  0  0  0  0  0  0  0  0  0
   -7.3268    9.8907   -8.0257 C   0  0  0  0  0  0  0  0  0  0  0  0
   -4.3565   13.7183  -11.5055 N   0  0  0  0  0  0  0  0  0  0  0  0
   -5.5483   13.6363  -12.1897 C   0  0  0  0  0  0  0  0  0  0  0  0
   -5.9477   14.5322  -12.9368 O   0  0  0  0  0  0  0  0  0  0  0  0
   -5.9513   10.4999   -7.7281 C   0  0  0  0  0  0  0  0  0  0  0  0
   -5.8738   11.7695   -7.1531 C   0  0  0  0  0  0  0  0  0  0  0  0
   -4.6094   12.3134   -6.9136 C   0  0  0  0  0  0  0  0  0  0  0  0
   -3.4376   11.5622   -7.2444 C   0  0  0  0  0  0  0  0  0  0  0  0
   -3.5099   10.2841   -7.8101 C   0  0  0  0  0  0  0  0  0  0  0  0
   -4.7961    9.7769   -8.0457 C   0  0  0  0  0  0  0  0  0  0  0  0
   -4.0914   13.5427   -6.3707 C   0  0  0  0  0  0  0  0  0  0  0  0
   -2.7880   13.5314   -6.3772 N   0  0  0  0  0  0  0  0  0  0  0  0
   -2.3819   12.3721   -6.8788 N   0  0  0  0  0  0  0  0  0  0  0  0
   -0.9505   12.1058   -6.9728 C   0  0  0  0  0  0  0  0  0  0  0  0
   -3.7111   12.5665  -10.8449 C   0  0  0  0  0  0  0  0  0  0  0  0
   -2.2188   12.9372  -10.9792 C   0  0  0  0  0  0  0  0  0  0  0  0
   -2.1852   14.4611  -10.9536 C   0  0  0  0  0  0  0  0  0  0  0  0
   -3.5089   14.9092  -11.5986 C   0  0  0  0  0  0  0  0  0  0  0  0
   -1.7019   12.4742  -12.1199 F   0  0  0  0  0  0  0  0  0  0  0  0
   -1.4726   12.4435   -9.9943 F   0  0  0  0  0  0  0  0  0  0  0  0
   -6.0805   12.2847   -9.8696 H   0  0  0  0  0  0  0  0  0  0  0  0
   -8.2009   10.1304  -13.8894 H   0  0  0  0  0  0  0  0  0  0  0  0
   -6.8975   12.2468  -14.0866 H   0  0  0  0  0  0  0  0  0  0  0  0
   -8.0244    9.5937   -7.2566 H   0  0  0  0  0  0  0  0  0  0  0  0
   -6.7691   12.3178   -6.8996 H   0  0  0  0  0  0  0  0  0  0  0  0
   -2.9807   10.3146   -8.7740 H   0  0  0  0  0  0  0  0  0  0  0  0
   -2.9952    9.5883   -7.1311 H   0  0  0  0  0  0  0  0  0  0  0  0
   -4.8612    8.8324   -7.4857 H   0  0  0  0  0  0  0  0  0  0  0  0
   -4.8512    9.5682   -9.1243 H   0  0  0  0  0  0  0  0  0  0  0  0
   -4.6981   14.3596   -6.0088 H   0  0  0  0  0  0  0  0  0  0  0  0
   -0.3901   12.9695   -6.5854 H   0  0  0  0  0  0  0  0  0  0  0  0
   -0.7040   11.2129   -6.3795 H   0  0  0  0  0  0  0  0  0  0  0  0
   -0.6780   11.9339   -8.0245 H   0  0  0  0  0  0  0  0  0  0  0  0
   -4.0127   12.4865   -9.7901 H   0  0  0  0  0  0  0  0  0  0  0  0
   -3.9402   11.6243  -11.3642 H   0  0  0  0  0  0  0  0  0  0  0  0
   -2.1179   14.8274   -9.9186 H   0  0  0  0  0  0  0  0  0  0  0  0
   -1.3284   14.8371  -11.5320 H   0  0  0  0  0  0  0  0  0  0  0  0
   -3.3556   15.2013  -12.6480 H   0  0  0  0  0  0  0  0  0  0  0  0
   -3.9510   15.7504  -11.0446 H   0  0  0  0  0  0  0  0  0  0  0  0
  1  2  2  0  0  0  0
  1  4  1  0  0  0  0
  1 12  1  0  0  0  0
  2  6  1  0  0  0  0
  3  4  2  0  0  0  0
  3  5  1  0  0  0  0
  5  6  2  0  0  0  0
  5  9  1  0  0  0  0
  6  7  1  0  0  0  0
  7  8  1  0  0  0  0
  7 10  2  3  0  0  0
  8  9  2  0  0  0  0
 10 14  1  0  0  0  0
 11 12  1  0  0  0  0
 11 24  1  0  0  0  0
 11 27  1  0  0  0  0
 12 13  2  0  0  0  0
 14 15  2  0  0  0  0
 14 19  1  0  0  0  0
 15 16  1  0  0  0  0
 16 17  2  0  0  0  0
 16 20  1  0  0  0  0
 17 18  1  0  0  0  0
 17 22  1  0  0  0  0
 18 19  1  0  0  0  0
 20 21  2  0  0  0  0
 21 22  1  0  0  0  0
 22 23  1  0  0  0  0
 24 25  1  0  0  0  0
 25 26  1  0  0  0  0
 25 28  1  0  0  0  0
 25 29  1  0  0  0  0
 26 27  1  0  0  0  0
  2 30  1  0  0  0  0
  3 31  1  0  0  0  0
  4 32  1  0  0  0  0
 10 33  1  0  0  0  0
 15 34  1  0  0  0  0
 18 35  1  0  0  0  0
 18 36  1  0  0  0  0
 19 37  1  0  0  0  0
 19 38  1  0  0  0  0
 20 39  1  0  0  0  0
 23 40  1  0  0  0  0
 23 41  1  0  0  0  0
 23 42  1  0  0  0  0
 24 43  1  0  0  0  0
 24 44  1  0  0  0  0
 26 45  1  0  0  0  0
 26 46  1  0  0  0  0
 27 47  1  0  0  0  0
 27 48  1  0  0  0  0
M  END
> <Name>
43

> <IC50[uM]>
0.002

$$$$
43
  -OEChem-05192314333D
 Structure written by MMmdl.
 48 52  0     1  0  0  0  0  0999 V2000
   -6.3694   12.3608  -12.0100 C   0  0  0  0  0  0  0  0  0  0  0  0
   -6.5170   11.8053  -10.7333 C   0  0  0  0  0  0  0  0  0  0  0  0
   -7.7298   10.5799  -13.0278 C   0  0  0  0  0  0  0  0  0  0  0  0
   -6.9915   11.7687  -13.1228 C   0  0  0  0  0  0  0  0  0  0  0  0
   -7.8213   10.0100  -11.7550 C   0  0  0  0  0  0  0  0  0  0  0  0
   -7.2397   10.6196  -10.6003 C   0  0  0  0  0  0  0  0  0  0  0  0
   -7.6092    9.7471   -9.5124 C   0  0  0  0  0  0  0  0  0  0  0  0
   -8.2773    8.7308   -9.9855 N   0  0  0  0  0  0  0  0  0  0  0  0
   -8.4143    8.8607  -11.2979 N   0  0  0  0  0  0  0  0  0  0  0  0
   -7.3268    9.8907   -8.0257 C   0  0  0  0  0  0  0  0  0  0  0  0
   -4.3565   13.7183  -11.5055 N   0  0  0  0  0  0  0  0  0  0  0  0
   -5.5483   13.6363  -12.1897 C   0  0  0  0  0  0  0  0  0  0  0  0
   -5.9477   14.5322  -12.9368 O   0  0  0  0  0  0  0  0  0  0  0  0
   -5.9513   10.4999   -7.7281 C   0  0  3  0  0  0  0  0  0  0  0  0
   -5.8738   11.7695   -7.1531 C   0  0  0  0  0  0  0  0  0  0  0  0
   -4.6094   12.3134   -6.9136 C   0  0  0  0  0  0  0  0  0  0  0  0
   -3.4376   11.5622   -7.2444 C   0  0  0  0  0  0  0  0  0  0  0  0
   -3.5099   10.2841   -7.8101 C   0  0  0  0  0  0  0  0  0  0  0  0
   -4.7961    9.7769   -8.0457 C   0  0  0  0  0  0  0  0  0  0  0  0
   -4.0914   13.5427   -6.3707 C   0  0  0  0  0  0  0  0  0  0  0  0
   -2.7880   13.5314   -6.3772 N   0  0  0  0  0  0  0  0  0  0  0  0
   -2.3819   12.3721   -6.8788 N   0  0  0  0  0  0  0  0  0  0  0  0
   -0.9505   12.1058   -6.9728 C   0  0  0  0  0  0  0  0  0  0  0  0
   -3.7111   12.5665  -10.8449 C   0  0  0  0  0  0  0  0  0  0  0  0
   -2.2188   12.9372  -10.9792 C   0  0  0  0  0  0  0  0  0  0  0  0
   -2.1852   14.4611  -10.9536 C   0  0  0  0  0  0  0  0  0  0  0  0
   -3.5089   14.9092  -11.5986 C   0  0  0  0  0  0  0  0  0  0  0  0
   -1.7019   12.4742  -12.1199 F   0  0  0  0  0  0  0  0  0  0  0  0
   -1.4726   12.4435   -9.9943 F   0  0  0  0  0  0  0  0  0  0  0  0
   -6.0805   12.2847   -9.8696 H   0  0  0  0  0  0  0  0  0  0  0  0
   -8.2009   10.1304  -13.8894 H   0  0  0  0  0  0  0  0  0  0  0  0
   -6.8975   12.2468  -14.0866 H   0  0  0  0  0  0  0  0  0  0  0  0
   -8.0244    9.5937   -7.2566 H   0  0  0  0  0  0  0  0  0  0  0  0
   -5.9639   10.0446   -6.7268 H   0  0  0  0  0  0  0  0  0  0  0  0
   -6.4048   12.4627   -7.8221 H   0  0  0  0  0  0  0  0  0  0  0  0
   -6.3957   11.7211   -6.1860 H   0  0  0  0  0  0  0  0  0  0  0  0
   -2.6224    9.7184   -8.0524 H   0  0  0  0  0  0  0  0  0  0  0  0
   -4.8983    8.7963   -8.4866 H   0  0  0  0  0  0  0  0  0  0  0  0
   -4.6981   14.3596   -6.0088 H   0  0  0  0  0  0  0  0  0  0  0  0
   -0.3901   12.9695   -6.5854 H   0  0  0  0  0  0  0  0  0  0  0  0
   -0.7040   11.2129   -6.3795 H   0  0  0  0  0  0  0  0  0  0  0  0
   -0.6780   11.9339   -8.0245 H   0  0  0  0  0  0  0  0  0  0  0  0
   -4.0127   12.4865   -9.7901 H   0  0  0  0  0  0  0  0  0  0  0  0
   -3.9402   11.6243  -11.3642 H   0  0  0  0  0  0  0  0  0  0  0  0
   -2.1179   14.8274   -9.9186 H   0  0  0  0  0  0  0  0  0  0  0  0
   -1.3284   14.8371  -11.5320 H   0  0  0  0  0  0  0  0  0  0  0  0
   -3.3556   15.2013  -12.6480 H   0  0  0  0  0  0  0  0  0  0  0  0
   -3.9510   15.7504  -11.0446 H   0  0  0  0  0  0  0  0  0  0  0  0
  1  2  2  0  0  0  0
  1  4  1  0  0  0  0
  1 12  1  0  0  0  0
  2  6  1  0  0  0  0
  3  4  2  0  0  0  0
  3  5  1  0  0  0  0
  5  6  2  0  0  0  0
  5  9  1  0  0  0  0
  6  7  1  0  0  0  0
  7  8  1  0  0  0  0
  7 10  2  3  0  0  0
  8  9  2  0  0  0  0
 10 14  1  0  0  0  0
 11 12  1  0  0  0  0
 11 24  1  0  0  0  0
 11 27  1  0  0  0  0
 12 13  2  0  0  0  0
 14 15  1  0  0  0  0
 14 19  1  0  0  0  0
 15 16  1  0  0  0  0
 16 17  2  0  0  0  0
 16 20  1  0  0  0  0
 17 18  1  0  0  0  0
 17 22  1  0  0  0  0
 18 19  2  0  0  0  0
 20 21  2  0  0  0  0
 21 22  1  0  0  0  0
 22 23  1  0  0  0  0
 24 25  1  0  0  0  0
 25 26  1  0  0  0  0
 25 28  1  0  0  0  0
 25 29  1  0  0  0  0
 26 27  1  0  0  0  0
  2 30  1  0  0  0  0
  3 31  1  0  0  0  0
  4 32  1  0  0  0  0
 10 33  1  0  0  0  0
 14 34  1  0  0  0  0
 15 35  1  0  0  0  0
 15 36  1  0  0  0  0
 18 37  1  0  0  0  0
 19 38  1  0  0  0  0
 20 39  1  0  0  0  0
 23 40  1  0  0  0  0
 23 41  1  0  0  0  0
 23 42  1  0  0  0  0
 24 43  1  0  0  0  0
 24 44  1  0  0  0  0
 26 45  1  0  0  0  0
 26 46  1  0  0  0  0
 27 47  1  0  0  0  0
 27 48  1  0  0  0  0
M  END
> <Name>
43

> <IC50[uM]>
0.002

$$$$
43
  -OEChem-05192314333D
 Structure written by MMmdl.
 48 52  0     1  0  0  0  0  0999 V2000
   -6.3694   12.3608  -12.0100 C   0  0  0  0  0  0  0  0  0  0  0  0
   -6.5170   11.8053  -10.7333 C   0  0  0  0  0  0  0  0  0  0  0  0
   -7.7298   10.5799  -13.0278 C   0  0  0  0  0  0  0  0  0  0  0  0
   -6.9915   11.7687  -13.1228 C   0  0  0  0  0  0  0  0  0  0  0  0
   -7.8213   10.0100  -11.7550 C   0  0  0  0  0  0  0  0  0  0  0  0
   -7.2397   10.6196  -10.6003 C   0  0  0  0  0  0  0  0  0  0  0  0
   -7.6092    9.7471   -9.5124 C   0  0  3  0  0  0  0  0  0  0  0  0
   -8.2773    8.7308   -9.9855 N   0  0  0  0  0  0  0  0  0  0  0  0
   -8.4143    8.8607  -11.2979 N   0  0  0  0  0  0  0  0  0  0  0  0
   -7.3268    9.8907   -8.0257 C   0  0  0  0  0  0  0  0  0  0  0  0
   -4.3565   13.7183  -11.5055 N   0  0  0  0  0  0  0  0  0  0  0  0
   -5.5483   13.6363  -12.1897 C   0  0  0  0  0  0  0  0  0  0  0  0
   -5.9477   14.5322  -12.9368 O   0  0  0  0  0  0  0  0  0  0  0  0
   -5.9513   10.4999   -7.7281 C   0  0  0  0  0  0  0  0  0  0  0  0
   -5.8738   11.7695   -7.1531 C   0  0  0  0  0  0  0  0  0  0  0  0
   -4.6094   12.3134   -6.9136 C   0  0  0  0  0  0  0  0  0  0  0  0
   -3.4376   11.5622   -7.2444 C   0  0  0  0  0  0  0  0  0  0  0  0
   -3.5099   10.2841   -7.8101 C   0  0  0  0  0  0  0  0  0  0  0  0
   -4.7961    9.7769   -8.0457 C   0  0  0  0  0  0  0  0  0  0  0  0
   -4.0914   13.5427   -6.3707 C   0  0  0  0  0  0  0  0  0  0  0  0
   -2.7880   13.5314   -6.3772 N   0  0  0  0  0  0  0  0  0  0  0  0
   -2.3819   12.3721   -6.8788 N   0  0  0  0  0  0  0  0  0  0  0  0
   -0.9505   12.1058   -6.9728 C   0  0  0  0  0  0  0  0  0  0  0  0
   -3.7111   12.5665  -10.8449 C   0  0  0  0  0  0  0  0  0  0  0  0
   -2.2188   12.9372  -10.9792 C   0  0  0  0  0  0  0  0  0  0  0  0
   -2.1852   14.4611  -10.9536 C   0  0  0  0  0  0  0  0  0  0  0  0
   -3.5089   14.9092  -11.5986 C   0  0  0  0  0  0  0  0  0  0  0  0
   -1.7019   12.4742  -12.1199 F   0  0  0  0  0  0  0  0  0  0  0  0
   -1.4726   12.4435   -9.9943 F   0  0  0  0  0  0  0  0  0  0  0  0
   -6.0805   12.2847   -9.8696 H   0  0  0  0  0  0  0  0  0  0  0  0
   -8.2009   10.1304  -13.8894 H   0  0  0  0  0  0  0  0  0  0  0  0
   -6.8975   12.2468  -14.0866 H   0  0  0  0  0  0  0  0  0  0  0  0
   -6.6693    9.1897   -9.6384 H   0  0  0  0  0  0  0  0  0  0  0  0
   -8.0244    9.5937   -7.2566 H   0  0  0  0  0  0  0  0  0  0  0  0
   -6.4048   12.4627   -7.8221 H   0  0  0  0  0  0  0  0  0  0  0  0
   -6.3957   11.7211   -6.1860 H   0  0  0  0  0  0  0  0  0  0  0  0
   -2.6224    9.7184   -8.0524 H   0  0  0  0  0  0  0  0  0  0  0  0
   -4.8983    8.7963   -8.4866 H   0  0  0  0  0  0  0  0  0  0  0  0
   -4.6981   14.3596   -6.0088 H   0  0  0  0  0  0  0  0  0  0  0  0
   -0.3901   12.9695   -6.5854 H   0  0  0  0  0  0  0  0  0  0  0  0
   -0.7040   11.2129   -6.3795 H   0  0  0  0  0  0  0  0  0  0  0  0
   -0.6780   11.9339   -8.0245 H   0  0  0  0  0  0  0  0  0  0  0  0
   -4.0127   12.4865   -9.7901 H   0  0  0  0  0  0  0  0  0  0  0  0
   -3.9402   11.6243  -11.3642 H   0  0  0  0  0  0  0  0  0  0  0  0
   -2.1179   14.8274   -9.9186 H   0  0  0  0  0  0  0  0  0  0  0  0
   -1.3284   14.8371  -11.5320 H   0  0  0  0  0  0  0  0  0  0  0  0
   -3.3556   15.2013  -12.6480 H   0  0  0  0  0  0  0  0  0  0  0  0
   -3.9510   15.7504  -11.0446 H   0  0  0  0  0  0  0  0  0  0  0  0
  1  2  2  0  0  0  0
  1  4  1  0  0  0  0
  1 12  1  0  0  0  0
  2  6  1  0  0  0  0
  3  4  2  0  0  0  0
  3  5  1  0  0  0  0
  5  6  2  0  0  0  0
  5  9  1  0  0  0  0
  6  7  1  0  0  0  0
  7  8  1  0  0  0  0
  7 10  1  0  0  0  0
  8  9  2  0  0  0  0
 10 14  2  3  0  0  0
 11 12  1  0  0  0  0
 11 24  1  0  0  0  0
 11 27  1  0  0  0  0
 12 13  2  0  0  0  0
 14 15  1  0  0  0  0
 14 19  1  0  0  0  0
 15 16  1  0  0  0  0
 16 17  2  0  0  0  0
 16 20  1  0  0  0  0
 17 18  1  0  0  0  0
 17 22  1  0  0  0  0
 18 19  2  0  0  0  0
 20 21  2  0  0  0  0
 21 22  1  0  0  0  0
 22 23  1  0  0  0  0
 24 25  1  0  0  0  0
 25 26  1  0  0  0  0
 25 28  1  0  0  0  0
 25 29  1  0  0  0  0
 26 27  1  0  0  0  0
  2 30  1  0  0  0  0
  3 31  1  0  0  0  0
  4 32  1  0  0  0  0
  7 33  1  0  0  0  0
 10 34  1  0  0  0  0
 15 35  1  0  0  0  0
 15 36  1  0  0  0  0
 18 37  1  0  0  0  0
 19 38  1  0  0  0  0
 20 39  1  0  0  0  0
 23 40  1  0  0  0  0
 23 41  1  0  0  0  0
 23 42  1  0  0  0  0
 24 43  1  0  0  0  0
 24 44  1  0  0  0  0
 26 45  1  0  0  0  0
 26 46  1  0  0  0  0
 27 47  1  0  0  0  0
 27 48  1  0  0  0  0
M  END
> <Name>
43

> <IC50[uM]>
0.002

$$$$
43
  -OEChem-05192314333D
 Structure written by MMmdl.
 48 52  0     0  0  0  0  0  0999 V2000
   -6.3694   12.3608  -12.0100 C   0  0  0  0  0  0  0  0  0  0  0  0
   -6.5170   11.8053  -10.7333 C   0  0  0  0  0  0  0  0  0  0  0  0
   -7.7298   10.5799  -13.0278 C   0  0  0  0  0  0  0  0  0  0  0  0
   -6.9915   11.7687  -13.1228 C   0  0  0  0  0  0  0  0  0  0  0  0
   -7.8213   10.0100  -11.7550 C   0  0  0  0  0  0  0  0  0  0  0  0
   -7.2397   10.6196  -10.6003 C   0  0  0  0  0  0  0  0  0  0  0  0
   -7.6092    9.7471   -9.5124 C   0  0  0  0  0  0  0  0  0  0  0  0
   -8.2773    8.7308   -9.9855 N   0  0  0  0  0  0  0  0  0  0  0  0
   -8.4143    8.8607  -11.2979 N   0  0  0  0  0  0  0  0  0  0  0  0
   -7.3268    9.8907   -8.0257 C   0  0  0  0  0  0  0  0  0  0  0  0
   -4.3565   13.7183  -11.5055 N   0  0  0  0  0  0  0  0  0  0  0  0
   -5.5483   13.6363  -12.1897 C   0  0  0  0  0  0  0  0  0  0  0  0
   -5.9477   14.5322  -12.9368 O   0  0  0  0  0  0  0  0  0  0  0  0
   -5.9513   10.4999   -7.7281 C   0  0  0  0  0  0  0  0  0  0  0  0
   -5.8738   11.7695   -7.1531 C   0  0  0  0  0  0  0  0  0  0  0  0
   -4.6094   12.3134   -6.9136 C   0  0  0  0  0  0  0  0  0  0  0  0
   -3.4376   11.5622   -7.2444 C   0  0  0  0  0  0  0  0  0  0  0  0
   -3.5099   10.2841   -7.8101 C   0  0  0  0  0  0  0  0  0  0  0  0
   -4.7961    9.7769   -8.0457 C   0  0  0  0  0  0  0  0  0  0  0  0
   -4.0914   13.5427   -6.3707 C   0  0  0  0  0  0  0  0  0  0  0  0
   -2.7880   13.5314   -6.3772 N   0  0  0  0  0  0  0  0  0  0  0  0
   -2.3819   12.3721   -6.8788 N   0  0  0  0  0  0  0  0  0  0  0  0
   -0.9505   12.1058   -6.9728 C   0  0  0  0  0  0  0  0  0  0  0  0
   -3.7111   12.5665  -10.8449 C   0  0  0  0  0  0  0  0  0  0  0  0
   -2.2188   12.9372  -10.9792 C   0  0  0  0  0  0  0  0  0  0  0  0
   -2.1852   14.4611  -10.9536 C   0  0  0  0  0  0  0  0  0  0  0  0
   -3.5089   14.9092  -11.5986 C   0  0  0  0  0  0  0  0  0  0  0  0
   -1.7019   12.4742  -12.1199 F   0  0  0  0  0  0  0  0  0  0  0  0
   -1.4726   12.4435   -9.9943 F   0  0  0  0  0  0  0  0  0  0  0  0
   -6.0805   12.2847   -9.8696 H   0  0  0  0  0  0  0  0  0  0  0  0
   -8.2009   10.1304  -13.8894 H   0  0  0  0  0  0  0  0  0  0  0  0
   -6.8975   12.2468  -14.0866 H   0  0  0  0  0  0  0  0  0  0  0  0
   -8.0244    9.5937   -7.2566 H   0  0  0  0  0  0  0  0  0  0  0  0
   -6.4048   12.4627   -7.8221 H   0  0  0  0  0  0  0  0  0  0  0  0
   -6.3957   11.7211   -6.1860 H   0  0  0  0  0  0  0  0  0  0  0  0
   -2.9807   10.3146   -8.7740 H   0  0  0  0  0  0  0  0  0  0  0  0
   -2.9952    9.5883   -7.1311 H   0  0  0  0  0  0  0  0  0  0  0  0
   -4.8983    8.7963   -8.4866 H   0  0  0  0  0  0  0  0  0  0  0  0
   -4.6981   14.3596   -6.0088 H   0  0  0  0  0  0  0  0  0  0  0  0
   -0.3901   12.9695   -6.5854 H   0  0  0  0  0  0  0  0  0  0  0  0
   -0.7040   11.2129   -6.3795 H   0  0  0  0  0  0  0  0  0  0  0  0
   -0.6780   11.9339   -8.0245 H   0  0  0  0  0  0  0  0  0  0  0  0
   -4.0127   12.4865   -9.7901 H   0  0  0  0  0  0  0  0  0  0  0  0
   -3.9402   11.6243  -11.3642 H   0  0  0  0  0  0  0  0  0  0  0  0
   -2.1179   14.8274   -9.9186 H   0  0  0  0  0  0  0  0  0  0  0  0
   -1.3284   14.8371  -11.5320 H   0  0  0  0  0  0  0  0  0  0  0  0
   -3.3556   15.2013  -12.6480 H   0  0  0  0  0  0  0  0  0  0  0  0
   -3.9510   15.7504  -11.0446 H   0  0  0  0  0  0  0  0  0  0  0  0
  1  2  2  0  0  0  0
  1  4  1  0  0  0  0
  1 12  1  0  0  0  0
  2  6  1  0  0  0  0
  3  4  2  0  0  0  0
  3  5  1  0  0  0  0
  5  6  2  0  0  0  0
  5  9  1  0  0  0  0
  6  7  1  0  0  0  0
  7  8  1  0  0  0  0
  7 10  2  3  0  0  0
  8  9  2  0  0  0  0
 10 14  1  0  0  0  0
 11 12  1  0  0  0  0
 11 24  1  0  0  0  0
 11 27  1  0  0  0  0
 12 13  2  0  0  0  0
 14 15  1  0  0  0  0
 14 19  2  0  0  0  0
 15 16  1  0  0  0  0
 16 17  2  0  0  0  0
 16 20  1  0  0  0  0
 17 18  1  0  0  0  0
 17 22  1  0  0  0  0
 18 19  1  0  0  0  0
 20 21  2  0  0  0  0
 21 22  1  0  0  0  0
 22 23  1  0  0  0  0
 24 25  1  0  0  0  0
 25 26  1  0  0  0  0
 25 28  1  0  0  0  0
 25 29  1  0  0  0  0
 26 27  1  0  0  0  0
  2 30  1  0  0  0  0
  3 31  1  0  0  0  0
  4 32  1  0  0  0  0
 10 33  1  0  0  0  0
 15 34  1  0  0  0  0
 15 35  1  0  0  0  0
 18 36  1  0  0  0  0
 18 37  1  0  0  0  0
 19 38  1  0  0  0  0
 20 39  1  0  0  0  0
 23 40  1  0  0  0  0
 23 41  1  0  0  0  0
 23 42  1  0  0  0  0
 24 43  1  0  0  0  0
 24 44  1  0  0  0  0
 26 45  1  0  0  0  0
 26 46  1  0  0  0  0
 27 47  1  0  0  0  0
 27 48  1  0  0  0  0
M  END
> <Name>
43

> <IC50[uM]>
0.002

$$$$
43
  -OEChem-05192314333D
 Structure written by MMmdl.
 48 52  0     1  0  0  0  0  0999 V2000
   -6.3694   12.3608  -12.0100 C   0  0  0  0  0  0  0  0  0  0  0  0
   -6.5170   11.8053  -10.7333 C   0  0  0  0  0  0  0  0  0  0  0  0
   -7.7298   10.5799  -13.0278 C   0  0  0  0  0  0  0  0  0  0  0  0
   -6.9915   11.7687  -13.1228 C   0  0  0  0  0  0  0  0  0  0  0  0
   -7.8213   10.0100  -11.7550 C   0  0  0  0  0  0  0  0  0  0  0  0
   -7.2397   10.6196  -10.6003 C   0  0  0  0  0  0  0  0  0  0  0  0
   -7.6092    9.7471   -9.5124 C   0  0  0  0  0  0  0  0  0  0  0  0
   -8.2773    8.7308   -9.9855 N   0  0  0  0  0  0  0  0  0  0  0  0
   -8.4143    8.8607  -11.2979 N   0  0  0  0  0  0  0  0  0  0  0  0
   -7.3268    9.8907   -8.0257 C   0  0  0  0  0  0  0  0  0  0  0  0
   -4.3565   13.7183  -11.5055 N   0  0  0  0  0  0  0  0  0  0  0  0
   -5.5483   13.6363  -12.1897 C   0  0  0  0  0  0  0  0  0  0  0  0
   -5.9477   14.5322  -12.9368 O   0  0  0  0  0  0  0  0  0  0  0  0
   -5.9513   10.4999   -7.7281 C   0  0  3  0  0  0  0  0  0  0  0  0
   -5.8738   11.7695   -7.1531 C   0  0  0  0  0  0  0  0  0  0  0  0
   -4.6094   12.3134   -6.9136 C   0  0  0  0  0  0  0  0  0  0  0  0
   -3.4376   11.5622   -7.2444 C   0  0  0  0  0  0  0  0  0  0  0  0
   -3.5099   10.2841   -7.8101 C   0  0  0  0  0  0  0  0  0  0  0  0
   -4.7961    9.7769   -8.0457 C   0  0  0  0  0  0  0  0  0  0  0  0
   -4.0914   13.5427   -6.3707 C   0  0  0  0  0  0  0  0  0  0  0  0
   -2.7880   13.5314   -6.3772 N   0  0  0  0  0  0  0  0  0  0  0  0
   -2.3819   12.3721   -6.8788 N   0  0  0  0  0  0  0  0  0  0  0  0
   -0.9505   12.1058   -6.9728 C   0  0  0  0  0  0  0  0  0  0  0  0
   -3.7111   12.5665  -10.8449 C   0  0  0  0  0  0  0  0  0  0  0  0
   -2.2188   12.9372  -10.9792 C   0  0  0  0  0  0  0  0  0  0  0  0
   -2.1852   14.4611  -10.9536 C   0  0  0  0  0  0  0  0  0  0  0  0
   -3.5089   14.9092  -11.5986 C   0  0  0  0  0  0  0  0  0  0  0  0
   -1.7019   12.4742  -12.1199 F   0  0  0  0  0  0  0  0  0  0  0  0
   -1.4726   12.4435   -9.9943 F   0  0  0  0  0  0  0  0  0  0  0  0
   -6.0805   12.2847   -9.8696 H   0  0  0  0  0  0  0  0  0  0  0  0
   -8.2009   10.1304  -13.8894 H   0  0  0  0  0  0  0  0  0  0  0  0
   -6.8975   12.2468  -14.0866 H   0  0  0  0  0  0  0  0  0  0  0  0
   -8.0244    9.5937   -7.2566 H   0  0  0  0  0  0  0  0  0  0  0  0
   -5.9639   10.0446   -6.7268 H   0  0  0  0  0  0  0  0  0  0  0  0
   -6.7691   12.3178   -6.8996 H   0  0  0  0  0  0  0  0  0  0  0  0
   -2.6224    9.7184   -8.0524 H   0  0  0  0  0  0  0  0  0  0  0  0
   -4.8612    8.8324   -7.4857 H   0  0  0  0  0  0  0  0  0  0  0  0
   -4.8512    9.5682   -9.1243 H   0  0  0  0  0  0  0  0  0  0  0  0
   -4.6981   14.3596   -6.0088 H   0  0  0  0  0  0  0  0  0  0  0  0
   -0.3901   12.9695   -6.5854 H   0  0  0  0  0  0  0  0  0  0  0  0
   -0.7040   11.2129   -6.3795 H   0  0  0  0  0  0  0  0  0  0  0  0
   -0.6780   11.9339   -8.0245 H   0  0  0  0  0  0  0  0  0  0  0  0
   -4.0127   12.4865   -9.7901 H   0  0  0  0  0  0  0  0  0  0  0  0
   -3.9402   11.6243  -11.3642 H   0  0  0  0  0  0  0  0  0  0  0  0
   -2.1179   14.8274   -9.9186 H   0  0  0  0  0  0  0  0  0  0  0  0
   -1.3284   14.8371  -11.5320 H   0  0  0  0  0  0  0  0  0  0  0  0
   -3.3556   15.2013  -12.6480 H   0  0  0  0  0  0  0  0  0  0  0  0
   -3.9510   15.7504  -11.0446 H   0  0  0  0  0  0  0  0  0  0  0  0
  1  2  2  0  0  0  0
  1  4  1  0  0  0  0
  1 12  1  0  0  0  0
  2  6  1  0  0  0  0
  3  4  2  0  0  0  0
  3  5  1  0  0  0  0
  5  6  2  0  0  0  0
  5  9  1  0  0  0  0
  6  7  1  0  0  0  0
  7  8  1  0  0  0  0
  7 10  2  3  0  0  0
  8  9  2  0  0  0  0
 10 14  1  0  0  0  0
 11 12  1  0  0  0  0
 11 24  1  0  0  0  0
 11 27  1  0  0  0  0
 12 13  2  0  0  0  0
 14 15  1  0  0  0  0
 14 19  1  0  0  0  0
 15 16  2  0  0  0  0
 16 17  1  0  0  0  0
 16 20  1  0  0  0  0
 17 18  2  0  0  0  0
 17 22  1  0  0  0  0
 18 19  1  0  0  0  0
 20 21  2  0  0  0  0
 21 22  1  0  0  0  0
 22 23  1  0  0  0  0
 24 25  1  0  0  0  0
 25 26  1  0  0  0  0
 25 28  1  0  0  0  0
 25 29  1  0  0  0  0
 26 27  1  0  0  0  0
  2 30  1  0  0  0  0
  3 31  1  0  0  0  0
  4 32  1  0  0  0  0
 10 33  1  0  0  0  0
 14 34  1  0  0  0  0
 15 35  1  0  0  0  0
 18 36  1  0  0  0  0
 19 37  1  0  0  0  0
 19 38  1  0  0  0  0
 20 39  1  0  0  0  0
 23 40  1  0  0  0  0
 23 41  1  0  0  0  0
 23 42  1  0  0  0  0
 24 43  1  0  0  0  0
 24 44  1  0  0  0  0
 26 45  1  0  0  0  0
 26 46  1  0  0  0  0
 27 47  1  0  0  0  0
 27 48  1  0  0  0  0
M  END
> <Name>
43

> <IC50[uM]>
0.002

$$$$
43
  -OEChem-05192314333D
 Structure written by MMmdl.
 48 52  0     1  0  0  0  0  0999 V2000
   -6.3694   12.3608  -12.0100 C   0  0  0  0  0  0  0  0  0  0  0  0
   -6.5170   11.8053  -10.7333 C   0  0  0  0  0  0  0  0  0  0  0  0
   -7.7298   10.5799  -13.0278 C   0  0  0  0  0  0  0  0  0  0  0  0
   -6.9915   11.7687  -13.1228 C   0  0  0  0  0  0  0  0  0  0  0  0
   -7.8213   10.0100  -11.7550 C   0  0  0  0  0  0  0  0  0  0  0  0
   -7.2397   10.6196  -10.6003 C   0  0  0  0  0  0  0  0  0  0  0  0
   -7.6092    9.7471   -9.5124 C   0  0  3  0  0  0  0  0  0  0  0  0
   -8.2773    8.7308   -9.9855 N   0  0  0  0  0  0  0  0  0  0  0  0
   -8.4143    8.8607  -11.2979 N   0  0  0  0  0  0  0  0  0  0  0  0
   -7.3268    9.8907   -8.0257 C   0  0  0  0  0  0  0  0  0  0  0  0
   -4.3565   13.7183  -11.5055 N   0  0  0  0  0  0  0  0  0  0  0  0
   -5.5483   13.6363  -12.1897 C   0  0  0  0  0  0  0  0  0  0  0  0
   -5.9477   14.5322  -12.9368 O   0  0  0  0  0  0  0  0  0  0  0  0
   -5.9513   10.4999   -7.7281 C   0  0  0  0  0  0  0  0  0  0  0  0
   -5.8738   11.7695   -7.1531 C   0  0  0  0  0  0  0  0  0  0  0  0
   -4.6094   12.3134   -6.9136 C   0  0  0  0  0  0  0  0  0  0  0  0
   -3.4376   11.5622   -7.2444 C   0  0  0  0  0  0  0  0  0  0  0  0
   -3.5099   10.2841   -7.8101 C   0  0  0  0  0  0  0  0  0  0  0  0
   -4.7961    9.7769   -8.0457 C   0  0  0  0  0  0  0  0  0  0  0  0
   -4.0914   13.5427   -6.3707 C   0  0  0  0  0  0  0  0  0  0  0  0
   -2.7880   13.5314   -6.3772 N   0  0  0  0  0  0  0  0  0  0  0  0
   -2.3819   12.3721   -6.8788 N   0  0  0  0  0  0  0  0  0  0  0  0
   -0.9505   12.1058   -6.9728 C   0  0  0  0  0  0  0  0  0  0  0  0
   -3.7111   12.5665  -10.8449 C   0  0  0  0  0  0  0  0  0  0  0  0
   -2.2188   12.9372  -10.9792 C   0  0  0  0  0  0  0  0  0  0  0  0
   -2.1852   14.4611  -10.9536 C   0  0  0  0  0  0  0  0  0  0  0  0
   -3.5089   14.9092  -11.5986 C   0  0  0  0  0  0  0  0  0  0  0  0
   -1.7019   12.4742  -12.1199 F   0  0  0  0  0  0  0  0  0  0  0  0
   -1.4726   12.4435   -9.9943 F   0  0  0  0  0  0  0  0  0  0  0  0
   -6.0805   12.2847   -9.8696 H   0  0  0  0  0  0  0  0  0  0  0  0
   -8.2009   10.1304  -13.8894 H   0  0  0  0  0  0  0  0  0  0  0  0
   -6.8975   12.2468  -14.0866 H   0  0  0  0  0  0  0  0  0  0  0  0
   -6.6693    9.1897   -9.6384 H   0  0  0  0  0  0  0  0  0  0  0  0
   -8.0244    9.5937   -7.2566 H   0  0  0  0  0  0  0  0  0  0  0  0
   -6.7691   12.3178   -6.8996 H   0  0  0  0  0  0  0  0  0  0  0  0
   -2.6224    9.7184   -8.0524 H   0  0  0  0  0  0  0  0  0  0  0  0
   -4.8612    8.8324   -7.4857 H   0  0  0  0  0  0  0  0  0  0  0  0
   -4.8512    9.5682   -9.1243 H   0  0  0  0  0  0  0  0  0  0  0  0
   -4.6981   14.3596   -6.0088 H   0  0  0  0  0  0  0  0  0  0  0  0
   -0.3901   12.9695   -6.5854 H   0  0  0  0  0  0  0  0  0  0  0  0
   -0.7040   11.2129   -6.3795 H   0  0  0  0  0  0  0  0  0  0  0  0
   -0.6780   11.9339   -8.0245 H   0  0  0  0  0  0  0  0  0  0  0  0
   -4.0127   12.4865   -9.7901 H   0  0  0  0  0  0  0  0  0  0  0  0
   -3.9402   11.6243  -11.3642 H   0  0  0  0  0  0  0  0  0  0  0  0
   -2.1179   14.8274   -9.9186 H   0  0  0  0  0  0  0  0  0  0  0  0
   -1.3284   14.8371  -11.5320 H   0  0  0  0  0  0  0  0  0  0  0  0
   -3.3556   15.2013  -12.6480 H   0  0  0  0  0  0  0  0  0  0  0  0
   -3.9510   15.7504  -11.0446 H   0  0  0  0  0  0  0  0  0  0  0  0
  1  2  2  0  0  0  0
  1  4  1  0  0  0  0
  1 12  1  0  0  0  0
  2  6  1  0  0  0  0
  3  4  2  0  0  0  0
  3  5  1  0  0  0  0
  5  6  2  0  0  0  0
  5  9  1  0  0  0  0
  6  7  1  0  0  0  0
  7  8  1  0  0  0  0
  7 10  1  0  0  0  0
  8  9  2  0  0  0  0
 10 14  2  3  0  0  0
 11 12  1  0  0  0  0
 11 24  1  0  0  0  0
 11 27  1  0  0  0  0
 12 13  2  0  0  0  0
 14 15  1  0  0  0  0
 14 19  1  0  0  0  0
 15 16  2  0  0  0  0
 16 17  1  0  0  0  0
 16 20  1  0  0  0  0
 17 18  2  0  0  0  0
 17 22  1  0  0  0  0
 18 19  1  0  0  0  0
 20 21  2  0  0  0  0
 21 22  1  0  0  0  0
 22 23  1  0  0  0  0
 24 25  1  0  0  0  0
 25 26  1  0  0  0  0
 25 28  1  0  0  0  0
 25 29  1  0  0  0  0
 26 27  1  0  0  0  0
  2 30  1  0  0  0  0
  3 31  1  0  0  0  0
  4 32  1  0  0  0  0
  7 33  1  0  0  0  0
 10 34  1  0  0  0  0
 15 35  1  0  0  0  0
 18 36  1  0  0  0  0
 19 37  1  0  0  0  0
 19 38  1  0  0  0  0
 20 39  1  0  0  0  0
 23 40  1  0  0  0  0
 23 41  1  0  0  0  0
 23 42  1  0  0  0  0
 24 43  1  0  0  0  0
 24 44  1  0  0  0  0
 26 45  1  0  0  0  0
 26 46  1  0  0  0  0
 27 47  1  0  0  0  0
 27 48  1  0  0  0  0
M  END
> <Name>
43

> <IC50[uM]>
0.002

$$$$
43
  -OEChem-05192314333D
 Structure written by MMmdl.
 48 52  0     1  0  0  0  0  0999 V2000
   -6.3694   12.3608  -12.0100 C   0  0  3  0  0  0  0  0  0  0  0  0
   -6.5170   11.8053  -10.7333 C   0  0  0  0  0  0  0  0  0  0  0  0
   -7.7298   10.5799  -13.0278 C   0  0  0  0  0  0  0  0  0  0  0  0
   -6.9915   11.7687  -13.1228 C   0  0  0  0  0  0  0  0  0  0  0  0
   -7.8213   10.0100  -11.7550 C   0  0  0  0  0  0  0  0  0  0  0  0
   -7.2397   10.6196  -10.6003 C   0  0  0  0  0  0  0  0  0  0  0  0
   -7.6092    9.7471   -9.5124 C   0  0  0  0  0  0  0  0  0  0  0  0
   -8.2773    8.7308   -9.9855 N   0  0  0  0  0  0  0  0  0  0  0  0
   -8.4143    8.8607  -11.2979 N   0  0  0  0  0  0  0  0  0  0  0  0
   -7.3268    9.8907   -8.0257 C   0  0  0  0  0  0  0  0  0  0  0  0
   -4.3565   13.7183  -11.5055 N   0  0  0  0  0  0  0  0  0  0  0  0
   -5.5483   13.6363  -12.1897 C   0  0  0  0  0  0  0  0  0  0  0  0
   -5.9477   14.5322  -12.9368 O   0  0  0  0  0  0  0  0  0  0  0  0
   -5.9513   10.4999   -7.7281 C   0  0  0  0  0  0  0  0  0  0  0  0
   -5.8738   11.7695   -7.1531 C   0  0  0  0  0  0  0  0  0  0  0  0
   -4.6094   12.3134   -6.9136 C   0  0  0  0  0  0  0  0  0  0  0  0
   -3.4376   11.5622   -7.2444 C   0  0  0  0  0  0  0  0  0  0  0  0
   -3.5099   10.2841   -7.8101 C   0  0  0  0  0  0  0  0  0  0  0  0
   -4.7961    9.7769   -8.0457 C   0  0  0  0  0  0  0  0  0  0  0  0
   -4.0914   13.5427   -6.3707 C   0  0  0  0  0  0  0  0  0  0  0  0
   -2.7880   13.5314   -6.3772 N   0  0  0  0  0  0  0  0  0  0  0  0
   -2.3819   12.3721   -6.8788 N   0  0  0  0  0  0  0  0  0  0  0  0
   -0.9505   12.1058   -6.9728 C   0  0  0  0  0  0  0  0  0  0  0  0
   -3.7111   12.5665  -10.8449 C   0  0  0  0  0  0  0  0  0  0  0  0
   -2.2188   12.9372  -10.9792 C   0  0  0  0  0  0  0  0  0  0  0  0
   -2.1852   14.4611  -10.9536 C   0  0  0  0  0  0  0  0  0  0  0  0
   -3.5089   14.9092  -11.5986 C   0  0  0  0  0  0  0  0  0  0  0  0
   -1.7019   12.4742  -12.1199 F   0  0  0  0  0  0  0  0  0  0  0  0
   -1.4726   12.4435   -9.9943 F   0  0  0  0  0  0  0  0  0  0  0  0
   -5.4701   11.7504  -12.1792 H   0  0  0  0  0  0  0  0  0  0  0  0
   -6.0805   12.2847   -9.8696 H   0  0  0  0  0  0  0  0  0  0  0  0
   -8.2009   10.1304  -13.8894 H   0  0  0  0  0  0  0  0  0  0  0  0
   -6.8975   12.2468  -14.0866 H   0  0  0  0  0  0  0  0  0  0  0  0
   -8.0988   10.5380   -7.5841 H   0  0  0  0  0  0  0  0  0  0  0  0
   -7.3753    8.8940   -7.5628 H   0  0  0  0  0  0  0  0  0  0  0  0
   -6.7691   12.3178   -6.8996 H   0  0  0  0  0  0  0  0  0  0  0  0
   -2.6224    9.7184   -8.0524 H   0  0  0  0  0  0  0  0  0  0  0  0
   -4.8983    8.7963   -8.4866 H   0  0  0  0  0  0  0  0  0  0  0  0
   -4.6981   14.3596   -6.0088 H   0  0  0  0  0  0  0  0  0  0  0  0
   -0.3901   12.9695   -6.5854 H   0  0  0  0  0  0  0  0  0  0  0  0
   -0.7040   11.2129   -6.3795 H   0  0  0  0  0  0  0  0  0  0  0  0
   -0.6780   11.9339   -8.0245 H   0  0  0  0  0  0  0  0  0  0  0  0
   -4.0127   12.4865   -9.7901 H   0  0  0  0  0  0  0  0  0  0  0  0
   -3.9402   11.6243  -11.3642 H   0  0  0  0  0  0  0  0  0  0  0  0
   -2.1179   14.8274   -9.9186 H   0  0  0  0  0  0  0  0  0  0  0  0
   -1.3284   14.8371  -11.5320 H   0  0  0  0  0  0  0  0  0  0  0  0
   -3.3556   15.2013  -12.6480 H   0  0  0  0  0  0  0  0  0  0  0  0
   -3.9510   15.7504  -11.0446 H   0  0  0  0  0  0  0  0  0  0  0  0
  1  2  1  0  0  0  0
  1  4  1  0  0  0  0
  1 12  1  0  0  0  0
  2  6  2  0  0  0  0
  3  4  2  0  0  0  0
  3  5  1  0  0  0  0
  5  6  1  0  0  0  0
  5  9  2  0  0  0  0
  6  7  1  0  0  0  0
  7  8  2  0  0  0  0
  7 10  1  0  0  0  0
  8  9  1  0  0  0  0
 10 14  1  0  0  0  0
 11 12  1  0  0  0  0
 11 24  1  0  0  0  0
 11 27  1  0  0  0  0
 12 13  2  0  0  0  0
 14 15  2  0  0  0  0
 14 19  1  0  0  0  0
 15 16  1  0  0  0  0
 16 17  2  0  0  0  0
 16 20  1  0  0  0  0
 17 18  1  0  0  0  0
 17 22  1  0  0  0  0
 18 19  2  0  0  0  0
 20 21  2  0  0  0  0
 21 22  1  0  0  0  0
 22 23  1  0  0  0  0
 24 25  1  0  0  0  0
 25 26  1  0  0  0  0
 25 28  1  0  0  0  0
 25 29  1  0  0  0  0
 26 27  1  0  0  0  0
  1 30  1  0  0  0  0
  2 31  1  0  0  0  0
  3 32  1  0  0  0  0
  4 33  1  0  0  0  0
 10 34  1  0  0  0  0
 10 35  1  0  0  0  0
 15 36  1  0  0  0  0
 18 37  1  0  0  0  0
 19 38  1  0  0  0  0
 20 39  1  0  0  0  0
 23 40  1  0  0  0  0
 23 41  1  0  0  0  0
 23 42  1  0  0  0  0
 24 43  1  0  0  0  0
 24 44  1  0  0  0  0
 26 45  1  0  0  0  0
 26 46  1  0  0  0  0
 27 47  1  0  0  0  0
 27 48  1  0  0  0  0
M  END
> <Name>
43

> <IC50[uM]>
0.002

$$$$
43
  -OEChem-05192314333D
 Structure written by MMmdl.
 48 52  0     1  0  0  0  0  0999 V2000
   -6.3694   12.3608  -12.0100 C   0  0  0  0  0  0  0  0  0  0  0  0
   -6.5170   11.8053  -10.7333 C   0  0  0  0  0  0  0  0  0  0  0  0
   -7.7298   10.5799  -13.0278 C   0  0  0  0  0  0  0  0  0  0  0  0
   -6.9915   11.7687  -13.1228 C   0  0  0  0  0  0  0  0  0  0  0  0
   -7.8213   10.0100  -11.7550 C   0  0  0  0  0  0  0  0  0  0  0  0
   -7.2397   10.6196  -10.6003 C   0  0  3  0  0  0  0  0  0  0  0  0
   -7.6092    9.7471   -9.5124 C   0  0  0  0  0  0  0  0  0  0  0  0
   -8.2773    8.7308   -9.9855 N   0  0  0  0  0  0  0  0  0  0  0  0
   -8.4143    8.8607  -11.2979 N   0  0  0  0  0  0  0  0  0  0  0  0
   -7.3268    9.8907   -8.0257 C   0  0  0  0  0  0  0  0  0  0  0  0
   -4.3565   13.7183  -11.5055 N   0  0  0  0  0  0  0  0  0  0  0  0
   -5.5483   13.6363  -12.1897 C   0  0  0  0  0  0  0  0  0  0  0  0
   -5.9477   14.5322  -12.9368 O   0  0  0  0  0  0  0  0  0  0  0  0
   -5.9513   10.4999   -7.7281 C   0  0  0  0  0  0  0  0  0  0  0  0
   -5.8738   11.7695   -7.1531 C   0  0  0  0  0  0  0  0  0  0  0  0
   -4.6094   12.3134   -6.9136 C   0  0  0  0  0  0  0  0  0  0  0  0
   -3.4376   11.5622   -7.2444 C   0  0  0  0  0  0  0  0  0  0  0  0
   -3.5099   10.2841   -7.8101 C   0  0  0  0  0  0  0  0  0  0  0  0
   -4.7961    9.7769   -8.0457 C   0  0  0  0  0  0  0  0  0  0  0  0
   -4.0914   13.5427   -6.3707 C   0  0  0  0  0  0  0  0  0  0  0  0
   -2.7880   13.5314   -6.3772 N   0  0  0  0  0  0  0  0  0  0  0  0
   -2.3819   12.3721   -6.8788 N   0  0  0  0  0  0  0  0  0  0  0  0
   -0.9505   12.1058   -6.9728 C   0  0  0  0  0  0  0  0  0  0  0  0
   -3.7111   12.5665  -10.8449 C   0  0  0  0  0  0  0  0  0  0  0  0
   -2.2188   12.9372  -10.9792 C   0  0  0  0  0  0  0  0  0  0  0  0
   -2.1852   14.4611  -10.9536 C   0  0  0  0  0  0  0  0  0  0  0  0
   -3.5089   14.9092  -11.5986 C   0  0  0  0  0  0  0  0  0  0  0  0
   -1.7019   12.4742  -12.1199 F   0  0  0  0  0  0  0  0  0  0  0  0
   -1.4726   12.4435   -9.9943 F   0  0  0  0  0  0  0  0  0  0  0  0
   -6.0805   12.2847   -9.8696 H   0  0  0  0  0  0  0  0  0  0  0  0
   -8.2009   10.1304  -13.8894 H   0  0  0  0  0  0  0  0  0  0  0  0
   -6.8975   12.2468  -14.0866 H   0  0  0  0  0  0  0  0  0  0  0  0
   -6.3186   10.0387  -10.7555 H   0  0  0  0  0  0  0  0  0  0  0  0
   -8.0988   10.5380   -7.5841 H   0  0  0  0  0  0  0  0  0  0  0  0
   -7.3753    8.8940   -7.5628 H   0  0  0  0  0  0  0  0  0  0  0  0
   -6.7691   12.3178   -6.8996 H   0  0  0  0  0  0  0  0  0  0  0  0
   -2.6224    9.7184   -8.0524 H   0  0  0  0  0  0  0  0  0  0  0  0
   -4.8983    8.7963   -8.4866 H   0  0  0  0  0  0  0  0  0  0  0  0
   -4.6981   14.3596   -6.0088 H   0  0  0  0  0  0  0  0  0  0  0  0
   -0.3901   12.9695   -6.5854 H   0  0  0  0  0  0  0  0  0  0  0  0
   -0.7040   11.2129   -6.3795 H   0  0  0  0  0  0  0  0  0  0  0  0
   -0.6780   11.9339   -8.0245 H   0  0  0  0  0  0  0  0  0  0  0  0
   -4.0127   12.4865   -9.7901 H   0  0  0  0  0  0  0  0  0  0  0  0
   -3.9402   11.6243  -11.3642 H   0  0  0  0  0  0  0  0  0  0  0  0
   -2.1179   14.8274   -9.9186 H   0  0  0  0  0  0  0  0  0  0  0  0
   -1.3284   14.8371  -11.5320 H   0  0  0  0  0  0  0  0  0  0  0  0
   -3.3556   15.2013  -12.6480 H   0  0  0  0  0  0  0  0  0  0  0  0
   -3.9510   15.7504  -11.0446 H   0  0  0  0  0  0  0  0  0  0  0  0
  1  2  2  0  0  0  0
  1  4  1  0  0  0  0
  1 12  1  0  0  0  0
  2  6  1  0  0  0  0
  3  4  2  0  0  0  0
  3  5  1  0  0  0  0
  5  6  1  0  0  0  0
  5  9  2  0  0  0  0
  6  7  1  0  0  0  0
  7  8  2  0  0  0  0
  7 10  1  0  0  0  0
  8  9  1  0  0  0  0
 10 14  1  0  0  0  0
 11 12  1  0  0  0  0
 11 24  1  0  0  0  0
 11 27  1  0  0  0  0
 12 13  2  0  0  0  0
 14 15  2  0  0  0  0
 14 19  1  0  0  0  0
 15 16  1  0  0  0  0
 16 17  2  0  0  0  0
 16 20  1  0  0  0  0
 17 18  1  0  0  0  0
 17 22  1  0  0  0  0
 18 19  2  0  0  0  0
 20 21  2  0  0  0  0
 21 22  1  0  0  0  0
 22 23  1  0  0  0  0
 24 25  1  0  0  0  0
 25 26  1  0  0  0  0
 25 28  1  0  0  0  0
 25 29  1  0  0  0  0
 26 27  1  0  0  0  0
  2 30  1  0  0  0  0
  3 31  1  0  0  0  0
  4 32  1  0  0  0  0
  6 33  1  0  0  0  0
 10 34  1  0  0  0  0
 10 35  1  0  0  0  0
 15 36  1  0  0  0  0
 18 37  1  0  0  0  0
 19 38  1  0  0  0  0
 20 39  1  0  0  0  0
 23 40  1  0  0  0  0
 23 41  1  0  0  0  0
 23 42  1  0  0  0  0
 24 43  1  0  0  0  0
 24 44  1  0  0  0  0
 26 45  1  0  0  0  0
 26 46  1  0  0  0  0
 27 47  1  0  0  0  0
 27 48  1  0  0  0  0
M  END
> <Name>
43

> <IC50[uM]>
0.002

$$$$
43
  -OEChem-05192314333D
 Structure written by MMmdl.
 48 52  0     0  0  0  0  0  0999 V2000
   -6.3694   12.3608  -12.0100 C   0  0  0  0  0  0  0  0  0  0  0  0
   -6.5170   11.8053  -10.7333 C   0  0  0  0  0  0  0  0  0  0  0  0
   -7.7298   10.5799  -13.0278 C   0  0  0  0  0  0  0  0  0  0  0  0
   -6.9915   11.7687  -13.1228 C   0  0  0  0  0  0  0  0  0  0  0  0
   -7.8213   10.0100  -11.7550 C   0  0  0  0  0  0  0  0  0  0  0  0
   -7.2397   10.6196  -10.6003 C   0  0  0  0  0  0  0  0  0  0  0  0
   -7.6092    9.7471   -9.5124 C   0  0  0  0  0  0  0  0  0  0  0  0
   -8.2773    8.7308   -9.9855 N   0  0  0  0  0  0  0  0  0  0  0  0
   -8.4143    8.8607  -11.2979 N   0  0  0  0  0  0  0  0  0  0  0  0
   -7.3268    9.8907   -8.0257 C   0  0  0  0  0  0  0  0  0  0  0  0
   -4.3565   13.7183  -11.5055 N   0  0  0  0  0  0  0  0  0  0  0  0
   -5.5483   13.6363  -12.1897 C   0  0  0  0  0  0  0  0  0  0  0  0
   -5.9477   14.5322  -12.9368 O   0  0  0  0  0  0  0  0  0  0  0  0
   -5.9513   10.4999   -7.7281 C   0  0  0  0  0  0  0  0  0  0  0  0
   -5.8738   11.7695   -7.1531 C   0  0  0  0  0  0  0  0  0  0  0  0
   -4.6094   12.3134   -6.9136 C   0  0  0  0  0  0  0  0  0  0  0  0
   -3.4376   11.5622   -7.2444 C   0  0  0  0  0  0  0  0  0  0  0  0
   -3.5099   10.2841   -7.8101 C   0  0  0  0  0  0  0  0  0  0  0  0
   -4.7961    9.7769   -8.0457 C   0  0  0  0  0  0  0  0  0  0  0  0
   -4.0914   13.5427   -6.3707 C   0  0  0  0  0  0  0  0  0  0  0  0
   -2.7880   13.5314   -6.3772 N   0  0  0  0  0  0  0  0  0  0  0  0
   -2.3819   12.3721   -6.8788 N   0  0  0  0  0  0  0  0  0  0  0  0
   -0.9505   12.1058   -6.9728 C   0  0  0  0  0  0  0  0  0  0  0  0
   -3.7111   12.5665  -10.8449 C   0  0  0  0  0  0  0  0  0  0  0  0
   -2.2188   12.9372  -10.9792 C   0  0  0  0  0  0  0  0  0  0  0  0
   -2.1852   14.4611  -10.9536 C   0  0  0  0  0  0  0  0  0  0  0  0
   -3.5089   14.9092  -11.5986 C   0  0  0  0  0  0  0  0  0  0  0  0
   -1.7019   12.4742  -12.1199 F   0  0  0  0  0  0  0  0  0  0  0  0
   -1.4726   12.4435   -9.9943 F   0  0  0  0  0  0  0  0  0  0  0  0
   -6.0805   12.2847   -9.8696 H   0  0  0  0  0  0  0  0  0  0  0  0
   -8.7519   10.7911  -13.3751 H   0  0  0  0  0  0  0  0  0  0  0  0
   -7.2617    9.8401  -13.6938 H   0  0  0  0  0  0  0  0  0  0  0  0
   -6.8975   12.2468  -14.0866 H   0  0  0  0  0  0  0  0  0  0  0  0
   -8.0988   10.5380   -7.5841 H   0  0  0  0  0  0  0  0  0  0  0  0
   -7.3753    8.8940   -7.5628 H   0  0  0  0  0  0  0  0  0  0  0  0
   -6.7691   12.3178   -6.8996 H   0  0  0  0  0  0  0  0  0  0  0  0
   -2.6224    9.7184   -8.0524 H   0  0  0  0  0  0  0  0  0  0  0  0
   -4.8983    8.7963   -8.4866 H   0  0  0  0  0  0  0  0  0  0  0  0
   -4.6981   14.3596   -6.0088 H   0  0  0  0  0  0  0  0  0  0  0  0
   -0.3901   12.9695   -6.5854 H   0  0  0  0  0  0  0  0  0  0  0  0
   -0.7040   11.2129   -6.3795 H   0  0  0  0  0  0  0  0  0  0  0  0
   -0.6780   11.9339   -8.0245 H   0  0  0  0  0  0  0  0  0  0  0  0
   -4.0127   12.4865   -9.7901 H   0  0  0  0  0  0  0  0  0  0  0  0
   -3.9402   11.6243  -11.3642 H   0  0  0  0  0  0  0  0  0  0  0  0
   -2.1179   14.8274   -9.9186 H   0  0  0  0  0  0  0  0  0  0  0  0
   -1.3284   14.8371  -11.5320 H   0  0  0  0  0  0  0  0  0  0  0  0
   -3.3556   15.2013  -12.6480 H   0  0  0  0  0  0  0  0  0  0  0  0
   -3.9510   15.7504  -11.0446 H   0  0  0  0  0  0  0  0  0  0  0  0
  1  2  1  0  0  0  0
  1  4  2  0  0  0  0
  1 12  1  0  0  0  0
  2  6  2  0  0  0  0
  3  4  1  0  0  0  0
  3  5  1  0  0  0  0
  5  6  1  0  0  0  0
  5  9  2  0  0  0  0
  6  7  1  0  0  0  0
  7  8  2  0  0  0  0
  7 10  1  0  0  0  0
  8  9  1  0  0  0  0
 10 14  1  0  0  0  0
 11 12  1  0  0  0  0
 11 24  1  0  0  0  0
 11 27  1  0  0  0  0
 12 13  2  0  0  0  0
 14 15  2  0  0  0  0
 14 19  1  0  0  0  0
 15 16  1  0  0  0  0
 16 17  2  0  0  0  0
 16 20  1  0  0  0  0
 17 18  1  0  0  0  0
 17 22  1  0  0  0  0
 18 19  2  0  0  0  0
 20 21  2  0  0  0  0
 21 22  1  0  0  0  0
 22 23  1  0  0  0  0
 24 25  1  0  0  0  0
 25 26  1  0  0  0  0
 25 28  1  0  0  0  0
 25 29  1  0  0  0  0
 26 27  1  0  0  0  0
  2 30  1  0  0  0  0
  3 31  1  0  0  0  0
  3 32  1  0  0  0  0
  4 33  1  0  0  0  0
 10 34  1  0  0  0  0
 10 35  1  0  0  0  0
 15 36  1  0  0  0  0
 18 37  1  0  0  0  0
 19 38  1  0  0  0  0
 20 39  1  0  0  0  0
 23 40  1  0  0  0  0
 23 41  1  0  0  0  0
 23 42  1  0  0  0  0
 24 43  1  0  0  0  0
 24 44  1  0  0  0  0
 26 45  1  0  0  0  0
 26 46  1  0  0  0  0
 27 47  1  0  0  0  0
 27 48  1  0  0  0  0
M  END
> <Name>
43

> <IC50[uM]>
0.002

$$$$
43
  -OEChem-05192314333D
 Structure written by MMmdl.
 48 52  0     1  0  0  0  0  0999 V2000
   -6.3694   12.3608  -12.0100 C   0  0  3  0  0  0  0  0  0  0  0  0
   -6.5170   11.8053  -10.7333 C   0  0  0  0  0  0  0  0  0  0  0  0
   -7.7298   10.5799  -13.0278 C   0  0  0  0  0  0  0  0  0  0  0  0
   -6.9915   11.7687  -13.1228 C   0  0  0  0  0  0  0  0  0  0  0  0
   -7.8213   10.0100  -11.7550 C   0  0  3  0  0  0  0  0  0  0  0  0
   -7.2397   10.6196  -10.6003 C   0  0  0  0  0  0  0  0  0  0  0  0
   -7.6092    9.7471   -9.5124 C   0  0  0  0  0  0  0  0  0  0  0  0
   -8.2773    8.7308   -9.9855 N   0  0  0  0  0  0  0  0  0  0  0  0
   -8.4143    8.8607  -11.2979 N   0  0  0  0  0  0  0  0  0  0  0  0
   -7.3268    9.8907   -8.0257 C   0  0  0  0  0  0  0  0  0  0  0  0
   -4.3565   13.7183  -11.5055 N   0  0  0  0  0  0  0  0  0  0  0  0
   -5.5483   13.6363  -12.1897 C   0  0  0  0  0  0  0  0  0  0  0  0
   -5.9477   14.5322  -12.9368 O   0  0  0  0  0  0  0  0  0  0  0  0
   -5.9513   10.4999   -7.7281 C   0  0  0  0  0  0  0  0  0  0  0  0
   -5.8738   11.7695   -7.1531 C   0  0  0  0  0  0  0  0  0  0  0  0
   -4.6094   12.3134   -6.9136 C   0  0  0  0  0  0  0  0  0  0  0  0
   -3.4376   11.5622   -7.2444 C   0  0  0  0  0  0  0  0  0  0  0  0
   -3.5099   10.2841   -7.8101 C   0  0  0  0  0  0  0  0  0  0  0  0
   -4.7961    9.7769   -8.0457 C   0  0  0  0  0  0  0  0  0  0  0  0
   -4.0914   13.5427   -6.3707 C   0  0  0  0  0  0  0  0  0  0  0  0
   -2.7880   13.5314   -6.3772 N   0  0  0  0  0  0  0  0  0  0  0  0
   -2.3819   12.3721   -6.8788 N   0  0  0  0  0  0  0  0  0  0  0  0
   -0.9505   12.1058   -6.9728 C   0  0  0  0  0  0  0  0  0  0  0  0
   -3.7111   12.5665  -10.8449 C   0  0  0  0  0  0  0  0  0  0  0  0
   -2.2188   12.9372  -10.9792 C   0  0  0  0  0  0  0  0  0  0  0  0
   -2.1852   14.4611  -10.9536 C   0  0  0  0  0  0  0  0  0  0  0  0
   -3.5089   14.9092  -11.5986 C   0  0  0  0  0  0  0  0  0  0  0  0
   -1.7019   12.4742  -12.1199 F   0  0  0  0  0  0  0  0  0  0  0  0
   -1.4726   12.4435   -9.9943 F   0  0  0  0  0  0  0  0  0  0  0  0
   -5.4701   11.7504  -12.1792 H   0  0  0  0  0  0  0  0  0  0  0  0
   -6.0805   12.2847   -9.8696 H   0  0  0  0  0  0  0  0  0  0  0  0
   -8.2009   10.1304  -13.8894 H   0  0  0  0  0  0  0  0  0  0  0  0
   -6.8975   12.2468  -14.0866 H   0  0  0  0  0  0  0  0  0  0  0  0
   -6.8872    9.4574  -11.9345 H   0  0  0  0  0  0  0  0  0  0  0  0
   -8.0244    9.5937   -7.2566 H   0  0  0  0  0  0  0  0  0  0  0  0
   -6.7691   12.3178   -6.8996 H   0  0  0  0  0  0  0  0  0  0  0  0
   -2.6224    9.7184   -8.0524 H   0  0  0  0  0  0  0  0  0  0  0  0
   -4.8983    8.7963   -8.4866 H   0  0  0  0  0  0  0  0  0  0  0  0
   -4.6981   14.3596   -6.0088 H   0  0  0  0  0  0  0  0  0  0  0  0
   -0.3901   12.9695   -6.5854 H   0  0  0  0  0  0  0  0  0  0  0  0
   -0.7040   11.2129   -6.3795 H   0  0  0  0  0  0  0  0  0  0  0  0
   -0.6780   11.9339   -8.0245 H   0  0  0  0  0  0  0  0  0  0  0  0
   -4.0127   12.4865   -9.7901 H   0  0  0  0  0  0  0  0  0  0  0  0
   -3.9402   11.6243  -11.3642 H   0  0  0  0  0  0  0  0  0  0  0  0
   -2.1179   14.8274   -9.9186 H   0  0  0  0  0  0  0  0  0  0  0  0
   -1.3284   14.8371  -11.5320 H   0  0  0  0  0  0  0  0  0  0  0  0
   -3.3556   15.2013  -12.6480 H   0  0  0  0  0  0  0  0  0  0  0  0
   -3.9510   15.7504  -11.0446 H   0  0  0  0  0  0  0  0  0  0  0  0
  1  2  1  0  0  0  0
  1  4  1  0  0  0  0
  1 12  1  0  0  0  0
  2  6  2  0  0  0  0
  3  4  2  0  0  0  0
  3  5  1  0  0  0  0
  5  6  1  0  0  0  0
  5  9  1  0  0  0  0
  6  7  1  0  0  0  0
  7  8  1  0  0  0  0
  7 10  2  3  0  0  0
  8  9  2  0  0  0  0
 10 14  1  0  0  0  0
 11 12  1  0  0  0  0
 11 24  1  0  0  0  0
 11 27  1  0  0  0  0
 12 13  2  0  0  0  0
 14 15  2  0  0  0  0
 14 19  1  0  0  0  0
 15 16  1  0  0  0  0
 16 17  2  0  0  0  0
 16 20  1  0  0  0  0
 17 18  1  0  0  0  0
 17 22  1  0  0  0  0
 18 19  2  0  0  0  0
 20 21  2  0  0  0  0
 21 22  1  0  0  0  0
 22 23  1  0  0  0  0
 24 25  1  0  0  0  0
 25 26  1  0  0  0  0
 25 28  1  0  0  0  0
 25 29  1  0  0  0  0
 26 27  1  0  0  0  0
  1 30  1  0  0  0  0
  2 31  1  0  0  0  0
  3 32  1  0  0  0  0
  4 33  1  0  0  0  0
  5 34  1  0  0  0  0
 10 35  1  0  0  0  0
 15 36  1  0  0  0  0
 18 37  1  0  0  0  0
 19 38  1  0  0  0  0
 20 39  1  0  0  0  0
 23 40  1  0  0  0  0
 23 41  1  0  0  0  0
 23 42  1  0  0  0  0
 24 43  1  0  0  0  0
 24 44  1  0  0  0  0
 26 45  1  0  0  0  0
 26 46  1  0  0  0  0
 27 47  1  0  0  0  0
 27 48  1  0  0  0  0
M  END
> <Name>
43

> <IC50[uM]>
0.002

$$$$
43
  -OEChem-05192314333D
 Structure written by MMmdl.
 48 52  0     1  0  0  0  0  0999 V2000
   -6.3694   12.3608  -12.0100 C   0  0  0  0  0  0  0  0  0  0  0  0
   -6.5170   11.8053  -10.7333 C   0  0  0  0  0  0  0  0  0  0  0  0
   -7.7298   10.5799  -13.0278 C   0  0  0  0  0  0  0  0  0  0  0  0
   -6.9915   11.7687  -13.1228 C   0  0  0  0  0  0  0  0  0  0  0  0
   -7.8213   10.0100  -11.7550 C   0  0  3  0  0  0  0  0  0  0  0  0
   -7.2397   10.6196  -10.6003 C   0  0  3  0  0  0  0  0  0  0  0  0
   -7.6092    9.7471   -9.5124 C   0  0  0  0  0  0  0  0  0  0  0  0
   -8.2773    8.7308   -9.9855 N   0  0  0  0  0  0  0  0  0  0  0  0
   -8.4143    8.8607  -11.2979 N   0  0  0  0  0  0  0  0  0  0  0  0
   -7.3268    9.8907   -8.0257 C   0  0  0  0  0  0  0  0  0  0  0  0
   -4.3565   13.7183  -11.5055 N   0  0  0  0  0  0  0  0  0  0  0  0
   -5.5483   13.6363  -12.1897 C   0  0  0  0  0  0  0  0  0  0  0  0
   -5.9477   14.5322  -12.9368 O   0  0  0  0  0  0  0  0  0  0  0  0
   -5.9513   10.4999   -7.7281 C   0  0  0  0  0  0  0  0  0  0  0  0
   -5.8738   11.7695   -7.1531 C   0  0  0  0  0  0  0  0  0  0  0  0
   -4.6094   12.3134   -6.9136 C   0  0  0  0  0  0  0  0  0  0  0  0
   -3.4376   11.5622   -7.2444 C   0  0  0  0  0  0  0  0  0  0  0  0
   -3.5099   10.2841   -7.8101 C   0  0  0  0  0  0  0  0  0  0  0  0
   -4.7961    9.7769   -8.0457 C   0  0  0  0  0  0  0  0  0  0  0  0
   -4.0914   13.5427   -6.3707 C   0  0  0  0  0  0  0  0  0  0  0  0
   -2.7880   13.5314   -6.3772 N   0  0  0  0  0  0  0  0  0  0  0  0
   -2.3819   12.3721   -6.8788 N   0  0  0  0  0  0  0  0  0  0  0  0
   -0.9505   12.1058   -6.9728 C   0  0  0  0  0  0  0  0  0  0  0  0
   -3.7111   12.5665  -10.8449 C   0  0  0  0  0  0  0  0  0  0  0  0
   -2.2188   12.9372  -10.9792 C   0  0  0  0  0  0  0  0  0  0  0  0
   -2.1852   14.4611  -10.9536 C   0  0  0  0  0  0  0  0  0  0  0  0
   -3.5089   14.9092  -11.5986 C   0  0  0  0  0  0  0  0  0  0  0  0
   -1.7019   12.4742  -12.1199 F   0  0  0  0  0  0  0  0  0  0  0  0
   -1.4726   12.4435   -9.9943 F   0  0  0  0  0  0  0  0  0  0  0  0
   -6.0805   12.2847   -9.8696 H   0  0  0  0  0  0  0  0  0  0  0  0
   -8.2009   10.1304  -13.8894 H   0  0  0  0  0  0  0  0  0  0  0  0
   -6.8975   12.2468  -14.0866 H   0  0  0  0  0  0  0  0  0  0  0  0
   -6.8872    9.4574  -11.9345 H   0  0  0  0  0  0  0  0  0  0  0  0
   -6.3186   10.0387  -10.7555 H   0  0  0  0  0  0  0  0  0  0  0  0
   -8.0244    9.5937   -7.2566 H   0  0  0  0  0  0  0  0  0  0  0  0
   -6.7691   12.3178   -6.8996 H   0  0  0  0  0  0  0  0  0  0  0  0
   -2.6224    9.7184   -8.0524 H   0  0  0  0  0  0  0  0  0  0  0  0
   -4.8983    8.7963   -8.4866 H   0  0  0  0  0  0  0  0  0  0  0  0
   -4.6981   14.3596   -6.0088 H   0  0  0  0  0  0  0  0  0  0  0  0
   -0.3901   12.9695   -6.5854 H   0  0  0  0  0  0  0  0  0  0  0  0
   -0.7040   11.2129   -6.3795 H   0  0  0  0  0  0  0  0  0  0  0  0
   -0.6780   11.9339   -8.0245 H   0  0  0  0  0  0  0  0  0  0  0  0
   -4.0127   12.4865   -9.7901 H   0  0  0  0  0  0  0  0  0  0  0  0
   -3.9402   11.6243  -11.3642 H   0  0  0  0  0  0  0  0  0  0  0  0
   -2.1179   14.8274   -9.9186 H   0  0  0  0  0  0  0  0  0  0  0  0
   -1.3284   14.8371  -11.5320 H   0  0  0  0  0  0  0  0  0  0  0  0
   -3.3556   15.2013  -12.6480 H   0  0  0  0  0  0  0  0  0  0  0  0
   -3.9510   15.7504  -11.0446 H   0  0  0  0  0  0  0  0  0  0  0  0
  1  2  2  0  0  0  0
  1  4  1  0  0  0  0
  1 12  1  0  0  0  0
  2  6  1  0  0  0  0
  3  4  2  0  0  0  0
  3  5  1  0  0  0  0
  5  6  1  0  0  0  0
  5  9  1  0  0  0  0
  6  7  1  0  0  0  0
  7  8  1  0  0  0  0
  7 10  2  3  0  0  0
  8  9  2  0  0  0  0
 10 14  1  0  0  0  0
 11 12  1  0  0  0  0
 11 24  1  0  0  0  0
 11 27  1  0  0  0  0
 12 13  2  0  0  0  0
 14 15  2  0  0  0  0
 14 19  1  0  0  0  0
 15 16  1  0  0  0  0
 16 17  2  0  0  0  0
 16 20  1  0  0  0  0
 17 18  1  0  0  0  0
 17 22  1  0  0  0  0
 18 19  2  0  0  0  0
 20 21  2  0  0  0  0
 21 22  1  0  0  0  0
 22 23  1  0  0  0  0
 24 25  1  0  0  0  0
 25 26  1  0  0  0  0
 25 28  1  0  0  0  0
 25 29  1  0  0  0  0
 26 27  1  0  0  0  0
  2 30  1  0  0  0  0
  3 31  1  0  0  0  0
  4 32  1  0  0  0  0
  5 33  1  0  0  0  0
  6 34  1  0  0  0  0
 10 35  1  0  0  0  0
 15 36  1  0  0  0  0
 18 37  1  0  0  0  0
 19 38  1  0  0  0  0
 20 39  1  0  0  0  0
 23 40  1  0  0  0  0
 23 41  1  0  0  0  0
 23 42  1  0  0  0  0
 24 43  1  0  0  0  0
 24 44  1  0  0  0  0
 26 45  1  0  0  0  0
 26 46  1  0  0  0  0
 27 47  1  0  0  0  0
 27 48  1  0  0  0  0
M  END
> <Name>
43

> <IC50[uM]>
0.002

$$$$
43
  -OEChem-05192314333D
 Structure written by MMmdl.
 48 52  0     1  0  0  0  0  0999 V2000
   -6.3694   12.3608  -12.0100 C   0  0  0  0  0  0  0  0  0  0  0  0
   -6.5170   11.8053  -10.7333 C   0  0  0  0  0  0  0  0  0  0  0  0
   -7.7298   10.5799  -13.0278 C   0  0  0  0  0  0  0  0  0  0  0  0
   -6.9915   11.7687  -13.1228 C   0  0  0  0  0  0  0  0  0  0  0  0
   -7.8213   10.0100  -11.7550 C   0  0  3  0  0  0  0  0  0  0  0  0
   -7.2397   10.6196  -10.6003 C   0  0  0  0  0  0  0  0  0  0  0  0
   -7.6092    9.7471   -9.5124 C   0  0  0  0  0  0  0  0  0  0  0  0
   -8.2773    8.7308   -9.9855 N   0  0  0  0  0  0  0  0  0  0  0  0
   -8.4143    8.8607  -11.2979 N   0  0  0  0  0  0  0  0  0  0  0  0
   -7.3268    9.8907   -8.0257 C   0  0  0  0  0  0  0  0  0  0  0  0
   -4.3565   13.7183  -11.5055 N   0  0  0  0  0  0  0  0  0  0  0  0
   -5.5483   13.6363  -12.1897 C   0  0  0  0  0  0  0  0  0  0  0  0
   -5.9477   14.5322  -12.9368 O   0  0  0  0  0  0  0  0  0  0  0  0
   -5.9513   10.4999   -7.7281 C   0  0  0  0  0  0  0  0  0  0  0  0
   -5.8738   11.7695   -7.1531 C   0  0  0  0  0  0  0  0  0  0  0  0
   -4.6094   12.3134   -6.9136 C   0  0  0  0  0  0  0  0  0  0  0  0
   -3.4376   11.5622   -7.2444 C   0  0  0  0  0  0  0  0  0  0  0  0
   -3.5099   10.2841   -7.8101 C   0  0  0  0  0  0  0  0  0  0  0  0
   -4.7961    9.7769   -8.0457 C   0  0  0  0  0  0  0  0  0  0  0  0
   -4.0914   13.5427   -6.3707 C   0  0  0  0  0  0  0  0  0  0  0  0
   -2.7880   13.5314   -6.3772 N   0  0  0  0  0  0  0  0  0  0  0  0
   -2.3819   12.3721   -6.8788 N   0  0  0  0  0  0  0  0  0  0  0  0
   -0.9505   12.1058   -6.9728 C   0  0  0  0  0  0  0  0  0  0  0  0
   -3.7111   12.5665  -10.8449 C   0  0  0  0  0  0  0  0  0  0  0  0
   -2.2188   12.9372  -10.9792 C   0  0  0  0  0  0  0  0  0  0  0  0
   -2.1852   14.4611  -10.9536 C   0  0  0  0  0  0  0  0  0  0  0  0
   -3.5089   14.9092  -11.5986 C   0  0  0  0  0  0  0  0  0  0  0  0
   -1.7019   12.4742  -12.1199 F   0  0  0  0  0  0  0  0  0  0  0  0
   -1.4726   12.4435   -9.9943 F   0  0  0  0  0  0  0  0  0  0  0  0
   -6.0805   12.2847   -9.8696 H   0  0  0  0  0  0  0  0  0  0  0  0
   -8.7519   10.7911  -13.3751 H   0  0  0  0  0  0  0  0  0  0  0  0
   -7.2617    9.8401  -13.6938 H   0  0  0  0  0  0  0  0  0  0  0  0
   -6.8975   12.2468  -14.0866 H   0  0  0  0  0  0  0  0  0  0  0  0
   -6.8872    9.4574  -11.9345 H   0  0  0  0  0  0  0  0  0  0  0  0
   -8.0244    9.5937   -7.2566 H   0  0  0  0  0  0  0  0  0  0  0  0
   -6.7691   12.3178   -6.8996 H   0  0  0  0  0  0  0  0  0  0  0  0
   -2.6224    9.7184   -8.0524 H   0  0  0  0  0  0  0  0  0  0  0  0
   -4.8983    8.7963   -8.4866 H   0  0  0  0  0  0  0  0  0  0  0  0
   -4.6981   14.3596   -6.0088 H   0  0  0  0  0  0  0  0  0  0  0  0
   -0.3901   12.9695   -6.5854 H   0  0  0  0  0  0  0  0  0  0  0  0
   -0.7040   11.2129   -6.3795 H   0  0  0  0  0  0  0  0  0  0  0  0
   -0.6780   11.9339   -8.0245 H   0  0  0  0  0  0  0  0  0  0  0  0
   -4.0127   12.4865   -9.7901 H   0  0  0  0  0  0  0  0  0  0  0  0
   -3.9402   11.6243  -11.3642 H   0  0  0  0  0  0  0  0  0  0  0  0
   -2.1179   14.8274   -9.9186 H   0  0  0  0  0  0  0  0  0  0  0  0
   -1.3284   14.8371  -11.5320 H   0  0  0  0  0  0  0  0  0  0  0  0
   -3.3556   15.2013  -12.6480 H   0  0  0  0  0  0  0  0  0  0  0  0
   -3.9510   15.7504  -11.0446 H   0  0  0  0  0  0  0  0  0  0  0  0
  1  2  1  0  0  0  0
  1  4  2  0  0  0  0
  1 12  1  0  0  0  0
  2  6  2  0  0  0  0
  3  4  1  0  0  0  0
  3  5  1  0  0  0  0
  5  6  1  0  0  0  0
  5  9  1  0  0  0  0
  6  7  1  0  0  0  0
  7  8  1  0  0  0  0
  7 10  2  3  0  0  0
  8  9  2  0  0  0  0
 10 14  1  0  0  0  0
 11 12  1  0  0  0  0
 11 24  1  0  0  0  0
 11 27  1  0  0  0  0
 12 13  2  0  0  0  0
 14 15  2  0  0  0  0
 14 19  1  0  0  0  0
 15 16  1  0  0  0  0
 16 17  2  0  0  0  0
 16 20  1  0  0  0  0
 17 18  1  0  0  0  0
 17 22  1  0  0  0  0
 18 19  2  0  0  0  0
 20 21  2  0  0  0  0
 21 22  1  0  0  0  0
 22 23  1  0  0  0  0
 24 25  1  0  0  0  0
 25 26  1  0  0  0  0
 25 28  1  0  0  0  0
 25 29  1  0  0  0  0
 26 27  1  0  0  0  0
  2 30  1  0  0  0  0
  3 31  1  0  0  0  0
  3 32  1  0  0  0  0
  4 33  1  0  0  0  0
  5 34  1  0  0  0  0
 10 35  1  0  0  0  0
 15 36  1  0  0  0  0
 18 37  1  0  0  0  0
 19 38  1  0  0  0  0
 20 39  1  0  0  0  0
 23 40  1  0  0  0  0
 23 41  1  0  0  0  0
 23 42  1  0  0  0  0
 24 43  1  0  0  0  0
 24 44  1  0  0  0  0
 26 45  1  0  0  0  0
 26 46  1  0  0  0  0
 27 47  1  0  0  0  0
 27 48  1  0  0  0  0
M  END
> <Name>
43

> <IC50[uM]>
0.002

$$$$
43
  -OEChem-05192314333D
 Structure written by MMmdl.
 48 52  0     1  0  0  0  0  0999 V2000
   -6.3694   12.3608  -12.0100 C   0  0  3  0  0  0  0  0  0  0  0  0
   -6.5170   11.8053  -10.7333 C   0  0  0  0  0  0  0  0  0  0  0  0
   -7.7298   10.5799  -13.0278 C   0  0  0  0  0  0  0  0  0  0  0  0
   -6.9915   11.7687  -13.1228 C   0  0  0  0  0  0  0  0  0  0  0  0
   -7.8213   10.0100  -11.7550 C   0  0  0  0  0  0  0  0  0  0  0  0
   -7.2397   10.6196  -10.6003 C   0  0  0  0  0  0  0  0  0  0  0  0
   -7.6092    9.7471   -9.5124 C   0  0  0  0  0  0  0  0  0  0  0  0
   -8.2773    8.7308   -9.9855 N   0  0  0  0  0  0  0  0  0  0  0  0
   -8.4143    8.8607  -11.2979 N   0  0  0  0  0  0  0  0  0  0  0  0
   -7.3268    9.8907   -8.0257 C   0  0  0  0  0  0  0  0  0  0  0  0
   -4.3565   13.7183  -11.5055 N   0  0  0  0  0  0  0  0  0  0  0  0
   -5.5483   13.6363  -12.1897 C   0  0  0  0  0  0  0  0  0  0  0  0
   -5.9477   14.5322  -12.9368 O   0  0  0  0  0  0  0  0  0  0  0  0
   -5.9513   10.4999   -7.7281 C   0  0  0  0  0  0  0  0  0  0  0  0
   -5.8738   11.7695   -7.1531 C   0  0  0  0  0  0  0  0  0  0  0  0
   -4.6094   12.3134   -6.9136 C   0  0  0  0  0  0  0  0  0  0  0  0
   -3.4376   11.5622   -7.2444 C   0  0  0  0  0  0  0  0  0  0  0  0
   -3.5099   10.2841   -7.8101 C   0  0  0  0  0  0  0  0  0  0  0  0
   -4.7961    9.7769   -8.0457 C   0  0  0  0  0  0  0  0  0  0  0  0
   -4.0914   13.5427   -6.3707 C   0  0  0  0  0  0  0  0  0  0  0  0
   -2.7880   13.5314   -6.3772 N   0  0  0  0  0  0  0  0  0  0  0  0
   -2.3819   12.3721   -6.8788 N   0  0  0  0  0  0  0  0  0  0  0  0
   -0.9505   12.1058   -6.9728 C   0  0  0  0  0  0  0  0  0  0  0  0
   -3.7111   12.5665  -10.8449 C   0  0  0  0  0  0  0  0  0  0  0  0
   -2.2188   12.9372  -10.9792 C   0  0  0  0  0  0  0  0  0  0  0  0
   -2.1852   14.4611  -10.9536 C   0  0  0  0  0  0  0  0  0  0  0  0
   -3.5089   14.9092  -11.5986 C   0  0  0  0  0  0  0  0  0  0  0  0
   -1.7019   12.4742  -12.1199 F   0  0  0  0  0  0  0  0  0  0  0  0
   -1.4726   12.4435   -9.9943 F   0  0  0  0  0  0  0  0  0  0  0  0
   -5.4701   11.7504  -12.1792 H   0  0  0  0  0  0  0  0  0  0  0  0
   -6.0805   12.2847   -9.8696 H   0  0  0  0  0  0  0  0  0  0  0  0
   -8.2009   10.1304  -13.8894 H   0  0  0  0  0  0  0  0  0  0  0  0
   -7.6806   12.5252  -13.5263 H   0  0  0  0  0  0  0  0  0  0  0  0
   -6.1919   11.5745  -13.8528 H   0  0  0  0  0  0  0  0  0  0  0  0
   -8.0244    9.5937   -7.2566 H   0  0  0  0  0  0  0  0  0  0  0  0
   -6.7691   12.3178   -6.8996 H   0  0  0  0  0  0  0  0  0  0  0  0
   -2.6224    9.7184   -8.0524 H   0  0  0  0  0  0  0  0  0  0  0  0
   -4.8983    8.7963   -8.4866 H   0  0  0  0  0  0  0  0  0  0  0  0
   -4.6981   14.3596   -6.0088 H   0  0  0  0  0  0  0  0  0  0  0  0
   -0.3901   12.9695   -6.5854 H   0  0  0  0  0  0  0  0  0  0  0  0
   -0.7040   11.2129   -6.3795 H   0  0  0  0  0  0  0  0  0  0  0  0
   -0.6780   11.9339   -8.0245 H   0  0  0  0  0  0  0  0  0  0  0  0
   -4.0127   12.4865   -9.7901 H   0  0  0  0  0  0  0  0  0  0  0  0
   -3.9402   11.6243  -11.3642 H   0  0  0  0  0  0  0  0  0  0  0  0
   -2.1179   14.8274   -9.9186 H   0  0  0  0  0  0  0  0  0  0  0  0
   -1.3284   14.8371  -11.5320 H   0  0  0  0  0  0  0  0  0  0  0  0
   -3.3556   15.2013  -12.6480 H   0  0  0  0  0  0  0  0  0  0  0  0
   -3.9510   15.7504  -11.0446 H   0  0  0  0  0  0  0  0  0  0  0  0
  1  2  1  0  0  0  0
  1  4  1  0  0  0  0
  1 12  1  0  0  0  0
  2  6  2  0  0  0  0
  3  4  1  0  0  0  0
  3  5  2  0  0  0  0
  5  6  1  0  0  0  0
  5  9  1  0  0  0  0
  6  7  1  0  0  0  0
  7  8  1  0  0  0  0
  7 10  2  3  0  0  0
  8  9  2  0  0  0  0
 10 14  1  0  0  0  0
 11 12  1  0  0  0  0
 11 24  1  0  0  0  0
 11 27  1  0  0  0  0
 12 13  2  0  0  0  0
 14 15  2  0  0  0  0
 14 19  1  0  0  0  0
 15 16  1  0  0  0  0
 16 17  2  0  0  0  0
 16 20  1  0  0  0  0
 17 18  1  0  0  0  0
 17 22  1  0  0  0  0
 18 19  2  0  0  0  0
 20 21  2  0  0  0  0
 21 22  1  0  0  0  0
 22 23  1  0  0  0  0
 24 25  1  0  0  0  0
 25 26  1  0  0  0  0
 25 28  1  0  0  0  0
 25 29  1  0  0  0  0
 26 27  1  0  0  0  0
  1 30  1  0  0  0  0
  2 31  1  0  0  0  0
  3 32  1  0  0  0  0
  4 33  1  0  0  0  0
  4 34  1  0  0  0  0
 10 35  1  0  0  0  0
 15 36  1  0  0  0  0
 18 37  1  0  0  0  0
 19 38  1  0  0  0  0
 20 39  1  0  0  0  0
 23 40  1  0  0  0  0
 23 41  1  0  0  0  0
 23 42  1  0  0  0  0
 24 43  1  0  0  0  0
 24 44  1  0  0  0  0
 26 45  1  0  0  0  0
 26 46  1  0  0  0  0
 27 47  1  0  0  0  0
 27 48  1  0  0  0  0
M  END
> <Name>
43

> <IC50[uM]>
0.002

$$$$
43
  -OEChem-05192314333D
 Structure written by MMmdl.
 48 52  0     1  0  0  0  0  0999 V2000
   -6.3694   12.3608  -12.0100 C   0  0  0  0  0  0  0  0  0  0  0  0
   -6.5170   11.8053  -10.7333 C   0  0  0  0  0  0  0  0  0  0  0  0
   -7.7298   10.5799  -13.0278 C   0  0  0  0  0  0  0  0  0  0  0  0
   -6.9915   11.7687  -13.1228 C   0  0  0  0  0  0  0  0  0  0  0  0
   -7.8213   10.0100  -11.7550 C   0  0  0  0  0  0  0  0  0  0  0  0
   -7.2397   10.6196  -10.6003 C   0  0  3  0  0  0  0  0  0  0  0  0
   -7.6092    9.7471   -9.5124 C   0  0  0  0  0  0  0  0  0  0  0  0
   -8.2773    8.7308   -9.9855 N   0  0  0  0  0  0  0  0  0  0  0  0
   -8.4143    8.8607  -11.2979 N   0  0  0  0  0  0  0  0  0  0  0  0
   -7.3268    9.8907   -8.0257 C   0  0  0  0  0  0  0  0  0  0  0  0
   -4.3565   13.7183  -11.5055 N   0  0  0  0  0  0  0  0  0  0  0  0
   -5.5483   13.6363  -12.1897 C   0  0  0  0  0  0  0  0  0  0  0  0
   -5.9477   14.5322  -12.9368 O   0  0  0  0  0  0  0  0  0  0  0  0
   -5.9513   10.4999   -7.7281 C   0  0  0  0  0  0  0  0  0  0  0  0
   -5.8738   11.7695   -7.1531 C   0  0  0  0  0  0  0  0  0  0  0  0
   -4.6094   12.3134   -6.9136 C   0  0  0  0  0  0  0  0  0  0  0  0
   -3.4376   11.5622   -7.2444 C   0  0  0  0  0  0  0  0  0  0  0  0
   -3.5099   10.2841   -7.8101 C   0  0  0  0  0  0  0  0  0  0  0  0
   -4.7961    9.7769   -8.0457 C   0  0  0  0  0  0  0  0  0  0  0  0
   -4.0914   13.5427   -6.3707 C   0  0  0  0  0  0  0  0  0  0  0  0
   -2.7880   13.5314   -6.3772 N   0  0  0  0  0  0  0  0  0  0  0  0
   -2.3819   12.3721   -6.8788 N   0  0  0  0  0  0  0  0  0  0  0  0
   -0.9505   12.1058   -6.9728 C   0  0  0  0  0  0  0  0  0  0  0  0
   -3.7111   12.5665  -10.8449 C   0  0  0  0  0  0  0  0  0  0  0  0
   -2.2188   12.9372  -10.9792 C   0  0  0  0  0  0  0  0  0  0  0  0
   -2.1852   14.4611  -10.9536 C   0  0  0  0  0  0  0  0  0  0  0  0
   -3.5089   14.9092  -11.5986 C   0  0  0  0  0  0  0  0  0  0  0  0
   -1.7019   12.4742  -12.1199 F   0  0  0  0  0  0  0  0  0  0  0  0
   -1.4726   12.4435   -9.9943 F   0  0  0  0  0  0  0  0  0  0  0  0
   -6.0805   12.2847   -9.8696 H   0  0  0  0  0  0  0  0  0  0  0  0
   -8.2009   10.1304  -13.8894 H   0  0  0  0  0  0  0  0  0  0  0  0
   -7.6806   12.5252  -13.5263 H   0  0  0  0  0  0  0  0  0  0  0  0
   -6.1919   11.5745  -13.8528 H   0  0  0  0  0  0  0  0  0  0  0  0
   -6.3186   10.0387  -10.7555 H   0  0  0  0  0  0  0  0  0  0  0  0
   -8.0244    9.5937   -7.2566 H   0  0  0  0  0  0  0  0  0  0  0  0
   -6.7691   12.3178   -6.8996 H   0  0  0  0  0  0  0  0  0  0  0  0
   -2.6224    9.7184   -8.0524 H   0  0  0  0  0  0  0  0  0  0  0  0
   -4.8983    8.7963   -8.4866 H   0  0  0  0  0  0  0  0  0  0  0  0
   -4.6981   14.3596   -6.0088 H   0  0  0  0  0  0  0  0  0  0  0  0
   -0.3901   12.9695   -6.5854 H   0  0  0  0  0  0  0  0  0  0  0  0
   -0.7040   11.2129   -6.3795 H   0  0  0  0  0  0  0  0  0  0  0  0
   -0.6780   11.9339   -8.0245 H   0  0  0  0  0  0  0  0  0  0  0  0
   -4.0127   12.4865   -9.7901 H   0  0  0  0  0  0  0  0  0  0  0  0
   -3.9402   11.6243  -11.3642 H   0  0  0  0  0  0  0  0  0  0  0  0
   -2.1179   14.8274   -9.9186 H   0  0  0  0  0  0  0  0  0  0  0  0
   -1.3284   14.8371  -11.5320 H   0  0  0  0  0  0  0  0  0  0  0  0
   -3.3556   15.2013  -12.6480 H   0  0  0  0  0  0  0  0  0  0  0  0
   -3.9510   15.7504  -11.0446 H   0  0  0  0  0  0  0  0  0  0  0  0
  1  2  2  0  0  0  0
  1  4  1  0  0  0  0
  1 12  1  0  0  0  0
  2  6  1  0  0  0  0
  3  4  1  0  0  0  0
  3  5  2  0  0  0  0
  5  6  1  0  0  0  0
  5  9  1  0  0  0  0
  6  7  1  0  0  0  0
  7  8  1  0  0  0  0
  7 10  2  3  0  0  0
  8  9  2  0  0  0  0
 10 14  1  0  0  0  0
 11 12  1  0  0  0  0
 11 24  1  0  0  0  0
 11 27  1  0  0  0  0
 12 13  2  0  0  0  0
 14 15  2  0  0  0  0
 14 19  1  0  0  0  0
 15 16  1  0  0  0  0
 16 17  2  0  0  0  0
 16 20  1  0  0  0  0
 17 18  1  0  0  0  0
 17 22  1  0  0  0  0
 18 19  2  0  0  0  0
 20 21  2  0  0  0  0
 21 22  1  0  0  0  0
 22 23  1  0  0  0  0
 24 25  1  0  0  0  0
 25 26  1  0  0  0  0
 25 28  1  0  0  0  0
 25 29  1  0  0  0  0
 26 27  1  0  0  0  0
  2 30  1  0  0  0  0
  3 31  1  0  0  0  0
  4 32  1  0  0  0  0
  4 33  1  0  0  0  0
  6 34  1  0  0  0  0
 10 35  1  0  0  0  0
 15 36  1  0  0  0  0
 18 37  1  0  0  0  0
 19 38  1  0  0  0  0
 20 39  1  0  0  0  0
 23 40  1  0  0  0  0
 23 41  1  0  0  0  0
 23 42  1  0  0  0  0
 24 43  1  0  0  0  0
 24 44  1  0  0  0  0
 26 45  1  0  0  0  0
 26 46  1  0  0  0  0
 27 47  1  0  0  0  0
 27 48  1  0  0  0  0
M  END
> <Name>
43

> <IC50[uM]>
0.002

$$$$
43
  -OEChem-05192314333D
 Structure written by MMmdl.
 48 52  0     0  0  0  0  0  0999 V2000
   -6.3694   12.3608  -12.0100 C   0  0  0  0  0  0  0  0  0  0  0  0
   -6.5170   11.8053  -10.7333 C   0  0  0  0  0  0  0  0  0  0  0  0
   -7.7298   10.5799  -13.0278 C   0  0  0  0  0  0  0  0  0  0  0  0
   -6.9915   11.7687  -13.1228 C   0  0  0  0  0  0  0  0  0  0  0  0
   -7.8213   10.0100  -11.7550 C   0  0  0  0  0  0  0  0  0  0  0  0
   -7.2397   10.6196  -10.6003 C   0  0  0  0  0  0  0  0  0  0  0  0
   -7.6092    9.7471   -9.5124 C   0  0  0  0  0  0  0  0  0  0  0  0
   -8.2773    8.7308   -9.9855 N   0  0  0  0  0  0  0  0  0  0  0  0
   -8.4143    8.8607  -11.2979 N   0  0  0  0  0  0  0  0  0  0  0  0
   -7.3268    9.8907   -8.0257 C   0  0  0  0  0  0  0  0  0  0  0  0
   -4.3565   13.7183  -11.5055 N   0  0  0  0  0  0  0  0  0  0  0  0
   -5.5483   13.6363  -12.1897 C   0  0  0  0  0  0  0  0  0  0  0  0
   -5.9477   14.5322  -12.9368 O   0  0  0  0  0  0  0  0  0  0  0  0
   -5.9513   10.4999   -7.7281 C   0  0  0  0  0  0  0  0  0  0  0  0
   -5.8738   11.7695   -7.1531 C   0  0  0  0  0  0  0  0  0  0  0  0
   -4.6094   12.3134   -6.9136 C   0  0  0  0  0  0  0  0  0  0  0  0
   -3.4376   11.5622   -7.2444 C   0  0  0  0  0  0  0  0  0  0  0  0
   -3.5099   10.2841   -7.8101 C   0  0  0  0  0  0  0  0  0  0  0  0
   -4.7961    9.7769   -8.0457 C   0  0  0  0  0  0  0  0  0  0  0  0
   -4.0914   13.5427   -6.3707 C   0  0  0  0  0  0  0  0  0  0  0  0
   -2.7880   13.5314   -6.3772 N   0  0  0  0  0  0  0  0  0  0  0  0
   -2.3819   12.3721   -6.8788 N   0  0  0  0  0  0  0  0  0  0  0  0
   -0.9505   12.1058   -6.9728 C   0  0  0  0  0  0  0  0  0  0  0  0
   -3.7111   12.5665  -10.8449 C   0  0  0  0  0  0  0  0  0  0  0  0
   -2.2188   12.9372  -10.9792 C   0  0  0  0  0  0  0  0  0  0  0  0
   -2.1852   14.4611  -10.9536 C   0  0  0  0  0  0  0  0  0  0  0  0
   -3.5089   14.9092  -11.5986 C   0  0  0  0  0  0  0  0  0  0  0  0
   -1.7019   12.4742  -12.1199 F   0  0  0  0  0  0  0  0  0  0  0  0
   -1.4726   12.4435   -9.9943 F   0  0  0  0  0  0  0  0  0  0  0  0
   -6.0805   12.2847   -9.8696 H   0  0  0  0  0  0  0  0  0  0  0  0
   -8.7519   10.7911  -13.3751 H   0  0  0  0  0  0  0  0  0  0  0  0
   -7.2617    9.8401  -13.6938 H   0  0  0  0  0  0  0  0  0  0  0  0
   -7.6806   12.5252  -13.5263 H   0  0  0  0  0  0  0  0  0  0  0  0
   -6.1919   11.5745  -13.8528 H   0  0  0  0  0  0  0  0  0  0  0  0
   -8.0244    9.5937   -7.2566 H   0  0  0  0  0  0  0  0  0  0  0  0
   -6.7691   12.3178   -6.8996 H   0  0  0  0  0  0  0  0  0  0  0  0
   -2.6224    9.7184   -8.0524 H   0  0  0  0  0  0  0  0  0  0  0  0
   -4.8983    8.7963   -8.4866 H   0  0  0  0  0  0  0  0  0  0  0  0
   -4.6981   14.3596   -6.0088 H   0  0  0  0  0  0  0  0  0  0  0  0
   -0.3901   12.9695   -6.5854 H   0  0  0  0  0  0  0  0  0  0  0  0
   -0.7040   11.2129   -6.3795 H   0  0  0  0  0  0  0  0  0  0  0  0
   -0.6780   11.9339   -8.0245 H   0  0  0  0  0  0  0  0  0  0  0  0
   -4.0127   12.4865   -9.7901 H   0  0  0  0  0  0  0  0  0  0  0  0
   -3.9402   11.6243  -11.3642 H   0  0  0  0  0  0  0  0  0  0  0  0
   -2.1179   14.8274   -9.9186 H   0  0  0  0  0  0  0  0  0  0  0  0
   -1.3284   14.8371  -11.5320 H   0  0  0  0  0  0  0  0  0  0  0  0
   -3.3556   15.2013  -12.6480 H   0  0  0  0  0  0  0  0  0  0  0  0
   -3.9510   15.7504  -11.0446 H   0  0  0  0  0  0  0  0  0  0  0  0
  1  2  2  0  0  0  0
  1  4  1  0  0  0  0
  1 12  1  0  0  0  0
  2  6  1  0  0  0  0
  3  4  1  0  0  0  0
  3  5  1  0  0  0  0
  5  6  2  0  0  0  0
  5  9  1  0  0  0  0
  6  7  1  0  0  0  0
  7  8  1  0  0  0  0
  7 10  2  3  0  0  0
  8  9  2  0  0  0  0
 10 14  1  0  0  0  0
 11 12  1  0  0  0  0
 11 24  1  0  0  0  0
 11 27  1  0  0  0  0
 12 13  2  0  0  0  0
 14 15  2  0  0  0  0
 14 19  1  0  0  0  0
 15 16  1  0  0  0  0
 16 17  2  0  0  0  0
 16 20  1  0  0  0  0
 17 18  1  0  0  0  0
 17 22  1  0  0  0  0
 18 19  2  0  0  0  0
 20 21  2  0  0  0  0
 21 22  1  0  0  0  0
 22 23  1  0  0  0  0
 24 25  1  0  0  0  0
 25 26  1  0  0  0  0
 25 28  1  0  0  0  0
 25 29  1  0  0  0  0
 26 27  1  0  0  0  0
  2 30  1  0  0  0  0
  3 31  1  0  0  0  0
  3 32  1  0  0  0  0
  4 33  1  0  0  0  0
  4 34  1  0  0  0  0
 10 35  1  0  0  0  0
 15 36  1  0  0  0  0
 18 37  1  0  0  0  0
 19 38  1  0  0  0  0
 20 39  1  0  0  0  0
 23 40  1  0  0  0  0
 23 41  1  0  0  0  0
 23 42  1  0  0  0  0
 24 43  1  0  0  0  0
 24 44  1  0  0  0  0
 26 45  1  0  0  0  0
 26 46  1  0  0  0  0
 27 47  1  0  0  0  0
 27 48  1  0  0  0  0
M  END
> <Name>
43

> <IC50[uM]>
0.002

$$$$
43
  -OEChem-05192314333D
 Structure written by MMmdl.
 48 52  0     1  0  0  0  0  0999 V2000
   -6.3694   12.3608  -12.0100 C   0  0  3  0  0  0  0  0  0  0  0  0
   -6.5170   11.8053  -10.7333 C   0  0  0  0  0  0  0  0  0  0  0  0
   -7.7298   10.5799  -13.0278 C   0  0  0  0  0  0  0  0  0  0  0  0
   -6.9915   11.7687  -13.1228 C   0  0  0  0  0  0  0  0  0  0  0  0
   -7.8213   10.0100  -11.7550 C   0  0  0  0  0  0  0  0  0  0  0  0
   -7.2397   10.6196  -10.6003 C   0  0  0  0  0  0  0  0  0  0  0  0
   -7.6092    9.7471   -9.5124 C   0  0  0  0  0  0  0  0  0  0  0  0
   -8.2773    8.7308   -9.9855 N   0  0  0  0  0  0  0  0  0  0  0  0
   -8.4143    8.8607  -11.2979 N   0  0  0  0  0  0  0  0  0  0  0  0
   -7.3268    9.8907   -8.0257 C   0  0  0  0  0  0  0  0  0  0  0  0
   -4.3565   13.7183  -11.5055 N   0  0  0  0  0  0  0  0  0  0  0  0
   -5.5483   13.6363  -12.1897 C   0  0  0  0  0  0  0  0  0  0  0  0
   -5.9477   14.5322  -12.9368 O   0  0  0  0  0  0  0  0  0  0  0  0
   -5.9513   10.4999   -7.7281 C   0  0  0  0  0  0  0  0  0  0  0  0
   -5.8738   11.7695   -7.1531 C   0  0  0  0  0  0  0  0  0  0  0  0
   -4.6094   12.3134   -6.9136 C   0  0  0  0  0  0  0  0  0  0  0  0
   -3.4376   11.5622   -7.2444 C   0  0  0  0  0  0  0  0  0  0  0  0
   -3.5099   10.2841   -7.8101 C   0  0  0  0  0  0  0  0  0  0  0  0
   -4.7961    9.7769   -8.0457 C   0  0  0  0  0  0  0  0  0  0  0  0
   -4.0914   13.5427   -6.3707 C   0  0  0  0  0  0  0  0  0  0  0  0
   -2.7880   13.5314   -6.3772 N   0  0  0  0  0  0  0  0  0  0  0  0
   -2.3819   12.3721   -6.8788 N   0  0  0  0  0  0  0  0  0  0  0  0
   -0.9505   12.1058   -6.9728 C   0  0  0  0  0  0  0  0  0  0  0  0
   -3.7111   12.5665  -10.8449 C   0  0  0  0  0  0  0  0  0  0  0  0
   -2.2188   12.9372  -10.9792 C   0  0  0  0  0  0  0  0  0  0  0  0
   -2.1852   14.4611  -10.9536 C   0  0  0  0  0  0  0  0  0  0  0  0
   -3.5089   14.9092  -11.5986 C   0  0  0  0  0  0  0  0  0  0  0  0
   -1.7019   12.4742  -12.1199 F   0  0  0  0  0  0  0  0  0  0  0  0
   -1.4726   12.4435   -9.9943 F   0  0  0  0  0  0  0  0  0  0  0  0
   -5.4701   11.7504  -12.1792 H   0  0  0  0  0  0  0  0  0  0  0  0
   -5.5061   11.6142  -10.3440 H   0  0  0  0  0  0  0  0  0  0  0  0
   -7.0145   12.5602  -10.1068 H   0  0  0  0  0  0  0  0  0  0  0  0
   -8.2009   10.1304  -13.8894 H   0  0  0  0  0  0  0  0  0  0  0  0
   -6.8975   12.2468  -14.0866 H   0  0  0  0  0  0  0  0  0  0  0  0
   -8.0244    9.5937   -7.2566 H   0  0  0  0  0  0  0  0  0  0  0  0
   -6.7691   12.3178   -6.8996 H   0  0  0  0  0  0  0  0  0  0  0  0
   -2.6224    9.7184   -8.0524 H   0  0  0  0  0  0  0  0  0  0  0  0
   -4.8983    8.7963   -8.4866 H   0  0  0  0  0  0  0  0  0  0  0  0
   -4.6981   14.3596   -6.0088 H   0  0  0  0  0  0  0  0  0  0  0  0
   -0.3901   12.9695   -6.5854 H   0  0  0  0  0  0  0  0  0  0  0  0
   -0.7040   11.2129   -6.3795 H   0  0  0  0  0  0  0  0  0  0  0  0
   -0.6780   11.9339   -8.0245 H   0  0  0  0  0  0  0  0  0  0  0  0
   -4.0127   12.4865   -9.7901 H   0  0  0  0  0  0  0  0  0  0  0  0
   -3.9402   11.6243  -11.3642 H   0  0  0  0  0  0  0  0  0  0  0  0
   -2.1179   14.8274   -9.9186 H   0  0  0  0  0  0  0  0  0  0  0  0
   -1.3284   14.8371  -11.5320 H   0  0  0  0  0  0  0  0  0  0  0  0
   -3.3556   15.2013  -12.6480 H   0  0  0  0  0  0  0  0  0  0  0  0
   -3.9510   15.7504  -11.0446 H   0  0  0  0  0  0  0  0  0  0  0  0
  1  2  1  0  0  0  0
  1  4  1  0  0  0  0
  1 12  1  0  0  0  0
  2  6  1  0  0  0  0
  3  4  2  0  0  0  0
  3  5  1  0  0  0  0
  5  6  2  0  0  0  0
  5  9  1  0  0  0  0
  6  7  1  0  0  0  0
  7  8  1  0  0  0  0
  7 10  2  3  0  0  0
  8  9  2  0  0  0  0
 10 14  1  0  0  0  0
 11 12  1  0  0  0  0
 11 24  1  0  0  0  0
 11 27  1  0  0  0  0
 12 13  2  0  0  0  0
 14 15  2  0  0  0  0
 14 19  1  0  0  0  0
 15 16  1  0  0  0  0
 16 17  2  0  0  0  0
 16 20  1  0  0  0  0
 17 18  1  0  0  0  0
 17 22  1  0  0  0  0
 18 19  2  0  0  0  0
 20 21  2  0  0  0  0
 21 22  1  0  0  0  0
 22 23  1  0  0  0  0
 24 25  1  0  0  0  0
 25 26  1  0  0  0  0
 25 28  1  0  0  0  0
 25 29  1  0  0  0  0
 26 27  1  0  0  0  0
  1 30  1  0  0  0  0
  2 31  1  0  0  0  0
  2 32  1  0  0  0  0
  3 33  1  0  0  0  0
  4 34  1  0  0  0  0
 10 35  1  0  0  0  0
 15 36  1  0  0  0  0
 18 37  1  0  0  0  0
 19 38  1  0  0  0  0
 20 39  1  0  0  0  0
 23 40  1  0  0  0  0
 23 41  1  0  0  0  0
 23 42  1  0  0  0  0
 24 43  1  0  0  0  0
 24 44  1  0  0  0  0
 26 45  1  0  0  0  0
 26 46  1  0  0  0  0
 27 47  1  0  0  0  0
 27 48  1  0  0  0  0
M  END
> <Name>
43

> <IC50[uM]>
0.002

$$$$
43
  -OEChem-05192314333D
 Structure written by MMmdl.
 48 52  0     1  0  0  0  0  0999 V2000
   -6.3694   12.3608  -12.0100 C   0  0  0  0  0  0  0  0  0  0  0  0
   -6.5170   11.8053  -10.7333 C   0  0  0  0  0  0  0  0  0  0  0  0
   -7.7298   10.5799  -13.0278 C   0  0  0  0  0  0  0  0  0  0  0  0
   -6.9915   11.7687  -13.1228 C   0  0  0  0  0  0  0  0  0  0  0  0
   -7.8213   10.0100  -11.7550 C   0  0  0  0  0  0  0  0  0  0  0  0
   -7.2397   10.6196  -10.6003 C   0  0  3  0  0  0  0  0  0  0  0  0
   -7.6092    9.7471   -9.5124 C   0  0  0  0  0  0  0  0  0  0  0  0
   -8.2773    8.7308   -9.9855 N   0  0  0  0  0  0  0  0  0  0  0  0
   -8.4143    8.8607  -11.2979 N   0  0  0  0  0  0  0  0  0  0  0  0
   -7.3268    9.8907   -8.0257 C   0  0  0  0  0  0  0  0  0  0  0  0
   -4.3565   13.7183  -11.5055 N   0  0  0  0  0  0  0  0  0  0  0  0
   -5.5483   13.6363  -12.1897 C   0  0  0  0  0  0  0  0  0  0  0  0
   -5.9477   14.5322  -12.9368 O   0  0  0  0  0  0  0  0  0  0  0  0
   -5.9513   10.4999   -7.7281 C   0  0  0  0  0  0  0  0  0  0  0  0
   -5.8738   11.7695   -7.1531 C   0  0  0  0  0  0  0  0  0  0  0  0
   -4.6094   12.3134   -6.9136 C   0  0  0  0  0  0  0  0  0  0  0  0
   -3.4376   11.5622   -7.2444 C   0  0  0  0  0  0  0  0  0  0  0  0
   -3.5099   10.2841   -7.8101 C   0  0  0  0  0  0  0  0  0  0  0  0
   -4.7961    9.7769   -8.0457 C   0  0  0  0  0  0  0  0  0  0  0  0
   -4.0914   13.5427   -6.3707 C   0  0  0  0  0  0  0  0  0  0  0  0
   -2.7880   13.5314   -6.3772 N   0  0  0  0  0  0  0  0  0  0  0  0
   -2.3819   12.3721   -6.8788 N   0  0  0  0  0  0  0  0  0  0  0  0
   -0.9505   12.1058   -6.9728 C   0  0  0  0  0  0  0  0  0  0  0  0
   -3.7111   12.5665  -10.8449 C   0  0  0  0  0  0  0  0  0  0  0  0
   -2.2188   12.9372  -10.9792 C   0  0  0  0  0  0  0  0  0  0  0  0
   -2.1852   14.4611  -10.9536 C   0  0  0  0  0  0  0  0  0  0  0  0
   -3.5089   14.9092  -11.5986 C   0  0  0  0  0  0  0  0  0  0  0  0
   -1.7019   12.4742  -12.1199 F   0  0  0  0  0  0  0  0  0  0  0  0
   -1.4726   12.4435   -9.9943 F   0  0  0  0  0  0  0  0  0  0  0  0
   -5.5061   11.6142  -10.3440 H   0  0  0  0  0  0  0  0  0  0  0  0
   -7.0145   12.5602  -10.1068 H   0  0  0  0  0  0  0  0  0  0  0  0
   -8.2009   10.1304  -13.8894 H   0  0  0  0  0  0  0  0  0  0  0  0
   -6.8975   12.2468  -14.0866 H   0  0  0  0  0  0  0  0  0  0  0  0
   -6.3186   10.0387  -10.7555 H   0  0  0  0  0  0  0  0  0  0  0  0
   -8.0244    9.5937   -7.2566 H   0  0  0  0  0  0  0  0  0  0  0  0
   -6.7691   12.3178   -6.8996 H   0  0  0  0  0  0  0  0  0  0  0  0
   -2.6224    9.7184   -8.0524 H   0  0  0  0  0  0  0  0  0  0  0  0
   -4.8983    8.7963   -8.4866 H   0  0  0  0  0  0  0  0  0  0  0  0
   -4.6981   14.3596   -6.0088 H   0  0  0  0  0  0  0  0  0  0  0  0
   -0.3901   12.9695   -6.5854 H   0  0  0  0  0  0  0  0  0  0  0  0
   -0.7040   11.2129   -6.3795 H   0  0  0  0  0  0  0  0  0  0  0  0
   -0.6780   11.9339   -8.0245 H   0  0  0  0  0  0  0  0  0  0  0  0
   -4.0127   12.4865   -9.7901 H   0  0  0  0  0  0  0  0  0  0  0  0
   -3.9402   11.6243  -11.3642 H   0  0  0  0  0  0  0  0  0  0  0  0
   -2.1179   14.8274   -9.9186 H   0  0  0  0  0  0  0  0  0  0  0  0
   -1.3284   14.8371  -11.5320 H   0  0  0  0  0  0  0  0  0  0  0  0
   -3.3556   15.2013  -12.6480 H   0  0  0  0  0  0  0  0  0  0  0  0
   -3.9510   15.7504  -11.0446 H   0  0  0  0  0  0  0  0  0  0  0  0
  1  2  1  0  0  0  0
  1  4  2  0  0  0  0
  1 12  1  0  0  0  0
  2  6  1  0  0  0  0
  3  4  1  0  0  0  0
  3  5  2  0  0  0  0
  5  6  1  0  0  0  0
  5  9  1  0  0  0  0
  6  7  1  0  0  0  0
  7  8  1  0  0  0  0
  7 10  2  3  0  0  0
  8  9  2  0  0  0  0
 10 14  1  0  0  0  0
 11 12  1  0  0  0  0
 11 24  1  0  0  0  0
 11 27  1  0  0  0  0
 12 13  2  0  0  0  0
 14 15  2  0  0  0  0
 14 19  1  0  0  0  0
 15 16  1  0  0  0  0
 16 17  2  0  0  0  0
 16 20  1  0  0  0  0
 17 18  1  0  0  0  0
 17 22  1  0  0  0  0
 18 19  2  0  0  0  0
 20 21  2  0  0  0  0
 21 22  1  0  0  0  0
 22 23  1  0  0  0  0
 24 25  1  0  0  0  0
 25 26  1  0  0  0  0
 25 28  1  0  0  0  0
 25 29  1  0  0  0  0
 26 27  1  0  0  0  0
  2 30  1  0  0  0  0
  2 31  1  0  0  0  0
  3 32  1  0  0  0  0
  4 33  1  0  0  0  0
  6 34  1  0  0  0  0
 10 35  1  0  0  0  0
 15 36  1  0  0  0  0
 18 37  1  0  0  0  0
 19 38  1  0  0  0  0
 20 39  1  0  0  0  0
 23 40  1  0  0  0  0
 23 41  1  0  0  0  0
 23 42  1  0  0  0  0
 24 43  1  0  0  0  0
 24 44  1  0  0  0  0
 26 45  1  0  0  0  0
 26 46  1  0  0  0  0
 27 47  1  0  0  0  0
 27 48  1  0  0  0  0
M  END
> <Name>
43

> <IC50[uM]>
0.002

$$$$
43
  -OEChem-05192314333D
 Structure written by MMmdl.
 48 52  0     0  0  0  0  0  0999 V2000
   -6.3694   12.3608  -12.0100 C   0  0  0  0  0  0  0  0  0  0  0  0
   -6.5170   11.8053  -10.7333 C   0  0  0  0  0  0  0  0  0  0  0  0
   -7.7298   10.5799  -13.0278 C   0  0  0  0  0  0  0  0  0  0  0  0
   -6.9915   11.7687  -13.1228 C   0  0  0  0  0  0  0  0  0  0  0  0
   -7.8213   10.0100  -11.7550 C   0  0  0  0  0  0  0  0  0  0  0  0
   -7.2397   10.6196  -10.6003 C   0  0  0  0  0  0  0  0  0  0  0  0
   -7.6092    9.7471   -9.5124 C   0  0  0  0  0  0  0  0  0  0  0  0
   -8.2773    8.7308   -9.9855 N   0  0  0  0  0  0  0  0  0  0  0  0
   -8.4143    8.8607  -11.2979 N   0  0  0  0  0  0  0  0  0  0  0  0
   -7.3268    9.8907   -8.0257 C   0  0  0  0  0  0  0  0  0  0  0  0
   -4.3565   13.7183  -11.5055 N   0  0  0  0  0  0  0  0  0  0  0  0
   -5.5483   13.6363  -12.1897 C   0  0  0  0  0  0  0  0  0  0  0  0
   -5.9477   14.5322  -12.9368 O   0  0  0  0  0  0  0  0  0  0  0  0
   -5.9513   10.4999   -7.7281 C   0  0  0  0  0  0  0  0  0  0  0  0
   -5.8738   11.7695   -7.1531 C   0  0  0  0  0  0  0  0  0  0  0  0
   -4.6094   12.3134   -6.9136 C   0  0  0  0  0  0  0  0  0  0  0  0
   -3.4376   11.5622   -7.2444 C   0  0  0  0  0  0  0  0  0  0  0  0
   -3.5099   10.2841   -7.8101 C   0  0  0  0  0  0  0  0  0  0  0  0
   -4.7961    9.7769   -8.0457 C   0  0  0  0  0  0  0  0  0  0  0  0
   -4.0914   13.5427   -6.3707 C   0  0  0  0  0  0  0  0  0  0  0  0
   -2.7880   13.5314   -6.3772 N   0  0  0  0  0  0  0  0  0  0  0  0
   -2.3819   12.3721   -6.8788 N   0  0  0  0  0  0  0  0  0  0  0  0
   -0.9505   12.1058   -6.9728 C   0  0  0  0  0  0  0  0  0  0  0  0
   -3.7111   12.5665  -10.8449 C   0  0  0  0  0  0  0  0  0  0  0  0
   -2.2188   12.9372  -10.9792 C   0  0  0  0  0  0  0  0  0  0  0  0
   -2.1852   14.4611  -10.9536 C   0  0  0  0  0  0  0  0  0  0  0  0
   -3.5089   14.9092  -11.5986 C   0  0  0  0  0  0  0  0  0  0  0  0
   -1.7019   12.4742  -12.1199 F   0  0  0  0  0  0  0  0  0  0  0  0
   -1.4726   12.4435   -9.9943 F   0  0  0  0  0  0  0  0  0  0  0  0
   -5.5061   11.6142  -10.3440 H   0  0  0  0  0  0  0  0  0  0  0  0
   -7.0145   12.5602  -10.1068 H   0  0  0  0  0  0  0  0  0  0  0  0
   -8.7519   10.7911  -13.3751 H   0  0  0  0  0  0  0  0  0  0  0  0
   -7.2617    9.8401  -13.6938 H   0  0  0  0  0  0  0  0  0  0  0  0
   -6.8975   12.2468  -14.0866 H   0  0  0  0  0  0  0  0  0  0  0  0
   -8.0244    9.5937   -7.2566 H   0  0  0  0  0  0  0  0  0  0  0  0
   -6.7691   12.3178   -6.8996 H   0  0  0  0  0  0  0  0  0  0  0  0
   -2.6224    9.7184   -8.0524 H   0  0  0  0  0  0  0  0  0  0  0  0
   -4.8983    8.7963   -8.4866 H   0  0  0  0  0  0  0  0  0  0  0  0
   -4.6981   14.3596   -6.0088 H   0  0  0  0  0  0  0  0  0  0  0  0
   -0.3901   12.9695   -6.5854 H   0  0  0  0  0  0  0  0  0  0  0  0
   -0.7040   11.2129   -6.3795 H   0  0  0  0  0  0  0  0  0  0  0  0
   -0.6780   11.9339   -8.0245 H   0  0  0  0  0  0  0  0  0  0  0  0
   -4.0127   12.4865   -9.7901 H   0  0  0  0  0  0  0  0  0  0  0  0
   -3.9402   11.6243  -11.3642 H   0  0  0  0  0  0  0  0  0  0  0  0
   -2.1179   14.8274   -9.9186 H   0  0  0  0  0  0  0  0  0  0  0  0
   -1.3284   14.8371  -11.5320 H   0  0  0  0  0  0  0  0  0  0  0  0
   -3.3556   15.2013  -12.6480 H   0  0  0  0  0  0  0  0  0  0  0  0
   -3.9510   15.7504  -11.0446 H   0  0  0  0  0  0  0  0  0  0  0  0
  1  2  1  0  0  0  0
  1  4  2  0  0  0  0
  1 12  1  0  0  0  0
  2  6  1  0  0  0  0
  3  4  1  0  0  0  0
  3  5  1  0  0  0  0
  5  6  2  0  0  0  0
  5  9  1  0  0  0  0
  6  7  1  0  0  0  0
  7  8  1  0  0  0  0
  7 10  2  3  0  0  0
  8  9  2  0  0  0  0
 10 14  1  0  0  0  0
 11 12  1  0  0  0  0
 11 24  1  0  0  0  0
 11 27  1  0  0  0  0
 12 13  2  0  0  0  0
 14 15  2  0  0  0  0
 14 19  1  0  0  0  0
 15 16  1  0  0  0  0
 16 17  2  0  0  0  0
 16 20  1  0  0  0  0
 17 18  1  0  0  0  0
 17 22  1  0  0  0  0
 18 19  2  0  0  0  0
 20 21  2  0  0  0  0
 21 22  1  0  0  0  0
 22 23  1  0  0  0  0
 24 25  1  0  0  0  0
 25 26  1  0  0  0  0
 25 28  1  0  0  0  0
 25 29  1  0  0  0  0
 26 27  1  0  0  0  0
  2 30  1  0  0  0  0
  2 31  1  0  0  0  0
  3 32  1  0  0  0  0
  3 33  1  0  0  0  0
  4 34  1  0  0  0  0
 10 35  1  0  0  0  0
 15 36  1  0  0  0  0
 18 37  1  0  0  0  0
 19 38  1  0  0  0  0
 20 39  1  0  0  0  0
 23 40  1  0  0  0  0
 23 41  1  0  0  0  0
 23 42  1  0  0  0  0
 24 43  1  0  0  0  0
 24 44  1  0  0  0  0
 26 45  1  0  0  0  0
 26 46  1  0  0  0  0
 27 47  1  0  0  0  0
 27 48  1  0  0  0  0
M  END
> <Name>
43

> <IC50[uM]>
0.002

$$$$
43
  -OEChem-05192314333D
 Structure written by MMmdl.
 48 52  0     1  0  0  0  0  0999 V2000
   -6.3694   12.3608  -12.0100 C   0  0  0  0  0  0  0  0  0  0  0  0
   -6.5170   11.8053  -10.7333 C   0  0  0  0  0  0  0  0  0  0  0  0
   -7.7298   10.5799  -13.0278 C   0  0  0  0  0  0  0  0  0  0  0  0
   -6.9915   11.7687  -13.1228 C   0  0  0  0  0  0  0  0  0  0  0  0
   -7.8213   10.0100  -11.7550 C   0  0  3  0  0  0  0  0  0  0  0  0
   -7.2397   10.6196  -10.6003 C   0  0  0  0  0  0  0  0  0  0  0  0
   -7.6092    9.7471   -9.5124 C   0  0  0  0  0  0  0  0  0  0  0  0
   -8.2773    8.7308   -9.9855 N   0  0  0  0  0  0  0  0  0  0  0  0
   -8.4143    8.8607  -11.2979 N   0  0  0  0  0  0  0  0  0  0  0  0
   -7.3268    9.8907   -8.0257 C   0  0  0  0  0  0  0  0  0  0  0  0
   -4.3565   13.7183  -11.5055 N   0  0  0  0  0  0  0  0  0  0  0  0
   -5.5483   13.6363  -12.1897 C   0  0  0  0  0  0  0  0  0  0  0  0
   -5.9477   14.5322  -12.9368 O   0  0  0  0  0  0  0  0  0  0  0  0
   -5.9513   10.4999   -7.7281 C   0  0  0  0  0  0  0  0  0  0  0  0
   -5.8738   11.7695   -7.1531 C   0  0  0  0  0  0  0  0  0  0  0  0
   -4.6094   12.3134   -6.9136 C   0  0  0  0  0  0  0  0  0  0  0  0
   -3.4376   11.5622   -7.2444 C   0  0  0  0  0  0  0  0  0  0  0  0
   -3.5099   10.2841   -7.8101 C   0  0  0  0  0  0  0  0  0  0  0  0
   -4.7961    9.7769   -8.0457 C   0  0  0  0  0  0  0  0  0  0  0  0
   -4.0914   13.5427   -6.3707 C   0  0  0  0  0  0  0  0  0  0  0  0
   -2.7880   13.5314   -6.3772 N   0  0  0  0  0  0  0  0  0  0  0  0
   -2.3819   12.3721   -6.8788 N   0  0  0  0  0  0  0  0  0  0  0  0
   -0.9505   12.1058   -6.9728 C   0  0  0  0  0  0  0  0  0  0  0  0
   -3.7111   12.5665  -10.8449 C   0  0  0  0  0  0  0  0  0  0  0  0
   -2.2188   12.9372  -10.9792 C   0  0  0  0  0  0  0  0  0  0  0  0
   -2.1852   14.4611  -10.9536 C   0  0  0  0  0  0  0  0  0  0  0  0
   -3.5089   14.9092  -11.5986 C   0  0  0  0  0  0  0  0  0  0  0  0
   -1.7019   12.4742  -12.1199 F   0  0  0  0  0  0  0  0  0  0  0  0
   -1.4726   12.4435   -9.9943 F   0  0  0  0  0  0  0  0  0  0  0  0
   -6.0805   12.2847   -9.8696 H   0  0  0  0  0  0  0  0  0  0  0  0
   -8.2009   10.1304  -13.8894 H   0  0  0  0  0  0  0  0  0  0  0  0
   -6.8975   12.2468  -14.0866 H   0  0  0  0  0  0  0  0  0  0  0  0
   -6.8872    9.4574  -11.9345 H   0  0  0  0  0  0  0  0  0  0  0  0
   -8.0988   10.5380   -7.5841 H   0  0  0  0  0  0  0  0  0  0  0  0
   -7.3753    8.8940   -7.5628 H   0  0  0  0  0  0  0  0  0  0  0  0
   -6.7691   12.3178   -6.8996 H   0  0  0  0  0  0  0  0  0  0  0  0
   -2.6224    9.7184   -8.0524 H   0  0  0  0  0  0  0  0  0  0  0  0
   -4.8983    8.7963   -8.4866 H   0  0  0  0  0  0  0  0  0  0  0  0
   -4.6981   14.3596   -6.0088 H   0  0  0  0  0  0  0  0  0  0  0  0
   -0.3901   12.9695   -6.5854 H   0  0  0  0  0  0  0  0  0  0  0  0
   -0.7040   11.2129   -6.3795 H   0  0  0  0  0  0  0  0  0  0  0  0
   -0.6780   11.9339   -8.0245 H   0  0  0  0  0  0  0  0  0  0  0  0
   -4.0127   12.4865   -9.7901 H   0  0  0  0  0  0  0  0  0  0  0  0
   -3.9402   11.6243  -11.3642 H   0  0  0  0  0  0  0  0  0  0  0  0
   -2.1179   14.8274   -9.9186 H   0  0  0  0  0  0  0  0  0  0  0  0
   -1.3284   14.8371  -11.5320 H   0  0  0  0  0  0  0  0  0  0  0  0
   -3.3556   15.2013  -12.6480 H   0  0  0  0  0  0  0  0  0  0  0  0
   -3.9510   15.7504  -11.0446 H   0  0  0  0  0  0  0  0  0  0  0  0
  1  2  2  0  0  0  0
  1  4  1  0  0  0  0
  1 12  1  0  0  0  0
  2  6  1  0  0  0  0
  3  4  2  0  0  0  0
  3  5  1  0  0  0  0
  5  6  1  0  0  0  0
  5  9  1  0  0  0  0
  6  7  2  0  0  0  0
  7  8  1  0  0  0  0
  7 10  1  0  0  0  0
  8  9  2  0  0  0  0
 10 14  1  0  0  0  0
 11 12  1  0  0  0  0
 11 24  1  0  0  0  0
 11 27  1  0  0  0  0
 12 13  2  0  0  0  0
 14 15  2  0  0  0  0
 14 19  1  0  0  0  0
 15 16  1  0  0  0  0
 16 17  2  0  0  0  0
 16 20  1  0  0  0  0
 17 18  1  0  0  0  0
 17 22  1  0  0  0  0
 18 19  2  0  0  0  0
 20 21  2  0  0  0  0
 21 22  1  0  0  0  0
 22 23  1  0  0  0  0
 24 25  1  0  0  0  0
 25 26  1  0  0  0  0
 25 28  1  0  0  0  0
 25 29  1  0  0  0  0
 26 27  1  0  0  0  0
  2 30  1  0  0  0  0
  3 31  1  0  0  0  0
  4 32  1  0  0  0  0
  5 33  1  0  0  0  0
 10 34  1  0  0  0  0
 10 35  1  0  0  0  0
 15 36  1  0  0  0  0
 18 37  1  0  0  0  0
 19 38  1  0  0  0  0
 20 39  1  0  0  0  0
 23 40  1  0  0  0  0
 23 41  1  0  0  0  0
 23 42  1  0  0  0  0
 24 43  1  0  0  0  0
 24 44  1  0  0  0  0
 26 45  1  0  0  0  0
 26 46  1  0  0  0  0
 27 47  1  0  0  0  0
 27 48  1  0  0  0  0
M  END
> <Name>
43

> <IC50[uM]>
0.002

$$$$
43
  -OEChem-05192314333D
 Structure written by MMmdl.
 48 52  0     0  0  0  0  0  0999 V2000
   -6.3694   12.3608  -12.0100 C   0  0  0  0  0  0  0  0  0  0  0  0
   -6.5170   11.8053  -10.7333 C   0  0  0  0  0  0  0  0  0  0  0  0
   -7.7298   10.5799  -13.0278 C   0  0  0  0  0  0  0  0  0  0  0  0
   -6.9915   11.7687  -13.1228 C   0  0  0  0  0  0  0  0  0  0  0  0
   -7.8213   10.0100  -11.7550 C   0  0  0  0  0  0  0  0  0  0  0  0
   -7.2397   10.6196  -10.6003 C   0  0  0  0  0  0  0  0  0  0  0  0
   -7.6092    9.7471   -9.5124 C   0  0  0  0  0  0  0  0  0  0  0  0
   -8.2773    8.7308   -9.9855 N   0  0  0  0  0  0  0  0  0  0  0  0
   -8.4143    8.8607  -11.2979 N   0  0  0  0  0  0  0  0  0  0  0  0
   -7.3268    9.8907   -8.0257 C   0  0  0  0  0  0  0  0  0  0  0  0
   -4.3565   13.7183  -11.5055 N   0  0  0  0  0  0  0  0  0  0  0  0
   -5.5483   13.6363  -12.1897 C   0  0  0  0  0  0  0  0  0  0  0  0
   -5.9477   14.5322  -12.9368 O   0  0  0  0  0  0  0  0  0  0  0  0
   -5.9513   10.4999   -7.7281 C   0  0  0  0  0  0  0  0  0  0  0  0
   -5.8738   11.7695   -7.1531 C   0  0  0  0  0  0  0  0  0  0  0  0
   -4.6094   12.3134   -6.9136 C   0  0  0  0  0  0  0  0  0  0  0  0
   -3.4376   11.5622   -7.2444 C   0  0  0  0  0  0  0  0  0  0  0  0
   -3.5099   10.2841   -7.8101 C   0  0  0  0  0  0  0  0  0  0  0  0
   -4.7961    9.7769   -8.0457 C   0  0  0  0  0  0  0  0  0  0  0  0
   -4.0914   13.5427   -6.3707 C   0  0  0  0  0  0  0  0  0  0  0  0
   -2.7880   13.5314   -6.3772 N   0  0  0  0  0  0  0  0  0  0  0  0
   -2.3819   12.3721   -6.8788 N   0  0  0  0  0  0  0  0  0  0  0  0
   -0.9505   12.1058   -6.9728 C   0  0  0  0  0  0  0  0  0  0  0  0
   -3.7111   12.5665  -10.8449 C   0  0  0  0  0  0  0  0  0  0  0  0
   -2.2188   12.9372  -10.9792 C   0  0  0  0  0  0  0  0  0  0  0  0
   -2.1852   14.4611  -10.9536 C   0  0  0  0  0  0  0  0  0  0  0  0
   -3.5089   14.9092  -11.5986 C   0  0  0  0  0  0  0  0  0  0  0  0
   -1.7019   12.4742  -12.1199 F   0  0  0  0  0  0  0  0  0  0  0  0
   -1.4726   12.4435   -9.9943 F   0  0  0  0  0  0  0  0  0  0  0  0
   -6.0805   12.2847   -9.8696 H   0  0  0  0  0  0  0  0  0  0  0  0
   -8.2009   10.1304  -13.8894 H   0  0  0  0  0  0  0  0  0  0  0  0
   -7.6806   12.5252  -13.5263 H   0  0  0  0  0  0  0  0  0  0  0  0
   -6.1919   11.5745  -13.8528 H   0  0  0  0  0  0  0  0  0  0  0  0
   -8.0988   10.5380   -7.5841 H   0  0  0  0  0  0  0  0  0  0  0  0
   -7.3753    8.8940   -7.5628 H   0  0  0  0  0  0  0  0  0  0  0  0
   -6.7691   12.3178   -6.8996 H   0  0  0  0  0  0  0  0  0  0  0  0
   -2.6224    9.7184   -8.0524 H   0  0  0  0  0  0  0  0  0  0  0  0
   -4.8983    8.7963   -8.4866 H   0  0  0  0  0  0  0  0  0  0  0  0
   -4.6981   14.3596   -6.0088 H   0  0  0  0  0  0  0  0  0  0  0  0
   -0.3901   12.9695   -6.5854 H   0  0  0  0  0  0  0  0  0  0  0  0
   -0.7040   11.2129   -6.3795 H   0  0  0  0  0  0  0  0  0  0  0  0
   -0.6780   11.9339   -8.0245 H   0  0  0  0  0  0  0  0  0  0  0  0
   -4.0127   12.4865   -9.7901 H   0  0  0  0  0  0  0  0  0  0  0  0
   -3.9402   11.6243  -11.3642 H   0  0  0  0  0  0  0  0  0  0  0  0
   -2.1179   14.8274   -9.9186 H   0  0  0  0  0  0  0  0  0  0  0  0
   -1.3284   14.8371  -11.5320 H   0  0  0  0  0  0  0  0  0  0  0  0
   -3.3556   15.2013  -12.6480 H   0  0  0  0  0  0  0  0  0  0  0  0
   -3.9510   15.7504  -11.0446 H   0  0  0  0  0  0  0  0  0  0  0  0
  1  2  2  0  0  0  0
  1  4  1  0  0  0  0
  1 12  1  0  0  0  0
  2  6  1  0  0  0  0
  3  4  1  0  0  0  0
  3  5  2  0  0  0  0
  5  6  1  0  0  0  0
  5  9  1  0  0  0  0
  6  7  2  0  0  0  0
  7  8  1  0  0  0  0
  7 10  1  0  0  0  0
  8  9  2  0  0  0  0
 10 14  1  0  0  0  0
 11 12  1  0  0  0  0
 11 24  1  0  0  0  0
 11 27  1  0  0  0  0
 12 13  2  0  0  0  0
 14 15  2  0  0  0  0
 14 19  1  0  0  0  0
 15 16  1  0  0  0  0
 16 17  2  0  0  0  0
 16 20  1  0  0  0  0
 17 18  1  0  0  0  0
 17 22  1  0  0  0  0
 18 19  2  0  0  0  0
 20 21  2  0  0  0  0
 21 22  1  0  0  0  0
 22 23  1  0  0  0  0
 24 25  1  0  0  0  0
 25 26  1  0  0  0  0
 25 28  1  0  0  0  0
 25 29  1  0  0  0  0
 26 27  1  0  0  0  0
  2 30  1  0  0  0  0
  3 31  1  0  0  0  0
  4 32  1  0  0  0  0
  4 33  1  0  0  0  0
 10 34  1  0  0  0  0
 10 35  1  0  0  0  0
 15 36  1  0  0  0  0
 18 37  1  0  0  0  0
 19 38  1  0  0  0  0
 20 39  1  0  0  0  0
 23 40  1  0  0  0  0
 23 41  1  0  0  0  0
 23 42  1  0  0  0  0
 24 43  1  0  0  0  0
 24 44  1  0  0  0  0
 26 45  1  0  0  0  0
 26 46  1  0  0  0  0
 27 47  1  0  0  0  0
 27 48  1  0  0  0  0
M  END
> <Name>
43

> <IC50[uM]>
0.002

$$$$
43
  -OEChem-05192314333D
 Structure written by MMmdl.
 48 52  0     0  0  0  0  0  0999 V2000
   -6.3694   12.3608  -12.0100 C   0  0  0  0  0  0  0  0  0  0  0  0
   -6.5170   11.8053  -10.7333 C   0  0  0  0  0  0  0  0  0  0  0  0
   -7.7298   10.5799  -13.0278 C   0  0  0  0  0  0  0  0  0  0  0  0
   -6.9915   11.7687  -13.1228 C   0  0  0  0  0  0  0  0  0  0  0  0
   -7.8213   10.0100  -11.7550 C   0  0  0  0  0  0  0  0  0  0  0  0
   -7.2397   10.6196  -10.6003 C   0  0  0  0  0  0  0  0  0  0  0  0
   -7.6092    9.7471   -9.5124 C   0  0  0  0  0  0  0  0  0  0  0  0
   -8.2773    8.7308   -9.9855 N   0  0  0  0  0  0  0  0  0  0  0  0
   -8.4143    8.8607  -11.2979 N   0  0  0  0  0  0  0  0  0  0  0  0
   -7.3268    9.8907   -8.0257 C   0  0  0  0  0  0  0  0  0  0  0  0
   -4.3565   13.7183  -11.5055 N   0  0  0  0  0  0  0  0  0  0  0  0
   -5.5483   13.6363  -12.1897 C   0  0  0  0  0  0  0  0  0  0  0  0
   -5.9477   14.5322  -12.9368 O   0  0  0  0  0  0  0  0  0  0  0  0
   -5.9513   10.4999   -7.7281 C   0  0  0  0  0  0  0  0  0  0  0  0
   -5.8738   11.7695   -7.1531 C   0  0  0  0  0  0  0  0  0  0  0  0
   -4.6094   12.3134   -6.9136 C   0  0  0  0  0  0  0  0  0  0  0  0
   -3.4376   11.5622   -7.2444 C   0  0  0  0  0  0  0  0  0  0  0  0
   -3.5099   10.2841   -7.8101 C   0  0  0  0  0  0  0  0  0  0  0  0
   -4.7961    9.7769   -8.0457 C   0  0  0  0  0  0  0  0  0  0  0  0
   -4.0914   13.5427   -6.3707 C   0  0  0  0  0  0  0  0  0  0  0  0
   -2.7880   13.5314   -6.3772 N   0  0  0  0  0  0  0  0  0  0  0  0
   -2.3819   12.3721   -6.8788 N   0  0  0  0  0  0  0  0  0  0  0  0
   -0.9505   12.1058   -6.9728 C   0  0  0  0  0  0  0  0  0  0  0  0
   -3.7111   12.5665  -10.8449 C   0  0  0  0  0  0  0  0  0  0  0  0
   -2.2188   12.9372  -10.9792 C   0  0  0  0  0  0  0  0  0  0  0  0
   -2.1852   14.4611  -10.9536 C   0  0  0  0  0  0  0  0  0  0  0  0
   -3.5089   14.9092  -11.5986 C   0  0  0  0  0  0  0  0  0  0  0  0
   -1.7019   12.4742  -12.1199 F   0  0  0  0  0  0  0  0  0  0  0  0
   -1.4726   12.4435   -9.9943 F   0  0  0  0  0  0  0  0  0  0  0  0
   -5.5061   11.6142  -10.3440 H   0  0  0  0  0  0  0  0  0  0  0  0
   -7.0145   12.5602  -10.1068 H   0  0  0  0  0  0  0  0  0  0  0  0
   -8.2009   10.1304  -13.8894 H   0  0  0  0  0  0  0  0  0  0  0  0
   -6.8975   12.2468  -14.0866 H   0  0  0  0  0  0  0  0  0  0  0  0
   -8.0988   10.5380   -7.5841 H   0  0  0  0  0  0  0  0  0  0  0  0
   -7.3753    8.8940   -7.5628 H   0  0  0  0  0  0  0  0  0  0  0  0
   -6.7691   12.3178   -6.8996 H   0  0  0  0  0  0  0  0  0  0  0  0
   -2.6224    9.7184   -8.0524 H   0  0  0  0  0  0  0  0  0  0  0  0
   -4.8983    8.7963   -8.4866 H   0  0  0  0  0  0  0  0  0  0  0  0
   -4.6981   14.3596   -6.0088 H   0  0  0  0  0  0  0  0  0  0  0  0
   -0.3901   12.9695   -6.5854 H   0  0  0  0  0  0  0  0  0  0  0  0
   -0.7040   11.2129   -6.3795 H   0  0  0  0  0  0  0  0  0  0  0  0
   -0.6780   11.9339   -8.0245 H   0  0  0  0  0  0  0  0  0  0  0  0
   -4.0127   12.4865   -9.7901 H   0  0  0  0  0  0  0  0  0  0  0  0
   -3.9402   11.6243  -11.3642 H   0  0  0  0  0  0  0  0  0  0  0  0
   -2.1179   14.8274   -9.9186 H   0  0  0  0  0  0  0  0  0  0  0  0
   -1.3284   14.8371  -11.5320 H   0  0  0  0  0  0  0  0  0  0  0  0
   -3.3556   15.2013  -12.6480 H   0  0  0  0  0  0  0  0  0  0  0  0
   -3.9510   15.7504  -11.0446 H   0  0  0  0  0  0  0  0  0  0  0  0
  1  2  1  0  0  0  0
  1  4  2  0  0  0  0
  1 12  1  0  0  0  0
  2  6  1  0  0  0  0
  3  4  1  0  0  0  0
  3  5  2  0  0  0  0
  5  6  1  0  0  0  0
  5  9  1  0  0  0  0
  6  7  2  0  0  0  0
  7  8  1  0  0  0  0
  7 10  1  0  0  0  0
  8  9  2  0  0  0  0
 10 14  1  0  0  0  0
 11 12  1  0  0  0  0
 11 24  1  0  0  0  0
 11 27  1  0  0  0  0
 12 13  2  0  0  0  0
 14 15  2  0  0  0  0
 14 19  1  0  0  0  0
 15 16  1  0  0  0  0
 16 17  2  0  0  0  0
 16 20  1  0  0  0  0
 17 18  1  0  0  0  0
 17 22  1  0  0  0  0
 18 19  2  0  0  0  0
 20 21  2  0  0  0  0
 21 22  1  0  0  0  0
 22 23  1  0  0  0  0
 24 25  1  0  0  0  0
 25 26  1  0  0  0  0
 25 28  1  0  0  0  0
 25 29  1  0  0  0  0
 26 27  1  0  0  0  0
  2 30  1  0  0  0  0
  2 31  1  0  0  0  0
  3 32  1  0  0  0  0
  4 33  1  0  0  0  0
 10 34  1  0  0  0  0
 10 35  1  0  0  0  0
 15 36  1  0  0  0  0
 18 37  1  0  0  0  0
 19 38  1  0  0  0  0
 20 39  1  0  0  0  0
 23 40  1  0  0  0  0
 23 41  1  0  0  0  0
 23 42  1  0  0  0  0
 24 43  1  0  0  0  0
 24 44  1  0  0  0  0
 26 45  1  0  0  0  0
 26 46  1  0  0  0  0
 27 47  1  0  0  0  0
 27 48  1  0  0  0  0
M  END
> <Name>
43

> <IC50[uM]>
0.002

$$$$
43
  -OEChem-05192314333D
 Structure written by MMmdl.
 48 52  0     1  0  0  0  0  0999 V2000
   -6.3694   12.3608  -12.0100 C   0  0  0  0  0  0  0  0  0  0  0  0
   -6.5170   11.8053  -10.7333 C   0  0  0  0  0  0  0  0  0  0  0  0
   -7.7298   10.5799  -13.0278 C   0  0  0  0  0  0  0  0  0  0  0  0
   -6.9915   11.7687  -13.1228 C   0  0  0  0  0  0  0  0  0  0  0  0
   -7.8213   10.0100  -11.7550 C   0  0  0  0  0  0  0  0  0  0  0  0
   -7.2397   10.6196  -10.6003 C   0  0  3  0  0  0  0  0  0  0  0  0
   -7.6092    9.7471   -9.5124 C   0  0  0  0  0  0  0  0  0  0  0  0
   -8.2773    8.7308   -9.9855 N   0  0  0  0  0  0  0  0  0  0  0  0
   -8.4143    8.8607  -11.2979 N   0  0  0  0  0  0  0  0  0  0  0  0
   -7.3268    9.8907   -8.0257 C   0  0  0  0  0  0  0  0  0  0  0  0
   -4.3565   13.7183  -11.5055 N   0  0  0  0  0  0  0  0  0  0  0  0
   -5.5483   13.6363  -12.1897 C   0  0  0  0  0  0  0  0  0  0  0  0
   -5.9477   14.5322  -12.9368 O   0  0  0  0  0  0  0  0  0  0  0  0
   -5.9513   10.4999   -7.7281 C   0  0  0  0  0  0  0  0  0  0  0  0
   -5.8738   11.7695   -7.1531 C   0  0  0  0  0  0  0  0  0  0  0  0
   -4.6094   12.3134   -6.9136 C   0  0  0  0  0  0  0  0  0  0  0  0
   -3.4376   11.5622   -7.2444 C   0  0  0  0  0  0  0  0  0  0  0  0
   -3.5099   10.2841   -7.8101 C   0  0  0  0  0  0  0  0  0  0  0  0
   -4.7961    9.7769   -8.0457 C   0  0  0  0  0  0  0  0  0  0  0  0
   -4.0914   13.5427   -6.3707 C   0  0  0  0  0  0  0  0  0  0  0  0
   -2.7880   13.5314   -6.3772 N   0  0  0  0  0  0  0  0  0  0  0  0
   -2.3819   12.3721   -6.8788 N   0  0  0  0  0  0  0  0  0  0  0  0
   -0.9505   12.1058   -6.9728 C   0  0  0  0  0  0  0  0  0  0  0  0
   -3.7111   12.5665  -10.8449 C   0  0  0  0  0  0  0  0  0  0  0  0
   -2.2188   12.9372  -10.9792 C   0  0  0  0  0  0  0  0  0  0  0  0
   -2.1852   14.4611  -10.9536 C   0  0  0  0  0  0  0  0  0  0  0  0
   -3.5089   14.9092  -11.5986 C   0  0  0  0  0  0  0  0  0  0  0  0
   -1.7019   12.4742  -12.1199 F   0  0  0  0  0  0  0  0  0  0  0  0
   -1.4726   12.4435   -9.9943 F   0  0  0  0  0  0  0  0  0  0  0  0
   -6.0805   12.2847   -9.8696 H   0  0  0  0  0  0  0  0  0  0  0  0
   -8.2009   10.1304  -13.8894 H   0  0  0  0  0  0  0  0  0  0  0  0
   -6.8975   12.2468  -14.0866 H   0  0  0  0  0  0  0  0  0  0  0  0
   -6.3186   10.0387  -10.7555 H   0  0  0  0  0  0  0  0  0  0  0  0
   -8.6317    7.9703   -9.4414 H   0  0  0  0  0  0  0  0  0  0  0  0
   -8.0244    9.5937   -7.2566 H   0  0  0  0  0  0  0  0  0  0  0  0
   -6.7691   12.3178   -6.8996 H   0  0  0  0  0  0  0  0  0  0  0  0
   -2.6224    9.7184   -8.0524 H   0  0  0  0  0  0  0  0  0  0  0  0
   -4.8983    8.7963   -8.4866 H   0  0  0  0  0  0  0  0  0  0  0  0
   -4.6981   14.3596   -6.0088 H   0  0  0  0  0  0  0  0  0  0  0  0
   -0.3901   12.9695   -6.5854 H   0  0  0  0  0  0  0  0  0  0  0  0
   -0.7040   11.2129   -6.3795 H   0  0  0  0  0  0  0  0  0  0  0  0
   -0.6780   11.9339   -8.0245 H   0  0  0  0  0  0  0  0  0  0  0  0
   -4.0127   12.4865   -9.7901 H   0  0  0  0  0  0  0  0  0  0  0  0
   -3.9402   11.6243  -11.3642 H   0  0  0  0  0  0  0  0  0  0  0  0
   -2.1179   14.8274   -9.9186 H   0  0  0  0  0  0  0  0  0  0  0  0
   -1.3284   14.8371  -11.5320 H   0  0  0  0  0  0  0  0  0  0  0  0
   -3.3556   15.2013  -12.6480 H   0  0  0  0  0  0  0  0  0  0  0  0
   -3.9510   15.7504  -11.0446 H   0  0  0  0  0  0  0  0  0  0  0  0
  1  2  2  0  0  0  0
  1  4  1  0  0  0  0
  1 12  1  0  0  0  0
  2  6  1  0  0  0  0
  3  4  2  0  0  0  0
  3  5  1  0  0  0  0
  5  6  1  0  0  0  0
  5  9  2  0  0  0  0
  6  7  1  0  0  0  0
  7  8  1  0  0  0  0
  7 10  2  3  0  0  0
  8  9  1  0  0  0  0
 10 14  1  0  0  0  0
 11 12  1  0  0  0  0
 11 24  1  0  0  0  0
 11 27  1  0  0  0  0
 12 13  2  0  0  0  0
 14 15  2  0  0  0  0
 14 19  1  0  0  0  0
 15 16  1  0  0  0  0
 16 17  2  0  0  0  0
 16 20  1  0  0  0  0
 17 18  1  0  0  0  0
 17 22  1  0  0  0  0
 18 19  2  0  0  0  0
 20 21  2  0  0  0  0
 21 22  1  0  0  0  0
 22 23  1  0  0  0  0
 24 25  1  0  0  0  0
 25 26  1  0  0  0  0
 25 28  1  0  0  0  0
 25 29  1  0  0  0  0
 26 27  1  0  0  0  0
  2 30  1  0  0  0  0
  3 31  1  0  0  0  0
  4 32  1  0  0  0  0
  6 33  1  0  0  0  0
  8 34  1  0  0  0  0
 10 35  1  0  0  0  0
 15 36  1  0  0  0  0
 18 37  1  0  0  0  0
 19 38  1  0  0  0  0
 20 39  1  0  0  0  0
 23 40  1  0  0  0  0
 23 41  1  0  0  0  0
 23 42  1  0  0  0  0
 24 43  1  0  0  0  0
 24 44  1  0  0  0  0
 26 45  1  0  0  0  0
 26 46  1  0  0  0  0
 27 47  1  0  0  0  0
 27 48  1  0  0  0  0
M  END
> <Name>
43

> <IC50[uM]>
0.002

$$$$
43
  -OEChem-05192314333D
 Structure written by MMmdl.
 48 52  0     1  0  0  0  0  0999 V2000
   -6.3694   12.3608  -12.0100 C   0  0  0  0  0  0  0  0  0  0  0  0
   -6.5170   11.8053  -10.7333 C   0  0  0  0  0  0  0  0  0  0  0  0
   -7.7298   10.5799  -13.0278 C   0  0  0  0  0  0  0  0  0  0  0  0
   -6.9915   11.7687  -13.1228 C   0  0  0  0  0  0  0  0  0  0  0  0
   -7.8213   10.0100  -11.7550 C   0  0  0  0  0  0  0  0  0  0  0  0
   -7.2397   10.6196  -10.6003 C   0  0  0  0  0  0  0  0  0  0  0  0
   -7.6092    9.7471   -9.5124 C   0  0  0  0  0  0  0  0  0  0  0  0
   -8.2773    8.7308   -9.9855 N   0  0  0  0  0  0  0  0  0  0  0  0
   -8.4143    8.8607  -11.2979 N   0  0  0  0  0  0  0  0  0  0  0  0
   -7.3268    9.8907   -8.0257 C   0  0  0  0  0  0  0  0  0  0  0  0
   -4.3565   13.7183  -11.5055 N   0  0  0  0  0  0  0  0  0  0  0  0
   -5.5483   13.6363  -12.1897 C   0  0  0  0  0  0  0  0  0  0  0  0
   -5.9477   14.5322  -12.9368 O   0  0  0  0  0  0  0  0  0  0  0  0
   -5.9513   10.4999   -7.7281 C   0  0  0  0  0  0  0  0  0  0  0  0
   -5.8738   11.7695   -7.1531 C   0  0  0  0  0  0  0  0  0  0  0  0
   -4.6094   12.3134   -6.9136 C   0  0  0  0  0  0  0  0  0  0  0  0
   -3.4376   11.5622   -7.2444 C   0  0  3  0  0  0  0  0  0  0  0  0
   -3.5099   10.2841   -7.8101 C   0  0  0  0  0  0  0  0  0  0  0  0
   -4.7961    9.7769   -8.0457 C   0  0  0  0  0  0  0  0  0  0  0  0
   -4.0914   13.5427   -6.3707 C   0  0  0  0  0  0  0  0  0  0  0  0
   -2.7880   13.5314   -6.3772 N   0  0  0  0  0  0  0  0  0  0  0  0
   -2.3819   12.3721   -6.8788 N   0  0  3  0  0  0  0  0  0  0  0  0
   -0.9505   12.1058   -6.9728 C   0  0  0  0  0  0  0  0  0  0  0  0
   -3.7111   12.5665  -10.8449 C   0  0  0  0  0  0  0  0  0  0  0  0
   -2.2188   12.9372  -10.9792 C   0  0  0  0  0  0  0  0  0  0  0  0
   -2.1852   14.4611  -10.9536 C   0  0  0  0  0  0  0  0  0  0  0  0
   -3.5089   14.9092  -11.5986 C   0  0  0  0  0  0  0  0  0  0  0  0
   -1.7019   12.4742  -12.1199 F   0  0  0  0  0  0  0  0  0  0  0  0
   -1.4726   12.4435   -9.9943 F   0  0  0  0  0  0  0  0  0  0  0  0
   -6.0805   12.2847   -9.8696 H   0  0  0  0  0  0  0  0  0  0  0  0
   -8.2009   10.1304  -13.8894 H   0  0  0  0  0  0  0  0  0  0  0  0
   -6.8975   12.2468  -14.0866 H   0  0  0  0  0  0  0  0  0  0  0  0
   -8.6317    7.9703   -9.4414 H   0  0  0  0  0  0  0  0  0  0  0  0
   -8.0244    9.5937   -7.2566 H   0  0  0  0  0  0  0  0  0  0  0  0
   -6.7691   12.3178   -6.8996 H   0  0  0  0  0  0  0  0  0  0  0  0
   -3.4337   12.0085   -8.2498 H   0  0  0  0  0  0  0  0  0  0  0  0
   -2.6224    9.7184   -8.0524 H   0  0  0  0  0  0  0  0  0  0  0  0
   -4.8983    8.7963   -8.4866 H   0  0  0  0  0  0  0  0  0  0  0  0
   -4.6981   14.3596   -6.0088 H   0  0  0  0  0  0  0  0  0  0  0  0
   -0.3901   12.9695   -6.5854 H   0  0  0  0  0  0  0  0  0  0  0  0
   -0.7040   11.2129   -6.3795 H   0  0  0  0  0  0  0  0  0  0  0  0
   -0.6780   11.9339   -8.0245 H   0  0  0  0  0  0  0  0  0  0  0  0
   -4.0127   12.4865   -9.7901 H   0  0  0  0  0  0  0  0  0  0  0  0
   -3.9402   11.6243  -11.3642 H   0  0  0  0  0  0  0  0  0  0  0  0
   -2.1179   14.8274   -9.9186 H   0  0  0  0  0  0  0  0  0  0  0  0
   -1.3284   14.8371  -11.5320 H   0  0  0  0  0  0  0  0  0  0  0  0
   -3.3556   15.2013  -12.6480 H   0  0  0  0  0  0  0  0  0  0  0  0
   -3.9510   15.7504  -11.0446 H   0  0  0  0  0  0  0  0  0  0  0  0
  1  2  2  0  0  0  0
  1  4  1  0  0  0  0
  1 12  1  0  0  0  0
  2  6  1  0  0  0  0
  3  4  2  0  0  0  0
  3  5  1  0  0  0  0
  5  6  1  0  0  0  0
  5  9  2  0  0  0  0
  6  7  2  0  0  0  0
  7  8  1  0  0  0  0
  7 10  1  0  0  0  0
  8  9  1  0  0  0  0
 10 14  2  3  0  0  0
 11 12  1  0  0  0  0
 11 24  1  0  0  0  0
 11 27  1  0  0  0  0
 12 13  2  0  0  0  0
 14 15  1  0  0  0  0
 14 19  1  0  0  0  0
 15 16  2  0  0  0  0
 16 17  1  0  0  0  0
 16 20  1  0  0  0  0
 17 18  1  0  0  0  0
 17 22  1  0  0  0  0
 18 19  2  0  0  0  0
 20 21  2  0  0  0  0
 21 22  1  0  0  0  0
 22 23  1  0  0  0  0
 24 25  1  0  0  0  0
 25 26  1  0  0  0  0
 25 28  1  0  0  0  0
 25 29  1  0  0  0  0
 26 27  1  0  0  0  0
  2 30  1  0  0  0  0
  3 31  1  0  0  0  0
  4 32  1  0  0  0  0
  8 33  1  0  0  0  0
 10 34  1  0  0  0  0
 15 35  1  0  0  0  0
 17 36  1  0  0  0  0
 18 37  1  0  0  0  0
 19 38  1  0  0  0  0
 20 39  1  0  0  0  0
 23 40  1  0  0  0  0
 23 41  1  0  0  0  0
 23 42  1  0  0  0  0
 24 43  1  0  0  0  0
 24 44  1  0  0  0  0
 26 45  1  0  0  0  0
 26 46  1  0  0  0  0
 27 47  1  0  0  0  0
 27 48  1  0  0  0  0
M  END
> <Name>
43

> <IC50[uM]>
0.002

$$$$
43
  -OEChem-05192314333D
 Structure written by MMmdl.
 48 52  0     1  0  0  0  0  0999 V2000
   -6.3694   12.3608  -12.0100 C   0  0  0  0  0  0  0  0  0  0  0  0
   -6.5170   11.8053  -10.7333 C   0  0  0  0  0  0  0  0  0  0  0  0
   -7.7298   10.5799  -13.0278 C   0  0  0  0  0  0  0  0  0  0  0  0
   -6.9915   11.7687  -13.1228 C   0  0  0  0  0  0  0  0  0  0  0  0
   -7.8213   10.0100  -11.7550 C   0  0  0  0  0  0  0  0  0  0  0  0
   -7.2397   10.6196  -10.6003 C   0  0  0  0  0  0  0  0  0  0  0  0
   -7.6092    9.7471   -9.5124 C   0  0  0  0  0  0  0  0  0  0  0  0
   -8.2773    8.7308   -9.9855 N   0  0  0  0  0  0  0  0  0  0  0  0
   -8.4143    8.8607  -11.2979 N   0  0  0  0  0  0  0  0  0  0  0  0
   -7.3268    9.8907   -8.0257 C   0  0  0  0  0  0  0  0  0  0  0  0
   -4.3565   13.7183  -11.5055 N   0  0  0  0  0  0  0  0  0  0  0  0
   -5.5483   13.6363  -12.1897 C   0  0  0  0  0  0  0  0  0  0  0  0
   -5.9477   14.5322  -12.9368 O   0  0  0  0  0  0  0  0  0  0  0  0
   -5.9513   10.4999   -7.7281 C   0  0  0  0  0  0  0  0  0  0  0  0
   -5.8738   11.7695   -7.1531 C   0  0  0  0  0  0  0  0  0  0  0  0
   -4.6094   12.3134   -6.9136 C   0  0  0  0  0  0  0  0  0  0  0  0
   -3.4376   11.5622   -7.2444 C   0  0  3  0  0  0  0  0  0  0  0  0
   -3.5099   10.2841   -7.8101 C   0  0  0  0  0  0  0  0  0  0  0  0
   -4.7961    9.7769   -8.0457 C   0  0  0  0  0  0  0  0  0  0  0  0
   -4.0914   13.5427   -6.3707 C   0  0  0  0  0  0  0  0  0  0  0  0
   -2.7880   13.5314   -6.3772 N   0  0  0  0  0  0  0  0  0  0  0  0
   -2.3819   12.3721   -6.8788 N   0  0  3  0  0  0  0  0  0  0  0  0
   -0.9505   12.1058   -6.9728 C   0  0  0  0  0  0  0  0  0  0  0  0
   -3.7111   12.5665  -10.8449 C   0  0  0  0  0  0  0  0  0  0  0  0
   -2.2188   12.9372  -10.9792 C   0  0  0  0  0  0  0  0  0  0  0  0
   -2.1852   14.4611  -10.9536 C   0  0  0  0  0  0  0  0  0  0  0  0
   -3.5089   14.9092  -11.5986 C   0  0  0  0  0  0  0  0  0  0  0  0
   -1.7019   12.4742  -12.1199 F   0  0  0  0  0  0  0  0  0  0  0  0
   -1.4726   12.4435   -9.9943 F   0  0  0  0  0  0  0  0  0  0  0  0
   -6.0805   12.2847   -9.8696 H   0  0  0  0  0  0  0  0  0  0  0  0
   -8.2009   10.1304  -13.8894 H   0  0  0  0  0  0  0  0  0  0  0  0
   -6.8975   12.2468  -14.0866 H   0  0  0  0  0  0  0  0  0  0  0  0
   -8.8905    8.2030  -11.8816 H   0  0  0  0  0  0  0  0  0  0  0  0
   -8.0244    9.5937   -7.2566 H   0  0  0  0  0  0  0  0  0  0  0  0
   -6.7691   12.3178   -6.8996 H   0  0  0  0  0  0  0  0  0  0  0  0
   -3.4337   12.0085   -8.2498 H   0  0  0  0  0  0  0  0  0  0  0  0
   -2.6224    9.7184   -8.0524 H   0  0  0  0  0  0  0  0  0  0  0  0
   -4.8983    8.7963   -8.4866 H   0  0  0  0  0  0  0  0  0  0  0  0
   -4.6981   14.3596   -6.0088 H   0  0  0  0  0  0  0  0  0  0  0  0
   -0.3901   12.9695   -6.5854 H   0  0  0  0  0  0  0  0  0  0  0  0
   -0.7040   11.2129   -6.3795 H   0  0  0  0  0  0  0  0  0  0  0  0
   -0.6780   11.9339   -8.0245 H   0  0  0  0  0  0  0  0  0  0  0  0
   -4.0127   12.4865   -9.7901 H   0  0  0  0  0  0  0  0  0  0  0  0
   -3.9402   11.6243  -11.3642 H   0  0  0  0  0  0  0  0  0  0  0  0
   -2.1179   14.8274   -9.9186 H   0  0  0  0  0  0  0  0  0  0  0  0
   -1.3284   14.8371  -11.5320 H   0  0  0  0  0  0  0  0  0  0  0  0
   -3.3556   15.2013  -12.6480 H   0  0  0  0  0  0  0  0  0  0  0  0
   -3.9510   15.7504  -11.0446 H   0  0  0  0  0  0  0  0  0  0  0  0
  1  2  2  0  0  0  0
  1  4  1  0  0  0  0
  1 12  1  0  0  0  0
  2  6  1  0  0  0  0
  3  4  2  0  0  0  0
  3  5  1  0  0  0  0
  5  6  2  0  0  0  0
  5  9  1  0  0  0  0
  6  7  1  0  0  0  0
  7  8  2  0  0  0  0
  7 10  1  0  0  0  0
  8  9  1  0  0  0  0
 10 14  2  3  0  0  0
 11 12  1  0  0  0  0
 11 24  1  0  0  0  0
 11 27  1  0  0  0  0
 12 13  2  0  0  0  0
 14 15  1  0  0  0  0
 14 19  1  0  0  0  0
 15 16  2  0  0  0  0
 16 17  1  0  0  0  0
 16 20  1  0  0  0  0
 17 18  1  0  0  0  0
 17 22  1  0  0  0  0
 18 19  2  0  0  0  0
 20 21  2  0  0  0  0
 21 22  1  0  0  0  0
 22 23  1  0  0  0  0
 24 25  1  0  0  0  0
 25 26  1  0  0  0  0
 25 28  1  0  0  0  0
 25 29  1  0  0  0  0
 26 27  1  0  0  0  0
  2 30  1  0  0  0  0
  3 31  1  0  0  0  0
  4 32  1  0  0  0  0
  9 33  1  0  0  0  0
 10 34  1  0  0  0  0
 15 35  1  0  0  0  0
 17 36  1  0  0  0  0
 18 37  1  0  0  0  0
 19 38  1  0  0  0  0
 20 39  1  0  0  0  0
 23 40  1  0  0  0  0
 23 41  1  0  0  0  0
 23 42  1  0  0  0  0
 24 43  1  0  0  0  0
 24 44  1  0  0  0  0
 26 45  1  0  0  0  0
 26 46  1  0  0  0  0
 27 47  1  0  0  0  0
 27 48  1  0  0  0  0
M  END
> <Name>
43

> <IC50[uM]>
0.002

$$$$
43
  -OEChem-05192314333D
 Structure written by MMmdl.
 48 52  0     1  0  0  0  0  0999 V2000
   -6.3694   12.3608  -12.0100 C   0  0  0  0  0  0  0  0  0  0  0  0
   -6.5170   11.8053  -10.7333 C   0  0  0  0  0  0  0  0  0  0  0  0
   -7.7298   10.5799  -13.0278 C   0  0  0  0  0  0  0  0  0  0  0  0
   -6.9915   11.7687  -13.1228 C   0  0  0  0  0  0  0  0  0  0  0  0
   -7.8213   10.0100  -11.7550 C   0  0  0  0  0  0  0  0  0  0  0  0
   -7.2397   10.6196  -10.6003 C   0  0  0  0  0  0  0  0  0  0  0  0
   -7.6092    9.7471   -9.5124 C   0  0  0  0  0  0  0  0  0  0  0  0
   -8.2773    8.7308   -9.9855 N   0  0  0  0  0  0  0  0  0  0  0  0
   -8.4143    8.8607  -11.2979 N   0  0  0  0  0  0  0  0  0  0  0  0
   -7.3268    9.8907   -8.0257 C   0  0  0  0  0  0  0  0  0  0  0  0
   -4.3565   13.7183  -11.5055 N   0  0  0  0  0  0  0  0  0  0  0  0
   -5.5483   13.6363  -12.1897 C   0  0  0  0  0  0  0  0  0  0  0  0
   -5.9477   14.5322  -12.9368 O   0  0  0  0  0  0  0  0  0  0  0  0
   -5.9513   10.4999   -7.7281 C   0  0  3  0  0  0  0  0  0  0  0  0
   -5.8738   11.7695   -7.1531 C   0  0  0  0  0  0  0  0  0  0  0  0
   -4.6094   12.3134   -6.9136 C   0  0  0  0  0  0  0  0  0  0  0  0
   -3.4376   11.5622   -7.2444 C   0  0  3  0  0  0  0  0  0  0  0  0
   -3.5099   10.2841   -7.8101 C   0  0  0  0  0  0  0  0  0  0  0  0
   -4.7961    9.7769   -8.0457 C   0  0  0  0  0  0  0  0  0  0  0  0
   -4.0914   13.5427   -6.3707 C   0  0  0  0  0  0  0  0  0  0  0  0
   -2.7880   13.5314   -6.3772 N   0  0  0  0  0  0  0  0  0  0  0  0
   -2.3819   12.3721   -6.8788 N   0  0  3  0  0  0  0  0  0  0  0  0
   -0.9505   12.1058   -6.9728 C   0  0  0  0  0  0  0  0  0  0  0  0
   -3.7111   12.5665  -10.8449 C   0  0  0  0  0  0  0  0  0  0  0  0
   -2.2188   12.9372  -10.9792 C   0  0  0  0  0  0  0  0  0  0  0  0
   -2.1852   14.4611  -10.9536 C   0  0  0  0  0  0  0  0  0  0  0  0
   -3.5089   14.9092  -11.5986 C   0  0  0  0  0  0  0  0  0  0  0  0
   -1.7019   12.4742  -12.1199 F   0  0  0  0  0  0  0  0  0  0  0  0
   -1.4726   12.4435   -9.9943 F   0  0  0  0  0  0  0  0  0  0  0  0
   -6.0805   12.2847   -9.8696 H   0  0  0  0  0  0  0  0  0  0  0  0
   -8.2009   10.1304  -13.8894 H   0  0  0  0  0  0  0  0  0  0  0  0
   -6.8975   12.2468  -14.0866 H   0  0  0  0  0  0  0  0  0  0  0  0
   -8.0244    9.5937   -7.2566 H   0  0  0  0  0  0  0  0  0  0  0  0
   -5.9639   10.0446   -6.7268 H   0  0  0  0  0  0  0  0  0  0  0  0
   -6.7691   12.3178   -6.8996 H   0  0  0  0  0  0  0  0  0  0  0  0
   -3.4337   12.0085   -8.2498 H   0  0  0  0  0  0  0  0  0  0  0  0
   -2.6224    9.7184   -8.0524 H   0  0  0  0  0  0  0  0  0  0  0  0
   -4.8983    8.7963   -8.4866 H   0  0  0  0  0  0  0  0  0  0  0  0
   -4.6981   14.3596   -6.0088 H   0  0  0  0  0  0  0  0  0  0  0  0
   -0.3901   12.9695   -6.5854 H   0  0  0  0  0  0  0  0  0  0  0  0
   -0.7040   11.2129   -6.3795 H   0  0  0  0  0  0  0  0  0  0  0  0
   -0.6780   11.9339   -8.0245 H   0  0  0  0  0  0  0  0  0  0  0  0
   -4.0127   12.4865   -9.7901 H   0  0  0  0  0  0  0  0  0  0  0  0
   -3.9402   11.6243  -11.3642 H   0  0  0  0  0  0  0  0  0  0  0  0
   -2.1179   14.8274   -9.9186 H   0  0  0  0  0  0  0  0  0  0  0  0
   -1.3284   14.8371  -11.5320 H   0  0  0  0  0  0  0  0  0  0  0  0
   -3.3556   15.2013  -12.6480 H   0  0  0  0  0  0  0  0  0  0  0  0
   -3.9510   15.7504  -11.0446 H   0  0  0  0  0  0  0  0  0  0  0  0
  1  2  2  0  0  0  0
  1  4  1  0  0  0  0
  1 12  1  0  0  0  0
  2  6  1  0  0  0  0
  3  4  2  0  0  0  0
  3  5  1  0  0  0  0
  5  6  2  0  0  0  0
  5  9  1  0  0  0  0
  6  7  1  0  0  0  0
  7  8  1  0  0  0  0
  7 10  2  3  0  0  0
  8  9  2  0  0  0  0
 10 14  1  0  0  0  0
 11 12  1  0  0  0  0
 11 24  1  0  0  0  0
 11 27  1  0  0  0  0
 12 13  2  0  0  0  0
 14 15  1  0  0  0  0
 14 19  1  0  0  0  0
 15 16  2  0  0  0  0
 16 17  1  0  0  0  0
 16 20  1  0  0  0  0
 17 18  1  0  0  0  0
 17 22  1  0  0  0  0
 18 19  2  0  0  0  0
 20 21  2  0  0  0  0
 21 22  1  0  0  0  0
 22 23  1  0  0  0  0
 24 25  1  0  0  0  0
 25 26  1  0  0  0  0
 25 28  1  0  0  0  0
 25 29  1  0  0  0  0
 26 27  1  0  0  0  0
  2 30  1  0  0  0  0
  3 31  1  0  0  0  0
  4 32  1  0  0  0  0
 10 33  1  0  0  0  0
 14 34  1  0  0  0  0
 15 35  1  0  0  0  0
 17 36  1  0  0  0  0
 18 37  1  0  0  0  0
 19 38  1  0  0  0  0
 20 39  1  0  0  0  0
 23 40  1  0  0  0  0
 23 41  1  0  0  0  0
 23 42  1  0  0  0  0
 24 43  1  0  0  0  0
 24 44  1  0  0  0  0
 26 45  1  0  0  0  0
 26 46  1  0  0  0  0
 27 47  1  0  0  0  0
 27 48  1  0  0  0  0
M  END
> <Name>
43

> <IC50[uM]>
0.002

$$$$
43
  -OEChem-05192314333D
 Structure written by MMmdl.
 48 52  0     1  0  0  0  0  0999 V2000
   -6.3694   12.3608  -12.0100 C   0  0  0  0  0  0  0  0  0  0  0  0
   -6.5170   11.8053  -10.7333 C   0  0  0  0  0  0  0  0  0  0  0  0
   -7.7298   10.5799  -13.0278 C   0  0  0  0  0  0  0  0  0  0  0  0
   -6.9915   11.7687  -13.1228 C   0  0  0  0  0  0  0  0  0  0  0  0
   -7.8213   10.0100  -11.7550 C   0  0  0  0  0  0  0  0  0  0  0  0
   -7.2397   10.6196  -10.6003 C   0  0  0  0  0  0  0  0  0  0  0  0
   -7.6092    9.7471   -9.5124 C   0  0  0  0  0  0  0  0  0  0  0  0
   -8.2773    8.7308   -9.9855 N   0  0  0  0  0  0  0  0  0  0  0  0
   -8.4143    8.8607  -11.2979 N   0  0  0  0  0  0  0  0  0  0  0  0
   -7.3268    9.8907   -8.0257 C   0  0  0  0  0  0  0  0  0  0  0  0
   -4.3565   13.7183  -11.5055 N   0  0  0  0  0  0  0  0  0  0  0  0
   -5.5483   13.6363  -12.1897 C   0  0  0  0  0  0  0  0  0  0  0  0
   -5.9477   14.5322  -12.9368 O   0  0  0  0  0  0  0  0  0  0  0  0
   -5.9513   10.4999   -7.7281 C   0  0  0  0  0  0  0  0  0  0  0  0
   -5.8738   11.7695   -7.1531 C   0  0  0  0  0  0  0  0  0  0  0  0
   -4.6094   12.3134   -6.9136 C   0  0  3  0  0  0  0  0  0  0  0  0
   -3.4376   11.5622   -7.2444 C   0  0  3  0  0  0  0  0  0  0  0  0
   -3.5099   10.2841   -7.8101 C   0  0  0  0  0  0  0  0  0  0  0  0
   -4.7961    9.7769   -8.0457 C   0  0  0  0  0  0  0  0  0  0  0  0
   -4.0914   13.5427   -6.3707 C   0  0  0  0  0  0  0  0  0  0  0  0
   -2.7880   13.5314   -6.3772 N   0  0  0  0  0  0  0  0  0  0  0  0
   -2.3819   12.3721   -6.8788 N   0  0  3  0  0  0  0  0  0  0  0  0
   -0.9505   12.1058   -6.9728 C   0  0  0  0  0  0  0  0  0  0  0  0
   -3.7111   12.5665  -10.8449 C   0  0  0  0  0  0  0  0  0  0  0  0
   -2.2188   12.9372  -10.9792 C   0  0  0  0  0  0  0  0  0  0  0  0
   -2.1852   14.4611  -10.9536 C   0  0  0  0  0  0  0  0  0  0  0  0
   -3.5089   14.9092  -11.5986 C   0  0  0  0  0  0  0  0  0  0  0  0
   -1.7019   12.4742  -12.1199 F   0  0  0  0  0  0  0  0  0  0  0  0
   -1.4726   12.4435   -9.9943 F   0  0  0  0  0  0  0  0  0  0  0  0
   -6.0805   12.2847   -9.8696 H   0  0  0  0  0  0  0  0  0  0  0  0
   -8.2009   10.1304  -13.8894 H   0  0  0  0  0  0  0  0  0  0  0  0
   -6.8975   12.2468  -14.0866 H   0  0  0  0  0  0  0  0  0  0  0  0
   -8.0244    9.5937   -7.2566 H   0  0  0  0  0  0  0  0  0  0  0  0
   -6.7691   12.3178   -6.8996 H   0  0  0  0  0  0  0  0  0  0  0  0
   -4.6093   12.7574   -7.9200 H   0  0  0  0  0  0  0  0  0  0  0  0
   -3.4337   12.0085   -8.2498 H   0  0  0  0  0  0  0  0  0  0  0  0
   -2.6224    9.7184   -8.0524 H   0  0  0  0  0  0  0  0  0  0  0  0
   -4.8983    8.7963   -8.4866 H   0  0  0  0  0  0  0  0  0  0  0  0
   -4.6981   14.3596   -6.0088 H   0  0  0  0  0  0  0  0  0  0  0  0
   -0.3901   12.9695   -6.5854 H   0  0  0  0  0  0  0  0  0  0  0  0
   -0.7040   11.2129   -6.3795 H   0  0  0  0  0  0  0  0  0  0  0  0
   -0.6780   11.9339   -8.0245 H   0  0  0  0  0  0  0  0  0  0  0  0
   -4.0127   12.4865   -9.7901 H   0  0  0  0  0  0  0  0  0  0  0  0
   -3.9402   11.6243  -11.3642 H   0  0  0  0  0  0  0  0  0  0  0  0
   -2.1179   14.8274   -9.9186 H   0  0  0  0  0  0  0  0  0  0  0  0
   -1.3284   14.8371  -11.5320 H   0  0  0  0  0  0  0  0  0  0  0  0
   -3.3556   15.2013  -12.6480 H   0  0  0  0  0  0  0  0  0  0  0  0
   -3.9510   15.7504  -11.0446 H   0  0  0  0  0  0  0  0  0  0  0  0
  1  2  2  0  0  0  0
  1  4  1  0  0  0  0
  1 12  1  0  0  0  0
  2  6  1  0  0  0  0
  3  4  2  0  0  0  0
  3  5  1  0  0  0  0
  5  6  2  0  0  0  0
  5  9  1  0  0  0  0
  6  7  1  0  0  0  0
  7  8  1  0  0  0  0
  7 10  2  3  0  0  0
  8  9  2  0  0  0  0
 10 14  1  0  0  0  0
 11 12  1  0  0  0  0
 11 24  1  0  0  0  0
 11 27  1  0  0  0  0
 12 13  2  0  0  0  0
 14 15  2  0  0  0  0
 14 19  1  0  0  0  0
 15 16  1  0  0  0  0
 16 17  1  0  0  0  0
 16 20  1  0  0  0  0
 17 18  1  0  0  0  0
 17 22  1  0  0  0  0
 18 19  2  0  0  0  0
 20 21  2  0  0  0  0
 21 22  1  0  0  0  0
 22 23  1  0  0  0  0
 24 25  1  0  0  0  0
 25 26  1  0  0  0  0
 25 28  1  0  0  0  0
 25 29  1  0  0  0  0
 26 27  1  0  0  0  0
  2 30  1  0  0  0  0
  3 31  1  0  0  0  0
  4 32  1  0  0  0  0
 10 33  1  0  0  0  0
 15 34  1  0  0  0  0
 16 35  1  0  0  0  0
 17 36  1  0  0  0  0
 18 37  1  0  0  0  0
 19 38  1  0  0  0  0
 20 39  1  0  0  0  0
 23 40  1  0  0  0  0
 23 41  1  0  0  0  0
 23 42  1  0  0  0  0
 24 43  1  0  0  0  0
 24 44  1  0  0  0  0
 26 45  1  0  0  0  0
 26 46  1  0  0  0  0
 27 47  1  0  0  0  0
 27 48  1  0  0  0  0
M  END
> <Name>
43

> <IC50[uM]>
0.002

$$$$
43
  -OEChem-05192314333D
 Structure written by MMmdl.
 48 52  0     1  0  0  0  0  0999 V2000
   -6.3694   12.3608  -12.0100 C   0  0  0  0  0  0  0  0  0  0  0  0
   -6.5170   11.8053  -10.7333 C   0  0  0  0  0  0  0  0  0  0  0  0
   -7.7298   10.5799  -13.0278 C   0  0  0  0  0  0  0  0  0  0  0  0
   -6.9915   11.7687  -13.1228 C   0  0  0  0  0  0  0  0  0  0  0  0
   -7.8213   10.0100  -11.7550 C   0  0  0  0  0  0  0  0  0  0  0  0
   -7.2397   10.6196  -10.6003 C   0  0  0  0  0  0  0  0  0  0  0  0
   -7.6092    9.7471   -9.5124 C   0  0  3  0  0  0  0  0  0  0  0  0
   -8.2773    8.7308   -9.9855 N   0  0  0  0  0  0  0  0  0  0  0  0
   -8.4143    8.8607  -11.2979 N   0  0  0  0  0  0  0  0  0  0  0  0
   -7.3268    9.8907   -8.0257 C   0  0  0  0  0  0  0  0  0  0  0  0
   -4.3565   13.7183  -11.5055 N   0  0  0  0  0  0  0  0  0  0  0  0
   -5.5483   13.6363  -12.1897 C   0  0  0  0  0  0  0  0  0  0  0  0
   -5.9477   14.5322  -12.9368 O   0  0  0  0  0  0  0  0  0  0  0  0
   -5.9513   10.4999   -7.7281 C   0  0  0  0  0  0  0  0  0  0  0  0
   -5.8738   11.7695   -7.1531 C   0  0  0  0  0  0  0  0  0  0  0  0
   -4.6094   12.3134   -6.9136 C   0  0  0  0  0  0  0  0  0  0  0  0
   -3.4376   11.5622   -7.2444 C   0  0  3  0  0  0  0  0  0  0  0  0
   -3.5099   10.2841   -7.8101 C   0  0  0  0  0  0  0  0  0  0  0  0
   -4.7961    9.7769   -8.0457 C   0  0  0  0  0  0  0  0  0  0  0  0
   -4.0914   13.5427   -6.3707 C   0  0  0  0  0  0  0  0  0  0  0  0
   -2.7880   13.5314   -6.3772 N   0  0  0  0  0  0  0  0  0  0  0  0
   -2.3819   12.3721   -6.8788 N   0  0  3  0  0  0  0  0  0  0  0  0
   -0.9505   12.1058   -6.9728 C   0  0  0  0  0  0  0  0  0  0  0  0
   -3.7111   12.5665  -10.8449 C   0  0  0  0  0  0  0  0  0  0  0  0
   -2.2188   12.9372  -10.9792 C   0  0  0  0  0  0  0  0  0  0  0  0
   -2.1852   14.4611  -10.9536 C   0  0  0  0  0  0  0  0  0  0  0  0
   -3.5089   14.9092  -11.5986 C   0  0  0  0  0  0  0  0  0  0  0  0
   -1.7019   12.4742  -12.1199 F   0  0  0  0  0  0  0  0  0  0  0  0
   -1.4726   12.4435   -9.9943 F   0  0  0  0  0  0  0  0  0  0  0  0
   -6.0805   12.2847   -9.8696 H   0  0  0  0  0  0  0  0  0  0  0  0
   -8.2009   10.1304  -13.8894 H   0  0  0  0  0  0  0  0  0  0  0  0
   -6.8975   12.2468  -14.0866 H   0  0  0  0  0  0  0  0  0  0  0  0
   -6.6693    9.1897   -9.6384 H   0  0  0  0  0  0  0  0  0  0  0  0
   -8.0244    9.5937   -7.2566 H   0  0  0  0  0  0  0  0  0  0  0  0
   -6.7691   12.3178   -6.8996 H   0  0  0  0  0  0  0  0  0  0  0  0
   -3.4337   12.0085   -8.2498 H   0  0  0  0  0  0  0  0  0  0  0  0
   -2.6224    9.7184   -8.0524 H   0  0  0  0  0  0  0  0  0  0  0  0
   -4.8983    8.7963   -8.4866 H   0  0  0  0  0  0  0  0  0  0  0  0
   -4.6981   14.3596   -6.0088 H   0  0  0  0  0  0  0  0  0  0  0  0
   -0.3901   12.9695   -6.5854 H   0  0  0  0  0  0  0  0  0  0  0  0
   -0.7040   11.2129   -6.3795 H   0  0  0  0  0  0  0  0  0  0  0  0
   -0.6780   11.9339   -8.0245 H   0  0  0  0  0  0  0  0  0  0  0  0
   -4.0127   12.4865   -9.7901 H   0  0  0  0  0  0  0  0  0  0  0  0
   -3.9402   11.6243  -11.3642 H   0  0  0  0  0  0  0  0  0  0  0  0
   -2.1179   14.8274   -9.9186 H   0  0  0  0  0  0  0  0  0  0  0  0
   -1.3284   14.8371  -11.5320 H   0  0  0  0  0  0  0  0  0  0  0  0
   -3.3556   15.2013  -12.6480 H   0  0  0  0  0  0  0  0  0  0  0  0
   -3.9510   15.7504  -11.0446 H   0  0  0  0  0  0  0  0  0  0  0  0
  1  2  2  0  0  0  0
  1  4  1  0  0  0  0
  1 12  1  0  0  0  0
  2  6  1  0  0  0  0
  3  4  2  0  0  0  0
  3  5  1  0  0  0  0
  5  6  2  0  0  0  0
  5  9  1  0  0  0  0
  6  7  1  0  0  0  0
  7  8  1  0  0  0  0
  7 10  1  0  0  0  0
  8  9  2  0  0  0  0
 10 14  2  3  0  0  0
 11 12  1  0  0  0  0
 11 24  1  0  0  0  0
 11 27  1  0  0  0  0
 12 13  2  0  0  0  0
 14 15  1  0  0  0  0
 14 19  1  0  0  0  0
 15 16  2  0  0  0  0
 16 17  1  0  0  0  0
 16 20  1  0  0  0  0
 17 18  1  0  0  0  0
 17 22  1  0  0  0  0
 18 19  2  0  0  0  0
 20 21  2  0  0  0  0
 21 22  1  0  0  0  0
 22 23  1  0  0  0  0
 24 25  1  0  0  0  0
 25 26  1  0  0  0  0
 25 28  1  0  0  0  0
 25 29  1  0  0  0  0
 26 27  1  0  0  0  0
  2 30  1  0  0  0  0
  3 31  1  0  0  0  0
  4 32  1  0  0  0  0
  7 33  1  0  0  0  0
 10 34  1  0  0  0  0
 15 35  1  0  0  0  0
 17 36  1  0  0  0  0
 18 37  1  0  0  0  0
 19 38  1  0  0  0  0
 20 39  1  0  0  0  0
 23 40  1  0  0  0  0
 23 41  1  0  0  0  0
 23 42  1  0  0  0  0
 24 43  1  0  0  0  0
 24 44  1  0  0  0  0
 26 45  1  0  0  0  0
 26 46  1  0  0  0  0
 27 47  1  0  0  0  0
 27 48  1  0  0  0  0
M  END
> <Name>
43

> <IC50[uM]>
0.002

$$$$
43
  -OEChem-05192314333D
 Structure written by MMmdl.
 48 52  0     1  0  0  0  0  0999 V2000
   -6.3694   12.3608  -12.0100 C   0  0  0  0  0  0  0  0  0  0  0  0
   -6.5170   11.8053  -10.7333 C   0  0  0  0  0  0  0  0  0  0  0  0
   -7.7298   10.5799  -13.0278 C   0  0  0  0  0  0  0  0  0  0  0  0
   -6.9915   11.7687  -13.1228 C   0  0  0  0  0  0  0  0  0  0  0  0
   -7.8213   10.0100  -11.7550 C   0  0  0  0  0  0  0  0  0  0  0  0
   -7.2397   10.6196  -10.6003 C   0  0  0  0  0  0  0  0  0  0  0  0
   -7.6092    9.7471   -9.5124 C   0  0  0  0  0  0  0  0  0  0  0  0
   -8.2773    8.7308   -9.9855 N   0  0  0  0  0  0  0  0  0  0  0  0
   -8.4143    8.8607  -11.2979 N   0  0  0  0  0  0  0  0  0  0  0  0
   -7.3268    9.8907   -8.0257 C   0  0  0  0  0  0  0  0  0  0  0  0
   -4.3565   13.7183  -11.5055 N   0  0  0  0  0  0  0  0  0  0  0  0
   -5.5483   13.6363  -12.1897 C   0  0  0  0  0  0  0  0  0  0  0  0
   -5.9477   14.5322  -12.9368 O   0  0  0  0  0  0  0  0  0  0  0  0
   -5.9513   10.4999   -7.7281 C   0  0  0  0  0  0  0  0  0  0  0  0
   -5.8738   11.7695   -7.1531 C   0  0  0  0  0  0  0  0  0  0  0  0
   -4.6094   12.3134   -6.9136 C   0  0  0  0  0  0  0  0  0  0  0  0
   -3.4376   11.5622   -7.2444 C   0  0  3  0  0  0  0  0  0  0  0  0
   -3.5099   10.2841   -7.8101 C   0  0  0  0  0  0  0  0  0  0  0  0
   -4.7961    9.7769   -8.0457 C   0  0  0  0  0  0  0  0  0  0  0  0
   -4.0914   13.5427   -6.3707 C   0  0  0  0  0  0  0  0  0  0  0  0
   -2.7880   13.5314   -6.3772 N   0  0  0  0  0  0  0  0  0  0  0  0
   -2.3819   12.3721   -6.8788 N   0  0  3  0  0  0  0  0  0  0  0  0
   -0.9505   12.1058   -6.9728 C   0  0  0  0  0  0  0  0  0  0  0  0
   -3.7111   12.5665  -10.8449 C   0  0  0  0  0  0  0  0  0  0  0  0
   -2.2188   12.9372  -10.9792 C   0  0  0  0  0  0  0  0  0  0  0  0
   -2.1852   14.4611  -10.9536 C   0  0  0  0  0  0  0  0  0  0  0  0
   -3.5089   14.9092  -11.5986 C   0  0  0  0  0  0  0  0  0  0  0  0
   -1.7019   12.4742  -12.1199 F   0  0  0  0  0  0  0  0  0  0  0  0
   -1.4726   12.4435   -9.9943 F   0  0  0  0  0  0  0  0  0  0  0  0
   -6.0805   12.2847   -9.8696 H   0  0  0  0  0  0  0  0  0  0  0  0
   -8.2009   10.1304  -13.8894 H   0  0  0  0  0  0  0  0  0  0  0  0
   -6.8975   12.2468  -14.0866 H   0  0  0  0  0  0  0  0  0  0  0  0
   -8.0244    9.5937   -7.2566 H   0  0  0  0  0  0  0  0  0  0  0  0
   -6.7691   12.3178   -6.8996 H   0  0  0  0  0  0  0  0  0  0  0  0
   -3.4337   12.0085   -8.2498 H   0  0  0  0  0  0  0  0  0  0  0  0
   -2.9807   10.3146   -8.7740 H   0  0  0  0  0  0  0  0  0  0  0  0
   -2.9952    9.5883   -7.1311 H   0  0  0  0  0  0  0  0  0  0  0  0
   -4.8983    8.7963   -8.4866 H   0  0  0  0  0  0  0  0  0  0  0  0
   -4.6981   14.3596   -6.0088 H   0  0  0  0  0  0  0  0  0  0  0  0
   -0.3901   12.9695   -6.5854 H   0  0  0  0  0  0  0  0  0  0  0  0
   -0.7040   11.2129   -6.3795 H   0  0  0  0  0  0  0  0  0  0  0  0
   -0.6780   11.9339   -8.0245 H   0  0  0  0  0  0  0  0  0  0  0  0
   -4.0127   12.4865   -9.7901 H   0  0  0  0  0  0  0  0  0  0  0  0
   -3.9402   11.6243  -11.3642 H   0  0  0  0  0  0  0  0  0  0  0  0
   -2.1179   14.8274   -9.9186 H   0  0  0  0  0  0  0  0  0  0  0  0
   -1.3284   14.8371  -11.5320 H   0  0  0  0  0  0  0  0  0  0  0  0
   -3.3556   15.2013  -12.6480 H   0  0  0  0  0  0  0  0  0  0  0  0
   -3.9510   15.7504  -11.0446 H   0  0  0  0  0  0  0  0  0  0  0  0
  1  2  2  0  0  0  0
  1  4  1  0  0  0  0
  1 12  1  0  0  0  0
  2  6  1  0  0  0  0
  3  4  2  0  0  0  0
  3  5  1  0  0  0  0
  5  6  2  0  0  0  0
  5  9  1  0  0  0  0
  6  7  1  0  0  0  0
  7  8  1  0  0  0  0
  7 10  2  3  0  0  0
  8  9  2  0  0  0  0
 10 14  1  0  0  0  0
 11 12  1  0  0  0  0
 11 24  1  0  0  0  0
 11 27  1  0  0  0  0
 12 13  2  0  0  0  0
 14 15  1  0  0  0  0
 14 19  2  0  0  0  0
 15 16  2  0  0  0  0
 16 17  1  0  0  0  0
 16 20  1  0  0  0  0
 17 18  1  0  0  0  0
 17 22  1  0  0  0  0
 18 19  1  0  0  0  0
 20 21  2  0  0  0  0
 21 22  1  0  0  0  0
 22 23  1  0  0  0  0
 24 25  1  0  0  0  0
 25 26  1  0  0  0  0
 25 28  1  0  0  0  0
 25 29  1  0  0  0  0
 26 27  1  0  0  0  0
  2 30  1  0  0  0  0
  3 31  1  0  0  0  0
  4 32  1  0  0  0  0
 10 33  1  0  0  0  0
 15 34  1  0  0  0  0
 17 35  1  0  0  0  0
 18 36  1  0  0  0  0
 18 37  1  0  0  0  0
 19 38  1  0  0  0  0
 20 39  1  0  0  0  0
 23 40  1  0  0  0  0
 23 41  1  0  0  0  0
 23 42  1  0  0  0  0
 24 43  1  0  0  0  0
 24 44  1  0  0  0  0
 26 45  1  0  0  0  0
 26 46  1  0  0  0  0
 27 47  1  0  0  0  0
 27 48  1  0  0  0  0
M  END
> <Name>
43

> <IC50[uM]>
0.002

$$$$
43
  -OEChem-05192314333D
 Structure written by MMmdl.
 48 52  0     1  0  0  0  0  0999 V2000
   -6.3694   12.3608  -12.0100 C   0  0  0  0  0  0  0  0  0  0  0  0
   -6.5170   11.8053  -10.7333 C   0  0  0  0  0  0  0  0  0  0  0  0
   -7.7298   10.5799  -13.0278 C   0  0  0  0  0  0  0  0  0  0  0  0
   -6.9915   11.7687  -13.1228 C   0  0  0  0  0  0  0  0  0  0  0  0
   -7.8213   10.0100  -11.7550 C   0  0  0  0  0  0  0  0  0  0  0  0
   -7.2397   10.6196  -10.6003 C   0  0  0  0  0  0  0  0  0  0  0  0
   -7.6092    9.7471   -9.5124 C   0  0  0  0  0  0  0  0  0  0  0  0
   -8.2773    8.7308   -9.9855 N   0  0  0  0  0  0  0  0  0  0  0  0
   -8.4143    8.8607  -11.2979 N   0  0  0  0  0  0  0  0  0  0  0  0
   -7.3268    9.8907   -8.0257 C   0  0  0  0  0  0  0  0  0  0  0  0
   -4.3565   13.7183  -11.5055 N   0  0  0  0  0  0  0  0  0  0  0  0
   -5.5483   13.6363  -12.1897 C   0  0  0  0  0  0  0  0  0  0  0  0
   -5.9477   14.5322  -12.9368 O   0  0  0  0  0  0  0  0  0  0  0  0
   -5.9513   10.4999   -7.7281 C   0  0  0  0  0  0  0  0  0  0  0  0
   -5.8738   11.7695   -7.1531 C   0  0  0  0  0  0  0  0  0  0  0  0
   -4.6094   12.3134   -6.9136 C   0  0  3  0  0  0  0  0  0  0  0  0
   -3.4376   11.5622   -7.2444 C   0  0  0  0  0  0  0  0  0  0  0  0
   -3.5099   10.2841   -7.8101 C   0  0  0  0  0  0  0  0  0  0  0  0
   -4.7961    9.7769   -8.0457 C   0  0  0  0  0  0  0  0  0  0  0  0
   -4.0914   13.5427   -6.3707 C   0  0  0  0  0  0  0  0  0  0  0  0
   -2.7880   13.5314   -6.3772 N   0  0  0  0  0  0  0  0  0  0  0  0
   -2.3819   12.3721   -6.8788 N   0  0  0  0  0  0  0  0  0  0  0  0
   -0.9505   12.1058   -6.9728 C   0  0  0  0  0  0  0  0  0  0  0  0
   -3.7111   12.5665  -10.8449 C   0  0  0  0  0  0  0  0  0  0  0  0
   -2.2188   12.9372  -10.9792 C   0  0  0  0  0  0  0  0  0  0  0  0
   -2.1852   14.4611  -10.9536 C   0  0  0  0  0  0  0  0  0  0  0  0
   -3.5089   14.9092  -11.5986 C   0  0  0  0  0  0  0  0  0  0  0  0
   -1.7019   12.4742  -12.1199 F   0  0  0  0  0  0  0  0  0  0  0  0
   -1.4726   12.4435   -9.9943 F   0  0  0  0  0  0  0  0  0  0  0  0
   -6.0805   12.2847   -9.8696 H   0  0  0  0  0  0  0  0  0  0  0  0
   -8.2009   10.1304  -13.8894 H   0  0  0  0  0  0  0  0  0  0  0  0
   -6.8975   12.2468  -14.0866 H   0  0  0  0  0  0  0  0  0  0  0  0
   -8.0244    9.5937   -7.2566 H   0  0  0  0  0  0  0  0  0  0  0  0
   -6.7691   12.3178   -6.8996 H   0  0  0  0  0  0  0  0  0  0  0  0
   -4.6093   12.7574   -7.9200 H   0  0  0  0  0  0  0  0  0  0  0  0
   -2.6224    9.7184   -8.0524 H   0  0  0  0  0  0  0  0  0  0  0  0
   -4.8612    8.8324   -7.4857 H   0  0  0  0  0  0  0  0  0  0  0  0
   -4.8512    9.5682   -9.1243 H   0  0  0  0  0  0  0  0  0  0  0  0
   -4.6981   14.3596   -6.0088 H   0  0  0  0  0  0  0  0  0  0  0  0
   -0.3901   12.9695   -6.5854 H   0  0  0  0  0  0  0  0  0  0  0  0
   -0.7040   11.2129   -6.3795 H   0  0  0  0  0  0  0  0  0  0  0  0
   -0.6780   11.9339   -8.0245 H   0  0  0  0  0  0  0  0  0  0  0  0
   -4.0127   12.4865   -9.7901 H   0  0  0  0  0  0  0  0  0  0  0  0
   -3.9402   11.6243  -11.3642 H   0  0  0  0  0  0  0  0  0  0  0  0
   -2.1179   14.8274   -9.9186 H   0  0  0  0  0  0  0  0  0  0  0  0
   -1.3284   14.8371  -11.5320 H   0  0  0  0  0  0  0  0  0  0  0  0
   -3.3556   15.2013  -12.6480 H   0  0  0  0  0  0  0  0  0  0  0  0
   -3.9510   15.7504  -11.0446 H   0  0  0  0  0  0  0  0  0  0  0  0
  1  2  2  0  0  0  0
  1  4  1  0  0  0  0
  1 12  1  0  0  0  0
  2  6  1  0  0  0  0
  3  4  2  0  0  0  0
  3  5  1  0  0  0  0
  5  6  2  0  0  0  0
  5  9  1  0  0  0  0
  6  7  1  0  0  0  0
  7  8  1  0  0  0  0
  7 10  2  3  0  0  0
  8  9  2  0  0  0  0
 10 14  1  0  0  0  0
 11 12  1  0  0  0  0
 11 24  1  0  0  0  0
 11 27  1  0  0  0  0
 12 13  2  0  0  0  0
 14 15  2  0  0  0  0
 14 19  1  0  0  0  0
 15 16  1  0  0  0  0
 16 17  1  0  0  0  0
 16 20  1  0  0  0  0
 17 18  2  0  0  0  0
 17 22  1  0  0  0  0
 18 19  1  0  0  0  0
 20 21  2  0  0  0  0
 21 22  1  0  0  0  0
 22 23  1  0  0  0  0
 24 25  1  0  0  0  0
 25 26  1  0  0  0  0
 25 28  1  0  0  0  0
 25 29  1  0  0  0  0
 26 27  1  0  0  0  0
  2 30  1  0  0  0  0
  3 31  1  0  0  0  0
  4 32  1  0  0  0  0
 10 33  1  0  0  0  0
 15 34  1  0  0  0  0
 16 35  1  0  0  0  0
 18 36  1  0  0  0  0
 19 37  1  0  0  0  0
 19 38  1  0  0  0  0
 20 39  1  0  0  0  0
 23 40  1  0  0  0  0
 23 41  1  0  0  0  0
 23 42  1  0  0  0  0
 24 43  1  0  0  0  0
 24 44  1  0  0  0  0
 26 45  1  0  0  0  0
 26 46  1  0  0  0  0
 27 47  1  0  0  0  0
 27 48  1  0  0  0  0
M  END
> <Name>
43

> <IC50[uM]>
0.002

$$$$
43
  -OEChem-05192314333D
 Structure written by MMmdl.
 48 52  0     1  0  0  0  0  0999 V2000
   -6.3694   12.3608  -12.0100 C   0  0  0  0  0  0  0  0  0  0  0  0
   -6.5170   11.8053  -10.7333 C   0  0  0  0  0  0  0  0  0  0  0  0
   -7.7298   10.5799  -13.0278 C   0  0  0  0  0  0  0  0  0  0  0  0
   -6.9915   11.7687  -13.1228 C   0  0  0  0  0  0  0  0  0  0  0  0
   -7.8213   10.0100  -11.7550 C   0  0  0  0  0  0  0  0  0  0  0  0
   -7.2397   10.6196  -10.6003 C   0  0  0  0  0  0  0  0  0  0  0  0
   -7.6092    9.7471   -9.5124 C   0  0  0  0  0  0  0  0  0  0  0  0
   -8.2773    8.7308   -9.9855 N   0  0  0  0  0  0  0  0  0  0  0  0
   -8.4143    8.8607  -11.2979 N   0  0  0  0  0  0  0  0  0  0  0  0
   -7.3268    9.8907   -8.0257 C   0  0  0  0  0  0  0  0  0  0  0  0
   -4.3565   13.7183  -11.5055 N   0  0  0  0  0  0  0  0  0  0  0  0
   -5.5483   13.6363  -12.1897 C   0  0  0  0  0  0  0  0  0  0  0  0
   -5.9477   14.5322  -12.9368 O   0  0  0  0  0  0  0  0  0  0  0  0
   -5.9513   10.4999   -7.7281 C   0  0  0  0  0  0  0  0  0  0  0  0
   -5.8738   11.7695   -7.1531 C   0  0  0  0  0  0  0  0  0  0  0  0
   -4.6094   12.3134   -6.9136 C   0  0  3  0  0  0  0  0  0  0  0  0
   -3.4376   11.5622   -7.2444 C   0  0  0  0  0  0  0  0  0  0  0  0
   -3.5099   10.2841   -7.8101 C   0  0  0  0  0  0  0  0  0  0  0  0
   -4.7961    9.7769   -8.0457 C   0  0  0  0  0  0  0  0  0  0  0  0
   -4.0914   13.5427   -6.3707 C   0  0  0  0  0  0  0  0  0  0  0  0
   -2.7880   13.5314   -6.3772 N   0  0  0  0  0  0  0  0  0  0  0  0
   -2.3819   12.3721   -6.8788 N   0  0  0  0  0  0  0  0  0  0  0  0
   -0.9505   12.1058   -6.9728 C   0  0  0  0  0  0  0  0  0  0  0  0
   -3.7111   12.5665  -10.8449 C   0  0  0  0  0  0  0  0  0  0  0  0
   -2.2188   12.9372  -10.9792 C   0  0  0  0  0  0  0  0  0  0  0  0
   -2.1852   14.4611  -10.9536 C   0  0  0  0  0  0  0  0  0  0  0  0
   -3.5089   14.9092  -11.5986 C   0  0  0  0  0  0  0  0  0  0  0  0
   -1.7019   12.4742  -12.1199 F   0  0  0  0  0  0  0  0  0  0  0  0
   -1.4726   12.4435   -9.9943 F   0  0  0  0  0  0  0  0  0  0  0  0
   -6.0805   12.2847   -9.8696 H   0  0  0  0  0  0  0  0  0  0  0  0
   -8.2009   10.1304  -13.8894 H   0  0  0  0  0  0  0  0  0  0  0  0
   -6.8975   12.2468  -14.0866 H   0  0  0  0  0  0  0  0  0  0  0  0
   -8.0244    9.5937   -7.2566 H   0  0  0  0  0  0  0  0  0  0  0  0
   -6.4048   12.4627   -7.8221 H   0  0  0  0  0  0  0  0  0  0  0  0
   -6.3957   11.7211   -6.1860 H   0  0  0  0  0  0  0  0  0  0  0  0
   -4.6093   12.7574   -7.9200 H   0  0  0  0  0  0  0  0  0  0  0  0
   -2.6224    9.7184   -8.0524 H   0  0  0  0  0  0  0  0  0  0  0  0
   -4.8983    8.7963   -8.4866 H   0  0  0  0  0  0  0  0  0  0  0  0
   -4.6981   14.3596   -6.0088 H   0  0  0  0  0  0  0  0  0  0  0  0
   -0.3901   12.9695   -6.5854 H   0  0  0  0  0  0  0  0  0  0  0  0
   -0.7040   11.2129   -6.3795 H   0  0  0  0  0  0  0  0  0  0  0  0
   -0.6780   11.9339   -8.0245 H   0  0  0  0  0  0  0  0  0  0  0  0
   -4.0127   12.4865   -9.7901 H   0  0  0  0  0  0  0  0  0  0  0  0
   -3.9402   11.6243  -11.3642 H   0  0  0  0  0  0  0  0  0  0  0  0
   -2.1179   14.8274   -9.9186 H   0  0  0  0  0  0  0  0  0  0  0  0
   -1.3284   14.8371  -11.5320 H   0  0  0  0  0  0  0  0  0  0  0  0
   -3.3556   15.2013  -12.6480 H   0  0  0  0  0  0  0  0  0  0  0  0
   -3.9510   15.7504  -11.0446 H   0  0  0  0  0  0  0  0  0  0  0  0
  1  2  2  0  0  0  0
  1  4  1  0  0  0  0
  1 12  1  0  0  0  0
  2  6  1  0  0  0  0
  3  4  2  0  0  0  0
  3  5  1  0  0  0  0
  5  6  2  0  0  0  0
  5  9  1  0  0  0  0
  6  7  1  0  0  0  0
  7  8  1  0  0  0  0
  7 10  2  3  0  0  0
  8  9  2  0  0  0  0
 10 14  1  0  0  0  0
 11 12  1  0  0  0  0
 11 24  1  0  0  0  0
 11 27  1  0  0  0  0
 12 13  2  0  0  0  0
 14 15  1  0  0  0  0
 14 19  2  0  0  0  0
 15 16  1  0  0  0  0
 16 17  1  0  0  0  0
 16 20  1  0  0  0  0
 17 18  2  0  0  0  0
 17 22  1  0  0  0  0
 18 19  1  0  0  0  0
 20 21  2  0  0  0  0
 21 22  1  0  0  0  0
 22 23  1  0  0  0  0
 24 25  1  0  0  0  0
 25 26  1  0  0  0  0
 25 28  1  0  0  0  0
 25 29  1  0  0  0  0
 26 27  1  0  0  0  0
  2 30  1  0  0  0  0
  3 31  1  0  0  0  0
  4 32  1  0  0  0  0
 10 33  1  0  0  0  0
 15 34  1  0  0  0  0
 15 35  1  0  0  0  0
 16 36  1  0  0  0  0
 18 37  1  0  0  0  0
 19 38  1  0  0  0  0
 20 39  1  0  0  0  0
 23 40  1  0  0  0  0
 23 41  1  0  0  0  0
 23 42  1  0  0  0  0
 24 43  1  0  0  0  0
 24 44  1  0  0  0  0
 26 45  1  0  0  0  0
 26 46  1  0  0  0  0
 27 47  1  0  0  0  0
 27 48  1  0  0  0  0
M  END
> <Name>
43

> <IC50[uM]>
0.002

$$$$
43
  -OEChem-05192314333D
 Structure written by MMmdl.
 48 52  0     1  0  0  0  0  0999 V2000
   -6.3694   12.3608  -12.0100 C   0  0  0  0  0  0  0  0  0  0  0  0
   -6.5170   11.8053  -10.7333 C   0  0  0  0  0  0  0  0  0  0  0  0
   -7.7298   10.5799  -13.0278 C   0  0  0  0  0  0  0  0  0  0  0  0
   -6.9915   11.7687  -13.1228 C   0  0  0  0  0  0  0  0  0  0  0  0
   -7.8213   10.0100  -11.7550 C   0  0  0  0  0  0  0  0  0  0  0  0
   -7.2397   10.6196  -10.6003 C   0  0  0  0  0  0  0  0  0  0  0  0
   -7.6092    9.7471   -9.5124 C   0  0  0  0  0  0  0  0  0  0  0  0
   -8.2773    8.7308   -9.9855 N   0  0  0  0  0  0  0  0  0  0  0  0
   -8.4143    8.8607  -11.2979 N   0  0  0  0  0  0  0  0  0  0  0  0
   -7.3268    9.8907   -8.0257 C   0  0  0  0  0  0  0  0  0  0  0  0
   -4.3565   13.7183  -11.5055 N   0  0  0  0  0  0  0  0  0  0  0  0
   -5.5483   13.6363  -12.1897 C   0  0  0  0  0  0  0  0  0  0  0  0
   -5.9477   14.5322  -12.9368 O   0  0  0  0  0  0  0  0  0  0  0  0
   -5.9513   10.4999   -7.7281 C   0  0  0  0  0  0  0  0  0  0  0  0
   -5.8738   11.7695   -7.1531 C   0  0  0  0  0  0  0  0  0  0  0  0
   -4.6094   12.3134   -6.9136 C   0  0  0  0  0  0  0  0  0  0  0  0
   -3.4376   11.5622   -7.2444 C   0  0  3  0  0  0  0  0  0  0  0  0
   -3.5099   10.2841   -7.8101 C   0  0  0  0  0  0  0  0  0  0  0  0
   -4.7961    9.7769   -8.0457 C   0  0  0  0  0  0  0  0  0  0  0  0
   -4.0914   13.5427   -6.3707 C   0  0  0  0  0  0  0  0  0  0  0  0
   -2.7880   13.5314   -6.3772 N   0  0  0  0  0  0  0  0  0  0  0  0
   -2.3819   12.3721   -6.8788 N   0  0  3  0  0  0  0  0  0  0  0  0
   -0.9505   12.1058   -6.9728 C   0  0  0  0  0  0  0  0  0  0  0  0
   -3.7111   12.5665  -10.8449 C   0  0  0  0  0  0  0  0  0  0  0  0
   -2.2188   12.9372  -10.9792 C   0  0  0  0  0  0  0  0  0  0  0  0
   -2.1852   14.4611  -10.9536 C   0  0  0  0  0  0  0  0  0  0  0  0
   -3.5089   14.9092  -11.5986 C   0  0  0  0  0  0  0  0  0  0  0  0
   -1.7019   12.4742  -12.1199 F   0  0  0  0  0  0  0  0  0  0  0  0
   -1.4726   12.4435   -9.9943 F   0  0  0  0  0  0  0  0  0  0  0  0
   -6.0805   12.2847   -9.8696 H   0  0  0  0  0  0  0  0  0  0  0  0
   -8.2009   10.1304  -13.8894 H   0  0  0  0  0  0  0  0  0  0  0  0
   -6.8975   12.2468  -14.0866 H   0  0  0  0  0  0  0  0  0  0  0  0
   -8.0244    9.5937   -7.2566 H   0  0  0  0  0  0  0  0  0  0  0  0
   -6.7691   12.3178   -6.8996 H   0  0  0  0  0  0  0  0  0  0  0  0
   -3.4337   12.0085   -8.2498 H   0  0  0  0  0  0  0  0  0  0  0  0
   -2.6224    9.7184   -8.0524 H   0  0  0  0  0  0  0  0  0  0  0  0
   -4.8983    8.7963   -8.4866 H   0  0  0  0  0  0  0  0  0  0  0  0
   -4.6981   14.3596   -6.0088 H   0  0  0  0  0  0  0  0  0  0  0  0
   -2.4465   14.2822   -6.9426 H   0  0  0  0  0  0  0  0  0  0  0  0
   -0.3900   12.9716   -6.5903 H   0  0  0  0  0  0  0  0  0  0  0  0
   -0.7032   11.2160   -6.3752 H   0  0  0  0  0  0  0  0  0  0  0  0
   -0.6789   11.9286   -8.0239 H   0  0  0  0  0  0  0  0  0  0  0  0
   -4.0127   12.4865   -9.7901 H   0  0  0  0  0  0  0  0  0  0  0  0
   -3.9402   11.6243  -11.3642 H   0  0  0  0  0  0  0  0  0  0  0  0
   -2.1179   14.8274   -9.9186 H   0  0  0  0  0  0  0  0  0  0  0  0
   -1.3284   14.8371  -11.5320 H   0  0  0  0  0  0  0  0  0  0  0  0
   -3.3556   15.2013  -12.6480 H   0  0  0  0  0  0  0  0  0  0  0  0
   -3.9510   15.7504  -11.0446 H   0  0  0  0  0  0  0  0  0  0  0  0
  1  2  2  0  0  0  0
  1  4  1  0  0  0  0
  1 12  1  0  0  0  0
  2  6  1  0  0  0  0
  3  4  2  0  0  0  0
  3  5  1  0  0  0  0
  5  6  2  0  0  0  0
  5  9  1  0  0  0  0
  6  7  1  0  0  0  0
  7  8  1  0  0  0  0
  7 10  2  3  0  0  0
  8  9  2  0  0  0  0
 10 14  1  0  0  0  0
 11 12  1  0  0  0  0
 11 24  1  0  0  0  0
 11 27  1  0  0  0  0
 12 13  2  0  0  0  0
 14 15  2  0  0  0  0
 14 19  1  0  0  0  0
 15 16  1  0  0  0  0
 16 17  1  0  0  0  0
 16 20  2  0  0  0  0
 17 18  1  0  0  0  0
 17 22  1  0  0  0  0
 18 19  2  0  0  0  0
 20 21  1  0  0  0  0
 21 22  1  0  0  0  0
 22 23  1  0  0  0  0
 24 25  1  0  0  0  0
 25 26  1  0  0  0  0
 25 28  1  0  0  0  0
 25 29  1  0  0  0  0
 26 27  1  0  0  0  0
  2 30  1  0  0  0  0
  3 31  1  0  0  0  0
  4 32  1  0  0  0  0
 10 33  1  0  0  0  0
 15 34  1  0  0  0  0
 17 35  1  0  0  0  0
 18 36  1  0  0  0  0
 19 37  1  0  0  0  0
 20 38  1  0  0  0  0
 21 39  1  0  0  0  0
 23 40  1  0  0  0  0
 23 41  1  0  0  0  0
 23 42  1  0  0  0  0
 24 43  1  0  0  0  0
 24 44  1  0  0  0  0
 26 45  1  0  0  0  0
 26 46  1  0  0  0  0
 27 47  1  0  0  0  0
 27 48  1  0  0  0  0
M  END
> <Name>
43

> <IC50[uM]>
0.002

$$$$
43
  -OEChem-05192314333D
 Structure written by MMmdl.
 48 52  0     1  0  0  0  0  0999 V2000
   -6.3694   12.3608  -12.0100 C   0  0  0  0  0  0  0  0  0  0  0  0
   -6.5170   11.8053  -10.7333 C   0  0  0  0  0  0  0  0  0  0  0  0
   -7.7298   10.5799  -13.0278 C   0  0  0  0  0  0  0  0  0  0  0  0
   -6.9915   11.7687  -13.1228 C   0  0  0  0  0  0  0  0  0  0  0  0
   -7.8213   10.0100  -11.7550 C   0  0  0  0  0  0  0  0  0  0  0  0
   -7.2397   10.6196  -10.6003 C   0  0  0  0  0  0  0  0  0  0  0  0
   -7.6092    9.7471   -9.5124 C   0  0  0  0  0  0  0  0  0  0  0  0
   -8.2773    8.7308   -9.9855 N   0  0  0  0  0  0  0  0  0  0  0  0
   -8.4143    8.8607  -11.2979 N   0  0  0  0  0  0  0  0  0  0  0  0
   -7.3268    9.8907   -8.0257 C   0  0  0  0  0  0  0  0  0  0  0  0
   -4.3565   13.7183  -11.5055 N   0  0  0  0  0  0  0  0  0  0  0  0
   -5.5483   13.6363  -12.1897 C   0  0  0  0  0  0  0  0  0  0  0  0
   -5.9477   14.5322  -12.9368 O   0  0  0  0  0  0  0  0  0  0  0  0
   -5.9513   10.4999   -7.7281 C   0  0  0  0  0  0  0  0  0  0  0  0
   -5.8738   11.7695   -7.1531 C   0  0  0  0  0  0  0  0  0  0  0  0
   -4.6094   12.3134   -6.9136 C   0  0  0  0  0  0  0  0  0  0  0  0
   -3.4376   11.5622   -7.2444 C   0  0  0  0  0  0  0  0  0  0  0  0
   -3.5099   10.2841   -7.8101 C   0  0  0  0  0  0  0  0  0  0  0  0
   -4.7961    9.7769   -8.0457 C   0  0  0  0  0  0  0  0  0  0  0  0
   -4.0914   13.5427   -6.3707 C   0  0  0  0  0  0  0  0  0  0  0  0
   -2.7880   13.5314   -6.3772 N   0  0  0  0  0  0  0  0  0  0  0  0
   -2.3819   12.3721   -6.8788 N   0  0  3  0  0  0  0  0  0  0  0  0
   -0.9505   12.1058   -6.9728 C   0  0  0  0  0  0  0  0  0  0  0  0
   -3.7111   12.5665  -10.8449 C   0  0  0  0  0  0  0  0  0  0  0  0
   -2.2188   12.9372  -10.9792 C   0  0  0  0  0  0  0  0  0  0  0  0
   -2.1852   14.4611  -10.9536 C   0  0  0  0  0  0  0  0  0  0  0  0
   -3.5089   14.9092  -11.5986 C   0  0  0  0  0  0  0  0  0  0  0  0
   -1.7019   12.4742  -12.1199 F   0  0  0  0  0  0  0  0  0  0  0  0
   -1.4726   12.4435   -9.9943 F   0  0  0  0  0  0  0  0  0  0  0  0
   -6.0805   12.2847   -9.8696 H   0  0  0  0  0  0  0  0  0  0  0  0
   -8.2009   10.1304  -13.8894 H   0  0  0  0  0  0  0  0  0  0  0  0
   -6.8975   12.2468  -14.0866 H   0  0  0  0  0  0  0  0  0  0  0  0
   -8.0244    9.5937   -7.2566 H   0  0  0  0  0  0  0  0  0  0  0  0
   -6.7691   12.3178   -6.8996 H   0  0  0  0  0  0  0  0  0  0  0  0
   -2.6224    9.7184   -8.0524 H   0  0  0  0  0  0  0  0  0  0  0  0
   -4.8612    8.8324   -7.4857 H   0  0  0  0  0  0  0  0  0  0  0  0
   -4.8512    9.5682   -9.1243 H   0  0  0  0  0  0  0  0  0  0  0  0
   -4.6981   14.3596   -6.0088 H   0  0  0  0  0  0  0  0  0  0  0  0
   -2.4465   14.2822   -6.9426 H   0  0  0  0  0  0  0  0  0  0  0  0
   -0.3900   12.9716   -6.5903 H   0  0  0  0  0  0  0  0  0  0  0  0
   -0.7032   11.2160   -6.3752 H   0  0  0  0  0  0  0  0  0  0  0  0
   -0.6789   11.9286   -8.0239 H   0  0  0  0  0  0  0  0  0  0  0  0
   -4.0127   12.4865   -9.7901 H   0  0  0  0  0  0  0  0  0  0  0  0
   -3.9402   11.6243  -11.3642 H   0  0  0  0  0  0  0  0  0  0  0  0
   -2.1179   14.8274   -9.9186 H   0  0  0  0  0  0  0  0  0  0  0  0
   -1.3284   14.8371  -11.5320 H   0  0  0  0  0  0  0  0  0  0  0  0
   -3.3556   15.2013  -12.6480 H   0  0  0  0  0  0  0  0  0  0  0  0
   -3.9510   15.7504  -11.0446 H   0  0  0  0  0  0  0  0  0  0  0  0
  1  2  2  0  0  0  0
  1  4  1  0  0  0  0
  1 12  1  0  0  0  0
  2  6  1  0  0  0  0
  3  4  2  0  0  0  0
  3  5  1  0  0  0  0
  5  6  2  0  0  0  0
  5  9  1  0  0  0  0
  6  7  1  0  0  0  0
  7  8  1  0  0  0  0
  7 10  2  3  0  0  0
  8  9  2  0  0  0  0
 10 14  1  0  0  0  0
 11 12  1  0  0  0  0
 11 24  1  0  0  0  0
 11 27  1  0  0  0  0
 12 13  2  0  0  0  0
 14 15  2  0  0  0  0
 14 19  1  0  0  0  0
 15 16  1  0  0  0  0
 16 17  1  0  0  0  0
 16 20  2  0  0  0  0
 17 18  2  0  0  0  0
 17 22  1  0  0  0  0
 18 19  1  0  0  0  0
 20 21  1  0  0  0  0
 21 22  1  0  0  0  0
 22 23  1  0  0  0  0
 24 25  1  0  0  0  0
 25 26  1  0  0  0  0
 25 28  1  0  0  0  0
 25 29  1  0  0  0  0
 26 27  1  0  0  0  0
  2 30  1  0  0  0  0
  3 31  1  0  0  0  0
  4 32  1  0  0  0  0
 10 33  1  0  0  0  0
 15 34  1  0  0  0  0
 18 35  1  0  0  0  0
 19 36  1  0  0  0  0
 19 37  1  0  0  0  0
 20 38  1  0  0  0  0
 21 39  1  0  0  0  0
 23 40  1  0  0  0  0
 23 41  1  0  0  0  0
 23 42  1  0  0  0  0
 24 43  1  0  0  0  0
 24 44  1  0  0  0  0
 26 45  1  0  0  0  0
 26 46  1  0  0  0  0
 27 47  1  0  0  0  0
 27 48  1  0  0  0  0
M  END
> <Name>
43

> <IC50[uM]>
0.002

$$$$
43
  -OEChem-05192314333D
 Structure written by MMmdl.
 48 52  0     1  0  0  0  0  0999 V2000
   -6.3694   12.3608  -12.0100 C   0  0  0  0  0  0  0  0  0  0  0  0
   -6.5170   11.8053  -10.7333 C   0  0  0  0  0  0  0  0  0  0  0  0
   -7.7298   10.5799  -13.0278 C   0  0  0  0  0  0  0  0  0  0  0  0
   -6.9915   11.7687  -13.1228 C   0  0  0  0  0  0  0  0  0  0  0  0
   -7.8213   10.0100  -11.7550 C   0  0  0  0  0  0  0  0  0  0  0  0
   -7.2397   10.6196  -10.6003 C   0  0  0  0  0  0  0  0  0  0  0  0
   -7.6092    9.7471   -9.5124 C   0  0  0  0  0  0  0  0  0  0  0  0
   -8.2773    8.7308   -9.9855 N   0  0  0  0  0  0  0  0  0  0  0  0
   -8.4143    8.8607  -11.2979 N   0  0  0  0  0  0  0  0  0  0  0  0
   -7.3268    9.8907   -8.0257 C   0  0  0  0  0  0  0  0  0  0  0  0
   -4.3565   13.7183  -11.5055 N   0  0  0  0  0  0  0  0  0  0  0  0
   -5.5483   13.6363  -12.1897 C   0  0  0  0  0  0  0  0  0  0  0  0
   -5.9477   14.5322  -12.9368 O   0  0  0  0  0  0  0  0  0  0  0  0
   -5.9513   10.4999   -7.7281 C   0  0  0  0  0  0  0  0  0  0  0  0
   -5.8738   11.7695   -7.1531 C   0  0  0  0  0  0  0  0  0  0  0  0
   -4.6094   12.3134   -6.9136 C   0  0  0  0  0  0  0  0  0  0  0  0
   -3.4376   11.5622   -7.2444 C   0  0  0  0  0  0  0  0  0  0  0  0
   -3.5099   10.2841   -7.8101 C   0  0  0  0  0  0  0  0  0  0  0  0
   -4.7961    9.7769   -8.0457 C   0  0  0  0  0  0  0  0  0  0  0  0
   -4.0914   13.5427   -6.3707 C   0  0  0  0  0  0  0  0  0  0  0  0
   -2.7880   13.5314   -6.3772 N   0  0  0  0  0  0  0  0  0  0  0  0
   -2.3819   12.3721   -6.8788 N   0  0  3  0  0  0  0  0  0  0  0  0
   -0.9505   12.1058   -6.9728 C   0  0  0  0  0  0  0  0  0  0  0  0
   -3.7111   12.5665  -10.8449 C   0  0  0  0  0  0  0  0  0  0  0  0
   -2.2188   12.9372  -10.9792 C   0  0  0  0  0  0  0  0  0  0  0  0
   -2.1852   14.4611  -10.9536 C   0  0  0  0  0  0  0  0  0  0  0  0
   -3.5089   14.9092  -11.5986 C   0  0  0  0  0  0  0  0  0  0  0  0
   -1.7019   12.4742  -12.1199 F   0  0  0  0  0  0  0  0  0  0  0  0
   -1.4726   12.4435   -9.9943 F   0  0  0  0  0  0  0  0  0  0  0  0
   -6.0805   12.2847   -9.8696 H   0  0  0  0  0  0  0  0  0  0  0  0
   -8.2009   10.1304  -13.8894 H   0  0  0  0  0  0  0  0  0  0  0  0
   -6.8975   12.2468  -14.0866 H   0  0  0  0  0  0  0  0  0  0  0  0
   -8.0244    9.5937   -7.2566 H   0  0  0  0  0  0  0  0  0  0  0  0
   -6.4048   12.4627   -7.8221 H   0  0  0  0  0  0  0  0  0  0  0  0
   -6.3957   11.7211   -6.1860 H   0  0  0  0  0  0  0  0  0  0  0  0
   -2.6224    9.7184   -8.0524 H   0  0  0  0  0  0  0  0  0  0  0  0
   -4.8983    8.7963   -8.4866 H   0  0  0  0  0  0  0  0  0  0  0  0
   -4.6981   14.3596   -6.0088 H   0  0  0  0  0  0  0  0  0  0  0  0
   -2.4465   14.2822   -6.9426 H   0  0  0  0  0  0  0  0  0  0  0  0
   -0.3900   12.9716   -6.5903 H   0  0  0  0  0  0  0  0  0  0  0  0
   -0.7032   11.2160   -6.3752 H   0  0  0  0  0  0  0  0  0  0  0  0
   -0.6789   11.9286   -8.0239 H   0  0  0  0  0  0  0  0  0  0  0  0
   -4.0127   12.4865   -9.7901 H   0  0  0  0  0  0  0  0  0  0  0  0
   -3.9402   11.6243  -11.3642 H   0  0  0  0  0  0  0  0  0  0  0  0
   -2.1179   14.8274   -9.9186 H   0  0  0  0  0  0  0  0  0  0  0  0
   -1.3284   14.8371  -11.5320 H   0  0  0  0  0  0  0  0  0  0  0  0
   -3.3556   15.2013  -12.6480 H   0  0  0  0  0  0  0  0  0  0  0  0
   -3.9510   15.7504  -11.0446 H   0  0  0  0  0  0  0  0  0  0  0  0
  1  2  2  0  0  0  0
  1  4  1  0  0  0  0
  1 12  1  0  0  0  0
  2  6  1  0  0  0  0
  3  4  2  0  0  0  0
  3  5  1  0  0  0  0
  5  6  2  0  0  0  0
  5  9  1  0  0  0  0
  6  7  1  0  0  0  0
  7  8  1  0  0  0  0
  7 10  2  3  0  0  0
  8  9  2  0  0  0  0
 10 14  1  0  0  0  0
 11 12  1  0  0  0  0
 11 24  1  0  0  0  0
 11 27  1  0  0  0  0
 12 13  2  0  0  0  0
 14 15  1  0  0  0  0
 14 19  2  0  0  0  0
 15 16  1  0  0  0  0
 16 17  1  0  0  0  0
 16 20  2  0  0  0  0
 17 18  2  0  0  0  0
 17 22  1  0  0  0  0
 18 19  1  0  0  0  0
 20 21  1  0  0  0  0
 21 22  1  0  0  0  0
 22 23  1  0  0  0  0
 24 25  1  0  0  0  0
 25 26  1  0  0  0  0
 25 28  1  0  0  0  0
 25 29  1  0  0  0  0
 26 27  1  0  0  0  0
  2 30  1  0  0  0  0
  3 31  1  0  0  0  0
  4 32  1  0  0  0  0
 10 33  1  0  0  0  0
 15 34  1  0  0  0  0
 15 35  1  0  0  0  0
 18 36  1  0  0  0  0
 19 37  1  0  0  0  0
 20 38  1  0  0  0  0
 21 39  1  0  0  0  0
 23 40  1  0  0  0  0
 23 41  1  0  0  0  0
 23 42  1  0  0  0  0
 24 43  1  0  0  0  0
 24 44  1  0  0  0  0
 26 45  1  0  0  0  0
 26 46  1  0  0  0  0
 27 47  1  0  0  0  0
 27 48  1  0  0  0  0
M  END
> <Name>
43

> <IC50[uM]>
0.002

$$$$
43
  -OEChem-05192314333D
 Structure written by MMmdl.
 48 52  0     1  0  0  0  0  0999 V2000
   -6.3694   12.3608  -12.0100 C   0  0  3  0  0  0  0  0  0  0  0  0
   -6.5170   11.8053  -10.7333 C   0  0  0  0  0  0  0  0  0  0  0  0
   -7.7298   10.5799  -13.0278 C   0  0  0  0  0  0  0  0  0  0  0  0
   -6.9915   11.7687  -13.1228 C   0  0  0  0  0  0  0  0  0  0  0  0
   -7.8213   10.0100  -11.7550 C   0  0  0  0  0  0  0  0  0  0  0  0
   -7.2397   10.6196  -10.6003 C   0  0  0  0  0  0  0  0  0  0  0  0
   -7.6092    9.7471   -9.5124 C   0  0  0  0  0  0  0  0  0  0  0  0
   -8.2773    8.7308   -9.9855 N   0  0  0  0  0  0  0  0  0  0  0  0
   -8.4143    8.8607  -11.2979 N   0  0  0  0  0  0  0  0  0  0  0  0
   -7.3268    9.8907   -8.0257 C   0  0  0  0  0  0  0  0  0  0  0  0
   -4.3565   13.7183  -11.5055 N   0  0  0  0  0  0  0  0  0  0  0  0
   -5.5483   13.6363  -12.1897 C   0  0  0  0  0  0  0  0  0  0  0  0
   -5.9477   14.5322  -12.9368 O   0  0  0  0  0  0  0  0  0  0  0  0
   -5.9513   10.4999   -7.7281 C   0  0  0  0  0  0  0  0  0  0  0  0
   -5.8738   11.7695   -7.1531 C   0  0  0  0  0  0  0  0  0  0  0  0
   -4.6094   12.3134   -6.9136 C   0  0  0  0  0  0  0  0  0  0  0  0
   -3.4376   11.5622   -7.2444 C   0  0  0  0  0  0  0  0  0  0  0  0
   -3.5099   10.2841   -7.8101 C   0  0  0  0  0  0  0  0  0  0  0  0
   -4.7961    9.7769   -8.0457 C   0  0  0  0  0  0  0  0  0  0  0  0
   -4.0914   13.5427   -6.3707 C   0  0  0  0  0  0  0  0  0  0  0  0
   -2.7880   13.5314   -6.3772 N   0  0  0  0  0  0  0  0  0  0  0  0
   -2.3819   12.3721   -6.8788 N   0  0  0  0  0  0  0  0  0  0  0  0
   -0.9505   12.1058   -6.9728 C   0  0  0  0  0  0  0  0  0  0  0  0
   -3.7111   12.5665  -10.8449 C   0  0  0  0  0  0  0  0  0  0  0  0
   -2.2188   12.9372  -10.9792 C   0  0  0  0  0  0  0  0  0  0  0  0
   -2.1852   14.4611  -10.9536 C   0  0  0  0  0  0  0  0  0  0  0  0
   -3.5089   14.9092  -11.5986 C   0  0  0  0  0  0  0  0  0  0  0  0
   -1.7019   12.4742  -12.1199 F   0  0  0  0  0  0  0  0  0  0  0  0
   -1.4726   12.4435   -9.9943 F   0  0  0  0  0  0  0  0  0  0  0  0
   -5.4701   11.7504  -12.1792 H   0  0  0  0  0  0  0  0  0  0  0  0
   -6.0805   12.2847   -9.8696 H   0  0  0  0  0  0  0  0  0  0  0  0
   -8.2009   10.1304  -13.8894 H   0  0  0  0  0  0  0  0  0  0  0  0
   -6.8975   12.2468  -14.0866 H   0  0  0  0  0  0  0  0  0  0  0  0
   -8.0244    9.5937   -7.2566 H   0  0  0  0  0  0  0  0  0  0  0  0
   -6.4048   12.4627   -7.8221 H   0  0  0  0  0  0  0  0  0  0  0  0
   -6.3957   11.7211   -6.1860 H   0  0  0  0  0  0  0  0  0  0  0  0
   -2.6224    9.7184   -8.0524 H   0  0  0  0  0  0  0  0  0  0  0  0
   -4.8983    8.7963   -8.4866 H   0  0  0  0  0  0  0  0  0  0  0  0
   -4.6981   14.3596   -6.0088 H   0  0  0  0  0  0  0  0  0  0  0  0
   -0.3901   12.9695   -6.5854 H   0  0  0  0  0  0  0  0  0  0  0  0
   -0.7040   11.2129   -6.3795 H   0  0  0  0  0  0  0  0  0  0  0  0
   -0.6780   11.9339   -8.0245 H   0  0  0  0  0  0  0  0  0  0  0  0
   -4.0127   12.4865   -9.7901 H   0  0  0  0  0  0  0  0  0  0  0  0
   -3.9402   11.6243  -11.3642 H   0  0  0  0  0  0  0  0  0  0  0  0
   -2.1179   14.8274   -9.9186 H   0  0  0  0  0  0  0  0  0  0  0  0
   -1.3284   14.8371  -11.5320 H   0  0  0  0  0  0  0  0  0  0  0  0
   -3.3556   15.2013  -12.6480 H   0  0  0  0  0  0  0  0  0  0  0  0
   -3.9510   15.7504  -11.0446 H   0  0  0  0  0  0  0  0  0  0  0  0
  1  2  1  0  0  0  0
  1  4  1  0  0  0  0
  1 12  1  0  0  0  0
  2  6  2  0  0  0  0
  3  4  2  0  0  0  0
  3  5  1  0  0  0  0
  5  6  1  0  0  0  0
  5  9  2  0  0  0  0
  6  7  1  0  0  0  0
  7  8  2  0  0  0  0
  7 10  1  0  0  0  0
  8  9  1  0  0  0  0
 10 14  2  3  0  0  0
 11 12  1  0  0  0  0
 11 24  1  0  0  0  0
 11 27  1  0  0  0  0
 12 13  2  0  0  0  0
 14 15  1  0  0  0  0
 14 19  1  0  0  0  0
 15 16  1  0  0  0  0
 16 17  2  0  0  0  0
 16 20  1  0  0  0  0
 17 18  1  0  0  0  0
 17 22  1  0  0  0  0
 18 19  2  0  0  0  0
 20 21  2  0  0  0  0
 21 22  1  0  0  0  0
 22 23  1  0  0  0  0
 24 25  1  0  0  0  0
 25 26  1  0  0  0  0
 25 28  1  0  0  0  0
 25 29  1  0  0  0  0
 26 27  1  0  0  0  0
  1 30  1  0  0  0  0
  2 31  1  0  0  0  0
  3 32  1  0  0  0  0
  4 33  1  0  0  0  0
 10 34  1  0  0  0  0
 15 35  1  0  0  0  0
 15 36  1  0  0  0  0
 18 37  1  0  0  0  0
 19 38  1  0  0  0  0
 20 39  1  0  0  0  0
 23 40  1  0  0  0  0
 23 41  1  0  0  0  0
 23 42  1  0  0  0  0
 24 43  1  0  0  0  0
 24 44  1  0  0  0  0
 26 45  1  0  0  0  0
 26 46  1  0  0  0  0
 27 47  1  0  0  0  0
 27 48  1  0  0  0  0
M  END
> <Name>
43

> <IC50[uM]>
0.002

$$$$
43
  -OEChem-05192314333D
 Structure written by MMmdl.
 48 52  0     1  0  0  0  0  0999 V2000
   -6.3694   12.3608  -12.0100 C   0  0  0  0  0  0  0  0  0  0  0  0
   -6.5170   11.8053  -10.7333 C   0  0  0  0  0  0  0  0  0  0  0  0
   -7.7298   10.5799  -13.0278 C   0  0  0  0  0  0  0  0  0  0  0  0
   -6.9915   11.7687  -13.1228 C   0  0  0  0  0  0  0  0  0  0  0  0
   -7.8213   10.0100  -11.7550 C   0  0  0  0  0  0  0  0  0  0  0  0
   -7.2397   10.6196  -10.6003 C   0  0  3  0  0  0  0  0  0  0  0  0
   -7.6092    9.7471   -9.5124 C   0  0  0  0  0  0  0  0  0  0  0  0
   -8.2773    8.7308   -9.9855 N   0  0  0  0  0  0  0  0  0  0  0  0
   -8.4143    8.8607  -11.2979 N   0  0  0  0  0  0  0  0  0  0  0  0
   -7.3268    9.8907   -8.0257 C   0  0  0  0  0  0  0  0  0  0  0  0
   -4.3565   13.7183  -11.5055 N   0  0  0  0  0  0  0  0  0  0  0  0
   -5.5483   13.6363  -12.1897 C   0  0  0  0  0  0  0  0  0  0  0  0
   -5.9477   14.5322  -12.9368 O   0  0  0  0  0  0  0  0  0  0  0  0
   -5.9513   10.4999   -7.7281 C   0  0  0  0  0  0  0  0  0  0  0  0
   -5.8738   11.7695   -7.1531 C   0  0  0  0  0  0  0  0  0  0  0  0
   -4.6094   12.3134   -6.9136 C   0  0  0  0  0  0  0  0  0  0  0  0
   -3.4376   11.5622   -7.2444 C   0  0  0  0  0  0  0  0  0  0  0  0
   -3.5099   10.2841   -7.8101 C   0  0  0  0  0  0  0  0  0  0  0  0
   -4.7961    9.7769   -8.0457 C   0  0  0  0  0  0  0  0  0  0  0  0
   -4.0914   13.5427   -6.3707 C   0  0  0  0  0  0  0  0  0  0  0  0
   -2.7880   13.5314   -6.3772 N   0  0  0  0  0  0  0  0  0  0  0  0
   -2.3819   12.3721   -6.8788 N   0  0  0  0  0  0  0  0  0  0  0  0
   -0.9505   12.1058   -6.9728 C   0  0  0  0  0  0  0  0  0  0  0  0
   -3.7111   12.5665  -10.8449 C   0  0  0  0  0  0  0  0  0  0  0  0
   -2.2188   12.9372  -10.9792 C   0  0  0  0  0  0  0  0  0  0  0  0
   -2.1852   14.4611  -10.9536 C   0  0  0  0  0  0  0  0  0  0  0  0
   -3.5089   14.9092  -11.5986 C   0  0  0  0  0  0  0  0  0  0  0  0
   -1.7019   12.4742  -12.1199 F   0  0  0  0  0  0  0  0  0  0  0  0
   -1.4726   12.4435   -9.9943 F   0  0  0  0  0  0  0  0  0  0  0  0
   -6.0805   12.2847   -9.8696 H   0  0  0  0  0  0  0  0  0  0  0  0
   -8.2009   10.1304  -13.8894 H   0  0  0  0  0  0  0  0  0  0  0  0
   -6.8975   12.2468  -14.0866 H   0  0  0  0  0  0  0  0  0  0  0  0
   -6.3186   10.0387  -10.7555 H   0  0  0  0  0  0  0  0  0  0  0  0
   -8.0244    9.5937   -7.2566 H   0  0  0  0  0  0  0  0  0  0  0  0
   -6.4048   12.4627   -7.8221 H   0  0  0  0  0  0  0  0  0  0  0  0
   -6.3957   11.7211   -6.1860 H   0  0  0  0  0  0  0  0  0  0  0  0
   -2.6224    9.7184   -8.0524 H   0  0  0  0  0  0  0  0  0  0  0  0
   -4.8983    8.7963   -8.4866 H   0  0  0  0  0  0  0  0  0  0  0  0
   -4.6981   14.3596   -6.0088 H   0  0  0  0  0  0  0  0  0  0  0  0
   -0.3901   12.9695   -6.5854 H   0  0  0  0  0  0  0  0  0  0  0  0
   -0.7040   11.2129   -6.3795 H   0  0  0  0  0  0  0  0  0  0  0  0
   -0.6780   11.9339   -8.0245 H   0  0  0  0  0  0  0  0  0  0  0  0
   -4.0127   12.4865   -9.7901 H   0  0  0  0  0  0  0  0  0  0  0  0
   -3.9402   11.6243  -11.3642 H   0  0  0  0  0  0  0  0  0  0  0  0
   -2.1179   14.8274   -9.9186 H   0  0  0  0  0  0  0  0  0  0  0  0
   -1.3284   14.8371  -11.5320 H   0  0  0  0  0  0  0  0  0  0  0  0
   -3.3556   15.2013  -12.6480 H   0  0  0  0  0  0  0  0  0  0  0  0
   -3.9510   15.7504  -11.0446 H   0  0  0  0  0  0  0  0  0  0  0  0
  1  2  2  0  0  0  0
  1  4  1  0  0  0  0
  1 12  1  0  0  0  0
  2  6  1  0  0  0  0
  3  4  2  0  0  0  0
  3  5  1  0  0  0  0
  5  6  1  0  0  0  0
  5  9  2  0  0  0  0
  6  7  1  0  0  0  0
  7  8  2  0  0  0  0
  7 10  1  0  0  0  0
  8  9  1  0  0  0  0
 10 14  2  3  0  0  0
 11 12  1  0  0  0  0
 11 24  1  0  0  0  0
 11 27  1  0  0  0  0
 12 13  2  0  0  0  0
 14 15  1  0  0  0  0
 14 19  1  0  0  0  0
 15 16  1  0  0  0  0
 16 17  2  0  0  0  0
 16 20  1  0  0  0  0
 17 18  1  0  0  0  0
 17 22  1  0  0  0  0
 18 19  2  0  0  0  0
 20 21  2  0  0  0  0
 21 22  1  0  0  0  0
 22 23  1  0  0  0  0
 24 25  1  0  0  0  0
 25 26  1  0  0  0  0
 25 28  1  0  0  0  0
 25 29  1  0  0  0  0
 26 27  1  0  0  0  0
  2 30  1  0  0  0  0
  3 31  1  0  0  0  0
  4 32  1  0  0  0  0
  6 33  1  0  0  0  0
 10 34  1  0  0  0  0
 15 35  1  0  0  0  0
 15 36  1  0  0  0  0
 18 37  1  0  0  0  0
 19 38  1  0  0  0  0
 20 39  1  0  0  0  0
 23 40  1  0  0  0  0
 23 41  1  0  0  0  0
 23 42  1  0  0  0  0
 24 43  1  0  0  0  0
 24 44  1  0  0  0  0
 26 45  1  0  0  0  0
 26 46  1  0  0  0  0
 27 47  1  0  0  0  0
 27 48  1  0  0  0  0
M  END
> <Name>
43

> <IC50[uM]>
0.002

$$$$
43
  -OEChem-05192314333D
 Structure written by MMmdl.
 48 52  0     0  0  0  0  0  0999 V2000
   -6.3694   12.3608  -12.0100 C   0  0  0  0  0  0  0  0  0  0  0  0
   -6.5170   11.8053  -10.7333 C   0  0  0  0  0  0  0  0  0  0  0  0
   -7.7298   10.5799  -13.0278 C   0  0  0  0  0  0  0  0  0  0  0  0
   -6.9915   11.7687  -13.1228 C   0  0  0  0  0  0  0  0  0  0  0  0
   -7.8213   10.0100  -11.7550 C   0  0  0  0  0  0  0  0  0  0  0  0
   -7.2397   10.6196  -10.6003 C   0  0  0  0  0  0  0  0  0  0  0  0
   -7.6092    9.7471   -9.5124 C   0  0  0  0  0  0  0  0  0  0  0  0
   -8.2773    8.7308   -9.9855 N   0  0  0  0  0  0  0  0  0  0  0  0
   -8.4143    8.8607  -11.2979 N   0  0  0  0  0  0  0  0  0  0  0  0
   -7.3268    9.8907   -8.0257 C   0  0  0  0  0  0  0  0  0  0  0  0
   -4.3565   13.7183  -11.5055 N   0  0  0  0  0  0  0  0  0  0  0  0
   -5.5483   13.6363  -12.1897 C   0  0  0  0  0  0  0  0  0  0  0  0
   -5.9477   14.5322  -12.9368 O   0  0  0  0  0  0  0  0  0  0  0  0
   -5.9513   10.4999   -7.7281 C   0  0  0  0  0  0  0  0  0  0  0  0
   -5.8738   11.7695   -7.1531 C   0  0  0  0  0  0  0  0  0  0  0  0
   -4.6094   12.3134   -6.9136 C   0  0  0  0  0  0  0  0  0  0  0  0
   -3.4376   11.5622   -7.2444 C   0  0  0  0  0  0  0  0  0  0  0  0
   -3.5099   10.2841   -7.8101 C   0  0  0  0  0  0  0  0  0  0  0  0
   -4.7961    9.7769   -8.0457 C   0  0  0  0  0  0  0  0  0  0  0  0
   -4.0914   13.5427   -6.3707 C   0  0  0  0  0  0  0  0  0  0  0  0
   -2.7880   13.5314   -6.3772 N   0  0  0  0  0  0  0  0  0  0  0  0
   -2.3819   12.3721   -6.8788 N   0  0  0  0  0  0  0  0  0  0  0  0
   -0.9505   12.1058   -6.9728 C   0  0  0  0  0  0  0  0  0  0  0  0
   -3.7111   12.5665  -10.8449 C   0  0  0  0  0  0  0  0  0  0  0  0
   -2.2188   12.9372  -10.9792 C   0  0  0  0  0  0  0  0  0  0  0  0
   -2.1852   14.4611  -10.9536 C   0  0  0  0  0  0  0  0  0  0  0  0
   -3.5089   14.9092  -11.5986 C   0  0  0  0  0  0  0  0  0  0  0  0
   -1.7019   12.4742  -12.1199 F   0  0  0  0  0  0  0  0  0  0  0  0
   -1.4726   12.4435   -9.9943 F   0  0  0  0  0  0  0  0  0  0  0  0
   -6.0805   12.2847   -9.8696 H   0  0  0  0  0  0  0  0  0  0  0  0
   -8.7519   10.7911  -13.3751 H   0  0  0  0  0  0  0  0  0  0  0  0
   -7.2617    9.8401  -13.6938 H   0  0  0  0  0  0  0  0  0  0  0  0
   -6.8975   12.2468  -14.0866 H   0  0  0  0  0  0  0  0  0  0  0  0
   -8.0244    9.5937   -7.2566 H   0  0  0  0  0  0  0  0  0  0  0  0
   -6.4048   12.4627   -7.8221 H   0  0  0  0  0  0  0  0  0  0  0  0
   -6.3957   11.7211   -6.1860 H   0  0  0  0  0  0  0  0  0  0  0  0
   -2.6224    9.7184   -8.0524 H   0  0  0  0  0  0  0  0  0  0  0  0
   -4.8983    8.7963   -8.4866 H   0  0  0  0  0  0  0  0  0  0  0  0
   -4.6981   14.3596   -6.0088 H   0  0  0  0  0  0  0  0  0  0  0  0
   -0.3901   12.9695   -6.5854 H   0  0  0  0  0  0  0  0  0  0  0  0
   -0.7040   11.2129   -6.3795 H   0  0  0  0  0  0  0  0  0  0  0  0
   -0.6780   11.9339   -8.0245 H   0  0  0  0  0  0  0  0  0  0  0  0
   -4.0127   12.4865   -9.7901 H   0  0  0  0  0  0  0  0  0  0  0  0
   -3.9402   11.6243  -11.3642 H   0  0  0  0  0  0  0  0  0  0  0  0
   -2.1179   14.8274   -9.9186 H   0  0  0  0  0  0  0  0  0  0  0  0
   -1.3284   14.8371  -11.5320 H   0  0  0  0  0  0  0  0  0  0  0  0
   -3.3556   15.2013  -12.6480 H   0  0  0  0  0  0  0  0  0  0  0  0
   -3.9510   15.7504  -11.0446 H   0  0  0  0  0  0  0  0  0  0  0  0
  1  2  1  0  0  0  0
  1  4  2  0  0  0  0
  1 12  1  0  0  0  0
  2  6  2  0  0  0  0
  3  4  1  0  0  0  0
  3  5  1  0  0  0  0
  5  6  1  0  0  0  0
  5  9  2  0  0  0  0
  6  7  1  0  0  0  0
  7  8  2  0  0  0  0
  7 10  1  0  0  0  0
  8  9  1  0  0  0  0
 10 14  2  3  0  0  0
 11 12  1  0  0  0  0
 11 24  1  0  0  0  0
 11 27  1  0  0  0  0
 12 13  2  0  0  0  0
 14 15  1  0  0  0  0
 14 19  1  0  0  0  0
 15 16  1  0  0  0  0
 16 17  2  0  0  0  0
 16 20  1  0  0  0  0
 17 18  1  0  0  0  0
 17 22  1  0  0  0  0
 18 19  2  0  0  0  0
 20 21  2  0  0  0  0
 21 22  1  0  0  0  0
 22 23  1  0  0  0  0
 24 25  1  0  0  0  0
 25 26  1  0  0  0  0
 25 28  1  0  0  0  0
 25 29  1  0  0  0  0
 26 27  1  0  0  0  0
  2 30  1  0  0  0  0
  3 31  1  0  0  0  0
  3 32  1  0  0  0  0
  4 33  1  0  0  0  0
 10 34  1  0  0  0  0
 15 35  1  0  0  0  0
 15 36  1  0  0  0  0
 18 37  1  0  0  0  0
 19 38  1  0  0  0  0
 20 39  1  0  0  0  0
 23 40  1  0  0  0  0
 23 41  1  0  0  0  0
 23 42  1  0  0  0  0
 24 43  1  0  0  0  0
 24 44  1  0  0  0  0
 26 45  1  0  0  0  0
 26 46  1  0  0  0  0
 27 47  1  0  0  0  0
 27 48  1  0  0  0  0
M  END
> <Name>
43

> <IC50[uM]>
0.002

$$$$
43
  -OEChem-05192314333D
 Structure written by MMmdl.
 48 52  0     1  0  0  0  0  0999 V2000
   -6.3694   12.3608  -12.0100 C   0  0  0  0  0  0  0  0  0  0  0  0
   -6.5170   11.8053  -10.7333 C   0  0  0  0  0  0  0  0  0  0  0  0
   -7.7298   10.5799  -13.0278 C   0  0  0  0  0  0  0  0  0  0  0  0
   -6.9915   11.7687  -13.1228 C   0  0  0  0  0  0  0  0  0  0  0  0
   -7.8213   10.0100  -11.7550 C   0  0  3  0  0  0  0  0  0  0  0  0
   -7.2397   10.6196  -10.6003 C   0  0  0  0  0  0  0  0  0  0  0  0
   -7.6092    9.7471   -9.5124 C   0  0  0  0  0  0  0  0  0  0  0  0
   -8.2773    8.7308   -9.9855 N   0  0  0  0  0  0  0  0  0  0  0  0
   -8.4143    8.8607  -11.2979 N   0  0  0  0  0  0  0  0  0  0  0  0
   -7.3268    9.8907   -8.0257 C   0  0  0  0  0  0  0  0  0  0  0  0
   -4.3565   13.7183  -11.5055 N   0  0  0  0  0  0  0  0  0  0  0  0
   -5.5483   13.6363  -12.1897 C   0  0  0  0  0  0  0  0  0  0  0  0
   -5.9477   14.5322  -12.9368 O   0  0  0  0  0  0  0  0  0  0  0  0
   -5.9513   10.4999   -7.7281 C   0  0  0  0  0  0  0  0  0  0  0  0
   -5.8738   11.7695   -7.1531 C   0  0  0  0  0  0  0  0  0  0  0  0
   -4.6094   12.3134   -6.9136 C   0  0  0  0  0  0  0  0  0  0  0  0
   -3.4376   11.5622   -7.2444 C   0  0  0  0  0  0  0  0  0  0  0  0
   -3.5099   10.2841   -7.8101 C   0  0  0  0  0  0  0  0  0  0  0  0
   -4.7961    9.7769   -8.0457 C   0  0  0  0  0  0  0  0  0  0  0  0
   -4.0914   13.5427   -6.3707 C   0  0  0  0  0  0  0  0  0  0  0  0
   -2.7880   13.5314   -6.3772 N   0  0  0  0  0  0  0  0  0  0  0  0
   -2.3819   12.3721   -6.8788 N   0  0  0  0  0  0  0  0  0  0  0  0
   -0.9505   12.1058   -6.9728 C   0  0  0  0  0  0  0  0  0  0  0  0
   -3.7111   12.5665  -10.8449 C   0  0  0  0  0  0  0  0  0  0  0  0
   -2.2188   12.9372  -10.9792 C   0  0  0  0  0  0  0  0  0  0  0  0
   -2.1852   14.4611  -10.9536 C   0  0  0  0  0  0  0  0  0  0  0  0
   -3.5089   14.9092  -11.5986 C   0  0  0  0  0  0  0  0  0  0  0  0
   -1.7019   12.4742  -12.1199 F   0  0  0  0  0  0  0  0  0  0  0  0
   -1.4726   12.4435   -9.9943 F   0  0  0  0  0  0  0  0  0  0  0  0
   -6.0805   12.2847   -9.8696 H   0  0  0  0  0  0  0  0  0  0  0  0
   -8.2009   10.1304  -13.8894 H   0  0  0  0  0  0  0  0  0  0  0  0
   -6.8975   12.2468  -14.0866 H   0  0  0  0  0  0  0  0  0  0  0  0
   -6.8872    9.4574  -11.9345 H   0  0  0  0  0  0  0  0  0  0  0  0
   -8.0244    9.5937   -7.2566 H   0  0  0  0  0  0  0  0  0  0  0  0
   -6.4048   12.4627   -7.8221 H   0  0  0  0  0  0  0  0  0  0  0  0
   -6.3957   11.7211   -6.1860 H   0  0  0  0  0  0  0  0  0  0  0  0
   -2.6224    9.7184   -8.0524 H   0  0  0  0  0  0  0  0  0  0  0  0
   -4.8983    8.7963   -8.4866 H   0  0  0  0  0  0  0  0  0  0  0  0
   -4.6981   14.3596   -6.0088 H   0  0  0  0  0  0  0  0  0  0  0  0
   -0.3901   12.9695   -6.5854 H   0  0  0  0  0  0  0  0  0  0  0  0
   -0.7040   11.2129   -6.3795 H   0  0  0  0  0  0  0  0  0  0  0  0
   -0.6780   11.9339   -8.0245 H   0  0  0  0  0  0  0  0  0  0  0  0
   -4.0127   12.4865   -9.7901 H   0  0  0  0  0  0  0  0  0  0  0  0
   -3.9402   11.6243  -11.3642 H   0  0  0  0  0  0  0  0  0  0  0  0
   -2.1179   14.8274   -9.9186 H   0  0  0  0  0  0  0  0  0  0  0  0
   -1.3284   14.8371  -11.5320 H   0  0  0  0  0  0  0  0  0  0  0  0
   -3.3556   15.2013  -12.6480 H   0  0  0  0  0  0  0  0  0  0  0  0
   -3.9510   15.7504  -11.0446 H   0  0  0  0  0  0  0  0  0  0  0  0
  1  2  2  0  0  0  0
  1  4  1  0  0  0  0
  1 12  1  0  0  0  0
  2  6  1  0  0  0  0
  3  4  2  0  0  0  0
  3  5  1  0  0  0  0
  5  6  1  0  0  0  0
  5  9  1  0  0  0  0
  6  7  2  0  0  0  0
  7  8  1  0  0  0  0
  7 10  1  0  0  0  0
  8  9  2  0  0  0  0
 10 14  2  3  0  0  0
 11 12  1  0  0  0  0
 11 24  1  0  0  0  0
 11 27  1  0  0  0  0
 12 13  2  0  0  0  0
 14 15  1  0  0  0  0
 14 19  1  0  0  0  0
 15 16  1  0  0  0  0
 16 17  2  0  0  0  0
 16 20  1  0  0  0  0
 17 18  1  0  0  0  0
 17 22  1  0  0  0  0
 18 19  2  0  0  0  0
 20 21  2  0  0  0  0
 21 22  1  0  0  0  0
 22 23  1  0  0  0  0
 24 25  1  0  0  0  0
 25 26  1  0  0  0  0
 25 28  1  0  0  0  0
 25 29  1  0  0  0  0
 26 27  1  0  0  0  0
  2 30  1  0  0  0  0
  3 31  1  0  0  0  0
  4 32  1  0  0  0  0
  5 33  1  0  0  0  0
 10 34  1  0  0  0  0
 15 35  1  0  0  0  0
 15 36  1  0  0  0  0
 18 37  1  0  0  0  0
 19 38  1  0  0  0  0
 20 39  1  0  0  0  0
 23 40  1  0  0  0  0
 23 41  1  0  0  0  0
 23 42  1  0  0  0  0
 24 43  1  0  0  0  0
 24 44  1  0  0  0  0
 26 45  1  0  0  0  0
 26 46  1  0  0  0  0
 27 47  1  0  0  0  0
 27 48  1  0  0  0  0
M  END
> <Name>
43

> <IC50[uM]>
0.002

$$$$
43
  -OEChem-05192314333D
 Structure written by MMmdl.
 48 52  0     0  0  0  0  0  0999 V2000
   -6.3694   12.3608  -12.0100 C   0  0  0  0  0  0  0  0  0  0  0  0
   -6.5170   11.8053  -10.7333 C   0  0  0  0  0  0  0  0  0  0  0  0
   -7.7298   10.5799  -13.0278 C   0  0  0  0  0  0  0  0  0  0  0  0
   -6.9915   11.7687  -13.1228 C   0  0  0  0  0  0  0  0  0  0  0  0
   -7.8213   10.0100  -11.7550 C   0  0  0  0  0  0  0  0  0  0  0  0
   -7.2397   10.6196  -10.6003 C   0  0  0  0  0  0  0  0  0  0  0  0
   -7.6092    9.7471   -9.5124 C   0  0  0  0  0  0  0  0  0  0  0  0
   -8.2773    8.7308   -9.9855 N   0  0  0  0  0  0  0  0  0  0  0  0
   -8.4143    8.8607  -11.2979 N   0  0  0  0  0  0  0  0  0  0  0  0
   -7.3268    9.8907   -8.0257 C   0  0  0  0  0  0  0  0  0  0  0  0
   -4.3565   13.7183  -11.5055 N   0  0  0  0  0  0  0  0  0  0  0  0
   -5.5483   13.6363  -12.1897 C   0  0  0  0  0  0  0  0  0  0  0  0
   -5.9477   14.5322  -12.9368 O   0  0  0  0  0  0  0  0  0  0  0  0
   -5.9513   10.4999   -7.7281 C   0  0  0  0  0  0  0  0  0  0  0  0
   -5.8738   11.7695   -7.1531 C   0  0  0  0  0  0  0  0  0  0  0  0
   -4.6094   12.3134   -6.9136 C   0  0  0  0  0  0  0  0  0  0  0  0
   -3.4376   11.5622   -7.2444 C   0  0  0  0  0  0  0  0  0  0  0  0
   -3.5099   10.2841   -7.8101 C   0  0  0  0  0  0  0  0  0  0  0  0
   -4.7961    9.7769   -8.0457 C   0  0  0  0  0  0  0  0  0  0  0  0
   -4.0914   13.5427   -6.3707 C   0  0  0  0  0  0  0  0  0  0  0  0
   -2.7880   13.5314   -6.3772 N   0  0  0  0  0  0  0  0  0  0  0  0
   -2.3819   12.3721   -6.8788 N   0  0  0  0  0  0  0  0  0  0  0  0
   -0.9505   12.1058   -6.9728 C   0  0  0  0  0  0  0  0  0  0  0  0
   -3.7111   12.5665  -10.8449 C   0  0  0  0  0  0  0  0  0  0  0  0
   -2.2188   12.9372  -10.9792 C   0  0  0  0  0  0  0  0  0  0  0  0
   -2.1852   14.4611  -10.9536 C   0  0  0  0  0  0  0  0  0  0  0  0
   -3.5089   14.9092  -11.5986 C   0  0  0  0  0  0  0  0  0  0  0  0
   -1.7019   12.4742  -12.1199 F   0  0  0  0  0  0  0  0  0  0  0  0
   -1.4726   12.4435   -9.9943 F   0  0  0  0  0  0  0  0  0  0  0  0
   -6.0805   12.2847   -9.8696 H   0  0  0  0  0  0  0  0  0  0  0  0
   -8.2009   10.1304  -13.8894 H   0  0  0  0  0  0  0  0  0  0  0  0
   -7.6806   12.5252  -13.5263 H   0  0  0  0  0  0  0  0  0  0  0  0
   -6.1919   11.5745  -13.8528 H   0  0  0  0  0  0  0  0  0  0  0  0
   -8.0244    9.5937   -7.2566 H   0  0  0  0  0  0  0  0  0  0  0  0
   -6.4048   12.4627   -7.8221 H   0  0  0  0  0  0  0  0  0  0  0  0
   -6.3957   11.7211   -6.1860 H   0  0  0  0  0  0  0  0  0  0  0  0
   -2.6224    9.7184   -8.0524 H   0  0  0  0  0  0  0  0  0  0  0  0
   -4.8983    8.7963   -8.4866 H   0  0  0  0  0  0  0  0  0  0  0  0
   -4.6981   14.3596   -6.0088 H   0  0  0  0  0  0  0  0  0  0  0  0
   -0.3901   12.9695   -6.5854 H   0  0  0  0  0  0  0  0  0  0  0  0
   -0.7040   11.2129   -6.3795 H   0  0  0  0  0  0  0  0  0  0  0  0
   -0.6780   11.9339   -8.0245 H   0  0  0  0  0  0  0  0  0  0  0  0
   -4.0127   12.4865   -9.7901 H   0  0  0  0  0  0  0  0  0  0  0  0
   -3.9402   11.6243  -11.3642 H   0  0  0  0  0  0  0  0  0  0  0  0
   -2.1179   14.8274   -9.9186 H   0  0  0  0  0  0  0  0  0  0  0  0
   -1.3284   14.8371  -11.5320 H   0  0  0  0  0  0  0  0  0  0  0  0
   -3.3556   15.2013  -12.6480 H   0  0  0  0  0  0  0  0  0  0  0  0
   -3.9510   15.7504  -11.0446 H   0  0  0  0  0  0  0  0  0  0  0  0
  1  2  2  0  0  0  0
  1  4  1  0  0  0  0
  1 12  1  0  0  0  0
  2  6  1  0  0  0  0
  3  4  1  0  0  0  0
  3  5  2  0  0  0  0
  5  6  1  0  0  0  0
  5  9  1  0  0  0  0
  6  7  2  0  0  0  0
  7  8  1  0  0  0  0
  7 10  1  0  0  0  0
  8  9  2  0  0  0  0
 10 14  2  3  0  0  0
 11 12  1  0  0  0  0
 11 24  1  0  0  0  0
 11 27  1  0  0  0  0
 12 13  2  0  0  0  0
 14 15  1  0  0  0  0
 14 19  1  0  0  0  0
 15 16  1  0  0  0  0
 16 17  2  0  0  0  0
 16 20  1  0  0  0  0
 17 18  1  0  0  0  0
 17 22  1  0  0  0  0
 18 19  2  0  0  0  0
 20 21  2  0  0  0  0
 21 22  1  0  0  0  0
 22 23  1  0  0  0  0
 24 25  1  0  0  0  0
 25 26  1  0  0  0  0
 25 28  1  0  0  0  0
 25 29  1  0  0  0  0
 26 27  1  0  0  0  0
  2 30  1  0  0  0  0
  3 31  1  0  0  0  0
  4 32  1  0  0  0  0
  4 33  1  0  0  0  0
 10 34  1  0  0  0  0
 15 35  1  0  0  0  0
 15 36  1  0  0  0  0
 18 37  1  0  0  0  0
 19 38  1  0  0  0  0
 20 39  1  0  0  0  0
 23 40  1  0  0  0  0
 23 41  1  0  0  0  0
 23 42  1  0  0  0  0
 24 43  1  0  0  0  0
 24 44  1  0  0  0  0
 26 45  1  0  0  0  0
 26 46  1  0  0  0  0
 27 47  1  0  0  0  0
 27 48  1  0  0  0  0
M  END
> <Name>
43

> <IC50[uM]>
0.002

$$$$
43
  -OEChem-05192314333D
 Structure written by MMmdl.
 48 52  0     0  0  0  0  0  0999 V2000
   -6.3694   12.3608  -12.0100 C   0  0  0  0  0  0  0  0  0  0  0  0
   -6.5170   11.8053  -10.7333 C   0  0  0  0  0  0  0  0  0  0  0  0
   -7.7298   10.5799  -13.0278 C   0  0  0  0  0  0  0  0  0  0  0  0
   -6.9915   11.7687  -13.1228 C   0  0  0  0  0  0  0  0  0  0  0  0
   -7.8213   10.0100  -11.7550 C   0  0  0  0  0  0  0  0  0  0  0  0
   -7.2397   10.6196  -10.6003 C   0  0  0  0  0  0  0  0  0  0  0  0
   -7.6092    9.7471   -9.5124 C   0  0  0  0  0  0  0  0  0  0  0  0
   -8.2773    8.7308   -9.9855 N   0  0  0  0  0  0  0  0  0  0  0  0
   -8.4143    8.8607  -11.2979 N   0  0  0  0  0  0  0  0  0  0  0  0
   -7.3268    9.8907   -8.0257 C   0  0  0  0  0  0  0  0  0  0  0  0
   -4.3565   13.7183  -11.5055 N   0  0  0  0  0  0  0  0  0  0  0  0
   -5.5483   13.6363  -12.1897 C   0  0  0  0  0  0  0  0  0  0  0  0
   -5.9477   14.5322  -12.9368 O   0  0  0  0  0  0  0  0  0  0  0  0
   -5.9513   10.4999   -7.7281 C   0  0  0  0  0  0  0  0  0  0  0  0
   -5.8738   11.7695   -7.1531 C   0  0  0  0  0  0  0  0  0  0  0  0
   -4.6094   12.3134   -6.9136 C   0  0  0  0  0  0  0  0  0  0  0  0
   -3.4376   11.5622   -7.2444 C   0  0  0  0  0  0  0  0  0  0  0  0
   -3.5099   10.2841   -7.8101 C   0  0  0  0  0  0  0  0  0  0  0  0
   -4.7961    9.7769   -8.0457 C   0  0  0  0  0  0  0  0  0  0  0  0
   -4.0914   13.5427   -6.3707 C   0  0  0  0  0  0  0  0  0  0  0  0
   -2.7880   13.5314   -6.3772 N   0  0  0  0  0  0  0  0  0  0  0  0
   -2.3819   12.3721   -6.8788 N   0  0  0  0  0  0  0  0  0  0  0  0
   -0.9505   12.1058   -6.9728 C   0  0  0  0  0  0  0  0  0  0  0  0
   -3.7111   12.5665  -10.8449 C   0  0  0  0  0  0  0  0  0  0  0  0
   -2.2188   12.9372  -10.9792 C   0  0  0  0  0  0  0  0  0  0  0  0
   -2.1852   14.4611  -10.9536 C   0  0  0  0  0  0  0  0  0  0  0  0
   -3.5089   14.9092  -11.5986 C   0  0  0  0  0  0  0  0  0  0  0  0
   -1.7019   12.4742  -12.1199 F   0  0  0  0  0  0  0  0  0  0  0  0
   -1.4726   12.4435   -9.9943 F   0  0  0  0  0  0  0  0  0  0  0  0
   -5.5061   11.6142  -10.3440 H   0  0  0  0  0  0  0  0  0  0  0  0
   -7.0145   12.5602  -10.1068 H   0  0  0  0  0  0  0  0  0  0  0  0
   -8.2009   10.1304  -13.8894 H   0  0  0  0  0  0  0  0  0  0  0  0
   -6.8975   12.2468  -14.0866 H   0  0  0  0  0  0  0  0  0  0  0  0
   -8.0244    9.5937   -7.2566 H   0  0  0  0  0  0  0  0  0  0  0  0
   -6.4048   12.4627   -7.8221 H   0  0  0  0  0  0  0  0  0  0  0  0
   -6.3957   11.7211   -6.1860 H   0  0  0  0  0  0  0  0  0  0  0  0
   -2.6224    9.7184   -8.0524 H   0  0  0  0  0  0  0  0  0  0  0  0
   -4.8983    8.7963   -8.4866 H   0  0  0  0  0  0  0  0  0  0  0  0
   -4.6981   14.3596   -6.0088 H   0  0  0  0  0  0  0  0  0  0  0  0
   -0.3901   12.9695   -6.5854 H   0  0  0  0  0  0  0  0  0  0  0  0
   -0.7040   11.2129   -6.3795 H   0  0  0  0  0  0  0  0  0  0  0  0
   -0.6780   11.9339   -8.0245 H   0  0  0  0  0  0  0  0  0  0  0  0
   -4.0127   12.4865   -9.7901 H   0  0  0  0  0  0  0  0  0  0  0  0
   -3.9402   11.6243  -11.3642 H   0  0  0  0  0  0  0  0  0  0  0  0
   -2.1179   14.8274   -9.9186 H   0  0  0  0  0  0  0  0  0  0  0  0
   -1.3284   14.8371  -11.5320 H   0  0  0  0  0  0  0  0  0  0  0  0
   -3.3556   15.2013  -12.6480 H   0  0  0  0  0  0  0  0  0  0  0  0
   -3.9510   15.7504  -11.0446 H   0  0  0  0  0  0  0  0  0  0  0  0
  1  2  1  0  0  0  0
  1  4  2  0  0  0  0
  1 12  1  0  0  0  0
  2  6  1  0  0  0  0
  3  4  1  0  0  0  0
  3  5  2  0  0  0  0
  5  6  1  0  0  0  0
  5  9  1  0  0  0  0
  6  7  2  0  0  0  0
  7  8  1  0  0  0  0
  7 10  1  0  0  0  0
  8  9  2  0  0  0  0
 10 14  2  3  0  0  0
 11 12  1  0  0  0  0
 11 24  1  0  0  0  0
 11 27  1  0  0  0  0
 12 13  2  0  0  0  0
 14 15  1  0  0  0  0
 14 19  1  0  0  0  0
 15 16  1  0  0  0  0
 16 17  2  0  0  0  0
 16 20  1  0  0  0  0
 17 18  1  0  0  0  0
 17 22  1  0  0  0  0
 18 19  2  0  0  0  0
 20 21  2  0  0  0  0
 21 22  1  0  0  0  0
 22 23  1  0  0  0  0
 24 25  1  0  0  0  0
 25 26  1  0  0  0  0
 25 28  1  0  0  0  0
 25 29  1  0  0  0  0
 26 27  1  0  0  0  0
  2 30  1  0  0  0  0
  2 31  1  0  0  0  0
  3 32  1  0  0  0  0
  4 33  1  0  0  0  0
 10 34  1  0  0  0  0
 15 35  1  0  0  0  0
 15 36  1  0  0  0  0
 18 37  1  0  0  0  0
 19 38  1  0  0  0  0
 20 39  1  0  0  0  0
 23 40  1  0  0  0  0
 23 41  1  0  0  0  0
 23 42  1  0  0  0  0
 24 43  1  0  0  0  0
 24 44  1  0  0  0  0
 26 45  1  0  0  0  0
 26 46  1  0  0  0  0
 27 47  1  0  0  0  0
 27 48  1  0  0  0  0
M  END
> <Name>
43

> <IC50[uM]>
0.002

$$$$
43
  -OEChem-05192314333D
 Structure written by MMmdl.
 48 52  0     1  0  0  0  0  0999 V2000
   -6.3694   12.3608  -12.0100 C   0  0  3  0  0  0  0  0  0  0  0  0
   -6.5170   11.8053  -10.7333 C   0  0  0  0  0  0  0  0  0  0  0  0
   -7.7298   10.5799  -13.0278 C   0  0  0  0  0  0  0  0  0  0  0  0
   -6.9915   11.7687  -13.1228 C   0  0  0  0  0  0  0  0  0  0  0  0
   -7.8213   10.0100  -11.7550 C   0  0  0  0  0  0  0  0  0  0  0  0
   -7.2397   10.6196  -10.6003 C   0  0  0  0  0  0  0  0  0  0  0  0
   -7.6092    9.7471   -9.5124 C   0  0  0  0  0  0  0  0  0  0  0  0
   -8.2773    8.7308   -9.9855 N   0  0  0  0  0  0  0  0  0  0  0  0
   -8.4143    8.8607  -11.2979 N   0  0  0  0  0  0  0  0  0  0  0  0
   -7.3268    9.8907   -8.0257 C   0  0  0  0  0  0  0  0  0  0  0  0
   -4.3565   13.7183  -11.5055 N   0  0  0  0  0  0  0  0  0  0  0  0
   -5.5483   13.6363  -12.1897 C   0  0  0  0  0  0  0  0  0  0  0  0
   -5.9477   14.5322  -12.9368 O   0  0  0  0  0  0  0  0  0  0  0  0
   -5.9513   10.4999   -7.7281 C   0  0  0  0  0  0  0  0  0  0  0  0
   -5.8738   11.7695   -7.1531 C   0  0  0  0  0  0  0  0  0  0  0  0
   -4.6094   12.3134   -6.9136 C   0  0  0  0  0  0  0  0  0  0  0  0
   -3.4376   11.5622   -7.2444 C   0  0  0  0  0  0  0  0  0  0  0  0
   -3.5099   10.2841   -7.8101 C   0  0  0  0  0  0  0  0  0  0  0  0
   -4.7961    9.7769   -8.0457 C   0  0  0  0  0  0  0  0  0  0  0  0
   -4.0914   13.5427   -6.3707 C   0  0  0  0  0  0  0  0  0  0  0  0
   -2.7880   13.5314   -6.3772 N   0  0  0  0  0  0  0  0  0  0  0  0
   -2.3819   12.3721   -6.8788 N   0  0  0  0  0  0  0  0  0  0  0  0
   -0.9505   12.1058   -6.9728 C   0  0  0  0  0  0  0  0  0  0  0  0
   -3.7111   12.5665  -10.8449 C   0  0  0  0  0  0  0  0  0  0  0  0
   -2.2188   12.9372  -10.9792 C   0  0  0  0  0  0  0  0  0  0  0  0
   -2.1852   14.4611  -10.9536 C   0  0  0  0  0  0  0  0  0  0  0  0
   -3.5089   14.9092  -11.5986 C   0  0  0  0  0  0  0  0  0  0  0  0
   -1.7019   12.4742  -12.1199 F   0  0  0  0  0  0  0  0  0  0  0  0
   -1.4726   12.4435   -9.9943 F   0  0  0  0  0  0  0  0  0  0  0  0
   -5.4701   11.7504  -12.1792 H   0  0  0  0  0  0  0  0  0  0  0  0
   -6.0805   12.2847   -9.8696 H   0  0  0  0  0  0  0  0  0  0  0  0
   -8.2009   10.1304  -13.8894 H   0  0  0  0  0  0  0  0  0  0  0  0
   -6.8975   12.2468  -14.0866 H   0  0  0  0  0  0  0  0  0  0  0  0
   -8.0244    9.5937   -7.2566 H   0  0  0  0  0  0  0  0  0  0  0  0
   -6.7691   12.3178   -6.8996 H   0  0  0  0  0  0  0  0  0  0  0  0
   -2.6224    9.7184   -8.0524 H   0  0  0  0  0  0  0  0  0  0  0  0
   -4.8612    8.8324   -7.4857 H   0  0  0  0  0  0  0  0  0  0  0  0
   -4.8512    9.5682   -9.1243 H   0  0  0  0  0  0  0  0  0  0  0  0
   -4.6981   14.3596   -6.0088 H   0  0  0  0  0  0  0  0  0  0  0  0
   -0.3901   12.9695   -6.5854 H   0  0  0  0  0  0  0  0  0  0  0  0
   -0.7040   11.2129   -6.3795 H   0  0  0  0  0  0  0  0  0  0  0  0
   -0.6780   11.9339   -8.0245 H   0  0  0  0  0  0  0  0  0  0  0  0
   -4.0127   12.4865   -9.7901 H   0  0  0  0  0  0  0  0  0  0  0  0
   -3.9402   11.6243  -11.3642 H   0  0  0  0  0  0  0  0  0  0  0  0
   -2.1179   14.8274   -9.9186 H   0  0  0  0  0  0  0  0  0  0  0  0
   -1.3284   14.8371  -11.5320 H   0  0  0  0  0  0  0  0  0  0  0  0
   -3.3556   15.2013  -12.6480 H   0  0  0  0  0  0  0  0  0  0  0  0
   -3.9510   15.7504  -11.0446 H   0  0  0  0  0  0  0  0  0  0  0  0
  1  2  1  0  0  0  0
  1  4  1  0  0  0  0
  1 12  1  0  0  0  0
  2  6  2  0  0  0  0
  3  4  2  0  0  0  0
  3  5  1  0  0  0  0
  5  6  1  0  0  0  0
  5  9  2  0  0  0  0
  6  7  1  0  0  0  0
  7  8  2  0  0  0  0
  7 10  1  0  0  0  0
  8  9  1  0  0  0  0
 10 14  2  3  0  0  0
 11 12  1  0  0  0  0
 11 24  1  0  0  0  0
 11 27  1  0  0  0  0
 12 13  2  0  0  0  0
 14 15  1  0  0  0  0
 14 19  1  0  0  0  0
 15 16  2  0  0  0  0
 16 17  1  0  0  0  0
 16 20  1  0  0  0  0
 17 18  2  0  0  0  0
 17 22  1  0  0  0  0
 18 19  1  0  0  0  0
 20 21  2  0  0  0  0
 21 22  1  0  0  0  0
 22 23  1  0  0  0  0
 24 25  1  0  0  0  0
 25 26  1  0  0  0  0
 25 28  1  0  0  0  0
 25 29  1  0  0  0  0
 26 27  1  0  0  0  0
  1 30  1  0  0  0  0
  2 31  1  0  0  0  0
  3 32  1  0  0  0  0
  4 33  1  0  0  0  0
 10 34  1  0  0  0  0
 15 35  1  0  0  0  0
 18 36  1  0  0  0  0
 19 37  1  0  0  0  0
 19 38  1  0  0  0  0
 20 39  1  0  0  0  0
 23 40  1  0  0  0  0
 23 41  1  0  0  0  0
 23 42  1  0  0  0  0
 24 43  1  0  0  0  0
 24 44  1  0  0  0  0
 26 45  1  0  0  0  0
 26 46  1  0  0  0  0
 27 47  1  0  0  0  0
 27 48  1  0  0  0  0
M  END
> <Name>
43

> <IC50[uM]>
0.002

$$$$
43
  -OEChem-05192314333D
 Structure written by MMmdl.
 48 52  0     1  0  0  0  0  0999 V2000
   -6.3694   12.3608  -12.0100 C   0  0  0  0  0  0  0  0  0  0  0  0
   -6.5170   11.8053  -10.7333 C   0  0  0  0  0  0  0  0  0  0  0  0
   -7.7298   10.5799  -13.0278 C   0  0  0  0  0  0  0  0  0  0  0  0
   -6.9915   11.7687  -13.1228 C   0  0  0  0  0  0  0  0  0  0  0  0
   -7.8213   10.0100  -11.7550 C   0  0  0  0  0  0  0  0  0  0  0  0
   -7.2397   10.6196  -10.6003 C   0  0  3  0  0  0  0  0  0  0  0  0
   -7.6092    9.7471   -9.5124 C   0  0  0  0  0  0  0  0  0  0  0  0
   -8.2773    8.7308   -9.9855 N   0  0  0  0  0  0  0  0  0  0  0  0
   -8.4143    8.8607  -11.2979 N   0  0  0  0  0  0  0  0  0  0  0  0
   -7.3268    9.8907   -8.0257 C   0  0  0  0  0  0  0  0  0  0  0  0
   -4.3565   13.7183  -11.5055 N   0  0  0  0  0  0  0  0  0  0  0  0
   -5.5483   13.6363  -12.1897 C   0  0  0  0  0  0  0  0  0  0  0  0
   -5.9477   14.5322  -12.9368 O   0  0  0  0  0  0  0  0  0  0  0  0
   -5.9513   10.4999   -7.7281 C   0  0  0  0  0  0  0  0  0  0  0  0
   -5.8738   11.7695   -7.1531 C   0  0  0  0  0  0  0  0  0  0  0  0
   -4.6094   12.3134   -6.9136 C   0  0  0  0  0  0  0  0  0  0  0  0
   -3.4376   11.5622   -7.2444 C   0  0  0  0  0  0  0  0  0  0  0  0
   -3.5099   10.2841   -7.8101 C   0  0  0  0  0  0  0  0  0  0  0  0
   -4.7961    9.7769   -8.0457 C   0  0  0  0  0  0  0  0  0  0  0  0
   -4.0914   13.5427   -6.3707 C   0  0  0  0  0  0  0  0  0  0  0  0
   -2.7880   13.5314   -6.3772 N   0  0  0  0  0  0  0  0  0  0  0  0
   -2.3819   12.3721   -6.8788 N   0  0  0  0  0  0  0  0  0  0  0  0
   -0.9505   12.1058   -6.9728 C   0  0  0  0  0  0  0  0  0  0  0  0
   -3.7111   12.5665  -10.8449 C   0  0  0  0  0  0  0  0  0  0  0  0
   -2.2188   12.9372  -10.9792 C   0  0  0  0  0  0  0  0  0  0  0  0
   -2.1852   14.4611  -10.9536 C   0  0  0  0  0  0  0  0  0  0  0  0
   -3.5089   14.9092  -11.5986 C   0  0  0  0  0  0  0  0  0  0  0  0
   -1.7019   12.4742  -12.1199 F   0  0  0  0  0  0  0  0  0  0  0  0
   -1.4726   12.4435   -9.9943 F   0  0  0  0  0  0  0  0  0  0  0  0
   -6.0805   12.2847   -9.8696 H   0  0  0  0  0  0  0  0  0  0  0  0
   -8.2009   10.1304  -13.8894 H   0  0  0  0  0  0  0  0  0  0  0  0
   -6.8975   12.2468  -14.0866 H   0  0  0  0  0  0  0  0  0  0  0  0
   -6.3186   10.0387  -10.7555 H   0  0  0  0  0  0  0  0  0  0  0  0
   -8.0244    9.5937   -7.2566 H   0  0  0  0  0  0  0  0  0  0  0  0
   -6.7691   12.3178   -6.8996 H   0  0  0  0  0  0  0  0  0  0  0  0
   -2.6224    9.7184   -8.0524 H   0  0  0  0  0  0  0  0  0  0  0  0
   -4.8612    8.8324   -7.4857 H   0  0  0  0  0  0  0  0  0  0  0  0
   -4.8512    9.5682   -9.1243 H   0  0  0  0  0  0  0  0  0  0  0  0
   -4.6981   14.3596   -6.0088 H   0  0  0  0  0  0  0  0  0  0  0  0
   -0.3901   12.9695   -6.5854 H   0  0  0  0  0  0  0  0  0  0  0  0
   -0.7040   11.2129   -6.3795 H   0  0  0  0  0  0  0  0  0  0  0  0
   -0.6780   11.9339   -8.0245 H   0  0  0  0  0  0  0  0  0  0  0  0
   -4.0127   12.4865   -9.7901 H   0  0  0  0  0  0  0  0  0  0  0  0
   -3.9402   11.6243  -11.3642 H   0  0  0  0  0  0  0  0  0  0  0  0
   -2.1179   14.8274   -9.9186 H   0  0  0  0  0  0  0  0  0  0  0  0
   -1.3284   14.8371  -11.5320 H   0  0  0  0  0  0  0  0  0  0  0  0
   -3.3556   15.2013  -12.6480 H   0  0  0  0  0  0  0  0  0  0  0  0
   -3.9510   15.7504  -11.0446 H   0  0  0  0  0  0  0  0  0  0  0  0
  1  2  2  0  0  0  0
  1  4  1  0  0  0  0
  1 12  1  0  0  0  0
  2  6  1  0  0  0  0
  3  4  2  0  0  0  0
  3  5  1  0  0  0  0
  5  6  1  0  0  0  0
  5  9  2  0  0  0  0
  6  7  1  0  0  0  0
  7  8  2  0  0  0  0
  7 10  1  0  0  0  0
  8  9  1  0  0  0  0
 10 14  2  3  0  0  0
 11 12  1  0  0  0  0
 11 24  1  0  0  0  0
 11 27  1  0  0  0  0
 12 13  2  0  0  0  0
 14 15  1  0  0  0  0
 14 19  1  0  0  0  0
 15 16  2  0  0  0  0
 16 17  1  0  0  0  0
 16 20  1  0  0  0  0
 17 18  2  0  0  0  0
 17 22  1  0  0  0  0
 18 19  1  0  0  0  0
 20 21  2  0  0  0  0
 21 22  1  0  0  0  0
 22 23  1  0  0  0  0
 24 25  1  0  0  0  0
 25 26  1  0  0  0  0
 25 28  1  0  0  0  0
 25 29  1  0  0  0  0
 26 27  1  0  0  0  0
  2 30  1  0  0  0  0
  3 31  1  0  0  0  0
  4 32  1  0  0  0  0
  6 33  1  0  0  0  0
 10 34  1  0  0  0  0
 15 35  1  0  0  0  0
 18 36  1  0  0  0  0
 19 37  1  0  0  0  0
 19 38  1  0  0  0  0
 20 39  1  0  0  0  0
 23 40  1  0  0  0  0
 23 41  1  0  0  0  0
 23 42  1  0  0  0  0
 24 43  1  0  0  0  0
 24 44  1  0  0  0  0
 26 45  1  0  0  0  0
 26 46  1  0  0  0  0
 27 47  1  0  0  0  0
 27 48  1  0  0  0  0
M  END
> <Name>
43

> <IC50[uM]>
0.002

$$$$
43
  -OEChem-05192314333D
 Structure written by MMmdl.
 48 52  0     0  0  0  0  0  0999 V2000
   -6.3694   12.3608  -12.0100 C   0  0  0  0  0  0  0  0  0  0  0  0
   -6.5170   11.8053  -10.7333 C   0  0  0  0  0  0  0  0  0  0  0  0
   -7.7298   10.5799  -13.0278 C   0  0  0  0  0  0  0  0  0  0  0  0
   -6.9915   11.7687  -13.1228 C   0  0  0  0  0  0  0  0  0  0  0  0
   -7.8213   10.0100  -11.7550 C   0  0  0  0  0  0  0  0  0  0  0  0
   -7.2397   10.6196  -10.6003 C   0  0  0  0  0  0  0  0  0  0  0  0
   -7.6092    9.7471   -9.5124 C   0  0  0  0  0  0  0  0  0  0  0  0
   -8.2773    8.7308   -9.9855 N   0  0  0  0  0  0  0  0  0  0  0  0
   -8.4143    8.8607  -11.2979 N   0  0  0  0  0  0  0  0  0  0  0  0
   -7.3268    9.8907   -8.0257 C   0  0  0  0  0  0  0  0  0  0  0  0
   -4.3565   13.7183  -11.5055 N   0  0  0  0  0  0  0  0  0  0  0  0
   -5.5483   13.6363  -12.1897 C   0  0  0  0  0  0  0  0  0  0  0  0
   -5.9477   14.5322  -12.9368 O   0  0  0  0  0  0  0  0  0  0  0  0
   -5.9513   10.4999   -7.7281 C   0  0  0  0  0  0  0  0  0  0  0  0
   -5.8738   11.7695   -7.1531 C   0  0  0  0  0  0  0  0  0  0  0  0
   -4.6094   12.3134   -6.9136 C   0  0  0  0  0  0  0  0  0  0  0  0
   -3.4376   11.5622   -7.2444 C   0  0  0  0  0  0  0  0  0  0  0  0
   -3.5099   10.2841   -7.8101 C   0  0  0  0  0  0  0  0  0  0  0  0
   -4.7961    9.7769   -8.0457 C   0  0  0  0  0  0  0  0  0  0  0  0
   -4.0914   13.5427   -6.3707 C   0  0  0  0  0  0  0  0  0  0  0  0
   -2.7880   13.5314   -6.3772 N   0  0  0  0  0  0  0  0  0  0  0  0
   -2.3819   12.3721   -6.8788 N   0  0  0  0  0  0  0  0  0  0  0  0
   -0.9505   12.1058   -6.9728 C   0  0  0  0  0  0  0  0  0  0  0  0
   -3.7111   12.5665  -10.8449 C   0  0  0  0  0  0  0  0  0  0  0  0
   -2.2188   12.9372  -10.9792 C   0  0  0  0  0  0  0  0  0  0  0  0
   -2.1852   14.4611  -10.9536 C   0  0  0  0  0  0  0  0  0  0  0  0
   -3.5089   14.9092  -11.5986 C   0  0  0  0  0  0  0  0  0  0  0  0
   -1.7019   12.4742  -12.1199 F   0  0  0  0  0  0  0  0  0  0  0  0
   -1.4726   12.4435   -9.9943 F   0  0  0  0  0  0  0  0  0  0  0  0
   -6.0805   12.2847   -9.8696 H   0  0  0  0  0  0  0  0  0  0  0  0
   -8.7519   10.7911  -13.3751 H   0  0  0  0  0  0  0  0  0  0  0  0
   -7.2617    9.8401  -13.6938 H   0  0  0  0  0  0  0  0  0  0  0  0
   -6.8975   12.2468  -14.0866 H   0  0  0  0  0  0  0  0  0  0  0  0
   -8.0244    9.5937   -7.2566 H   0  0  0  0  0  0  0  0  0  0  0  0
   -6.7691   12.3178   -6.8996 H   0  0  0  0  0  0  0  0  0  0  0  0
   -2.6224    9.7184   -8.0524 H   0  0  0  0  0  0  0  0  0  0  0  0
   -4.8612    8.8324   -7.4857 H   0  0  0  0  0  0  0  0  0  0  0  0
   -4.8512    9.5682   -9.1243 H   0  0  0  0  0  0  0  0  0  0  0  0
   -4.6981   14.3596   -6.0088 H   0  0  0  0  0  0  0  0  0  0  0  0
   -0.3901   12.9695   -6.5854 H   0  0  0  0  0  0  0  0  0  0  0  0
   -0.7040   11.2129   -6.3795 H   0  0  0  0  0  0  0  0  0  0  0  0
   -0.6780   11.9339   -8.0245 H   0  0  0  0  0  0  0  0  0  0  0  0
   -4.0127   12.4865   -9.7901 H   0  0  0  0  0  0  0  0  0  0  0  0
   -3.9402   11.6243  -11.3642 H   0  0  0  0  0  0  0  0  0  0  0  0
   -2.1179   14.8274   -9.9186 H   0  0  0  0  0  0  0  0  0  0  0  0
   -1.3284   14.8371  -11.5320 H   0  0  0  0  0  0  0  0  0  0  0  0
   -3.3556   15.2013  -12.6480 H   0  0  0  0  0  0  0  0  0  0  0  0
   -3.9510   15.7504  -11.0446 H   0  0  0  0  0  0  0  0  0  0  0  0
  1  2  1  0  0  0  0
  1  4  2  0  0  0  0
  1 12  1  0  0  0  0
  2  6  2  0  0  0  0
  3  4  1  0  0  0  0
  3  5  1  0  0  0  0
  5  6  1  0  0  0  0
  5  9  2  0  0  0  0
  6  7  1  0  0  0  0
  7  8  2  0  0  0  0
  7 10  1  0  0  0  0
  8  9  1  0  0  0  0
 10 14  2  3  0  0  0
 11 12  1  0  0  0  0
 11 24  1  0  0  0  0
 11 27  1  0  0  0  0
 12 13  2  0  0  0  0
 14 15  1  0  0  0  0
 14 19  1  0  0  0  0
 15 16  2  0  0  0  0
 16 17  1  0  0  0  0
 16 20  1  0  0  0  0
 17 18  2  0  0  0  0
 17 22  1  0  0  0  0
 18 19  1  0  0  0  0
 20 21  2  0  0  0  0
 21 22  1  0  0  0  0
 22 23  1  0  0  0  0
 24 25  1  0  0  0  0
 25 26  1  0  0  0  0
 25 28  1  0  0  0  0
 25 29  1  0  0  0  0
 26 27  1  0  0  0  0
  2 30  1  0  0  0  0
  3 31  1  0  0  0  0
  3 32  1  0  0  0  0
  4 33  1  0  0  0  0
 10 34  1  0  0  0  0
 15 35  1  0  0  0  0
 18 36  1  0  0  0  0
 19 37  1  0  0  0  0
 19 38  1  0  0  0  0
 20 39  1  0  0  0  0
 23 40  1  0  0  0  0
 23 41  1  0  0  0  0
 23 42  1  0  0  0  0
 24 43  1  0  0  0  0
 24 44  1  0  0  0  0
 26 45  1  0  0  0  0
 26 46  1  0  0  0  0
 27 47  1  0  0  0  0
 27 48  1  0  0  0  0
M  END
> <Name>
43

> <IC50[uM]>
0.002

$$$$
43
  -OEChem-05192314333D
 Structure written by MMmdl.
 48 52  0     1  0  0  0  0  0999 V2000
   -6.3694   12.3608  -12.0100 C   0  0  0  0  0  0  0  0  0  0  0  0
   -6.5170   11.8053  -10.7333 C   0  0  0  0  0  0  0  0  0  0  0  0
   -7.7298   10.5799  -13.0278 C   0  0  0  0  0  0  0  0  0  0  0  0
   -6.9915   11.7687  -13.1228 C   0  0  0  0  0  0  0  0  0  0  0  0
   -7.8213   10.0100  -11.7550 C   0  0  3  0  0  0  0  0  0  0  0  0
   -7.2397   10.6196  -10.6003 C   0  0  0  0  0  0  0  0  0  0  0  0
   -7.6092    9.7471   -9.5124 C   0  0  0  0  0  0  0  0  0  0  0  0
   -8.2773    8.7308   -9.9855 N   0  0  0  0  0  0  0  0  0  0  0  0
   -8.4143    8.8607  -11.2979 N   0  0  0  0  0  0  0  0  0  0  0  0
   -7.3268    9.8907   -8.0257 C   0  0  0  0  0  0  0  0  0  0  0  0
   -4.3565   13.7183  -11.5055 N   0  0  0  0  0  0  0  0  0  0  0  0
   -5.5483   13.6363  -12.1897 C   0  0  0  0  0  0  0  0  0  0  0  0
   -5.9477   14.5322  -12.9368 O   0  0  0  0  0  0  0  0  0  0  0  0
   -5.9513   10.4999   -7.7281 C   0  0  0  0  0  0  0  0  0  0  0  0
   -5.8738   11.7695   -7.1531 C   0  0  0  0  0  0  0  0  0  0  0  0
   -4.6094   12.3134   -6.9136 C   0  0  0  0  0  0  0  0  0  0  0  0
   -3.4376   11.5622   -7.2444 C   0  0  0  0  0  0  0  0  0  0  0  0
   -3.5099   10.2841   -7.8101 C   0  0  0  0  0  0  0  0  0  0  0  0
   -4.7961    9.7769   -8.0457 C   0  0  0  0  0  0  0  0  0  0  0  0
   -4.0914   13.5427   -6.3707 C   0  0  0  0  0  0  0  0  0  0  0  0
   -2.7880   13.5314   -6.3772 N   0  0  0  0  0  0  0  0  0  0  0  0
   -2.3819   12.3721   -6.8788 N   0  0  0  0  0  0  0  0  0  0  0  0
   -0.9505   12.1058   -6.9728 C   0  0  0  0  0  0  0  0  0  0  0  0
   -3.7111   12.5665  -10.8449 C   0  0  0  0  0  0  0  0  0  0  0  0
   -2.2188   12.9372  -10.9792 C   0  0  0  0  0  0  0  0  0  0  0  0
   -2.1852   14.4611  -10.9536 C   0  0  0  0  0  0  0  0  0  0  0  0
   -3.5089   14.9092  -11.5986 C   0  0  0  0  0  0  0  0  0  0  0  0
   -1.7019   12.4742  -12.1199 F   0  0  0  0  0  0  0  0  0  0  0  0
   -1.4726   12.4435   -9.9943 F   0  0  0  0  0  0  0  0  0  0  0  0
   -6.0805   12.2847   -9.8696 H   0  0  0  0  0  0  0  0  0  0  0  0
   -8.2009   10.1304  -13.8894 H   0  0  0  0  0  0  0  0  0  0  0  0
   -6.8975   12.2468  -14.0866 H   0  0  0  0  0  0  0  0  0  0  0  0
   -6.8872    9.4574  -11.9345 H   0  0  0  0  0  0  0  0  0  0  0  0
   -8.0244    9.5937   -7.2566 H   0  0  0  0  0  0  0  0  0  0  0  0
   -6.7691   12.3178   -6.8996 H   0  0  0  0  0  0  0  0  0  0  0  0
   -2.6224    9.7184   -8.0524 H   0  0  0  0  0  0  0  0  0  0  0  0
   -4.8612    8.8324   -7.4857 H   0  0  0  0  0  0  0  0  0  0  0  0
   -4.8512    9.5682   -9.1243 H   0  0  0  0  0  0  0  0  0  0  0  0
   -4.6981   14.3596   -6.0088 H   0  0  0  0  0  0  0  0  0  0  0  0
   -0.3901   12.9695   -6.5854 H   0  0  0  0  0  0  0  0  0  0  0  0
   -0.7040   11.2129   -6.3795 H   0  0  0  0  0  0  0  0  0  0  0  0
   -0.6780   11.9339   -8.0245 H   0  0  0  0  0  0  0  0  0  0  0  0
   -4.0127   12.4865   -9.7901 H   0  0  0  0  0  0  0  0  0  0  0  0
   -3.9402   11.6243  -11.3642 H   0  0  0  0  0  0  0  0  0  0  0  0
   -2.1179   14.8274   -9.9186 H   0  0  0  0  0  0  0  0  0  0  0  0
   -1.3284   14.8371  -11.5320 H   0  0  0  0  0  0  0  0  0  0  0  0
   -3.3556   15.2013  -12.6480 H   0  0  0  0  0  0  0  0  0  0  0  0
   -3.9510   15.7504  -11.0446 H   0  0  0  0  0  0  0  0  0  0  0  0
  1  2  2  0  0  0  0
  1  4  1  0  0  0  0
  1 12  1  0  0  0  0
  2  6  1  0  0  0  0
  3  4  2  0  0  0  0
  3  5  1  0  0  0  0
  5  6  1  0  0  0  0
  5  9  1  0  0  0  0
  6  7  2  0  0  0  0
  7  8  1  0  0  0  0
  7 10  1  0  0  0  0
  8  9  2  0  0  0  0
 10 14  2  3  0  0  0
 11 12  1  0  0  0  0
 11 24  1  0  0  0  0
 11 27  1  0  0  0  0
 12 13  2  0  0  0  0
 14 15  1  0  0  0  0
 14 19  1  0  0  0  0
 15 16  2  0  0  0  0
 16 17  1  0  0  0  0
 16 20  1  0  0  0  0
 17 18  2  0  0  0  0
 17 22  1  0  0  0  0
 18 19  1  0  0  0  0
 20 21  2  0  0  0  0
 21 22  1  0  0  0  0
 22 23  1  0  0  0  0
 24 25  1  0  0  0  0
 25 26  1  0  0  0  0
 25 28  1  0  0  0  0
 25 29  1  0  0  0  0
 26 27  1  0  0  0  0
  2 30  1  0  0  0  0
  3 31  1  0  0  0  0
  4 32  1  0  0  0  0
  5 33  1  0  0  0  0
 10 34  1  0  0  0  0
 15 35  1  0  0  0  0
 18 36  1  0  0  0  0
 19 37  1  0  0  0  0
 19 38  1  0  0  0  0
 20 39  1  0  0  0  0
 23 40  1  0  0  0  0
 23 41  1  0  0  0  0
 23 42  1  0  0  0  0
 24 43  1  0  0  0  0
 24 44  1  0  0  0  0
 26 45  1  0  0  0  0
 26 46  1  0  0  0  0
 27 47  1  0  0  0  0
 27 48  1  0  0  0  0
M  END
> <Name>
43

> <IC50[uM]>
0.002

$$$$
43
  -OEChem-05192314333D
 Structure written by MMmdl.
 48 52  0     0  0  0  0  0  0999 V2000
   -6.3694   12.3608  -12.0100 C   0  0  0  0  0  0  0  0  0  0  0  0
   -6.5170   11.8053  -10.7333 C   0  0  0  0  0  0  0  0  0  0  0  0
   -7.7298   10.5799  -13.0278 C   0  0  0  0  0  0  0  0  0  0  0  0
   -6.9915   11.7687  -13.1228 C   0  0  0  0  0  0  0  0  0  0  0  0
   -7.8213   10.0100  -11.7550 C   0  0  0  0  0  0  0  0  0  0  0  0
   -7.2397   10.6196  -10.6003 C   0  0  0  0  0  0  0  0  0  0  0  0
   -7.6092    9.7471   -9.5124 C   0  0  0  0  0  0  0  0  0  0  0  0
   -8.2773    8.7308   -9.9855 N   0  0  0  0  0  0  0  0  0  0  0  0
   -8.4143    8.8607  -11.2979 N   0  0  0  0  0  0  0  0  0  0  0  0
   -7.3268    9.8907   -8.0257 C   0  0  0  0  0  0  0  0  0  0  0  0
   -4.3565   13.7183  -11.5055 N   0  0  0  0  0  0  0  0  0  0  0  0
   -5.5483   13.6363  -12.1897 C   0  0  0  0  0  0  0  0  0  0  0  0
   -5.9477   14.5322  -12.9368 O   0  0  0  0  0  0  0  0  0  0  0  0
   -5.9513   10.4999   -7.7281 C   0  0  0  0  0  0  0  0  0  0  0  0
   -5.8738   11.7695   -7.1531 C   0  0  0  0  0  0  0  0  0  0  0  0
   -4.6094   12.3134   -6.9136 C   0  0  0  0  0  0  0  0  0  0  0  0
   -3.4376   11.5622   -7.2444 C   0  0  0  0  0  0  0  0  0  0  0  0
   -3.5099   10.2841   -7.8101 C   0  0  0  0  0  0  0  0  0  0  0  0
   -4.7961    9.7769   -8.0457 C   0  0  0  0  0  0  0  0  0  0  0  0
   -4.0914   13.5427   -6.3707 C   0  0  0  0  0  0  0  0  0  0  0  0
   -2.7880   13.5314   -6.3772 N   0  0  0  0  0  0  0  0  0  0  0  0
   -2.3819   12.3721   -6.8788 N   0  0  0  0  0  0  0  0  0  0  0  0
   -0.9505   12.1058   -6.9728 C   0  0  0  0  0  0  0  0  0  0  0  0
   -3.7111   12.5665  -10.8449 C   0  0  0  0  0  0  0  0  0  0  0  0
   -2.2188   12.9372  -10.9792 C   0  0  0  0  0  0  0  0  0  0  0  0
   -2.1852   14.4611  -10.9536 C   0  0  0  0  0  0  0  0  0  0  0  0
   -3.5089   14.9092  -11.5986 C   0  0  0  0  0  0  0  0  0  0  0  0
   -1.7019   12.4742  -12.1199 F   0  0  0  0  0  0  0  0  0  0  0  0
   -1.4726   12.4435   -9.9943 F   0  0  0  0  0  0  0  0  0  0  0  0
   -6.0805   12.2847   -9.8696 H   0  0  0  0  0  0  0  0  0  0  0  0
   -8.2009   10.1304  -13.8894 H   0  0  0  0  0  0  0  0  0  0  0  0
   -7.6806   12.5252  -13.5263 H   0  0  0  0  0  0  0  0  0  0  0  0
   -6.1919   11.5745  -13.8528 H   0  0  0  0  0  0  0  0  0  0  0  0
   -8.0244    9.5937   -7.2566 H   0  0  0  0  0  0  0  0  0  0  0  0
   -6.7691   12.3178   -6.8996 H   0  0  0  0  0  0  0  0  0  0  0  0
   -2.6224    9.7184   -8.0524 H   0  0  0  0  0  0  0  0  0  0  0  0
   -4.8612    8.8324   -7.4857 H   0  0  0  0  0  0  0  0  0  0  0  0
   -4.8512    9.5682   -9.1243 H   0  0  0  0  0  0  0  0  0  0  0  0
   -4.6981   14.3596   -6.0088 H   0  0  0  0  0  0  0  0  0  0  0  0
   -0.3901   12.9695   -6.5854 H   0  0  0  0  0  0  0  0  0  0  0  0
   -0.7040   11.2129   -6.3795 H   0  0  0  0  0  0  0  0  0  0  0  0
   -0.6780   11.9339   -8.0245 H   0  0  0  0  0  0  0  0  0  0  0  0
   -4.0127   12.4865   -9.7901 H   0  0  0  0  0  0  0  0  0  0  0  0
   -3.9402   11.6243  -11.3642 H   0  0  0  0  0  0  0  0  0  0  0  0
   -2.1179   14.8274   -9.9186 H   0  0  0  0  0  0  0  0  0  0  0  0
   -1.3284   14.8371  -11.5320 H   0  0  0  0  0  0  0  0  0  0  0  0
   -3.3556   15.2013  -12.6480 H   0  0  0  0  0  0  0  0  0  0  0  0
   -3.9510   15.7504  -11.0446 H   0  0  0  0  0  0  0  0  0  0  0  0
  1  2  2  0  0  0  0
  1  4  1  0  0  0  0
  1 12  1  0  0  0  0
  2  6  1  0  0  0  0
  3  4  1  0  0  0  0
  3  5  2  0  0  0  0
  5  6  1  0  0  0  0
  5  9  1  0  0  0  0
  6  7  2  0  0  0  0
  7  8  1  0  0  0  0
  7 10  1  0  0  0  0
  8  9  2  0  0  0  0
 10 14  2  3  0  0  0
 11 12  1  0  0  0  0
 11 24  1  0  0  0  0
 11 27  1  0  0  0  0
 12 13  2  0  0  0  0
 14 15  1  0  0  0  0
 14 19  1  0  0  0  0
 15 16  2  0  0  0  0
 16 17  1  0  0  0  0
 16 20  1  0  0  0  0
 17 18  2  0  0  0  0
 17 22  1  0  0  0  0
 18 19  1  0  0  0  0
 20 21  2  0  0  0  0
 21 22  1  0  0  0  0
 22 23  1  0  0  0  0
 24 25  1  0  0  0  0
 25 26  1  0  0  0  0
 25 28  1  0  0  0  0
 25 29  1  0  0  0  0
 26 27  1  0  0  0  0
  2 30  1  0  0  0  0
  3 31  1  0  0  0  0
  4 32  1  0  0  0  0
  4 33  1  0  0  0  0
 10 34  1  0  0  0  0
 15 35  1  0  0  0  0
 18 36  1  0  0  0  0
 19 37  1  0  0  0  0
 19 38  1  0  0  0  0
 20 39  1  0  0  0  0
 23 40  1  0  0  0  0
 23 41  1  0  0  0  0
 23 42  1  0  0  0  0
 24 43  1  0  0  0  0
 24 44  1  0  0  0  0
 26 45  1  0  0  0  0
 26 46  1  0  0  0  0
 27 47  1  0  0  0  0
 27 48  1  0  0  0  0
M  END
> <Name>
43

> <IC50[uM]>
0.002

$$$$
43
  -OEChem-05192314333D
 Structure written by MMmdl.
 48 52  0     0  0  0  0  0  0999 V2000
   -6.3694   12.3608  -12.0100 C   0  0  0  0  0  0  0  0  0  0  0  0
   -6.5170   11.8053  -10.7333 C   0  0  0  0  0  0  0  0  0  0  0  0
   -7.7298   10.5799  -13.0278 C   0  0  0  0  0  0  0  0  0  0  0  0
   -6.9915   11.7687  -13.1228 C   0  0  0  0  0  0  0  0  0  0  0  0
   -7.8213   10.0100  -11.7550 C   0  0  0  0  0  0  0  0  0  0  0  0
   -7.2397   10.6196  -10.6003 C   0  0  0  0  0  0  0  0  0  0  0  0
   -7.6092    9.7471   -9.5124 C   0  0  0  0  0  0  0  0  0  0  0  0
   -8.2773    8.7308   -9.9855 N   0  0  0  0  0  0  0  0  0  0  0  0
   -8.4143    8.8607  -11.2979 N   0  0  0  0  0  0  0  0  0  0  0  0
   -7.3268    9.8907   -8.0257 C   0  0  0  0  0  0  0  0  0  0  0  0
   -4.3565   13.7183  -11.5055 N   0  0  0  0  0  0  0  0  0  0  0  0
   -5.5483   13.6363  -12.1897 C   0  0  0  0  0  0  0  0  0  0  0  0
   -5.9477   14.5322  -12.9368 O   0  0  0  0  0  0  0  0  0  0  0  0
   -5.9513   10.4999   -7.7281 C   0  0  0  0  0  0  0  0  0  0  0  0
   -5.8738   11.7695   -7.1531 C   0  0  0  0  0  0  0  0  0  0  0  0
   -4.6094   12.3134   -6.9136 C   0  0  0  0  0  0  0  0  0  0  0  0
   -3.4376   11.5622   -7.2444 C   0  0  0  0  0  0  0  0  0  0  0  0
   -3.5099   10.2841   -7.8101 C   0  0  0  0  0  0  0  0  0  0  0  0
   -4.7961    9.7769   -8.0457 C   0  0  0  0  0  0  0  0  0  0  0  0
   -4.0914   13.5427   -6.3707 C   0  0  0  0  0  0  0  0  0  0  0  0
   -2.7880   13.5314   -6.3772 N   0  0  0  0  0  0  0  0  0  0  0  0
   -2.3819   12.3721   -6.8788 N   0  0  0  0  0  0  0  0  0  0  0  0
   -0.9505   12.1058   -6.9728 C   0  0  0  0  0  0  0  0  0  0  0  0
   -3.7111   12.5665  -10.8449 C   0  0  0  0  0  0  0  0  0  0  0  0
   -2.2188   12.9372  -10.9792 C   0  0  0  0  0  0  0  0  0  0  0  0
   -2.1852   14.4611  -10.9536 C   0  0  0  0  0  0  0  0  0  0  0  0
   -3.5089   14.9092  -11.5986 C   0  0  0  0  0  0  0  0  0  0  0  0
   -1.7019   12.4742  -12.1199 F   0  0  0  0  0  0  0  0  0  0  0  0
   -1.4726   12.4435   -9.9943 F   0  0  0  0  0  0  0  0  0  0  0  0
   -5.5061   11.6142  -10.3440 H   0  0  0  0  0  0  0  0  0  0  0  0
   -7.0145   12.5602  -10.1068 H   0  0  0  0  0  0  0  0  0  0  0  0
   -8.2009   10.1304  -13.8894 H   0  0  0  0  0  0  0  0  0  0  0  0
   -6.8975   12.2468  -14.0866 H   0  0  0  0  0  0  0  0  0  0  0  0
   -8.0244    9.5937   -7.2566 H   0  0  0  0  0  0  0  0  0  0  0  0
   -6.7691   12.3178   -6.8996 H   0  0  0  0  0  0  0  0  0  0  0  0
   -2.6224    9.7184   -8.0524 H   0  0  0  0  0  0  0  0  0  0  0  0
   -4.8612    8.8324   -7.4857 H   0  0  0  0  0  0  0  0  0  0  0  0
   -4.8512    9.5682   -9.1243 H   0  0  0  0  0  0  0  0  0  0  0  0
   -4.6981   14.3596   -6.0088 H   0  0  0  0  0  0  0  0  0  0  0  0
   -0.3901   12.9695   -6.5854 H   0  0  0  0  0  0  0  0  0  0  0  0
   -0.7040   11.2129   -6.3795 H   0  0  0  0  0  0  0  0  0  0  0  0
   -0.6780   11.9339   -8.0245 H   0  0  0  0  0  0  0  0  0  0  0  0
   -4.0127   12.4865   -9.7901 H   0  0  0  0  0  0  0  0  0  0  0  0
   -3.9402   11.6243  -11.3642 H   0  0  0  0  0  0  0  0  0  0  0  0
   -2.1179   14.8274   -9.9186 H   0  0  0  0  0  0  0  0  0  0  0  0
   -1.3284   14.8371  -11.5320 H   0  0  0  0  0  0  0  0  0  0  0  0
   -3.3556   15.2013  -12.6480 H   0  0  0  0  0  0  0  0  0  0  0  0
   -3.9510   15.7504  -11.0446 H   0  0  0  0  0  0  0  0  0  0  0  0
  1  2  1  0  0  0  0
  1  4  2  0  0  0  0
  1 12  1  0  0  0  0
  2  6  1  0  0  0  0
  3  4  1  0  0  0  0
  3  5  2  0  0  0  0
  5  6  1  0  0  0  0
  5  9  1  0  0  0  0
  6  7  2  0  0  0  0
  7  8  1  0  0  0  0
  7 10  1  0  0  0  0
  8  9  2  0  0  0  0
 10 14  2  3  0  0  0
 11 12  1  0  0  0  0
 11 24  1  0  0  0  0
 11 27  1  0  0  0  0
 12 13  2  0  0  0  0
 14 15  1  0  0  0  0
 14 19  1  0  0  0  0
 15 16  2  0  0  0  0
 16 17  1  0  0  0  0
 16 20  1  0  0  0  0
 17 18  2  0  0  0  0
 17 22  1  0  0  0  0
 18 19  1  0  0  0  0
 20 21  2  0  0  0  0
 21 22  1  0  0  0  0
 22 23  1  0  0  0  0
 24 25  1  0  0  0  0
 25 26  1  0  0  0  0
 25 28  1  0  0  0  0
 25 29  1  0  0  0  0
 26 27  1  0  0  0  0
  2 30  1  0  0  0  0
  2 31  1  0  0  0  0
  3 32  1  0  0  0  0
  4 33  1  0  0  0  0
 10 34  1  0  0  0  0
 15 35  1  0  0  0  0
 18 36  1  0  0  0  0
 19 37  1  0  0  0  0
 19 38  1  0  0  0  0
 20 39  1  0  0  0  0
 23 40  1  0  0  0  0
 23 41  1  0  0  0  0
 23 42  1  0  0  0  0
 24 43  1  0  0  0  0
 24 44  1  0  0  0  0
 26 45  1  0  0  0  0
 26 46  1  0  0  0  0
 27 47  1  0  0  0  0
 27 48  1  0  0  0  0
M  END
> <Name>
43

> <IC50[uM]>
0.002

$$$$
43
  -OEChem-05192314333D
 Structure written by MMmdl.
 48 52  0     1  0  0  0  0  0999 V2000
   -6.3694   12.3608  -12.0100 C   0  0  3  0  0  0  0  0  0  0  0  0
   -6.5170   11.8053  -10.7333 C   0  0  0  0  0  0  0  0  0  0  0  0
   -7.7298   10.5799  -13.0278 C   0  0  0  0  0  0  0  0  0  0  0  0
   -6.9915   11.7687  -13.1228 C   0  0  0  0  0  0  0  0  0  0  0  0
   -7.8213   10.0100  -11.7550 C   0  0  0  0  0  0  0  0  0  0  0  0
   -7.2397   10.6196  -10.6003 C   0  0  0  0  0  0  0  0  0  0  0  0
   -7.6092    9.7471   -9.5124 C   0  0  0  0  0  0  0  0  0  0  0  0
   -8.2773    8.7308   -9.9855 N   0  0  0  0  0  0  0  0  0  0  0  0
   -8.4143    8.8607  -11.2979 N   0  0  0  0  0  0  0  0  0  0  0  0
   -7.3268    9.8907   -8.0257 C   0  0  0  0  0  0  0  0  0  0  0  0
   -4.3565   13.7183  -11.5055 N   0  0  0  0  0  0  0  0  0  0  0  0
   -5.5483   13.6363  -12.1897 C   0  0  0  0  0  0  0  0  0  0  0  0
   -5.9477   14.5322  -12.9368 O   0  0  0  0  0  0  0  0  0  0  0  0
   -5.9513   10.4999   -7.7281 C   0  0  0  0  0  0  0  0  0  0  0  0
   -5.8738   11.7695   -7.1531 C   0  0  0  0  0  0  0  0  0  0  0  0
   -4.6094   12.3134   -6.9136 C   0  0  0  0  0  0  0  0  0  0  0  0
   -3.4376   11.5622   -7.2444 C   0  0  3  0  0  0  0  0  0  0  0  0
   -3.5099   10.2841   -7.8101 C   0  0  0  0  0  0  0  0  0  0  0  0
   -4.7961    9.7769   -8.0457 C   0  0  0  0  0  0  0  0  0  0  0  0
   -4.0914   13.5427   -6.3707 C   0  0  0  0  0  0  0  0  0  0  0  0
   -2.7880   13.5314   -6.3772 N   0  0  0  0  0  0  0  0  0  0  0  0
   -2.3819   12.3721   -6.8788 N   0  0  3  0  0  0  0  0  0  0  0  0
   -0.9505   12.1058   -6.9728 C   0  0  0  0  0  0  0  0  0  0  0  0
   -3.7111   12.5665  -10.8449 C   0  0  0  0  0  0  0  0  0  0  0  0
   -2.2188   12.9372  -10.9792 C   0  0  0  0  0  0  0  0  0  0  0  0
   -2.1852   14.4611  -10.9536 C   0  0  0  0  0  0  0  0  0  0  0  0
   -3.5089   14.9092  -11.5986 C   0  0  0  0  0  0  0  0  0  0  0  0
   -1.7019   12.4742  -12.1199 F   0  0  0  0  0  0  0  0  0  0  0  0
   -1.4726   12.4435   -9.9943 F   0  0  0  0  0  0  0  0  0  0  0  0
   -5.4701   11.7504  -12.1792 H   0  0  0  0  0  0  0  0  0  0  0  0
   -6.0805   12.2847   -9.8696 H   0  0  0  0  0  0  0  0  0  0  0  0
   -8.2009   10.1304  -13.8894 H   0  0  0  0  0  0  0  0  0  0  0  0
   -6.8975   12.2468  -14.0866 H   0  0  0  0  0  0  0  0  0  0  0  0
   -8.0244    9.5937   -7.2566 H   0  0  0  0  0  0  0  0  0  0  0  0
   -6.7691   12.3178   -6.8996 H   0  0  0  0  0  0  0  0  0  0  0  0
   -3.4337   12.0085   -8.2498 H   0  0  0  0  0  0  0  0  0  0  0  0
   -2.6224    9.7184   -8.0524 H   0  0  0  0  0  0  0  0  0  0  0  0
   -4.8983    8.7963   -8.4866 H   0  0  0  0  0  0  0  0  0  0  0  0
   -4.6981   14.3596   -6.0088 H   0  0  0  0  0  0  0  0  0  0  0  0
   -0.3901   12.9695   -6.5854 H   0  0  0  0  0  0  0  0  0  0  0  0
   -0.7040   11.2129   -6.3795 H   0  0  0  0  0  0  0  0  0  0  0  0
   -0.6780   11.9339   -8.0245 H   0  0  0  0  0  0  0  0  0  0  0  0
   -4.0127   12.4865   -9.7901 H   0  0  0  0  0  0  0  0  0  0  0  0
   -3.9402   11.6243  -11.3642 H   0  0  0  0  0  0  0  0  0  0  0  0
   -2.1179   14.8274   -9.9186 H   0  0  0  0  0  0  0  0  0  0  0  0
   -1.3284   14.8371  -11.5320 H   0  0  0  0  0  0  0  0  0  0  0  0
   -3.3556   15.2013  -12.6480 H   0  0  0  0  0  0  0  0  0  0  0  0
   -3.9510   15.7504  -11.0446 H   0  0  0  0  0  0  0  0  0  0  0  0
  1  2  1  0  0  0  0
  1  4  1  0  0  0  0
  1 12  1  0  0  0  0
  2  6  2  0  0  0  0
  3  4  2  0  0  0  0
  3  5  1  0  0  0  0
  5  6  1  0  0  0  0
  5  9  2  0  0  0  0
  6  7  1  0  0  0  0
  7  8  2  0  0  0  0
  7 10  1  0  0  0  0
  8  9  1  0  0  0  0
 10 14  2  3  0  0  0
 11 12  1  0  0  0  0
 11 24  1  0  0  0  0
 11 27  1  0  0  0  0
 12 13  2  0  0  0  0
 14 15  1  0  0  0  0
 14 19  1  0  0  0  0
 15 16  2  0  0  0  0
 16 17  1  0  0  0  0
 16 20  1  0  0  0  0
 17 18  1  0  0  0  0
 17 22  1  0  0  0  0
 18 19  2  0  0  0  0
 20 21  2  0  0  0  0
 21 22  1  0  0  0  0
 22 23  1  0  0  0  0
 24 25  1  0  0  0  0
 25 26  1  0  0  0  0
 25 28  1  0  0  0  0
 25 29  1  0  0  0  0
 26 27  1  0  0  0  0
  1 30  1  0  0  0  0
  2 31  1  0  0  0  0
  3 32  1  0  0  0  0
  4 33  1  0  0  0  0
 10 34  1  0  0  0  0
 15 35  1  0  0  0  0
 17 36  1  0  0  0  0
 18 37  1  0  0  0  0
 19 38  1  0  0  0  0
 20 39  1  0  0  0  0
 23 40  1  0  0  0  0
 23 41  1  0  0  0  0
 23 42  1  0  0  0  0
 24 43  1  0  0  0  0
 24 44  1  0  0  0  0
 26 45  1  0  0  0  0
 26 46  1  0  0  0  0
 27 47  1  0  0  0  0
 27 48  1  0  0  0  0
M  END
> <Name>
43

> <IC50[uM]>
0.002

$$$$
43
  -OEChem-05192314333D
 Structure written by MMmdl.
 48 52  0     1  0  0  0  0  0999 V2000
   -6.3694   12.3608  -12.0100 C   0  0  0  0  0  0  0  0  0  0  0  0
   -6.5170   11.8053  -10.7333 C   0  0  0  0  0  0  0  0  0  0  0  0
   -7.7298   10.5799  -13.0278 C   0  0  0  0  0  0  0  0  0  0  0  0
   -6.9915   11.7687  -13.1228 C   0  0  0  0  0  0  0  0  0  0  0  0
   -7.8213   10.0100  -11.7550 C   0  0  0  0  0  0  0  0  0  0  0  0
   -7.2397   10.6196  -10.6003 C   0  0  3  0  0  0  0  0  0  0  0  0
   -7.6092    9.7471   -9.5124 C   0  0  0  0  0  0  0  0  0  0  0  0
   -8.2773    8.7308   -9.9855 N   0  0  0  0  0  0  0  0  0  0  0  0
   -8.4143    8.8607  -11.2979 N   0  0  0  0  0  0  0  0  0  0  0  0
   -7.3268    9.8907   -8.0257 C   0  0  0  0  0  0  0  0  0  0  0  0
   -4.3565   13.7183  -11.5055 N   0  0  0  0  0  0  0  0  0  0  0  0
   -5.5483   13.6363  -12.1897 C   0  0  0  0  0  0  0  0  0  0  0  0
   -5.9477   14.5322  -12.9368 O   0  0  0  0  0  0  0  0  0  0  0  0
   -5.9513   10.4999   -7.7281 C   0  0  0  0  0  0  0  0  0  0  0  0
   -5.8738   11.7695   -7.1531 C   0  0  0  0  0  0  0  0  0  0  0  0
   -4.6094   12.3134   -6.9136 C   0  0  0  0  0  0  0  0  0  0  0  0
   -3.4376   11.5622   -7.2444 C   0  0  3  0  0  0  0  0  0  0  0  0
   -3.5099   10.2841   -7.8101 C   0  0  0  0  0  0  0  0  0  0  0  0
   -4.7961    9.7769   -8.0457 C   0  0  0  0  0  0  0  0  0  0  0  0
   -4.0914   13.5427   -6.3707 C   0  0  0  0  0  0  0  0  0  0  0  0
   -2.7880   13.5314   -6.3772 N   0  0  0  0  0  0  0  0  0  0  0  0
   -2.3819   12.3721   -6.8788 N   0  0  3  0  0  0  0  0  0  0  0  0
   -0.9505   12.1058   -6.9728 C   0  0  0  0  0  0  0  0  0  0  0  0
   -3.7111   12.5665  -10.8449 C   0  0  0  0  0  0  0  0  0  0  0  0
   -2.2188   12.9372  -10.9792 C   0  0  0  0  0  0  0  0  0  0  0  0
   -2.1852   14.4611  -10.9536 C   0  0  0  0  0  0  0  0  0  0  0  0
   -3.5089   14.9092  -11.5986 C   0  0  0  0  0  0  0  0  0  0  0  0
   -1.7019   12.4742  -12.1199 F   0  0  0  0  0  0  0  0  0  0  0  0
   -1.4726   12.4435   -9.9943 F   0  0  0  0  0  0  0  0  0  0  0  0
   -6.0805   12.2847   -9.8696 H   0  0  0  0  0  0  0  0  0  0  0  0
   -8.2009   10.1304  -13.8894 H   0  0  0  0  0  0  0  0  0  0  0  0
   -6.8975   12.2468  -14.0866 H   0  0  0  0  0  0  0  0  0  0  0  0
   -6.3186   10.0387  -10.7555 H   0  0  0  0  0  0  0  0  0  0  0  0
   -8.0244    9.5937   -7.2566 H   0  0  0  0  0  0  0  0  0  0  0  0
   -6.7691   12.3178   -6.8996 H   0  0  0  0  0  0  0  0  0  0  0  0
   -3.4337   12.0085   -8.2498 H   0  0  0  0  0  0  0  0  0  0  0  0
   -2.6224    9.7184   -8.0524 H   0  0  0  0  0  0  0  0  0  0  0  0
   -4.8983    8.7963   -8.4866 H   0  0  0  0  0  0  0  0  0  0  0  0
   -4.6981   14.3596   -6.0088 H   0  0  0  0  0  0  0  0  0  0  0  0
   -0.3901   12.9695   -6.5854 H   0  0  0  0  0  0  0  0  0  0  0  0
   -0.7040   11.2129   -6.3795 H   0  0  0  0  0  0  0  0  0  0  0  0
   -0.6780   11.9339   -8.0245 H   0  0  0  0  0  0  0  0  0  0  0  0
   -4.0127   12.4865   -9.7901 H   0  0  0  0  0  0  0  0  0  0  0  0
   -3.9402   11.6243  -11.3642 H   0  0  0  0  0  0  0  0  0  0  0  0
   -2.1179   14.8274   -9.9186 H   0  0  0  0  0  0  0  0  0  0  0  0
   -1.3284   14.8371  -11.5320 H   0  0  0  0  0  0  0  0  0  0  0  0
   -3.3556   15.2013  -12.6480 H   0  0  0  0  0  0  0  0  0  0  0  0
   -3.9510   15.7504  -11.0446 H   0  0  0  0  0  0  0  0  0  0  0  0
  1  2  2  0  0  0  0
  1  4  1  0  0  0  0
  1 12  1  0  0  0  0
  2  6  1  0  0  0  0
  3  4  2  0  0  0  0
  3  5  1  0  0  0  0
  5  6  1  0  0  0  0
  5  9  2  0  0  0  0
  6  7  1  0  0  0  0
  7  8  2  0  0  0  0
  7 10  1  0  0  0  0
  8  9  1  0  0  0  0
 10 14  2  3  0  0  0
 11 12  1  0  0  0  0
 11 24  1  0  0  0  0
 11 27  1  0  0  0  0
 12 13  2  0  0  0  0
 14 15  1  0  0  0  0
 14 19  1  0  0  0  0
 15 16  2  0  0  0  0
 16 17  1  0  0  0  0
 16 20  1  0  0  0  0
 17 18  1  0  0  0  0
 17 22  1  0  0  0  0
 18 19  2  0  0  0  0
 20 21  2  0  0  0  0
 21 22  1  0  0  0  0
 22 23  1  0  0  0  0
 24 25  1  0  0  0  0
 25 26  1  0  0  0  0
 25 28  1  0  0  0  0
 25 29  1  0  0  0  0
 26 27  1  0  0  0  0
  2 30  1  0  0  0  0
  3 31  1  0  0  0  0
  4 32  1  0  0  0  0
  6 33  1  0  0  0  0
 10 34  1  0  0  0  0
 15 35  1  0  0  0  0
 17 36  1  0  0  0  0
 18 37  1  0  0  0  0
 19 38  1  0  0  0  0
 20 39  1  0  0  0  0
 23 40  1  0  0  0  0
 23 41  1  0  0  0  0
 23 42  1  0  0  0  0
 24 43  1  0  0  0  0
 24 44  1  0  0  0  0
 26 45  1  0  0  0  0
 26 46  1  0  0  0  0
 27 47  1  0  0  0  0
 27 48  1  0  0  0  0
M  END
> <Name>
43

> <IC50[uM]>
0.002

$$$$
43
  -OEChem-05192314333D
 Structure written by MMmdl.
 48 52  0     1  0  0  0  0  0999 V2000
   -6.3694   12.3608  -12.0100 C   0  0  0  0  0  0  0  0  0  0  0  0
   -6.5170   11.8053  -10.7333 C   0  0  0  0  0  0  0  0  0  0  0  0
   -7.7298   10.5799  -13.0278 C   0  0  0  0  0  0  0  0  0  0  0  0
   -6.9915   11.7687  -13.1228 C   0  0  0  0  0  0  0  0  0  0  0  0
   -7.8213   10.0100  -11.7550 C   0  0  0  0  0  0  0  0  0  0  0  0
   -7.2397   10.6196  -10.6003 C   0  0  0  0  0  0  0  0  0  0  0  0
   -7.6092    9.7471   -9.5124 C   0  0  0  0  0  0  0  0  0  0  0  0
   -8.2773    8.7308   -9.9855 N   0  0  0  0  0  0  0  0  0  0  0  0
   -8.4143    8.8607  -11.2979 N   0  0  0  0  0  0  0  0  0  0  0  0
   -7.3268    9.8907   -8.0257 C   0  0  0  0  0  0  0  0  0  0  0  0
   -4.3565   13.7183  -11.5055 N   0  0  0  0  0  0  0  0  0  0  0  0
   -5.5483   13.6363  -12.1897 C   0  0  0  0  0  0  0  0  0  0  0  0
   -5.9477   14.5322  -12.9368 O   0  0  0  0  0  0  0  0  0  0  0  0
   -5.9513   10.4999   -7.7281 C   0  0  0  0  0  0  0  0  0  0  0  0
   -5.8738   11.7695   -7.1531 C   0  0  0  0  0  0  0  0  0  0  0  0
   -4.6094   12.3134   -6.9136 C   0  0  0  0  0  0  0  0  0  0  0  0
   -3.4376   11.5622   -7.2444 C   0  0  3  0  0  0  0  0  0  0  0  0
   -3.5099   10.2841   -7.8101 C   0  0  0  0  0  0  0  0  0  0  0  0
   -4.7961    9.7769   -8.0457 C   0  0  0  0  0  0  0  0  0  0  0  0
   -4.0914   13.5427   -6.3707 C   0  0  0  0  0  0  0  0  0  0  0  0
   -2.7880   13.5314   -6.3772 N   0  0  0  0  0  0  0  0  0  0  0  0
   -2.3819   12.3721   -6.8788 N   0  0  3  0  0  0  0  0  0  0  0  0
   -0.9505   12.1058   -6.9728 C   0  0  0  0  0  0  0  0  0  0  0  0
   -3.7111   12.5665  -10.8449 C   0  0  0  0  0  0  0  0  0  0  0  0
   -2.2188   12.9372  -10.9792 C   0  0  0  0  0  0  0  0  0  0  0  0
   -2.1852   14.4611  -10.9536 C   0  0  0  0  0  0  0  0  0  0  0  0
   -3.5089   14.9092  -11.5986 C   0  0  0  0  0  0  0  0  0  0  0  0
   -1.7019   12.4742  -12.1199 F   0  0  0  0  0  0  0  0  0  0  0  0
   -1.4726   12.4435   -9.9943 F   0  0  0  0  0  0  0  0  0  0  0  0
   -6.0805   12.2847   -9.8696 H   0  0  0  0  0  0  0  0  0  0  0  0
   -8.7519   10.7911  -13.3751 H   0  0  0  0  0  0  0  0  0  0  0  0
   -7.2617    9.8401  -13.6938 H   0  0  0  0  0  0  0  0  0  0  0  0
   -6.8975   12.2468  -14.0866 H   0  0  0  0  0  0  0  0  0  0  0  0
   -8.0244    9.5937   -7.2566 H   0  0  0  0  0  0  0  0  0  0  0  0
   -6.7691   12.3178   -6.8996 H   0  0  0  0  0  0  0  0  0  0  0  0
   -3.4337   12.0085   -8.2498 H   0  0  0  0  0  0  0  0  0  0  0  0
   -2.6224    9.7184   -8.0524 H   0  0  0  0  0  0  0  0  0  0  0  0
   -4.8983    8.7963   -8.4866 H   0  0  0  0  0  0  0  0  0  0  0  0
   -4.6981   14.3596   -6.0088 H   0  0  0  0  0  0  0  0  0  0  0  0
   -0.3901   12.9695   -6.5854 H   0  0  0  0  0  0  0  0  0  0  0  0
   -0.7040   11.2129   -6.3795 H   0  0  0  0  0  0  0  0  0  0  0  0
   -0.6780   11.9339   -8.0245 H   0  0  0  0  0  0  0  0  0  0  0  0
   -4.0127   12.4865   -9.7901 H   0  0  0  0  0  0  0  0  0  0  0  0
   -3.9402   11.6243  -11.3642 H   0  0  0  0  0  0  0  0  0  0  0  0
   -2.1179   14.8274   -9.9186 H   0  0  0  0  0  0  0  0  0  0  0  0
   -1.3284   14.8371  -11.5320 H   0  0  0  0  0  0  0  0  0  0  0  0
   -3.3556   15.2013  -12.6480 H   0  0  0  0  0  0  0  0  0  0  0  0
   -3.9510   15.7504  -11.0446 H   0  0  0  0  0  0  0  0  0  0  0  0
  1  2  1  0  0  0  0
  1  4  2  0  0  0  0
  1 12  1  0  0  0  0
  2  6  2  0  0  0  0
  3  4  1  0  0  0  0
  3  5  1  0  0  0  0
  5  6  1  0  0  0  0
  5  9  2  0  0  0  0
  6  7  1  0  0  0  0
  7  8  2  0  0  0  0
  7 10  1  0  0  0  0
  8  9  1  0  0  0  0
 10 14  2  3  0  0  0
 11 12  1  0  0  0  0
 11 24  1  0  0  0  0
 11 27  1  0  0  0  0
 12 13  2  0  0  0  0
 14 15  1  0  0  0  0
 14 19  1  0  0  0  0
 15 16  2  0  0  0  0
 16 17  1  0  0  0  0
 16 20  1  0  0  0  0
 17 18  1  0  0  0  0
 17 22  1  0  0  0  0
 18 19  2  0  0  0  0
 20 21  2  0  0  0  0
 21 22  1  0  0  0  0
 22 23  1  0  0  0  0
 24 25  1  0  0  0  0
 25 26  1  0  0  0  0
 25 28  1  0  0  0  0
 25 29  1  0  0  0  0
 26 27  1  0  0  0  0
  2 30  1  0  0  0  0
  3 31  1  0  0  0  0
  3 32  1  0  0  0  0
  4 33  1  0  0  0  0
 10 34  1  0  0  0  0
 15 35  1  0  0  0  0
 17 36  1  0  0  0  0
 18 37  1  0  0  0  0
 19 38  1  0  0  0  0
 20 39  1  0  0  0  0
 23 40  1  0  0  0  0
 23 41  1  0  0  0  0
 23 42  1  0  0  0  0
 24 43  1  0  0  0  0
 24 44  1  0  0  0  0
 26 45  1  0  0  0  0
 26 46  1  0  0  0  0
 27 47  1  0  0  0  0
 27 48  1  0  0  0  0
M  END
> <Name>
43

> <IC50[uM]>
0.002

$$$$
43
  -OEChem-05192314333D
 Structure written by MMmdl.
 48 52  0     1  0  0  0  0  0999 V2000
   -6.3694   12.3608  -12.0100 C   0  0  0  0  0  0  0  0  0  0  0  0
   -6.5170   11.8053  -10.7333 C   0  0  0  0  0  0  0  0  0  0  0  0
   -7.7298   10.5799  -13.0278 C   0  0  0  0  0  0  0  0  0  0  0  0
   -6.9915   11.7687  -13.1228 C   0  0  0  0  0  0  0  0  0  0  0  0
   -7.8213   10.0100  -11.7550 C   0  0  3  0  0  0  0  0  0  0  0  0
   -7.2397   10.6196  -10.6003 C   0  0  0  0  0  0  0  0  0  0  0  0
   -7.6092    9.7471   -9.5124 C   0  0  0  0  0  0  0  0  0  0  0  0
   -8.2773    8.7308   -9.9855 N   0  0  0  0  0  0  0  0  0  0  0  0
   -8.4143    8.8607  -11.2979 N   0  0  0  0  0  0  0  0  0  0  0  0
   -7.3268    9.8907   -8.0257 C   0  0  0  0  0  0  0  0  0  0  0  0
   -4.3565   13.7183  -11.5055 N   0  0  0  0  0  0  0  0  0  0  0  0
   -5.5483   13.6363  -12.1897 C   0  0  0  0  0  0  0  0  0  0  0  0
   -5.9477   14.5322  -12.9368 O   0  0  0  0  0  0  0  0  0  0  0  0
   -5.9513   10.4999   -7.7281 C   0  0  0  0  0  0  0  0  0  0  0  0
   -5.8738   11.7695   -7.1531 C   0  0  0  0  0  0  0  0  0  0  0  0
   -4.6094   12.3134   -6.9136 C   0  0  0  0  0  0  0  0  0  0  0  0
   -3.4376   11.5622   -7.2444 C   0  0  3  0  0  0  0  0  0  0  0  0
   -3.5099   10.2841   -7.8101 C   0  0  0  0  0  0  0  0  0  0  0  0
   -4.7961    9.7769   -8.0457 C   0  0  0  0  0  0  0  0  0  0  0  0
   -4.0914   13.5427   -6.3707 C   0  0  0  0  0  0  0  0  0  0  0  0
   -2.7880   13.5314   -6.3772 N   0  0  0  0  0  0  0  0  0  0  0  0
   -2.3819   12.3721   -6.8788 N   0  0  3  0  0  0  0  0  0  0  0  0
   -0.9505   12.1058   -6.9728 C   0  0  0  0  0  0  0  0  0  0  0  0
   -3.7111   12.5665  -10.8449 C   0  0  0  0  0  0  0  0  0  0  0  0
   -2.2188   12.9372  -10.9792 C   0  0  0  0  0  0  0  0  0  0  0  0
   -2.1852   14.4611  -10.9536 C   0  0  0  0  0  0  0  0  0  0  0  0
   -3.5089   14.9092  -11.5986 C   0  0  0  0  0  0  0  0  0  0  0  0
   -1.7019   12.4742  -12.1199 F   0  0  0  0  0  0  0  0  0  0  0  0
   -1.4726   12.4435   -9.9943 F   0  0  0  0  0  0  0  0  0  0  0  0
   -6.0805   12.2847   -9.8696 H   0  0  0  0  0  0  0  0  0  0  0  0
   -8.2009   10.1304  -13.8894 H   0  0  0  0  0  0  0  0  0  0  0  0
   -6.8975   12.2468  -14.0866 H   0  0  0  0  0  0  0  0  0  0  0  0
   -6.8872    9.4574  -11.9345 H   0  0  0  0  0  0  0  0  0  0  0  0
   -8.0244    9.5937   -7.2566 H   0  0  0  0  0  0  0  0  0  0  0  0
   -6.7691   12.3178   -6.8996 H   0  0  0  0  0  0  0  0  0  0  0  0
   -3.4337   12.0085   -8.2498 H   0  0  0  0  0  0  0  0  0  0  0  0
   -2.6224    9.7184   -8.0524 H   0  0  0  0  0  0  0  0  0  0  0  0
   -4.8983    8.7963   -8.4866 H   0  0  0  0  0  0  0  0  0  0  0  0
   -4.6981   14.3596   -6.0088 H   0  0  0  0  0  0  0  0  0  0  0  0
   -0.3901   12.9695   -6.5854 H   0  0  0  0  0  0  0  0  0  0  0  0
   -0.7040   11.2129   -6.3795 H   0  0  0  0  0  0  0  0  0  0  0  0
   -0.6780   11.9339   -8.0245 H   0  0  0  0  0  0  0  0  0  0  0  0
   -4.0127   12.4865   -9.7901 H   0  0  0  0  0  0  0  0  0  0  0  0
   -3.9402   11.6243  -11.3642 H   0  0  0  0  0  0  0  0  0  0  0  0
   -2.1179   14.8274   -9.9186 H   0  0  0  0  0  0  0  0  0  0  0  0
   -1.3284   14.8371  -11.5320 H   0  0  0  0  0  0  0  0  0  0  0  0
   -3.3556   15.2013  -12.6480 H   0  0  0  0  0  0  0  0  0  0  0  0
   -3.9510   15.7504  -11.0446 H   0  0  0  0  0  0  0  0  0  0  0  0
  1  2  2  0  0  0  0
  1  4  1  0  0  0  0
  1 12  1  0  0  0  0
  2  6  1  0  0  0  0
  3  4  2  0  0  0  0
  3  5  1  0  0  0  0
  5  6  1  0  0  0  0
  5  9  1  0  0  0  0
  6  7  2  0  0  0  0
  7  8  1  0  0  0  0
  7 10  1  0  0  0  0
  8  9  2  0  0  0  0
 10 14  2  3  0  0  0
 11 12  1  0  0  0  0
 11 24  1  0  0  0  0
 11 27  1  0  0  0  0
 12 13  2  0  0  0  0
 14 15  1  0  0  0  0
 14 19  1  0  0  0  0
 15 16  2  0  0  0  0
 16 17  1  0  0  0  0
 16 20  1  0  0  0  0
 17 18  1  0  0  0  0
 17 22  1  0  0  0  0
 18 19  2  0  0  0  0
 20 21  2  0  0  0  0
 21 22  1  0  0  0  0
 22 23  1  0  0  0  0
 24 25  1  0  0  0  0
 25 26  1  0  0  0  0
 25 28  1  0  0  0  0
 25 29  1  0  0  0  0
 26 27  1  0  0  0  0
  2 30  1  0  0  0  0
  3 31  1  0  0  0  0
  4 32  1  0  0  0  0
  5 33  1  0  0  0  0
 10 34  1  0  0  0  0
 15 35  1  0  0  0  0
 17 36  1  0  0  0  0
 18 37  1  0  0  0  0
 19 38  1  0  0  0  0
 20 39  1  0  0  0  0
 23 40  1  0  0  0  0
 23 41  1  0  0  0  0
 23 42  1  0  0  0  0
 24 43  1  0  0  0  0
 24 44  1  0  0  0  0
 26 45  1  0  0  0  0
 26 46  1  0  0  0  0
 27 47  1  0  0  0  0
 27 48  1  0  0  0  0
M  END
> <Name>
43

> <IC50[uM]>
0.002

$$$$
43
  -OEChem-05192314333D
 Structure written by MMmdl.
 48 52  0     1  0  0  0  0  0999 V2000
   -6.3694   12.3608  -12.0100 C   0  0  0  0  0  0  0  0  0  0  0  0
   -6.5170   11.8053  -10.7333 C   0  0  0  0  0  0  0  0  0  0  0  0
   -7.7298   10.5799  -13.0278 C   0  0  0  0  0  0  0  0  0  0  0  0
   -6.9915   11.7687  -13.1228 C   0  0  0  0  0  0  0  0  0  0  0  0
   -7.8213   10.0100  -11.7550 C   0  0  0  0  0  0  0  0  0  0  0  0
   -7.2397   10.6196  -10.6003 C   0  0  0  0  0  0  0  0  0  0  0  0
   -7.6092    9.7471   -9.5124 C   0  0  0  0  0  0  0  0  0  0  0  0
   -8.2773    8.7308   -9.9855 N   0  0  0  0  0  0  0  0  0  0  0  0
   -8.4143    8.8607  -11.2979 N   0  0  0  0  0  0  0  0  0  0  0  0
   -7.3268    9.8907   -8.0257 C   0  0  0  0  0  0  0  0  0  0  0  0
   -4.3565   13.7183  -11.5055 N   0  0  0  0  0  0  0  0  0  0  0  0
   -5.5483   13.6363  -12.1897 C   0  0  0  0  0  0  0  0  0  0  0  0
   -5.9477   14.5322  -12.9368 O   0  0  0  0  0  0  0  0  0  0  0  0
   -5.9513   10.4999   -7.7281 C   0  0  0  0  0  0  0  0  0  0  0  0
   -5.8738   11.7695   -7.1531 C   0  0  0  0  0  0  0  0  0  0  0  0
   -4.6094   12.3134   -6.9136 C   0  0  0  0  0  0  0  0  0  0  0  0
   -3.4376   11.5622   -7.2444 C   0  0  3  0  0  0  0  0  0  0  0  0
   -3.5099   10.2841   -7.8101 C   0  0  0  0  0  0  0  0  0  0  0  0
   -4.7961    9.7769   -8.0457 C   0  0  0  0  0  0  0  0  0  0  0  0
   -4.0914   13.5427   -6.3707 C   0  0  0  0  0  0  0  0  0  0  0  0
   -2.7880   13.5314   -6.3772 N   0  0  0  0  0  0  0  0  0  0  0  0
   -2.3819   12.3721   -6.8788 N   0  0  3  0  0  0  0  0  0  0  0  0
   -0.9505   12.1058   -6.9728 C   0  0  0  0  0  0  0  0  0  0  0  0
   -3.7111   12.5665  -10.8449 C   0  0  0  0  0  0  0  0  0  0  0  0
   -2.2188   12.9372  -10.9792 C   0  0  0  0  0  0  0  0  0  0  0  0
   -2.1852   14.4611  -10.9536 C   0  0  0  0  0  0  0  0  0  0  0  0
   -3.5089   14.9092  -11.5986 C   0  0  0  0  0  0  0  0  0  0  0  0
   -1.7019   12.4742  -12.1199 F   0  0  0  0  0  0  0  0  0  0  0  0
   -1.4726   12.4435   -9.9943 F   0  0  0  0  0  0  0  0  0  0  0  0
   -6.0805   12.2847   -9.8696 H   0  0  0  0  0  0  0  0  0  0  0  0
   -8.2009   10.1304  -13.8894 H   0  0  0  0  0  0  0  0  0  0  0  0
   -7.6806   12.5252  -13.5263 H   0  0  0  0  0  0  0  0  0  0  0  0
   -6.1919   11.5745  -13.8528 H   0  0  0  0  0  0  0  0  0  0  0  0
   -8.0244    9.5937   -7.2566 H   0  0  0  0  0  0  0  0  0  0  0  0
   -6.7691   12.3178   -6.8996 H   0  0  0  0  0  0  0  0  0  0  0  0
   -3.4337   12.0085   -8.2498 H   0  0  0  0  0  0  0  0  0  0  0  0
   -2.6224    9.7184   -8.0524 H   0  0  0  0  0  0  0  0  0  0  0  0
   -4.8983    8.7963   -8.4866 H   0  0  0  0  0  0  0  0  0  0  0  0
   -4.6981   14.3596   -6.0088 H   0  0  0  0  0  0  0  0  0  0  0  0
   -0.3901   12.9695   -6.5854 H   0  0  0  0  0  0  0  0  0  0  0  0
   -0.7040   11.2129   -6.3795 H   0  0  0  0  0  0  0  0  0  0  0  0
   -0.6780   11.9339   -8.0245 H   0  0  0  0  0  0  0  0  0  0  0  0
   -4.0127   12.4865   -9.7901 H   0  0  0  0  0  0  0  0  0  0  0  0
   -3.9402   11.6243  -11.3642 H   0  0  0  0  0  0  0  0  0  0  0  0
   -2.1179   14.8274   -9.9186 H   0  0  0  0  0  0  0  0  0  0  0  0
   -1.3284   14.8371  -11.5320 H   0  0  0  0  0  0  0  0  0  0  0  0
   -3.3556   15.2013  -12.6480 H   0  0  0  0  0  0  0  0  0  0  0  0
   -3.9510   15.7504  -11.0446 H   0  0  0  0  0  0  0  0  0  0  0  0
  1  2  2  0  0  0  0
  1  4  1  0  0  0  0
  1 12  1  0  0  0  0
  2  6  1  0  0  0  0
  3  4  1  0  0  0  0
  3  5  2  0  0  0  0
  5  6  1  0  0  0  0
  5  9  1  0  0  0  0
  6  7  2  0  0  0  0
  7  8  1  0  0  0  0
  7 10  1  0  0  0  0
  8  9  2  0  0  0  0
 10 14  2  3  0  0  0
 11 12  1  0  0  0  0
 11 24  1  0  0  0  0
 11 27  1  0  0  0  0
 12 13  2  0  0  0  0
 14 15  1  0  0  0  0
 14 19  1  0  0  0  0
 15 16  2  0  0  0  0
 16 17  1  0  0  0  0
 16 20  1  0  0  0  0
 17 18  1  0  0  0  0
 17 22  1  0  0  0  0
 18 19  2  0  0  0  0
 20 21  2  0  0  0  0
 21 22  1  0  0  0  0
 22 23  1  0  0  0  0
 24 25  1  0  0  0  0
 25 26  1  0  0  0  0
 25 28  1  0  0  0  0
 25 29  1  0  0  0  0
 26 27  1  0  0  0  0
  2 30  1  0  0  0  0
  3 31  1  0  0  0  0
  4 32  1  0  0  0  0
  4 33  1  0  0  0  0
 10 34  1  0  0  0  0
 15 35  1  0  0  0  0
 17 36  1  0  0  0  0
 18 37  1  0  0  0  0
 19 38  1  0  0  0  0
 20 39  1  0  0  0  0
 23 40  1  0  0  0  0
 23 41  1  0  0  0  0
 23 42  1  0  0  0  0
 24 43  1  0  0  0  0
 24 44  1  0  0  0  0
 26 45  1  0  0  0  0
 26 46  1  0  0  0  0
 27 47  1  0  0  0  0
 27 48  1  0  0  0  0
M  END
> <Name>
43

> <IC50[uM]>
0.002

$$$$
43
  -OEChem-05192314333D
 Structure written by MMmdl.
 48 52  0     1  0  0  0  0  0999 V2000
   -6.3694   12.3608  -12.0100 C   0  0  0  0  0  0  0  0  0  0  0  0
   -6.5170   11.8053  -10.7333 C   0  0  0  0  0  0  0  0  0  0  0  0
   -7.7298   10.5799  -13.0278 C   0  0  0  0  0  0  0  0  0  0  0  0
   -6.9915   11.7687  -13.1228 C   0  0  0  0  0  0  0  0  0  0  0  0
   -7.8213   10.0100  -11.7550 C   0  0  0  0  0  0  0  0  0  0  0  0
   -7.2397   10.6196  -10.6003 C   0  0  0  0  0  0  0  0  0  0  0  0
   -7.6092    9.7471   -9.5124 C   0  0  0  0  0  0  0  0  0  0  0  0
   -8.2773    8.7308   -9.9855 N   0  0  0  0  0  0  0  0  0  0  0  0
   -8.4143    8.8607  -11.2979 N   0  0  0  0  0  0  0  0  0  0  0  0
   -7.3268    9.8907   -8.0257 C   0  0  0  0  0  0  0  0  0  0  0  0
   -4.3565   13.7183  -11.5055 N   0  0  0  0  0  0  0  0  0  0  0  0
   -5.5483   13.6363  -12.1897 C   0  0  0  0  0  0  0  0  0  0  0  0
   -5.9477   14.5322  -12.9368 O   0  0  0  0  0  0  0  0  0  0  0  0
   -5.9513   10.4999   -7.7281 C   0  0  0  0  0  0  0  0  0  0  0  0
   -5.8738   11.7695   -7.1531 C   0  0  0  0  0  0  0  0  0  0  0  0
   -4.6094   12.3134   -6.9136 C   0  0  0  0  0  0  0  0  0  0  0  0
   -3.4376   11.5622   -7.2444 C   0  0  3  0  0  0  0  0  0  0  0  0
   -3.5099   10.2841   -7.8101 C   0  0  0  0  0  0  0  0  0  0  0  0
   -4.7961    9.7769   -8.0457 C   0  0  0  0  0  0  0  0  0  0  0  0
   -4.0914   13.5427   -6.3707 C   0  0  0  0  0  0  0  0  0  0  0  0
   -2.7880   13.5314   -6.3772 N   0  0  0  0  0  0  0  0  0  0  0  0
   -2.3819   12.3721   -6.8788 N   0  0  3  0  0  0  0  0  0  0  0  0
   -0.9505   12.1058   -6.9728 C   0  0  0  0  0  0  0  0  0  0  0  0
   -3.7111   12.5665  -10.8449 C   0  0  0  0  0  0  0  0  0  0  0  0
   -2.2188   12.9372  -10.9792 C   0  0  0  0  0  0  0  0  0  0  0  0
   -2.1852   14.4611  -10.9536 C   0  0  0  0  0  0  0  0  0  0  0  0
   -3.5089   14.9092  -11.5986 C   0  0  0  0  0  0  0  0  0  0  0  0
   -1.7019   12.4742  -12.1199 F   0  0  0  0  0  0  0  0  0  0  0  0
   -1.4726   12.4435   -9.9943 F   0  0  0  0  0  0  0  0  0  0  0  0
   -5.5061   11.6142  -10.3440 H   0  0  0  0  0  0  0  0  0  0  0  0
   -7.0145   12.5602  -10.1068 H   0  0  0  0  0  0  0  0  0  0  0  0
   -8.2009   10.1304  -13.8894 H   0  0  0  0  0  0  0  0  0  0  0  0
   -6.8975   12.2468  -14.0866 H   0  0  0  0  0  0  0  0  0  0  0  0
   -8.0244    9.5937   -7.2566 H   0  0  0  0  0  0  0  0  0  0  0  0
   -6.7691   12.3178   -6.8996 H   0  0  0  0  0  0  0  0  0  0  0  0
   -3.4337   12.0085   -8.2498 H   0  0  0  0  0  0  0  0  0  0  0  0
   -2.6224    9.7184   -8.0524 H   0  0  0  0  0  0  0  0  0  0  0  0
   -4.8983    8.7963   -8.4866 H   0  0  0  0  0  0  0  0  0  0  0  0
   -4.6981   14.3596   -6.0088 H   0  0  0  0  0  0  0  0  0  0  0  0
   -0.3901   12.9695   -6.5854 H   0  0  0  0  0  0  0  0  0  0  0  0
   -0.7040   11.2129   -6.3795 H   0  0  0  0  0  0  0  0  0  0  0  0
   -0.6780   11.9339   -8.0245 H   0  0  0  0  0  0  0  0  0  0  0  0
   -4.0127   12.4865   -9.7901 H   0  0  0  0  0  0  0  0  0  0  0  0
   -3.9402   11.6243  -11.3642 H   0  0  0  0  0  0  0  0  0  0  0  0
   -2.1179   14.8274   -9.9186 H   0  0  0  0  0  0  0  0  0  0  0  0
   -1.3284   14.8371  -11.5320 H   0  0  0  0  0  0  0  0  0  0  0  0
   -3.3556   15.2013  -12.6480 H   0  0  0  0  0  0  0  0  0  0  0  0
   -3.9510   15.7504  -11.0446 H   0  0  0  0  0  0  0  0  0  0  0  0
  1  2  1  0  0  0  0
  1  4  2  0  0  0  0
  1 12  1  0  0  0  0
  2  6  1  0  0  0  0
  3  4  1  0  0  0  0
  3  5  2  0  0  0  0
  5  6  1  0  0  0  0
  5  9  1  0  0  0  0
  6  7  2  0  0  0  0
  7  8  1  0  0  0  0
  7 10  1  0  0  0  0
  8  9  2  0  0  0  0
 10 14  2  3  0  0  0
 11 12  1  0  0  0  0
 11 24  1  0  0  0  0
 11 27  1  0  0  0  0
 12 13  2  0  0  0  0
 14 15  1  0  0  0  0
 14 19  1  0  0  0  0
 15 16  2  0  0  0  0
 16 17  1  0  0  0  0
 16 20  1  0  0  0  0
 17 18  1  0  0  0  0
 17 22  1  0  0  0  0
 18 19  2  0  0  0  0
 20 21  2  0  0  0  0
 21 22  1  0  0  0  0
 22 23  1  0  0  0  0
 24 25  1  0  0  0  0
 25 26  1  0  0  0  0
 25 28  1  0  0  0  0
 25 29  1  0  0  0  0
 26 27  1  0  0  0  0
  2 30  1  0  0  0  0
  2 31  1  0  0  0  0
  3 32  1  0  0  0  0
  4 33  1  0  0  0  0
 10 34  1  0  0  0  0
 15 35  1  0  0  0  0
 17 36  1  0  0  0  0
 18 37  1  0  0  0  0
 19 38  1  0  0  0  0
 20 39  1  0  0  0  0
 23 40  1  0  0  0  0
 23 41  1  0  0  0  0
 23 42  1  0  0  0  0
 24 43  1  0  0  0  0
 24 44  1  0  0  0  0
 26 45  1  0  0  0  0
 26 46  1  0  0  0  0
 27 47  1  0  0  0  0
 27 48  1  0  0  0  0
M  END
> <Name>
43

> <IC50[uM]>
0.002

$$$$
43
  -OEChem-05192314333D
 Structure written by MMmdl.
 48 52  0     1  0  0  0  0  0999 V2000
   -6.3694   12.3608  -12.0100 C   0  0  0  0  0  0  0  0  0  0  0  0
   -6.5170   11.8053  -10.7333 C   0  0  0  0  0  0  0  0  0  0  0  0
   -7.7298   10.5799  -13.0278 C   0  0  0  0  0  0  0  0  0  0  0  0
   -6.9915   11.7687  -13.1228 C   0  0  0  0  0  0  0  0  0  0  0  0
   -7.8213   10.0100  -11.7550 C   0  0  0  0  0  0  0  0  0  0  0  0
   -7.2397   10.6196  -10.6003 C   0  0  0  0  0  0  0  0  0  0  0  0
   -7.6092    9.7471   -9.5124 C   0  0  0  0  0  0  0  0  0  0  0  0
   -8.2773    8.7308   -9.9855 N   0  0  0  0  0  0  0  0  0  0  0  0
   -8.4143    8.8607  -11.2979 N   0  0  0  0  0  0  0  0  0  0  0  0
   -7.3268    9.8907   -8.0257 C   0  0  0  0  0  0  0  0  0  0  0  0
   -4.3565   13.7183  -11.5055 N   0  0  3  0  0  0  0  0  0  0  0  0
   -5.5483   13.6363  -12.1897 C   0  0  0  0  0  0  0  0  0  0  0  0
   -5.9477   14.5322  -12.9368 O   0  0  0  0  0  0  0  0  0  0  0  0
   -5.9513   10.4999   -7.7281 C   0  0  0  0  0  0  0  0  0  0  0  0
   -5.8738   11.7695   -7.1531 C   0  0  0  0  0  0  0  0  0  0  0  0
   -4.6094   12.3134   -6.9136 C   0  0  0  0  0  0  0  0  0  0  0  0
   -3.4376   11.5622   -7.2444 C   0  0  0  0  0  0  0  0  0  0  0  0
   -3.5099   10.2841   -7.8101 C   0  0  0  0  0  0  0  0  0  0  0  0
   -4.7961    9.7769   -8.0457 C   0  0  0  0  0  0  0  0  0  0  0  0
   -4.0914   13.5427   -6.3707 C   0  0  0  0  0  0  0  0  0  0  0  0
   -2.7880   13.5314   -6.3772 N   0  0  0  0  0  0  0  0  0  0  0  0
   -2.3819   12.3721   -6.8788 N   0  0  0  0  0  0  0  0  0  0  0  0
   -0.9505   12.1058   -6.9728 C   0  0  0  0  0  0  0  0  0  0  0  0
   -3.7111   12.5665  -10.8449 C   0  0  0  0  0  0  0  0  0  0  0  0
   -2.2188   12.9372  -10.9792 C   0  0  0  0  0  0  0  0  0  0  0  0
   -2.1852   14.4611  -10.9536 C   0  0  0  0  0  0  0  0  0  0  0  0
   -3.5089   14.9092  -11.5986 C   0  0  0  0  0  0  0  0  0  0  0  0
   -1.7019   12.4742  -12.1199 F   0  0  0  0  0  0  0  0  0  0  0  0
   -1.4726   12.4435   -9.9943 F   0  0  0  0  0  0  0  0  0  0  0  0
   -6.0805   12.2847   -9.8696 H   0  0  0  0  0  0  0  0  0  0  0  0
   -8.2009   10.1304  -13.8894 H   0  0  0  0  0  0  0  0  0  0  0  0
   -6.8975   12.2468  -14.0866 H   0  0  0  0  0  0  0  0  0  0  0  0
   -8.6317    7.9703   -9.4414 H   0  0  0  0  0  0  0  0  0  0  0  0
   -8.0244    9.5937   -7.2566 H   0  0  0  0  0  0  0  0  0  0  0  0
   -5.3239   15.2487  -12.9344 H   0  0  0  0  0  0  0  0  0  0  0  0
   -6.7691   12.3178   -6.8996 H   0  0  0  0  0  0  0  0  0  0  0  0
   -2.6224    9.7184   -8.0524 H   0  0  0  0  0  0  0  0  0  0  0  0
   -4.8983    8.7963   -8.4866 H   0  0  0  0  0  0  0  0  0  0  0  0
   -4.6981   14.3596   -6.0088 H   0  0  0  0  0  0  0  0  0  0  0  0
   -0.3901   12.9695   -6.5854 H   0  0  0  0  0  0  0  0  0  0  0  0
   -0.7040   11.2129   -6.3795 H   0  0  0  0  0  0  0  0  0  0  0  0
   -0.6780   11.9339   -8.0245 H   0  0  0  0  0  0  0  0  0  0  0  0
   -4.0127   12.4865   -9.7901 H   0  0  0  0  0  0  0  0  0  0  0  0
   -3.9402   11.6243  -11.3642 H   0  0  0  0  0  0  0  0  0  0  0  0
   -2.1179   14.8274   -9.9186 H   0  0  0  0  0  0  0  0  0  0  0  0
   -1.3284   14.8371  -11.5320 H   0  0  0  0  0  0  0  0  0  0  0  0
   -3.3556   15.2013  -12.6480 H   0  0  0  0  0  0  0  0  0  0  0  0
   -3.9510   15.7504  -11.0446 H   0  0  0  0  0  0  0  0  0  0  0  0
  1  2  1  0  0  0  0
  1  4  1  0  0  0  0
  1 12  2  3  0  0  0
  2  6  2  0  0  0  0
  3  4  2  0  0  0  0
  3  5  1  0  0  0  0
  5  6  1  0  0  0  0
  5  9  2  0  0  0  0
  6  7  1  0  0  0  0
  7  8  1  0  0  0  0
  7 10  2  3  0  0  0
  8  9  1  0  0  0  0
 10 14  1  0  0  0  0
 11 12  1  0  0  0  0
 11 24  1  0  0  0  0
 11 27  1  0  0  0  0
 12 13  1  0  0  0  0
 14 15  2  0  0  0  0
 14 19  1  0  0  0  0
 15 16  1  0  0  0  0
 16 17  2  0  0  0  0
 16 20  1  0  0  0  0
 17 18  1  0  0  0  0
 17 22  1  0  0  0  0
 18 19  2  0  0  0  0
 20 21  2  0  0  0  0
 21 22  1  0  0  0  0
 22 23  1  0  0  0  0
 24 25  1  0  0  0  0
 25 26  1  0  0  0  0
 25 28  1  0  0  0  0
 25 29  1  0  0  0  0
 26 27  1  0  0  0  0
  2 30  1  0  0  0  0
  3 31  1  0  0  0  0
  4 32  1  0  0  0  0
  8 33  1  0  0  0  0
 10 34  1  0  0  0  0
 13 35  1  0  0  0  0
 15 36  1  0  0  0  0
 18 37  1  0  0  0  0
 19 38  1  0  0  0  0
 20 39  1  0  0  0  0
 23 40  1  0  0  0  0
 23 41  1  0  0  0  0
 23 42  1  0  0  0  0
 24 43  1  0  0  0  0
 24 44  1  0  0  0  0
 26 45  1  0  0  0  0
 26 46  1  0  0  0  0
 27 47  1  0  0  0  0
 27 48  1  0  0  0  0
M  END
> <Name>
43

> <IC50[uM]>
0.002

$$$$
43
  -OEChem-05192314333D
 Structure written by MMmdl.
 48 52  0     1  0  0  0  0  0999 V2000
   -6.3694   12.3608  -12.0100 C   0  0  0  0  0  0  0  0  0  0  0  0
   -6.5170   11.8053  -10.7333 C   0  0  0  0  0  0  0  0  0  0  0  0
   -7.7298   10.5799  -13.0278 C   0  0  0  0  0  0  0  0  0  0  0  0
   -6.9915   11.7687  -13.1228 C   0  0  0  0  0  0  0  0  0  0  0  0
   -7.8213   10.0100  -11.7550 C   0  0  0  0  0  0  0  0  0  0  0  0
   -7.2397   10.6196  -10.6003 C   0  0  0  0  0  0  0  0  0  0  0  0
   -7.6092    9.7471   -9.5124 C   0  0  0  0  0  0  0  0  0  0  0  0
   -8.2773    8.7308   -9.9855 N   0  0  0  0  0  0  0  0  0  0  0  0
   -8.4143    8.8607  -11.2979 N   0  0  0  0  0  0  0  0  0  0  0  0
   -7.3268    9.8907   -8.0257 C   0  0  0  0  0  0  0  0  0  0  0  0
   -4.3565   13.7183  -11.5055 N   0  0  3  0  0  0  0  0  0  0  0  0
   -5.5483   13.6363  -12.1897 C   0  0  3  0  0  0  0  0  0  0  0  0
   -5.9477   14.5322  -12.9368 O   0  0  0  0  0  0  0  0  0  0  0  0
   -5.9513   10.4999   -7.7281 C   0  0  0  0  0  0  0  0  0  0  0  0
   -5.8738   11.7695   -7.1531 C   0  0  0  0  0  0  0  0  0  0  0  0
   -4.6094   12.3134   -6.9136 C   0  0  0  0  0  0  0  0  0  0  0  0
   -3.4376   11.5622   -7.2444 C   0  0  0  0  0  0  0  0  0  0  0  0
   -3.5099   10.2841   -7.8101 C   0  0  0  0  0  0  0  0  0  0  0  0
   -4.7961    9.7769   -8.0457 C   0  0  0  0  0  0  0  0  0  0  0  0
   -4.0914   13.5427   -6.3707 C   0  0  0  0  0  0  0  0  0  0  0  0
   -2.7880   13.5314   -6.3772 N   0  0  0  0  0  0  0  0  0  0  0  0
   -2.3819   12.3721   -6.8788 N   0  0  0  0  0  0  0  0  0  0  0  0
   -0.9505   12.1058   -6.9728 C   0  0  0  0  0  0  0  0  0  0  0  0
   -3.7111   12.5665  -10.8449 C   0  0  0  0  0  0  0  0  0  0  0  0
   -2.2188   12.9372  -10.9792 C   0  0  0  0  0  0  0  0  0  0  0  0
   -2.1852   14.4611  -10.9536 C   0  0  0  0  0  0  0  0  0  0  0  0
   -3.5089   14.9092  -11.5986 C   0  0  0  0  0  0  0  0  0  0  0  0
   -1.7019   12.4742  -12.1199 F   0  0  0  0  0  0  0  0  0  0  0  0
   -1.4726   12.4435   -9.9943 F   0  0  0  0  0  0  0  0  0  0  0  0
   -6.0805   12.2847   -9.8696 H   0  0  0  0  0  0  0  0  0  0  0  0
   -8.2009   10.1304  -13.8894 H   0  0  0  0  0  0  0  0  0  0  0  0
   -6.8975   12.2468  -14.0866 H   0  0  0  0  0  0  0  0  0  0  0  0
   -8.0244    9.5937   -7.2566 H   0  0  0  0  0  0  0  0  0  0  0  0
   -6.0736   14.1002  -11.3419 H   0  0  0  0  0  0  0  0  0  0  0  0
   -5.3239   15.2487  -12.9344 H   0  0  0  0  0  0  0  0  0  0  0  0
   -6.7691   12.3178   -6.8996 H   0  0  0  0  0  0  0  0  0  0  0  0
   -2.6224    9.7184   -8.0524 H   0  0  0  0  0  0  0  0  0  0  0  0
   -4.8983    8.7963   -8.4866 H   0  0  0  0  0  0  0  0  0  0  0  0
   -4.6981   14.3596   -6.0088 H   0  0  0  0  0  0  0  0  0  0  0  0
   -0.3901   12.9695   -6.5854 H   0  0  0  0  0  0  0  0  0  0  0  0
   -0.7040   11.2129   -6.3795 H   0  0  0  0  0  0  0  0  0  0  0  0
   -0.6780   11.9339   -8.0245 H   0  0  0  0  0  0  0  0  0  0  0  0
   -4.0127   12.4865   -9.7901 H   0  0  0  0  0  0  0  0  0  0  0  0
   -3.9402   11.6243  -11.3642 H   0  0  0  0  0  0  0  0  0  0  0  0
   -2.1179   14.8274   -9.9186 H   0  0  0  0  0  0  0  0  0  0  0  0
   -1.3284   14.8371  -11.5320 H   0  0  0  0  0  0  0  0  0  0  0  0
   -3.3556   15.2013  -12.6480 H   0  0  0  0  0  0  0  0  0  0  0  0
   -3.9510   15.7504  -11.0446 H   0  0  0  0  0  0  0  0  0  0  0  0
  1  2  2  0  0  0  0
  1  4  1  0  0  0  0
  1 12  1  0  0  0  0
  2  6  1  0  0  0  0
  3  4  2  0  0  0  0
  3  5  1  0  0  0  0
  5  6  2  0  0  0  0
  5  9  1  0  0  0  0
  6  7  1  0  0  0  0
  7  8  1  0  0  0  0
  7 10  2  3  0  0  0
  8  9  2  0  0  0  0
 10 14  1  0  0  0  0
 11 12  1  0  0  0  0
 11 24  1  0  0  0  0
 11 27  1  0  0  0  0
 12 13  1  0  0  0  0
 14 15  2  0  0  0  0
 14 19  1  0  0  0  0
 15 16  1  0  0  0  0
 16 17  2  0  0  0  0
 16 20  1  0  0  0  0
 17 18  1  0  0  0  0
 17 22  1  0  0  0  0
 18 19  2  0  0  0  0
 20 21  2  0  0  0  0
 21 22  1  0  0  0  0
 22 23  1  0  0  0  0
 24 25  1  0  0  0  0
 25 26  1  0  0  0  0
 25 28  1  0  0  0  0
 25 29  1  0  0  0  0
 26 27  1  0  0  0  0
  2 30  1  0  0  0  0
  3 31  1  0  0  0  0
  4 32  1  0  0  0  0
 10 33  1  0  0  0  0
 12 34  1  0  0  0  0
 13 35  1  0  0  0  0
 15 36  1  0  0  0  0
 18 37  1  0  0  0  0
 19 38  1  0  0  0  0
 20 39  1  0  0  0  0
 23 40  1  0  0  0  0
 23 41  1  0  0  0  0
 23 42  1  0  0  0  0
 24 43  1  0  0  0  0
 24 44  1  0  0  0  0
 26 45  1  0  0  0  0
 26 46  1  0  0  0  0
 27 47  1  0  0  0  0
 27 48  1  0  0  0  0
M  END
> <Name>
43

> <IC50[uM]>
0.002

$$$$
43
  -OEChem-05192314333D
 Structure written by MMmdl.
 48 52  0     1  0  0  0  0  0999 V2000
   -6.3694   12.3608  -12.0100 C   0  0  0  0  0  0  0  0  0  0  0  0
   -6.5170   11.8053  -10.7333 C   0  0  0  0  0  0  0  0  0  0  0  0
   -7.7298   10.5799  -13.0278 C   0  0  0  0  0  0  0  0  0  0  0  0
   -6.9915   11.7687  -13.1228 C   0  0  0  0  0  0  0  0  0  0  0  0
   -7.8213   10.0100  -11.7550 C   0  0  0  0  0  0  0  0  0  0  0  0
   -7.2397   10.6196  -10.6003 C   0  0  0  0  0  0  0  0  0  0  0  0
   -7.6092    9.7471   -9.5124 C   0  0  0  0  0  0  0  0  0  0  0  0
   -8.2773    8.7308   -9.9855 N   0  0  0  0  0  0  0  0  0  0  0  0
   -8.4143    8.8607  -11.2979 N   0  0  0  0  0  0  0  0  0  0  0  0
   -7.3268    9.8907   -8.0257 C   0  0  0  0  0  0  0  0  0  0  0  0
   -4.3565   13.7183  -11.5055 N   0  0  3  0  0  0  0  0  0  0  0  0
   -5.5483   13.6363  -12.1897 C   0  0  0  0  0  0  0  0  0  0  0  0
   -5.9477   14.5322  -12.9368 O   0  0  0  0  0  0  0  0  0  0  0  0
   -5.9513   10.4999   -7.7281 C   0  0  0  0  0  0  0  0  0  0  0  0
   -5.8738   11.7695   -7.1531 C   0  0  0  0  0  0  0  0  0  0  0  0
   -4.6094   12.3134   -6.9136 C   0  0  0  0  0  0  0  0  0  0  0  0
   -3.4376   11.5622   -7.2444 C   0  0  0  0  0  0  0  0  0  0  0  0
   -3.5099   10.2841   -7.8101 C   0  0  0  0  0  0  0  0  0  0  0  0
   -4.7961    9.7769   -8.0457 C   0  0  0  0  0  0  0  0  0  0  0  0
   -4.0914   13.5427   -6.3707 C   0  0  0  0  0  0  0  0  0  0  0  0
   -2.7880   13.5314   -6.3772 N   0  0  0  0  0  0  0  0  0  0  0  0
   -2.3819   12.3721   -6.8788 N   0  0  0  0  0  0  0  0  0  0  0  0
   -0.9505   12.1058   -6.9728 C   0  0  0  0  0  0  0  0  0  0  0  0
   -3.7111   12.5665  -10.8449 C   0  0  0  0  0  0  0  0  0  0  0  0
   -2.2188   12.9372  -10.9792 C   0  0  0  0  0  0  0  0  0  0  0  0
   -2.1852   14.4611  -10.9536 C   0  0  0  0  0  0  0  0  0  0  0  0
   -3.5089   14.9092  -11.5986 C   0  0  0  0  0  0  0  0  0  0  0  0
   -1.7019   12.4742  -12.1199 F   0  0  0  0  0  0  0  0  0  0  0  0
   -1.4726   12.4435   -9.9943 F   0  0  0  0  0  0  0  0  0  0  0  0
   -6.0805   12.2847   -9.8696 H   0  0  0  0  0  0  0  0  0  0  0  0
   -8.2009   10.1304  -13.8894 H   0  0  0  0  0  0  0  0  0  0  0  0
   -6.8975   12.2468  -14.0866 H   0  0  0  0  0  0  0  0  0  0  0  0
   -8.0988   10.5380   -7.5841 H   0  0  0  0  0  0  0  0  0  0  0  0
   -7.3753    8.8940   -7.5628 H   0  0  0  0  0  0  0  0  0  0  0  0
   -5.3239   15.2487  -12.9344 H   0  0  0  0  0  0  0  0  0  0  0  0
   -6.7691   12.3178   -6.8996 H   0  0  0  0  0  0  0  0  0  0  0  0
   -2.6224    9.7184   -8.0524 H   0  0  0  0  0  0  0  0  0  0  0  0
   -4.8983    8.7963   -8.4866 H   0  0  0  0  0  0  0  0  0  0  0  0
   -4.6981   14.3596   -6.0088 H   0  0  0  0  0  0  0  0  0  0  0  0
   -0.3901   12.9695   -6.5854 H   0  0  0  0  0  0  0  0  0  0  0  0
   -0.7040   11.2129   -6.3795 H   0  0  0  0  0  0  0  0  0  0  0  0
   -0.6780   11.9339   -8.0245 H   0  0  0  0  0  0  0  0  0  0  0  0
   -4.0127   12.4865   -9.7901 H   0  0  0  0  0  0  0  0  0  0  0  0
   -3.9402   11.6243  -11.3642 H   0  0  0  0  0  0  0  0  0  0  0  0
   -2.1179   14.8274   -9.9186 H   0  0  0  0  0  0  0  0  0  0  0  0
   -1.3284   14.8371  -11.5320 H   0  0  0  0  0  0  0  0  0  0  0  0
   -3.3556   15.2013  -12.6480 H   0  0  0  0  0  0  0  0  0  0  0  0
   -3.9510   15.7504  -11.0446 H   0  0  0  0  0  0  0  0  0  0  0  0
  1  2  1  0  0  0  0
  1  4  1  0  0  0  0
  1 12  2  3  0  0  0
  2  6  2  0  0  0  0
  3  4  2  0  0  0  0
  3  5  1  0  0  0  0
  5  6  1  0  0  0  0
  5  9  2  0  0  0  0
  6  7  1  0  0  0  0
  7  8  2  0  0  0  0
  7 10  1  0  0  0  0
  8  9  1  0  0  0  0
 10 14  1  0  0  0  0
 11 12  1  0  0  0  0
 11 24  1  0  0  0  0
 11 27  1  0  0  0  0
 12 13  1  0  0  0  0
 14 15  2  0  0  0  0
 14 19  1  0  0  0  0
 15 16  1  0  0  0  0
 16 17  2  0  0  0  0
 16 20  1  0  0  0  0
 17 18  1  0  0  0  0
 17 22  1  0  0  0  0
 18 19  2  0  0  0  0
 20 21  2  0  0  0  0
 21 22  1  0  0  0  0
 22 23  1  0  0  0  0
 24 25  1  0  0  0  0
 25 26  1  0  0  0  0
 25 28  1  0  0  0  0
 25 29  1  0  0  0  0
 26 27  1  0  0  0  0
  2 30  1  0  0  0  0
  3 31  1  0  0  0  0
  4 32  1  0  0  0  0
 10 33  1  0  0  0  0
 10 34  1  0  0  0  0
 13 35  1  0  0  0  0
 15 36  1  0  0  0  0
 18 37  1  0  0  0  0
 19 38  1  0  0  0  0
 20 39  1  0  0  0  0
 23 40  1  0  0  0  0
 23 41  1  0  0  0  0
 23 42  1  0  0  0  0
 24 43  1  0  0  0  0
 24 44  1  0  0  0  0
 26 45  1  0  0  0  0
 26 46  1  0  0  0  0
 27 47  1  0  0  0  0
 27 48  1  0  0  0  0
M  END
> <Name>
43

> <IC50[uM]>
0.002

$$$$
43
  -OEChem-05192314333D
 Structure written by MMmdl.
 48 52  0     1  0  0  0  0  0999 V2000
   -6.3694   12.3608  -12.0100 C   0  0  0  0  0  0  0  0  0  0  0  0
   -6.5170   11.8053  -10.7333 C   0  0  0  0  0  0  0  0  0  0  0  0
   -7.7298   10.5799  -13.0278 C   0  0  0  0  0  0  0  0  0  0  0  0
   -6.9915   11.7687  -13.1228 C   0  0  0  0  0  0  0  0  0  0  0  0
   -7.8213   10.0100  -11.7550 C   0  0  0  0  0  0  0  0  0  0  0  0
   -7.2397   10.6196  -10.6003 C   0  0  0  0  0  0  0  0  0  0  0  0
   -7.6092    9.7471   -9.5124 C   0  0  0  0  0  0  0  0  0  0  0  0
   -8.2773    8.7308   -9.9855 N   0  0  0  0  0  0  0  0  0  0  0  0
   -8.4143    8.8607  -11.2979 N   0  0  0  0  0  0  0  0  0  0  0  0
   -7.3268    9.8907   -8.0257 C   0  0  0  0  0  0  0  0  0  0  0  0
   -4.3565   13.7183  -11.5055 N   0  0  3  0  0  0  0  0  0  0  0  0
   -5.5483   13.6363  -12.1897 C   0  0  0  0  0  0  0  0  0  0  0  0
   -5.9477   14.5322  -12.9368 O   0  0  0  0  0  0  0  0  0  0  0  0
   -5.9513   10.4999   -7.7281 C   0  0  0  0  0  0  0  0  0  0  0  0
   -5.8738   11.7695   -7.1531 C   0  0  0  0  0  0  0  0  0  0  0  0
   -4.6094   12.3134   -6.9136 C   0  0  0  0  0  0  0  0  0  0  0  0
   -3.4376   11.5622   -7.2444 C   0  0  0  0  0  0  0  0  0  0  0  0
   -3.5099   10.2841   -7.8101 C   0  0  0  0  0  0  0  0  0  0  0  0
   -4.7961    9.7769   -8.0457 C   0  0  0  0  0  0  0  0  0  0  0  0
   -4.0914   13.5427   -6.3707 C   0  0  0  0  0  0  0  0  0  0  0  0
   -2.7880   13.5314   -6.3772 N   0  0  0  0  0  0  0  0  0  0  0  0
   -2.3819   12.3721   -6.8788 N   0  0  0  0  0  0  0  0  0  0  0  0
   -0.9505   12.1058   -6.9728 C   0  0  0  0  0  0  0  0  0  0  0  0
   -3.7111   12.5665  -10.8449 C   0  0  0  0  0  0  0  0  0  0  0  0
   -2.2188   12.9372  -10.9792 C   0  0  0  0  0  0  0  0  0  0  0  0
   -2.1852   14.4611  -10.9536 C   0  0  0  0  0  0  0  0  0  0  0  0
   -3.5089   14.9092  -11.5986 C   0  0  0  0  0  0  0  0  0  0  0  0
   -1.7019   12.4742  -12.1199 F   0  0  0  0  0  0  0  0  0  0  0  0
   -1.4726   12.4435   -9.9943 F   0  0  0  0  0  0  0  0  0  0  0  0
   -6.0805   12.2847   -9.8696 H   0  0  0  0  0  0  0  0  0  0  0  0
   -8.2009   10.1304  -13.8894 H   0  0  0  0  0  0  0  0  0  0  0  0
   -6.8975   12.2468  -14.0866 H   0  0  0  0  0  0  0  0  0  0  0  0
   -8.0244    9.5937   -7.2566 H   0  0  0  0  0  0  0  0  0  0  0  0
   -5.3239   15.2487  -12.9344 H   0  0  0  0  0  0  0  0  0  0  0  0
   -6.4048   12.4627   -7.8221 H   0  0  0  0  0  0  0  0  0  0  0  0
   -6.3957   11.7211   -6.1860 H   0  0  0  0  0  0  0  0  0  0  0  0
   -2.6224    9.7184   -8.0524 H   0  0  0  0  0  0  0  0  0  0  0  0
   -4.8983    8.7963   -8.4866 H   0  0  0  0  0  0  0  0  0  0  0  0
   -4.6981   14.3596   -6.0088 H   0  0  0  0  0  0  0  0  0  0  0  0
   -0.3901   12.9695   -6.5854 H   0  0  0  0  0  0  0  0  0  0  0  0
   -0.7040   11.2129   -6.3795 H   0  0  0  0  0  0  0  0  0  0  0  0
   -0.6780   11.9339   -8.0245 H   0  0  0  0  0  0  0  0  0  0  0  0
   -4.0127   12.4865   -9.7901 H   0  0  0  0  0  0  0  0  0  0  0  0
   -3.9402   11.6243  -11.3642 H   0  0  0  0  0  0  0  0  0  0  0  0
   -2.1179   14.8274   -9.9186 H   0  0  0  0  0  0  0  0  0  0  0  0
   -1.3284   14.8371  -11.5320 H   0  0  0  0  0  0  0  0  0  0  0  0
   -3.3556   15.2013  -12.6480 H   0  0  0  0  0  0  0  0  0  0  0  0
   -3.9510   15.7504  -11.0446 H   0  0  0  0  0  0  0  0  0  0  0  0
  1  2  1  0  0  0  0
  1  4  1  0  0  0  0
  1 12  2  3  0  0  0
  2  6  2  0  0  0  0
  3  4  2  0  0  0  0
  3  5  1  0  0  0  0
  5  6  1  0  0  0  0
  5  9  2  0  0  0  0
  6  7  1  0  0  0  0
  7  8  2  0  0  0  0
  7 10  1  0  0  0  0
  8  9  1  0  0  0  0
 10 14  2  3  0  0  0
 11 12  1  0  0  0  0
 11 24  1  0  0  0  0
 11 27  1  0  0  0  0
 12 13  1  0  0  0  0
 14 15  1  0  0  0  0
 14 19  1  0  0  0  0
 15 16  1  0  0  0  0
 16 17  2  0  0  0  0
 16 20  1  0  0  0  0
 17 18  1  0  0  0  0
 17 22  1  0  0  0  0
 18 19  2  0  0  0  0
 20 21  2  0  0  0  0
 21 22  1  0  0  0  0
 22 23  1  0  0  0  0
 24 25  1  0  0  0  0
 25 26  1  0  0  0  0
 25 28  1  0  0  0  0
 25 29  1  0  0  0  0
 26 27  1  0  0  0  0
  2 30  1  0  0  0  0
  3 31  1  0  0  0  0
  4 32  1  0  0  0  0
 10 33  1  0  0  0  0
 13 34  1  0  0  0  0
 15 35  1  0  0  0  0
 15 36  1  0  0  0  0
 18 37  1  0  0  0  0
 19 38  1  0  0  0  0
 20 39  1  0  0  0  0
 23 40  1  0  0  0  0
 23 41  1  0  0  0  0
 23 42  1  0  0  0  0
 24 43  1  0  0  0  0
 24 44  1  0  0  0  0
 26 45  1  0  0  0  0
 26 46  1  0  0  0  0
 27 47  1  0  0  0  0
 27 48  1  0  0  0  0
M  END
> <Name>
43

> <IC50[uM]>
0.002

$$$$
43
  -OEChem-05192314333D
 Structure written by MMmdl.
 48 52  0     1  0  0  0  0  0999 V2000
   -6.3694   12.3608  -12.0100 C   0  0  0  0  0  0  0  0  0  0  0  0
   -6.5170   11.8053  -10.7333 C   0  0  0  0  0  0  0  0  0  0  0  0
   -7.7298   10.5799  -13.0278 C   0  0  0  0  0  0  0  0  0  0  0  0
   -6.9915   11.7687  -13.1228 C   0  0  0  0  0  0  0  0  0  0  0  0
   -7.8213   10.0100  -11.7550 C   0  0  0  0  0  0  0  0  0  0  0  0
   -7.2397   10.6196  -10.6003 C   0  0  0  0  0  0  0  0  0  0  0  0
   -7.6092    9.7471   -9.5124 C   0  0  0  0  0  0  0  0  0  0  0  0
   -8.2773    8.7308   -9.9855 N   0  0  0  0  0  0  0  0  0  0  0  0
   -8.4143    8.8607  -11.2979 N   0  0  0  0  0  0  0  0  0  0  0  0
   -7.3268    9.8907   -8.0257 C   0  0  0  0  0  0  0  0  0  0  0  0
   -4.3565   13.7183  -11.5055 N   0  0  3  0  0  0  0  0  0  0  0  0
   -5.5483   13.6363  -12.1897 C   0  0  0  0  0  0  0  0  0  0  0  0
   -5.9477   14.5322  -12.9368 O   0  0  0  0  0  0  0  0  0  0  0  0
   -5.9513   10.4999   -7.7281 C   0  0  0  0  0  0  0  0  0  0  0  0
   -5.8738   11.7695   -7.1531 C   0  0  0  0  0  0  0  0  0  0  0  0
   -4.6094   12.3134   -6.9136 C   0  0  0  0  0  0  0  0  0  0  0  0
   -3.4376   11.5622   -7.2444 C   0  0  0  0  0  0  0  0  0  0  0  0
   -3.5099   10.2841   -7.8101 C   0  0  0  0  0  0  0  0  0  0  0  0
   -4.7961    9.7769   -8.0457 C   0  0  0  0  0  0  0  0  0  0  0  0
   -4.0914   13.5427   -6.3707 C   0  0  0  0  0  0  0  0  0  0  0  0
   -2.7880   13.5314   -6.3772 N   0  0  0  0  0  0  0  0  0  0  0  0
   -2.3819   12.3721   -6.8788 N   0  0  0  0  0  0  0  0  0  0  0  0
   -0.9505   12.1058   -6.9728 C   0  0  0  0  0  0  0  0  0  0  0  0
   -3.7111   12.5665  -10.8449 C   0  0  0  0  0  0  0  0  0  0  0  0
   -2.2188   12.9372  -10.9792 C   0  0  0  0  0  0  0  0  0  0  0  0
   -2.1852   14.4611  -10.9536 C   0  0  0  0  0  0  0  0  0  0  0  0
   -3.5089   14.9092  -11.5986 C   0  0  0  0  0  0  0  0  0  0  0  0
   -1.7019   12.4742  -12.1199 F   0  0  0  0  0  0  0  0  0  0  0  0
   -1.4726   12.4435   -9.9943 F   0  0  0  0  0  0  0  0  0  0  0  0
   -6.0805   12.2847   -9.8696 H   0  0  0  0  0  0  0  0  0  0  0  0
   -8.2009   10.1304  -13.8894 H   0  0  0  0  0  0  0  0  0  0  0  0
   -6.8975   12.2468  -14.0866 H   0  0  0  0  0  0  0  0  0  0  0  0
   -8.0244    9.5937   -7.2566 H   0  0  0  0  0  0  0  0  0  0  0  0
   -5.3239   15.2487  -12.9344 H   0  0  0  0  0  0  0  0  0  0  0  0
   -6.7691   12.3178   -6.8996 H   0  0  0  0  0  0  0  0  0  0  0  0
   -2.6224    9.7184   -8.0524 H   0  0  0  0  0  0  0  0  0  0  0  0
   -4.8612    8.8324   -7.4857 H   0  0  0  0  0  0  0  0  0  0  0  0
   -4.8512    9.5682   -9.1243 H   0  0  0  0  0  0  0  0  0  0  0  0
   -4.6981   14.3596   -6.0088 H   0  0  0  0  0  0  0  0  0  0  0  0
   -0.3901   12.9695   -6.5854 H   0  0  0  0  0  0  0  0  0  0  0  0
   -0.7040   11.2129   -6.3795 H   0  0  0  0  0  0  0  0  0  0  0  0
   -0.6780   11.9339   -8.0245 H   0  0  0  0  0  0  0  0  0  0  0  0
   -4.0127   12.4865   -9.7901 H   0  0  0  0  0  0  0  0  0  0  0  0
   -3.9402   11.6243  -11.3642 H   0  0  0  0  0  0  0  0  0  0  0  0
   -2.1179   14.8274   -9.9186 H   0  0  0  0  0  0  0  0  0  0  0  0
   -1.3284   14.8371  -11.5320 H   0  0  0  0  0  0  0  0  0  0  0  0
   -3.3556   15.2013  -12.6480 H   0  0  0  0  0  0  0  0  0  0  0  0
   -3.9510   15.7504  -11.0446 H   0  0  0  0  0  0  0  0  0  0  0  0
  1  2  1  0  0  0  0
  1  4  1  0  0  0  0
  1 12  2  3  0  0  0
  2  6  2  0  0  0  0
  3  4  2  0  0  0  0
  3  5  1  0  0  0  0
  5  6  1  0  0  0  0
  5  9  2  0  0  0  0
  6  7  1  0  0  0  0
  7  8  2  0  0  0  0
  7 10  1  0  0  0  0
  8  9  1  0  0  0  0
 10 14  2  3  0  0  0
 11 12  1  0  0  0  0
 11 24  1  0  0  0  0
 11 27  1  0  0  0  0
 12 13  1  0  0  0  0
 14 15  1  0  0  0  0
 14 19  1  0  0  0  0
 15 16  2  0  0  0  0
 16 17  1  0  0  0  0
 16 20  1  0  0  0  0
 17 18  2  0  0  0  0
 17 22  1  0  0  0  0
 18 19  1  0  0  0  0
 20 21  2  0  0  0  0
 21 22  1  0  0  0  0
 22 23  1  0  0  0  0
 24 25  1  0  0  0  0
 25 26  1  0  0  0  0
 25 28  1  0  0  0  0
 25 29  1  0  0  0  0
 26 27  1  0  0  0  0
  2 30  1  0  0  0  0
  3 31  1  0  0  0  0
  4 32  1  0  0  0  0
 10 33  1  0  0  0  0
 13 34  1  0  0  0  0
 15 35  1  0  0  0  0
 18 36  1  0  0  0  0
 19 37  1  0  0  0  0
 19 38  1  0  0  0  0
 20 39  1  0  0  0  0
 23 40  1  0  0  0  0
 23 41  1  0  0  0  0
 23 42  1  0  0  0  0
 24 43  1  0  0  0  0
 24 44  1  0  0  0  0
 26 45  1  0  0  0  0
 26 46  1  0  0  0  0
 27 47  1  0  0  0  0
 27 48  1  0  0  0  0
M  END
> <Name>
43

> <IC50[uM]>
0.002

$$$$
43
  -OEChem-05192314333D
 Structure written by MMmdl.
 48 52  0     1  0  0  0  0  0999 V2000
   -6.3694   12.3608  -12.0100 C   0  0  0  0  0  0  0  0  0  0  0  0
   -6.5170   11.8053  -10.7333 C   0  0  0  0  0  0  0  0  0  0  0  0
   -7.7298   10.5799  -13.0278 C   0  0  0  0  0  0  0  0  0  0  0  0
   -6.9915   11.7687  -13.1228 C   0  0  0  0  0  0  0  0  0  0  0  0
   -7.8213   10.0100  -11.7550 C   0  0  3  0  0  0  0  0  0  0  0  0
   -7.2397   10.6196  -10.6003 C   0  0  0  0  0  0  0  0  0  0  0  0
   -7.6092    9.7471   -9.5124 C   0  0  0  0  0  0  0  0  0  0  0  0
   -8.2773    8.7308   -9.9855 N   0  0  0  0  0  0  0  0  0  0  0  0
   -8.4143    8.8607  -11.2979 N   0  0  0  0  0  0  0  0  0  0  0  0
   -7.3268    9.8907   -8.0257 C   0  0  0  0  0  0  0  0  0  0  0  0
   -4.3565   13.7183  -11.5055 N   0  0  3  0  0  0  0  0  0  0  0  0
   -5.5483   13.6363  -12.1897 C   0  0  0  0  0  0  0  0  0  0  0  0
   -5.9477   14.5322  -12.9368 O   0  0  0  0  0  0  0  0  0  0  0  0
   -5.9513   10.4999   -7.7281 C   0  0  0  0  0  0  0  0  0  0  0  0
   -5.8738   11.7695   -7.1531 C   0  0  0  0  0  0  0  0  0  0  0  0
   -4.6094   12.3134   -6.9136 C   0  0  0  0  0  0  0  0  0  0  0  0
   -3.4376   11.5622   -7.2444 C   0  0  0  0  0  0  0  0  0  0  0  0
   -3.5099   10.2841   -7.8101 C   0  0  0  0  0  0  0  0  0  0  0  0
   -4.7961    9.7769   -8.0457 C   0  0  0  0  0  0  0  0  0  0  0  0
   -4.0914   13.5427   -6.3707 C   0  0  0  0  0  0  0  0  0  0  0  0
   -2.7880   13.5314   -6.3772 N   0  0  0  0  0  0  0  0  0  0  0  0
   -2.3819   12.3721   -6.8788 N   0  0  0  0  0  0  0  0  0  0  0  0
   -0.9505   12.1058   -6.9728 C   0  0  0  0  0  0  0  0  0  0  0  0
   -3.7111   12.5665  -10.8449 C   0  0  0  0  0  0  0  0  0  0  0  0
   -2.2188   12.9372  -10.9792 C   0  0  0  0  0  0  0  0  0  0  0  0
   -2.1852   14.4611  -10.9536 C   0  0  0  0  0  0  0  0  0  0  0  0
   -3.5089   14.9092  -11.5986 C   0  0  0  0  0  0  0  0  0  0  0  0
   -1.7019   12.4742  -12.1199 F   0  0  0  0  0  0  0  0  0  0  0  0
   -1.4726   12.4435   -9.9943 F   0  0  0  0  0  0  0  0  0  0  0  0
   -6.0805   12.2847   -9.8696 H   0  0  0  0  0  0  0  0  0  0  0  0
   -8.2009   10.1304  -13.8894 H   0  0  0  0  0  0  0  0  0  0  0  0
   -6.8975   12.2468  -14.0866 H   0  0  0  0  0  0  0  0  0  0  0  0
   -6.8872    9.4574  -11.9345 H   0  0  0  0  0  0  0  0  0  0  0  0
   -8.0244    9.5937   -7.2566 H   0  0  0  0  0  0  0  0  0  0  0  0
   -5.3239   15.2487  -12.9344 H   0  0  0  0  0  0  0  0  0  0  0  0
   -6.7691   12.3178   -6.8996 H   0  0  0  0  0  0  0  0  0  0  0  0
   -2.6224    9.7184   -8.0524 H   0  0  0  0  0  0  0  0  0  0  0  0
   -4.8983    8.7963   -8.4866 H   0  0  0  0  0  0  0  0  0  0  0  0
   -4.6981   14.3596   -6.0088 H   0  0  0  0  0  0  0  0  0  0  0  0
   -0.3901   12.9695   -6.5854 H   0  0  0  0  0  0  0  0  0  0  0  0
   -0.7040   11.2129   -6.3795 H   0  0  0  0  0  0  0  0  0  0  0  0
   -0.6780   11.9339   -8.0245 H   0  0  0  0  0  0  0  0  0  0  0  0
   -4.0127   12.4865   -9.7901 H   0  0  0  0  0  0  0  0  0  0  0  0
   -3.9402   11.6243  -11.3642 H   0  0  0  0  0  0  0  0  0  0  0  0
   -2.1179   14.8274   -9.9186 H   0  0  0  0  0  0  0  0  0  0  0  0
   -1.3284   14.8371  -11.5320 H   0  0  0  0  0  0  0  0  0  0  0  0
   -3.3556   15.2013  -12.6480 H   0  0  0  0  0  0  0  0  0  0  0  0
   -3.9510   15.7504  -11.0446 H   0  0  0  0  0  0  0  0  0  0  0  0
  1  2  1  0  0  0  0
  1  4  1  0  0  0  0
  1 12  2  3  0  0  0
  2  6  2  0  0  0  0
  3  4  2  0  0  0  0
  3  5  1  0  0  0  0
  5  6  1  0  0  0  0
  5  9  1  0  0  0  0
  6  7  1  0  0  0  0
  7  8  1  0  0  0  0
  7 10  2  3  0  0  0
  8  9  2  0  0  0  0
 10 14  1  0  0  0  0
 11 12  1  0  0  0  0
 11 24  1  0  0  0  0
 11 27  1  0  0  0  0
 12 13  1  0  0  0  0
 14 15  2  0  0  0  0
 14 19  1  0  0  0  0
 15 16  1  0  0  0  0
 16 17  2  0  0  0  0
 16 20  1  0  0  0  0
 17 18  1  0  0  0  0
 17 22  1  0  0  0  0
 18 19  2  0  0  0  0
 20 21  2  0  0  0  0
 21 22  1  0  0  0  0
 22 23  1  0  0  0  0
 24 25  1  0  0  0  0
 25 26  1  0  0  0  0
 25 28  1  0  0  0  0
 25 29  1  0  0  0  0
 26 27  1  0  0  0  0
  2 30  1  0  0  0  0
  3 31  1  0  0  0  0
  4 32  1  0  0  0  0
  5 33  1  0  0  0  0
 10 34  1  0  0  0  0
 13 35  1  0  0  0  0
 15 36  1  0  0  0  0
 18 37  1  0  0  0  0
 19 38  1  0  0  0  0
 20 39  1  0  0  0  0
 23 40  1  0  0  0  0
 23 41  1  0  0  0  0
 23 42  1  0  0  0  0
 24 43  1  0  0  0  0
 24 44  1  0  0  0  0
 26 45  1  0  0  0  0
 26 46  1  0  0  0  0
 27 47  1  0  0  0  0
 27 48  1  0  0  0  0
M  END
> <Name>
43

> <IC50[uM]>
0.002

$$$$
43
  -OEChem-05192314333D
 Structure written by MMmdl.
 48 52  0     1  0  0  0  0  0999 V2000
   -6.3694   12.3608  -12.0100 C   0  0  0  0  0  0  0  0  0  0  0  0
   -6.5170   11.8053  -10.7333 C   0  0  0  0  0  0  0  0  0  0  0  0
   -7.7298   10.5799  -13.0278 C   0  0  0  0  0  0  0  0  0  0  0  0
   -6.9915   11.7687  -13.1228 C   0  0  0  0  0  0  0  0  0  0  0  0
   -7.8213   10.0100  -11.7550 C   0  0  0  0  0  0  0  0  0  0  0  0
   -7.2397   10.6196  -10.6003 C   0  0  0  0  0  0  0  0  0  0  0  0
   -7.6092    9.7471   -9.5124 C   0  0  0  0  0  0  0  0  0  0  0  0
   -8.2773    8.7308   -9.9855 N   0  0  0  0  0  0  0  0  0  0  0  0
   -8.4143    8.8607  -11.2979 N   0  0  0  0  0  0  0  0  0  0  0  0
   -7.3268    9.8907   -8.0257 C   0  0  0  0  0  0  0  0  0  0  0  0
   -4.3565   13.7183  -11.5055 N   0  0  3  0  0  0  0  0  0  0  0  0
   -5.5483   13.6363  -12.1897 C   0  0  0  0  0  0  0  0  0  0  0  0
   -5.9477   14.5322  -12.9368 O   0  0  0  0  0  0  0  0  0  0  0  0
   -5.9513   10.4999   -7.7281 C   0  0  0  0  0  0  0  0  0  0  0  0
   -5.8738   11.7695   -7.1531 C   0  0  0  0  0  0  0  0  0  0  0  0
   -4.6094   12.3134   -6.9136 C   0  0  0  0  0  0  0  0  0  0  0  0
   -3.4376   11.5622   -7.2444 C   0  0  0  0  0  0  0  0  0  0  0  0
   -3.5099   10.2841   -7.8101 C   0  0  0  0  0  0  0  0  0  0  0  0
   -4.7961    9.7769   -8.0457 C   0  0  0  0  0  0  0  0  0  0  0  0
   -4.0914   13.5427   -6.3707 C   0  0  0  0  0  0  0  0  0  0  0  0
   -2.7880   13.5314   -6.3772 N   0  0  0  0  0  0  0  0  0  0  0  0
   -2.3819   12.3721   -6.8788 N   0  0  0  0  0  0  0  0  0  0  0  0
   -0.9505   12.1058   -6.9728 C   0  0  0  0  0  0  0  0  0  0  0  0
   -3.7111   12.5665  -10.8449 C   0  0  0  0  0  0  0  0  0  0  0  0
   -2.2188   12.9372  -10.9792 C   0  0  0  0  0  0  0  0  0  0  0  0
   -2.1852   14.4611  -10.9536 C   0  0  0  0  0  0  0  0  0  0  0  0
   -3.5089   14.9092  -11.5986 C   0  0  0  0  0  0  0  0  0  0  0  0
   -1.7019   12.4742  -12.1199 F   0  0  0  0  0  0  0  0  0  0  0  0
   -1.4726   12.4435   -9.9943 F   0  0  0  0  0  0  0  0  0  0  0  0
   -6.0805   12.2847   -9.8696 H   0  0  0  0  0  0  0  0  0  0  0  0
   -8.2009   10.1304  -13.8894 H   0  0  0  0  0  0  0  0  0  0  0  0
   -7.6806   12.5252  -13.5263 H   0  0  0  0  0  0  0  0  0  0  0  0
   -6.1919   11.5745  -13.8528 H   0  0  0  0  0  0  0  0  0  0  0  0
   -8.0244    9.5937   -7.2566 H   0  0  0  0  0  0  0  0  0  0  0  0
   -5.3239   15.2487  -12.9344 H   0  0  0  0  0  0  0  0  0  0  0  0
   -6.7691   12.3178   -6.8996 H   0  0  0  0  0  0  0  0  0  0  0  0
   -2.6224    9.7184   -8.0524 H   0  0  0  0  0  0  0  0  0  0  0  0
   -4.8983    8.7963   -8.4866 H   0  0  0  0  0  0  0  0  0  0  0  0
   -4.6981   14.3596   -6.0088 H   0  0  0  0  0  0  0  0  0  0  0  0
   -0.3901   12.9695   -6.5854 H   0  0  0  0  0  0  0  0  0  0  0  0
   -0.7040   11.2129   -6.3795 H   0  0  0  0  0  0  0  0  0  0  0  0
   -0.6780   11.9339   -8.0245 H   0  0  0  0  0  0  0  0  0  0  0  0
   -4.0127   12.4865   -9.7901 H   0  0  0  0  0  0  0  0  0  0  0  0
   -3.9402   11.6243  -11.3642 H   0  0  0  0  0  0  0  0  0  0  0  0
   -2.1179   14.8274   -9.9186 H   0  0  0  0  0  0  0  0  0  0  0  0
   -1.3284   14.8371  -11.5320 H   0  0  0  0  0  0  0  0  0  0  0  0
   -3.3556   15.2013  -12.6480 H   0  0  0  0  0  0  0  0  0  0  0  0
   -3.9510   15.7504  -11.0446 H   0  0  0  0  0  0  0  0  0  0  0  0
  1  2  1  0  0  0  0
  1  4  1  0  0  0  0
  1 12  2  3  0  0  0
  2  6  2  0  0  0  0
  3  4  1  0  0  0  0
  3  5  2  0  0  0  0
  5  6  1  0  0  0  0
  5  9  1  0  0  0  0
  6  7  1  0  0  0  0
  7  8  1  0  0  0  0
  7 10  2  3  0  0  0
  8  9  2  0  0  0  0
 10 14  1  0  0  0  0
 11 12  1  0  0  0  0
 11 24  1  0  0  0  0
 11 27  1  0  0  0  0
 12 13  1  0  0  0  0
 14 15  2  0  0  0  0
 14 19  1  0  0  0  0
 15 16  1  0  0  0  0
 16 17  2  0  0  0  0
 16 20  1  0  0  0  0
 17 18  1  0  0  0  0
 17 22  1  0  0  0  0
 18 19  2  0  0  0  0
 20 21  2  0  0  0  0
 21 22  1  0  0  0  0
 22 23  1  0  0  0  0
 24 25  1  0  0  0  0
 25 26  1  0  0  0  0
 25 28  1  0  0  0  0
 25 29  1  0  0  0  0
 26 27  1  0  0  0  0
  2 30  1  0  0  0  0
  3 31  1  0  0  0  0
  4 32  1  0  0  0  0
  4 33  1  0  0  0  0
 10 34  1  0  0  0  0
 13 35  1  0  0  0  0
 15 36  1  0  0  0  0
 18 37  1  0  0  0  0
 19 38  1  0  0  0  0
 20 39  1  0  0  0  0
 23 40  1  0  0  0  0
 23 41  1  0  0  0  0
 23 42  1  0  0  0  0
 24 43  1  0  0  0  0
 24 44  1  0  0  0  0
 26 45  1  0  0  0  0
 26 46  1  0  0  0  0
 27 47  1  0  0  0  0
 27 48  1  0  0  0  0
M  END
> <Name>
43

> <IC50[uM]>
0.002

$$$$
43
  -OEChem-05192314333D
 Structure written by MMmdl.
 48 52  0     1  0  0  0  0  0999 V2000
   -6.3694   12.3608  -12.0100 C   0  0  0  0  0  0  0  0  0  0  0  0
   -6.5170   11.8053  -10.7333 C   0  0  0  0  0  0  0  0  0  0  0  0
   -7.7298   10.5799  -13.0278 C   0  0  0  0  0  0  0  0  0  0  0  0
   -6.9915   11.7687  -13.1228 C   0  0  0  0  0  0  0  0  0  0  0  0
   -7.8213   10.0100  -11.7550 C   0  0  0  0  0  0  0  0  0  0  0  0
   -7.2397   10.6196  -10.6003 C   0  0  0  0  0  0  0  0  0  0  0  0
   -7.6092    9.7471   -9.5124 C   0  0  0  0  0  0  0  0  0  0  0  0
   -8.2773    8.7308   -9.9855 N   0  0  0  0  0  0  0  0  0  0  0  0
   -8.4143    8.8607  -11.2979 N   0  0  0  0  0  0  0  0  0  0  0  0
   -7.3268    9.8907   -8.0257 C   0  0  0  0  0  0  0  0  0  0  0  0
   -4.3565   13.7183  -11.5055 N   0  0  3  0  0  0  0  0  0  0  0  0
   -5.5483   13.6363  -12.1897 C   0  0  0  0  0  0  0  0  0  0  0  0
   -5.9477   14.5322  -12.9368 O   0  0  0  0  0  0  0  0  0  0  0  0
   -5.9513   10.4999   -7.7281 C   0  0  0  0  0  0  0  0  0  0  0  0
   -5.8738   11.7695   -7.1531 C   0  0  0  0  0  0  0  0  0  0  0  0
   -4.6094   12.3134   -6.9136 C   0  0  0  0  0  0  0  0  0  0  0  0
   -3.4376   11.5622   -7.2444 C   0  0  0  0  0  0  0  0  0  0  0  0
   -3.5099   10.2841   -7.8101 C   0  0  0  0  0  0  0  0  0  0  0  0
   -4.7961    9.7769   -8.0457 C   0  0  0  0  0  0  0  0  0  0  0  0
   -4.0914   13.5427   -6.3707 C   0  0  0  0  0  0  0  0  0  0  0  0
   -2.7880   13.5314   -6.3772 N   0  0  0  0  0  0  0  0  0  0  0  0
   -2.3819   12.3721   -6.8788 N   0  0  0  0  0  0  0  0  0  0  0  0
   -0.9505   12.1058   -6.9728 C   0  0  0  0  0  0  0  0  0  0  0  0
   -3.7111   12.5665  -10.8449 C   0  0  0  0  0  0  0  0  0  0  0  0
   -2.2188   12.9372  -10.9792 C   0  0  0  0  0  0  0  0  0  0  0  0
   -2.1852   14.4611  -10.9536 C   0  0  0  0  0  0  0  0  0  0  0  0
   -3.5089   14.9092  -11.5986 C   0  0  0  0  0  0  0  0  0  0  0  0
   -1.7019   12.4742  -12.1199 F   0  0  0  0  0  0  0  0  0  0  0  0
   -1.4726   12.4435   -9.9943 F   0  0  0  0  0  0  0  0  0  0  0  0
   -5.5061   11.6142  -10.3440 H   0  0  0  0  0  0  0  0  0  0  0  0
   -7.0145   12.5602  -10.1068 H   0  0  0  0  0  0  0  0  0  0  0  0
   -8.2009   10.1304  -13.8894 H   0  0  0  0  0  0  0  0  0  0  0  0
   -6.8975   12.2468  -14.0866 H   0  0  0  0  0  0  0  0  0  0  0  0
   -8.0244    9.5937   -7.2566 H   0  0  0  0  0  0  0  0  0  0  0  0
   -5.3239   15.2487  -12.9344 H   0  0  0  0  0  0  0  0  0  0  0  0
   -6.7691   12.3178   -6.8996 H   0  0  0  0  0  0  0  0  0  0  0  0
   -2.6224    9.7184   -8.0524 H   0  0  0  0  0  0  0  0  0  0  0  0
   -4.8983    8.7963   -8.4866 H   0  0  0  0  0  0  0  0  0  0  0  0
   -4.6981   14.3596   -6.0088 H   0  0  0  0  0  0  0  0  0  0  0  0
   -0.3901   12.9695   -6.5854 H   0  0  0  0  0  0  0  0  0  0  0  0
   -0.7040   11.2129   -6.3795 H   0  0  0  0  0  0  0  0  0  0  0  0
   -0.6780   11.9339   -8.0245 H   0  0  0  0  0  0  0  0  0  0  0  0
   -4.0127   12.4865   -9.7901 H   0  0  0  0  0  0  0  0  0  0  0  0
   -3.9402   11.6243  -11.3642 H   0  0  0  0  0  0  0  0  0  0  0  0
   -2.1179   14.8274   -9.9186 H   0  0  0  0  0  0  0  0  0  0  0  0
   -1.3284   14.8371  -11.5320 H   0  0  0  0  0  0  0  0  0  0  0  0
   -3.3556   15.2013  -12.6480 H   0  0  0  0  0  0  0  0  0  0  0  0
   -3.9510   15.7504  -11.0446 H   0  0  0  0  0  0  0  0  0  0  0  0
  1  2  1  0  0  0  0
  1  4  1  0  0  0  0
  1 12  2  3  0  0  0
  2  6  1  0  0  0  0
  3  4  2  0  0  0  0
  3  5  1  0  0  0  0
  5  6  2  0  0  0  0
  5  9  1  0  0  0  0
  6  7  1  0  0  0  0
  7  8  1  0  0  0  0
  7 10  2  3  0  0  0
  8  9  2  0  0  0  0
 10 14  1  0  0  0  0
 11 12  1  0  0  0  0
 11 24  1  0  0  0  0
 11 27  1  0  0  0  0
 12 13  1  0  0  0  0
 14 15  2  0  0  0  0
 14 19  1  0  0  0  0
 15 16  1  0  0  0  0
 16 17  2  0  0  0  0
 16 20  1  0  0  0  0
 17 18  1  0  0  0  0
 17 22  1  0  0  0  0
 18 19  2  0  0  0  0
 20 21  2  0  0  0  0
 21 22  1  0  0  0  0
 22 23  1  0  0  0  0
 24 25  1  0  0  0  0
 25 26  1  0  0  0  0
 25 28  1  0  0  0  0
 25 29  1  0  0  0  0
 26 27  1  0  0  0  0
  2 30  1  0  0  0  0
  2 31  1  0  0  0  0
  3 32  1  0  0  0  0
  4 33  1  0  0  0  0
 10 34  1  0  0  0  0
 13 35  1  0  0  0  0
 15 36  1  0  0  0  0
 18 37  1  0  0  0  0
 19 38  1  0  0  0  0
 20 39  1  0  0  0  0
 23 40  1  0  0  0  0
 23 41  1  0  0  0  0
 23 42  1  0  0  0  0
 24 43  1  0  0  0  0
 24 44  1  0  0  0  0
 26 45  1  0  0  0  0
 26 46  1  0  0  0  0
 27 47  1  0  0  0  0
 27 48  1  0  0  0  0
M  END
> <Name>
43

> <IC50[uM]>
0.002

$$$$
43
  -OEChem-05192314333D
 Structure written by MMmdl.
 48 52  0     1  0  0  0  0  0999 V2000
   -6.3694   12.3608  -12.0100 C   0  0  0  0  0  0  0  0  0  0  0  0
   -6.5170   11.8053  -10.7333 C   0  0  0  0  0  0  0  0  0  0  0  0
   -7.7298   10.5799  -13.0278 C   0  0  0  0  0  0  0  0  0  0  0  0
   -6.9915   11.7687  -13.1228 C   0  0  0  0  0  0  0  0  0  0  0  0
   -7.8213   10.0100  -11.7550 C   0  0  0  0  0  0  0  0  0  0  0  0
   -7.2397   10.6196  -10.6003 C   0  0  0  0  0  0  0  0  0  0  0  0
   -7.6092    9.7471   -9.5124 C   0  0  0  0  0  0  0  0  0  0  0  0
   -8.2773    8.7308   -9.9855 N   0  0  0  0  0  0  0  0  0  0  0  0
   -8.4143    8.8607  -11.2979 N   0  0  0  0  0  0  0  0  0  0  0  0
   -7.3268    9.8907   -8.0257 C   0  0  0  0  0  0  0  0  0  0  0  0
   -4.3565   13.7183  -11.5055 N   0  0  3  0  0  0  0  0  0  0  0  0
   -5.5483   13.6363  -12.1897 C   0  0  0  0  0  0  0  0  0  0  0  0
   -5.9477   14.5322  -12.9368 O   0  0  0  0  0  0  0  0  0  0  0  0
   -5.9513   10.4999   -7.7281 C   0  0  0  0  0  0  0  0  0  0  0  0
   -5.8738   11.7695   -7.1531 C   0  0  0  0  0  0  0  0  0  0  0  0
   -4.6094   12.3134   -6.9136 C   0  0  0  0  0  0  0  0  0  0  0  0
   -3.4376   11.5622   -7.2444 C   0  0  3  0  0  0  0  0  0  0  0  0
   -3.5099   10.2841   -7.8101 C   0  0  0  0  0  0  0  0  0  0  0  0
   -4.7961    9.7769   -8.0457 C   0  0  0  0  0  0  0  0  0  0  0  0
   -4.0914   13.5427   -6.3707 C   0  0  0  0  0  0  0  0  0  0  0  0
   -2.7880   13.5314   -6.3772 N   0  0  0  0  0  0  0  0  0  0  0  0
   -2.3819   12.3721   -6.8788 N   0  0  3  0  0  0  0  0  0  0  0  0
   -0.9505   12.1058   -6.9728 C   0  0  0  0  0  0  0  0  0  0  0  0
   -3.7111   12.5665  -10.8449 C   0  0  0  0  0  0  0  0  0  0  0  0
   -2.2188   12.9372  -10.9792 C   0  0  0  0  0  0  0  0  0  0  0  0
   -2.1852   14.4611  -10.9536 C   0  0  0  0  0  0  0  0  0  0  0  0
   -3.5089   14.9092  -11.5986 C   0  0  0  0  0  0  0  0  0  0  0  0
   -1.7019   12.4742  -12.1199 F   0  0  0  0  0  0  0  0  0  0  0  0
   -1.4726   12.4435   -9.9943 F   0  0  0  0  0  0  0  0  0  0  0  0
   -6.0805   12.2847   -9.8696 H   0  0  0  0  0  0  0  0  0  0  0  0
   -8.2009   10.1304  -13.8894 H   0  0  0  0  0  0  0  0  0  0  0  0
   -6.8975   12.2468  -14.0866 H   0  0  0  0  0  0  0  0  0  0  0  0
   -8.0244    9.5937   -7.2566 H   0  0  0  0  0  0  0  0  0  0  0  0
   -5.3239   15.2487  -12.9344 H   0  0  0  0  0  0  0  0  0  0  0  0
   -6.7691   12.3178   -6.8996 H   0  0  0  0  0  0  0  0  0  0  0  0
   -3.4337   12.0085   -8.2498 H   0  0  0  0  0  0  0  0  0  0  0  0
   -2.6224    9.7184   -8.0524 H   0  0  0  0  0  0  0  0  0  0  0  0
   -4.8983    8.7963   -8.4866 H   0  0  0  0  0  0  0  0  0  0  0  0
   -4.6981   14.3596   -6.0088 H   0  0  0  0  0  0  0  0  0  0  0  0
   -0.3901   12.9695   -6.5854 H   0  0  0  0  0  0  0  0  0  0  0  0
   -0.7040   11.2129   -6.3795 H   0  0  0  0  0  0  0  0  0  0  0  0
   -0.6780   11.9339   -8.0245 H   0  0  0  0  0  0  0  0  0  0  0  0
   -4.0127   12.4865   -9.7901 H   0  0  0  0  0  0  0  0  0  0  0  0
   -3.9402   11.6243  -11.3642 H   0  0  0  0  0  0  0  0  0  0  0  0
   -2.1179   14.8274   -9.9186 H   0  0  0  0  0  0  0  0  0  0  0  0
   -1.3284   14.8371  -11.5320 H   0  0  0  0  0  0  0  0  0  0  0  0
   -3.3556   15.2013  -12.6480 H   0  0  0  0  0  0  0  0  0  0  0  0
   -3.9510   15.7504  -11.0446 H   0  0  0  0  0  0  0  0  0  0  0  0
  1  2  1  0  0  0  0
  1  4  1  0  0  0  0
  1 12  2  3  0  0  0
  2  6  2  0  0  0  0
  3  4  2  0  0  0  0
  3  5  1  0  0  0  0
  5  6  1  0  0  0  0
  5  9  2  0  0  0  0
  6  7  1  0  0  0  0
  7  8  2  0  0  0  0
  7 10  1  0  0  0  0
  8  9  1  0  0  0  0
 10 14  2  3  0  0  0
 11 12  1  0  0  0  0
 11 24  1  0  0  0  0
 11 27  1  0  0  0  0
 12 13  1  0  0  0  0
 14 15  1  0  0  0  0
 14 19  1  0  0  0  0
 15 16  2  0  0  0  0
 16 17  1  0  0  0  0
 16 20  1  0  0  0  0
 17 18  1  0  0  0  0
 17 22  1  0  0  0  0
 18 19  2  0  0  0  0
 20 21  2  0  0  0  0
 21 22  1  0  0  0  0
 22 23  1  0  0  0  0
 24 25  1  0  0  0  0
 25 26  1  0  0  0  0
 25 28  1  0  0  0  0
 25 29  1  0  0  0  0
 26 27  1  0  0  0  0
  2 30  1  0  0  0  0
  3 31  1  0  0  0  0
  4 32  1  0  0  0  0
 10 33  1  0  0  0  0
 13 34  1  0  0  0  0
 15 35  1  0  0  0  0
 17 36  1  0  0  0  0
 18 37  1  0  0  0  0
 19 38  1  0  0  0  0
 20 39  1  0  0  0  0
 23 40  1  0  0  0  0
 23 41  1  0  0  0  0
 23 42  1  0  0  0  0
 24 43  1  0  0  0  0
 24 44  1  0  0  0  0
 26 45  1  0  0  0  0
 26 46  1  0  0  0  0
 27 47  1  0  0  0  0
 27 48  1  0  0  0  0
M  END
> <Name>
43

> <IC50[uM]>
0.002

$$$$
