18
  -OEChem-05192314333D
 Structure written by MMmdl.
 41 44  0     0  0  0  0  0  0999 V2000
   -6.3808   12.3686  -12.0119 C   0  0  0  0  0  0  0  0  0  0  0  0
   -6.5112   11.8116  -10.7365 C   0  0  0  0  0  0  0  0  0  0  0  0
   -7.7301   10.5824  -13.0300 C   0  0  0  0  0  0  0  0  0  0  0  0
   -6.9992   11.7782  -13.1263 C   0  0  0  0  0  0  0  0  0  0  0  0
   -7.8250   10.0166  -11.7542 C   0  0  0  0  0  0  0  0  0  0  0  0
   -7.2407   10.6266  -10.6010 C   0  0  0  0  0  0  0  0  0  0  0  0
   -7.6094    9.7513   -9.5103 C   0  0  0  0  0  0  0  0  0  0  0  0
   -8.2849    8.7404   -9.9846 N   0  0  0  0  0  0  0  0  0  0  0  0
   -8.4192    8.8674  -11.2983 N   0  0  0  0  0  0  0  0  0  0  0  0
   -7.3225    9.8872   -8.0242 C   0  0  0  0  0  0  0  0  0  0  0  0
   -4.3834   13.6199  -11.4933 N   0  0  0  0  0  0  0  0  0  0  0  0
   -3.4237   14.7282  -11.5789 C   0  0  0  0  0  0  0  0  0  0  0  0
   -5.5369   13.6139  -12.1980 C   0  0  0  0  0  0  0  0  0  0  0  0
   -5.8771   14.5161  -12.9653 O   0  0  0  0  0  0  0  0  0  0  0  0
   -5.9516   10.5005   -7.7272 C   0  0  0  0  0  0  0  0  0  0  0  0
   -5.8803   11.7722   -7.1539 C   0  0  0  0  0  0  0  0  0  0  0  0
   -4.6129   12.3159   -6.9118 C   0  0  0  0  0  0  0  0  0  0  0  0
   -3.4418   11.5625   -7.2429 C   0  0  0  0  0  0  0  0  0  0  0  0
   -3.5059   10.2842   -7.8062 C   0  0  0  0  0  0  0  0  0  0  0  0
   -4.7935    9.7780   -8.0417 C   0  0  0  0  0  0  0  0  0  0  0  0
   -4.0936   13.5458   -6.3664 C   0  0  0  0  0  0  0  0  0  0  0  0
   -2.7885   13.5288   -6.3742 N   0  0  0  0  0  0  0  0  0  0  0  0
   -2.3831   12.3683   -6.8823 N   0  0  0  0  0  0  0  0  0  0  0  0
   -0.9539   12.1016   -6.9897 C   0  0  0  0  0  0  0  0  0  0  0  0
   -6.0597   12.2849   -9.8771 H   0  0  0  0  0  0  0  0  0  0  0  0
   -8.1927   10.1256  -13.8924 H   0  0  0  0  0  0  0  0  0  0  0  0
   -6.9098   12.2595  -14.0890 H   0  0  0  0  0  0  0  0  0  0  0  0
   -8.6468    7.9839   -9.4398 H   0  0  0  0  0  0  0  0  0  0  0  0
   -8.0964   10.5278   -7.5761 H   0  0  0  0  0  0  0  0  0  0  0  0
   -7.3644    8.8874   -7.5674 H   0  0  0  0  0  0  0  0  0  0  0  0
   -4.1771   12.8456  -10.8951 H   0  0  0  0  0  0  0  0  0  0  0  0
   -2.5640   14.5209  -10.9247 H   0  0  0  0  0  0  0  0  0  0  0  0
   -3.0770   14.8334  -12.6175 H   0  0  0  0  0  0  0  0  0  0  0  0
   -3.9113   15.6608  -11.2589 H   0  0  0  0  0  0  0  0  0  0  0  0
   -6.7769   12.3203   -6.9046 H   0  0  0  0  0  0  0  0  0  0  0  0
   -2.6169    9.7197   -8.0459 H   0  0  0  0  0  0  0  0  0  0  0  0
   -4.8951    8.7966   -8.4810 H   0  0  0  0  0  0  0  0  0  0  0  0
   -4.6981   14.3639   -6.0034 H   0  0  0  0  0  0  0  0  0  0  0  0
   -0.3895   12.9643   -6.6059 H   0  0  0  0  0  0  0  0  0  0  0  0
   -0.7026   11.2076   -6.4002 H   0  0  0  0  0  0  0  0  0  0  0  0
   -0.6910   11.9314   -8.0442 H   0  0  0  0  0  0  0  0  0  0  0  0
  1  2  2  0  0  0  0
  1  4  1  0  0  0  0
  1 13  1  0  0  0  0
  2  6  1  0  0  0  0
  3  4  2  0  0  0  0
  3  5  1  0  0  0  0
  5  6  1  0  0  0  0
  5  9  2  0  0  0  0
  6  7  2  0  0  0  0
  7  8  1  0  0  0  0
  7 10  1  0  0  0  0
  8  9  1  0  0  0  0
 10 15  1  0  0  0  0
 11 12  1  0  0  0  0
 11 13  1  0  0  0  0
 13 14  2  0  0  0  0
 15 16  2  0  0  0  0
 15 20  1  0  0  0  0
 16 17  1  0  0  0  0
 17 18  2  0  0  0  0
 17 21  1  0  0  0  0
 18 19  1  0  0  0  0
 18 23  1  0  0  0  0
 19 20  2  0  0  0  0
 21 22  2  0  0  0  0
 22 23  1  0  0  0  0
 23 24  1  0  0  0  0
  2 25  1  0  0  0  0
  3 26  1  0  0  0  0
  4 27  1  0  0  0  0
  8 28  1  0  0  0  0
 10 29  1  0  0  0  0
 10 30  1  0  0  0  0
 11 31  1  0  0  0  0
 12 32  1  0  0  0  0
 12 33  1  0  0  0  0
 12 34  1  0  0  0  0
 16 35  1  0  0  0  0
 19 36  1  0  0  0  0
 20 37  1  0  0  0  0
 21 38  1  0  0  0  0
 24 39  1  0  0  0  0
 24 40  1  0  0  0  0
 24 41  1  0  0  0  0
M  END
> <Name>
18

> <IC50[uM]>
0.01

$$$$
18
  -OEChem-05192314333D
 Structure written by MMmdl.
 41 44  0     0  0  0  0  0  0999 V2000
   -6.3808   12.3686  -12.0119 C   0  0  0  0  0  0  0  0  0  0  0  0
   -6.5112   11.8116  -10.7365 C   0  0  0  0  0  0  0  0  0  0  0  0
   -7.7301   10.5824  -13.0300 C   0  0  0  0  0  0  0  0  0  0  0  0
   -6.9992   11.7782  -13.1263 C   0  0  0  0  0  0  0  0  0  0  0  0
   -7.8250   10.0166  -11.7542 C   0  0  0  0  0  0  0  0  0  0  0  0
   -7.2407   10.6266  -10.6010 C   0  0  0  0  0  0  0  0  0  0  0  0
   -7.6094    9.7513   -9.5103 C   0  0  0  0  0  0  0  0  0  0  0  0
   -8.2849    8.7404   -9.9846 N   0  0  0  0  0  0  0  0  0  0  0  0
   -8.4192    8.8674  -11.2983 N   0  0  0  0  0  0  0  0  0  0  0  0
   -7.3225    9.8872   -8.0242 C   0  0  0  0  0  0  0  0  0  0  0  0
   -4.3834   13.6199  -11.4933 N   0  0  0  0  0  0  0  0  0  0  0  0
   -3.4237   14.7282  -11.5789 C   0  0  0  0  0  0  0  0  0  0  0  0
   -5.5369   13.6139  -12.1980 C   0  0  0  0  0  0  0  0  0  0  0  0
   -5.8771   14.5161  -12.9653 O   0  0  0  0  0  0  0  0  0  0  0  0
   -5.9516   10.5005   -7.7272 C   0  0  0  0  0  0  0  0  0  0  0  0
   -5.8803   11.7722   -7.1539 C   0  0  0  0  0  0  0  0  0  0  0  0
   -4.6129   12.3159   -6.9118 C   0  0  0  0  0  0  0  0  0  0  0  0
   -3.4418   11.5625   -7.2429 C   0  0  0  0  0  0  0  0  0  0  0  0
   -3.5059   10.2842   -7.8062 C   0  0  0  0  0  0  0  0  0  0  0  0
   -4.7935    9.7780   -8.0417 C   0  0  0  0  0  0  0  0  0  0  0  0
   -4.0936   13.5458   -6.3664 C   0  0  0  0  0  0  0  0  0  0  0  0
   -2.7885   13.5288   -6.3742 N   0  0  0  0  0  0  0  0  0  0  0  0
   -2.3831   12.3683   -6.8823 N   0  0  0  0  0  0  0  0  0  0  0  0
   -0.9539   12.1016   -6.9897 C   0  0  0  0  0  0  0  0  0  0  0  0
   -6.0597   12.2849   -9.8771 H   0  0  0  0  0  0  0  0  0  0  0  0
   -8.1927   10.1256  -13.8924 H   0  0  0  0  0  0  0  0  0  0  0  0
   -6.9098   12.2595  -14.0890 H   0  0  0  0  0  0  0  0  0  0  0  0
   -8.8936    8.2087  -11.8823 H   0  0  0  0  0  0  0  0  0  0  0  0
   -8.0964   10.5278   -7.5761 H   0  0  0  0  0  0  0  0  0  0  0  0
   -7.3644    8.8874   -7.5674 H   0  0  0  0  0  0  0  0  0  0  0  0
   -4.1771   12.8456  -10.8951 H   0  0  0  0  0  0  0  0  0  0  0  0
   -2.5640   14.5209  -10.9247 H   0  0  0  0  0  0  0  0  0  0  0  0
   -3.0770   14.8334  -12.6175 H   0  0  0  0  0  0  0  0  0  0  0  0
   -3.9113   15.6608  -11.2589 H   0  0  0  0  0  0  0  0  0  0  0  0
   -6.7769   12.3203   -6.9046 H   0  0  0  0  0  0  0  0  0  0  0  0
   -2.6169    9.7197   -8.0459 H   0  0  0  0  0  0  0  0  0  0  0  0
   -4.8951    8.7966   -8.4810 H   0  0  0  0  0  0  0  0  0  0  0  0
   -4.6981   14.3639   -6.0034 H   0  0  0  0  0  0  0  0  0  0  0  0
   -0.3895   12.9643   -6.6059 H   0  0  0  0  0  0  0  0  0  0  0  0
   -0.7026   11.2076   -6.4002 H   0  0  0  0  0  0  0  0  0  0  0  0
   -0.6910   11.9314   -8.0442 H   0  0  0  0  0  0  0  0  0  0  0  0
  1  2  2  0  0  0  0
  1  4  1  0  0  0  0
  1 13  1  0  0  0  0
  2  6  1  0  0  0  0
  3  4  2  0  0  0  0
  3  5  1  0  0  0  0
  5  6  2  0  0  0  0
  5  9  1  0  0  0  0
  6  7  1  0  0  0  0
  7  8  2  0  0  0  0
  7 10  1  0  0  0  0
  8  9  1  0  0  0  0
 10 15  1  0  0  0  0
 11 12  1  0  0  0  0
 11 13  1  0  0  0  0
 13 14  2  0  0  0  0
 15 16  2  0  0  0  0
 15 20  1  0  0  0  0
 16 17  1  0  0  0  0
 17 18  2  0  0  0  0
 17 21  1  0  0  0  0
 18 19  1  0  0  0  0
 18 23  1  0  0  0  0
 19 20  2  0  0  0  0
 21 22  2  0  0  0  0
 22 23  1  0  0  0  0
 23 24  1  0  0  0  0
  2 25  1  0  0  0  0
  3 26  1  0  0  0  0
  4 27  1  0  0  0  0
  9 28  1  0  0  0  0
 10 29  1  0  0  0  0
 10 30  1  0  0  0  0
 11 31  1  0  0  0  0
 12 32  1  0  0  0  0
 12 33  1  0  0  0  0
 12 34  1  0  0  0  0
 16 35  1  0  0  0  0
 19 36  1  0  0  0  0
 20 37  1  0  0  0  0
 21 38  1  0  0  0  0
 24 39  1  0  0  0  0
 24 40  1  0  0  0  0
 24 41  1  0  0  0  0
M  END
> <Name>
18

> <IC50[uM]>
0.01

$$$$
18
  -OEChem-05192314333D
 Structure written by MMmdl.
 41 44  0     0  0  0  0  0  0999 V2000
   -6.3808   12.3686  -12.0119 C   0  0  0  0  0  0  0  0  0  0  0  0
   -6.5112   11.8116  -10.7365 C   0  0  0  0  0  0  0  0  0  0  0  0
   -7.7301   10.5824  -13.0300 C   0  0  0  0  0  0  0  0  0  0  0  0
   -6.9992   11.7782  -13.1263 C   0  0  0  0  0  0  0  0  0  0  0  0
   -7.8250   10.0166  -11.7542 C   0  0  0  0  0  0  0  0  0  0  0  0
   -7.2407   10.6266  -10.6010 C   0  0  0  0  0  0  0  0  0  0  0  0
   -7.6094    9.7513   -9.5103 C   0  0  0  0  0  0  0  0  0  0  0  0
   -8.2849    8.7404   -9.9846 N   0  0  0  0  0  0  0  0  0  0  0  0
   -8.4192    8.8674  -11.2983 N   0  0  0  0  0  0  0  0  0  0  0  0
   -7.3225    9.8872   -8.0242 C   0  0  0  0  0  0  0  0  0  0  0  0
   -4.3834   13.6199  -11.4933 N   0  0  0  0  0  0  0  0  0  0  0  0
   -3.4237   14.7282  -11.5789 C   0  0  0  0  0  0  0  0  0  0  0  0
   -5.5369   13.6139  -12.1980 C   0  0  0  0  0  0  0  0  0  0  0  0
   -5.8771   14.5161  -12.9653 O   0  0  0  0  0  0  0  0  0  0  0  0
   -5.9516   10.5005   -7.7272 C   0  0  0  0  0  0  0  0  0  0  0  0
   -5.8803   11.7722   -7.1539 C   0  0  0  0  0  0  0  0  0  0  0  0
   -4.6129   12.3159   -6.9118 C   0  0  0  0  0  0  0  0  0  0  0  0
   -3.4418   11.5625   -7.2429 C   0  0  0  0  0  0  0  0  0  0  0  0
   -3.5059   10.2842   -7.8062 C   0  0  0  0  0  0  0  0  0  0  0  0
   -4.7935    9.7780   -8.0417 C   0  0  0  0  0  0  0  0  0  0  0  0
   -4.0936   13.5458   -6.3664 C   0  0  0  0  0  0  0  0  0  0  0  0
   -2.7885   13.5288   -6.3742 N   0  0  0  0  0  0  0  0  0  0  0  0
   -2.3831   12.3683   -6.8823 N   0  0  0  0  0  0  0  0  0  0  0  0
   -0.9539   12.1016   -6.9897 C   0  0  0  0  0  0  0  0  0  0  0  0
   -6.0597   12.2849   -9.8771 H   0  0  0  0  0  0  0  0  0  0  0  0
   -8.1927   10.1256  -13.8924 H   0  0  0  0  0  0  0  0  0  0  0  0
   -6.9098   12.2595  -14.0890 H   0  0  0  0  0  0  0  0  0  0  0  0
   -8.6468    7.9839   -9.4398 H   0  0  0  0  0  0  0  0  0  0  0  0
   -8.0964   10.5278   -7.5761 H   0  0  0  0  0  0  0  0  0  0  0  0
   -7.3644    8.8874   -7.5674 H   0  0  0  0  0  0  0  0  0  0  0  0
   -2.5640   14.5209  -10.9247 H   0  0  0  0  0  0  0  0  0  0  0  0
   -3.0770   14.8334  -12.6175 H   0  0  0  0  0  0  0  0  0  0  0  0
   -3.9113   15.6608  -11.2589 H   0  0  0  0  0  0  0  0  0  0  0  0
   -5.2270   15.2086  -12.9486 H   0  0  0  0  0  0  0  0  0  0  0  0
   -6.7769   12.3203   -6.9046 H   0  0  0  0  0  0  0  0  0  0  0  0
   -2.6169    9.7197   -8.0459 H   0  0  0  0  0  0  0  0  0  0  0  0
   -4.8951    8.7966   -8.4810 H   0  0  0  0  0  0  0  0  0  0  0  0
   -4.6981   14.3639   -6.0034 H   0  0  0  0  0  0  0  0  0  0  0  0
   -0.3895   12.9643   -6.6059 H   0  0  0  0  0  0  0  0  0  0  0  0
   -0.7026   11.2076   -6.4002 H   0  0  0  0  0  0  0  0  0  0  0  0
   -0.6910   11.9314   -8.0442 H   0  0  0  0  0  0  0  0  0  0  0  0
  1  2  2  0  0  0  0
  1  4  1  0  0  0  0
  1 13  1  0  0  0  0
  2  6  1  0  0  0  0
  3  4  2  0  0  0  0
  3  5  1  0  0  0  0
  5  6  1  0  0  0  0
  5  9  2  0  0  0  0
  6  7  2  0  0  0  0
  7  8  1  0  0  0  0
  7 10  1  0  0  0  0
  8  9  1  0  0  0  0
 10 15  1  0  0  0  0
 11 12  1  0  0  0  0
 11 13  2  0  0  0  0
 13 14  1  0  0  0  0
 15 16  2  0  0  0  0
 15 20  1  0  0  0  0
 16 17  1  0  0  0  0
 17 18  2  0  0  0  0
 17 21  1  0  0  0  0
 18 19  1  0  0  0  0
 18 23  1  0  0  0  0
 19 20  2  0  0  0  0
 21 22  2  0  0  0  0
 22 23  1  0  0  0  0
 23 24  1  0  0  0  0
  2 25  1  0  0  0  0
  3 26  1  0  0  0  0
  4 27  1  0  0  0  0
  8 28  1  0  0  0  0
 10 29  1  0  0  0  0
 10 30  1  0  0  0  0
 12 31  1  0  0  0  0
 12 32  1  0  0  0  0
 12 33  1  0  0  0  0
 14 34  1  0  0  0  0
 16 35  1  0  0  0  0
 19 36  1  0  0  0  0
 20 37  1  0  0  0  0
 21 38  1  0  0  0  0
 24 39  1  0  0  0  0
 24 40  1  0  0  0  0
 24 41  1  0  0  0  0
M  END
> <Name>
18

> <IC50[uM]>
0.01

$$$$
18
  -OEChem-05192314333D
 Structure written by MMmdl.
 41 44  0     0  0  0  0  0  0999 V2000
   -6.3808   12.3686  -12.0119 C   0  0  0  0  0  0  0  0  0  0  0  0
   -6.5112   11.8116  -10.7365 C   0  0  0  0  0  0  0  0  0  0  0  0
   -7.7301   10.5824  -13.0300 C   0  0  0  0  0  0  0  0  0  0  0  0
   -6.9992   11.7782  -13.1263 C   0  0  0  0  0  0  0  0  0  0  0  0
   -7.8250   10.0166  -11.7542 C   0  0  0  0  0  0  0  0  0  0  0  0
   -7.2407   10.6266  -10.6010 C   0  0  0  0  0  0  0  0  0  0  0  0
   -7.6094    9.7513   -9.5103 C   0  0  0  0  0  0  0  0  0  0  0  0
   -8.2849    8.7404   -9.9846 N   0  0  0  0  0  0  0  0  0  0  0  0
   -8.4192    8.8674  -11.2983 N   0  0  0  0  0  0  0  0  0  0  0  0
   -7.3225    9.8872   -8.0242 C   0  0  0  0  0  0  0  0  0  0  0  0
   -4.3834   13.6199  -11.4933 N   0  0  0  0  0  0  0  0  0  0  0  0
   -3.4237   14.7282  -11.5789 C   0  0  0  0  0  0  0  0  0  0  0  0
   -5.5369   13.6139  -12.1980 C   0  0  0  0  0  0  0  0  0  0  0  0
   -5.8771   14.5161  -12.9653 O   0  0  0  0  0  0  0  0  0  0  0  0
   -5.9516   10.5005   -7.7272 C   0  0  0  0  0  0  0  0  0  0  0  0
   -5.8803   11.7722   -7.1539 C   0  0  0  0  0  0  0  0  0  0  0  0
   -4.6129   12.3159   -6.9118 C   0  0  0  0  0  0  0  0  0  0  0  0
   -3.4418   11.5625   -7.2429 C   0  0  0  0  0  0  0  0  0  0  0  0
   -3.5059   10.2842   -7.8062 C   0  0  0  0  0  0  0  0  0  0  0  0
   -4.7935    9.7780   -8.0417 C   0  0  0  0  0  0  0  0  0  0  0  0
   -4.0936   13.5458   -6.3664 C   0  0  0  0  0  0  0  0  0  0  0  0
   -2.7885   13.5288   -6.3742 N   0  0  0  0  0  0  0  0  0  0  0  0
   -2.3831   12.3683   -6.8823 N   0  0  0  0  0  0  0  0  0  0  0  0
   -0.9539   12.1016   -6.9897 C   0  0  0  0  0  0  0  0  0  0  0  0
   -6.0597   12.2849   -9.8771 H   0  0  0  0  0  0  0  0  0  0  0  0
   -8.1927   10.1256  -13.8924 H   0  0  0  0  0  0  0  0  0  0  0  0
   -6.9098   12.2595  -14.0890 H   0  0  0  0  0  0  0  0  0  0  0  0
   -8.8936    8.2087  -11.8823 H   0  0  0  0  0  0  0  0  0  0  0  0
   -8.0964   10.5278   -7.5761 H   0  0  0  0  0  0  0  0  0  0  0  0
   -7.3644    8.8874   -7.5674 H   0  0  0  0  0  0  0  0  0  0  0  0
   -2.5640   14.5209  -10.9247 H   0  0  0  0  0  0  0  0  0  0  0  0
   -3.0770   14.8334  -12.6175 H   0  0  0  0  0  0  0  0  0  0  0  0
   -3.9113   15.6608  -11.2589 H   0  0  0  0  0  0  0  0  0  0  0  0
   -5.2270   15.2086  -12.9486 H   0  0  0  0  0  0  0  0  0  0  0  0
   -6.7769   12.3203   -6.9046 H   0  0  0  0  0  0  0  0  0  0  0  0
   -2.6169    9.7197   -8.0459 H   0  0  0  0  0  0  0  0  0  0  0  0
   -4.8951    8.7966   -8.4810 H   0  0  0  0  0  0  0  0  0  0  0  0
   -4.6981   14.3639   -6.0034 H   0  0  0  0  0  0  0  0  0  0  0  0
   -0.3895   12.9643   -6.6059 H   0  0  0  0  0  0  0  0  0  0  0  0
   -0.7026   11.2076   -6.4002 H   0  0  0  0  0  0  0  0  0  0  0  0
   -0.6910   11.9314   -8.0442 H   0  0  0  0  0  0  0  0  0  0  0  0
  1  2  2  0  0  0  0
  1  4  1  0  0  0  0
  1 13  1  0  0  0  0
  2  6  1  0  0  0  0
  3  4  2  0  0  0  0
  3  5  1  0  0  0  0
  5  6  2  0  0  0  0
  5  9  1  0  0  0  0
  6  7  1  0  0  0  0
  7  8  2  0  0  0  0
  7 10  1  0  0  0  0
  8  9  1  0  0  0  0
 10 15  1  0  0  0  0
 11 12  1  0  0  0  0
 11 13  2  0  0  0  0
 13 14  1  0  0  0  0
 15 16  2  0  0  0  0
 15 20  1  0  0  0  0
 16 17  1  0  0  0  0
 17 18  2  0  0  0  0
 17 21  1  0  0  0  0
 18 19  1  0  0  0  0
 18 23  1  0  0  0  0
 19 20  2  0  0  0  0
 21 22  2  0  0  0  0
 22 23  1  0  0  0  0
 23 24  1  0  0  0  0
  2 25  1  0  0  0  0
  3 26  1  0  0  0  0
  4 27  1  0  0  0  0
  9 28  1  0  0  0  0
 10 29  1  0  0  0  0
 10 30  1  0  0  0  0
 12 31  1  0  0  0  0
 12 32  1  0  0  0  0
 12 33  1  0  0  0  0
 14 34  1  0  0  0  0
 16 35  1  0  0  0  0
 19 36  1  0  0  0  0
 20 37  1  0  0  0  0
 21 38  1  0  0  0  0
 24 39  1  0  0  0  0
 24 40  1  0  0  0  0
 24 41  1  0  0  0  0
M  END
> <Name>
18

> <IC50[uM]>
0.01

$$$$
18
  -OEChem-05192314333D
 Structure written by MMmdl.
 41 44  0     1  0  0  0  0  0999 V2000
   -6.3808   12.3686  -12.0119 C   0  0  0  0  0  0  0  0  0  0  0  0
   -6.5112   11.8116  -10.7365 C   0  0  0  0  0  0  0  0  0  0  0  0
   -7.7301   10.5824  -13.0300 C   0  0  0  0  0  0  0  0  0  0  0  0
   -6.9992   11.7782  -13.1263 C   0  0  0  0  0  0  0  0  0  0  0  0
   -7.8250   10.0166  -11.7542 C   0  0  0  0  0  0  0  0  0  0  0  0
   -7.2407   10.6266  -10.6010 C   0  0  0  0  0  0  0  0  0  0  0  0
   -7.6094    9.7513   -9.5103 C   0  0  3  0  0  0  0  0  0  0  0  0
   -8.2849    8.7404   -9.9846 N   0  0  0  0  0  0  0  0  0  0  0  0
   -8.4192    8.8674  -11.2983 N   0  0  0  0  0  0  0  0  0  0  0  0
   -7.3225    9.8872   -8.0242 C   0  0  0  0  0  0  0  0  0  0  0  0
   -4.3834   13.6199  -11.4933 N   0  0  0  0  0  0  0  0  0  0  0  0
   -3.4237   14.7282  -11.5789 C   0  0  0  0  0  0  0  0  0  0  0  0
   -5.5369   13.6139  -12.1980 C   0  0  0  0  0  0  0  0  0  0  0  0
   -5.8771   14.5161  -12.9653 O   0  0  0  0  0  0  0  0  0  0  0  0
   -5.9516   10.5005   -7.7272 C   0  0  0  0  0  0  0  0  0  0  0  0
   -5.8803   11.7722   -7.1539 C   0  0  0  0  0  0  0  0  0  0  0  0
   -4.6129   12.3159   -6.9118 C   0  0  0  0  0  0  0  0  0  0  0  0
   -3.4418   11.5625   -7.2429 C   0  0  0  0  0  0  0  0  0  0  0  0
   -3.5059   10.2842   -7.8062 C   0  0  0  0  0  0  0  0  0  0  0  0
   -4.7935    9.7780   -8.0417 C   0  0  0  0  0  0  0  0  0  0  0  0
   -4.0936   13.5458   -6.3664 C   0  0  0  0  0  0  0  0  0  0  0  0
   -2.7885   13.5288   -6.3742 N   0  0  0  0  0  0  0  0  0  0  0  0
   -2.3831   12.3683   -6.8823 N   0  0  0  0  0  0  0  0  0  0  0  0
   -0.9539   12.1016   -6.9897 C   0  0  0  0  0  0  0  0  0  0  0  0
   -6.0597   12.2849   -9.8771 H   0  0  0  0  0  0  0  0  0  0  0  0
   -8.1927   10.1256  -13.8924 H   0  0  0  0  0  0  0  0  0  0  0  0
   -6.9098   12.2595  -14.0890 H   0  0  0  0  0  0  0  0  0  0  0  0
   -6.6727    9.1898   -9.6417 H   0  0  0  0  0  0  0  0  0  0  0  0
   -8.0964   10.5278   -7.5761 H   0  0  0  0  0  0  0  0  0  0  0  0
   -7.3644    8.8874   -7.5674 H   0  0  0  0  0  0  0  0  0  0  0  0
   -4.1771   12.8456  -10.8951 H   0  0  0  0  0  0  0  0  0  0  0  0
   -2.5640   14.5209  -10.9247 H   0  0  0  0  0  0  0  0  0  0  0  0
   -3.0770   14.8334  -12.6175 H   0  0  0  0  0  0  0  0  0  0  0  0
   -3.9113   15.6608  -11.2589 H   0  0  0  0  0  0  0  0  0  0  0  0
   -6.7769   12.3203   -6.9046 H   0  0  0  0  0  0  0  0  0  0  0  0
   -2.6169    9.7197   -8.0459 H   0  0  0  0  0  0  0  0  0  0  0  0
   -4.8951    8.7966   -8.4810 H   0  0  0  0  0  0  0  0  0  0  0  0
   -4.6981   14.3639   -6.0034 H   0  0  0  0  0  0  0  0  0  0  0  0
   -0.3895   12.9643   -6.6059 H   0  0  0  0  0  0  0  0  0  0  0  0
   -0.7026   11.2076   -6.4002 H   0  0  0  0  0  0  0  0  0  0  0  0
   -0.6910   11.9314   -8.0442 H   0  0  0  0  0  0  0  0  0  0  0  0
  1  2  2  0  0  0  0
  1  4  1  0  0  0  0
  1 13  1  0  0  0  0
  2  6  1  0  0  0  0
  3  4  2  0  0  0  0
  3  5  1  0  0  0  0
  5  6  2  0  0  0  0
  5  9  1  0  0  0  0
  6  7  1  0  0  0  0
  7  8  1  0  0  0  0
  7 10  1  0  0  0  0
  8  9  2  0  0  0  0
 10 15  1  0  0  0  0
 11 12  1  0  0  0  0
 11 13  1  0  0  0  0
 13 14  2  0  0  0  0
 15 16  2  0  0  0  0
 15 20  1  0  0  0  0
 16 17  1  0  0  0  0
 17 18  2  0  0  0  0
 17 21  1  0  0  0  0
 18 19  1  0  0  0  0
 18 23  1  0  0  0  0
 19 20  2  0  0  0  0
 21 22  2  0  0  0  0
 22 23  1  0  0  0  0
 23 24  1  0  0  0  0
  2 25  1  0  0  0  0
  3 26  1  0  0  0  0
  4 27  1  0  0  0  0
  7 28  1  0  0  0  0
 10 29  1  0  0  0  0
 10 30  1  0  0  0  0
 11 31  1  0  0  0  0
 12 32  1  0  0  0  0
 12 33  1  0  0  0  0
 12 34  1  0  0  0  0
 16 35  1  0  0  0  0
 19 36  1  0  0  0  0
 20 37  1  0  0  0  0
 21 38  1  0  0  0  0
 24 39  1  0  0  0  0
 24 40  1  0  0  0  0
 24 41  1  0  0  0  0
M  END
> <Name>
18

> <IC50[uM]>
0.01

$$$$
18
  -OEChem-05192314333D
 Structure written by MMmdl.
 41 44  0     1  0  0  0  0  0999 V2000
   -6.3808   12.3686  -12.0119 C   0  0  0  0  0  0  0  0  0  0  0  0
   -6.5112   11.8116  -10.7365 C   0  0  0  0  0  0  0  0  0  0  0  0
   -7.7301   10.5824  -13.0300 C   0  0  0  0  0  0  0  0  0  0  0  0
   -6.9992   11.7782  -13.1263 C   0  0  0  0  0  0  0  0  0  0  0  0
   -7.8250   10.0166  -11.7542 C   0  0  0  0  0  0  0  0  0  0  0  0
   -7.2407   10.6266  -10.6010 C   0  0  0  0  0  0  0  0  0  0  0  0
   -7.6094    9.7513   -9.5103 C   0  0  3  0  0  0  0  0  0  0  0  0
   -8.2849    8.7404   -9.9846 N   0  0  0  0  0  0  0  0  0  0  0  0
   -8.4192    8.8674  -11.2983 N   0  0  0  0  0  0  0  0  0  0  0  0
   -7.3225    9.8872   -8.0242 C   0  0  0  0  0  0  0  0  0  0  0  0
   -4.3834   13.6199  -11.4933 N   0  0  0  0  0  0  0  0  0  0  0  0
   -3.4237   14.7282  -11.5789 C   0  0  0  0  0  0  0  0  0  0  0  0
   -5.5369   13.6139  -12.1980 C   0  0  0  0  0  0  0  0  0  0  0  0
   -5.8771   14.5161  -12.9653 O   0  0  0  0  0  0  0  0  0  0  0  0
   -5.9516   10.5005   -7.7272 C   0  0  0  0  0  0  0  0  0  0  0  0
   -5.8803   11.7722   -7.1539 C   0  0  0  0  0  0  0  0  0  0  0  0
   -4.6129   12.3159   -6.9118 C   0  0  0  0  0  0  0  0  0  0  0  0
   -3.4418   11.5625   -7.2429 C   0  0  0  0  0  0  0  0  0  0  0  0
   -3.5059   10.2842   -7.8062 C   0  0  0  0  0  0  0  0  0  0  0  0
   -4.7935    9.7780   -8.0417 C   0  0  0  0  0  0  0  0  0  0  0  0
   -4.0936   13.5458   -6.3664 C   0  0  0  0  0  0  0  0  0  0  0  0
   -2.7885   13.5288   -6.3742 N   0  0  0  0  0  0  0  0  0  0  0  0
   -2.3831   12.3683   -6.8823 N   0  0  0  0  0  0  0  0  0  0  0  0
   -0.9539   12.1016   -6.9897 C   0  0  0  0  0  0  0  0  0  0  0  0
   -6.0597   12.2849   -9.8771 H   0  0  0  0  0  0  0  0  0  0  0  0
   -8.1927   10.1256  -13.8924 H   0  0  0  0  0  0  0  0  0  0  0  0
   -6.9098   12.2595  -14.0890 H   0  0  0  0  0  0  0  0  0  0  0  0
   -6.6727    9.1898   -9.6417 H   0  0  0  0  0  0  0  0  0  0  0  0
   -8.0964   10.5278   -7.5761 H   0  0  0  0  0  0  0  0  0  0  0  0
   -7.3644    8.8874   -7.5674 H   0  0  0  0  0  0  0  0  0  0  0  0
   -2.5640   14.5209  -10.9247 H   0  0  0  0  0  0  0  0  0  0  0  0
   -3.0770   14.8334  -12.6175 H   0  0  0  0  0  0  0  0  0  0  0  0
   -3.9113   15.6608  -11.2589 H   0  0  0  0  0  0  0  0  0  0  0  0
   -5.2270   15.2086  -12.9486 H   0  0  0  0  0  0  0  0  0  0  0  0
   -6.7769   12.3203   -6.9046 H   0  0  0  0  0  0  0  0  0  0  0  0
   -2.6169    9.7197   -8.0459 H   0  0  0  0  0  0  0  0  0  0  0  0
   -4.8951    8.7966   -8.4810 H   0  0  0  0  0  0  0  0  0  0  0  0
   -4.6981   14.3639   -6.0034 H   0  0  0  0  0  0  0  0  0  0  0  0
   -0.3895   12.9643   -6.6059 H   0  0  0  0  0  0  0  0  0  0  0  0
   -0.7026   11.2076   -6.4002 H   0  0  0  0  0  0  0  0  0  0  0  0
   -0.6910   11.9314   -8.0442 H   0  0  0  0  0  0  0  0  0  0  0  0
  1  2  2  0  0  0  0
  1  4  1  0  0  0  0
  1 13  1  0  0  0  0
  2  6  1  0  0  0  0
  3  4  2  0  0  0  0
  3  5  1  0  0  0  0
  5  6  2  0  0  0  0
  5  9  1  0  0  0  0
  6  7  1  0  0  0  0
  7  8  1  0  0  0  0
  7 10  1  0  0  0  0
  8  9  2  0  0  0  0
 10 15  1  0  0  0  0
 11 12  1  0  0  0  0
 11 13  2  0  0  0  0
 13 14  1  0  0  0  0
 15 16  2  0  0  0  0
 15 20  1  0  0  0  0
 16 17  1  0  0  0  0
 17 18  2  0  0  0  0
 17 21  1  0  0  0  0
 18 19  1  0  0  0  0
 18 23  1  0  0  0  0
 19 20  2  0  0  0  0
 21 22  2  0  0  0  0
 22 23  1  0  0  0  0
 23 24  1  0  0  0  0
  2 25  1  0  0  0  0
  3 26  1  0  0  0  0
  4 27  1  0  0  0  0
  7 28  1  0  0  0  0
 10 29  1  0  0  0  0
 10 30  1  0  0  0  0
 12 31  1  0  0  0  0
 12 32  1  0  0  0  0
 12 33  1  0  0  0  0
 14 34  1  0  0  0  0
 16 35  1  0  0  0  0
 19 36  1  0  0  0  0
 20 37  1  0  0  0  0
 21 38  1  0  0  0  0
 24 39  1  0  0  0  0
 24 40  1  0  0  0  0
 24 41  1  0  0  0  0
M  END
> <Name>
18

> <IC50[uM]>
0.01

$$$$
18
  -OEChem-05192314333D
 Structure written by MMmdl.
 41 44  0     0  0  0  0  0  0999 V2000
   -6.3808   12.3686  -12.0119 C   0  0  0  0  0  0  0  0  0  0  0  0
   -6.5112   11.8116  -10.7365 C   0  0  0  0  0  0  0  0  0  0  0  0
   -7.7301   10.5824  -13.0300 C   0  0  0  0  0  0  0  0  0  0  0  0
   -6.9992   11.7782  -13.1263 C   0  0  0  0  0  0  0  0  0  0  0  0
   -7.8250   10.0166  -11.7542 C   0  0  0  0  0  0  0  0  0  0  0  0
   -7.2407   10.6266  -10.6010 C   0  0  0  0  0  0  0  0  0  0  0  0
   -7.6094    9.7513   -9.5103 C   0  0  0  0  0  0  0  0  0  0  0  0
   -8.2849    8.7404   -9.9846 N   0  0  0  0  0  0  0  0  0  0  0  0
   -8.4192    8.8674  -11.2983 N   0  0  0  0  0  0  0  0  0  0  0  0
   -7.3225    9.8872   -8.0242 C   0  0  0  0  0  0  0  0  0  0  0  0
   -4.3834   13.6199  -11.4933 N   0  0  0  0  0  0  0  0  0  0  0  0
   -3.4237   14.7282  -11.5789 C   0  0  0  0  0  0  0  0  0  0  0  0
   -5.5369   13.6139  -12.1980 C   0  0  0  0  0  0  0  0  0  0  0  0
   -5.8771   14.5161  -12.9653 O   0  0  0  0  0  0  0  0  0  0  0  0
   -5.9516   10.5005   -7.7272 C   0  0  0  0  0  0  0  0  0  0  0  0
   -5.8803   11.7722   -7.1539 C   0  0  0  0  0  0  0  0  0  0  0  0
   -4.6129   12.3159   -6.9118 C   0  0  0  0  0  0  0  0  0  0  0  0
   -3.4418   11.5625   -7.2429 C   0  0  0  0  0  0  0  0  0  0  0  0
   -3.5059   10.2842   -7.8062 C   0  0  0  0  0  0  0  0  0  0  0  0
   -4.7935    9.7780   -8.0417 C   0  0  0  0  0  0  0  0  0  0  0  0
   -4.0936   13.5458   -6.3664 C   0  0  0  0  0  0  0  0  0  0  0  0
   -2.7885   13.5288   -6.3742 N   0  0  0  0  0  0  0  0  0  0  0  0
   -2.3831   12.3683   -6.8823 N   0  0  0  0  0  0  0  0  0  0  0  0
   -0.9539   12.1016   -6.9897 C   0  0  0  0  0  0  0  0  0  0  0  0
   -6.0597   12.2849   -9.8771 H   0  0  0  0  0  0  0  0  0  0  0  0
   -8.1927   10.1256  -13.8924 H   0  0  0  0  0  0  0  0  0  0  0  0
   -6.9098   12.2595  -14.0890 H   0  0  0  0  0  0  0  0  0  0  0  0
   -7.7982    7.8909   -9.7811 H   0  0  0  0  0  0  0  0  0  0  0  0
   -9.3929    8.8929  -11.5247 H   0  0  0  0  0  0  0  0  0  0  0  0
   -8.0161    9.5818   -7.2548 H   0  0  0  0  0  0  0  0  0  0  0  0
   -4.1771   12.8456  -10.8951 H   0  0  0  0  0  0  0  0  0  0  0  0
   -2.5640   14.5209  -10.9247 H   0  0  0  0  0  0  0  0  0  0  0  0
   -3.0770   14.8334  -12.6175 H   0  0  0  0  0  0  0  0  0  0  0  0
   -3.9113   15.6608  -11.2589 H   0  0  0  0  0  0  0  0  0  0  0  0
   -6.7769   12.3203   -6.9046 H   0  0  0  0  0  0  0  0  0  0  0  0
   -2.6169    9.7197   -8.0459 H   0  0  0  0  0  0  0  0  0  0  0  0
   -4.8951    8.7966   -8.4810 H   0  0  0  0  0  0  0  0  0  0  0  0
   -4.6981   14.3639   -6.0034 H   0  0  0  0  0  0  0  0  0  0  0  0
   -0.3895   12.9643   -6.6059 H   0  0  0  0  0  0  0  0  0  0  0  0
   -0.7026   11.2076   -6.4002 H   0  0  0  0  0  0  0  0  0  0  0  0
   -0.6910   11.9314   -8.0442 H   0  0  0  0  0  0  0  0  0  0  0  0
  1  2  2  0  0  0  0
  1  4  1  0  0  0  0
  1 13  1  0  0  0  0
  2  6  1  0  0  0  0
  3  4  2  0  0  0  0
  3  5  1  0  0  0  0
  5  6  2  0  0  0  0
  5  9  1  0  0  0  0
  6  7  1  0  0  0  0
  7  8  1  0  0  0  0
  7 10  2  3  0  0  0
  8  9  1  0  0  0  0
 10 15  1  0  0  0  0
 11 12  1  0  0  0  0
 11 13  1  0  0  0  0
 13 14  2  0  0  0  0
 15 16  2  0  0  0  0
 15 20  1  0  0  0  0
 16 17  1  0  0  0  0
 17 18  2  0  0  0  0
 17 21  1  0  0  0  0
 18 19  1  0  0  0  0
 18 23  1  0  0  0  0
 19 20  2  0  0  0  0
 21 22  2  0  0  0  0
 22 23  1  0  0  0  0
 23 24  1  0  0  0  0
  2 25  1  0  0  0  0
  3 26  1  0  0  0  0
  4 27  1  0  0  0  0
  8 28  1  0  0  0  0
  9 29  1  0  0  0  0
 10 30  1  0  0  0  0
 11 31  1  0  0  0  0
 12 32  1  0  0  0  0
 12 33  1  0  0  0  0
 12 34  1  0  0  0  0
 16 35  1  0  0  0  0
 19 36  1  0  0  0  0
 20 37  1  0  0  0  0
 21 38  1  0  0  0  0
 24 39  1  0  0  0  0
 24 40  1  0  0  0  0
 24 41  1  0  0  0  0
M  END
> <Name>
18

> <IC50[uM]>
0.01

$$$$
18
  -OEChem-05192314333D
 Structure written by MMmdl.
 41 44  0     0  0  0  0  0  0999 V2000
   -6.3808   12.3686  -12.0119 C   0  0  0  0  0  0  0  0  0  0  0  0
   -6.5112   11.8116  -10.7365 C   0  0  0  0  0  0  0  0  0  0  0  0
   -7.7301   10.5824  -13.0300 C   0  0  0  0  0  0  0  0  0  0  0  0
   -6.9992   11.7782  -13.1263 C   0  0  0  0  0  0  0  0  0  0  0  0
   -7.8250   10.0166  -11.7542 C   0  0  0  0  0  0  0  0  0  0  0  0
   -7.2407   10.6266  -10.6010 C   0  0  0  0  0  0  0  0  0  0  0  0
   -7.6094    9.7513   -9.5103 C   0  0  0  0  0  0  0  0  0  0  0  0
   -8.2849    8.7404   -9.9846 N   0  0  0  0  0  0  0  0  0  0  0  0
   -8.4192    8.8674  -11.2983 N   0  0  0  0  0  0  0  0  0  0  0  0
   -7.3225    9.8872   -8.0242 C   0  0  0  0  0  0  0  0  0  0  0  0
   -4.3834   13.6199  -11.4933 N   0  0  0  0  0  0  0  0  0  0  0  0
   -3.4237   14.7282  -11.5789 C   0  0  0  0  0  0  0  0  0  0  0  0
   -5.5369   13.6139  -12.1980 C   0  0  0  0  0  0  0  0  0  0  0  0
   -5.8771   14.5161  -12.9653 O   0  0  0  0  0  0  0  0  0  0  0  0
   -5.9516   10.5005   -7.7272 C   0  0  0  0  0  0  0  0  0  0  0  0
   -5.8803   11.7722   -7.1539 C   0  0  0  0  0  0  0  0  0  0  0  0
   -4.6129   12.3159   -6.9118 C   0  0  0  0  0  0  0  0  0  0  0  0
   -3.4418   11.5625   -7.2429 C   0  0  0  0  0  0  0  0  0  0  0  0
   -3.5059   10.2842   -7.8062 C   0  0  0  0  0  0  0  0  0  0  0  0
   -4.7935    9.7780   -8.0417 C   0  0  0  0  0  0  0  0  0  0  0  0
   -4.0936   13.5458   -6.3664 C   0  0  0  0  0  0  0  0  0  0  0  0
   -2.7885   13.5288   -6.3742 N   0  0  0  0  0  0  0  0  0  0  0  0
   -2.3831   12.3683   -6.8823 N   0  0  0  0  0  0  0  0  0  0  0  0
   -0.9539   12.1016   -6.9897 C   0  0  0  0  0  0  0  0  0  0  0  0
   -6.0597   12.2849   -9.8771 H   0  0  0  0  0  0  0  0  0  0  0  0
   -8.1927   10.1256  -13.8924 H   0  0  0  0  0  0  0  0  0  0  0  0
   -6.9098   12.2595  -14.0890 H   0  0  0  0  0  0  0  0  0  0  0  0
   -7.7982    7.8909   -9.7811 H   0  0  0  0  0  0  0  0  0  0  0  0
   -9.3929    8.8929  -11.5247 H   0  0  0  0  0  0  0  0  0  0  0  0
   -8.0161    9.5818   -7.2548 H   0  0  0  0  0  0  0  0  0  0  0  0
   -2.5640   14.5209  -10.9247 H   0  0  0  0  0  0  0  0  0  0  0  0
   -3.0770   14.8334  -12.6175 H   0  0  0  0  0  0  0  0  0  0  0  0
   -3.9113   15.6608  -11.2589 H   0  0  0  0  0  0  0  0  0  0  0  0
   -5.2270   15.2086  -12.9486 H   0  0  0  0  0  0  0  0  0  0  0  0
   -6.7769   12.3203   -6.9046 H   0  0  0  0  0  0  0  0  0  0  0  0
   -2.6169    9.7197   -8.0459 H   0  0  0  0  0  0  0  0  0  0  0  0
   -4.8951    8.7966   -8.4810 H   0  0  0  0  0  0  0  0  0  0  0  0
   -4.6981   14.3639   -6.0034 H   0  0  0  0  0  0  0  0  0  0  0  0
   -0.3895   12.9643   -6.6059 H   0  0  0  0  0  0  0  0  0  0  0  0
   -0.7026   11.2076   -6.4002 H   0  0  0  0  0  0  0  0  0  0  0  0
   -0.6910   11.9314   -8.0442 H   0  0  0  0  0  0  0  0  0  0  0  0
  1  2  2  0  0  0  0
  1  4  1  0  0  0  0
  1 13  1  0  0  0  0
  2  6  1  0  0  0  0
  3  4  2  0  0  0  0
  3  5  1  0  0  0  0
  5  6  2  0  0  0  0
  5  9  1  0  0  0  0
  6  7  1  0  0  0  0
  7  8  1  0  0  0  0
  7 10  2  3  0  0  0
  8  9  1  0  0  0  0
 10 15  1  0  0  0  0
 11 12  1  0  0  0  0
 11 13  2  0  0  0  0
 13 14  1  0  0  0  0
 15 16  2  0  0  0  0
 15 20  1  0  0  0  0
 16 17  1  0  0  0  0
 17 18  2  0  0  0  0
 17 21  1  0  0  0  0
 18 19  1  0  0  0  0
 18 23  1  0  0  0  0
 19 20  2  0  0  0  0
 21 22  2  0  0  0  0
 22 23  1  0  0  0  0
 23 24  1  0  0  0  0
  2 25  1  0  0  0  0
  3 26  1  0  0  0  0
  4 27  1  0  0  0  0
  8 28  1  0  0  0  0
  9 29  1  0  0  0  0
 10 30  1  0  0  0  0
 12 31  1  0  0  0  0
 12 32  1  0  0  0  0
 12 33  1  0  0  0  0
 14 34  1  0  0  0  0
 16 35  1  0  0  0  0
 19 36  1  0  0  0  0
 20 37  1  0  0  0  0
 21 38  1  0  0  0  0
 24 39  1  0  0  0  0
 24 40  1  0  0  0  0
 24 41  1  0  0  0  0
M  END
> <Name>
18

> <IC50[uM]>
0.01

$$$$
18
  -OEChem-05192314333D
 Structure written by MMmdl.
 41 44  0     0  0  0  0  0  0999 V2000
   -6.3808   12.3686  -12.0119 C   0  0  0  0  0  0  0  0  0  0  0  0
   -6.5112   11.8116  -10.7365 C   0  0  0  0  0  0  0  0  0  0  0  0
   -7.7301   10.5824  -13.0300 C   0  0  0  0  0  0  0  0  0  0  0  0
   -6.9992   11.7782  -13.1263 C   0  0  0  0  0  0  0  0  0  0  0  0
   -7.8250   10.0166  -11.7542 C   0  0  0  0  0  0  0  0  0  0  0  0
   -7.2407   10.6266  -10.6010 C   0  0  0  0  0  0  0  0  0  0  0  0
   -7.6094    9.7513   -9.5103 C   0  0  0  0  0  0  0  0  0  0  0  0
   -8.2849    8.7404   -9.9846 N   0  0  0  0  0  0  0  0  0  0  0  0
   -8.4192    8.8674  -11.2983 N   0  0  0  0  0  0  0  0  0  0  0  0
   -7.3225    9.8872   -8.0242 C   0  0  0  0  0  0  0  0  0  0  0  0
   -4.3834   13.6199  -11.4933 N   0  0  0  0  0  0  0  0  0  0  0  0
   -3.4237   14.7282  -11.5789 C   0  0  0  0  0  0  0  0  0  0  0  0
   -5.5369   13.6139  -12.1980 C   0  0  0  0  0  0  0  0  0  0  0  0
   -5.8771   14.5161  -12.9653 O   0  0  0  0  0  0  0  0  0  0  0  0
   -5.9516   10.5005   -7.7272 C   0  0  0  0  0  0  0  0  0  0  0  0
   -5.8803   11.7722   -7.1539 C   0  0  0  0  0  0  0  0  0  0  0  0
   -4.6129   12.3159   -6.9118 C   0  0  0  0  0  0  0  0  0  0  0  0
   -3.4418   11.5625   -7.2429 C   0  0  0  0  0  0  0  0  0  0  0  0
   -3.5059   10.2842   -7.8062 C   0  0  0  0  0  0  0  0  0  0  0  0
   -4.7935    9.7780   -8.0417 C   0  0  0  0  0  0  0  0  0  0  0  0
   -4.0936   13.5458   -6.3664 C   0  0  0  0  0  0  0  0  0  0  0  0
   -2.7885   13.5288   -6.3742 N   0  0  0  0  0  0  0  0  0  0  0  0
   -2.3831   12.3683   -6.8823 N   0  0  0  0  0  0  0  0  0  0  0  0
   -0.9539   12.1016   -6.9897 C   0  0  0  0  0  0  0  0  0  0  0  0
   -6.0597   12.2849   -9.8771 H   0  0  0  0  0  0  0  0  0  0  0  0
   -8.1927   10.1256  -13.8924 H   0  0  0  0  0  0  0  0  0  0  0  0
   -6.9098   12.2595  -14.0890 H   0  0  0  0  0  0  0  0  0  0  0  0
   -8.6468    7.9839   -9.4398 H   0  0  0  0  0  0  0  0  0  0  0  0
   -8.0161    9.5818   -7.2548 H   0  0  0  0  0  0  0  0  0  0  0  0
   -4.1771   12.8456  -10.8951 H   0  0  0  0  0  0  0  0  0  0  0  0
   -2.5640   14.5209  -10.9247 H   0  0  0  0  0  0  0  0  0  0  0  0
   -3.0770   14.8334  -12.6175 H   0  0  0  0  0  0  0  0  0  0  0  0
   -3.9113   15.6608  -11.2589 H   0  0  0  0  0  0  0  0  0  0  0  0
   -6.4095   12.4637   -7.8260 H   0  0  0  0  0  0  0  0  0  0  0  0
   -6.4055   11.7253   -6.1885 H   0  0  0  0  0  0  0  0  0  0  0  0
   -2.6169    9.7197   -8.0459 H   0  0  0  0  0  0  0  0  0  0  0  0
   -4.8951    8.7966   -8.4810 H   0  0  0  0  0  0  0  0  0  0  0  0
   -4.6981   14.3639   -6.0034 H   0  0  0  0  0  0  0  0  0  0  0  0
   -0.3895   12.9643   -6.6059 H   0  0  0  0  0  0  0  0  0  0  0  0
   -0.7026   11.2076   -6.4002 H   0  0  0  0  0  0  0  0  0  0  0  0
   -0.6910   11.9314   -8.0442 H   0  0  0  0  0  0  0  0  0  0  0  0
  1  2  2  0  0  0  0
  1  4  1  0  0  0  0
  1 13  1  0  0  0  0
  2  6  1  0  0  0  0
  3  4  2  0  0  0  0
  3  5  1  0  0  0  0
  5  6  1  0  0  0  0
  5  9  2  0  0  0  0
  6  7  2  0  0  0  0
  7  8  1  0  0  0  0
  7 10  1  0  0  0  0
  8  9  1  0  0  0  0
 10 15  2  3  0  0  0
 11 12  1  0  0  0  0
 11 13  1  0  0  0  0
 13 14  2  0  0  0  0
 15 16  1  0  0  0  0
 15 20  1  0  0  0  0
 16 17  1  0  0  0  0
 17 18  2  0  0  0  0
 17 21  1  0  0  0  0
 18 19  1  0  0  0  0
 18 23  1  0  0  0  0
 19 20  2  0  0  0  0
 21 22  2  0  0  0  0
 22 23  1  0  0  0  0
 23 24  1  0  0  0  0
  2 25  1  0  0  0  0
  3 26  1  0  0  0  0
  4 27  1  0  0  0  0
  8 28  1  0  0  0  0
 10 29  1  0  0  0  0
 11 30  1  0  0  0  0
 12 31  1  0  0  0  0
 12 32  1  0  0  0  0
 12 33  1  0  0  0  0
 16 34  1  0  0  0  0
 16 35  1  0  0  0  0
 19 36  1  0  0  0  0
 20 37  1  0  0  0  0
 21 38  1  0  0  0  0
 24 39  1  0  0  0  0
 24 40  1  0  0  0  0
 24 41  1  0  0  0  0
M  END
> <Name>
18

> <IC50[uM]>
0.01

$$$$
18
  -OEChem-05192314333D
 Structure written by MMmdl.
 41 44  0     0  0  0  0  0  0999 V2000
   -6.3808   12.3686  -12.0119 C   0  0  0  0  0  0  0  0  0  0  0  0
   -6.5112   11.8116  -10.7365 C   0  0  0  0  0  0  0  0  0  0  0  0
   -7.7301   10.5824  -13.0300 C   0  0  0  0  0  0  0  0  0  0  0  0
   -6.9992   11.7782  -13.1263 C   0  0  0  0  0  0  0  0  0  0  0  0
   -7.8250   10.0166  -11.7542 C   0  0  0  0  0  0  0  0  0  0  0  0
   -7.2407   10.6266  -10.6010 C   0  0  0  0  0  0  0  0  0  0  0  0
   -7.6094    9.7513   -9.5103 C   0  0  0  0  0  0  0  0  0  0  0  0
   -8.2849    8.7404   -9.9846 N   0  0  0  0  0  0  0  0  0  0  0  0
   -8.4192    8.8674  -11.2983 N   0  0  0  0  0  0  0  0  0  0  0  0
   -7.3225    9.8872   -8.0242 C   0  0  0  0  0  0  0  0  0  0  0  0
   -4.3834   13.6199  -11.4933 N   0  0  0  0  0  0  0  0  0  0  0  0
   -3.4237   14.7282  -11.5789 C   0  0  0  0  0  0  0  0  0  0  0  0
   -5.5369   13.6139  -12.1980 C   0  0  0  0  0  0  0  0  0  0  0  0
   -5.8771   14.5161  -12.9653 O   0  0  0  0  0  0  0  0  0  0  0  0
   -5.9516   10.5005   -7.7272 C   0  0  0  0  0  0  0  0  0  0  0  0
   -5.8803   11.7722   -7.1539 C   0  0  0  0  0  0  0  0  0  0  0  0
   -4.6129   12.3159   -6.9118 C   0  0  0  0  0  0  0  0  0  0  0  0
   -3.4418   11.5625   -7.2429 C   0  0  0  0  0  0  0  0  0  0  0  0
   -3.5059   10.2842   -7.8062 C   0  0  0  0  0  0  0  0  0  0  0  0
   -4.7935    9.7780   -8.0417 C   0  0  0  0  0  0  0  0  0  0  0  0
   -4.0936   13.5458   -6.3664 C   0  0  0  0  0  0  0  0  0  0  0  0
   -2.7885   13.5288   -6.3742 N   0  0  0  0  0  0  0  0  0  0  0  0
   -2.3831   12.3683   -6.8823 N   0  0  0  0  0  0  0  0  0  0  0  0
   -0.9539   12.1016   -6.9897 C   0  0  0  0  0  0  0  0  0  0  0  0
   -6.0597   12.2849   -9.8771 H   0  0  0  0  0  0  0  0  0  0  0  0
   -8.1927   10.1256  -13.8924 H   0  0  0  0  0  0  0  0  0  0  0  0
   -6.9098   12.2595  -14.0890 H   0  0  0  0  0  0  0  0  0  0  0  0
   -8.8936    8.2087  -11.8823 H   0  0  0  0  0  0  0  0  0  0  0  0
   -8.0161    9.5818   -7.2548 H   0  0  0  0  0  0  0  0  0  0  0  0
   -4.1771   12.8456  -10.8951 H   0  0  0  0  0  0  0  0  0  0  0  0
   -2.5640   14.5209  -10.9247 H   0  0  0  0  0  0  0  0  0  0  0  0
   -3.0770   14.8334  -12.6175 H   0  0  0  0  0  0  0  0  0  0  0  0
   -3.9113   15.6608  -11.2589 H   0  0  0  0  0  0  0  0  0  0  0  0
   -6.4095   12.4637   -7.8260 H   0  0  0  0  0  0  0  0  0  0  0  0
   -6.4055   11.7253   -6.1885 H   0  0  0  0  0  0  0  0  0  0  0  0
   -2.6169    9.7197   -8.0459 H   0  0  0  0  0  0  0  0  0  0  0  0
   -4.8951    8.7966   -8.4810 H   0  0  0  0  0  0  0  0  0  0  0  0
   -4.6981   14.3639   -6.0034 H   0  0  0  0  0  0  0  0  0  0  0  0
   -0.3895   12.9643   -6.6059 H   0  0  0  0  0  0  0  0  0  0  0  0
   -0.7026   11.2076   -6.4002 H   0  0  0  0  0  0  0  0  0  0  0  0
   -0.6910   11.9314   -8.0442 H   0  0  0  0  0  0  0  0  0  0  0  0
  1  2  2  0  0  0  0
  1  4  1  0  0  0  0
  1 13  1  0  0  0  0
  2  6  1  0  0  0  0
  3  4  2  0  0  0  0
  3  5  1  0  0  0  0
  5  6  2  0  0  0  0
  5  9  1  0  0  0  0
  6  7  1  0  0  0  0
  7  8  2  0  0  0  0
  7 10  1  0  0  0  0
  8  9  1  0  0  0  0
 10 15  2  3  0  0  0
 11 12  1  0  0  0  0
 11 13  1  0  0  0  0
 13 14  2  0  0  0  0
 15 16  1  0  0  0  0
 15 20  1  0  0  0  0
 16 17  1  0  0  0  0
 17 18  2  0  0  0  0
 17 21  1  0  0  0  0
 18 19  1  0  0  0  0
 18 23  1  0  0  0  0
 19 20  2  0  0  0  0
 21 22  2  0  0  0  0
 22 23  1  0  0  0  0
 23 24  1  0  0  0  0
  2 25  1  0  0  0  0
  3 26  1  0  0  0  0
  4 27  1  0  0  0  0
  9 28  1  0  0  0  0
 10 29  1  0  0  0  0
 11 30  1  0  0  0  0
 12 31  1  0  0  0  0
 12 32  1  0  0  0  0
 12 33  1  0  0  0  0
 16 34  1  0  0  0  0
 16 35  1  0  0  0  0
 19 36  1  0  0  0  0
 20 37  1  0  0  0  0
 21 38  1  0  0  0  0
 24 39  1  0  0  0  0
 24 40  1  0  0  0  0
 24 41  1  0  0  0  0
M  END
> <Name>
18

> <IC50[uM]>
0.01

$$$$
18
  -OEChem-05192314333D
 Structure written by MMmdl.
 41 44  0     0  0  0  0  0  0999 V2000
   -6.3808   12.3686  -12.0119 C   0  0  0  0  0  0  0  0  0  0  0  0
   -6.5112   11.8116  -10.7365 C   0  0  0  0  0  0  0  0  0  0  0  0
   -7.7301   10.5824  -13.0300 C   0  0  0  0  0  0  0  0  0  0  0  0
   -6.9992   11.7782  -13.1263 C   0  0  0  0  0  0  0  0  0  0  0  0
   -7.8250   10.0166  -11.7542 C   0  0  0  0  0  0  0  0  0  0  0  0
   -7.2407   10.6266  -10.6010 C   0  0  0  0  0  0  0  0  0  0  0  0
   -7.6094    9.7513   -9.5103 C   0  0  0  0  0  0  0  0  0  0  0  0
   -8.2849    8.7404   -9.9846 N   0  0  0  0  0  0  0  0  0  0  0  0
   -8.4192    8.8674  -11.2983 N   0  0  0  0  0  0  0  0  0  0  0  0
   -7.3225    9.8872   -8.0242 C   0  0  0  0  0  0  0  0  0  0  0  0
   -4.3834   13.6199  -11.4933 N   0  0  0  0  0  0  0  0  0  0  0  0
   -3.4237   14.7282  -11.5789 C   0  0  0  0  0  0  0  0  0  0  0  0
   -5.5369   13.6139  -12.1980 C   0  0  0  0  0  0  0  0  0  0  0  0
   -5.8771   14.5161  -12.9653 O   0  0  0  0  0  0  0  0  0  0  0  0
   -5.9516   10.5005   -7.7272 C   0  0  0  0  0  0  0  0  0  0  0  0
   -5.8803   11.7722   -7.1539 C   0  0  0  0  0  0  0  0  0  0  0  0
   -4.6129   12.3159   -6.9118 C   0  0  0  0  0  0  0  0  0  0  0  0
   -3.4418   11.5625   -7.2429 C   0  0  0  0  0  0  0  0  0  0  0  0
   -3.5059   10.2842   -7.8062 C   0  0  0  0  0  0  0  0  0  0  0  0
   -4.7935    9.7780   -8.0417 C   0  0  0  0  0  0  0  0  0  0  0  0
   -4.0936   13.5458   -6.3664 C   0  0  0  0  0  0  0  0  0  0  0  0
   -2.7885   13.5288   -6.3742 N   0  0  0  0  0  0  0  0  0  0  0  0
   -2.3831   12.3683   -6.8823 N   0  0  0  0  0  0  0  0  0  0  0  0
   -0.9539   12.1016   -6.9897 C   0  0  0  0  0  0  0  0  0  0  0  0
   -6.0597   12.2849   -9.8771 H   0  0  0  0  0  0  0  0  0  0  0  0
   -8.1927   10.1256  -13.8924 H   0  0  0  0  0  0  0  0  0  0  0  0
   -6.9098   12.2595  -14.0890 H   0  0  0  0  0  0  0  0  0  0  0  0
   -8.6468    7.9839   -9.4398 H   0  0  0  0  0  0  0  0  0  0  0  0
   -8.0161    9.5818   -7.2548 H   0  0  0  0  0  0  0  0  0  0  0  0
   -2.5640   14.5209  -10.9247 H   0  0  0  0  0  0  0  0  0  0  0  0
   -3.0770   14.8334  -12.6175 H   0  0  0  0  0  0  0  0  0  0  0  0
   -3.9113   15.6608  -11.2589 H   0  0  0  0  0  0  0  0  0  0  0  0
   -5.2270   15.2086  -12.9486 H   0  0  0  0  0  0  0  0  0  0  0  0
   -6.4095   12.4637   -7.8260 H   0  0  0  0  0  0  0  0  0  0  0  0
   -6.4055   11.7253   -6.1885 H   0  0  0  0  0  0  0  0  0  0  0  0
   -2.6169    9.7197   -8.0459 H   0  0  0  0  0  0  0  0  0  0  0  0
   -4.8951    8.7966   -8.4810 H   0  0  0  0  0  0  0  0  0  0  0  0
   -4.6981   14.3639   -6.0034 H   0  0  0  0  0  0  0  0  0  0  0  0
   -0.3895   12.9643   -6.6059 H   0  0  0  0  0  0  0  0  0  0  0  0
   -0.7026   11.2076   -6.4002 H   0  0  0  0  0  0  0  0  0  0  0  0
   -0.6910   11.9314   -8.0442 H   0  0  0  0  0  0  0  0  0  0  0  0
  1  2  2  0  0  0  0
  1  4  1  0  0  0  0
  1 13  1  0  0  0  0
  2  6  1  0  0  0  0
  3  4  2  0  0  0  0
  3  5  1  0  0  0  0
  5  6  1  0  0  0  0
  5  9  2  0  0  0  0
  6  7  2  0  0  0  0
  7  8  1  0  0  0  0
  7 10  1  0  0  0  0
  8  9  1  0  0  0  0
 10 15  2  3  0  0  0
 11 12  1  0  0  0  0
 11 13  2  0  0  0  0
 13 14  1  0  0  0  0
 15 16  1  0  0  0  0
 15 20  1  0  0  0  0
 16 17  1  0  0  0  0
 17 18  2  0  0  0  0
 17 21  1  0  0  0  0
 18 19  1  0  0  0  0
 18 23  1  0  0  0  0
 19 20  2  0  0  0  0
 21 22  2  0  0  0  0
 22 23  1  0  0  0  0
 23 24  1  0  0  0  0
  2 25  1  0  0  0  0
  3 26  1  0  0  0  0
  4 27  1  0  0  0  0
  8 28  1  0  0  0  0
 10 29  1  0  0  0  0
 12 30  1  0  0  0  0
 12 31  1  0  0  0  0
 12 32  1  0  0  0  0
 14 33  1  0  0  0  0
 16 34  1  0  0  0  0
 16 35  1  0  0  0  0
 19 36  1  0  0  0  0
 20 37  1  0  0  0  0
 21 38  1  0  0  0  0
 24 39  1  0  0  0  0
 24 40  1  0  0  0  0
 24 41  1  0  0  0  0
M  END
> <Name>
18

> <IC50[uM]>
0.01

$$$$
18
  -OEChem-05192314333D
 Structure written by MMmdl.
 41 44  0     0  0  0  0  0  0999 V2000
   -6.3808   12.3686  -12.0119 C   0  0  0  0  0  0  0  0  0  0  0  0
   -6.5112   11.8116  -10.7365 C   0  0  0  0  0  0  0  0  0  0  0  0
   -7.7301   10.5824  -13.0300 C   0  0  0  0  0  0  0  0  0  0  0  0
   -6.9992   11.7782  -13.1263 C   0  0  0  0  0  0  0  0  0  0  0  0
   -7.8250   10.0166  -11.7542 C   0  0  0  0  0  0  0  0  0  0  0  0
   -7.2407   10.6266  -10.6010 C   0  0  0  0  0  0  0  0  0  0  0  0
   -7.6094    9.7513   -9.5103 C   0  0  0  0  0  0  0  0  0  0  0  0
   -8.2849    8.7404   -9.9846 N   0  0  0  0  0  0  0  0  0  0  0  0
   -8.4192    8.8674  -11.2983 N   0  0  0  0  0  0  0  0  0  0  0  0
   -7.3225    9.8872   -8.0242 C   0  0  0  0  0  0  0  0  0  0  0  0
   -4.3834   13.6199  -11.4933 N   0  0  0  0  0  0  0  0  0  0  0  0
   -3.4237   14.7282  -11.5789 C   0  0  0  0  0  0  0  0  0  0  0  0
   -5.5369   13.6139  -12.1980 C   0  0  0  0  0  0  0  0  0  0  0  0
   -5.8771   14.5161  -12.9653 O   0  0  0  0  0  0  0  0  0  0  0  0
   -5.9516   10.5005   -7.7272 C   0  0  0  0  0  0  0  0  0  0  0  0
   -5.8803   11.7722   -7.1539 C   0  0  0  0  0  0  0  0  0  0  0  0
   -4.6129   12.3159   -6.9118 C   0  0  0  0  0  0  0  0  0  0  0  0
   -3.4418   11.5625   -7.2429 C   0  0  0  0  0  0  0  0  0  0  0  0
   -3.5059   10.2842   -7.8062 C   0  0  0  0  0  0  0  0  0  0  0  0
   -4.7935    9.7780   -8.0417 C   0  0  0  0  0  0  0  0  0  0  0  0
   -4.0936   13.5458   -6.3664 C   0  0  0  0  0  0  0  0  0  0  0  0
   -2.7885   13.5288   -6.3742 N   0  0  0  0  0  0  0  0  0  0  0  0
   -2.3831   12.3683   -6.8823 N   0  0  0  0  0  0  0  0  0  0  0  0
   -0.9539   12.1016   -6.9897 C   0  0  0  0  0  0  0  0  0  0  0  0
   -6.0597   12.2849   -9.8771 H   0  0  0  0  0  0  0  0  0  0  0  0
   -8.1927   10.1256  -13.8924 H   0  0  0  0  0  0  0  0  0  0  0  0
   -6.9098   12.2595  -14.0890 H   0  0  0  0  0  0  0  0  0  0  0  0
   -8.8936    8.2087  -11.8823 H   0  0  0  0  0  0  0  0  0  0  0  0
   -8.0161    9.5818   -7.2548 H   0  0  0  0  0  0  0  0  0  0  0  0
   -2.5640   14.5209  -10.9247 H   0  0  0  0  0  0  0  0  0  0  0  0
   -3.0770   14.8334  -12.6175 H   0  0  0  0  0  0  0  0  0  0  0  0
   -3.9113   15.6608  -11.2589 H   0  0  0  0  0  0  0  0  0  0  0  0
   -5.2270   15.2086  -12.9486 H   0  0  0  0  0  0  0  0  0  0  0  0
   -6.4095   12.4637   -7.8260 H   0  0  0  0  0  0  0  0  0  0  0  0
   -6.4055   11.7253   -6.1885 H   0  0  0  0  0  0  0  0  0  0  0  0
   -2.6169    9.7197   -8.0459 H   0  0  0  0  0  0  0  0  0  0  0  0
   -4.8951    8.7966   -8.4810 H   0  0  0  0  0  0  0  0  0  0  0  0
   -4.6981   14.3639   -6.0034 H   0  0  0  0  0  0  0  0  0  0  0  0
   -0.3895   12.9643   -6.6059 H   0  0  0  0  0  0  0  0  0  0  0  0
   -0.7026   11.2076   -6.4002 H   0  0  0  0  0  0  0  0  0  0  0  0
   -0.6910   11.9314   -8.0442 H   0  0  0  0  0  0  0  0  0  0  0  0
  1  2  2  0  0  0  0
  1  4  1  0  0  0  0
  1 13  1  0  0  0  0
  2  6  1  0  0  0  0
  3  4  2  0  0  0  0
  3  5  1  0  0  0  0
  5  6  2  0  0  0  0
  5  9  1  0  0  0  0
  6  7  1  0  0  0  0
  7  8  2  0  0  0  0
  7 10  1  0  0  0  0
  8  9  1  0  0  0  0
 10 15  2  3  0  0  0
 11 12  1  0  0  0  0
 11 13  2  0  0  0  0
 13 14  1  0  0  0  0
 15 16  1  0  0  0  0
 15 20  1  0  0  0  0
 16 17  1  0  0  0  0
 17 18  2  0  0  0  0
 17 21  1  0  0  0  0
 18 19  1  0  0  0  0
 18 23  1  0  0  0  0
 19 20  2  0  0  0  0
 21 22  2  0  0  0  0
 22 23  1  0  0  0  0
 23 24  1  0  0  0  0
  2 25  1  0  0  0  0
  3 26  1  0  0  0  0
  4 27  1  0  0  0  0
  9 28  1  0  0  0  0
 10 29  1  0  0  0  0
 12 30  1  0  0  0  0
 12 31  1  0  0  0  0
 12 32  1  0  0  0  0
 14 33  1  0  0  0  0
 16 34  1  0  0  0  0
 16 35  1  0  0  0  0
 19 36  1  0  0  0  0
 20 37  1  0  0  0  0
 21 38  1  0  0  0  0
 24 39  1  0  0  0  0
 24 40  1  0  0  0  0
 24 41  1  0  0  0  0
M  END
> <Name>
18

> <IC50[uM]>
0.01

$$$$
18
  -OEChem-05192314333D
 Structure written by MMmdl.
 41 44  0     1  0  0  0  0  0999 V2000
   -6.3808   12.3686  -12.0119 C   0  0  3  0  0  0  0  0  0  0  0  0
   -6.5112   11.8116  -10.7365 C   0  0  0  0  0  0  0  0  0  0  0  0
   -7.7301   10.5824  -13.0300 C   0  0  0  0  0  0  0  0  0  0  0  0
   -6.9992   11.7782  -13.1263 C   0  0  0  0  0  0  0  0  0  0  0  0
   -7.8250   10.0166  -11.7542 C   0  0  0  0  0  0  0  0  0  0  0  0
   -7.2407   10.6266  -10.6010 C   0  0  0  0  0  0  0  0  0  0  0  0
   -7.6094    9.7513   -9.5103 C   0  0  0  0  0  0  0  0  0  0  0  0
   -8.2849    8.7404   -9.9846 N   0  0  0  0  0  0  0  0  0  0  0  0
   -8.4192    8.8674  -11.2983 N   0  0  0  0  0  0  0  0  0  0  0  0
   -7.3225    9.8872   -8.0242 C   0  0  0  0  0  0  0  0  0  0  0  0
   -4.3834   13.6199  -11.4933 N   0  0  0  0  0  0  0  0  0  0  0  0
   -3.4237   14.7282  -11.5789 C   0  0  0  0  0  0  0  0  0  0  0  0
   -5.5369   13.6139  -12.1980 C   0  0  0  0  0  0  0  0  0  0  0  0
   -5.8771   14.5161  -12.9653 O   0  0  0  0  0  0  0  0  0  0  0  0
   -5.9516   10.5005   -7.7272 C   0  0  0  0  0  0  0  0  0  0  0  0
   -5.8803   11.7722   -7.1539 C   0  0  0  0  0  0  0  0  0  0  0  0
   -4.6129   12.3159   -6.9118 C   0  0  0  0  0  0  0  0  0  0  0  0
   -3.4418   11.5625   -7.2429 C   0  0  0  0  0  0  0  0  0  0  0  0
   -3.5059   10.2842   -7.8062 C   0  0  0  0  0  0  0  0  0  0  0  0
   -4.7935    9.7780   -8.0417 C   0  0  0  0  0  0  0  0  0  0  0  0
   -4.0936   13.5458   -6.3664 C   0  0  0  0  0  0  0  0  0  0  0  0
   -2.7885   13.5288   -6.3742 N   0  0  0  0  0  0  0  0  0  0  0  0
   -2.3831   12.3683   -6.8823 N   0  0  0  0  0  0  0  0  0  0  0  0
   -0.9539   12.1016   -6.9897 C   0  0  0  0  0  0  0  0  0  0  0  0
   -7.2714   12.9905  -11.8387 H   0  0  0  0  0  0  0  0  0  0  0  0
   -6.0597   12.2849   -9.8771 H   0  0  0  0  0  0  0  0  0  0  0  0
   -8.1927   10.1256  -13.8924 H   0  0  0  0  0  0  0  0  0  0  0  0
   -6.9098   12.2595  -14.0890 H   0  0  0  0  0  0  0  0  0  0  0  0
   -8.6468    7.9839   -9.4398 H   0  0  0  0  0  0  0  0  0  0  0  0
   -8.0161    9.5818   -7.2548 H   0  0  0  0  0  0  0  0  0  0  0  0
   -4.1771   12.8456  -10.8951 H   0  0  0  0  0  0  0  0  0  0  0  0
   -2.5640   14.5209  -10.9247 H   0  0  0  0  0  0  0  0  0  0  0  0
   -3.0770   14.8334  -12.6175 H   0  0  0  0  0  0  0  0  0  0  0  0
   -3.9113   15.6608  -11.2589 H   0  0  0  0  0  0  0  0  0  0  0  0
   -6.7769   12.3203   -6.9046 H   0  0  0  0  0  0  0  0  0  0  0  0
   -2.6169    9.7197   -8.0459 H   0  0  0  0  0  0  0  0  0  0  0  0
   -4.8951    8.7966   -8.4810 H   0  0  0  0  0  0  0  0  0  0  0  0
   -4.6981   14.3639   -6.0034 H   0  0  0  0  0  0  0  0  0  0  0  0
   -0.3895   12.9643   -6.6059 H   0  0  0  0  0  0  0  0  0  0  0  0
   -0.7026   11.2076   -6.4002 H   0  0  0  0  0  0  0  0  0  0  0  0
   -0.6910   11.9314   -8.0442 H   0  0  0  0  0  0  0  0  0  0  0  0
  1  2  1  0  0  0  0
  1  4  1  0  0  0  0
  1 13  1  0  0  0  0
  2  6  2  0  0  0  0
  3  4  2  0  0  0  0
  3  5  1  0  0  0  0
  5  6  1  0  0  0  0
  5  9  2  0  0  0  0
  6  7  1  0  0  0  0
  7  8  1  0  0  0  0
  7 10  2  3  0  0  0
  8  9  1  0  0  0  0
 10 15  1  0  0  0  0
 11 12  1  0  0  0  0
 11 13  1  0  0  0  0
 13 14  2  0  0  0  0
 15 16  2  0  0  0  0
 15 20  1  0  0  0  0
 16 17  1  0  0  0  0
 17 18  2  0  0  0  0
 17 21  1  0  0  0  0
 18 19  1  0  0  0  0
 18 23  1  0  0  0  0
 19 20  2  0  0  0  0
 21 22  2  0  0  0  0
 22 23  1  0  0  0  0
 23 24  1  0  0  0  0
  1 25  1  0  0  0  0
  2 26  1  0  0  0  0
  3 27  1  0  0  0  0
  4 28  1  0  0  0  0
  8 29  1  0  0  0  0
 10 30  1  0  0  0  0
 11 31  1  0  0  0  0
 12 32  1  0  0  0  0
 12 33  1  0  0  0  0
 12 34  1  0  0  0  0
 16 35  1  0  0  0  0
 19 36  1  0  0  0  0
 20 37  1  0  0  0  0
 21 38  1  0  0  0  0
 24 39  1  0  0  0  0
 24 40  1  0  0  0  0
 24 41  1  0  0  0  0
M  END
> <Name>
18

> <IC50[uM]>
0.01

$$$$
18
  -OEChem-05192314333D
 Structure written by MMmdl.
 41 44  0     0  0  0  0  0  0999 V2000
   -6.3808   12.3686  -12.0119 C   0  0  0  0  0  0  0  0  0  0  0  0
   -6.5112   11.8116  -10.7365 C   0  0  0  0  0  0  0  0  0  0  0  0
   -7.7301   10.5824  -13.0300 C   0  0  0  0  0  0  0  0  0  0  0  0
   -6.9992   11.7782  -13.1263 C   0  0  0  0  0  0  0  0  0  0  0  0
   -7.8250   10.0166  -11.7542 C   0  0  0  0  0  0  0  0  0  0  0  0
   -7.2407   10.6266  -10.6010 C   0  0  0  0  0  0  0  0  0  0  0  0
   -7.6094    9.7513   -9.5103 C   0  0  0  0  0  0  0  0  0  0  0  0
   -8.2849    8.7404   -9.9846 N   0  0  0  0  0  0  0  0  0  0  0  0
   -8.4192    8.8674  -11.2983 N   0  0  0  0  0  0  0  0  0  0  0  0
   -7.3225    9.8872   -8.0242 C   0  0  0  0  0  0  0  0  0  0  0  0
   -4.3834   13.6199  -11.4933 N   0  0  0  0  0  0  0  0  0  0  0  0
   -3.4237   14.7282  -11.5789 C   0  0  0  0  0  0  0  0  0  0  0  0
   -5.5369   13.6139  -12.1980 C   0  0  0  0  0  0  0  0  0  0  0  0
   -5.8771   14.5161  -12.9653 O   0  0  0  0  0  0  0  0  0  0  0  0
   -5.9516   10.5005   -7.7272 C   0  0  0  0  0  0  0  0  0  0  0  0
   -5.8803   11.7722   -7.1539 C   0  0  0  0  0  0  0  0  0  0  0  0
   -4.6129   12.3159   -6.9118 C   0  0  0  0  0  0  0  0  0  0  0  0
   -3.4418   11.5625   -7.2429 C   0  0  0  0  0  0  0  0  0  0  0  0
   -3.5059   10.2842   -7.8062 C   0  0  0  0  0  0  0  0  0  0  0  0
   -4.7935    9.7780   -8.0417 C   0  0  0  0  0  0  0  0  0  0  0  0
   -4.0936   13.5458   -6.3664 C   0  0  0  0  0  0  0  0  0  0  0  0
   -2.7885   13.5288   -6.3742 N   0  0  0  0  0  0  0  0  0  0  0  0
   -2.3831   12.3683   -6.8823 N   0  0  0  0  0  0  0  0  0  0  0  0
   -0.9539   12.1016   -6.9897 C   0  0  0  0  0  0  0  0  0  0  0  0
   -6.0597   12.2849   -9.8771 H   0  0  0  0  0  0  0  0  0  0  0  0
   -8.7517   10.7843  -13.3842 H   0  0  0  0  0  0  0  0  0  0  0  0
   -7.2525    9.8433  -13.6900 H   0  0  0  0  0  0  0  0  0  0  0  0
   -6.9098   12.2595  -14.0890 H   0  0  0  0  0  0  0  0  0  0  0  0
   -8.6468    7.9839   -9.4398 H   0  0  0  0  0  0  0  0  0  0  0  0
   -8.0161    9.5818   -7.2548 H   0  0  0  0  0  0  0  0  0  0  0  0
   -4.1771   12.8456  -10.8951 H   0  0  0  0  0  0  0  0  0  0  0  0
   -2.5640   14.5209  -10.9247 H   0  0  0  0  0  0  0  0  0  0  0  0
   -3.0770   14.8334  -12.6175 H   0  0  0  0  0  0  0  0  0  0  0  0
   -3.9113   15.6608  -11.2589 H   0  0  0  0  0  0  0  0  0  0  0  0
   -6.7769   12.3203   -6.9046 H   0  0  0  0  0  0  0  0  0  0  0  0
   -2.6169    9.7197   -8.0459 H   0  0  0  0  0  0  0  0  0  0  0  0
   -4.8951    8.7966   -8.4810 H   0  0  0  0  0  0  0  0  0  0  0  0
   -4.6981   14.3639   -6.0034 H   0  0  0  0  0  0  0  0  0  0  0  0
   -0.3895   12.9643   -6.6059 H   0  0  0  0  0  0  0  0  0  0  0  0
   -0.7026   11.2076   -6.4002 H   0  0  0  0  0  0  0  0  0  0  0  0
   -0.6910   11.9314   -8.0442 H   0  0  0  0  0  0  0  0  0  0  0  0
  1  2  1  0  0  0  0
  1  4  2  0  0  0  0
  1 13  1  0  0  0  0
  2  6  2  0  0  0  0
  3  4  1  0  0  0  0
  3  5  1  0  0  0  0
  5  6  1  0  0  0  0
  5  9  2  0  0  0  0
  6  7  1  0  0  0  0
  7  8  1  0  0  0  0
  7 10  2  3  0  0  0
  8  9  1  0  0  0  0
 10 15  1  0  0  0  0
 11 12  1  0  0  0  0
 11 13  1  0  0  0  0
 13 14  2  0  0  0  0
 15 16  2  0  0  0  0
 15 20  1  0  0  0  0
 16 17  1  0  0  0  0
 17 18  2  0  0  0  0
 17 21  1  0  0  0  0
 18 19  1  0  0  0  0
 18 23  1  0  0  0  0
 19 20  2  0  0  0  0
 21 22  2  0  0  0  0
 22 23  1  0  0  0  0
 23 24  1  0  0  0  0
  2 25  1  0  0  0  0
  3 26  1  0  0  0  0
  3 27  1  0  0  0  0
  4 28  1  0  0  0  0
  8 29  1  0  0  0  0
 10 30  1  0  0  0  0
 11 31  1  0  0  0  0
 12 32  1  0  0  0  0
 12 33  1  0  0  0  0
 12 34  1  0  0  0  0
 16 35  1  0  0  0  0
 19 36  1  0  0  0  0
 20 37  1  0  0  0  0
 21 38  1  0  0  0  0
 24 39  1  0  0  0  0
 24 40  1  0  0  0  0
 24 41  1  0  0  0  0
M  END
> <Name>
18

> <IC50[uM]>
0.01

$$$$
18
  -OEChem-05192314333D
 Structure written by MMmdl.
 41 44  0     0  0  0  0  0  0999 V2000
   -6.3808   12.3686  -12.0119 C   0  0  0  0  0  0  0  0  0  0  0  0
   -6.5112   11.8116  -10.7365 C   0  0  0  0  0  0  0  0  0  0  0  0
   -7.7301   10.5824  -13.0300 C   0  0  0  0  0  0  0  0  0  0  0  0
   -6.9992   11.7782  -13.1263 C   0  0  0  0  0  0  0  0  0  0  0  0
   -7.8250   10.0166  -11.7542 C   0  0  0  0  0  0  0  0  0  0  0  0
   -7.2407   10.6266  -10.6010 C   0  0  0  0  0  0  0  0  0  0  0  0
   -7.6094    9.7513   -9.5103 C   0  0  0  0  0  0  0  0  0  0  0  0
   -8.2849    8.7404   -9.9846 N   0  0  0  0  0  0  0  0  0  0  0  0
   -8.4192    8.8674  -11.2983 N   0  0  0  0  0  0  0  0  0  0  0  0
   -7.3225    9.8872   -8.0242 C   0  0  0  0  0  0  0  0  0  0  0  0
   -4.3834   13.6199  -11.4933 N   0  0  0  0  0  0  0  0  0  0  0  0
   -3.4237   14.7282  -11.5789 C   0  0  0  0  0  0  0  0  0  0  0  0
   -5.5369   13.6139  -12.1980 C   0  0  0  0  0  0  0  0  0  0  0  0
   -5.8771   14.5161  -12.9653 O   0  0  0  0  0  0  0  0  0  0  0  0
   -5.9516   10.5005   -7.7272 C   0  0  0  0  0  0  0  0  0  0  0  0
   -5.8803   11.7722   -7.1539 C   0  0  0  0  0  0  0  0  0  0  0  0
   -4.6129   12.3159   -6.9118 C   0  0  0  0  0  0  0  0  0  0  0  0
   -3.4418   11.5625   -7.2429 C   0  0  0  0  0  0  0  0  0  0  0  0
   -3.5059   10.2842   -7.8062 C   0  0  0  0  0  0  0  0  0  0  0  0
   -4.7935    9.7780   -8.0417 C   0  0  0  0  0  0  0  0  0  0  0  0
   -4.0936   13.5458   -6.3664 C   0  0  0  0  0  0  0  0  0  0  0  0
   -2.7885   13.5288   -6.3742 N   0  0  0  0  0  0  0  0  0  0  0  0
   -2.3831   12.3683   -6.8823 N   0  0  0  0  0  0  0  0  0  0  0  0
   -0.9539   12.1016   -6.9897 C   0  0  0  0  0  0  0  0  0  0  0  0
   -6.0597   12.2849   -9.8771 H   0  0  0  0  0  0  0  0  0  0  0  0
   -8.1927   10.1256  -13.8924 H   0  0  0  0  0  0  0  0  0  0  0  0
   -6.9098   12.2595  -14.0890 H   0  0  0  0  0  0  0  0  0  0  0  0
   -8.6468    7.9839   -9.4398 H   0  0  0  0  0  0  0  0  0  0  0  0
   -8.0161    9.5818   -7.2548 H   0  0  0  0  0  0  0  0  0  0  0  0
   -4.1771   12.8456  -10.8951 H   0  0  0  0  0  0  0  0  0  0  0  0
   -2.5640   14.5209  -10.9247 H   0  0  0  0  0  0  0  0  0  0  0  0
   -3.0770   14.8334  -12.6175 H   0  0  0  0  0  0  0  0  0  0  0  0
   -3.9113   15.6608  -11.2589 H   0  0  0  0  0  0  0  0  0  0  0  0
   -6.7769   12.3203   -6.9046 H   0  0  0  0  0  0  0  0  0  0  0  0
   -2.6169    9.7197   -8.0459 H   0  0  0  0  0  0  0  0  0  0  0  0
   -4.8591    8.8345   -7.4800 H   0  0  0  0  0  0  0  0  0  0  0  0
   -4.8473    9.5673   -9.1200 H   0  0  0  0  0  0  0  0  0  0  0  0
   -4.6981   14.3639   -6.0034 H   0  0  0  0  0  0  0  0  0  0  0  0
   -0.3895   12.9643   -6.6059 H   0  0  0  0  0  0  0  0  0  0  0  0
   -0.7026   11.2076   -6.4002 H   0  0  0  0  0  0  0  0  0  0  0  0
   -0.6910   11.9314   -8.0442 H   0  0  0  0  0  0  0  0  0  0  0  0
  1  2  2  0  0  0  0
  1  4  1  0  0  0  0
  1 13  1  0  0  0  0
  2  6  1  0  0  0  0
  3  4  2  0  0  0  0
  3  5  1  0  0  0  0
  5  6  1  0  0  0  0
  5  9  2  0  0  0  0
  6  7  2  0  0  0  0
  7  8  1  0  0  0  0
  7 10  1  0  0  0  0
  8  9  1  0  0  0  0
 10 15  2  3  0  0  0
 11 12  1  0  0  0  0
 11 13  1  0  0  0  0
 13 14  2  0  0  0  0
 15 16  1  0  0  0  0
 15 20  1  0  0  0  0
 16 17  2  0  0  0  0
 17 18  1  0  0  0  0
 17 21  1  0  0  0  0
 18 19  2  0  0  0  0
 18 23  1  0  0  0  0
 19 20  1  0  0  0  0
 21 22  2  0  0  0  0
 22 23  1  0  0  0  0
 23 24  1  0  0  0  0
  2 25  1  0  0  0  0
  3 26  1  0  0  0  0
  4 27  1  0  0  0  0
  8 28  1  0  0  0  0
 10 29  1  0  0  0  0
 11 30  1  0  0  0  0
 12 31  1  0  0  0  0
 12 32  1  0  0  0  0
 12 33  1  0  0  0  0
 16 34  1  0  0  0  0
 19 35  1  0  0  0  0
 20 36  1  0  0  0  0
 20 37  1  0  0  0  0
 21 38  1  0  0  0  0
 24 39  1  0  0  0  0
 24 40  1  0  0  0  0
 24 41  1  0  0  0  0
M  END
> <Name>
18

> <IC50[uM]>
0.01

$$$$
18
  -OEChem-05192314333D
 Structure written by MMmdl.
 41 44  0     0  0  0  0  0  0999 V2000
   -6.3808   12.3686  -12.0119 C   0  0  0  0  0  0  0  0  0  0  0  0
   -6.5112   11.8116  -10.7365 C   0  0  0  0  0  0  0  0  0  0  0  0
   -7.7301   10.5824  -13.0300 C   0  0  0  0  0  0  0  0  0  0  0  0
   -6.9992   11.7782  -13.1263 C   0  0  0  0  0  0  0  0  0  0  0  0
   -7.8250   10.0166  -11.7542 C   0  0  0  0  0  0  0  0  0  0  0  0
   -7.2407   10.6266  -10.6010 C   0  0  0  0  0  0  0  0  0  0  0  0
   -7.6094    9.7513   -9.5103 C   0  0  0  0  0  0  0  0  0  0  0  0
   -8.2849    8.7404   -9.9846 N   0  0  0  0  0  0  0  0  0  0  0  0
   -8.4192    8.8674  -11.2983 N   0  0  0  0  0  0  0  0  0  0  0  0
   -7.3225    9.8872   -8.0242 C   0  0  0  0  0  0  0  0  0  0  0  0
   -4.3834   13.6199  -11.4933 N   0  0  0  0  0  0  0  0  0  0  0  0
   -3.4237   14.7282  -11.5789 C   0  0  0  0  0  0  0  0  0  0  0  0
   -5.5369   13.6139  -12.1980 C   0  0  0  0  0  0  0  0  0  0  0  0
   -5.8771   14.5161  -12.9653 O   0  0  0  0  0  0  0  0  0  0  0  0
   -5.9516   10.5005   -7.7272 C   0  0  0  0  0  0  0  0  0  0  0  0
   -5.8803   11.7722   -7.1539 C   0  0  0  0  0  0  0  0  0  0  0  0
   -4.6129   12.3159   -6.9118 C   0  0  0  0  0  0  0  0  0  0  0  0
   -3.4418   11.5625   -7.2429 C   0  0  0  0  0  0  0  0  0  0  0  0
   -3.5059   10.2842   -7.8062 C   0  0  0  0  0  0  0  0  0  0  0  0
   -4.7935    9.7780   -8.0417 C   0  0  0  0  0  0  0  0  0  0  0  0
   -4.0936   13.5458   -6.3664 C   0  0  0  0  0  0  0  0  0  0  0  0
   -2.7885   13.5288   -6.3742 N   0  0  0  0  0  0  0  0  0  0  0  0
   -2.3831   12.3683   -6.8823 N   0  0  0  0  0  0  0  0  0  0  0  0
   -0.9539   12.1016   -6.9897 C   0  0  0  0  0  0  0  0  0  0  0  0
   -6.0597   12.2849   -9.8771 H   0  0  0  0  0  0  0  0  0  0  0  0
   -8.1927   10.1256  -13.8924 H   0  0  0  0  0  0  0  0  0  0  0  0
   -6.9098   12.2595  -14.0890 H   0  0  0  0  0  0  0  0  0  0  0  0
   -8.8936    8.2087  -11.8823 H   0  0  0  0  0  0  0  0  0  0  0  0
   -8.0161    9.5818   -7.2548 H   0  0  0  0  0  0  0  0  0  0  0  0
   -4.1771   12.8456  -10.8951 H   0  0  0  0  0  0  0  0  0  0  0  0
   -2.5640   14.5209  -10.9247 H   0  0  0  0  0  0  0  0  0  0  0  0
   -3.0770   14.8334  -12.6175 H   0  0  0  0  0  0  0  0  0  0  0  0
   -3.9113   15.6608  -11.2589 H   0  0  0  0  0  0  0  0  0  0  0  0
   -6.7769   12.3203   -6.9046 H   0  0  0  0  0  0  0  0  0  0  0  0
   -2.6169    9.7197   -8.0459 H   0  0  0  0  0  0  0  0  0  0  0  0
   -4.8591    8.8345   -7.4800 H   0  0  0  0  0  0  0  0  0  0  0  0
   -4.8473    9.5673   -9.1200 H   0  0  0  0  0  0  0  0  0  0  0  0
   -4.6981   14.3639   -6.0034 H   0  0  0  0  0  0  0  0  0  0  0  0
   -0.3895   12.9643   -6.6059 H   0  0  0  0  0  0  0  0  0  0  0  0
   -0.7026   11.2076   -6.4002 H   0  0  0  0  0  0  0  0  0  0  0  0
   -0.6910   11.9314   -8.0442 H   0  0  0  0  0  0  0  0  0  0  0  0
  1  2  2  0  0  0  0
  1  4  1  0  0  0  0
  1 13  1  0  0  0  0
  2  6  1  0  0  0  0
  3  4  2  0  0  0  0
  3  5  1  0  0  0  0
  5  6  2  0  0  0  0
  5  9  1  0  0  0  0
  6  7  1  0  0  0  0
  7  8  2  0  0  0  0
  7 10  1  0  0  0  0
  8  9  1  0  0  0  0
 10 15  2  3  0  0  0
 11 12  1  0  0  0  0
 11 13  1  0  0  0  0
 13 14  2  0  0  0  0
 15 16  1  0  0  0  0
 15 20  1  0  0  0  0
 16 17  2  0  0  0  0
 17 18  1  0  0  0  0
 17 21  1  0  0  0  0
 18 19  2  0  0  0  0
 18 23  1  0  0  0  0
 19 20  1  0  0  0  0
 21 22  2  0  0  0  0
 22 23  1  0  0  0  0
 23 24  1  0  0  0  0
  2 25  1  0  0  0  0
  3 26  1  0  0  0  0
  4 27  1  0  0  0  0
  9 28  1  0  0  0  0
 10 29  1  0  0  0  0
 11 30  1  0  0  0  0
 12 31  1  0  0  0  0
 12 32  1  0  0  0  0
 12 33  1  0  0  0  0
 16 34  1  0  0  0  0
 19 35  1  0  0  0  0
 20 36  1  0  0  0  0
 20 37  1  0  0  0  0
 21 38  1  0  0  0  0
 24 39  1  0  0  0  0
 24 40  1  0  0  0  0
 24 41  1  0  0  0  0
M  END
> <Name>
18

> <IC50[uM]>
0.01

$$$$
18
  -OEChem-05192314333D
 Structure written by MMmdl.
 41 44  0     1  0  0  0  0  0999 V2000
   -6.3808   12.3686  -12.0119 C   0  0  3  0  0  0  0  0  0  0  0  0
   -6.5112   11.8116  -10.7365 C   0  0  0  0  0  0  0  0  0  0  0  0
   -7.7301   10.5824  -13.0300 C   0  0  0  0  0  0  0  0  0  0  0  0
   -6.9992   11.7782  -13.1263 C   0  0  0  0  0  0  0  0  0  0  0  0
   -7.8250   10.0166  -11.7542 C   0  0  0  0  0  0  0  0  0  0  0  0
   -7.2407   10.6266  -10.6010 C   0  0  0  0  0  0  0  0  0  0  0  0
   -7.6094    9.7513   -9.5103 C   0  0  0  0  0  0  0  0  0  0  0  0
   -8.2849    8.7404   -9.9846 N   0  0  0  0  0  0  0  0  0  0  0  0
   -8.4192    8.8674  -11.2983 N   0  0  0  0  0  0  0  0  0  0  0  0
   -7.3225    9.8872   -8.0242 C   0  0  0  0  0  0  0  0  0  0  0  0
   -4.3834   13.6199  -11.4933 N   0  0  0  0  0  0  0  0  0  0  0  0
   -3.4237   14.7282  -11.5789 C   0  0  0  0  0  0  0  0  0  0  0  0
   -5.5369   13.6139  -12.1980 C   0  0  0  0  0  0  0  0  0  0  0  0
   -5.8771   14.5161  -12.9653 O   0  0  0  0  0  0  0  0  0  0  0  0
   -5.9516   10.5005   -7.7272 C   0  0  0  0  0  0  0  0  0  0  0  0
   -5.8803   11.7722   -7.1539 C   0  0  0  0  0  0  0  0  0  0  0  0
   -4.6129   12.3159   -6.9118 C   0  0  0  0  0  0  0  0  0  0  0  0
   -3.4418   11.5625   -7.2429 C   0  0  0  0  0  0  0  0  0  0  0  0
   -3.5059   10.2842   -7.8062 C   0  0  0  0  0  0  0  0  0  0  0  0
   -4.7935    9.7780   -8.0417 C   0  0  0  0  0  0  0  0  0  0  0  0
   -4.0936   13.5458   -6.3664 C   0  0  0  0  0  0  0  0  0  0  0  0
   -2.7885   13.5288   -6.3742 N   0  0  0  0  0  0  0  0  0  0  0  0
   -2.3831   12.3683   -6.8823 N   0  0  0  0  0  0  0  0  0  0  0  0
   -0.9539   12.1016   -6.9897 C   0  0  0  0  0  0  0  0  0  0  0  0
   -7.2714   12.9905  -11.8387 H   0  0  0  0  0  0  0  0  0  0  0  0
   -6.0597   12.2849   -9.8771 H   0  0  0  0  0  0  0  0  0  0  0  0
   -8.1927   10.1256  -13.8924 H   0  0  0  0  0  0  0  0  0  0  0  0
   -6.9098   12.2595  -14.0890 H   0  0  0  0  0  0  0  0  0  0  0  0
   -8.6468    7.9839   -9.4398 H   0  0  0  0  0  0  0  0  0  0  0  0
   -8.0161    9.5818   -7.2548 H   0  0  0  0  0  0  0  0  0  0  0  0
   -2.5640   14.5209  -10.9247 H   0  0  0  0  0  0  0  0  0  0  0  0
   -3.0770   14.8334  -12.6175 H   0  0  0  0  0  0  0  0  0  0  0  0
   -3.9113   15.6608  -11.2589 H   0  0  0  0  0  0  0  0  0  0  0  0
   -5.2270   15.2086  -12.9486 H   0  0  0  0  0  0  0  0  0  0  0  0
   -6.7769   12.3203   -6.9046 H   0  0  0  0  0  0  0  0  0  0  0  0
   -2.6169    9.7197   -8.0459 H   0  0  0  0  0  0  0  0  0  0  0  0
   -4.8951    8.7966   -8.4810 H   0  0  0  0  0  0  0  0  0  0  0  0
   -4.6981   14.3639   -6.0034 H   0  0  0  0  0  0  0  0  0  0  0  0
   -0.3895   12.9643   -6.6059 H   0  0  0  0  0  0  0  0  0  0  0  0
   -0.7026   11.2076   -6.4002 H   0  0  0  0  0  0  0  0  0  0  0  0
   -0.6910   11.9314   -8.0442 H   0  0  0  0  0  0  0  0  0  0  0  0
  1  2  1  0  0  0  0
  1  4  1  0  0  0  0
  1 13  1  0  0  0  0
  2  6  2  0  0  0  0
  3  4  2  0  0  0  0
  3  5  1  0  0  0  0
  5  6  1  0  0  0  0
  5  9  2  0  0  0  0
  6  7  1  0  0  0  0
  7  8  1  0  0  0  0
  7 10  2  3  0  0  0
  8  9  1  0  0  0  0
 10 15  1  0  0  0  0
 11 12  1  0  0  0  0
 11 13  2  0  0  0  0
 13 14  1  0  0  0  0
 15 16  2  0  0  0  0
 15 20  1  0  0  0  0
 16 17  1  0  0  0  0
 17 18  2  0  0  0  0
 17 21  1  0  0  0  0
 18 19  1  0  0  0  0
 18 23  1  0  0  0  0
 19 20  2  0  0  0  0
 21 22  2  0  0  0  0
 22 23  1  0  0  0  0
 23 24  1  0  0  0  0
  1 25  1  0  0  0  0
  2 26  1  0  0  0  0
  3 27  1  0  0  0  0
  4 28  1  0  0  0  0
  8 29  1  0  0  0  0
 10 30  1  0  0  0  0
 12 31  1  0  0  0  0
 12 32  1  0  0  0  0
 12 33  1  0  0  0  0
 14 34  1  0  0  0  0
 16 35  1  0  0  0  0
 19 36  1  0  0  0  0
 20 37  1  0  0  0  0
 21 38  1  0  0  0  0
 24 39  1  0  0  0  0
 24 40  1  0  0  0  0
 24 41  1  0  0  0  0
M  END
> <Name>
18

> <IC50[uM]>
0.01

$$$$
18
  -OEChem-05192314333D
 Structure written by MMmdl.
 41 44  0     0  0  0  0  0  0999 V2000
   -6.3808   12.3686  -12.0119 C   0  0  0  0  0  0  0  0  0  0  0  0
   -6.5112   11.8116  -10.7365 C   0  0  0  0  0  0  0  0  0  0  0  0
   -7.7301   10.5824  -13.0300 C   0  0  0  0  0  0  0  0  0  0  0  0
   -6.9992   11.7782  -13.1263 C   0  0  0  0  0  0  0  0  0  0  0  0
   -7.8250   10.0166  -11.7542 C   0  0  0  0  0  0  0  0  0  0  0  0
   -7.2407   10.6266  -10.6010 C   0  0  0  0  0  0  0  0  0  0  0  0
   -7.6094    9.7513   -9.5103 C   0  0  0  0  0  0  0  0  0  0  0  0
   -8.2849    8.7404   -9.9846 N   0  0  0  0  0  0  0  0  0  0  0  0
   -8.4192    8.8674  -11.2983 N   0  0  0  0  0  0  0  0  0  0  0  0
   -7.3225    9.8872   -8.0242 C   0  0  0  0  0  0  0  0  0  0  0  0
   -4.3834   13.6199  -11.4933 N   0  0  0  0  0  0  0  0  0  0  0  0
   -3.4237   14.7282  -11.5789 C   0  0  0  0  0  0  0  0  0  0  0  0
   -5.5369   13.6139  -12.1980 C   0  0  0  0  0  0  0  0  0  0  0  0
   -5.8771   14.5161  -12.9653 O   0  0  0  0  0  0  0  0  0  0  0  0
   -5.9516   10.5005   -7.7272 C   0  0  0  0  0  0  0  0  0  0  0  0
   -5.8803   11.7722   -7.1539 C   0  0  0  0  0  0  0  0  0  0  0  0
   -4.6129   12.3159   -6.9118 C   0  0  0  0  0  0  0  0  0  0  0  0
   -3.4418   11.5625   -7.2429 C   0  0  0  0  0  0  0  0  0  0  0  0
   -3.5059   10.2842   -7.8062 C   0  0  0  0  0  0  0  0  0  0  0  0
   -4.7935    9.7780   -8.0417 C   0  0  0  0  0  0  0  0  0  0  0  0
   -4.0936   13.5458   -6.3664 C   0  0  0  0  0  0  0  0  0  0  0  0
   -2.7885   13.5288   -6.3742 N   0  0  0  0  0  0  0  0  0  0  0  0
   -2.3831   12.3683   -6.8823 N   0  0  0  0  0  0  0  0  0  0  0  0
   -0.9539   12.1016   -6.9897 C   0  0  0  0  0  0  0  0  0  0  0  0
   -6.0597   12.2849   -9.8771 H   0  0  0  0  0  0  0  0  0  0  0  0
   -8.7517   10.7843  -13.3842 H   0  0  0  0  0  0  0  0  0  0  0  0
   -7.2525    9.8433  -13.6900 H   0  0  0  0  0  0  0  0  0  0  0  0
   -6.9098   12.2595  -14.0890 H   0  0  0  0  0  0  0  0  0  0  0  0
   -8.6468    7.9839   -9.4398 H   0  0  0  0  0  0  0  0  0  0  0  0
   -8.0161    9.5818   -7.2548 H   0  0  0  0  0  0  0  0  0  0  0  0
   -2.5640   14.5209  -10.9247 H   0  0  0  0  0  0  0  0  0  0  0  0
   -3.0770   14.8334  -12.6175 H   0  0  0  0  0  0  0  0  0  0  0  0
   -3.9113   15.6608  -11.2589 H   0  0  0  0  0  0  0  0  0  0  0  0
   -5.2270   15.2086  -12.9486 H   0  0  0  0  0  0  0  0  0  0  0  0
   -6.7769   12.3203   -6.9046 H   0  0  0  0  0  0  0  0  0  0  0  0
   -2.6169    9.7197   -8.0459 H   0  0  0  0  0  0  0  0  0  0  0  0
   -4.8951    8.7966   -8.4810 H   0  0  0  0  0  0  0  0  0  0  0  0
   -4.6981   14.3639   -6.0034 H   0  0  0  0  0  0  0  0  0  0  0  0
   -0.3895   12.9643   -6.6059 H   0  0  0  0  0  0  0  0  0  0  0  0
   -0.7026   11.2076   -6.4002 H   0  0  0  0  0  0  0  0  0  0  0  0
   -0.6910   11.9314   -8.0442 H   0  0  0  0  0  0  0  0  0  0  0  0
  1  2  1  0  0  0  0
  1  4  2  0  0  0  0
  1 13  1  0  0  0  0
  2  6  2  0  0  0  0
  3  4  1  0  0  0  0
  3  5  1  0  0  0  0
  5  6  1  0  0  0  0
  5  9  2  0  0  0  0
  6  7  1  0  0  0  0
  7  8  1  0  0  0  0
  7 10  2  3  0  0  0
  8  9  1  0  0  0  0
 10 15  1  0  0  0  0
 11 12  1  0  0  0  0
 11 13  2  0  0  0  0
 13 14  1  0  0  0  0
 15 16  2  0  0  0  0
 15 20  1  0  0  0  0
 16 17  1  0  0  0  0
 17 18  2  0  0  0  0
 17 21  1  0  0  0  0
 18 19  1  0  0  0  0
 18 23  1  0  0  0  0
 19 20  2  0  0  0  0
 21 22  2  0  0  0  0
 22 23  1  0  0  0  0
 23 24  1  0  0  0  0
  2 25  1  0  0  0  0
  3 26  1  0  0  0  0
  3 27  1  0  0  0  0
  4 28  1  0  0  0  0
  8 29  1  0  0  0  0
 10 30  1  0  0  0  0
 12 31  1  0  0  0  0
 12 32  1  0  0  0  0
 12 33  1  0  0  0  0
 14 34  1  0  0  0  0
 16 35  1  0  0  0  0
 19 36  1  0  0  0  0
 20 37  1  0  0  0  0
 21 38  1  0  0  0  0
 24 39  1  0  0  0  0
 24 40  1  0  0  0  0
 24 41  1  0  0  0  0
M  END
> <Name>
18

> <IC50[uM]>
0.01

$$$$
18
  -OEChem-05192314333D
 Structure written by MMmdl.
 41 44  0     0  0  0  0  0  0999 V2000
   -6.3808   12.3686  -12.0119 C   0  0  0  0  0  0  0  0  0  0  0  0
   -6.5112   11.8116  -10.7365 C   0  0  0  0  0  0  0  0  0  0  0  0
   -7.7301   10.5824  -13.0300 C   0  0  0  0  0  0  0  0  0  0  0  0
   -6.9992   11.7782  -13.1263 C   0  0  0  0  0  0  0  0  0  0  0  0
   -7.8250   10.0166  -11.7542 C   0  0  0  0  0  0  0  0  0  0  0  0
   -7.2407   10.6266  -10.6010 C   0  0  0  0  0  0  0  0  0  0  0  0
   -7.6094    9.7513   -9.5103 C   0  0  0  0  0  0  0  0  0  0  0  0
   -8.2849    8.7404   -9.9846 N   0  0  0  0  0  0  0  0  0  0  0  0
   -8.4192    8.8674  -11.2983 N   0  0  0  0  0  0  0  0  0  0  0  0
   -7.3225    9.8872   -8.0242 C   0  0  0  0  0  0  0  0  0  0  0  0
   -4.3834   13.6199  -11.4933 N   0  0  0  0  0  0  0  0  0  0  0  0
   -3.4237   14.7282  -11.5789 C   0  0  0  0  0  0  0  0  0  0  0  0
   -5.5369   13.6139  -12.1980 C   0  0  0  0  0  0  0  0  0  0  0  0
   -5.8771   14.5161  -12.9653 O   0  0  0  0  0  0  0  0  0  0  0  0
   -5.9516   10.5005   -7.7272 C   0  0  0  0  0  0  0  0  0  0  0  0
   -5.8803   11.7722   -7.1539 C   0  0  0  0  0  0  0  0  0  0  0  0
   -4.6129   12.3159   -6.9118 C   0  0  0  0  0  0  0  0  0  0  0  0
   -3.4418   11.5625   -7.2429 C   0  0  0  0  0  0  0  0  0  0  0  0
   -3.5059   10.2842   -7.8062 C   0  0  0  0  0  0  0  0  0  0  0  0
   -4.7935    9.7780   -8.0417 C   0  0  0  0  0  0  0  0  0  0  0  0
   -4.0936   13.5458   -6.3664 C   0  0  0  0  0  0  0  0  0  0  0  0
   -2.7885   13.5288   -6.3742 N   0  0  0  0  0  0  0  0  0  0  0  0
   -2.3831   12.3683   -6.8823 N   0  0  0  0  0  0  0  0  0  0  0  0
   -0.9539   12.1016   -6.9897 C   0  0  0  0  0  0  0  0  0  0  0  0
   -6.0597   12.2849   -9.8771 H   0  0  0  0  0  0  0  0  0  0  0  0
   -8.1927   10.1256  -13.8924 H   0  0  0  0  0  0  0  0  0  0  0  0
   -6.9098   12.2595  -14.0890 H   0  0  0  0  0  0  0  0  0  0  0  0
   -8.6468    7.9839   -9.4398 H   0  0  0  0  0  0  0  0  0  0  0  0
   -8.0161    9.5818   -7.2548 H   0  0  0  0  0  0  0  0  0  0  0  0
   -2.5640   14.5209  -10.9247 H   0  0  0  0  0  0  0  0  0  0  0  0
   -3.0770   14.8334  -12.6175 H   0  0  0  0  0  0  0  0  0  0  0  0
   -3.9113   15.6608  -11.2589 H   0  0  0  0  0  0  0  0  0  0  0  0
   -5.2270   15.2086  -12.9486 H   0  0  0  0  0  0  0  0  0  0  0  0
   -6.7769   12.3203   -6.9046 H   0  0  0  0  0  0  0  0  0  0  0  0
   -2.6169    9.7197   -8.0459 H   0  0  0  0  0  0  0  0  0  0  0  0
   -4.8591    8.8345   -7.4800 H   0  0  0  0  0  0  0  0  0  0  0  0
   -4.8473    9.5673   -9.1200 H   0  0  0  0  0  0  0  0  0  0  0  0
   -4.6981   14.3639   -6.0034 H   0  0  0  0  0  0  0  0  0  0  0  0
   -0.3895   12.9643   -6.6059 H   0  0  0  0  0  0  0  0  0  0  0  0
   -0.7026   11.2076   -6.4002 H   0  0  0  0  0  0  0  0  0  0  0  0
   -0.6910   11.9314   -8.0442 H   0  0  0  0  0  0  0  0  0  0  0  0
  1  2  2  0  0  0  0
  1  4  1  0  0  0  0
  1 13  1  0  0  0  0
  2  6  1  0  0  0  0
  3  4  2  0  0  0  0
  3  5  1  0  0  0  0
  5  6  1  0  0  0  0
  5  9  2  0  0  0  0
  6  7  2  0  0  0  0
  7  8  1  0  0  0  0
  7 10  1  0  0  0  0
  8  9  1  0  0  0  0
 10 15  2  3  0  0  0
 11 12  1  0  0  0  0
 11 13  2  0  0  0  0
 13 14  1  0  0  0  0
 15 16  1  0  0  0  0
 15 20  1  0  0  0  0
 16 17  2  0  0  0  0
 17 18  1  0  0  0  0
 17 21  1  0  0  0  0
 18 19  2  0  0  0  0
 18 23  1  0  0  0  0
 19 20  1  0  0  0  0
 21 22  2  0  0  0  0
 22 23  1  0  0  0  0
 23 24  1  0  0  0  0
  2 25  1  0  0  0  0
  3 26  1  0  0  0  0
  4 27  1  0  0  0  0
  8 28  1  0  0  0  0
 10 29  1  0  0  0  0
 12 30  1  0  0  0  0
 12 31  1  0  0  0  0
 12 32  1  0  0  0  0
 14 33  1  0  0  0  0
 16 34  1  0  0  0  0
 19 35  1  0  0  0  0
 20 36  1  0  0  0  0
 20 37  1  0  0  0  0
 21 38  1  0  0  0  0
 24 39  1  0  0  0  0
 24 40  1  0  0  0  0
 24 41  1  0  0  0  0
M  END
> <Name>
18

> <IC50[uM]>
0.01

$$$$
18
  -OEChem-05192314333D
 Structure written by MMmdl.
 41 44  0     0  0  0  0  0  0999 V2000
   -6.3808   12.3686  -12.0119 C   0  0  0  0  0  0  0  0  0  0  0  0
   -6.5112   11.8116  -10.7365 C   0  0  0  0  0  0  0  0  0  0  0  0
   -7.7301   10.5824  -13.0300 C   0  0  0  0  0  0  0  0  0  0  0  0
   -6.9992   11.7782  -13.1263 C   0  0  0  0  0  0  0  0  0  0  0  0
   -7.8250   10.0166  -11.7542 C   0  0  0  0  0  0  0  0  0  0  0  0
   -7.2407   10.6266  -10.6010 C   0  0  0  0  0  0  0  0  0  0  0  0
   -7.6094    9.7513   -9.5103 C   0  0  0  0  0  0  0  0  0  0  0  0
   -8.2849    8.7404   -9.9846 N   0  0  0  0  0  0  0  0  0  0  0  0
   -8.4192    8.8674  -11.2983 N   0  0  0  0  0  0  0  0  0  0  0  0
   -7.3225    9.8872   -8.0242 C   0  0  0  0  0  0  0  0  0  0  0  0
   -4.3834   13.6199  -11.4933 N   0  0  0  0  0  0  0  0  0  0  0  0
   -3.4237   14.7282  -11.5789 C   0  0  0  0  0  0  0  0  0  0  0  0
   -5.5369   13.6139  -12.1980 C   0  0  0  0  0  0  0  0  0  0  0  0
   -5.8771   14.5161  -12.9653 O   0  0  0  0  0  0  0  0  0  0  0  0
   -5.9516   10.5005   -7.7272 C   0  0  0  0  0  0  0  0  0  0  0  0
   -5.8803   11.7722   -7.1539 C   0  0  0  0  0  0  0  0  0  0  0  0
   -4.6129   12.3159   -6.9118 C   0  0  0  0  0  0  0  0  0  0  0  0
   -3.4418   11.5625   -7.2429 C   0  0  0  0  0  0  0  0  0  0  0  0
   -3.5059   10.2842   -7.8062 C   0  0  0  0  0  0  0  0  0  0  0  0
   -4.7935    9.7780   -8.0417 C   0  0  0  0  0  0  0  0  0  0  0  0
   -4.0936   13.5458   -6.3664 C   0  0  0  0  0  0  0  0  0  0  0  0
   -2.7885   13.5288   -6.3742 N   0  0  0  0  0  0  0  0  0  0  0  0
   -2.3831   12.3683   -6.8823 N   0  0  0  0  0  0  0  0  0  0  0  0
   -0.9539   12.1016   -6.9897 C   0  0  0  0  0  0  0  0  0  0  0  0
   -6.0597   12.2849   -9.8771 H   0  0  0  0  0  0  0  0  0  0  0  0
   -8.1927   10.1256  -13.8924 H   0  0  0  0  0  0  0  0  0  0  0  0
   -6.9098   12.2595  -14.0890 H   0  0  0  0  0  0  0  0  0  0  0  0
   -8.8936    8.2087  -11.8823 H   0  0  0  0  0  0  0  0  0  0  0  0
   -8.0161    9.5818   -7.2548 H   0  0  0  0  0  0  0  0  0  0  0  0
   -2.5640   14.5209  -10.9247 H   0  0  0  0  0  0  0  0  0  0  0  0
   -3.0770   14.8334  -12.6175 H   0  0  0  0  0  0  0  0  0  0  0  0
   -3.9113   15.6608  -11.2589 H   0  0  0  0  0  0  0  0  0  0  0  0
   -5.2270   15.2086  -12.9486 H   0  0  0  0  0  0  0  0  0  0  0  0
   -6.7769   12.3203   -6.9046 H   0  0  0  0  0  0  0  0  0  0  0  0
   -2.6169    9.7197   -8.0459 H   0  0  0  0  0  0  0  0  0  0  0  0
   -4.8591    8.8345   -7.4800 H   0  0  0  0  0  0  0  0  0  0  0  0
   -4.8473    9.5673   -9.1200 H   0  0  0  0  0  0  0  0  0  0  0  0
   -4.6981   14.3639   -6.0034 H   0  0  0  0  0  0  0  0  0  0  0  0
   -0.3895   12.9643   -6.6059 H   0  0  0  0  0  0  0  0  0  0  0  0
   -0.7026   11.2076   -6.4002 H   0  0  0  0  0  0  0  0  0  0  0  0
   -0.6910   11.9314   -8.0442 H   0  0  0  0  0  0  0  0  0  0  0  0
  1  2  2  0  0  0  0
  1  4  1  0  0  0  0
  1 13  1  0  0  0  0
  2  6  1  0  0  0  0
  3  4  2  0  0  0  0
  3  5  1  0  0  0  0
  5  6  2  0  0  0  0
  5  9  1  0  0  0  0
  6  7  1  0  0  0  0
  7  8  2  0  0  0  0
  7 10  1  0  0  0  0
  8  9  1  0  0  0  0
 10 15  2  3  0  0  0
 11 12  1  0  0  0  0
 11 13  2  0  0  0  0
 13 14  1  0  0  0  0
 15 16  1  0  0  0  0
 15 20  1  0  0  0  0
 16 17  2  0  0  0  0
 17 18  1  0  0  0  0
 17 21  1  0  0  0  0
 18 19  2  0  0  0  0
 18 23  1  0  0  0  0
 19 20  1  0  0  0  0
 21 22  2  0  0  0  0
 22 23  1  0  0  0  0
 23 24  1  0  0  0  0
  2 25  1  0  0  0  0
  3 26  1  0  0  0  0
  4 27  1  0  0  0  0
  9 28  1  0  0  0  0
 10 29  1  0  0  0  0
 12 30  1  0  0  0  0
 12 31  1  0  0  0  0
 12 32  1  0  0  0  0
 14 33  1  0  0  0  0
 16 34  1  0  0  0  0
 19 35  1  0  0  0  0
 20 36  1  0  0  0  0
 20 37  1  0  0  0  0
 21 38  1  0  0  0  0
 24 39  1  0  0  0  0
 24 40  1  0  0  0  0
 24 41  1  0  0  0  0
M  END
> <Name>
18

> <IC50[uM]>
0.01

$$$$
18
  -OEChem-05192314333D
 Structure written by MMmdl.
 41 44  0     1  0  0  0  0  0999 V2000
   -6.3808   12.3686  -12.0119 C   0  0  0  0  0  0  0  0  0  0  0  0
   -6.5112   11.8116  -10.7365 C   0  0  0  0  0  0  0  0  0  0  0  0
   -7.7301   10.5824  -13.0300 C   0  0  0  0  0  0  0  0  0  0  0  0
   -6.9992   11.7782  -13.1263 C   0  0  0  0  0  0  0  0  0  0  0  0
   -7.8250   10.0166  -11.7542 C   0  0  0  0  0  0  0  0  0  0  0  0
   -7.2407   10.6266  -10.6010 C   0  0  0  0  0  0  0  0  0  0  0  0
   -7.6094    9.7513   -9.5103 C   0  0  0  0  0  0  0  0  0  0  0  0
   -8.2849    8.7404   -9.9846 N   0  0  0  0  0  0  0  0  0  0  0  0
   -8.4192    8.8674  -11.2983 N   0  0  0  0  0  0  0  0  0  0  0  0
   -7.3225    9.8872   -8.0242 C   0  0  0  0  0  0  0  0  0  0  0  0
   -4.3834   13.6199  -11.4933 N   0  0  0  0  0  0  0  0  0  0  0  0
   -3.4237   14.7282  -11.5789 C   0  0  0  0  0  0  0  0  0  0  0  0
   -5.5369   13.6139  -12.1980 C   0  0  0  0  0  0  0  0  0  0  0  0
   -5.8771   14.5161  -12.9653 O   0  0  0  0  0  0  0  0  0  0  0  0
   -5.9516   10.5005   -7.7272 C   0  0  0  0  0  0  0  0  0  0  0  0
   -5.8803   11.7722   -7.1539 C   0  0  0  0  0  0  0  0  0  0  0  0
   -4.6129   12.3159   -6.9118 C   0  0  0  0  0  0  0  0  0  0  0  0
   -3.4418   11.5625   -7.2429 C   0  0  0  0  0  0  0  0  0  0  0  0
   -3.5059   10.2842   -7.8062 C   0  0  0  0  0  0  0  0  0  0  0  0
   -4.7935    9.7780   -8.0417 C   0  0  0  0  0  0  0  0  0  0  0  0
   -4.0936   13.5458   -6.3664 C   0  0  0  0  0  0  0  0  0  0  0  0
   -2.7885   13.5288   -6.3742 N   0  0  0  0  0  0  0  0  0  0  0  0
   -2.3831   12.3683   -6.8823 N   0  0  3  0  0  0  0  0  0  0  0  0
   -0.9539   12.1016   -6.9897 C   0  0  0  0  0  0  0  0  0  0  0  0
   -6.0597   12.2849   -9.8771 H   0  0  0  0  0  0  0  0  0  0  0  0
   -8.1927   10.1256  -13.8924 H   0  0  0  0  0  0  0  0  0  0  0  0
   -6.9098   12.2595  -14.0890 H   0  0  0  0  0  0  0  0  0  0  0  0
   -8.0161    9.5818   -7.2548 H   0  0  0  0  0  0  0  0  0  0  0  0
   -4.1771   12.8456  -10.8951 H   0  0  0  0  0  0  0  0  0  0  0  0
   -2.5640   14.5209  -10.9247 H   0  0  0  0  0  0  0  0  0  0  0  0
   -3.0770   14.8334  -12.6175 H   0  0  0  0  0  0  0  0  0  0  0  0
   -3.9113   15.6608  -11.2589 H   0  0  0  0  0  0  0  0  0  0  0  0
   -6.7769   12.3203   -6.9046 H   0  0  0  0  0  0  0  0  0  0  0  0
   -2.6169    9.7197   -8.0459 H   0  0  0  0  0  0  0  0  0  0  0  0
   -4.8951    8.7966   -8.4810 H   0  0  0  0  0  0  0  0  0  0  0  0
   -4.4492   14.3910   -6.9740 H   0  0  0  0  0  0  0  0  0  0  0  0
   -4.4489   13.6627   -5.3319 H   0  0  0  0  0  0  0  0  0  0  0  0
   -2.4450   14.2812   -6.9362 H   0  0  0  0  0  0  0  0  0  0  0  0
   -0.3895   12.9648   -6.6072 H   0  0  0  0  0  0  0  0  0  0  0  0
   -0.7023   11.2084   -6.3991 H   0  0  0  0  0  0  0  0  0  0  0  0
   -0.6913   11.9300   -8.0440 H   0  0  0  0  0  0  0  0  0  0  0  0
  1  2  2  0  0  0  0
  1  4  1  0  0  0  0
  1 13  1  0  0  0  0
  2  6  1  0  0  0  0
  3  4  2  0  0  0  0
  3  5  1  0  0  0  0
  5  6  2  0  0  0  0
  5  9  1  0  0  0  0
  6  7  1  0  0  0  0
  7  8  1  0  0  0  0
  7 10  2  3  0  0  0
  8  9  2  0  0  0  0
 10 15  1  0  0  0  0
 11 12  1  0  0  0  0
 11 13  1  0  0  0  0
 13 14  2  0  0  0  0
 15 16  2  0  0  0  0
 15 20  1  0  0  0  0
 16 17  1  0  0  0  0
 17 18  2  0  0  0  0
 17 21  1  0  0  0  0
 18 19  1  0  0  0  0
 18 23  1  0  0  0  0
 19 20  2  0  0  0  0
 21 22  1  0  0  0  0
 22 23  1  0  0  0  0
 23 24  1  0  0  0  0
  2 25  1  0  0  0  0
  3 26  1  0  0  0  0
  4 27  1  0  0  0  0
 10 28  1  0  0  0  0
 11 29  1  0  0  0  0
 12 30  1  0  0  0  0
 12 31  1  0  0  0  0
 12 32  1  0  0  0  0
 16 33  1  0  0  0  0
 19 34  1  0  0  0  0
 20 35  1  0  0  0  0
 21 36  1  0  0  0  0
 21 37  1  0  0  0  0
 22 38  1  0  0  0  0
 24 39  1  0  0  0  0
 24 40  1  0  0  0  0
 24 41  1  0  0  0  0
M  END
> <Name>
18

> <IC50[uM]>
0.01

$$$$
18
  -OEChem-05192314333D
 Structure written by MMmdl.
 41 44  0     1  0  0  0  0  0999 V2000
   -6.3808   12.3686  -12.0119 C   0  0  0  0  0  0  0  0  0  0  0  0
   -6.5112   11.8116  -10.7365 C   0  0  0  0  0  0  0  0  0  0  0  0
   -7.7301   10.5824  -13.0300 C   0  0  0  0  0  0  0  0  0  0  0  0
   -6.9992   11.7782  -13.1263 C   0  0  0  0  0  0  0  0  0  0  0  0
   -7.8250   10.0166  -11.7542 C   0  0  0  0  0  0  0  0  0  0  0  0
   -7.2407   10.6266  -10.6010 C   0  0  0  0  0  0  0  0  0  0  0  0
   -7.6094    9.7513   -9.5103 C   0  0  0  0  0  0  0  0  0  0  0  0
   -8.2849    8.7404   -9.9846 N   0  0  0  0  0  0  0  0  0  0  0  0
   -8.4192    8.8674  -11.2983 N   0  0  0  0  0  0  0  0  0  0  0  0
   -7.3225    9.8872   -8.0242 C   0  0  0  0  0  0  0  0  0  0  0  0
   -4.3834   13.6199  -11.4933 N   0  0  0  0  0  0  0  0  0  0  0  0
   -3.4237   14.7282  -11.5789 C   0  0  0  0  0  0  0  0  0  0  0  0
   -5.5369   13.6139  -12.1980 C   0  0  0  0  0  0  0  0  0  0  0  0
   -5.8771   14.5161  -12.9653 O   0  0  0  0  0  0  0  0  0  0  0  0
   -5.9516   10.5005   -7.7272 C   0  0  0  0  0  0  0  0  0  0  0  0
   -5.8803   11.7722   -7.1539 C   0  0  0  0  0  0  0  0  0  0  0  0
   -4.6129   12.3159   -6.9118 C   0  0  0  0  0  0  0  0  0  0  0  0
   -3.4418   11.5625   -7.2429 C   0  0  0  0  0  0  0  0  0  0  0  0
   -3.5059   10.2842   -7.8062 C   0  0  0  0  0  0  0  0  0  0  0  0
   -4.7935    9.7780   -8.0417 C   0  0  0  0  0  0  0  0  0  0  0  0
   -4.0936   13.5458   -6.3664 C   0  0  0  0  0  0  0  0  0  0  0  0
   -2.7885   13.5288   -6.3742 N   0  0  0  0  0  0  0  0  0  0  0  0
   -2.3831   12.3683   -6.8823 N   0  0  3  0  0  0  0  0  0  0  0  0
   -0.9539   12.1016   -6.9897 C   0  0  0  0  0  0  0  0  0  0  0  0
   -6.0597   12.2849   -9.8771 H   0  0  0  0  0  0  0  0  0  0  0  0
   -8.1927   10.1256  -13.8924 H   0  0  0  0  0  0  0  0  0  0  0  0
   -6.9098   12.2595  -14.0890 H   0  0  0  0  0  0  0  0  0  0  0  0
   -8.0161    9.5818   -7.2548 H   0  0  0  0  0  0  0  0  0  0  0  0
   -2.5640   14.5209  -10.9247 H   0  0  0  0  0  0  0  0  0  0  0  0
   -3.0770   14.8334  -12.6175 H   0  0  0  0  0  0  0  0  0  0  0  0
   -3.9113   15.6608  -11.2589 H   0  0  0  0  0  0  0  0  0  0  0  0
   -5.2270   15.2086  -12.9486 H   0  0  0  0  0  0  0  0  0  0  0  0
   -6.7769   12.3203   -6.9046 H   0  0  0  0  0  0  0  0  0  0  0  0
   -2.6169    9.7197   -8.0459 H   0  0  0  0  0  0  0  0  0  0  0  0
   -4.8951    8.7966   -8.4810 H   0  0  0  0  0  0  0  0  0  0  0  0
   -4.4492   14.3910   -6.9740 H   0  0  0  0  0  0  0  0  0  0  0  0
   -4.4489   13.6627   -5.3319 H   0  0  0  0  0  0  0  0  0  0  0  0
   -2.4450   14.2812   -6.9362 H   0  0  0  0  0  0  0  0  0  0  0  0
   -0.3895   12.9648   -6.6072 H   0  0  0  0  0  0  0  0  0  0  0  0
   -0.7023   11.2084   -6.3991 H   0  0  0  0  0  0  0  0  0  0  0  0
   -0.6913   11.9300   -8.0440 H   0  0  0  0  0  0  0  0  0  0  0  0
  1  2  2  0  0  0  0
  1  4  1  0  0  0  0
  1 13  1  0  0  0  0
  2  6  1  0  0  0  0
  3  4  2  0  0  0  0
  3  5  1  0  0  0  0
  5  6  2  0  0  0  0
  5  9  1  0  0  0  0
  6  7  1  0  0  0  0
  7  8  1  0  0  0  0
  7 10  2  3  0  0  0
  8  9  2  0  0  0  0
 10 15  1  0  0  0  0
 11 12  1  0  0  0  0
 11 13  2  0  0  0  0
 13 14  1  0  0  0  0
 15 16  2  0  0  0  0
 15 20  1  0  0  0  0
 16 17  1  0  0  0  0
 17 18  2  0  0  0  0
 17 21  1  0  0  0  0
 18 19  1  0  0  0  0
 18 23  1  0  0  0  0
 19 20  2  0  0  0  0
 21 22  1  0  0  0  0
 22 23  1  0  0  0  0
 23 24  1  0  0  0  0
  2 25  1  0  0  0  0
  3 26  1  0  0  0  0
  4 27  1  0  0  0  0
 10 28  1  0  0  0  0
 12 29  1  0  0  0  0
 12 30  1  0  0  0  0
 12 31  1  0  0  0  0
 14 32  1  0  0  0  0
 16 33  1  0  0  0  0
 19 34  1  0  0  0  0
 20 35  1  0  0  0  0
 21 36  1  0  0  0  0
 21 37  1  0  0  0  0
 22 38  1  0  0  0  0
 24 39  1  0  0  0  0
 24 40  1  0  0  0  0
 24 41  1  0  0  0  0
M  END
> <Name>
18

> <IC50[uM]>
0.01

$$$$
18
  -OEChem-05192314333D
 Structure written by MMmdl.
 41 44  0     0  0  0  0  0  0999 V2000
   -6.3808   12.3686  -12.0119 C   0  0  0  0  0  0  0  0  0  0  0  0
   -6.5112   11.8116  -10.7365 C   0  0  0  0  0  0  0  0  0  0  0  0
   -7.7301   10.5824  -13.0300 C   0  0  0  0  0  0  0  0  0  0  0  0
   -6.9992   11.7782  -13.1263 C   0  0  0  0  0  0  0  0  0  0  0  0
   -7.8250   10.0166  -11.7542 C   0  0  0  0  0  0  0  0  0  0  0  0
   -7.2407   10.6266  -10.6010 C   0  0  0  0  0  0  0  0  0  0  0  0
   -7.6094    9.7513   -9.5103 C   0  0  0  0  0  0  0  0  0  0  0  0
   -8.2849    8.7404   -9.9846 N   0  0  0  0  0  0  0  0  0  0  0  0
   -8.4192    8.8674  -11.2983 N   0  0  0  0  0  0  0  0  0  0  0  0
   -7.3225    9.8872   -8.0242 C   0  0  0  0  0  0  0  0  0  0  0  0
   -4.3834   13.6199  -11.4933 N   0  0  0  0  0  0  0  0  0  0  0  0
   -3.4237   14.7282  -11.5789 C   0  0  0  0  0  0  0  0  0  0  0  0
   -5.5369   13.6139  -12.1980 C   0  0  0  0  0  0  0  0  0  0  0  0
   -5.8771   14.5161  -12.9653 O   0  0  0  0  0  0  0  0  0  0  0  0
   -5.9516   10.5005   -7.7272 C   0  0  0  0  0  0  0  0  0  0  0  0
   -5.8803   11.7722   -7.1539 C   0  0  0  0  0  0  0  0  0  0  0  0
   -4.6129   12.3159   -6.9118 C   0  0  0  0  0  0  0  0  0  0  0  0
   -3.4418   11.5625   -7.2429 C   0  0  0  0  0  0  0  0  0  0  0  0
   -3.5059   10.2842   -7.8062 C   0  0  0  0  0  0  0  0  0  0  0  0
   -4.7935    9.7780   -8.0417 C   0  0  0  0  0  0  0  0  0  0  0  0
   -4.0936   13.5458   -6.3664 C   0  0  0  0  0  0  0  0  0  0  0  0
   -2.7885   13.5288   -6.3742 N   0  0  0  0  0  0  0  0  0  0  0  0
   -2.3831   12.3683   -6.8823 N   0  0  0  0  0  0  0  0  0  0  0  0
   -0.9539   12.1016   -6.9897 C   0  0  0  0  0  0  0  0  0  0  0  0
   -6.0597   12.2849   -9.8771 H   0  0  0  0  0  0  0  0  0  0  0  0
   -8.1927   10.1256  -13.8924 H   0  0  0  0  0  0  0  0  0  0  0  0
   -6.9098   12.2595  -14.0890 H   0  0  0  0  0  0  0  0  0  0  0  0
   -8.0161    9.5818   -7.2548 H   0  0  0  0  0  0  0  0  0  0  0  0
   -4.1771   12.8456  -10.8951 H   0  0  0  0  0  0  0  0  0  0  0  0
   -2.5640   14.5209  -10.9247 H   0  0  0  0  0  0  0  0  0  0  0  0
   -3.0770   14.8334  -12.6175 H   0  0  0  0  0  0  0  0  0  0  0  0
   -3.9113   15.6608  -11.2589 H   0  0  0  0  0  0  0  0  0  0  0  0
   -6.7769   12.3203   -6.9046 H   0  0  0  0  0  0  0  0  0  0  0  0
   -2.9750   10.3141   -8.7692 H   0  0  0  0  0  0  0  0  0  0  0  0
   -2.9912    9.5904   -7.1252 H   0  0  0  0  0  0  0  0  0  0  0  0
   -4.8591    8.8345   -7.4800 H   0  0  0  0  0  0  0  0  0  0  0  0
   -4.8473    9.5673   -9.1200 H   0  0  0  0  0  0  0  0  0  0  0  0
   -4.6981   14.3639   -6.0034 H   0  0  0  0  0  0  0  0  0  0  0  0
   -0.3895   12.9643   -6.6059 H   0  0  0  0  0  0  0  0  0  0  0  0
   -0.7026   11.2076   -6.4002 H   0  0  0  0  0  0  0  0  0  0  0  0
   -0.6910   11.9314   -8.0442 H   0  0  0  0  0  0  0  0  0  0  0  0
  1  2  2  0  0  0  0
  1  4  1  0  0  0  0
  1 13  1  0  0  0  0
  2  6  1  0  0  0  0
  3  4  2  0  0  0  0
  3  5  1  0  0  0  0
  5  6  2  0  0  0  0
  5  9  1  0  0  0  0
  6  7  1  0  0  0  0
  7  8  1  0  0  0  0
  7 10  2  3  0  0  0
  8  9  2  0  0  0  0
 10 15  1  0  0  0  0
 11 12  1  0  0  0  0
 11 13  1  0  0  0  0
 13 14  2  0  0  0  0
 15 16  2  0  0  0  0
 15 20  1  0  0  0  0
 16 17  1  0  0  0  0
 17 18  2  0  0  0  0
 17 21  1  0  0  0  0
 18 19  1  0  0  0  0
 18 23  1  0  0  0  0
 19 20  1  0  0  0  0
 21 22  2  0  0  0  0
 22 23  1  0  0  0  0
 23 24  1  0  0  0  0
  2 25  1  0  0  0  0
  3 26  1  0  0  0  0
  4 27  1  0  0  0  0
 10 28  1  0  0  0  0
 11 29  1  0  0  0  0
 12 30  1  0  0  0  0
 12 31  1  0  0  0  0
 12 32  1  0  0  0  0
 16 33  1  0  0  0  0
 19 34  1  0  0  0  0
 19 35  1  0  0  0  0
 20 36  1  0  0  0  0
 20 37  1  0  0  0  0
 21 38  1  0  0  0  0
 24 39  1  0  0  0  0
 24 40  1  0  0  0  0
 24 41  1  0  0  0  0
M  END
> <Name>
18

> <IC50[uM]>
0.01

$$$$
18
  -OEChem-05192314333D
 Structure written by MMmdl.
 41 44  0     1  0  0  0  0  0999 V2000
   -6.3808   12.3686  -12.0119 C   0  0  0  0  0  0  0  0  0  0  0  0
   -6.5112   11.8116  -10.7365 C   0  0  0  0  0  0  0  0  0  0  0  0
   -7.7301   10.5824  -13.0300 C   0  0  0  0  0  0  0  0  0  0  0  0
   -6.9992   11.7782  -13.1263 C   0  0  0  0  0  0  0  0  0  0  0  0
   -7.8250   10.0166  -11.7542 C   0  0  0  0  0  0  0  0  0  0  0  0
   -7.2407   10.6266  -10.6010 C   0  0  0  0  0  0  0  0  0  0  0  0
   -7.6094    9.7513   -9.5103 C   0  0  0  0  0  0  0  0  0  0  0  0
   -8.2849    8.7404   -9.9846 N   0  0  0  0  0  0  0  0  0  0  0  0
   -8.4192    8.8674  -11.2983 N   0  0  0  0  0  0  0  0  0  0  0  0
   -7.3225    9.8872   -8.0242 C   0  0  0  0  0  0  0  0  0  0  0  0
   -4.3834   13.6199  -11.4933 N   0  0  0  0  0  0  0  0  0  0  0  0
   -3.4237   14.7282  -11.5789 C   0  0  0  0  0  0  0  0  0  0  0  0
   -5.5369   13.6139  -12.1980 C   0  0  0  0  0  0  0  0  0  0  0  0
   -5.8771   14.5161  -12.9653 O   0  0  0  0  0  0  0  0  0  0  0  0
   -5.9516   10.5005   -7.7272 C   0  0  3  0  0  0  0  0  0  0  0  0
   -5.8803   11.7722   -7.1539 C   0  0  0  0  0  0  0  0  0  0  0  0
   -4.6129   12.3159   -6.9118 C   0  0  0  0  0  0  0  0  0  0  0  0
   -3.4418   11.5625   -7.2429 C   0  0  0  0  0  0  0  0  0  0  0  0
   -3.5059   10.2842   -7.8062 C   0  0  0  0  0  0  0  0  0  0  0  0
   -4.7935    9.7780   -8.0417 C   0  0  0  0  0  0  0  0  0  0  0  0
   -4.0936   13.5458   -6.3664 C   0  0  0  0  0  0  0  0  0  0  0  0
   -2.7885   13.5288   -6.3742 N   0  0  0  0  0  0  0  0  0  0  0  0
   -2.3831   12.3683   -6.8823 N   0  0  0  0  0  0  0  0  0  0  0  0
   -0.9539   12.1016   -6.9897 C   0  0  0  0  0  0  0  0  0  0  0  0
   -6.0597   12.2849   -9.8771 H   0  0  0  0  0  0  0  0  0  0  0  0
   -8.1927   10.1256  -13.8924 H   0  0  0  0  0  0  0  0  0  0  0  0
   -6.9098   12.2595  -14.0890 H   0  0  0  0  0  0  0  0  0  0  0  0
   -8.0161    9.5818   -7.2548 H   0  0  0  0  0  0  0  0  0  0  0  0
   -4.1771   12.8456  -10.8951 H   0  0  0  0  0  0  0  0  0  0  0  0
   -2.5640   14.5209  -10.9247 H   0  0  0  0  0  0  0  0  0  0  0  0
   -3.0770   14.8334  -12.6175 H   0  0  0  0  0  0  0  0  0  0  0  0
   -3.9113   15.6608  -11.2589 H   0  0  0  0  0  0  0  0  0  0  0  0
   -5.9642   10.0474   -6.7249 H   0  0  0  0  0  0  0  0  0  0  0  0
   -6.4095   12.4637   -7.8260 H   0  0  0  0  0  0  0  0  0  0  0  0
   -6.4055   11.7253   -6.1885 H   0  0  0  0  0  0  0  0  0  0  0  0
   -2.6169    9.7197   -8.0459 H   0  0  0  0  0  0  0  0  0  0  0  0
   -4.8951    8.7966   -8.4810 H   0  0  0  0  0  0  0  0  0  0  0  0
   -4.6981   14.3639   -6.0034 H   0  0  0  0  0  0  0  0  0  0  0  0
   -0.3895   12.9643   -6.6059 H   0  0  0  0  0  0  0  0  0  0  0  0
   -0.7026   11.2076   -6.4002 H   0  0  0  0  0  0  0  0  0  0  0  0
   -0.6910   11.9314   -8.0442 H   0  0  0  0  0  0  0  0  0  0  0  0
  1  2  2  0  0  0  0
  1  4  1  0  0  0  0
  1 13  1  0  0  0  0
  2  6  1  0  0  0  0
  3  4  2  0  0  0  0
  3  5  1  0  0  0  0
  5  6  2  0  0  0  0
  5  9  1  0  0  0  0
  6  7  1  0  0  0  0
  7  8  1  0  0  0  0
  7 10  2  3  0  0  0
  8  9  2  0  0  0  0
 10 15  1  0  0  0  0
 11 12  1  0  0  0  0
 11 13  1  0  0  0  0
 13 14  2  0  0  0  0
 15 16  1  0  0  0  0
 15 20  1  0  0  0  0
 16 17  1  0  0  0  0
 17 18  2  0  0  0  0
 17 21  1  0  0  0  0
 18 19  1  0  0  0  0
 18 23  1  0  0  0  0
 19 20  2  0  0  0  0
 21 22  2  0  0  0  0
 22 23  1  0  0  0  0
 23 24  1  0  0  0  0
  2 25  1  0  0  0  0
  3 26  1  0  0  0  0
  4 27  1  0  0  0  0
 10 28  1  0  0  0  0
 11 29  1  0  0  0  0
 12 30  1  0  0  0  0
 12 31  1  0  0  0  0
 12 32  1  0  0  0  0
 15 33  1  0  0  0  0
 16 34  1  0  0  0  0
 16 35  1  0  0  0  0
 19 36  1  0  0  0  0
 20 37  1  0  0  0  0
 21 38  1  0  0  0  0
 24 39  1  0  0  0  0
 24 40  1  0  0  0  0
 24 41  1  0  0  0  0
M  END
> <Name>
18

> <IC50[uM]>
0.01

$$$$
18
  -OEChem-05192314333D
 Structure written by MMmdl.
 41 44  0     1  0  0  0  0  0999 V2000
   -6.3808   12.3686  -12.0119 C   0  0  0  0  0  0  0  0  0  0  0  0
   -6.5112   11.8116  -10.7365 C   0  0  0  0  0  0  0  0  0  0  0  0
   -7.7301   10.5824  -13.0300 C   0  0  0  0  0  0  0  0  0  0  0  0
   -6.9992   11.7782  -13.1263 C   0  0  0  0  0  0  0  0  0  0  0  0
   -7.8250   10.0166  -11.7542 C   0  0  0  0  0  0  0  0  0  0  0  0
   -7.2407   10.6266  -10.6010 C   0  0  0  0  0  0  0  0  0  0  0  0
   -7.6094    9.7513   -9.5103 C   0  0  3  0  0  0  0  0  0  0  0  0
   -8.2849    8.7404   -9.9846 N   0  0  0  0  0  0  0  0  0  0  0  0
   -8.4192    8.8674  -11.2983 N   0  0  0  0  0  0  0  0  0  0  0  0
   -7.3225    9.8872   -8.0242 C   0  0  0  0  0  0  0  0  0  0  0  0
   -4.3834   13.6199  -11.4933 N   0  0  0  0  0  0  0  0  0  0  0  0
   -3.4237   14.7282  -11.5789 C   0  0  0  0  0  0  0  0  0  0  0  0
   -5.5369   13.6139  -12.1980 C   0  0  0  0  0  0  0  0  0  0  0  0
   -5.8771   14.5161  -12.9653 O   0  0  0  0  0  0  0  0  0  0  0  0
   -5.9516   10.5005   -7.7272 C   0  0  0  0  0  0  0  0  0  0  0  0
   -5.8803   11.7722   -7.1539 C   0  0  0  0  0  0  0  0  0  0  0  0
   -4.6129   12.3159   -6.9118 C   0  0  0  0  0  0  0  0  0  0  0  0
   -3.4418   11.5625   -7.2429 C   0  0  0  0  0  0  0  0  0  0  0  0
   -3.5059   10.2842   -7.8062 C   0  0  0  0  0  0  0  0  0  0  0  0
   -4.7935    9.7780   -8.0417 C   0  0  0  0  0  0  0  0  0  0  0  0
   -4.0936   13.5458   -6.3664 C   0  0  0  0  0  0  0  0  0  0  0  0
   -2.7885   13.5288   -6.3742 N   0  0  0  0  0  0  0  0  0  0  0  0
   -2.3831   12.3683   -6.8823 N   0  0  0  0  0  0  0  0  0  0  0  0
   -0.9539   12.1016   -6.9897 C   0  0  0  0  0  0  0  0  0  0  0  0
   -6.0597   12.2849   -9.8771 H   0  0  0  0  0  0  0  0  0  0  0  0
   -8.1927   10.1256  -13.8924 H   0  0  0  0  0  0  0  0  0  0  0  0
   -6.9098   12.2595  -14.0890 H   0  0  0  0  0  0  0  0  0  0  0  0
   -6.6727    9.1898   -9.6417 H   0  0  0  0  0  0  0  0  0  0  0  0
   -8.0161    9.5818   -7.2548 H   0  0  0  0  0  0  0  0  0  0  0  0
   -4.1771   12.8456  -10.8951 H   0  0  0  0  0  0  0  0  0  0  0  0
   -2.5640   14.5209  -10.9247 H   0  0  0  0  0  0  0  0  0  0  0  0
   -3.0770   14.8334  -12.6175 H   0  0  0  0  0  0  0  0  0  0  0  0
   -3.9113   15.6608  -11.2589 H   0  0  0  0  0  0  0  0  0  0  0  0
   -6.4095   12.4637   -7.8260 H   0  0  0  0  0  0  0  0  0  0  0  0
   -6.4055   11.7253   -6.1885 H   0  0  0  0  0  0  0  0  0  0  0  0
   -2.6169    9.7197   -8.0459 H   0  0  0  0  0  0  0  0  0  0  0  0
   -4.8951    8.7966   -8.4810 H   0  0  0  0  0  0  0  0  0  0  0  0
   -4.6981   14.3639   -6.0034 H   0  0  0  0  0  0  0  0  0  0  0  0
   -0.3895   12.9643   -6.6059 H   0  0  0  0  0  0  0  0  0  0  0  0
   -0.7026   11.2076   -6.4002 H   0  0  0  0  0  0  0  0  0  0  0  0
   -0.6910   11.9314   -8.0442 H   0  0  0  0  0  0  0  0  0  0  0  0
  1  2  2  0  0  0  0
  1  4  1  0  0  0  0
  1 13  1  0  0  0  0
  2  6  1  0  0  0  0
  3  4  2  0  0  0  0
  3  5  1  0  0  0  0
  5  6  2  0  0  0  0
  5  9  1  0  0  0  0
  6  7  1  0  0  0  0
  7  8  1  0  0  0  0
  7 10  1  0  0  0  0
  8  9  2  0  0  0  0
 10 15  2  3  0  0  0
 11 12  1  0  0  0  0
 11 13  1  0  0  0  0
 13 14  2  0  0  0  0
 15 16  1  0  0  0  0
 15 20  1  0  0  0  0
 16 17  1  0  0  0  0
 17 18  2  0  0  0  0
 17 21  1  0  0  0  0
 18 19  1  0  0  0  0
 18 23  1  0  0  0  0
 19 20  2  0  0  0  0
 21 22  2  0  0  0  0
 22 23  1  0  0  0  0
 23 24  1  0  0  0  0
  2 25  1  0  0  0  0
  3 26  1  0  0  0  0
  4 27  1  0  0  0  0
  7 28  1  0  0  0  0
 10 29  1  0  0  0  0
 11 30  1  0  0  0  0
 12 31  1  0  0  0  0
 12 32  1  0  0  0  0
 12 33  1  0  0  0  0
 16 34  1  0  0  0  0
 16 35  1  0  0  0  0
 19 36  1  0  0  0  0
 20 37  1  0  0  0  0
 21 38  1  0  0  0  0
 24 39  1  0  0  0  0
 24 40  1  0  0  0  0
 24 41  1  0  0  0  0
M  END
> <Name>
18

> <IC50[uM]>
0.01

$$$$
18
  -OEChem-05192314333D
 Structure written by MMmdl.
 41 44  0     0  0  0  0  0  0999 V2000
   -6.3808   12.3686  -12.0119 C   0  0  0  0  0  0  0  0  0  0  0  0
   -6.5112   11.8116  -10.7365 C   0  0  0  0  0  0  0  0  0  0  0  0
   -7.7301   10.5824  -13.0300 C   0  0  0  0  0  0  0  0  0  0  0  0
   -6.9992   11.7782  -13.1263 C   0  0  0  0  0  0  0  0  0  0  0  0
   -7.8250   10.0166  -11.7542 C   0  0  0  0  0  0  0  0  0  0  0  0
   -7.2407   10.6266  -10.6010 C   0  0  0  0  0  0  0  0  0  0  0  0
   -7.6094    9.7513   -9.5103 C   0  0  0  0  0  0  0  0  0  0  0  0
   -8.2849    8.7404   -9.9846 N   0  0  0  0  0  0  0  0  0  0  0  0
   -8.4192    8.8674  -11.2983 N   0  0  0  0  0  0  0  0  0  0  0  0
   -7.3225    9.8872   -8.0242 C   0  0  0  0  0  0  0  0  0  0  0  0
   -4.3834   13.6199  -11.4933 N   0  0  0  0  0  0  0  0  0  0  0  0
   -3.4237   14.7282  -11.5789 C   0  0  0  0  0  0  0  0  0  0  0  0
   -5.5369   13.6139  -12.1980 C   0  0  0  0  0  0  0  0  0  0  0  0
   -5.8771   14.5161  -12.9653 O   0  0  0  0  0  0  0  0  0  0  0  0
   -5.9516   10.5005   -7.7272 C   0  0  0  0  0  0  0  0  0  0  0  0
   -5.8803   11.7722   -7.1539 C   0  0  0  0  0  0  0  0  0  0  0  0
   -4.6129   12.3159   -6.9118 C   0  0  0  0  0  0  0  0  0  0  0  0
   -3.4418   11.5625   -7.2429 C   0  0  0  0  0  0  0  0  0  0  0  0
   -3.5059   10.2842   -7.8062 C   0  0  0  0  0  0  0  0  0  0  0  0
   -4.7935    9.7780   -8.0417 C   0  0  0  0  0  0  0  0  0  0  0  0
   -4.0936   13.5458   -6.3664 C   0  0  0  0  0  0  0  0  0  0  0  0
   -2.7885   13.5288   -6.3742 N   0  0  0  0  0  0  0  0  0  0  0  0
   -2.3831   12.3683   -6.8823 N   0  0  0  0  0  0  0  0  0  0  0  0
   -0.9539   12.1016   -6.9897 C   0  0  0  0  0  0  0  0  0  0  0  0
   -6.0597   12.2849   -9.8771 H   0  0  0  0  0  0  0  0  0  0  0  0
   -8.1927   10.1256  -13.8924 H   0  0  0  0  0  0  0  0  0  0  0  0
   -6.9098   12.2595  -14.0890 H   0  0  0  0  0  0  0  0  0  0  0  0
   -8.0161    9.5818   -7.2548 H   0  0  0  0  0  0  0  0  0  0  0  0
   -4.1771   12.8456  -10.8951 H   0  0  0  0  0  0  0  0  0  0  0  0
   -2.5640   14.5209  -10.9247 H   0  0  0  0  0  0  0  0  0  0  0  0
   -3.0770   14.8334  -12.6175 H   0  0  0  0  0  0  0  0  0  0  0  0
   -3.9113   15.6608  -11.2589 H   0  0  0  0  0  0  0  0  0  0  0  0
   -6.4095   12.4637   -7.8260 H   0  0  0  0  0  0  0  0  0  0  0  0
   -6.4055   11.7253   -6.1885 H   0  0  0  0  0  0  0  0  0  0  0  0
   -2.9750   10.3141   -8.7692 H   0  0  0  0  0  0  0  0  0  0  0  0
   -2.9912    9.5904   -7.1252 H   0  0  0  0  0  0  0  0  0  0  0  0
   -4.8951    8.7966   -8.4810 H   0  0  0  0  0  0  0  0  0  0  0  0
   -4.6981   14.3639   -6.0034 H   0  0  0  0  0  0  0  0  0  0  0  0
   -0.3895   12.9643   -6.6059 H   0  0  0  0  0  0  0  0  0  0  0  0
   -0.7026   11.2076   -6.4002 H   0  0  0  0  0  0  0  0  0  0  0  0
   -0.6910   11.9314   -8.0442 H   0  0  0  0  0  0  0  0  0  0  0  0
  1  2  2  0  0  0  0
  1  4  1  0  0  0  0
  1 13  1  0  0  0  0
  2  6  1  0  0  0  0
  3  4  2  0  0  0  0
  3  5  1  0  0  0  0
  5  6  2  0  0  0  0
  5  9  1  0  0  0  0
  6  7  1  0  0  0  0
  7  8  1  0  0  0  0
  7 10  2  3  0  0  0
  8  9  2  0  0  0  0
 10 15  1  0  0  0  0
 11 12  1  0  0  0  0
 11 13  1  0  0  0  0
 13 14  2  0  0  0  0
 15 16  1  0  0  0  0
 15 20  2  0  0  0  0
 16 17  1  0  0  0  0
 17 18  2  0  0  0  0
 17 21  1  0  0  0  0
 18 19  1  0  0  0  0
 18 23  1  0  0  0  0
 19 20  1  0  0  0  0
 21 22  2  0  0  0  0
 22 23  1  0  0  0  0
 23 24  1  0  0  0  0
  2 25  1  0  0  0  0
  3 26  1  0  0  0  0
  4 27  1  0  0  0  0
 10 28  1  0  0  0  0
 11 29  1  0  0  0  0
 12 30  1  0  0  0  0
 12 31  1  0  0  0  0
 12 32  1  0  0  0  0
 16 33  1  0  0  0  0
 16 34  1  0  0  0  0
 19 35  1  0  0  0  0
 19 36  1  0  0  0  0
 20 37  1  0  0  0  0
 21 38  1  0  0  0  0
 24 39  1  0  0  0  0
 24 40  1  0  0  0  0
 24 41  1  0  0  0  0
M  END
> <Name>
18

> <IC50[uM]>
0.01

$$$$
18
  -OEChem-05192314333D
 Structure written by MMmdl.
 41 44  0     0  0  0  0  0  0999 V2000
   -6.3808   12.3686  -12.0119 C   0  0  0  0  0  0  0  0  0  0  0  0
   -6.5112   11.8116  -10.7365 C   0  0  0  0  0  0  0  0  0  0  0  0
   -7.7301   10.5824  -13.0300 C   0  0  0  0  0  0  0  0  0  0  0  0
   -6.9992   11.7782  -13.1263 C   0  0  0  0  0  0  0  0  0  0  0  0
   -7.8250   10.0166  -11.7542 C   0  0  0  0  0  0  0  0  0  0  0  0
   -7.2407   10.6266  -10.6010 C   0  0  0  0  0  0  0  0  0  0  0  0
   -7.6094    9.7513   -9.5103 C   0  0  0  0  0  0  0  0  0  0  0  0
   -8.2849    8.7404   -9.9846 N   0  0  0  0  0  0  0  0  0  0  0  0
   -8.4192    8.8674  -11.2983 N   0  0  0  0  0  0  0  0  0  0  0  0
   -7.3225    9.8872   -8.0242 C   0  0  0  0  0  0  0  0  0  0  0  0
   -4.3834   13.6199  -11.4933 N   0  0  0  0  0  0  0  0  0  0  0  0
   -3.4237   14.7282  -11.5789 C   0  0  0  0  0  0  0  0  0  0  0  0
   -5.5369   13.6139  -12.1980 C   0  0  0  0  0  0  0  0  0  0  0  0
   -5.8771   14.5161  -12.9653 O   0  0  0  0  0  0  0  0  0  0  0  0
   -5.9516   10.5005   -7.7272 C   0  0  0  0  0  0  0  0  0  0  0  0
   -5.8803   11.7722   -7.1539 C   0  0  0  0  0  0  0  0  0  0  0  0
   -4.6129   12.3159   -6.9118 C   0  0  0  0  0  0  0  0  0  0  0  0
   -3.4418   11.5625   -7.2429 C   0  0  0  0  0  0  0  0  0  0  0  0
   -3.5059   10.2842   -7.8062 C   0  0  0  0  0  0  0  0  0  0  0  0
   -4.7935    9.7780   -8.0417 C   0  0  0  0  0  0  0  0  0  0  0  0
   -4.0936   13.5458   -6.3664 C   0  0  0  0  0  0  0  0  0  0  0  0
   -2.7885   13.5288   -6.3742 N   0  0  0  0  0  0  0  0  0  0  0  0
   -2.3831   12.3683   -6.8823 N   0  0  0  0  0  0  0  0  0  0  0  0
   -0.9539   12.1016   -6.9897 C   0  0  0  0  0  0  0  0  0  0  0  0
   -6.0597   12.2849   -9.8771 H   0  0  0  0  0  0  0  0  0  0  0  0
   -8.1927   10.1256  -13.8924 H   0  0  0  0  0  0  0  0  0  0  0  0
   -6.9098   12.2595  -14.0890 H   0  0  0  0  0  0  0  0  0  0  0  0
   -8.0161    9.5818   -7.2548 H   0  0  0  0  0  0  0  0  0  0  0  0
   -2.5640   14.5209  -10.9247 H   0  0  0  0  0  0  0  0  0  0  0  0
   -3.0770   14.8334  -12.6175 H   0  0  0  0  0  0  0  0  0  0  0  0
   -3.9113   15.6608  -11.2589 H   0  0  0  0  0  0  0  0  0  0  0  0
   -5.2270   15.2086  -12.9486 H   0  0  0  0  0  0  0  0  0  0  0  0
   -6.7769   12.3203   -6.9046 H   0  0  0  0  0  0  0  0  0  0  0  0
   -2.9750   10.3141   -8.7692 H   0  0  0  0  0  0  0  0  0  0  0  0
   -2.9912    9.5904   -7.1252 H   0  0  0  0  0  0  0  0  0  0  0  0
   -4.8591    8.8345   -7.4800 H   0  0  0  0  0  0  0  0  0  0  0  0
   -4.8473    9.5673   -9.1200 H   0  0  0  0  0  0  0  0  0  0  0  0
   -4.6981   14.3639   -6.0034 H   0  0  0  0  0  0  0  0  0  0  0  0
   -0.3895   12.9643   -6.6059 H   0  0  0  0  0  0  0  0  0  0  0  0
   -0.7026   11.2076   -6.4002 H   0  0  0  0  0  0  0  0  0  0  0  0
   -0.6910   11.9314   -8.0442 H   0  0  0  0  0  0  0  0  0  0  0  0
  1  2  2  0  0  0  0
  1  4  1  0  0  0  0
  1 13  1  0  0  0  0
  2  6  1  0  0  0  0
  3  4  2  0  0  0  0
  3  5  1  0  0  0  0
  5  6  2  0  0  0  0
  5  9  1  0  0  0  0
  6  7  1  0  0  0  0
  7  8  1  0  0  0  0
  7 10  2  3  0  0  0
  8  9  2  0  0  0  0
 10 15  1  0  0  0  0
 11 12  1  0  0  0  0
 11 13  2  0  0  0  0
 13 14  1  0  0  0  0
 15 16  2  0  0  0  0
 15 20  1  0  0  0  0
 16 17  1  0  0  0  0
 17 18  2  0  0  0  0
 17 21  1  0  0  0  0
 18 19  1  0  0  0  0
 18 23  1  0  0  0  0
 19 20  1  0  0  0  0
 21 22  2  0  0  0  0
 22 23  1  0  0  0  0
 23 24  1  0  0  0  0
  2 25  1  0  0  0  0
  3 26  1  0  0  0  0
  4 27  1  0  0  0  0
 10 28  1  0  0  0  0
 12 29  1  0  0  0  0
 12 30  1  0  0  0  0
 12 31  1  0  0  0  0
 14 32  1  0  0  0  0
 16 33  1  0  0  0  0
 19 34  1  0  0  0  0
 19 35  1  0  0  0  0
 20 36  1  0  0  0  0
 20 37  1  0  0  0  0
 21 38  1  0  0  0  0
 24 39  1  0  0  0  0
 24 40  1  0  0  0  0
 24 41  1  0  0  0  0
M  END
> <Name>
18

> <IC50[uM]>
0.01

$$$$
18
  -OEChem-05192314333D
 Structure written by MMmdl.
 41 44  0     1  0  0  0  0  0999 V2000
   -6.3808   12.3686  -12.0119 C   0  0  0  0  0  0  0  0  0  0  0  0
   -6.5112   11.8116  -10.7365 C   0  0  0  0  0  0  0  0  0  0  0  0
   -7.7301   10.5824  -13.0300 C   0  0  0  0  0  0  0  0  0  0  0  0
   -6.9992   11.7782  -13.1263 C   0  0  0  0  0  0  0  0  0  0  0  0
   -7.8250   10.0166  -11.7542 C   0  0  0  0  0  0  0  0  0  0  0  0
   -7.2407   10.6266  -10.6010 C   0  0  0  0  0  0  0  0  0  0  0  0
   -7.6094    9.7513   -9.5103 C   0  0  0  0  0  0  0  0  0  0  0  0
   -8.2849    8.7404   -9.9846 N   0  0  0  0  0  0  0  0  0  0  0  0
   -8.4192    8.8674  -11.2983 N   0  0  0  0  0  0  0  0  0  0  0  0
   -7.3225    9.8872   -8.0242 C   0  0  0  0  0  0  0  0  0  0  0  0
   -4.3834   13.6199  -11.4933 N   0  0  0  0  0  0  0  0  0  0  0  0
   -3.4237   14.7282  -11.5789 C   0  0  0  0  0  0  0  0  0  0  0  0
   -5.5369   13.6139  -12.1980 C   0  0  0  0  0  0  0  0  0  0  0  0
   -5.8771   14.5161  -12.9653 O   0  0  0  0  0  0  0  0  0  0  0  0
   -5.9516   10.5005   -7.7272 C   0  0  3  0  0  0  0  0  0  0  0  0
   -5.8803   11.7722   -7.1539 C   0  0  0  0  0  0  0  0  0  0  0  0
   -4.6129   12.3159   -6.9118 C   0  0  0  0  0  0  0  0  0  0  0  0
   -3.4418   11.5625   -7.2429 C   0  0  0  0  0  0  0  0  0  0  0  0
   -3.5059   10.2842   -7.8062 C   0  0  0  0  0  0  0  0  0  0  0  0
   -4.7935    9.7780   -8.0417 C   0  0  0  0  0  0  0  0  0  0  0  0
   -4.0936   13.5458   -6.3664 C   0  0  0  0  0  0  0  0  0  0  0  0
   -2.7885   13.5288   -6.3742 N   0  0  0  0  0  0  0  0  0  0  0  0
   -2.3831   12.3683   -6.8823 N   0  0  0  0  0  0  0  0  0  0  0  0
   -0.9539   12.1016   -6.9897 C   0  0  0  0  0  0  0  0  0  0  0  0
   -6.0597   12.2849   -9.8771 H   0  0  0  0  0  0  0  0  0  0  0  0
   -8.1927   10.1256  -13.8924 H   0  0  0  0  0  0  0  0  0  0  0  0
   -6.9098   12.2595  -14.0890 H   0  0  0  0  0  0  0  0  0  0  0  0
   -8.0161    9.5818   -7.2548 H   0  0  0  0  0  0  0  0  0  0  0  0
   -2.5640   14.5209  -10.9247 H   0  0  0  0  0  0  0  0  0  0  0  0
   -3.0770   14.8334  -12.6175 H   0  0  0  0  0  0  0  0  0  0  0  0
   -3.9113   15.6608  -11.2589 H   0  0  0  0  0  0  0  0  0  0  0  0
   -5.2270   15.2086  -12.9486 H   0  0  0  0  0  0  0  0  0  0  0  0
   -5.9642   10.0474   -6.7249 H   0  0  0  0  0  0  0  0  0  0  0  0
   -6.4095   12.4637   -7.8260 H   0  0  0  0  0  0  0  0  0  0  0  0
   -6.4055   11.7253   -6.1885 H   0  0  0  0  0  0  0  0  0  0  0  0
   -2.6169    9.7197   -8.0459 H   0  0  0  0  0  0  0  0  0  0  0  0
   -4.8951    8.7966   -8.4810 H   0  0  0  0  0  0  0  0  0  0  0  0
   -4.6981   14.3639   -6.0034 H   0  0  0  0  0  0  0  0  0  0  0  0
   -0.3895   12.9643   -6.6059 H   0  0  0  0  0  0  0  0  0  0  0  0
   -0.7026   11.2076   -6.4002 H   0  0  0  0  0  0  0  0  0  0  0  0
   -0.6910   11.9314   -8.0442 H   0  0  0  0  0  0  0  0  0  0  0  0
  1  2  2  0  0  0  0
  1  4  1  0  0  0  0
  1 13  1  0  0  0  0
  2  6  1  0  0  0  0
  3  4  2  0  0  0  0
  3  5  1  0  0  0  0
  5  6  2  0  0  0  0
  5  9  1  0  0  0  0
  6  7  1  0  0  0  0
  7  8  1  0  0  0  0
  7 10  2  3  0  0  0
  8  9  2  0  0  0  0
 10 15  1  0  0  0  0
 11 12  1  0  0  0  0
 11 13  2  0  0  0  0
 13 14  1  0  0  0  0
 15 16  1  0  0  0  0
 15 20  1  0  0  0  0
 16 17  1  0  0  0  0
 17 18  2  0  0  0  0
 17 21  1  0  0  0  0
 18 19  1  0  0  0  0
 18 23  1  0  0  0  0
 19 20  2  0  0  0  0
 21 22  2  0  0  0  0
 22 23  1  0  0  0  0
 23 24  1  0  0  0  0
  2 25  1  0  0  0  0
  3 26  1  0  0  0  0
  4 27  1  0  0  0  0
 10 28  1  0  0  0  0
 12 29  1  0  0  0  0
 12 30  1  0  0  0  0
 12 31  1  0  0  0  0
 14 32  1  0  0  0  0
 15 33  1  0  0  0  0
 16 34  1  0  0  0  0
 16 35  1  0  0  0  0
 19 36  1  0  0  0  0
 20 37  1  0  0  0  0
 21 38  1  0  0  0  0
 24 39  1  0  0  0  0
 24 40  1  0  0  0  0
 24 41  1  0  0  0  0
M  END
> <Name>
18

> <IC50[uM]>
0.01

$$$$
18
  -OEChem-05192314333D
 Structure written by MMmdl.
 41 44  0     1  0  0  0  0  0999 V2000
   -6.3808   12.3686  -12.0119 C   0  0  0  0  0  0  0  0  0  0  0  0
   -6.5112   11.8116  -10.7365 C   0  0  0  0  0  0  0  0  0  0  0  0
   -7.7301   10.5824  -13.0300 C   0  0  0  0  0  0  0  0  0  0  0  0
   -6.9992   11.7782  -13.1263 C   0  0  0  0  0  0  0  0  0  0  0  0
   -7.8250   10.0166  -11.7542 C   0  0  0  0  0  0  0  0  0  0  0  0
   -7.2407   10.6266  -10.6010 C   0  0  0  0  0  0  0  0  0  0  0  0
   -7.6094    9.7513   -9.5103 C   0  0  3  0  0  0  0  0  0  0  0  0
   -8.2849    8.7404   -9.9846 N   0  0  0  0  0  0  0  0  0  0  0  0
   -8.4192    8.8674  -11.2983 N   0  0  0  0  0  0  0  0  0  0  0  0
   -7.3225    9.8872   -8.0242 C   0  0  0  0  0  0  0  0  0  0  0  0
   -4.3834   13.6199  -11.4933 N   0  0  0  0  0  0  0  0  0  0  0  0
   -3.4237   14.7282  -11.5789 C   0  0  0  0  0  0  0  0  0  0  0  0
   -5.5369   13.6139  -12.1980 C   0  0  0  0  0  0  0  0  0  0  0  0
   -5.8771   14.5161  -12.9653 O   0  0  0  0  0  0  0  0  0  0  0  0
   -5.9516   10.5005   -7.7272 C   0  0  0  0  0  0  0  0  0  0  0  0
   -5.8803   11.7722   -7.1539 C   0  0  0  0  0  0  0  0  0  0  0  0
   -4.6129   12.3159   -6.9118 C   0  0  0  0  0  0  0  0  0  0  0  0
   -3.4418   11.5625   -7.2429 C   0  0  0  0  0  0  0  0  0  0  0  0
   -3.5059   10.2842   -7.8062 C   0  0  0  0  0  0  0  0  0  0  0  0
   -4.7935    9.7780   -8.0417 C   0  0  0  0  0  0  0  0  0  0  0  0
   -4.0936   13.5458   -6.3664 C   0  0  0  0  0  0  0  0  0  0  0  0
   -2.7885   13.5288   -6.3742 N   0  0  0  0  0  0  0  0  0  0  0  0
   -2.3831   12.3683   -6.8823 N   0  0  0  0  0  0  0  0  0  0  0  0
   -0.9539   12.1016   -6.9897 C   0  0  0  0  0  0  0  0  0  0  0  0
   -6.0597   12.2849   -9.8771 H   0  0  0  0  0  0  0  0  0  0  0  0
   -8.1927   10.1256  -13.8924 H   0  0  0  0  0  0  0  0  0  0  0  0
   -6.9098   12.2595  -14.0890 H   0  0  0  0  0  0  0  0  0  0  0  0
   -6.6727    9.1898   -9.6417 H   0  0  0  0  0  0  0  0  0  0  0  0
   -8.0161    9.5818   -7.2548 H   0  0  0  0  0  0  0  0  0  0  0  0
   -2.5640   14.5209  -10.9247 H   0  0  0  0  0  0  0  0  0  0  0  0
   -3.0770   14.8334  -12.6175 H   0  0  0  0  0  0  0  0  0  0  0  0
   -3.9113   15.6608  -11.2589 H   0  0  0  0  0  0  0  0  0  0  0  0
   -5.2270   15.2086  -12.9486 H   0  0  0  0  0  0  0  0  0  0  0  0
   -6.4095   12.4637   -7.8260 H   0  0  0  0  0  0  0  0  0  0  0  0
   -6.4055   11.7253   -6.1885 H   0  0  0  0  0  0  0  0  0  0  0  0
   -2.6169    9.7197   -8.0459 H   0  0  0  0  0  0  0  0  0  0  0  0
   -4.8951    8.7966   -8.4810 H   0  0  0  0  0  0  0  0  0  0  0  0
   -4.6981   14.3639   -6.0034 H   0  0  0  0  0  0  0  0  0  0  0  0
   -0.3895   12.9643   -6.6059 H   0  0  0  0  0  0  0  0  0  0  0  0
   -0.7026   11.2076   -6.4002 H   0  0  0  0  0  0  0  0  0  0  0  0
   -0.6910   11.9314   -8.0442 H   0  0  0  0  0  0  0  0  0  0  0  0
  1  2  2  0  0  0  0
  1  4  1  0  0  0  0
  1 13  1  0  0  0  0
  2  6  1  0  0  0  0
  3  4  2  0  0  0  0
  3  5  1  0  0  0  0
  5  6  2  0  0  0  0
  5  9  1  0  0  0  0
  6  7  1  0  0  0  0
  7  8  1  0  0  0  0
  7 10  1  0  0  0  0
  8  9  2  0  0  0  0
 10 15  2  3  0  0  0
 11 12  1  0  0  0  0
 11 13  2  0  0  0  0
 13 14  1  0  0  0  0
 15 16  1  0  0  0  0
 15 20  1  0  0  0  0
 16 17  1  0  0  0  0
 17 18  2  0  0  0  0
 17 21  1  0  0  0  0
 18 19  1  0  0  0  0
 18 23  1  0  0  0  0
 19 20  2  0  0  0  0
 21 22  2  0  0  0  0
 22 23  1  0  0  0  0
 23 24  1  0  0  0  0
  2 25  1  0  0  0  0
  3 26  1  0  0  0  0
  4 27  1  0  0  0  0
  7 28  1  0  0  0  0
 10 29  1  0  0  0  0
 12 30  1  0  0  0  0
 12 31  1  0  0  0  0
 12 32  1  0  0  0  0
 14 33  1  0  0  0  0
 16 34  1  0  0  0  0
 16 35  1  0  0  0  0
 19 36  1  0  0  0  0
 20 37  1  0  0  0  0
 21 38  1  0  0  0  0
 24 39  1  0  0  0  0
 24 40  1  0  0  0  0
 24 41  1  0  0  0  0
M  END
> <Name>
18

> <IC50[uM]>
0.01

$$$$
18
  -OEChem-05192314333D
 Structure written by MMmdl.
 41 44  0     0  0  0  0  0  0999 V2000
   -6.3808   12.3686  -12.0119 C   0  0  0  0  0  0  0  0  0  0  0  0
   -6.5112   11.8116  -10.7365 C   0  0  0  0  0  0  0  0  0  0  0  0
   -7.7301   10.5824  -13.0300 C   0  0  0  0  0  0  0  0  0  0  0  0
   -6.9992   11.7782  -13.1263 C   0  0  0  0  0  0  0  0  0  0  0  0
   -7.8250   10.0166  -11.7542 C   0  0  0  0  0  0  0  0  0  0  0  0
   -7.2407   10.6266  -10.6010 C   0  0  0  0  0  0  0  0  0  0  0  0
   -7.6094    9.7513   -9.5103 C   0  0  0  0  0  0  0  0  0  0  0  0
   -8.2849    8.7404   -9.9846 N   0  0  0  0  0  0  0  0  0  0  0  0
   -8.4192    8.8674  -11.2983 N   0  0  0  0  0  0  0  0  0  0  0  0
   -7.3225    9.8872   -8.0242 C   0  0  0  0  0  0  0  0  0  0  0  0
   -4.3834   13.6199  -11.4933 N   0  0  0  0  0  0  0  0  0  0  0  0
   -3.4237   14.7282  -11.5789 C   0  0  0  0  0  0  0  0  0  0  0  0
   -5.5369   13.6139  -12.1980 C   0  0  0  0  0  0  0  0  0  0  0  0
   -5.8771   14.5161  -12.9653 O   0  0  0  0  0  0  0  0  0  0  0  0
   -5.9516   10.5005   -7.7272 C   0  0  0  0  0  0  0  0  0  0  0  0
   -5.8803   11.7722   -7.1539 C   0  0  0  0  0  0  0  0  0  0  0  0
   -4.6129   12.3159   -6.9118 C   0  0  0  0  0  0  0  0  0  0  0  0
   -3.4418   11.5625   -7.2429 C   0  0  0  0  0  0  0  0  0  0  0  0
   -3.5059   10.2842   -7.8062 C   0  0  0  0  0  0  0  0  0  0  0  0
   -4.7935    9.7780   -8.0417 C   0  0  0  0  0  0  0  0  0  0  0  0
   -4.0936   13.5458   -6.3664 C   0  0  0  0  0  0  0  0  0  0  0  0
   -2.7885   13.5288   -6.3742 N   0  0  0  0  0  0  0  0  0  0  0  0
   -2.3831   12.3683   -6.8823 N   0  0  0  0  0  0  0  0  0  0  0  0
   -0.9539   12.1016   -6.9897 C   0  0  0  0  0  0  0  0  0  0  0  0
   -6.0597   12.2849   -9.8771 H   0  0  0  0  0  0  0  0  0  0  0  0
   -8.1927   10.1256  -13.8924 H   0  0  0  0  0  0  0  0  0  0  0  0
   -6.9098   12.2595  -14.0890 H   0  0  0  0  0  0  0  0  0  0  0  0
   -8.0161    9.5818   -7.2548 H   0  0  0  0  0  0  0  0  0  0  0  0
   -2.5640   14.5209  -10.9247 H   0  0  0  0  0  0  0  0  0  0  0  0
   -3.0770   14.8334  -12.6175 H   0  0  0  0  0  0  0  0  0  0  0  0
   -3.9113   15.6608  -11.2589 H   0  0  0  0  0  0  0  0  0  0  0  0
   -5.2270   15.2086  -12.9486 H   0  0  0  0  0  0  0  0  0  0  0  0
   -6.4095   12.4637   -7.8260 H   0  0  0  0  0  0  0  0  0  0  0  0
   -6.4055   11.7253   -6.1885 H   0  0  0  0  0  0  0  0  0  0  0  0
   -2.9750   10.3141   -8.7692 H   0  0  0  0  0  0  0  0  0  0  0  0
   -2.9912    9.5904   -7.1252 H   0  0  0  0  0  0  0  0  0  0  0  0
   -4.8951    8.7966   -8.4810 H   0  0  0  0  0  0  0  0  0  0  0  0
   -4.6981   14.3639   -6.0034 H   0  0  0  0  0  0  0  0  0  0  0  0
   -0.3895   12.9643   -6.6059 H   0  0  0  0  0  0  0  0  0  0  0  0
   -0.7026   11.2076   -6.4002 H   0  0  0  0  0  0  0  0  0  0  0  0
   -0.6910   11.9314   -8.0442 H   0  0  0  0  0  0  0  0  0  0  0  0
  1  2  2  0  0  0  0
  1  4  1  0  0  0  0
  1 13  1  0  0  0  0
  2  6  1  0  0  0  0
  3  4  2  0  0  0  0
  3  5  1  0  0  0  0
  5  6  2  0  0  0  0
  5  9  1  0  0  0  0
  6  7  1  0  0  0  0
  7  8  1  0  0  0  0
  7 10  2  3  0  0  0
  8  9  2  0  0  0  0
 10 15  1  0  0  0  0
 11 12  1  0  0  0  0
 11 13  2  0  0  0  0
 13 14  1  0  0  0  0
 15 16  1  0  0  0  0
 15 20  2  0  0  0  0
 16 17  1  0  0  0  0
 17 18  2  0  0  0  0
 17 21  1  0  0  0  0
 18 19  1  0  0  0  0
 18 23  1  0  0  0  0
 19 20  1  0  0  0  0
 21 22  2  0  0  0  0
 22 23  1  0  0  0  0
 23 24  1  0  0  0  0
  2 25  1  0  0  0  0
  3 26  1  0  0  0  0
  4 27  1  0  0  0  0
 10 28  1  0  0  0  0
 12 29  1  0  0  0  0
 12 30  1  0  0  0  0
 12 31  1  0  0  0  0
 14 32  1  0  0  0  0
 16 33  1  0  0  0  0
 16 34  1  0  0  0  0
 19 35  1  0  0  0  0
 19 36  1  0  0  0  0
 20 37  1  0  0  0  0
 21 38  1  0  0  0  0
 24 39  1  0  0  0  0
 24 40  1  0  0  0  0
 24 41  1  0  0  0  0
M  END
> <Name>
18

> <IC50[uM]>
0.01

$$$$
18
  -OEChem-05192314333D
 Structure written by MMmdl.
 41 44  0     1  0  0  0  0  0999 V2000
   -6.3808   12.3686  -12.0119 C   0  0  0  0  0  0  0  0  0  0  0  0
   -6.5112   11.8116  -10.7365 C   0  0  0  0  0  0  0  0  0  0  0  0
   -7.7301   10.5824  -13.0300 C   0  0  0  0  0  0  0  0  0  0  0  0
   -6.9992   11.7782  -13.1263 C   0  0  0  0  0  0  0  0  0  0  0  0
   -7.8250   10.0166  -11.7542 C   0  0  0  0  0  0  0  0  0  0  0  0
   -7.2407   10.6266  -10.6010 C   0  0  0  0  0  0  0  0  0  0  0  0
   -7.6094    9.7513   -9.5103 C   0  0  0  0  0  0  0  0  0  0  0  0
   -8.2849    8.7404   -9.9846 N   0  0  0  0  0  0  0  0  0  0  0  0
   -8.4192    8.8674  -11.2983 N   0  0  0  0  0  0  0  0  0  0  0  0
   -7.3225    9.8872   -8.0242 C   0  0  0  0  0  0  0  0  0  0  0  0
   -4.3834   13.6199  -11.4933 N   0  0  0  0  0  0  0  0  0  0  0  0
   -3.4237   14.7282  -11.5789 C   0  0  0  0  0  0  0  0  0  0  0  0
   -5.5369   13.6139  -12.1980 C   0  0  0  0  0  0  0  0  0  0  0  0
   -5.8771   14.5161  -12.9653 O   0  0  0  0  0  0  0  0  0  0  0  0
   -5.9516   10.5005   -7.7272 C   0  0  3  0  0  0  0  0  0  0  0  0
   -5.8803   11.7722   -7.1539 C   0  0  0  0  0  0  0  0  0  0  0  0
   -4.6129   12.3159   -6.9118 C   0  0  0  0  0  0  0  0  0  0  0  0
   -3.4418   11.5625   -7.2429 C   0  0  0  0  0  0  0  0  0  0  0  0
   -3.5059   10.2842   -7.8062 C   0  0  0  0  0  0  0  0  0  0  0  0
   -4.7935    9.7780   -8.0417 C   0  0  0  0  0  0  0  0  0  0  0  0
   -4.0936   13.5458   -6.3664 C   0  0  0  0  0  0  0  0  0  0  0  0
   -2.7885   13.5288   -6.3742 N   0  0  0  0  0  0  0  0  0  0  0  0
   -2.3831   12.3683   -6.8823 N   0  0  0  0  0  0  0  0  0  0  0  0
   -0.9539   12.1016   -6.9897 C   0  0  0  0  0  0  0  0  0  0  0  0
   -6.0597   12.2849   -9.8771 H   0  0  0  0  0  0  0  0  0  0  0  0
   -8.1927   10.1256  -13.8924 H   0  0  0  0  0  0  0  0  0  0  0  0
   -6.9098   12.2595  -14.0890 H   0  0  0  0  0  0  0  0  0  0  0  0
   -8.0161    9.5818   -7.2548 H   0  0  0  0  0  0  0  0  0  0  0  0
   -4.1771   12.8456  -10.8951 H   0  0  0  0  0  0  0  0  0  0  0  0
   -2.5640   14.5209  -10.9247 H   0  0  0  0  0  0  0  0  0  0  0  0
   -3.0770   14.8334  -12.6175 H   0  0  0  0  0  0  0  0  0  0  0  0
   -3.9113   15.6608  -11.2589 H   0  0  0  0  0  0  0  0  0  0  0  0
   -5.9642   10.0474   -6.7249 H   0  0  0  0  0  0  0  0  0  0  0  0
   -6.7769   12.3203   -6.9046 H   0  0  0  0  0  0  0  0  0  0  0  0
   -2.6169    9.7197   -8.0459 H   0  0  0  0  0  0  0  0  0  0  0  0
   -4.8591    8.8345   -7.4800 H   0  0  0  0  0  0  0  0  0  0  0  0
   -4.8473    9.5673   -9.1200 H   0  0  0  0  0  0  0  0  0  0  0  0
   -4.6981   14.3639   -6.0034 H   0  0  0  0  0  0  0  0  0  0  0  0
   -0.3895   12.9643   -6.6059 H   0  0  0  0  0  0  0  0  0  0  0  0
   -0.7026   11.2076   -6.4002 H   0  0  0  0  0  0  0  0  0  0  0  0
   -0.6910   11.9314   -8.0442 H   0  0  0  0  0  0  0  0  0  0  0  0
  1  2  2  0  0  0  0
  1  4  1  0  0  0  0
  1 13  1  0  0  0  0
  2  6  1  0  0  0  0
  3  4  2  0  0  0  0
  3  5  1  0  0  0  0
  5  6  2  0  0  0  0
  5  9  1  0  0  0  0
  6  7  1  0  0  0  0
  7  8  1  0  0  0  0
  7 10  2  3  0  0  0
  8  9  2  0  0  0  0
 10 15  1  0  0  0  0
 11 12  1  0  0  0  0
 11 13  1  0  0  0  0
 13 14  2  0  0  0  0
 15 16  1  0  0  0  0
 15 20  1  0  0  0  0
 16 17  2  0  0  0  0
 17 18  1  0  0  0  0
 17 21  1  0  0  0  0
 18 19  2  0  0  0  0
 18 23  1  0  0  0  0
 19 20  1  0  0  0  0
 21 22  2  0  0  0  0
 22 23  1  0  0  0  0
 23 24  1  0  0  0  0
  2 25  1  0  0  0  0
  3 26  1  0  0  0  0
  4 27  1  0  0  0  0
 10 28  1  0  0  0  0
 11 29  1  0  0  0  0
 12 30  1  0  0  0  0
 12 31  1  0  0  0  0
 12 32  1  0  0  0  0
 15 33  1  0  0  0  0
 16 34  1  0  0  0  0
 19 35  1  0  0  0  0
 20 36  1  0  0  0  0
 20 37  1  0  0  0  0
 21 38  1  0  0  0  0
 24 39  1  0  0  0  0
 24 40  1  0  0  0  0
 24 41  1  0  0  0  0
M  END
> <Name>
18

> <IC50[uM]>
0.01

$$$$
18
  -OEChem-05192314333D
 Structure written by MMmdl.
 41 44  0     1  0  0  0  0  0999 V2000
   -6.3808   12.3686  -12.0119 C   0  0  0  0  0  0  0  0  0  0  0  0
   -6.5112   11.8116  -10.7365 C   0  0  0  0  0  0  0  0  0  0  0  0
   -7.7301   10.5824  -13.0300 C   0  0  0  0  0  0  0  0  0  0  0  0
   -6.9992   11.7782  -13.1263 C   0  0  0  0  0  0  0  0  0  0  0  0
   -7.8250   10.0166  -11.7542 C   0  0  0  0  0  0  0  0  0  0  0  0
   -7.2407   10.6266  -10.6010 C   0  0  0  0  0  0  0  0  0  0  0  0
   -7.6094    9.7513   -9.5103 C   0  0  3  0  0  0  0  0  0  0  0  0
   -8.2849    8.7404   -9.9846 N   0  0  0  0  0  0  0  0  0  0  0  0
   -8.4192    8.8674  -11.2983 N   0  0  0  0  0  0  0  0  0  0  0  0
   -7.3225    9.8872   -8.0242 C   0  0  0  0  0  0  0  0  0  0  0  0
   -4.3834   13.6199  -11.4933 N   0  0  0  0  0  0  0  0  0  0  0  0
   -3.4237   14.7282  -11.5789 C   0  0  0  0  0  0  0  0  0  0  0  0
   -5.5369   13.6139  -12.1980 C   0  0  0  0  0  0  0  0  0  0  0  0
   -5.8771   14.5161  -12.9653 O   0  0  0  0  0  0  0  0  0  0  0  0
   -5.9516   10.5005   -7.7272 C   0  0  0  0  0  0  0  0  0  0  0  0
   -5.8803   11.7722   -7.1539 C   0  0  0  0  0  0  0  0  0  0  0  0
   -4.6129   12.3159   -6.9118 C   0  0  0  0  0  0  0  0  0  0  0  0
   -3.4418   11.5625   -7.2429 C   0  0  0  0  0  0  0  0  0  0  0  0
   -3.5059   10.2842   -7.8062 C   0  0  0  0  0  0  0  0  0  0  0  0
   -4.7935    9.7780   -8.0417 C   0  0  0  0  0  0  0  0  0  0  0  0
   -4.0936   13.5458   -6.3664 C   0  0  0  0  0  0  0  0  0  0  0  0
   -2.7885   13.5288   -6.3742 N   0  0  0  0  0  0  0  0  0  0  0  0
   -2.3831   12.3683   -6.8823 N   0  0  0  0  0  0  0  0  0  0  0  0
   -0.9539   12.1016   -6.9897 C   0  0  0  0  0  0  0  0  0  0  0  0
   -6.0597   12.2849   -9.8771 H   0  0  0  0  0  0  0  0  0  0  0  0
   -8.1927   10.1256  -13.8924 H   0  0  0  0  0  0  0  0  0  0  0  0
   -6.9098   12.2595  -14.0890 H   0  0  0  0  0  0  0  0  0  0  0  0
   -6.6727    9.1898   -9.6417 H   0  0  0  0  0  0  0  0  0  0  0  0
   -8.0161    9.5818   -7.2548 H   0  0  0  0  0  0  0  0  0  0  0  0
   -4.1771   12.8456  -10.8951 H   0  0  0  0  0  0  0  0  0  0  0  0
   -2.5640   14.5209  -10.9247 H   0  0  0  0  0  0  0  0  0  0  0  0
   -3.0770   14.8334  -12.6175 H   0  0  0  0  0  0  0  0  0  0  0  0
   -3.9113   15.6608  -11.2589 H   0  0  0  0  0  0  0  0  0  0  0  0
   -6.7769   12.3203   -6.9046 H   0  0  0  0  0  0  0  0  0  0  0  0
   -2.6169    9.7197   -8.0459 H   0  0  0  0  0  0  0  0  0  0  0  0
   -4.8591    8.8345   -7.4800 H   0  0  0  0  0  0  0  0  0  0  0  0
   -4.8473    9.5673   -9.1200 H   0  0  0  0  0  0  0  0  0  0  0  0
   -4.6981   14.3639   -6.0034 H   0  0  0  0  0  0  0  0  0  0  0  0
   -0.3895   12.9643   -6.6059 H   0  0  0  0  0  0  0  0  0  0  0  0
   -0.7026   11.2076   -6.4002 H   0  0  0  0  0  0  0  0  0  0  0  0
   -0.6910   11.9314   -8.0442 H   0  0  0  0  0  0  0  0  0  0  0  0
  1  2  2  0  0  0  0
  1  4  1  0  0  0  0
  1 13  1  0  0  0  0
  2  6  1  0  0  0  0
  3  4  2  0  0  0  0
  3  5  1  0  0  0  0
  5  6  2  0  0  0  0
  5  9  1  0  0  0  0
  6  7  1  0  0  0  0
  7  8  1  0  0  0  0
  7 10  1  0  0  0  0
  8  9  2  0  0  0  0
 10 15  2  3  0  0  0
 11 12  1  0  0  0  0
 11 13  1  0  0  0  0
 13 14  2  0  0  0  0
 15 16  1  0  0  0  0
 15 20  1  0  0  0  0
 16 17  2  0  0  0  0
 17 18  1  0  0  0  0
 17 21  1  0  0  0  0
 18 19  2  0  0  0  0
 18 23  1  0  0  0  0
 19 20  1  0  0  0  0
 21 22  2  0  0  0  0
 22 23  1  0  0  0  0
 23 24  1  0  0  0  0
  2 25  1  0  0  0  0
  3 26  1  0  0  0  0
  4 27  1  0  0  0  0
  7 28  1  0  0  0  0
 10 29  1  0  0  0  0
 11 30  1  0  0  0  0
 12 31  1  0  0  0  0
 12 32  1  0  0  0  0
 12 33  1  0  0  0  0
 16 34  1  0  0  0  0
 19 35  1  0  0  0  0
 20 36  1  0  0  0  0
 20 37  1  0  0  0  0
 21 38  1  0  0  0  0
 24 39  1  0  0  0  0
 24 40  1  0  0  0  0
 24 41  1  0  0  0  0
M  END
> <Name>
18

> <IC50[uM]>
0.01

$$$$
18
  -OEChem-05192314333D
 Structure written by MMmdl.
 41 44  0     1  0  0  0  0  0999 V2000
   -6.3808   12.3686  -12.0119 C   0  0  0  0  0  0  0  0  0  0  0  0
   -6.5112   11.8116  -10.7365 C   0  0  0  0  0  0  0  0  0  0  0  0
   -7.7301   10.5824  -13.0300 C   0  0  0  0  0  0  0  0  0  0  0  0
   -6.9992   11.7782  -13.1263 C   0  0  0  0  0  0  0  0  0  0  0  0
   -7.8250   10.0166  -11.7542 C   0  0  0  0  0  0  0  0  0  0  0  0
   -7.2407   10.6266  -10.6010 C   0  0  0  0  0  0  0  0  0  0  0  0
   -7.6094    9.7513   -9.5103 C   0  0  0  0  0  0  0  0  0  0  0  0
   -8.2849    8.7404   -9.9846 N   0  0  0  0  0  0  0  0  0  0  0  0
   -8.4192    8.8674  -11.2983 N   0  0  0  0  0  0  0  0  0  0  0  0
   -7.3225    9.8872   -8.0242 C   0  0  0  0  0  0  0  0  0  0  0  0
   -4.3834   13.6199  -11.4933 N   0  0  0  0  0  0  0  0  0  0  0  0
   -3.4237   14.7282  -11.5789 C   0  0  0  0  0  0  0  0  0  0  0  0
   -5.5369   13.6139  -12.1980 C   0  0  0  0  0  0  0  0  0  0  0  0
   -5.8771   14.5161  -12.9653 O   0  0  0  0  0  0  0  0  0  0  0  0
   -5.9516   10.5005   -7.7272 C   0  0  3  0  0  0  0  0  0  0  0  0
   -5.8803   11.7722   -7.1539 C   0  0  0  0  0  0  0  0  0  0  0  0
   -4.6129   12.3159   -6.9118 C   0  0  0  0  0  0  0  0  0  0  0  0
   -3.4418   11.5625   -7.2429 C   0  0  0  0  0  0  0  0  0  0  0  0
   -3.5059   10.2842   -7.8062 C   0  0  0  0  0  0  0  0  0  0  0  0
   -4.7935    9.7780   -8.0417 C   0  0  0  0  0  0  0  0  0  0  0  0
   -4.0936   13.5458   -6.3664 C   0  0  0  0  0  0  0  0  0  0  0  0
   -2.7885   13.5288   -6.3742 N   0  0  0  0  0  0  0  0  0  0  0  0
   -2.3831   12.3683   -6.8823 N   0  0  0  0  0  0  0  0  0  0  0  0
   -0.9539   12.1016   -6.9897 C   0  0  0  0  0  0  0  0  0  0  0  0
   -6.0597   12.2849   -9.8771 H   0  0  0  0  0  0  0  0  0  0  0  0
   -8.1927   10.1256  -13.8924 H   0  0  0  0  0  0  0  0  0  0  0  0
   -6.9098   12.2595  -14.0890 H   0  0  0  0  0  0  0  0  0  0  0  0
   -8.0161    9.5818   -7.2548 H   0  0  0  0  0  0  0  0  0  0  0  0
   -2.5640   14.5209  -10.9247 H   0  0  0  0  0  0  0  0  0  0  0  0
   -3.0770   14.8334  -12.6175 H   0  0  0  0  0  0  0  0  0  0  0  0
   -3.9113   15.6608  -11.2589 H   0  0  0  0  0  0  0  0  0  0  0  0
   -5.2270   15.2086  -12.9486 H   0  0  0  0  0  0  0  0  0  0  0  0
   -5.9642   10.0474   -6.7249 H   0  0  0  0  0  0  0  0  0  0  0  0
   -6.7769   12.3203   -6.9046 H   0  0  0  0  0  0  0  0  0  0  0  0
   -2.6169    9.7197   -8.0459 H   0  0  0  0  0  0  0  0  0  0  0  0
   -4.8591    8.8345   -7.4800 H   0  0  0  0  0  0  0  0  0  0  0  0
   -4.8473    9.5673   -9.1200 H   0  0  0  0  0  0  0  0  0  0  0  0
   -4.6981   14.3639   -6.0034 H   0  0  0  0  0  0  0  0  0  0  0  0
   -0.3895   12.9643   -6.6059 H   0  0  0  0  0  0  0  0  0  0  0  0
   -0.7026   11.2076   -6.4002 H   0  0  0  0  0  0  0  0  0  0  0  0
   -0.6910   11.9314   -8.0442 H   0  0  0  0  0  0  0  0  0  0  0  0
  1  2  2  0  0  0  0
  1  4  1  0  0  0  0
  1 13  1  0  0  0  0
  2  6  1  0  0  0  0
  3  4  2  0  0  0  0
  3  5  1  0  0  0  0
  5  6  2  0  0  0  0
  5  9  1  0  0  0  0
  6  7  1  0  0  0  0
  7  8  1  0  0  0  0
  7 10  2  3  0  0  0
  8  9  2  0  0  0  0
 10 15  1  0  0  0  0
 11 12  1  0  0  0  0
 11 13  2  0  0  0  0
 13 14  1  0  0  0  0
 15 16  1  0  0  0  0
 15 20  1  0  0  0  0
 16 17  2  0  0  0  0
 17 18  1  0  0  0  0
 17 21  1  0  0  0  0
 18 19  2  0  0  0  0
 18 23  1  0  0  0  0
 19 20  1  0  0  0  0
 21 22  2  0  0  0  0
 22 23  1  0  0  0  0
 23 24  1  0  0  0  0
  2 25  1  0  0  0  0
  3 26  1  0  0  0  0
  4 27  1  0  0  0  0
 10 28  1  0  0  0  0
 12 29  1  0  0  0  0
 12 30  1  0  0  0  0
 12 31  1  0  0  0  0
 14 32  1  0  0  0  0
 15 33  1  0  0  0  0
 16 34  1  0  0  0  0
 19 35  1  0  0  0  0
 20 36  1  0  0  0  0
 20 37  1  0  0  0  0
 21 38  1  0  0  0  0
 24 39  1  0  0  0  0
 24 40  1  0  0  0  0
 24 41  1  0  0  0  0
M  END
> <Name>
18

> <IC50[uM]>
0.01

$$$$
18
  -OEChem-05192314333D
 Structure written by MMmdl.
 41 44  0     1  0  0  0  0  0999 V2000
   -6.3808   12.3686  -12.0119 C   0  0  0  0  0  0  0  0  0  0  0  0
   -6.5112   11.8116  -10.7365 C   0  0  0  0  0  0  0  0  0  0  0  0
   -7.7301   10.5824  -13.0300 C   0  0  0  0  0  0  0  0  0  0  0  0
   -6.9992   11.7782  -13.1263 C   0  0  0  0  0  0  0  0  0  0  0  0
   -7.8250   10.0166  -11.7542 C   0  0  0  0  0  0  0  0  0  0  0  0
   -7.2407   10.6266  -10.6010 C   0  0  0  0  0  0  0  0  0  0  0  0
   -7.6094    9.7513   -9.5103 C   0  0  3  0  0  0  0  0  0  0  0  0
   -8.2849    8.7404   -9.9846 N   0  0  0  0  0  0  0  0  0  0  0  0
   -8.4192    8.8674  -11.2983 N   0  0  0  0  0  0  0  0  0  0  0  0
   -7.3225    9.8872   -8.0242 C   0  0  0  0  0  0  0  0  0  0  0  0
   -4.3834   13.6199  -11.4933 N   0  0  0  0  0  0  0  0  0  0  0  0
   -3.4237   14.7282  -11.5789 C   0  0  0  0  0  0  0  0  0  0  0  0
   -5.5369   13.6139  -12.1980 C   0  0  0  0  0  0  0  0  0  0  0  0
   -5.8771   14.5161  -12.9653 O   0  0  0  0  0  0  0  0  0  0  0  0
   -5.9516   10.5005   -7.7272 C   0  0  0  0  0  0  0  0  0  0  0  0
   -5.8803   11.7722   -7.1539 C   0  0  0  0  0  0  0  0  0  0  0  0
   -4.6129   12.3159   -6.9118 C   0  0  0  0  0  0  0  0  0  0  0  0
   -3.4418   11.5625   -7.2429 C   0  0  0  0  0  0  0  0  0  0  0  0
   -3.5059   10.2842   -7.8062 C   0  0  0  0  0  0  0  0  0  0  0  0
   -4.7935    9.7780   -8.0417 C   0  0  0  0  0  0  0  0  0  0  0  0
   -4.0936   13.5458   -6.3664 C   0  0  0  0  0  0  0  0  0  0  0  0
   -2.7885   13.5288   -6.3742 N   0  0  0  0  0  0  0  0  0  0  0  0
   -2.3831   12.3683   -6.8823 N   0  0  0  0  0  0  0  0  0  0  0  0
   -0.9539   12.1016   -6.9897 C   0  0  0  0  0  0  0  0  0  0  0  0
   -6.0597   12.2849   -9.8771 H   0  0  0  0  0  0  0  0  0  0  0  0
   -8.1927   10.1256  -13.8924 H   0  0  0  0  0  0  0  0  0  0  0  0
   -6.9098   12.2595  -14.0890 H   0  0  0  0  0  0  0  0  0  0  0  0
   -6.6727    9.1898   -9.6417 H   0  0  0  0  0  0  0  0  0  0  0  0
   -8.0161    9.5818   -7.2548 H   0  0  0  0  0  0  0  0  0  0  0  0
   -2.5640   14.5209  -10.9247 H   0  0  0  0  0  0  0  0  0  0  0  0
   -3.0770   14.8334  -12.6175 H   0  0  0  0  0  0  0  0  0  0  0  0
   -3.9113   15.6608  -11.2589 H   0  0  0  0  0  0  0  0  0  0  0  0
   -5.2270   15.2086  -12.9486 H   0  0  0  0  0  0  0  0  0  0  0  0
   -6.7769   12.3203   -6.9046 H   0  0  0  0  0  0  0  0  0  0  0  0
   -2.6169    9.7197   -8.0459 H   0  0  0  0  0  0  0  0  0  0  0  0
   -4.8591    8.8345   -7.4800 H   0  0  0  0  0  0  0  0  0  0  0  0
   -4.8473    9.5673   -9.1200 H   0  0  0  0  0  0  0  0  0  0  0  0
   -4.6981   14.3639   -6.0034 H   0  0  0  0  0  0  0  0  0  0  0  0
   -0.3895   12.9643   -6.6059 H   0  0  0  0  0  0  0  0  0  0  0  0
   -0.7026   11.2076   -6.4002 H   0  0  0  0  0  0  0  0  0  0  0  0
   -0.6910   11.9314   -8.0442 H   0  0  0  0  0  0  0  0  0  0  0  0
  1  2  2  0  0  0  0
  1  4  1  0  0  0  0
  1 13  1  0  0  0  0
  2  6  1  0  0  0  0
  3  4  2  0  0  0  0
  3  5  1  0  0  0  0
  5  6  2  0  0  0  0
  5  9  1  0  0  0  0
  6  7  1  0  0  0  0
  7  8  1  0  0  0  0
  7 10  1  0  0  0  0
  8  9  2  0  0  0  0
 10 15  2  3  0  0  0
 11 12  1  0  0  0  0
 11 13  2  0  0  0  0
 13 14  1  0  0  0  0
 15 16  1  0  0  0  0
 15 20  1  0  0  0  0
 16 17  2  0  0  0  0
 17 18  1  0  0  0  0
 17 21  1  0  0  0  0
 18 19  2  0  0  0  0
 18 23  1  0  0  0  0
 19 20  1  0  0  0  0
 21 22  2  0  0  0  0
 22 23  1  0  0  0  0
 23 24  1  0  0  0  0
  2 25  1  0  0  0  0
  3 26  1  0  0  0  0
  4 27  1  0  0  0  0
  7 28  1  0  0  0  0
 10 29  1  0  0  0  0
 12 30  1  0  0  0  0
 12 31  1  0  0  0  0
 12 32  1  0  0  0  0
 14 33  1  0  0  0  0
 16 34  1  0  0  0  0
 19 35  1  0  0  0  0
 20 36  1  0  0  0  0
 20 37  1  0  0  0  0
 21 38  1  0  0  0  0
 24 39  1  0  0  0  0
 24 40  1  0  0  0  0
 24 41  1  0  0  0  0
M  END
> <Name>
18

> <IC50[uM]>
0.01

$$$$
18
  -OEChem-05192314333D
 Structure written by MMmdl.
 41 44  0     1  0  0  0  0  0999 V2000
   -6.3808   12.3686  -12.0119 C   0  0  3  0  0  0  0  0  0  0  0  0
   -6.5112   11.8116  -10.7365 C   0  0  0  0  0  0  0  0  0  0  0  0
   -7.7301   10.5824  -13.0300 C   0  0  0  0  0  0  0  0  0  0  0  0
   -6.9992   11.7782  -13.1263 C   0  0  0  0  0  0  0  0  0  0  0  0
   -7.8250   10.0166  -11.7542 C   0  0  0  0  0  0  0  0  0  0  0  0
   -7.2407   10.6266  -10.6010 C   0  0  0  0  0  0  0  0  0  0  0  0
   -7.6094    9.7513   -9.5103 C   0  0  0  0  0  0  0  0  0  0  0  0
   -8.2849    8.7404   -9.9846 N   0  0  0  0  0  0  0  0  0  0  0  0
   -8.4192    8.8674  -11.2983 N   0  0  0  0  0  0  0  0  0  0  0  0
   -7.3225    9.8872   -8.0242 C   0  0  0  0  0  0  0  0  0  0  0  0
   -4.3834   13.6199  -11.4933 N   0  0  0  0  0  0  0  0  0  0  0  0
   -3.4237   14.7282  -11.5789 C   0  0  0  0  0  0  0  0  0  0  0  0
   -5.5369   13.6139  -12.1980 C   0  0  0  0  0  0  0  0  0  0  0  0
   -5.8771   14.5161  -12.9653 O   0  0  0  0  0  0  0  0  0  0  0  0
   -5.9516   10.5005   -7.7272 C   0  0  0  0  0  0  0  0  0  0  0  0
   -5.8803   11.7722   -7.1539 C   0  0  0  0  0  0  0  0  0  0  0  0
   -4.6129   12.3159   -6.9118 C   0  0  0  0  0  0  0  0  0  0  0  0
   -3.4418   11.5625   -7.2429 C   0  0  0  0  0  0  0  0  0  0  0  0
   -3.5059   10.2842   -7.8062 C   0  0  0  0  0  0  0  0  0  0  0  0
   -4.7935    9.7780   -8.0417 C   0  0  0  0  0  0  0  0  0  0  0  0
   -4.0936   13.5458   -6.3664 C   0  0  0  0  0  0  0  0  0  0  0  0
   -2.7885   13.5288   -6.3742 N   0  0  0  0  0  0  0  0  0  0  0  0
   -2.3831   12.3683   -6.8823 N   0  0  0  0  0  0  0  0  0  0  0  0
   -0.9539   12.1016   -6.9897 C   0  0  0  0  0  0  0  0  0  0  0  0
   -7.2714   12.9905  -11.8387 H   0  0  0  0  0  0  0  0  0  0  0  0
   -6.0597   12.2849   -9.8771 H   0  0  0  0  0  0  0  0  0  0  0  0
   -8.1927   10.1256  -13.8924 H   0  0  0  0  0  0  0  0  0  0  0  0
   -6.9098   12.2595  -14.0890 H   0  0  0  0  0  0  0  0  0  0  0  0
   -8.0964   10.5278   -7.5761 H   0  0  0  0  0  0  0  0  0  0  0  0
   -7.3644    8.8874   -7.5674 H   0  0  0  0  0  0  0  0  0  0  0  0
   -4.1771   12.8456  -10.8951 H   0  0  0  0  0  0  0  0  0  0  0  0
   -2.5640   14.5209  -10.9247 H   0  0  0  0  0  0  0  0  0  0  0  0
   -3.0770   14.8334  -12.6175 H   0  0  0  0  0  0  0  0  0  0  0  0
   -3.9113   15.6608  -11.2589 H   0  0  0  0  0  0  0  0  0  0  0  0
   -6.7769   12.3203   -6.9046 H   0  0  0  0  0  0  0  0  0  0  0  0
   -2.6169    9.7197   -8.0459 H   0  0  0  0  0  0  0  0  0  0  0  0
   -4.8951    8.7966   -8.4810 H   0  0  0  0  0  0  0  0  0  0  0  0
   -4.6981   14.3639   -6.0034 H   0  0  0  0  0  0  0  0  0  0  0  0
   -0.3895   12.9643   -6.6059 H   0  0  0  0  0  0  0  0  0  0  0  0
   -0.7026   11.2076   -6.4002 H   0  0  0  0  0  0  0  0  0  0  0  0
   -0.6910   11.9314   -8.0442 H   0  0  0  0  0  0  0  0  0  0  0  0
  1  2  1  0  0  0  0
  1  4  1  0  0  0  0
  1 13  1  0  0  0  0
  2  6  2  0  0  0  0
  3  4  2  0  0  0  0
  3  5  1  0  0  0  0
  5  6  1  0  0  0  0
  5  9  2  0  0  0  0
  6  7  1  0  0  0  0
  7  8  2  0  0  0  0
  7 10  1  0  0  0  0
  8  9  1  0  0  0  0
 10 15  1  0  0  0  0
 11 12  1  0  0  0  0
 11 13  1  0  0  0  0
 13 14  2  0  0  0  0
 15 16  2  0  0  0  0
 15 20  1  0  0  0  0
 16 17  1  0  0  0  0
 17 18  2  0  0  0  0
 17 21  1  0  0  0  0
 18 19  1  0  0  0  0
 18 23  1  0  0  0  0
 19 20  2  0  0  0  0
 21 22  2  0  0  0  0
 22 23  1  0  0  0  0
 23 24  1  0  0  0  0
  1 25  1  0  0  0  0
  2 26  1  0  0  0  0
  3 27  1  0  0  0  0
  4 28  1  0  0  0  0
 10 29  1  0  0  0  0
 10 30  1  0  0  0  0
 11 31  1  0  0  0  0
 12 32  1  0  0  0  0
 12 33  1  0  0  0  0
 12 34  1  0  0  0  0
 16 35  1  0  0  0  0
 19 36  1  0  0  0  0
 20 37  1  0  0  0  0
 21 38  1  0  0  0  0
 24 39  1  0  0  0  0
 24 40  1  0  0  0  0
 24 41  1  0  0  0  0
M  END
> <Name>
18

> <IC50[uM]>
0.01

$$$$
18
  -OEChem-05192314333D
 Structure written by MMmdl.
 41 44  0     1  0  0  0  0  0999 V2000
   -6.3808   12.3686  -12.0119 C   0  0  0  0  0  0  0  0  0  0  0  0
   -6.5112   11.8116  -10.7365 C   0  0  0  0  0  0  0  0  0  0  0  0
   -7.7301   10.5824  -13.0300 C   0  0  0  0  0  0  0  0  0  0  0  0
   -6.9992   11.7782  -13.1263 C   0  0  0  0  0  0  0  0  0  0  0  0
   -7.8250   10.0166  -11.7542 C   0  0  0  0  0  0  0  0  0  0  0  0
   -7.2407   10.6266  -10.6010 C   0  0  3  0  0  0  0  0  0  0  0  0
   -7.6094    9.7513   -9.5103 C   0  0  0  0  0  0  0  0  0  0  0  0
   -8.2849    8.7404   -9.9846 N   0  0  0  0  0  0  0  0  0  0  0  0
   -8.4192    8.8674  -11.2983 N   0  0  0  0  0  0  0  0  0  0  0  0
   -7.3225    9.8872   -8.0242 C   0  0  0  0  0  0  0  0  0  0  0  0
   -4.3834   13.6199  -11.4933 N   0  0  0  0  0  0  0  0  0  0  0  0
   -3.4237   14.7282  -11.5789 C   0  0  0  0  0  0  0  0  0  0  0  0
   -5.5369   13.6139  -12.1980 C   0  0  0  0  0  0  0  0  0  0  0  0
   -5.8771   14.5161  -12.9653 O   0  0  0  0  0  0  0  0  0  0  0  0
   -5.9516   10.5005   -7.7272 C   0  0  0  0  0  0  0  0  0  0  0  0
   -5.8803   11.7722   -7.1539 C   0  0  0  0  0  0  0  0  0  0  0  0
   -4.6129   12.3159   -6.9118 C   0  0  0  0  0  0  0  0  0  0  0  0
   -3.4418   11.5625   -7.2429 C   0  0  0  0  0  0  0  0  0  0  0  0
   -3.5059   10.2842   -7.8062 C   0  0  0  0  0  0  0  0  0  0  0  0
   -4.7935    9.7780   -8.0417 C   0  0  0  0  0  0  0  0  0  0  0  0
   -4.0936   13.5458   -6.3664 C   0  0  0  0  0  0  0  0  0  0  0  0
   -2.7885   13.5288   -6.3742 N   0  0  0  0  0  0  0  0  0  0  0  0
   -2.3831   12.3683   -6.8823 N   0  0  0  0  0  0  0  0  0  0  0  0
   -0.9539   12.1016   -6.9897 C   0  0  0  0  0  0  0  0  0  0  0  0
   -6.0597   12.2849   -9.8771 H   0  0  0  0  0  0  0  0  0  0  0  0
   -8.1927   10.1256  -13.8924 H   0  0  0  0  0  0  0  0  0  0  0  0
   -6.9098   12.2595  -14.0890 H   0  0  0  0  0  0  0  0  0  0  0  0
   -8.1598   11.2101  -10.4437 H   0  0  0  0  0  0  0  0  0  0  0  0
   -8.0964   10.5278   -7.5761 H   0  0  0  0  0  0  0  0  0  0  0  0
   -7.3644    8.8874   -7.5674 H   0  0  0  0  0  0  0  0  0  0  0  0
   -4.1771   12.8456  -10.8951 H   0  0  0  0  0  0  0  0  0  0  0  0
   -2.5640   14.5209  -10.9247 H   0  0  0  0  0  0  0  0  0  0  0  0
   -3.0770   14.8334  -12.6175 H   0  0  0  0  0  0  0  0  0  0  0  0
   -3.9113   15.6608  -11.2589 H   0  0  0  0  0  0  0  0  0  0  0  0
   -6.7769   12.3203   -6.9046 H   0  0  0  0  0  0  0  0  0  0  0  0
   -2.6169    9.7197   -8.0459 H   0  0  0  0  0  0  0  0  0  0  0  0
   -4.8951    8.7966   -8.4810 H   0  0  0  0  0  0  0  0  0  0  0  0
   -4.6981   14.3639   -6.0034 H   0  0  0  0  0  0  0  0  0  0  0  0
   -0.3895   12.9643   -6.6059 H   0  0  0  0  0  0  0  0  0  0  0  0
   -0.7026   11.2076   -6.4002 H   0  0  0  0  0  0  0  0  0  0  0  0
   -0.6910   11.9314   -8.0442 H   0  0  0  0  0  0  0  0  0  0  0  0
  1  2  2  0  0  0  0
  1  4  1  0  0  0  0
  1 13  1  0  0  0  0
  2  6  1  0  0  0  0
  3  4  2  0  0  0  0
  3  5  1  0  0  0  0
  5  6  1  0  0  0  0
  5  9  2  0  0  0  0
  6  7  1  0  0  0  0
  7  8  2  0  0  0  0
  7 10  1  0  0  0  0
  8  9  1  0  0  0  0
 10 15  1  0  0  0  0
 11 12  1  0  0  0  0
 11 13  1  0  0  0  0
 13 14  2  0  0  0  0
 15 16  2  0  0  0  0
 15 20  1  0  0  0  0
 16 17  1  0  0  0  0
 17 18  2  0  0  0  0
 17 21  1  0  0  0  0
 18 19  1  0  0  0  0
 18 23  1  0  0  0  0
 19 20  2  0  0  0  0
 21 22  2  0  0  0  0
 22 23  1  0  0  0  0
 23 24  1  0  0  0  0
  2 25  1  0  0  0  0
  3 26  1  0  0  0  0
  4 27  1  0  0  0  0
  6 28  1  0  0  0  0
 10 29  1  0  0  0  0
 10 30  1  0  0  0  0
 11 31  1  0  0  0  0
 12 32  1  0  0  0  0
 12 33  1  0  0  0  0
 12 34  1  0  0  0  0
 16 35  1  0  0  0  0
 19 36  1  0  0  0  0
 20 37  1  0  0  0  0
 21 38  1  0  0  0  0
 24 39  1  0  0  0  0
 24 40  1  0  0  0  0
 24 41  1  0  0  0  0
M  END
> <Name>
18

> <IC50[uM]>
0.01

$$$$
18
  -OEChem-05192314333D
 Structure written by MMmdl.
 41 44  0     0  0  0  0  0  0999 V2000
   -6.3808   12.3686  -12.0119 C   0  0  0  0  0  0  0  0  0  0  0  0
   -6.5112   11.8116  -10.7365 C   0  0  0  0  0  0  0  0  0  0  0  0
   -7.7301   10.5824  -13.0300 C   0  0  0  0  0  0  0  0  0  0  0  0
   -6.9992   11.7782  -13.1263 C   0  0  0  0  0  0  0  0  0  0  0  0
   -7.8250   10.0166  -11.7542 C   0  0  0  0  0  0  0  0  0  0  0  0
   -7.2407   10.6266  -10.6010 C   0  0  0  0  0  0  0  0  0  0  0  0
   -7.6094    9.7513   -9.5103 C   0  0  0  0  0  0  0  0  0  0  0  0
   -8.2849    8.7404   -9.9846 N   0  0  0  0  0  0  0  0  0  0  0  0
   -8.4192    8.8674  -11.2983 N   0  0  0  0  0  0  0  0  0  0  0  0
   -7.3225    9.8872   -8.0242 C   0  0  0  0  0  0  0  0  0  0  0  0
   -4.3834   13.6199  -11.4933 N   0  0  0  0  0  0  0  0  0  0  0  0
   -3.4237   14.7282  -11.5789 C   0  0  0  0  0  0  0  0  0  0  0  0
   -5.5369   13.6139  -12.1980 C   0  0  0  0  0  0  0  0  0  0  0  0
   -5.8771   14.5161  -12.9653 O   0  0  0  0  0  0  0  0  0  0  0  0
   -5.9516   10.5005   -7.7272 C   0  0  0  0  0  0  0  0  0  0  0  0
   -5.8803   11.7722   -7.1539 C   0  0  0  0  0  0  0  0  0  0  0  0
   -4.6129   12.3159   -6.9118 C   0  0  0  0  0  0  0  0  0  0  0  0
   -3.4418   11.5625   -7.2429 C   0  0  0  0  0  0  0  0  0  0  0  0
   -3.5059   10.2842   -7.8062 C   0  0  0  0  0  0  0  0  0  0  0  0
   -4.7935    9.7780   -8.0417 C   0  0  0  0  0  0  0  0  0  0  0  0
   -4.0936   13.5458   -6.3664 C   0  0  0  0  0  0  0  0  0  0  0  0
   -2.7885   13.5288   -6.3742 N   0  0  0  0  0  0  0  0  0  0  0  0
   -2.3831   12.3683   -6.8823 N   0  0  0  0  0  0  0  0  0  0  0  0
   -0.9539   12.1016   -6.9897 C   0  0  0  0  0  0  0  0  0  0  0  0
   -6.0597   12.2849   -9.8771 H   0  0  0  0  0  0  0  0  0  0  0  0
   -8.7517   10.7843  -13.3842 H   0  0  0  0  0  0  0  0  0  0  0  0
   -7.2525    9.8433  -13.6900 H   0  0  0  0  0  0  0  0  0  0  0  0
   -6.9098   12.2595  -14.0890 H   0  0  0  0  0  0  0  0  0  0  0  0
   -8.0964   10.5278   -7.5761 H   0  0  0  0  0  0  0  0  0  0  0  0
   -7.3644    8.8874   -7.5674 H   0  0  0  0  0  0  0  0  0  0  0  0
   -4.1771   12.8456  -10.8951 H   0  0  0  0  0  0  0  0  0  0  0  0
   -2.5640   14.5209  -10.9247 H   0  0  0  0  0  0  0  0  0  0  0  0
   -3.0770   14.8334  -12.6175 H   0  0  0  0  0  0  0  0  0  0  0  0
   -3.9113   15.6608  -11.2589 H   0  0  0  0  0  0  0  0  0  0  0  0
   -6.7769   12.3203   -6.9046 H   0  0  0  0  0  0  0  0  0  0  0  0
   -2.6169    9.7197   -8.0459 H   0  0  0  0  0  0  0  0  0  0  0  0
   -4.8951    8.7966   -8.4810 H   0  0  0  0  0  0  0  0  0  0  0  0
   -4.6981   14.3639   -6.0034 H   0  0  0  0  0  0  0  0  0  0  0  0
   -0.3895   12.9643   -6.6059 H   0  0  0  0  0  0  0  0  0  0  0  0
   -0.7026   11.2076   -6.4002 H   0  0  0  0  0  0  0  0  0  0  0  0
   -0.6910   11.9314   -8.0442 H   0  0  0  0  0  0  0  0  0  0  0  0
  1  2  1  0  0  0  0
  1  4  2  0  0  0  0
  1 13  1  0  0  0  0
  2  6  2  0  0  0  0
  3  4  1  0  0  0  0
  3  5  1  0  0  0  0
  5  6  1  0  0  0  0
  5  9  2  0  0  0  0
  6  7  1  0  0  0  0
  7  8  2  0  0  0  0
  7 10  1  0  0  0  0
  8  9  1  0  0  0  0
 10 15  1  0  0  0  0
 11 12  1  0  0  0  0
 11 13  1  0  0  0  0
 13 14  2  0  0  0  0
 15 16  2  0  0  0  0
 15 20  1  0  0  0  0
 16 17  1  0  0  0  0
 17 18  2  0  0  0  0
 17 21  1  0  0  0  0
 18 19  1  0  0  0  0
 18 23  1  0  0  0  0
 19 20  2  0  0  0  0
 21 22  2  0  0  0  0
 22 23  1  0  0  0  0
 23 24  1  0  0  0  0
  2 25  1  0  0  0  0
  3 26  1  0  0  0  0
  3 27  1  0  0  0  0
  4 28  1  0  0  0  0
 10 29  1  0  0  0  0
 10 30  1  0  0  0  0
 11 31  1  0  0  0  0
 12 32  1  0  0  0  0
 12 33  1  0  0  0  0
 12 34  1  0  0  0  0
 16 35  1  0  0  0  0
 19 36  1  0  0  0  0
 20 37  1  0  0  0  0
 21 38  1  0  0  0  0
 24 39  1  0  0  0  0
 24 40  1  0  0  0  0
 24 41  1  0  0  0  0
M  END
> <Name>
18

> <IC50[uM]>
0.01

$$$$
18
  -OEChem-05192314333D
 Structure written by MMmdl.
 41 44  0     1  0  0  0  0  0999 V2000
   -6.3808   12.3686  -12.0119 C   0  0  3  0  0  0  0  0  0  0  0  0
   -6.5112   11.8116  -10.7365 C   0  0  0  0  0  0  0  0  0  0  0  0
   -7.7301   10.5824  -13.0300 C   0  0  0  0  0  0  0  0  0  0  0  0
   -6.9992   11.7782  -13.1263 C   0  0  0  0  0  0  0  0  0  0  0  0
   -7.8250   10.0166  -11.7542 C   0  0  0  0  0  0  0  0  0  0  0  0
   -7.2407   10.6266  -10.6010 C   0  0  0  0  0  0  0  0  0  0  0  0
   -7.6094    9.7513   -9.5103 C   0  0  0  0  0  0  0  0  0  0  0  0
   -8.2849    8.7404   -9.9846 N   0  0  0  0  0  0  0  0  0  0  0  0
   -8.4192    8.8674  -11.2983 N   0  0  0  0  0  0  0  0  0  0  0  0
   -7.3225    9.8872   -8.0242 C   0  0  0  0  0  0  0  0  0  0  0  0
   -4.3834   13.6199  -11.4933 N   0  0  0  0  0  0  0  0  0  0  0  0
   -3.4237   14.7282  -11.5789 C   0  0  0  0  0  0  0  0  0  0  0  0
   -5.5369   13.6139  -12.1980 C   0  0  0  0  0  0  0  0  0  0  0  0
   -5.8771   14.5161  -12.9653 O   0  0  0  0  0  0  0  0  0  0  0  0
   -5.9516   10.5005   -7.7272 C   0  0  0  0  0  0  0  0  0  0  0  0
   -5.8803   11.7722   -7.1539 C   0  0  0  0  0  0  0  0  0  0  0  0
   -4.6129   12.3159   -6.9118 C   0  0  0  0  0  0  0  0  0  0  0  0
   -3.4418   11.5625   -7.2429 C   0  0  0  0  0  0  0  0  0  0  0  0
   -3.5059   10.2842   -7.8062 C   0  0  0  0  0  0  0  0  0  0  0  0
   -4.7935    9.7780   -8.0417 C   0  0  0  0  0  0  0  0  0  0  0  0
   -4.0936   13.5458   -6.3664 C   0  0  0  0  0  0  0  0  0  0  0  0
   -2.7885   13.5288   -6.3742 N   0  0  0  0  0  0  0  0  0  0  0  0
   -2.3831   12.3683   -6.8823 N   0  0  0  0  0  0  0  0  0  0  0  0
   -0.9539   12.1016   -6.9897 C   0  0  0  0  0  0  0  0  0  0  0  0
   -7.2714   12.9905  -11.8387 H   0  0  0  0  0  0  0  0  0  0  0  0
   -6.0597   12.2849   -9.8771 H   0  0  0  0  0  0  0  0  0  0  0  0
   -8.1927   10.1256  -13.8924 H   0  0  0  0  0  0  0  0  0  0  0  0
   -6.9098   12.2595  -14.0890 H   0  0  0  0  0  0  0  0  0  0  0  0
   -8.0964   10.5278   -7.5761 H   0  0  0  0  0  0  0  0  0  0  0  0
   -7.3644    8.8874   -7.5674 H   0  0  0  0  0  0  0  0  0  0  0  0
   -2.5640   14.5209  -10.9247 H   0  0  0  0  0  0  0  0  0  0  0  0
   -3.0770   14.8334  -12.6175 H   0  0  0  0  0  0  0  0  0  0  0  0
   -3.9113   15.6608  -11.2589 H   0  0  0  0  0  0  0  0  0  0  0  0
   -5.2270   15.2086  -12.9486 H   0  0  0  0  0  0  0  0  0  0  0  0
   -6.7769   12.3203   -6.9046 H   0  0  0  0  0  0  0  0  0  0  0  0
   -2.6169    9.7197   -8.0459 H   0  0  0  0  0  0  0  0  0  0  0  0
   -4.8951    8.7966   -8.4810 H   0  0  0  0  0  0  0  0  0  0  0  0
   -4.6981   14.3639   -6.0034 H   0  0  0  0  0  0  0  0  0  0  0  0
   -0.3895   12.9643   -6.6059 H   0  0  0  0  0  0  0  0  0  0  0  0
   -0.7026   11.2076   -6.4002 H   0  0  0  0  0  0  0  0  0  0  0  0
   -0.6910   11.9314   -8.0442 H   0  0  0  0  0  0  0  0  0  0  0  0
  1  2  1  0  0  0  0
  1  4  1  0  0  0  0
  1 13  1  0  0  0  0
  2  6  2  0  0  0  0
  3  4  2  0  0  0  0
  3  5  1  0  0  0  0
  5  6  1  0  0  0  0
  5  9  2  0  0  0  0
  6  7  1  0  0  0  0
  7  8  2  0  0  0  0
  7 10  1  0  0  0  0
  8  9  1  0  0  0  0
 10 15  1  0  0  0  0
 11 12  1  0  0  0  0
 11 13  2  0  0  0  0
 13 14  1  0  0  0  0
 15 16  2  0  0  0  0
 15 20  1  0  0  0  0
 16 17  1  0  0  0  0
 17 18  2  0  0  0  0
 17 21  1  0  0  0  0
 18 19  1  0  0  0  0
 18 23  1  0  0  0  0
 19 20  2  0  0  0  0
 21 22  2  0  0  0  0
 22 23  1  0  0  0  0
 23 24  1  0  0  0  0
  1 25  1  0  0  0  0
  2 26  1  0  0  0  0
  3 27  1  0  0  0  0
  4 28  1  0  0  0  0
 10 29  1  0  0  0  0
 10 30  1  0  0  0  0
 12 31  1  0  0  0  0
 12 32  1  0  0  0  0
 12 33  1  0  0  0  0
 14 34  1  0  0  0  0
 16 35  1  0  0  0  0
 19 36  1  0  0  0  0
 20 37  1  0  0  0  0
 21 38  1  0  0  0  0
 24 39  1  0  0  0  0
 24 40  1  0  0  0  0
 24 41  1  0  0  0  0
M  END
> <Name>
18

> <IC50[uM]>
0.01

$$$$
18
  -OEChem-05192314333D
 Structure written by MMmdl.
 41 44  0     1  0  0  0  0  0999 V2000
   -6.3808   12.3686  -12.0119 C   0  0  0  0  0  0  0  0  0  0  0  0
   -6.5112   11.8116  -10.7365 C   0  0  0  0  0  0  0  0  0  0  0  0
   -7.7301   10.5824  -13.0300 C   0  0  0  0  0  0  0  0  0  0  0  0
   -6.9992   11.7782  -13.1263 C   0  0  0  0  0  0  0  0  0  0  0  0
   -7.8250   10.0166  -11.7542 C   0  0  0  0  0  0  0  0  0  0  0  0
   -7.2407   10.6266  -10.6010 C   0  0  3  0  0  0  0  0  0  0  0  0
   -7.6094    9.7513   -9.5103 C   0  0  0  0  0  0  0  0  0  0  0  0
   -8.2849    8.7404   -9.9846 N   0  0  0  0  0  0  0  0  0  0  0  0
   -8.4192    8.8674  -11.2983 N   0  0  0  0  0  0  0  0  0  0  0  0
   -7.3225    9.8872   -8.0242 C   0  0  0  0  0  0  0  0  0  0  0  0
   -4.3834   13.6199  -11.4933 N   0  0  0  0  0  0  0  0  0  0  0  0
   -3.4237   14.7282  -11.5789 C   0  0  0  0  0  0  0  0  0  0  0  0
   -5.5369   13.6139  -12.1980 C   0  0  0  0  0  0  0  0  0  0  0  0
   -5.8771   14.5161  -12.9653 O   0  0  0  0  0  0  0  0  0  0  0  0
   -5.9516   10.5005   -7.7272 C   0  0  0  0  0  0  0  0  0  0  0  0
   -5.8803   11.7722   -7.1539 C   0  0  0  0  0  0  0  0  0  0  0  0
   -4.6129   12.3159   -6.9118 C   0  0  0  0  0  0  0  0  0  0  0  0
   -3.4418   11.5625   -7.2429 C   0  0  0  0  0  0  0  0  0  0  0  0
   -3.5059   10.2842   -7.8062 C   0  0  0  0  0  0  0  0  0  0  0  0
   -4.7935    9.7780   -8.0417 C   0  0  0  0  0  0  0  0  0  0  0  0
   -4.0936   13.5458   -6.3664 C   0  0  0  0  0  0  0  0  0  0  0  0
   -2.7885   13.5288   -6.3742 N   0  0  0  0  0  0  0  0  0  0  0  0
   -2.3831   12.3683   -6.8823 N   0  0  0  0  0  0  0  0  0  0  0  0
   -0.9539   12.1016   -6.9897 C   0  0  0  0  0  0  0  0  0  0  0  0
   -6.0597   12.2849   -9.8771 H   0  0  0  0  0  0  0  0  0  0  0  0
   -8.1927   10.1256  -13.8924 H   0  0  0  0  0  0  0  0  0  0  0  0
   -6.9098   12.2595  -14.0890 H   0  0  0  0  0  0  0  0  0  0  0  0
   -8.1598   11.2101  -10.4437 H   0  0  0  0  0  0  0  0  0  0  0  0
   -8.0964   10.5278   -7.5761 H   0  0  0  0  0  0  0  0  0  0  0  0
   -7.3644    8.8874   -7.5674 H   0  0  0  0  0  0  0  0  0  0  0  0
   -2.5640   14.5209  -10.9247 H   0  0  0  0  0  0  0  0  0  0  0  0
   -3.0770   14.8334  -12.6175 H   0  0  0  0  0  0  0  0  0  0  0  0
   -3.9113   15.6608  -11.2589 H   0  0  0  0  0  0  0  0  0  0  0  0
   -5.2270   15.2086  -12.9486 H   0  0  0  0  0  0  0  0  0  0  0  0
   -6.7769   12.3203   -6.9046 H   0  0  0  0  0  0  0  0  0  0  0  0
   -2.6169    9.7197   -8.0459 H   0  0  0  0  0  0  0  0  0  0  0  0
   -4.8951    8.7966   -8.4810 H   0  0  0  0  0  0  0  0  0  0  0  0
   -4.6981   14.3639   -6.0034 H   0  0  0  0  0  0  0  0  0  0  0  0
   -0.3895   12.9643   -6.6059 H   0  0  0  0  0  0  0  0  0  0  0  0
   -0.7026   11.2076   -6.4002 H   0  0  0  0  0  0  0  0  0  0  0  0
   -0.6910   11.9314   -8.0442 H   0  0  0  0  0  0  0  0  0  0  0  0
  1  2  2  0  0  0  0
  1  4  1  0  0  0  0
  1 13  1  0  0  0  0
  2  6  1  0  0  0  0
  3  4  2  0  0  0  0
  3  5  1  0  0  0  0
  5  6  1  0  0  0  0
  5  9  2  0  0  0  0
  6  7  1  0  0  0  0
  7  8  2  0  0  0  0
  7 10  1  0  0  0  0
  8  9  1  0  0  0  0
 10 15  1  0  0  0  0
 11 12  1  0  0  0  0
 11 13  2  0  0  0  0
 13 14  1  0  0  0  0
 15 16  2  0  0  0  0
 15 20  1  0  0  0  0
 16 17  1  0  0  0  0
 17 18  2  0  0  0  0
 17 21  1  0  0  0  0
 18 19  1  0  0  0  0
 18 23  1  0  0  0  0
 19 20  2  0  0  0  0
 21 22  2  0  0  0  0
 22 23  1  0  0  0  0
 23 24  1  0  0  0  0
  2 25  1  0  0  0  0
  3 26  1  0  0  0  0
  4 27  1  0  0  0  0
  6 28  1  0  0  0  0
 10 29  1  0  0  0  0
 10 30  1  0  0  0  0
 12 31  1  0  0  0  0
 12 32  1  0  0  0  0
 12 33  1  0  0  0  0
 14 34  1  0  0  0  0
 16 35  1  0  0  0  0
 19 36  1  0  0  0  0
 20 37  1  0  0  0  0
 21 38  1  0  0  0  0
 24 39  1  0  0  0  0
 24 40  1  0  0  0  0
 24 41  1  0  0  0  0
M  END
> <Name>
18

> <IC50[uM]>
0.01

$$$$
18
  -OEChem-05192314333D
 Structure written by MMmdl.
 41 44  0     0  0  0  0  0  0999 V2000
   -6.3808   12.3686  -12.0119 C   0  0  0  0  0  0  0  0  0  0  0  0
   -6.5112   11.8116  -10.7365 C   0  0  0  0  0  0  0  0  0  0  0  0
   -7.7301   10.5824  -13.0300 C   0  0  0  0  0  0  0  0  0  0  0  0
   -6.9992   11.7782  -13.1263 C   0  0  0  0  0  0  0  0  0  0  0  0
   -7.8250   10.0166  -11.7542 C   0  0  0  0  0  0  0  0  0  0  0  0
   -7.2407   10.6266  -10.6010 C   0  0  0  0  0  0  0  0  0  0  0  0
   -7.6094    9.7513   -9.5103 C   0  0  0  0  0  0  0  0  0  0  0  0
   -8.2849    8.7404   -9.9846 N   0  0  0  0  0  0  0  0  0  0  0  0
   -8.4192    8.8674  -11.2983 N   0  0  0  0  0  0  0  0  0  0  0  0
   -7.3225    9.8872   -8.0242 C   0  0  0  0  0  0  0  0  0  0  0  0
   -4.3834   13.6199  -11.4933 N   0  0  0  0  0  0  0  0  0  0  0  0
   -3.4237   14.7282  -11.5789 C   0  0  0  0  0  0  0  0  0  0  0  0
   -5.5369   13.6139  -12.1980 C   0  0  0  0  0  0  0  0  0  0  0  0
   -5.8771   14.5161  -12.9653 O   0  0  0  0  0  0  0  0  0  0  0  0
   -5.9516   10.5005   -7.7272 C   0  0  0  0  0  0  0  0  0  0  0  0
   -5.8803   11.7722   -7.1539 C   0  0  0  0  0  0  0  0  0  0  0  0
   -4.6129   12.3159   -6.9118 C   0  0  0  0  0  0  0  0  0  0  0  0
   -3.4418   11.5625   -7.2429 C   0  0  0  0  0  0  0  0  0  0  0  0
   -3.5059   10.2842   -7.8062 C   0  0  0  0  0  0  0  0  0  0  0  0
   -4.7935    9.7780   -8.0417 C   0  0  0  0  0  0  0  0  0  0  0  0
   -4.0936   13.5458   -6.3664 C   0  0  0  0  0  0  0  0  0  0  0  0
   -2.7885   13.5288   -6.3742 N   0  0  0  0  0  0  0  0  0  0  0  0
   -2.3831   12.3683   -6.8823 N   0  0  0  0  0  0  0  0  0  0  0  0
   -0.9539   12.1016   -6.9897 C   0  0  0  0  0  0  0  0  0  0  0  0
   -6.0597   12.2849   -9.8771 H   0  0  0  0  0  0  0  0  0  0  0  0
   -8.7517   10.7843  -13.3842 H   0  0  0  0  0  0  0  0  0  0  0  0
   -7.2525    9.8433  -13.6900 H   0  0  0  0  0  0  0  0  0  0  0  0
   -6.9098   12.2595  -14.0890 H   0  0  0  0  0  0  0  0  0  0  0  0
   -8.0964   10.5278   -7.5761 H   0  0  0  0  0  0  0  0  0  0  0  0
   -7.3644    8.8874   -7.5674 H   0  0  0  0  0  0  0  0  0  0  0  0
   -2.5640   14.5209  -10.9247 H   0  0  0  0  0  0  0  0  0  0  0  0
   -3.0770   14.8334  -12.6175 H   0  0  0  0  0  0  0  0  0  0  0  0
   -3.9113   15.6608  -11.2589 H   0  0  0  0  0  0  0  0  0  0  0  0
   -5.2270   15.2086  -12.9486 H   0  0  0  0  0  0  0  0  0  0  0  0
   -6.7769   12.3203   -6.9046 H   0  0  0  0  0  0  0  0  0  0  0  0
   -2.6169    9.7197   -8.0459 H   0  0  0  0  0  0  0  0  0  0  0  0
   -4.8951    8.7966   -8.4810 H   0  0  0  0  0  0  0  0  0  0  0  0
   -4.6981   14.3639   -6.0034 H   0  0  0  0  0  0  0  0  0  0  0  0
   -0.3895   12.9643   -6.6059 H   0  0  0  0  0  0  0  0  0  0  0  0
   -0.7026   11.2076   -6.4002 H   0  0  0  0  0  0  0  0  0  0  0  0
   -0.6910   11.9314   -8.0442 H   0  0  0  0  0  0  0  0  0  0  0  0
  1  2  1  0  0  0  0
  1  4  2  0  0  0  0
  1 13  1  0  0  0  0
  2  6  2  0  0  0  0
  3  4  1  0  0  0  0
  3  5  1  0  0  0  0
  5  6  1  0  0  0  0
  5  9  2  0  0  0  0
  6  7  1  0  0  0  0
  7  8  2  0  0  0  0
  7 10  1  0  0  0  0
  8  9  1  0  0  0  0
 10 15  1  0  0  0  0
 11 12  1  0  0  0  0
 11 13  2  0  0  0  0
 13 14  1  0  0  0  0
 15 16  2  0  0  0  0
 15 20  1  0  0  0  0
 16 17  1  0  0  0  0
 17 18  2  0  0  0  0
 17 21  1  0  0  0  0
 18 19  1  0  0  0  0
 18 23  1  0  0  0  0
 19 20  2  0  0  0  0
 21 22  2  0  0  0  0
 22 23  1  0  0  0  0
 23 24  1  0  0  0  0
  2 25  1  0  0  0  0
  3 26  1  0  0  0  0
  3 27  1  0  0  0  0
  4 28  1  0  0  0  0
 10 29  1  0  0  0  0
 10 30  1  0  0  0  0
 12 31  1  0  0  0  0
 12 32  1  0  0  0  0
 12 33  1  0  0  0  0
 14 34  1  0  0  0  0
 16 35  1  0  0  0  0
 19 36  1  0  0  0  0
 20 37  1  0  0  0  0
 21 38  1  0  0  0  0
 24 39  1  0  0  0  0
 24 40  1  0  0  0  0
 24 41  1  0  0  0  0
M  END
> <Name>
18

> <IC50[uM]>
0.01

$$$$
18
  -OEChem-05192314333D
 Structure written by MMmdl.
 41 44  0     1  0  0  0  0  0999 V2000
   -6.3808   12.3686  -12.0119 C   0  0  3  0  0  0  0  0  0  0  0  0
   -6.5112   11.8116  -10.7365 C   0  0  0  0  0  0  0  0  0  0  0  0
   -7.7301   10.5824  -13.0300 C   0  0  0  0  0  0  0  0  0  0  0  0
   -6.9992   11.7782  -13.1263 C   0  0  0  0  0  0  0  0  0  0  0  0
   -7.8250   10.0166  -11.7542 C   0  0  3  0  0  0  0  0  0  0  0  0
   -7.2407   10.6266  -10.6010 C   0  0  0  0  0  0  0  0  0  0  0  0
   -7.6094    9.7513   -9.5103 C   0  0  0  0  0  0  0  0  0  0  0  0
   -8.2849    8.7404   -9.9846 N   0  0  0  0  0  0  0  0  0  0  0  0
   -8.4192    8.8674  -11.2983 N   0  0  0  0  0  0  0  0  0  0  0  0
   -7.3225    9.8872   -8.0242 C   0  0  0  0  0  0  0  0  0  0  0  0
   -4.3834   13.6199  -11.4933 N   0  0  0  0  0  0  0  0  0  0  0  0
   -3.4237   14.7282  -11.5789 C   0  0  0  0  0  0  0  0  0  0  0  0
   -5.5369   13.6139  -12.1980 C   0  0  0  0  0  0  0  0  0  0  0  0
   -5.8771   14.5161  -12.9653 O   0  0  0  0  0  0  0  0  0  0  0  0
   -5.9516   10.5005   -7.7272 C   0  0  0  0  0  0  0  0  0  0  0  0
   -5.8803   11.7722   -7.1539 C   0  0  0  0  0  0  0  0  0  0  0  0
   -4.6129   12.3159   -6.9118 C   0  0  0  0  0  0  0  0  0  0  0  0
   -3.4418   11.5625   -7.2429 C   0  0  0  0  0  0  0  0  0  0  0  0
   -3.5059   10.2842   -7.8062 C   0  0  0  0  0  0  0  0  0  0  0  0
   -4.7935    9.7780   -8.0417 C   0  0  0  0  0  0  0  0  0  0  0  0
   -4.0936   13.5458   -6.3664 C   0  0  0  0  0  0  0  0  0  0  0  0
   -2.7885   13.5288   -6.3742 N   0  0  0  0  0  0  0  0  0  0  0  0
   -2.3831   12.3683   -6.8823 N   0  0  0  0  0  0  0  0  0  0  0  0
   -0.9539   12.1016   -6.9897 C   0  0  0  0  0  0  0  0  0  0  0  0
   -7.2714   12.9905  -11.8387 H   0  0  0  0  0  0  0  0  0  0  0  0
   -6.0597   12.2849   -9.8771 H   0  0  0  0  0  0  0  0  0  0  0  0
   -8.1927   10.1256  -13.8924 H   0  0  0  0  0  0  0  0  0  0  0  0
   -6.9098   12.2595  -14.0890 H   0  0  0  0  0  0  0  0  0  0  0  0
   -8.7581   10.5712  -11.5763 H   0  0  0  0  0  0  0  0  0  0  0  0
   -8.0161    9.5818   -7.2548 H   0  0  0  0  0  0  0  0  0  0  0  0
   -4.1771   12.8456  -10.8951 H   0  0  0  0  0  0  0  0  0  0  0  0
   -2.5640   14.5209  -10.9247 H   0  0  0  0  0  0  0  0  0  0  0  0
   -3.0770   14.8334  -12.6175 H   0  0  0  0  0  0  0  0  0  0  0  0
   -3.9113   15.6608  -11.2589 H   0  0  0  0  0  0  0  0  0  0  0  0
   -6.7769   12.3203   -6.9046 H   0  0  0  0  0  0  0  0  0  0  0  0
   -2.6169    9.7197   -8.0459 H   0  0  0  0  0  0  0  0  0  0  0  0
   -4.8951    8.7966   -8.4810 H   0  0  0  0  0  0  0  0  0  0  0  0
   -4.6981   14.3639   -6.0034 H   0  0  0  0  0  0  0  0  0  0  0  0
   -0.3895   12.9643   -6.6059 H   0  0  0  0  0  0  0  0  0  0  0  0
   -0.7026   11.2076   -6.4002 H   0  0  0  0  0  0  0  0  0  0  0  0
   -0.6910   11.9314   -8.0442 H   0  0  0  0  0  0  0  0  0  0  0  0
  1  2  1  0  0  0  0
  1  4  1  0  0  0  0
  1 13  1  0  0  0  0
  2  6  2  0  0  0  0
  3  4  2  0  0  0  0
  3  5  1  0  0  0  0
  5  6  1  0  0  0  0
  5  9  1  0  0  0  0
  6  7  1  0  0  0  0
  7  8  1  0  0  0  0
  7 10  2  3  0  0  0
  8  9  2  0  0  0  0
 10 15  1  0  0  0  0
 11 12  1  0  0  0  0
 11 13  1  0  0  0  0
 13 14  2  0  0  0  0
 15 16  2  0  0  0  0
 15 20  1  0  0  0  0
 16 17  1  0  0  0  0
 17 18  2  0  0  0  0
 17 21  1  0  0  0  0
 18 19  1  0  0  0  0
 18 23  1  0  0  0  0
 19 20  2  0  0  0  0
 21 22  2  0  0  0  0
 22 23  1  0  0  0  0
 23 24  1  0  0  0  0
  1 25  1  0  0  0  0
  2 26  1  0  0  0  0
  3 27  1  0  0  0  0
  4 28  1  0  0  0  0
  5 29  1  0  0  0  0
 10 30  1  0  0  0  0
 11 31  1  0  0  0  0
 12 32  1  0  0  0  0
 12 33  1  0  0  0  0
 12 34  1  0  0  0  0
 16 35  1  0  0  0  0
 19 36  1  0  0  0  0
 20 37  1  0  0  0  0
 21 38  1  0  0  0  0
 24 39  1  0  0  0  0
 24 40  1  0  0  0  0
 24 41  1  0  0  0  0
M  END
> <Name>
18

> <IC50[uM]>
0.01

$$$$
18
  -OEChem-05192314333D
 Structure written by MMmdl.
 41 44  0     1  0  0  0  0  0999 V2000
   -6.3808   12.3686  -12.0119 C   0  0  0  0  0  0  0  0  0  0  0  0
   -6.5112   11.8116  -10.7365 C   0  0  0  0  0  0  0  0  0  0  0  0
   -7.7301   10.5824  -13.0300 C   0  0  0  0  0  0  0  0  0  0  0  0
   -6.9992   11.7782  -13.1263 C   0  0  0  0  0  0  0  0  0  0  0  0
   -7.8250   10.0166  -11.7542 C   0  0  3  0  0  0  0  0  0  0  0  0
   -7.2407   10.6266  -10.6010 C   0  0  3  0  0  0  0  0  0  0  0  0
   -7.6094    9.7513   -9.5103 C   0  0  0  0  0  0  0  0  0  0  0  0
   -8.2849    8.7404   -9.9846 N   0  0  0  0  0  0  0  0  0  0  0  0
   -8.4192    8.8674  -11.2983 N   0  0  0  0  0  0  0  0  0  0  0  0
   -7.3225    9.8872   -8.0242 C   0  0  0  0  0  0  0  0  0  0  0  0
   -4.3834   13.6199  -11.4933 N   0  0  0  0  0  0  0  0  0  0  0  0
   -3.4237   14.7282  -11.5789 C   0  0  0  0  0  0  0  0  0  0  0  0
   -5.5369   13.6139  -12.1980 C   0  0  0  0  0  0  0  0  0  0  0  0
   -5.8771   14.5161  -12.9653 O   0  0  0  0  0  0  0  0  0  0  0  0
   -5.9516   10.5005   -7.7272 C   0  0  0  0  0  0  0  0  0  0  0  0
   -5.8803   11.7722   -7.1539 C   0  0  0  0  0  0  0  0  0  0  0  0
   -4.6129   12.3159   -6.9118 C   0  0  0  0  0  0  0  0  0  0  0  0
   -3.4418   11.5625   -7.2429 C   0  0  0  0  0  0  0  0  0  0  0  0
   -3.5059   10.2842   -7.8062 C   0  0  0  0  0  0  0  0  0  0  0  0
   -4.7935    9.7780   -8.0417 C   0  0  0  0  0  0  0  0  0  0  0  0
   -4.0936   13.5458   -6.3664 C   0  0  0  0  0  0  0  0  0  0  0  0
   -2.7885   13.5288   -6.3742 N   0  0  0  0  0  0  0  0  0  0  0  0
   -2.3831   12.3683   -6.8823 N   0  0  0  0  0  0  0  0  0  0  0  0
   -0.9539   12.1016   -6.9897 C   0  0  0  0  0  0  0  0  0  0  0  0
   -6.0597   12.2849   -9.8771 H   0  0  0  0  0  0  0  0  0  0  0  0
   -8.1927   10.1256  -13.8924 H   0  0  0  0  0  0  0  0  0  0  0  0
   -6.9098   12.2595  -14.0890 H   0  0  0  0  0  0  0  0  0  0  0  0
   -8.7581   10.5712  -11.5763 H   0  0  0  0  0  0  0  0  0  0  0  0
   -8.1598   11.2101  -10.4437 H   0  0  0  0  0  0  0  0  0  0  0  0
   -8.0161    9.5818   -7.2548 H   0  0  0  0  0  0  0  0  0  0  0  0
   -4.1771   12.8456  -10.8951 H   0  0  0  0  0  0  0  0  0  0  0  0
   -2.5640   14.5209  -10.9247 H   0  0  0  0  0  0  0  0  0  0  0  0
   -3.0770   14.8334  -12.6175 H   0  0  0  0  0  0  0  0  0  0  0  0
   -3.9113   15.6608  -11.2589 H   0  0  0  0  0  0  0  0  0  0  0  0
   -6.7769   12.3203   -6.9046 H   0  0  0  0  0  0  0  0  0  0  0  0
   -2.6169    9.7197   -8.0459 H   0  0  0  0  0  0  0  0  0  0  0  0
   -4.8951    8.7966   -8.4810 H   0  0  0  0  0  0  0  0  0  0  0  0
   -4.6981   14.3639   -6.0034 H   0  0  0  0  0  0  0  0  0  0  0  0
   -0.3895   12.9643   -6.6059 H   0  0  0  0  0  0  0  0  0  0  0  0
   -0.7026   11.2076   -6.4002 H   0  0  0  0  0  0  0  0  0  0  0  0
   -0.6910   11.9314   -8.0442 H   0  0  0  0  0  0  0  0  0  0  0  0
  1  2  2  0  0  0  0
  1  4  1  0  0  0  0
  1 13  1  0  0  0  0
  2  6  1  0  0  0  0
  3  4  2  0  0  0  0
  3  5  1  0  0  0  0
  5  6  1  0  0  0  0
  5  9  1  0  0  0  0
  6  7  1  0  0  0  0
  7  8  1  0  0  0  0
  7 10  2  3  0  0  0
  8  9  2  0  0  0  0
 10 15  1  0  0  0  0
 11 12  1  0  0  0  0
 11 13  1  0  0  0  0
 13 14  2  0  0  0  0
 15 16  2  0  0  0  0
 15 20  1  0  0  0  0
 16 17  1  0  0  0  0
 17 18  2  0  0  0  0
 17 21  1  0  0  0  0
 18 19  1  0  0  0  0
 18 23  1  0  0  0  0
 19 20  2  0  0  0  0
 21 22  2  0  0  0  0
 22 23  1  0  0  0  0
 23 24  1  0  0  0  0
  2 25  1  0  0  0  0
  3 26  1  0  0  0  0
  4 27  1  0  0  0  0
  5 28  1  0  0  0  0
  6 29  1  0  0  0  0
 10 30  1  0  0  0  0
 11 31  1  0  0  0  0
 12 32  1  0  0  0  0
 12 33  1  0  0  0  0
 12 34  1  0  0  0  0
 16 35  1  0  0  0  0
 19 36  1  0  0  0  0
 20 37  1  0  0  0  0
 21 38  1  0  0  0  0
 24 39  1  0  0  0  0
 24 40  1  0  0  0  0
 24 41  1  0  0  0  0
M  END
> <Name>
18

> <IC50[uM]>
0.01

$$$$
18
  -OEChem-05192314333D
 Structure written by MMmdl.
 41 44  0     1  0  0  0  0  0999 V2000
   -6.3808   12.3686  -12.0119 C   0  0  0  0  0  0  0  0  0  0  0  0
   -6.5112   11.8116  -10.7365 C   0  0  0  0  0  0  0  0  0  0  0  0
   -7.7301   10.5824  -13.0300 C   0  0  0  0  0  0  0  0  0  0  0  0
   -6.9992   11.7782  -13.1263 C   0  0  0  0  0  0  0  0  0  0  0  0
   -7.8250   10.0166  -11.7542 C   0  0  3  0  0  0  0  0  0  0  0  0
   -7.2407   10.6266  -10.6010 C   0  0  0  0  0  0  0  0  0  0  0  0
   -7.6094    9.7513   -9.5103 C   0  0  0  0  0  0  0  0  0  0  0  0
   -8.2849    8.7404   -9.9846 N   0  0  0  0  0  0  0  0  0  0  0  0
   -8.4192    8.8674  -11.2983 N   0  0  0  0  0  0  0  0  0  0  0  0
   -7.3225    9.8872   -8.0242 C   0  0  0  0  0  0  0  0  0  0  0  0
   -4.3834   13.6199  -11.4933 N   0  0  0  0  0  0  0  0  0  0  0  0
   -3.4237   14.7282  -11.5789 C   0  0  0  0  0  0  0  0  0  0  0  0
   -5.5369   13.6139  -12.1980 C   0  0  0  0  0  0  0  0  0  0  0  0
   -5.8771   14.5161  -12.9653 O   0  0  0  0  0  0  0  0  0  0  0  0
   -5.9516   10.5005   -7.7272 C   0  0  0  0  0  0  0  0  0  0  0  0
   -5.8803   11.7722   -7.1539 C   0  0  0  0  0  0  0  0  0  0  0  0
   -4.6129   12.3159   -6.9118 C   0  0  0  0  0  0  0  0  0  0  0  0
   -3.4418   11.5625   -7.2429 C   0  0  0  0  0  0  0  0  0  0  0  0
   -3.5059   10.2842   -7.8062 C   0  0  0  0  0  0  0  0  0  0  0  0
   -4.7935    9.7780   -8.0417 C   0  0  0  0  0  0  0  0  0  0  0  0
   -4.0936   13.5458   -6.3664 C   0  0  0  0  0  0  0  0  0  0  0  0
   -2.7885   13.5288   -6.3742 N   0  0  0  0  0  0  0  0  0  0  0  0
   -2.3831   12.3683   -6.8823 N   0  0  0  0  0  0  0  0  0  0  0  0
   -0.9539   12.1016   -6.9897 C   0  0  0  0  0  0  0  0  0  0  0  0
   -6.0597   12.2849   -9.8771 H   0  0  0  0  0  0  0  0  0  0  0  0
   -8.7517   10.7843  -13.3842 H   0  0  0  0  0  0  0  0  0  0  0  0
   -7.2525    9.8433  -13.6900 H   0  0  0  0  0  0  0  0  0  0  0  0
   -6.9098   12.2595  -14.0890 H   0  0  0  0  0  0  0  0  0  0  0  0
   -8.7581   10.5712  -11.5763 H   0  0  0  0  0  0  0  0  0  0  0  0
   -8.0161    9.5818   -7.2548 H   0  0  0  0  0  0  0  0  0  0  0  0
   -4.1771   12.8456  -10.8951 H   0  0  0  0  0  0  0  0  0  0  0  0
   -2.5640   14.5209  -10.9247 H   0  0  0  0  0  0  0  0  0  0  0  0
   -3.0770   14.8334  -12.6175 H   0  0  0  0  0  0  0  0  0  0  0  0
   -3.9113   15.6608  -11.2589 H   0  0  0  0  0  0  0  0  0  0  0  0
   -6.7769   12.3203   -6.9046 H   0  0  0  0  0  0  0  0  0  0  0  0
   -2.6169    9.7197   -8.0459 H   0  0  0  0  0  0  0  0  0  0  0  0
   -4.8951    8.7966   -8.4810 H   0  0  0  0  0  0  0  0  0  0  0  0
   -4.6981   14.3639   -6.0034 H   0  0  0  0  0  0  0  0  0  0  0  0
   -0.3895   12.9643   -6.6059 H   0  0  0  0  0  0  0  0  0  0  0  0
   -0.7026   11.2076   -6.4002 H   0  0  0  0  0  0  0  0  0  0  0  0
   -0.6910   11.9314   -8.0442 H   0  0  0  0  0  0  0  0  0  0  0  0
  1  2  1  0  0  0  0
  1  4  2  0  0  0  0
  1 13  1  0  0  0  0
  2  6  2  0  0  0  0
  3  4  1  0  0  0  0
  3  5  1  0  0  0  0
  5  6  1  0  0  0  0
  5  9  1  0  0  0  0
  6  7  1  0  0  0  0
  7  8  1  0  0  0  0
  7 10  2  3  0  0  0
  8  9  2  0  0  0  0
 10 15  1  0  0  0  0
 11 12  1  0  0  0  0
 11 13  1  0  0  0  0
 13 14  2  0  0  0  0
 15 16  2  0  0  0  0
 15 20  1  0  0  0  0
 16 17  1  0  0  0  0
 17 18  2  0  0  0  0
 17 21  1  0  0  0  0
 18 19  1  0  0  0  0
 18 23  1  0  0  0  0
 19 20  2  0  0  0  0
 21 22  2  0  0  0  0
 22 23  1  0  0  0  0
 23 24  1  0  0  0  0
  2 25  1  0  0  0  0
  3 26  1  0  0  0  0
  3 27  1  0  0  0  0
  4 28  1  0  0  0  0
  5 29  1  0  0  0  0
 10 30  1  0  0  0  0
 11 31  1  0  0  0  0
 12 32  1  0  0  0  0
 12 33  1  0  0  0  0
 12 34  1  0  0  0  0
 16 35  1  0  0  0  0
 19 36  1  0  0  0  0
 20 37  1  0  0  0  0
 21 38  1  0  0  0  0
 24 39  1  0  0  0  0
 24 40  1  0  0  0  0
 24 41  1  0  0  0  0
M  END
> <Name>
18

> <IC50[uM]>
0.01

$$$$
18
  -OEChem-05192314333D
 Structure written by MMmdl.
 41 44  0     1  0  0  0  0  0999 V2000
   -6.3808   12.3686  -12.0119 C   0  0  3  0  0  0  0  0  0  0  0  0
   -6.5112   11.8116  -10.7365 C   0  0  0  0  0  0  0  0  0  0  0  0
   -7.7301   10.5824  -13.0300 C   0  0  0  0  0  0  0  0  0  0  0  0
   -6.9992   11.7782  -13.1263 C   0  0  0  0  0  0  0  0  0  0  0  0
   -7.8250   10.0166  -11.7542 C   0  0  0  0  0  0  0  0  0  0  0  0
   -7.2407   10.6266  -10.6010 C   0  0  0  0  0  0  0  0  0  0  0  0
   -7.6094    9.7513   -9.5103 C   0  0  0  0  0  0  0  0  0  0  0  0
   -8.2849    8.7404   -9.9846 N   0  0  0  0  0  0  0  0  0  0  0  0
   -8.4192    8.8674  -11.2983 N   0  0  0  0  0  0  0  0  0  0  0  0
   -7.3225    9.8872   -8.0242 C   0  0  0  0  0  0  0  0  0  0  0  0
   -4.3834   13.6199  -11.4933 N   0  0  0  0  0  0  0  0  0  0  0  0
   -3.4237   14.7282  -11.5789 C   0  0  0  0  0  0  0  0  0  0  0  0
   -5.5369   13.6139  -12.1980 C   0  0  0  0  0  0  0  0  0  0  0  0
   -5.8771   14.5161  -12.9653 O   0  0  0  0  0  0  0  0  0  0  0  0
   -5.9516   10.5005   -7.7272 C   0  0  0  0  0  0  0  0  0  0  0  0
   -5.8803   11.7722   -7.1539 C   0  0  0  0  0  0  0  0  0  0  0  0
   -4.6129   12.3159   -6.9118 C   0  0  0  0  0  0  0  0  0  0  0  0
   -3.4418   11.5625   -7.2429 C   0  0  0  0  0  0  0  0  0  0  0  0
   -3.5059   10.2842   -7.8062 C   0  0  0  0  0  0  0  0  0  0  0  0
   -4.7935    9.7780   -8.0417 C   0  0  0  0  0  0  0  0  0  0  0  0
   -4.0936   13.5458   -6.3664 C   0  0  0  0  0  0  0  0  0  0  0  0
   -2.7885   13.5288   -6.3742 N   0  0  0  0  0  0  0  0  0  0  0  0
   -2.3831   12.3683   -6.8823 N   0  0  0  0  0  0  0  0  0  0  0  0
   -0.9539   12.1016   -6.9897 C   0  0  0  0  0  0  0  0  0  0  0  0
   -7.2714   12.9905  -11.8387 H   0  0  0  0  0  0  0  0  0  0  0  0
   -6.0597   12.2849   -9.8771 H   0  0  0  0  0  0  0  0  0  0  0  0
   -8.1927   10.1256  -13.8924 H   0  0  0  0  0  0  0  0  0  0  0  0
   -7.6938   12.5312  -13.5268 H   0  0  0  0  0  0  0  0  0  0  0  0
   -6.1994   11.5912  -13.8580 H   0  0  0  0  0  0  0  0  0  0  0  0
   -8.0161    9.5818   -7.2548 H   0  0  0  0  0  0  0  0  0  0  0  0
   -4.1771   12.8456  -10.8951 H   0  0  0  0  0  0  0  0  0  0  0  0
   -2.5640   14.5209  -10.9247 H   0  0  0  0  0  0  0  0  0  0  0  0
   -3.0770   14.8334  -12.6175 H   0  0  0  0  0  0  0  0  0  0  0  0
   -3.9113   15.6608  -11.2589 H   0  0  0  0  0  0  0  0  0  0  0  0
   -6.7769   12.3203   -6.9046 H   0  0  0  0  0  0  0  0  0  0  0  0
   -2.6169    9.7197   -8.0459 H   0  0  0  0  0  0  0  0  0  0  0  0
   -4.8951    8.7966   -8.4810 H   0  0  0  0  0  0  0  0  0  0  0  0
   -4.6981   14.3639   -6.0034 H   0  0  0  0  0  0  0  0  0  0  0  0
   -0.3895   12.9643   -6.6059 H   0  0  0  0  0  0  0  0  0  0  0  0
   -0.7026   11.2076   -6.4002 H   0  0  0  0  0  0  0  0  0  0  0  0
   -0.6910   11.9314   -8.0442 H   0  0  0  0  0  0  0  0  0  0  0  0
  1  2  1  0  0  0  0
  1  4  1  0  0  0  0
  1 13  1  0  0  0  0
  2  6  2  0  0  0  0
  3  4  1  0  0  0  0
  3  5  2  0  0  0  0
  5  6  1  0  0  0  0
  5  9  1  0  0  0  0
  6  7  1  0  0  0  0
  7  8  1  0  0  0  0
  7 10  2  3  0  0  0
  8  9  2  0  0  0  0
 10 15  1  0  0  0  0
 11 12  1  0  0  0  0
 11 13  1  0  0  0  0
 13 14  2  0  0  0  0
 15 16  2  0  0  0  0
 15 20  1  0  0  0  0
 16 17  1  0  0  0  0
 17 18  2  0  0  0  0
 17 21  1  0  0  0  0
 18 19  1  0  0  0  0
 18 23  1  0  0  0  0
 19 20  2  0  0  0  0
 21 22  2  0  0  0  0
 22 23  1  0  0  0  0
 23 24  1  0  0  0  0
  1 25  1  0  0  0  0
  2 26  1  0  0  0  0
  3 27  1  0  0  0  0
  4 28  1  0  0  0  0
  4 29  1  0  0  0  0
 10 30  1  0  0  0  0
 11 31  1  0  0  0  0
 12 32  1  0  0  0  0
 12 33  1  0  0  0  0
 12 34  1  0  0  0  0
 16 35  1  0  0  0  0
 19 36  1  0  0  0  0
 20 37  1  0  0  0  0
 21 38  1  0  0  0  0
 24 39  1  0  0  0  0
 24 40  1  0  0  0  0
 24 41  1  0  0  0  0
M  END
> <Name>
18

> <IC50[uM]>
0.01

$$$$
18
  -OEChem-05192314333D
 Structure written by MMmdl.
 41 44  0     1  0  0  0  0  0999 V2000
   -6.3808   12.3686  -12.0119 C   0  0  0  0  0  0  0  0  0  0  0  0
   -6.5112   11.8116  -10.7365 C   0  0  0  0  0  0  0  0  0  0  0  0
   -7.7301   10.5824  -13.0300 C   0  0  0  0  0  0  0  0  0  0  0  0
   -6.9992   11.7782  -13.1263 C   0  0  0  0  0  0  0  0  0  0  0  0
   -7.8250   10.0166  -11.7542 C   0  0  0  0  0  0  0  0  0  0  0  0
   -7.2407   10.6266  -10.6010 C   0  0  3  0  0  0  0  0  0  0  0  0
   -7.6094    9.7513   -9.5103 C   0  0  0  0  0  0  0  0  0  0  0  0
   -8.2849    8.7404   -9.9846 N   0  0  0  0  0  0  0  0  0  0  0  0
   -8.4192    8.8674  -11.2983 N   0  0  0  0  0  0  0  0  0  0  0  0
   -7.3225    9.8872   -8.0242 C   0  0  0  0  0  0  0  0  0  0  0  0
   -4.3834   13.6199  -11.4933 N   0  0  0  0  0  0  0  0  0  0  0  0
   -3.4237   14.7282  -11.5789 C   0  0  0  0  0  0  0  0  0  0  0  0
   -5.5369   13.6139  -12.1980 C   0  0  0  0  0  0  0  0  0  0  0  0
   -5.8771   14.5161  -12.9653 O   0  0  0  0  0  0  0  0  0  0  0  0
   -5.9516   10.5005   -7.7272 C   0  0  0  0  0  0  0  0  0  0  0  0
   -5.8803   11.7722   -7.1539 C   0  0  0  0  0  0  0  0  0  0  0  0
   -4.6129   12.3159   -6.9118 C   0  0  0  0  0  0  0  0  0  0  0  0
   -3.4418   11.5625   -7.2429 C   0  0  0  0  0  0  0  0  0  0  0  0
   -3.5059   10.2842   -7.8062 C   0  0  0  0  0  0  0  0  0  0  0  0
   -4.7935    9.7780   -8.0417 C   0  0  0  0  0  0  0  0  0  0  0  0
   -4.0936   13.5458   -6.3664 C   0  0  0  0  0  0  0  0  0  0  0  0
   -2.7885   13.5288   -6.3742 N   0  0  0  0  0  0  0  0  0  0  0  0
   -2.3831   12.3683   -6.8823 N   0  0  0  0  0  0  0  0  0  0  0  0
   -0.9539   12.1016   -6.9897 C   0  0  0  0  0  0  0  0  0  0  0  0
   -6.0597   12.2849   -9.8771 H   0  0  0  0  0  0  0  0  0  0  0  0
   -8.1927   10.1256  -13.8924 H   0  0  0  0  0  0  0  0  0  0  0  0
   -7.6938   12.5312  -13.5268 H   0  0  0  0  0  0  0  0  0  0  0  0
   -6.1994   11.5912  -13.8580 H   0  0  0  0  0  0  0  0  0  0  0  0
   -8.1598   11.2101  -10.4437 H   0  0  0  0  0  0  0  0  0  0  0  0
   -8.0161    9.5818   -7.2548 H   0  0  0  0  0  0  0  0  0  0  0  0
   -4.1771   12.8456  -10.8951 H   0  0  0  0  0  0  0  0  0  0  0  0
   -2.5640   14.5209  -10.9247 H   0  0  0  0  0  0  0  0  0  0  0  0
   -3.0770   14.8334  -12.6175 H   0  0  0  0  0  0  0  0  0  0  0  0
   -3.9113   15.6608  -11.2589 H   0  0  0  0  0  0  0  0  0  0  0  0
   -6.7769   12.3203   -6.9046 H   0  0  0  0  0  0  0  0  0  0  0  0
   -2.6169    9.7197   -8.0459 H   0  0  0  0  0  0  0  0  0  0  0  0
   -4.8951    8.7966   -8.4810 H   0  0  0  0  0  0  0  0  0  0  0  0
   -4.6981   14.3639   -6.0034 H   0  0  0  0  0  0  0  0  0  0  0  0
   -0.3895   12.9643   -6.6059 H   0  0  0  0  0  0  0  0  0  0  0  0
   -0.7026   11.2076   -6.4002 H   0  0  0  0  0  0  0  0  0  0  0  0
   -0.6910   11.9314   -8.0442 H   0  0  0  0  0  0  0  0  0  0  0  0
  1  2  2  0  0  0  0
  1  4  1  0  0  0  0
  1 13  1  0  0  0  0
  2  6  1  0  0  0  0
  3  4  1  0  0  0  0
  3  5  2  0  0  0  0
  5  6  1  0  0  0  0
  5  9  1  0  0  0  0
  6  7  1  0  0  0  0
  7  8  1  0  0  0  0
  7 10  2  3  0  0  0
  8  9  2  0  0  0  0
 10 15  1  0  0  0  0
 11 12  1  0  0  0  0
 11 13  1  0  0  0  0
 13 14  2  0  0  0  0
 15 16  2  0  0  0  0
 15 20  1  0  0  0  0
 16 17  1  0  0  0  0
 17 18  2  0  0  0  0
 17 21  1  0  0  0  0
 18 19  1  0  0  0  0
 18 23  1  0  0  0  0
 19 20  2  0  0  0  0
 21 22  2  0  0  0  0
 22 23  1  0  0  0  0
 23 24  1  0  0  0  0
  2 25  1  0  0  0  0
  3 26  1  0  0  0  0
  4 27  1  0  0  0  0
  4 28  1  0  0  0  0
  6 29  1  0  0  0  0
 10 30  1  0  0  0  0
 11 31  1  0  0  0  0
 12 32  1  0  0  0  0
 12 33  1  0  0  0  0
 12 34  1  0  0  0  0
 16 35  1  0  0  0  0
 19 36  1  0  0  0  0
 20 37  1  0  0  0  0
 21 38  1  0  0  0  0
 24 39  1  0  0  0  0
 24 40  1  0  0  0  0
 24 41  1  0  0  0  0
M  END
> <Name>
18

> <IC50[uM]>
0.01

$$$$
18
  -OEChem-05192314333D
 Structure written by MMmdl.
 41 44  0     0  0  0  0  0  0999 V2000
   -6.3808   12.3686  -12.0119 C   0  0  0  0  0  0  0  0  0  0  0  0
   -6.5112   11.8116  -10.7365 C   0  0  0  0  0  0  0  0  0  0  0  0
   -7.7301   10.5824  -13.0300 C   0  0  0  0  0  0  0  0  0  0  0  0
   -6.9992   11.7782  -13.1263 C   0  0  0  0  0  0  0  0  0  0  0  0
   -7.8250   10.0166  -11.7542 C   0  0  0  0  0  0  0  0  0  0  0  0
   -7.2407   10.6266  -10.6010 C   0  0  0  0  0  0  0  0  0  0  0  0
   -7.6094    9.7513   -9.5103 C   0  0  0  0  0  0  0  0  0  0  0  0
   -8.2849    8.7404   -9.9846 N   0  0  0  0  0  0  0  0  0  0  0  0
   -8.4192    8.8674  -11.2983 N   0  0  0  0  0  0  0  0  0  0  0  0
   -7.3225    9.8872   -8.0242 C   0  0  0  0  0  0  0  0  0  0  0  0
   -4.3834   13.6199  -11.4933 N   0  0  0  0  0  0  0  0  0  0  0  0
   -3.4237   14.7282  -11.5789 C   0  0  0  0  0  0  0  0  0  0  0  0
   -5.5369   13.6139  -12.1980 C   0  0  0  0  0  0  0  0  0  0  0  0
   -5.8771   14.5161  -12.9653 O   0  0  0  0  0  0  0  0  0  0  0  0
   -5.9516   10.5005   -7.7272 C   0  0  0  0  0  0  0  0  0  0  0  0
   -5.8803   11.7722   -7.1539 C   0  0  0  0  0  0  0  0  0  0  0  0
   -4.6129   12.3159   -6.9118 C   0  0  0  0  0  0  0  0  0  0  0  0
   -3.4418   11.5625   -7.2429 C   0  0  0  0  0  0  0  0  0  0  0  0
   -3.5059   10.2842   -7.8062 C   0  0  0  0  0  0  0  0  0  0  0  0
   -4.7935    9.7780   -8.0417 C   0  0  0  0  0  0  0  0  0  0  0  0
   -4.0936   13.5458   -6.3664 C   0  0  0  0  0  0  0  0  0  0  0  0
   -2.7885   13.5288   -6.3742 N   0  0  0  0  0  0  0  0  0  0  0  0
   -2.3831   12.3683   -6.8823 N   0  0  0  0  0  0  0  0  0  0  0  0
   -0.9539   12.1016   -6.9897 C   0  0  0  0  0  0  0  0  0  0  0  0
   -6.0597   12.2849   -9.8771 H   0  0  0  0  0  0  0  0  0  0  0  0
   -8.7517   10.7843  -13.3842 H   0  0  0  0  0  0  0  0  0  0  0  0
   -7.2525    9.8433  -13.6900 H   0  0  0  0  0  0  0  0  0  0  0  0
   -7.6938   12.5312  -13.5268 H   0  0  0  0  0  0  0  0  0  0  0  0
   -6.1994   11.5912  -13.8580 H   0  0  0  0  0  0  0  0  0  0  0  0
   -8.0161    9.5818   -7.2548 H   0  0  0  0  0  0  0  0  0  0  0  0
   -4.1771   12.8456  -10.8951 H   0  0  0  0  0  0  0  0  0  0  0  0
   -2.5640   14.5209  -10.9247 H   0  0  0  0  0  0  0  0  0  0  0  0
   -3.0770   14.8334  -12.6175 H   0  0  0  0  0  0  0  0  0  0  0  0
   -3.9113   15.6608  -11.2589 H   0  0  0  0  0  0  0  0  0  0  0  0
   -6.7769   12.3203   -6.9046 H   0  0  0  0  0  0  0  0  0  0  0  0
   -2.6169    9.7197   -8.0459 H   0  0  0  0  0  0  0  0  0  0  0  0
   -4.8951    8.7966   -8.4810 H   0  0  0  0  0  0  0  0  0  0  0  0
   -4.6981   14.3639   -6.0034 H   0  0  0  0  0  0  0  0  0  0  0  0
   -0.3895   12.9643   -6.6059 H   0  0  0  0  0  0  0  0  0  0  0  0
   -0.7026   11.2076   -6.4002 H   0  0  0  0  0  0  0  0  0  0  0  0
   -0.6910   11.9314   -8.0442 H   0  0  0  0  0  0  0  0  0  0  0  0
  1  2  2  0  0  0  0
  1  4  1  0  0  0  0
  1 13  1  0  0  0  0
  2  6  1  0  0  0  0
  3  4  1  0  0  0  0
  3  5  1  0  0  0  0
  5  6  2  0  0  0  0
  5  9  1  0  0  0  0
  6  7  1  0  0  0  0
  7  8  1  0  0  0  0
  7 10  2  3  0  0  0
  8  9  2  0  0  0  0
 10 15  1  0  0  0  0
 11 12  1  0  0  0  0
 11 13  1  0  0  0  0
 13 14  2  0  0  0  0
 15 16  2  0  0  0  0
 15 20  1  0  0  0  0
 16 17  1  0  0  0  0
 17 18  2  0  0  0  0
 17 21  1  0  0  0  0
 18 19  1  0  0  0  0
 18 23  1  0  0  0  0
 19 20  2  0  0  0  0
 21 22  2  0  0  0  0
 22 23  1  0  0  0  0
 23 24  1  0  0  0  0
  2 25  1  0  0  0  0
  3 26  1  0  0  0  0
  3 27  1  0  0  0  0
  4 28  1  0  0  0  0
  4 29  1  0  0  0  0
 10 30  1  0  0  0  0
 11 31  1  0  0  0  0
 12 32  1  0  0  0  0
 12 33  1  0  0  0  0
 12 34  1  0  0  0  0
 16 35  1  0  0  0  0
 19 36  1  0  0  0  0
 20 37  1  0  0  0  0
 21 38  1  0  0  0  0
 24 39  1  0  0  0  0
 24 40  1  0  0  0  0
 24 41  1  0  0  0  0
M  END
> <Name>
18

> <IC50[uM]>
0.01

$$$$
18
  -OEChem-05192314333D
 Structure written by MMmdl.
 41 44  0     1  0  0  0  0  0999 V2000
   -6.3808   12.3686  -12.0119 C   0  0  3  0  0  0  0  0  0  0  0  0
   -6.5112   11.8116  -10.7365 C   0  0  0  0  0  0  0  0  0  0  0  0
   -7.7301   10.5824  -13.0300 C   0  0  0  0  0  0  0  0  0  0  0  0
   -6.9992   11.7782  -13.1263 C   0  0  0  0  0  0  0  0  0  0  0  0
   -7.8250   10.0166  -11.7542 C   0  0  0  0  0  0  0  0  0  0  0  0
   -7.2407   10.6266  -10.6010 C   0  0  0  0  0  0  0  0  0  0  0  0
   -7.6094    9.7513   -9.5103 C   0  0  0  0  0  0  0  0  0  0  0  0
   -8.2849    8.7404   -9.9846 N   0  0  0  0  0  0  0  0  0  0  0  0
   -8.4192    8.8674  -11.2983 N   0  0  0  0  0  0  0  0  0  0  0  0
   -7.3225    9.8872   -8.0242 C   0  0  0  0  0  0  0  0  0  0  0  0
   -4.3834   13.6199  -11.4933 N   0  0  0  0  0  0  0  0  0  0  0  0
   -3.4237   14.7282  -11.5789 C   0  0  0  0  0  0  0  0  0  0  0  0
   -5.5369   13.6139  -12.1980 C   0  0  0  0  0  0  0  0  0  0  0  0
   -5.8771   14.5161  -12.9653 O   0  0  0  0  0  0  0  0  0  0  0  0
   -5.9516   10.5005   -7.7272 C   0  0  0  0  0  0  0  0  0  0  0  0
   -5.8803   11.7722   -7.1539 C   0  0  0  0  0  0  0  0  0  0  0  0
   -4.6129   12.3159   -6.9118 C   0  0  0  0  0  0  0  0  0  0  0  0
   -3.4418   11.5625   -7.2429 C   0  0  0  0  0  0  0  0  0  0  0  0
   -3.5059   10.2842   -7.8062 C   0  0  0  0  0  0  0  0  0  0  0  0
   -4.7935    9.7780   -8.0417 C   0  0  0  0  0  0  0  0  0  0  0  0
   -4.0936   13.5458   -6.3664 C   0  0  0  0  0  0  0  0  0  0  0  0
   -2.7885   13.5288   -6.3742 N   0  0  0  0  0  0  0  0  0  0  0  0
   -2.3831   12.3683   -6.8823 N   0  0  0  0  0  0  0  0  0  0  0  0
   -0.9539   12.1016   -6.9897 C   0  0  0  0  0  0  0  0  0  0  0  0
   -7.2714   12.9905  -11.8387 H   0  0  0  0  0  0  0  0  0  0  0  0
   -5.4959   11.6133  -10.3626 H   0  0  0  0  0  0  0  0  0  0  0  0
   -6.9955   12.5665  -10.0997 H   0  0  0  0  0  0  0  0  0  0  0  0
   -8.1927   10.1256  -13.8924 H   0  0  0  0  0  0  0  0  0  0  0  0
   -6.9098   12.2595  -14.0890 H   0  0  0  0  0  0  0  0  0  0  0  0
   -8.0161    9.5818   -7.2548 H   0  0  0  0  0  0  0  0  0  0  0  0
   -4.1771   12.8456  -10.8951 H   0  0  0  0  0  0  0  0  0  0  0  0
   -2.5640   14.5209  -10.9247 H   0  0  0  0  0  0  0  0  0  0  0  0
   -3.0770   14.8334  -12.6175 H   0  0  0  0  0  0  0  0  0  0  0  0
   -3.9113   15.6608  -11.2589 H   0  0  0  0  0  0  0  0  0  0  0  0
   -6.7769   12.3203   -6.9046 H   0  0  0  0  0  0  0  0  0  0  0  0
   -2.6169    9.7197   -8.0459 H   0  0  0  0  0  0  0  0  0  0  0  0
   -4.8951    8.7966   -8.4810 H   0  0  0  0  0  0  0  0  0  0  0  0
   -4.6981   14.3639   -6.0034 H   0  0  0  0  0  0  0  0  0  0  0  0
   -0.3895   12.9643   -6.6059 H   0  0  0  0  0  0  0  0  0  0  0  0
   -0.7026   11.2076   -6.4002 H   0  0  0  0  0  0  0  0  0  0  0  0
   -0.6910   11.9314   -8.0442 H   0  0  0  0  0  0  0  0  0  0  0  0
  1  2  1  0  0  0  0
  1  4  1  0  0  0  0
  1 13  1  0  0  0  0
  2  6  1  0  0  0  0
  3  4  2  0  0  0  0
  3  5  1  0  0  0  0
  5  6  2  0  0  0  0
  5  9  1  0  0  0  0
  6  7  1  0  0  0  0
  7  8  1  0  0  0  0
  7 10  2  3  0  0  0
  8  9  2  0  0  0  0
 10 15  1  0  0  0  0
 11 12  1  0  0  0  0
 11 13  1  0  0  0  0
 13 14  2  0  0  0  0
 15 16  2  0  0  0  0
 15 20  1  0  0  0  0
 16 17  1  0  0  0  0
 17 18  2  0  0  0  0
 17 21  1  0  0  0  0
 18 19  1  0  0  0  0
 18 23  1  0  0  0  0
 19 20  2  0  0  0  0
 21 22  2  0  0  0  0
 22 23  1  0  0  0  0
 23 24  1  0  0  0  0
  1 25  1  0  0  0  0
  2 26  1  0  0  0  0
  2 27  1  0  0  0  0
  3 28  1  0  0  0  0
  4 29  1  0  0  0  0
 10 30  1  0  0  0  0
 11 31  1  0  0  0  0
 12 32  1  0  0  0  0
 12 33  1  0  0  0  0
 12 34  1  0  0  0  0
 16 35  1  0  0  0  0
 19 36  1  0  0  0  0
 20 37  1  0  0  0  0
 21 38  1  0  0  0  0
 24 39  1  0  0  0  0
 24 40  1  0  0  0  0
 24 41  1  0  0  0  0
M  END
> <Name>
18

> <IC50[uM]>
0.01

$$$$
18
  -OEChem-05192314333D
 Structure written by MMmdl.
 41 44  0     1  0  0  0  0  0999 V2000
   -6.3808   12.3686  -12.0119 C   0  0  0  0  0  0  0  0  0  0  0  0
   -6.5112   11.8116  -10.7365 C   0  0  0  0  0  0  0  0  0  0  0  0
   -7.7301   10.5824  -13.0300 C   0  0  0  0  0  0  0  0  0  0  0  0
   -6.9992   11.7782  -13.1263 C   0  0  0  0  0  0  0  0  0  0  0  0
   -7.8250   10.0166  -11.7542 C   0  0  0  0  0  0  0  0  0  0  0  0
   -7.2407   10.6266  -10.6010 C   0  0  3  0  0  0  0  0  0  0  0  0
   -7.6094    9.7513   -9.5103 C   0  0  0  0  0  0  0  0  0  0  0  0
   -8.2849    8.7404   -9.9846 N   0  0  0  0  0  0  0  0  0  0  0  0
   -8.4192    8.8674  -11.2983 N   0  0  0  0  0  0  0  0  0  0  0  0
   -7.3225    9.8872   -8.0242 C   0  0  0  0  0  0  0  0  0  0  0  0
   -4.3834   13.6199  -11.4933 N   0  0  0  0  0  0  0  0  0  0  0  0
   -3.4237   14.7282  -11.5789 C   0  0  0  0  0  0  0  0  0  0  0  0
   -5.5369   13.6139  -12.1980 C   0  0  0  0  0  0  0  0  0  0  0  0
   -5.8771   14.5161  -12.9653 O   0  0  0  0  0  0  0  0  0  0  0  0
   -5.9516   10.5005   -7.7272 C   0  0  0  0  0  0  0  0  0  0  0  0
   -5.8803   11.7722   -7.1539 C   0  0  0  0  0  0  0  0  0  0  0  0
   -4.6129   12.3159   -6.9118 C   0  0  0  0  0  0  0  0  0  0  0  0
   -3.4418   11.5625   -7.2429 C   0  0  0  0  0  0  0  0  0  0  0  0
   -3.5059   10.2842   -7.8062 C   0  0  0  0  0  0  0  0  0  0  0  0
   -4.7935    9.7780   -8.0417 C   0  0  0  0  0  0  0  0  0  0  0  0
   -4.0936   13.5458   -6.3664 C   0  0  0  0  0  0  0  0  0  0  0  0
   -2.7885   13.5288   -6.3742 N   0  0  0  0  0  0  0  0  0  0  0  0
   -2.3831   12.3683   -6.8823 N   0  0  0  0  0  0  0  0  0  0  0  0
   -0.9539   12.1016   -6.9897 C   0  0  0  0  0  0  0  0  0  0  0  0
   -5.4959   11.6133  -10.3626 H   0  0  0  0  0  0  0  0  0  0  0  0
   -6.9955   12.5665  -10.0997 H   0  0  0  0  0  0  0  0  0  0  0  0
   -8.1927   10.1256  -13.8924 H   0  0  0  0  0  0  0  0  0  0  0  0
   -6.9098   12.2595  -14.0890 H   0  0  0  0  0  0  0  0  0  0  0  0
   -8.1598   11.2101  -10.4437 H   0  0  0  0  0  0  0  0  0  0  0  0
   -8.0161    9.5818   -7.2548 H   0  0  0  0  0  0  0  0  0  0  0  0
   -4.1771   12.8456  -10.8951 H   0  0  0  0  0  0  0  0  0  0  0  0
   -2.5640   14.5209  -10.9247 H   0  0  0  0  0  0  0  0  0  0  0  0
   -3.0770   14.8334  -12.6175 H   0  0  0  0  0  0  0  0  0  0  0  0
   -3.9113   15.6608  -11.2589 H   0  0  0  0  0  0  0  0  0  0  0  0
   -6.7769   12.3203   -6.9046 H   0  0  0  0  0  0  0  0  0  0  0  0
   -2.6169    9.7197   -8.0459 H   0  0  0  0  0  0  0  0  0  0  0  0
   -4.8951    8.7966   -8.4810 H   0  0  0  0  0  0  0  0  0  0  0  0
   -4.6981   14.3639   -6.0034 H   0  0  0  0  0  0  0  0  0  0  0  0
   -0.3895   12.9643   -6.6059 H   0  0  0  0  0  0  0  0  0  0  0  0
   -0.7026   11.2076   -6.4002 H   0  0  0  0  0  0  0  0  0  0  0  0
   -0.6910   11.9314   -8.0442 H   0  0  0  0  0  0  0  0  0  0  0  0
  1  2  1  0  0  0  0
  1  4  2  0  0  0  0
  1 13  1  0  0  0  0
  2  6  1  0  0  0  0
  3  4  1  0  0  0  0
  3  5  2  0  0  0  0
  5  6  1  0  0  0  0
  5  9  1  0  0  0  0
  6  7  1  0  0  0  0
  7  8  1  0  0  0  0
  7 10  2  3  0  0  0
  8  9  2  0  0  0  0
 10 15  1  0  0  0  0
 11 12  1  0  0  0  0
 11 13  1  0  0  0  0
 13 14  2  0  0  0  0
 15 16  2  0  0  0  0
 15 20  1  0  0  0  0
 16 17  1  0  0  0  0
 17 18  2  0  0  0  0
 17 21  1  0  0  0  0
 18 19  1  0  0  0  0
 18 23  1  0  0  0  0
 19 20  2  0  0  0  0
 21 22  2  0  0  0  0
 22 23  1  0  0  0  0
 23 24  1  0  0  0  0
  2 25  1  0  0  0  0
  2 26  1  0  0  0  0
  3 27  1  0  0  0  0
  4 28  1  0  0  0  0
  6 29  1  0  0  0  0
 10 30  1  0  0  0  0
 11 31  1  0  0  0  0
 12 32  1  0  0  0  0
 12 33  1  0  0  0  0
 12 34  1  0  0  0  0
 16 35  1  0  0  0  0
 19 36  1  0  0  0  0
 20 37  1  0  0  0  0
 21 38  1  0  0  0  0
 24 39  1  0  0  0  0
 24 40  1  0  0  0  0
 24 41  1  0  0  0  0
M  END
> <Name>
18

> <IC50[uM]>
0.01

$$$$
18
  -OEChem-05192314333D
 Structure written by MMmdl.
 41 44  0     0  0  0  0  0  0999 V2000
   -6.3808   12.3686  -12.0119 C   0  0  0  0  0  0  0  0  0  0  0  0
   -6.5112   11.8116  -10.7365 C   0  0  0  0  0  0  0  0  0  0  0  0
   -7.7301   10.5824  -13.0300 C   0  0  0  0  0  0  0  0  0  0  0  0
   -6.9992   11.7782  -13.1263 C   0  0  0  0  0  0  0  0  0  0  0  0
   -7.8250   10.0166  -11.7542 C   0  0  0  0  0  0  0  0  0  0  0  0
   -7.2407   10.6266  -10.6010 C   0  0  0  0  0  0  0  0  0  0  0  0
   -7.6094    9.7513   -9.5103 C   0  0  0  0  0  0  0  0  0  0  0  0
   -8.2849    8.7404   -9.9846 N   0  0  0  0  0  0  0  0  0  0  0  0
   -8.4192    8.8674  -11.2983 N   0  0  0  0  0  0  0  0  0  0  0  0
   -7.3225    9.8872   -8.0242 C   0  0  0  0  0  0  0  0  0  0  0  0
   -4.3834   13.6199  -11.4933 N   0  0  0  0  0  0  0  0  0  0  0  0
   -3.4237   14.7282  -11.5789 C   0  0  0  0  0  0  0  0  0  0  0  0
   -5.5369   13.6139  -12.1980 C   0  0  0  0  0  0  0  0  0  0  0  0
   -5.8771   14.5161  -12.9653 O   0  0  0  0  0  0  0  0  0  0  0  0
   -5.9516   10.5005   -7.7272 C   0  0  0  0  0  0  0  0  0  0  0  0
   -5.8803   11.7722   -7.1539 C   0  0  0  0  0  0  0  0  0  0  0  0
   -4.6129   12.3159   -6.9118 C   0  0  0  0  0  0  0  0  0  0  0  0
   -3.4418   11.5625   -7.2429 C   0  0  0  0  0  0  0  0  0  0  0  0
   -3.5059   10.2842   -7.8062 C   0  0  0  0  0  0  0  0  0  0  0  0
   -4.7935    9.7780   -8.0417 C   0  0  0  0  0  0  0  0  0  0  0  0
   -4.0936   13.5458   -6.3664 C   0  0  0  0  0  0  0  0  0  0  0  0
   -2.7885   13.5288   -6.3742 N   0  0  0  0  0  0  0  0  0  0  0  0
   -2.3831   12.3683   -6.8823 N   0  0  0  0  0  0  0  0  0  0  0  0
   -0.9539   12.1016   -6.9897 C   0  0  0  0  0  0  0  0  0  0  0  0
   -5.4959   11.6133  -10.3626 H   0  0  0  0  0  0  0  0  0  0  0  0
   -6.9955   12.5665  -10.0997 H   0  0  0  0  0  0  0  0  0  0  0  0
   -8.7517   10.7843  -13.3842 H   0  0  0  0  0  0  0  0  0  0  0  0
   -7.2525    9.8433  -13.6900 H   0  0  0  0  0  0  0  0  0  0  0  0
   -6.9098   12.2595  -14.0890 H   0  0  0  0  0  0  0  0  0  0  0  0
   -8.0161    9.5818   -7.2548 H   0  0  0  0  0  0  0  0  0  0  0  0
   -4.1771   12.8456  -10.8951 H   0  0  0  0  0  0  0  0  0  0  0  0
   -2.5640   14.5209  -10.9247 H   0  0  0  0  0  0  0  0  0  0  0  0
   -3.0770   14.8334  -12.6175 H   0  0  0  0  0  0  0  0  0  0  0  0
   -3.9113   15.6608  -11.2589 H   0  0  0  0  0  0  0  0  0  0  0  0
   -6.7769   12.3203   -6.9046 H   0  0  0  0  0  0  0  0  0  0  0  0
   -2.6169    9.7197   -8.0459 H   0  0  0  0  0  0  0  0  0  0  0  0
   -4.8951    8.7966   -8.4810 H   0  0  0  0  0  0  0  0  0  0  0  0
   -4.6981   14.3639   -6.0034 H   0  0  0  0  0  0  0  0  0  0  0  0
   -0.3895   12.9643   -6.6059 H   0  0  0  0  0  0  0  0  0  0  0  0
   -0.7026   11.2076   -6.4002 H   0  0  0  0  0  0  0  0  0  0  0  0
   -0.6910   11.9314   -8.0442 H   0  0  0  0  0  0  0  0  0  0  0  0
  1  2  1  0  0  0  0
  1  4  2  0  0  0  0
  1 13  1  0  0  0  0
  2  6  1  0  0  0  0
  3  4  1  0  0  0  0
  3  5  1  0  0  0  0
  5  6  2  0  0  0  0
  5  9  1  0  0  0  0
  6  7  1  0  0  0  0
  7  8  1  0  0  0  0
  7 10  2  3  0  0  0
  8  9  2  0  0  0  0
 10 15  1  0  0  0  0
 11 12  1  0  0  0  0
 11 13  1  0  0  0  0
 13 14  2  0  0  0  0
 15 16  2  0  0  0  0
 15 20  1  0  0  0  0
 16 17  1  0  0  0  0
 17 18  2  0  0  0  0
 17 21  1  0  0  0  0
 18 19  1  0  0  0  0
 18 23  1  0  0  0  0
 19 20  2  0  0  0  0
 21 22  2  0  0  0  0
 22 23  1  0  0  0  0
 23 24  1  0  0  0  0
  2 25  1  0  0  0  0
  2 26  1  0  0  0  0
  3 27  1  0  0  0  0
  3 28  1  0  0  0  0
  4 29  1  0  0  0  0
 10 30  1  0  0  0  0
 11 31  1  0  0  0  0
 12 32  1  0  0  0  0
 12 33  1  0  0  0  0
 12 34  1  0  0  0  0
 16 35  1  0  0  0  0
 19 36  1  0  0  0  0
 20 37  1  0  0  0  0
 21 38  1  0  0  0  0
 24 39  1  0  0  0  0
 24 40  1  0  0  0  0
 24 41  1  0  0  0  0
M  END
> <Name>
18

> <IC50[uM]>
0.01

$$$$
18
  -OEChem-05192314333D
 Structure written by MMmdl.
 41 44  0     1  0  0  0  0  0999 V2000
   -6.3808   12.3686  -12.0119 C   0  0  0  0  0  0  0  0  0  0  0  0
   -6.5112   11.8116  -10.7365 C   0  0  0  0  0  0  0  0  0  0  0  0
   -7.7301   10.5824  -13.0300 C   0  0  0  0  0  0  0  0  0  0  0  0
   -6.9992   11.7782  -13.1263 C   0  0  0  0  0  0  0  0  0  0  0  0
   -7.8250   10.0166  -11.7542 C   0  0  3  0  0  0  0  0  0  0  0  0
   -7.2407   10.6266  -10.6010 C   0  0  0  0  0  0  0  0  0  0  0  0
   -7.6094    9.7513   -9.5103 C   0  0  0  0  0  0  0  0  0  0  0  0
   -8.2849    8.7404   -9.9846 N   0  0  0  0  0  0  0  0  0  0  0  0
   -8.4192    8.8674  -11.2983 N   0  0  0  0  0  0  0  0  0  0  0  0
   -7.3225    9.8872   -8.0242 C   0  0  0  0  0  0  0  0  0  0  0  0
   -4.3834   13.6199  -11.4933 N   0  0  0  0  0  0  0  0  0  0  0  0
   -3.4237   14.7282  -11.5789 C   0  0  0  0  0  0  0  0  0  0  0  0
   -5.5369   13.6139  -12.1980 C   0  0  0  0  0  0  0  0  0  0  0  0
   -5.8771   14.5161  -12.9653 O   0  0  0  0  0  0  0  0  0  0  0  0
   -5.9516   10.5005   -7.7272 C   0  0  0  0  0  0  0  0  0  0  0  0
   -5.8803   11.7722   -7.1539 C   0  0  0  0  0  0  0  0  0  0  0  0
   -4.6129   12.3159   -6.9118 C   0  0  0  0  0  0  0  0  0  0  0  0
   -3.4418   11.5625   -7.2429 C   0  0  0  0  0  0  0  0  0  0  0  0
   -3.5059   10.2842   -7.8062 C   0  0  0  0  0  0  0  0  0  0  0  0
   -4.7935    9.7780   -8.0417 C   0  0  0  0  0  0  0  0  0  0  0  0
   -4.0936   13.5458   -6.3664 C   0  0  0  0  0  0  0  0  0  0  0  0
   -2.7885   13.5288   -6.3742 N   0  0  0  0  0  0  0  0  0  0  0  0
   -2.3831   12.3683   -6.8823 N   0  0  0  0  0  0  0  0  0  0  0  0
   -0.9539   12.1016   -6.9897 C   0  0  0  0  0  0  0  0  0  0  0  0
   -6.0597   12.2849   -9.8771 H   0  0  0  0  0  0  0  0  0  0  0  0
   -8.1927   10.1256  -13.8924 H   0  0  0  0  0  0  0  0  0  0  0  0
   -6.9098   12.2595  -14.0890 H   0  0  0  0  0  0  0  0  0  0  0  0
   -8.7581   10.5712  -11.5763 H   0  0  0  0  0  0  0  0  0  0  0  0
   -8.0964   10.5278   -7.5761 H   0  0  0  0  0  0  0  0  0  0  0  0
   -7.3644    8.8874   -7.5674 H   0  0  0  0  0  0  0  0  0  0  0  0
   -4.1771   12.8456  -10.8951 H   0  0  0  0  0  0  0  0  0  0  0  0
   -2.5640   14.5209  -10.9247 H   0  0  0  0  0  0  0  0  0  0  0  0
   -3.0770   14.8334  -12.6175 H   0  0  0  0  0  0  0  0  0  0  0  0
   -3.9113   15.6608  -11.2589 H   0  0  0  0  0  0  0  0  0  0  0  0
   -6.7769   12.3203   -6.9046 H   0  0  0  0  0  0  0  0  0  0  0  0
   -2.6169    9.7197   -8.0459 H   0  0  0  0  0  0  0  0  0  0  0  0
   -4.8951    8.7966   -8.4810 H   0  0  0  0  0  0  0  0  0  0  0  0
   -4.6981   14.3639   -6.0034 H   0  0  0  0  0  0  0  0  0  0  0  0
   -0.3895   12.9643   -6.6059 H   0  0  0  0  0  0  0  0  0  0  0  0
   -0.7026   11.2076   -6.4002 H   0  0  0  0  0  0  0  0  0  0  0  0
   -0.6910   11.9314   -8.0442 H   0  0  0  0  0  0  0  0  0  0  0  0
  1  2  2  0  0  0  0
  1  4  1  0  0  0  0
  1 13  1  0  0  0  0
  2  6  1  0  0  0  0
  3  4  2  0  0  0  0
  3  5  1  0  0  0  0
  5  6  1  0  0  0  0
  5  9  1  0  0  0  0
  6  7  2  0  0  0  0
  7  8  1  0  0  0  0
  7 10  1  0  0  0  0
  8  9  2  0  0  0  0
 10 15  1  0  0  0  0
 11 12  1  0  0  0  0
 11 13  1  0  0  0  0
 13 14  2  0  0  0  0
 15 16  2  0  0  0  0
 15 20  1  0  0  0  0
 16 17  1  0  0  0  0
 17 18  2  0  0  0  0
 17 21  1  0  0  0  0
 18 19  1  0  0  0  0
 18 23  1  0  0  0  0
 19 20  2  0  0  0  0
 21 22  2  0  0  0  0
 22 23  1  0  0  0  0
 23 24  1  0  0  0  0
  2 25  1  0  0  0  0
  3 26  1  0  0  0  0
  4 27  1  0  0  0  0
  5 28  1  0  0  0  0
 10 29  1  0  0  0  0
 10 30  1  0  0  0  0
 11 31  1  0  0  0  0
 12 32  1  0  0  0  0
 12 33  1  0  0  0  0
 12 34  1  0  0  0  0
 16 35  1  0  0  0  0
 19 36  1  0  0  0  0
 20 37  1  0  0  0  0
 21 38  1  0  0  0  0
 24 39  1  0  0  0  0
 24 40  1  0  0  0  0
 24 41  1  0  0  0  0
M  END
> <Name>
18

> <IC50[uM]>
0.01

$$$$
18
  -OEChem-05192314333D
 Structure written by MMmdl.
 41 44  0     0  0  0  0  0  0999 V2000
   -6.3808   12.3686  -12.0119 C   0  0  0  0  0  0  0  0  0  0  0  0
   -6.5112   11.8116  -10.7365 C   0  0  0  0  0  0  0  0  0  0  0  0
   -7.7301   10.5824  -13.0300 C   0  0  0  0  0  0  0  0  0  0  0  0
   -6.9992   11.7782  -13.1263 C   0  0  0  0  0  0  0  0  0  0  0  0
   -7.8250   10.0166  -11.7542 C   0  0  0  0  0  0  0  0  0  0  0  0
   -7.2407   10.6266  -10.6010 C   0  0  0  0  0  0  0  0  0  0  0  0
   -7.6094    9.7513   -9.5103 C   0  0  0  0  0  0  0  0  0  0  0  0
   -8.2849    8.7404   -9.9846 N   0  0  0  0  0  0  0  0  0  0  0  0
   -8.4192    8.8674  -11.2983 N   0  0  0  0  0  0  0  0  0  0  0  0
   -7.3225    9.8872   -8.0242 C   0  0  0  0  0  0  0  0  0  0  0  0
   -4.3834   13.6199  -11.4933 N   0  0  0  0  0  0  0  0  0  0  0  0
   -3.4237   14.7282  -11.5789 C   0  0  0  0  0  0  0  0  0  0  0  0
   -5.5369   13.6139  -12.1980 C   0  0  0  0  0  0  0  0  0  0  0  0
   -5.8771   14.5161  -12.9653 O   0  0  0  0  0  0  0  0  0  0  0  0
   -5.9516   10.5005   -7.7272 C   0  0  0  0  0  0  0  0  0  0  0  0
   -5.8803   11.7722   -7.1539 C   0  0  0  0  0  0  0  0  0  0  0  0
   -4.6129   12.3159   -6.9118 C   0  0  0  0  0  0  0  0  0  0  0  0
   -3.4418   11.5625   -7.2429 C   0  0  0  0  0  0  0  0  0  0  0  0
   -3.5059   10.2842   -7.8062 C   0  0  0  0  0  0  0  0  0  0  0  0
   -4.7935    9.7780   -8.0417 C   0  0  0  0  0  0  0  0  0  0  0  0
   -4.0936   13.5458   -6.3664 C   0  0  0  0  0  0  0  0  0  0  0  0
   -2.7885   13.5288   -6.3742 N   0  0  0  0  0  0  0  0  0  0  0  0
   -2.3831   12.3683   -6.8823 N   0  0  0  0  0  0  0  0  0  0  0  0
   -0.9539   12.1016   -6.9897 C   0  0  0  0  0  0  0  0  0  0  0  0
   -6.0597   12.2849   -9.8771 H   0  0  0  0  0  0  0  0  0  0  0  0
   -8.1927   10.1256  -13.8924 H   0  0  0  0  0  0  0  0  0  0  0  0
   -7.6938   12.5312  -13.5268 H   0  0  0  0  0  0  0  0  0  0  0  0
   -6.1994   11.5912  -13.8580 H   0  0  0  0  0  0  0  0  0  0  0  0
   -8.0964   10.5278   -7.5761 H   0  0  0  0  0  0  0  0  0  0  0  0
   -7.3644    8.8874   -7.5674 H   0  0  0  0  0  0  0  0  0  0  0  0
   -4.1771   12.8456  -10.8951 H   0  0  0  0  0  0  0  0  0  0  0  0
   -2.5640   14.5209  -10.9247 H   0  0  0  0  0  0  0  0  0  0  0  0
   -3.0770   14.8334  -12.6175 H   0  0  0  0  0  0  0  0  0  0  0  0
   -3.9113   15.6608  -11.2589 H   0  0  0  0  0  0  0  0  0  0  0  0
   -6.7769   12.3203   -6.9046 H   0  0  0  0  0  0  0  0  0  0  0  0
   -2.6169    9.7197   -8.0459 H   0  0  0  0  0  0  0  0  0  0  0  0
   -4.8951    8.7966   -8.4810 H   0  0  0  0  0  0  0  0  0  0  0  0
   -4.6981   14.3639   -6.0034 H   0  0  0  0  0  0  0  0  0  0  0  0
   -0.3895   12.9643   -6.6059 H   0  0  0  0  0  0  0  0  0  0  0  0
   -0.7026   11.2076   -6.4002 H   0  0  0  0  0  0  0  0  0  0  0  0
   -0.6910   11.9314   -8.0442 H   0  0  0  0  0  0  0  0  0  0  0  0
  1  2  2  0  0  0  0
  1  4  1  0  0  0  0
  1 13  1  0  0  0  0
  2  6  1  0  0  0  0
  3  4  1  0  0  0  0
  3  5  2  0  0  0  0
  5  6  1  0  0  0  0
  5  9  1  0  0  0  0
  6  7  2  0  0  0  0
  7  8  1  0  0  0  0
  7 10  1  0  0  0  0
  8  9  2  0  0  0  0
 10 15  1  0  0  0  0
 11 12  1  0  0  0  0
 11 13  1  0  0  0  0
 13 14  2  0  0  0  0
 15 16  2  0  0  0  0
 15 20  1  0  0  0  0
 16 17  1  0  0  0  0
 17 18  2  0  0  0  0
 17 21  1  0  0  0  0
 18 19  1  0  0  0  0
 18 23  1  0  0  0  0
 19 20  2  0  0  0  0
 21 22  2  0  0  0  0
 22 23  1  0  0  0  0
 23 24  1  0  0  0  0
  2 25  1  0  0  0  0
  3 26  1  0  0  0  0
  4 27  1  0  0  0  0
  4 28  1  0  0  0  0
 10 29  1  0  0  0  0
 10 30  1  0  0  0  0
 11 31  1  0  0  0  0
 12 32  1  0  0  0  0
 12 33  1  0  0  0  0
 12 34  1  0  0  0  0
 16 35  1  0  0  0  0
 19 36  1  0  0  0  0
 20 37  1  0  0  0  0
 21 38  1  0  0  0  0
 24 39  1  0  0  0  0
 24 40  1  0  0  0  0
 24 41  1  0  0  0  0
M  END
> <Name>
18

> <IC50[uM]>
0.01

$$$$
18
  -OEChem-05192314333D
 Structure written by MMmdl.
 41 44  0     0  0  0  0  0  0999 V2000
   -6.3808   12.3686  -12.0119 C   0  0  0  0  0  0  0  0  0  0  0  0
   -6.5112   11.8116  -10.7365 C   0  0  0  0  0  0  0  0  0  0  0  0
   -7.7301   10.5824  -13.0300 C   0  0  0  0  0  0  0  0  0  0  0  0
   -6.9992   11.7782  -13.1263 C   0  0  0  0  0  0  0  0  0  0  0  0
   -7.8250   10.0166  -11.7542 C   0  0  0  0  0  0  0  0  0  0  0  0
   -7.2407   10.6266  -10.6010 C   0  0  0  0  0  0  0  0  0  0  0  0
   -7.6094    9.7513   -9.5103 C   0  0  0  0  0  0  0  0  0  0  0  0
   -8.2849    8.7404   -9.9846 N   0  0  0  0  0  0  0  0  0  0  0  0
   -8.4192    8.8674  -11.2983 N   0  0  0  0  0  0  0  0  0  0  0  0
   -7.3225    9.8872   -8.0242 C   0  0  0  0  0  0  0  0  0  0  0  0
   -4.3834   13.6199  -11.4933 N   0  0  0  0  0  0  0  0  0  0  0  0
   -3.4237   14.7282  -11.5789 C   0  0  0  0  0  0  0  0  0  0  0  0
   -5.5369   13.6139  -12.1980 C   0  0  0  0  0  0  0  0  0  0  0  0
   -5.8771   14.5161  -12.9653 O   0  0  0  0  0  0  0  0  0  0  0  0
   -5.9516   10.5005   -7.7272 C   0  0  0  0  0  0  0  0  0  0  0  0
   -5.8803   11.7722   -7.1539 C   0  0  0  0  0  0  0  0  0  0  0  0
   -4.6129   12.3159   -6.9118 C   0  0  0  0  0  0  0  0  0  0  0  0
   -3.4418   11.5625   -7.2429 C   0  0  0  0  0  0  0  0  0  0  0  0
   -3.5059   10.2842   -7.8062 C   0  0  0  0  0  0  0  0  0  0  0  0
   -4.7935    9.7780   -8.0417 C   0  0  0  0  0  0  0  0  0  0  0  0
   -4.0936   13.5458   -6.3664 C   0  0  0  0  0  0  0  0  0  0  0  0
   -2.7885   13.5288   -6.3742 N   0  0  0  0  0  0  0  0  0  0  0  0
   -2.3831   12.3683   -6.8823 N   0  0  0  0  0  0  0  0  0  0  0  0
   -0.9539   12.1016   -6.9897 C   0  0  0  0  0  0  0  0  0  0  0  0
   -5.4959   11.6133  -10.3626 H   0  0  0  0  0  0  0  0  0  0  0  0
   -6.9955   12.5665  -10.0997 H   0  0  0  0  0  0  0  0  0  0  0  0
   -8.1927   10.1256  -13.8924 H   0  0  0  0  0  0  0  0  0  0  0  0
   -6.9098   12.2595  -14.0890 H   0  0  0  0  0  0  0  0  0  0  0  0
   -8.0964   10.5278   -7.5761 H   0  0  0  0  0  0  0  0  0  0  0  0
   -7.3644    8.8874   -7.5674 H   0  0  0  0  0  0  0  0  0  0  0  0
   -4.1771   12.8456  -10.8951 H   0  0  0  0  0  0  0  0  0  0  0  0
   -2.5640   14.5209  -10.9247 H   0  0  0  0  0  0  0  0  0  0  0  0
   -3.0770   14.8334  -12.6175 H   0  0  0  0  0  0  0  0  0  0  0  0
   -3.9113   15.6608  -11.2589 H   0  0  0  0  0  0  0  0  0  0  0  0
   -6.7769   12.3203   -6.9046 H   0  0  0  0  0  0  0  0  0  0  0  0
   -2.6169    9.7197   -8.0459 H   0  0  0  0  0  0  0  0  0  0  0  0
   -4.8951    8.7966   -8.4810 H   0  0  0  0  0  0  0  0  0  0  0  0
   -4.6981   14.3639   -6.0034 H   0  0  0  0  0  0  0  0  0  0  0  0
   -0.3895   12.9643   -6.6059 H   0  0  0  0  0  0  0  0  0  0  0  0
   -0.7026   11.2076   -6.4002 H   0  0  0  0  0  0  0  0  0  0  0  0
   -0.6910   11.9314   -8.0442 H   0  0  0  0  0  0  0  0  0  0  0  0
  1  2  1  0  0  0  0
  1  4  2  0  0  0  0
  1 13  1  0  0  0  0
  2  6  1  0  0  0  0
  3  4  1  0  0  0  0
  3  5  2  0  0  0  0
  5  6  1  0  0  0  0
  5  9  1  0  0  0  0
  6  7  2  0  0  0  0
  7  8  1  0  0  0  0
  7 10  1  0  0  0  0
  8  9  2  0  0  0  0
 10 15  1  0  0  0  0
 11 12  1  0  0  0  0
 11 13  1  0  0  0  0
 13 14  2  0  0  0  0
 15 16  2  0  0  0  0
 15 20  1  0  0  0  0
 16 17  1  0  0  0  0
 17 18  2  0  0  0  0
 17 21  1  0  0  0  0
 18 19  1  0  0  0  0
 18 23  1  0  0  0  0
 19 20  2  0  0  0  0
 21 22  2  0  0  0  0
 22 23  1  0  0  0  0
 23 24  1  0  0  0  0
  2 25  1  0  0  0  0
  2 26  1  0  0  0  0
  3 27  1  0  0  0  0
  4 28  1  0  0  0  0
 10 29  1  0  0  0  0
 10 30  1  0  0  0  0
 11 31  1  0  0  0  0
 12 32  1  0  0  0  0
 12 33  1  0  0  0  0
 12 34  1  0  0  0  0
 16 35  1  0  0  0  0
 19 36  1  0  0  0  0
 20 37  1  0  0  0  0
 21 38  1  0  0  0  0
 24 39  1  0  0  0  0
 24 40  1  0  0  0  0
 24 41  1  0  0  0  0
M  END
> <Name>
18

> <IC50[uM]>
0.01

$$$$
18
  -OEChem-05192314333D
 Structure written by MMmdl.
 41 44  0     1  0  0  0  0  0999 V2000
   -6.3808   12.3686  -12.0119 C   0  0  0  0  0  0  0  0  0  0  0  0
   -6.5112   11.8116  -10.7365 C   0  0  0  0  0  0  0  0  0  0  0  0
   -7.7301   10.5824  -13.0300 C   0  0  0  0  0  0  0  0  0  0  0  0
   -6.9992   11.7782  -13.1263 C   0  0  0  0  0  0  0  0  0  0  0  0
   -7.8250   10.0166  -11.7542 C   0  0  0  0  0  0  0  0  0  0  0  0
   -7.2407   10.6266  -10.6010 C   0  0  3  0  0  0  0  0  0  0  0  0
   -7.6094    9.7513   -9.5103 C   0  0  0  0  0  0  0  0  0  0  0  0
   -8.2849    8.7404   -9.9846 N   0  0  0  0  0  0  0  0  0  0  0  0
   -8.4192    8.8674  -11.2983 N   0  0  0  0  0  0  0  0  0  0  0  0
   -7.3225    9.8872   -8.0242 C   0  0  0  0  0  0  0  0  0  0  0  0
   -4.3834   13.6199  -11.4933 N   0  0  0  0  0  0  0  0  0  0  0  0
   -3.4237   14.7282  -11.5789 C   0  0  0  0  0  0  0  0  0  0  0  0
   -5.5369   13.6139  -12.1980 C   0  0  0  0  0  0  0  0  0  0  0  0
   -5.8771   14.5161  -12.9653 O   0  0  0  0  0  0  0  0  0  0  0  0
   -5.9516   10.5005   -7.7272 C   0  0  0  0  0  0  0  0  0  0  0  0
   -5.8803   11.7722   -7.1539 C   0  0  0  0  0  0  0  0  0  0  0  0
   -4.6129   12.3159   -6.9118 C   0  0  0  0  0  0  0  0  0  0  0  0
   -3.4418   11.5625   -7.2429 C   0  0  0  0  0  0  0  0  0  0  0  0
   -3.5059   10.2842   -7.8062 C   0  0  0  0  0  0  0  0  0  0  0  0
   -4.7935    9.7780   -8.0417 C   0  0  0  0  0  0  0  0  0  0  0  0
   -4.0936   13.5458   -6.3664 C   0  0  0  0  0  0  0  0  0  0  0  0
   -2.7885   13.5288   -6.3742 N   0  0  0  0  0  0  0  0  0  0  0  0
   -2.3831   12.3683   -6.8823 N   0  0  0  0  0  0  0  0  0  0  0  0
   -0.9539   12.1016   -6.9897 C   0  0  0  0  0  0  0  0  0  0  0  0
   -6.0597   12.2849   -9.8771 H   0  0  0  0  0  0  0  0  0  0  0  0
   -8.1927   10.1256  -13.8924 H   0  0  0  0  0  0  0  0  0  0  0  0
   -6.9098   12.2595  -14.0890 H   0  0  0  0  0  0  0  0  0  0  0  0
   -8.1598   11.2101  -10.4437 H   0  0  0  0  0  0  0  0  0  0  0  0
   -8.6468    7.9839   -9.4398 H   0  0  0  0  0  0  0  0  0  0  0  0
   -8.0161    9.5818   -7.2548 H   0  0  0  0  0  0  0  0  0  0  0  0
   -4.1771   12.8456  -10.8951 H   0  0  0  0  0  0  0  0  0  0  0  0
   -2.5640   14.5209  -10.9247 H   0  0  0  0  0  0  0  0  0  0  0  0
   -3.0770   14.8334  -12.6175 H   0  0  0  0  0  0  0  0  0  0  0  0
   -3.9113   15.6608  -11.2589 H   0  0  0  0  0  0  0  0  0  0  0  0
   -6.7769   12.3203   -6.9046 H   0  0  0  0  0  0  0  0  0  0  0  0
   -2.6169    9.7197   -8.0459 H   0  0  0  0  0  0  0  0  0  0  0  0
   -4.8951    8.7966   -8.4810 H   0  0  0  0  0  0  0  0  0  0  0  0
   -4.6981   14.3639   -6.0034 H   0  0  0  0  0  0  0  0  0  0  0  0
   -0.3895   12.9643   -6.6059 H   0  0  0  0  0  0  0  0  0  0  0  0
   -0.7026   11.2076   -6.4002 H   0  0  0  0  0  0  0  0  0  0  0  0
   -0.6910   11.9314   -8.0442 H   0  0  0  0  0  0  0  0  0  0  0  0
  1  2  2  0  0  0  0
  1  4  1  0  0  0  0
  1 13  1  0  0  0  0
  2  6  1  0  0  0  0
  3  4  2  0  0  0  0
  3  5  1  0  0  0  0
  5  6  1  0  0  0  0
  5  9  2  0  0  0  0
  6  7  1  0  0  0  0
  7  8  1  0  0  0  0
  7 10  2  3  0  0  0
  8  9  1  0  0  0  0
 10 15  1  0  0  0  0
 11 12  1  0  0  0  0
 11 13  1  0  0  0  0
 13 14  2  0  0  0  0
 15 16  2  0  0  0  0
 15 20  1  0  0  0  0
 16 17  1  0  0  0  0
 17 18  2  0  0  0  0
 17 21  1  0  0  0  0
 18 19  1  0  0  0  0
 18 23  1  0  0  0  0
 19 20  2  0  0  0  0
 21 22  2  0  0  0  0
 22 23  1  0  0  0  0
 23 24  1  0  0  0  0
  2 25  1  0  0  0  0
  3 26  1  0  0  0  0
  4 27  1  0  0  0  0
  6 28  1  0  0  0  0
  8 29  1  0  0  0  0
 10 30  1  0  0  0  0
 11 31  1  0  0  0  0
 12 32  1  0  0  0  0
 12 33  1  0  0  0  0
 12 34  1  0  0  0  0
 16 35  1  0  0  0  0
 19 36  1  0  0  0  0
 20 37  1  0  0  0  0
 21 38  1  0  0  0  0
 24 39  1  0  0  0  0
 24 40  1  0  0  0  0
 24 41  1  0  0  0  0
M  END
> <Name>
18

> <IC50[uM]>
0.01

$$$$
18
  -OEChem-05192314333D
 Structure written by MMmdl.
 41 44  0     1  0  0  0  0  0999 V2000
   -6.3808   12.3686  -12.0119 C   0  0  0  0  0  0  0  0  0  0  0  0
   -6.5112   11.8116  -10.7365 C   0  0  0  0  0  0  0  0  0  0  0  0
   -7.7301   10.5824  -13.0300 C   0  0  0  0  0  0  0  0  0  0  0  0
   -6.9992   11.7782  -13.1263 C   0  0  0  0  0  0  0  0  0  0  0  0
   -7.8250   10.0166  -11.7542 C   0  0  0  0  0  0  0  0  0  0  0  0
   -7.2407   10.6266  -10.6010 C   0  0  0  0  0  0  0  0  0  0  0  0
   -7.6094    9.7513   -9.5103 C   0  0  0  0  0  0  0  0  0  0  0  0
   -8.2849    8.7404   -9.9846 N   0  0  0  0  0  0  0  0  0  0  0  0
   -8.4192    8.8674  -11.2983 N   0  0  0  0  0  0  0  0  0  0  0  0
   -7.3225    9.8872   -8.0242 C   0  0  0  0  0  0  0  0  0  0  0  0
   -4.3834   13.6199  -11.4933 N   0  0  0  0  0  0  0  0  0  0  0  0
   -3.4237   14.7282  -11.5789 C   0  0  0  0  0  0  0  0  0  0  0  0
   -5.5369   13.6139  -12.1980 C   0  0  0  0  0  0  0  0  0  0  0  0
   -5.8771   14.5161  -12.9653 O   0  0  0  0  0  0  0  0  0  0  0  0
   -5.9516   10.5005   -7.7272 C   0  0  0  0  0  0  0  0  0  0  0  0
   -5.8803   11.7722   -7.1539 C   0  0  0  0  0  0  0  0  0  0  0  0
   -4.6129   12.3159   -6.9118 C   0  0  0  0  0  0  0  0  0  0  0  0
   -3.4418   11.5625   -7.2429 C   0  0  3  0  0  0  0  0  0  0  0  0
   -3.5059   10.2842   -7.8062 C   0  0  0  0  0  0  0  0  0  0  0  0
   -4.7935    9.7780   -8.0417 C   0  0  0  0  0  0  0  0  0  0  0  0
   -4.0936   13.5458   -6.3664 C   0  0  0  0  0  0  0  0  0  0  0  0
   -2.7885   13.5288   -6.3742 N   0  0  0  0  0  0  0  0  0  0  0  0
   -2.3831   12.3683   -6.8823 N   0  0  3  0  0  0  0  0  0  0  0  0
   -0.9539   12.1016   -6.9897 C   0  0  0  0  0  0  0  0  0  0  0  0
   -6.0597   12.2849   -9.8771 H   0  0  0  0  0  0  0  0  0  0  0  0
   -8.1927   10.1256  -13.8924 H   0  0  0  0  0  0  0  0  0  0  0  0
   -6.9098   12.2595  -14.0890 H   0  0  0  0  0  0  0  0  0  0  0  0
   -8.6468    7.9839   -9.4398 H   0  0  0  0  0  0  0  0  0  0  0  0
   -8.0161    9.5818   -7.2548 H   0  0  0  0  0  0  0  0  0  0  0  0
   -4.1771   12.8456  -10.8951 H   0  0  0  0  0  0  0  0  0  0  0  0
   -2.5640   14.5209  -10.9247 H   0  0  0  0  0  0  0  0  0  0  0  0
   -3.0770   14.8334  -12.6175 H   0  0  0  0  0  0  0  0  0  0  0  0
   -3.9113   15.6608  -11.2589 H   0  0  0  0  0  0  0  0  0  0  0  0
   -6.7769   12.3203   -6.9046 H   0  0  0  0  0  0  0  0  0  0  0  0
   -3.4389   12.0070   -8.2491 H   0  0  0  0  0  0  0  0  0  0  0  0
   -2.6169    9.7197   -8.0459 H   0  0  0  0  0  0  0  0  0  0  0  0
   -4.8951    8.7966   -8.4810 H   0  0  0  0  0  0  0  0  0  0  0  0
   -4.6981   14.3639   -6.0034 H   0  0  0  0  0  0  0  0  0  0  0  0
   -0.3895   12.9643   -6.6059 H   0  0  0  0  0  0  0  0  0  0  0  0
   -0.7026   11.2076   -6.4002 H   0  0  0  0  0  0  0  0  0  0  0  0
   -0.6910   11.9314   -8.0442 H   0  0  0  0  0  0  0  0  0  0  0  0
  1  2  2  0  0  0  0
  1  4  1  0  0  0  0
  1 13  1  0  0  0  0
  2  6  1  0  0  0  0
  3  4  2  0  0  0  0
  3  5  1  0  0  0  0
  5  6  1  0  0  0  0
  5  9  2  0  0  0  0
  6  7  2  0  0  0  0
  7  8  1  0  0  0  0
  7 10  1  0  0  0  0
  8  9  1  0  0  0  0
 10 15  2  3  0  0  0
 11 12  1  0  0  0  0
 11 13  1  0  0  0  0
 13 14  2  0  0  0  0
 15 16  1  0  0  0  0
 15 20  1  0  0  0  0
 16 17  2  0  0  0  0
 17 18  1  0  0  0  0
 17 21  1  0  0  0  0
 18 19  1  0  0  0  0
 18 23  1  0  0  0  0
 19 20  2  0  0  0  0
 21 22  2  0  0  0  0
 22 23  1  0  0  0  0
 23 24  1  0  0  0  0
  2 25  1  0  0  0  0
  3 26  1  0  0  0  0
  4 27  1  0  0  0  0
  8 28  1  0  0  0  0
 10 29  1  0  0  0  0
 11 30  1  0  0  0  0
 12 31  1  0  0  0  0
 12 32  1  0  0  0  0
 12 33  1  0  0  0  0
 16 34  1  0  0  0  0
 18 35  1  0  0  0  0
 19 36  1  0  0  0  0
 20 37  1  0  0  0  0
 21 38  1  0  0  0  0
 24 39  1  0  0  0  0
 24 40  1  0  0  0  0
 24 41  1  0  0  0  0
M  END
> <Name>
18

> <IC50[uM]>
0.01

$$$$
18
  -OEChem-05192314333D
 Structure written by MMmdl.
 41 44  0     1  0  0  0  0  0999 V2000
   -6.3808   12.3686  -12.0119 C   0  0  0  0  0  0  0  0  0  0  0  0
   -6.5112   11.8116  -10.7365 C   0  0  0  0  0  0  0  0  0  0  0  0
   -7.7301   10.5824  -13.0300 C   0  0  0  0  0  0  0  0  0  0  0  0
   -6.9992   11.7782  -13.1263 C   0  0  0  0  0  0  0  0  0  0  0  0
   -7.8250   10.0166  -11.7542 C   0  0  0  0  0  0  0  0  0  0  0  0
   -7.2407   10.6266  -10.6010 C   0  0  0  0  0  0  0  0  0  0  0  0
   -7.6094    9.7513   -9.5103 C   0  0  0  0  0  0  0  0  0  0  0  0
   -8.2849    8.7404   -9.9846 N   0  0  0  0  0  0  0  0  0  0  0  0
   -8.4192    8.8674  -11.2983 N   0  0  0  0  0  0  0  0  0  0  0  0
   -7.3225    9.8872   -8.0242 C   0  0  0  0  0  0  0  0  0  0  0  0
   -4.3834   13.6199  -11.4933 N   0  0  0  0  0  0  0  0  0  0  0  0
   -3.4237   14.7282  -11.5789 C   0  0  0  0  0  0  0  0  0  0  0  0
   -5.5369   13.6139  -12.1980 C   0  0  0  0  0  0  0  0  0  0  0  0
   -5.8771   14.5161  -12.9653 O   0  0  0  0  0  0  0  0  0  0  0  0
   -5.9516   10.5005   -7.7272 C   0  0  0  0  0  0  0  0  0  0  0  0
   -5.8803   11.7722   -7.1539 C   0  0  0  0  0  0  0  0  0  0  0  0
   -4.6129   12.3159   -6.9118 C   0  0  0  0  0  0  0  0  0  0  0  0
   -3.4418   11.5625   -7.2429 C   0  0  3  0  0  0  0  0  0  0  0  0
   -3.5059   10.2842   -7.8062 C   0  0  0  0  0  0  0  0  0  0  0  0
   -4.7935    9.7780   -8.0417 C   0  0  0  0  0  0  0  0  0  0  0  0
   -4.0936   13.5458   -6.3664 C   0  0  0  0  0  0  0  0  0  0  0  0
   -2.7885   13.5288   -6.3742 N   0  0  0  0  0  0  0  0  0  0  0  0
   -2.3831   12.3683   -6.8823 N   0  0  3  0  0  0  0  0  0  0  0  0
   -0.9539   12.1016   -6.9897 C   0  0  0  0  0  0  0  0  0  0  0  0
   -6.0597   12.2849   -9.8771 H   0  0  0  0  0  0  0  0  0  0  0  0
   -8.1927   10.1256  -13.8924 H   0  0  0  0  0  0  0  0  0  0  0  0
   -6.9098   12.2595  -14.0890 H   0  0  0  0  0  0  0  0  0  0  0  0
   -8.8936    8.2087  -11.8823 H   0  0  0  0  0  0  0  0  0  0  0  0
   -8.0161    9.5818   -7.2548 H   0  0  0  0  0  0  0  0  0  0  0  0
   -4.1771   12.8456  -10.8951 H   0  0  0  0  0  0  0  0  0  0  0  0
   -2.5640   14.5209  -10.9247 H   0  0  0  0  0  0  0  0  0  0  0  0
   -3.0770   14.8334  -12.6175 H   0  0  0  0  0  0  0  0  0  0  0  0
   -3.9113   15.6608  -11.2589 H   0  0  0  0  0  0  0  0  0  0  0  0
   -6.7769   12.3203   -6.9046 H   0  0  0  0  0  0  0  0  0  0  0  0
   -3.4389   12.0070   -8.2491 H   0  0  0  0  0  0  0  0  0  0  0  0
   -2.6169    9.7197   -8.0459 H   0  0  0  0  0  0  0  0  0  0  0  0
   -4.8951    8.7966   -8.4810 H   0  0  0  0  0  0  0  0  0  0  0  0
   -4.6981   14.3639   -6.0034 H   0  0  0  0  0  0  0  0  0  0  0  0
   -0.3895   12.9643   -6.6059 H   0  0  0  0  0  0  0  0  0  0  0  0
   -0.7026   11.2076   -6.4002 H   0  0  0  0  0  0  0  0  0  0  0  0
   -0.6910   11.9314   -8.0442 H   0  0  0  0  0  0  0  0  0  0  0  0
  1  2  2  0  0  0  0
  1  4  1  0  0  0  0
  1 13  1  0  0  0  0
  2  6  1  0  0  0  0
  3  4  2  0  0  0  0
  3  5  1  0  0  0  0
  5  6  2  0  0  0  0
  5  9  1  0  0  0  0
  6  7  1  0  0  0  0
  7  8  2  0  0  0  0
  7 10  1  0  0  0  0
  8  9  1  0  0  0  0
 10 15  2  3  0  0  0
 11 12  1  0  0  0  0
 11 13  1  0  0  0  0
 13 14  2  0  0  0  0
 15 16  1  0  0  0  0
 15 20  1  0  0  0  0
 16 17  2  0  0  0  0
 17 18  1  0  0  0  0
 17 21  1  0  0  0  0
 18 19  1  0  0  0  0
 18 23  1  0  0  0  0
 19 20  2  0  0  0  0
 21 22  2  0  0  0  0
 22 23  1  0  0  0  0
 23 24  1  0  0  0  0
  2 25  1  0  0  0  0
  3 26  1  0  0  0  0
  4 27  1  0  0  0  0
  9 28  1  0  0  0  0
 10 29  1  0  0  0  0
 11 30  1  0  0  0  0
 12 31  1  0  0  0  0
 12 32  1  0  0  0  0
 12 33  1  0  0  0  0
 16 34  1  0  0  0  0
 18 35  1  0  0  0  0
 19 36  1  0  0  0  0
 20 37  1  0  0  0  0
 21 38  1  0  0  0  0
 24 39  1  0  0  0  0
 24 40  1  0  0  0  0
 24 41  1  0  0  0  0
M  END
> <Name>
18

> <IC50[uM]>
0.01

$$$$
18
  -OEChem-05192314333D
 Structure written by MMmdl.
 41 44  0     1  0  0  0  0  0999 V2000
   -6.3808   12.3686  -12.0119 C   0  0  3  0  0  0  0  0  0  0  0  0
   -6.5112   11.8116  -10.7365 C   0  0  0  0  0  0  0  0  0  0  0  0
   -7.7301   10.5824  -13.0300 C   0  0  0  0  0  0  0  0  0  0  0  0
   -6.9992   11.7782  -13.1263 C   0  0  0  0  0  0  0  0  0  0  0  0
   -7.8250   10.0166  -11.7542 C   0  0  3  0  0  0  0  0  0  0  0  0
   -7.2407   10.6266  -10.6010 C   0  0  0  0  0  0  0  0  0  0  0  0
   -7.6094    9.7513   -9.5103 C   0  0  0  0  0  0  0  0  0  0  0  0
   -8.2849    8.7404   -9.9846 N   0  0  0  0  0  0  0  0  0  0  0  0
   -8.4192    8.8674  -11.2983 N   0  0  0  0  0  0  0  0  0  0  0  0
   -7.3225    9.8872   -8.0242 C   0  0  0  0  0  0  0  0  0  0  0  0
   -4.3834   13.6199  -11.4933 N   0  0  0  0  0  0  0  0  0  0  0  0
   -3.4237   14.7282  -11.5789 C   0  0  0  0  0  0  0  0  0  0  0  0
   -5.5369   13.6139  -12.1980 C   0  0  0  0  0  0  0  0  0  0  0  0
   -5.8771   14.5161  -12.9653 O   0  0  0  0  0  0  0  0  0  0  0  0
   -5.9516   10.5005   -7.7272 C   0  0  0  0  0  0  0  0  0  0  0  0
   -5.8803   11.7722   -7.1539 C   0  0  0  0  0  0  0  0  0  0  0  0
   -4.6129   12.3159   -6.9118 C   0  0  0  0  0  0  0  0  0  0  0  0
   -3.4418   11.5625   -7.2429 C   0  0  0  0  0  0  0  0  0  0  0  0
   -3.5059   10.2842   -7.8062 C   0  0  0  0  0  0  0  0  0  0  0  0
   -4.7935    9.7780   -8.0417 C   0  0  0  0  0  0  0  0  0  0  0  0
   -4.0936   13.5458   -6.3664 C   0  0  0  0  0  0  0  0  0  0  0  0
   -2.7885   13.5288   -6.3742 N   0  0  0  0  0  0  0  0  0  0  0  0
   -2.3831   12.3683   -6.8823 N   0  0  0  0  0  0  0  0  0  0  0  0
   -0.9539   12.1016   -6.9897 C   0  0  0  0  0  0  0  0  0  0  0  0
   -7.2714   12.9905  -11.8387 H   0  0  0  0  0  0  0  0  0  0  0  0
   -6.0597   12.2849   -9.8771 H   0  0  0  0  0  0  0  0  0  0  0  0
   -8.1927   10.1256  -13.8924 H   0  0  0  0  0  0  0  0  0  0  0  0
   -6.9098   12.2595  -14.0890 H   0  0  0  0  0  0  0  0  0  0  0  0
   -8.7581   10.5712  -11.5763 H   0  0  0  0  0  0  0  0  0  0  0  0
   -8.0161    9.5818   -7.2548 H   0  0  0  0  0  0  0  0  0  0  0  0
   -2.5640   14.5209  -10.9247 H   0  0  0  0  0  0  0  0  0  0  0  0
   -3.0770   14.8334  -12.6175 H   0  0  0  0  0  0  0  0  0  0  0  0
   -3.9113   15.6608  -11.2589 H   0  0  0  0  0  0  0  0  0  0  0  0
   -5.2270   15.2086  -12.9486 H   0  0  0  0  0  0  0  0  0  0  0  0
   -6.7769   12.3203   -6.9046 H   0  0  0  0  0  0  0  0  0  0  0  0
   -2.6169    9.7197   -8.0459 H   0  0  0  0  0  0  0  0  0  0  0  0
   -4.8951    8.7966   -8.4810 H   0  0  0  0  0  0  0  0  0  0  0  0
   -4.6981   14.3639   -6.0034 H   0  0  0  0  0  0  0  0  0  0  0  0
   -0.3895   12.9643   -6.6059 H   0  0  0  0  0  0  0  0  0  0  0  0
   -0.7026   11.2076   -6.4002 H   0  0  0  0  0  0  0  0  0  0  0  0
   -0.6910   11.9314   -8.0442 H   0  0  0  0  0  0  0  0  0  0  0  0
  1  2  1  0  0  0  0
  1  4  1  0  0  0  0
  1 13  1  0  0  0  0
  2  6  2  0  0  0  0
  3  4  2  0  0  0  0
  3  5  1  0  0  0  0
  5  6  1  0  0  0  0
  5  9  1  0  0  0  0
  6  7  1  0  0  0  0
  7  8  1  0  0  0  0
  7 10  2  3  0  0  0
  8  9  2  0  0  0  0
 10 15  1  0  0  0  0
 11 12  1  0  0  0  0
 11 13  2  0  0  0  0
 13 14  1  0  0  0  0
 15 16  2  0  0  0  0
 15 20  1  0  0  0  0
 16 17  1  0  0  0  0
 17 18  2  0  0  0  0
 17 21  1  0  0  0  0
 18 19  1  0  0  0  0
 18 23  1  0  0  0  0
 19 20  2  0  0  0  0
 21 22  2  0  0  0  0
 22 23  1  0  0  0  0
 23 24  1  0  0  0  0
  1 25  1  0  0  0  0
  2 26  1  0  0  0  0
  3 27  1  0  0  0  0
  4 28  1  0  0  0  0
  5 29  1  0  0  0  0
 10 30  1  0  0  0  0
 12 31  1  0  0  0  0
 12 32  1  0  0  0  0
 12 33  1  0  0  0  0
 14 34  1  0  0  0  0
 16 35  1  0  0  0  0
 19 36  1  0  0  0  0
 20 37  1  0  0  0  0
 21 38  1  0  0  0  0
 24 39  1  0  0  0  0
 24 40  1  0  0  0  0
 24 41  1  0  0  0  0
M  END
> <Name>
18

> <IC50[uM]>
0.01

$$$$
18
  -OEChem-05192314333D
 Structure written by MMmdl.
 41 44  0     1  0  0  0  0  0999 V2000
   -6.3808   12.3686  -12.0119 C   0  0  0  0  0  0  0  0  0  0  0  0
   -6.5112   11.8116  -10.7365 C   0  0  0  0  0  0  0  0  0  0  0  0
   -7.7301   10.5824  -13.0300 C   0  0  0  0  0  0  0  0  0  0  0  0
   -6.9992   11.7782  -13.1263 C   0  0  0  0  0  0  0  0  0  0  0  0
   -7.8250   10.0166  -11.7542 C   0  0  3  0  0  0  0  0  0  0  0  0
   -7.2407   10.6266  -10.6010 C   0  0  3  0  0  0  0  0  0  0  0  0
   -7.6094    9.7513   -9.5103 C   0  0  0  0  0  0  0  0  0  0  0  0
   -8.2849    8.7404   -9.9846 N   0  0  0  0  0  0  0  0  0  0  0  0
   -8.4192    8.8674  -11.2983 N   0  0  0  0  0  0  0  0  0  0  0  0
   -7.3225    9.8872   -8.0242 C   0  0  0  0  0  0  0  0  0  0  0  0
   -4.3834   13.6199  -11.4933 N   0  0  0  0  0  0  0  0  0  0  0  0
   -3.4237   14.7282  -11.5789 C   0  0  0  0  0  0  0  0  0  0  0  0
   -5.5369   13.6139  -12.1980 C   0  0  0  0  0  0  0  0  0  0  0  0
   -5.8771   14.5161  -12.9653 O   0  0  0  0  0  0  0  0  0  0  0  0
   -5.9516   10.5005   -7.7272 C   0  0  0  0  0  0  0  0  0  0  0  0
   -5.8803   11.7722   -7.1539 C   0  0  0  0  0  0  0  0  0  0  0  0
   -4.6129   12.3159   -6.9118 C   0  0  0  0  0  0  0  0  0  0  0  0
   -3.4418   11.5625   -7.2429 C   0  0  0  0  0  0  0  0  0  0  0  0
   -3.5059   10.2842   -7.8062 C   0  0  0  0  0  0  0  0  0  0  0  0
   -4.7935    9.7780   -8.0417 C   0  0  0  0  0  0  0  0  0  0  0  0
   -4.0936   13.5458   -6.3664 C   0  0  0  0  0  0  0  0  0  0  0  0
   -2.7885   13.5288   -6.3742 N   0  0  0  0  0  0  0  0  0  0  0  0
   -2.3831   12.3683   -6.8823 N   0  0  0  0  0  0  0  0  0  0  0  0
   -0.9539   12.1016   -6.9897 C   0  0  0  0  0  0  0  0  0  0  0  0
   -6.0597   12.2849   -9.8771 H   0  0  0  0  0  0  0  0  0  0  0  0
   -8.1927   10.1256  -13.8924 H   0  0  0  0  0  0  0  0  0  0  0  0
   -6.9098   12.2595  -14.0890 H   0  0  0  0  0  0  0  0  0  0  0  0
   -8.7581   10.5712  -11.5763 H   0  0  0  0  0  0  0  0  0  0  0  0
   -8.1598   11.2101  -10.4437 H   0  0  0  0  0  0  0  0  0  0  0  0
   -8.0161    9.5818   -7.2548 H   0  0  0  0  0  0  0  0  0  0  0  0
   -2.5640   14.5209  -10.9247 H   0  0  0  0  0  0  0  0  0  0  0  0
   -3.0770   14.8334  -12.6175 H   0  0  0  0  0  0  0  0  0  0  0  0
   -3.9113   15.6608  -11.2589 H   0  0  0  0  0  0  0  0  0  0  0  0
   -5.2270   15.2086  -12.9486 H   0  0  0  0  0  0  0  0  0  0  0  0
   -6.7769   12.3203   -6.9046 H   0  0  0  0  0  0  0  0  0  0  0  0
   -2.6169    9.7197   -8.0459 H   0  0  0  0  0  0  0  0  0  0  0  0
   -4.8951    8.7966   -8.4810 H   0  0  0  0  0  0  0  0  0  0  0  0
   -4.6981   14.3639   -6.0034 H   0  0  0  0  0  0  0  0  0  0  0  0
   -0.3895   12.9643   -6.6059 H   0  0  0  0  0  0  0  0  0  0  0  0
   -0.7026   11.2076   -6.4002 H   0  0  0  0  0  0  0  0  0  0  0  0
   -0.6910   11.9314   -8.0442 H   0  0  0  0  0  0  0  0  0  0  0  0
  1  2  2  0  0  0  0
  1  4  1  0  0  0  0
  1 13  1  0  0  0  0
  2  6  1  0  0  0  0
  3  4  2  0  0  0  0
  3  5  1  0  0  0  0
  5  6  1  0  0  0  0
  5  9  1  0  0  0  0
  6  7  1  0  0  0  0
  7  8  1  0  0  0  0
  7 10  2  3  0  0  0
  8  9  2  0  0  0  0
 10 15  1  0  0  0  0
 11 12  1  0  0  0  0
 11 13  2  0  0  0  0
 13 14  1  0  0  0  0
 15 16  2  0  0  0  0
 15 20  1  0  0  0  0
 16 17  1  0  0  0  0
 17 18  2  0  0  0  0
 17 21  1  0  0  0  0
 18 19  1  0  0  0  0
 18 23  1  0  0  0  0
 19 20  2  0  0  0  0
 21 22  2  0  0  0  0
 22 23  1  0  0  0  0
 23 24  1  0  0  0  0
  2 25  1  0  0  0  0
  3 26  1  0  0  0  0
  4 27  1  0  0  0  0
  5 28  1  0  0  0  0
  6 29  1  0  0  0  0
 10 30  1  0  0  0  0
 12 31  1  0  0  0  0
 12 32  1  0  0  0  0
 12 33  1  0  0  0  0
 14 34  1  0  0  0  0
 16 35  1  0  0  0  0
 19 36  1  0  0  0  0
 20 37  1  0  0  0  0
 21 38  1  0  0  0  0
 24 39  1  0  0  0  0
 24 40  1  0  0  0  0
 24 41  1  0  0  0  0
M  END
> <Name>
18

> <IC50[uM]>
0.01

$$$$
18
  -OEChem-05192314333D
 Structure written by MMmdl.
 41 44  0     1  0  0  0  0  0999 V2000
   -6.3808   12.3686  -12.0119 C   0  0  0  0  0  0  0  0  0  0  0  0
   -6.5112   11.8116  -10.7365 C   0  0  0  0  0  0  0  0  0  0  0  0
   -7.7301   10.5824  -13.0300 C   0  0  0  0  0  0  0  0  0  0  0  0
   -6.9992   11.7782  -13.1263 C   0  0  0  0  0  0  0  0  0  0  0  0
   -7.8250   10.0166  -11.7542 C   0  0  3  0  0  0  0  0  0  0  0  0
   -7.2407   10.6266  -10.6010 C   0  0  0  0  0  0  0  0  0  0  0  0
   -7.6094    9.7513   -9.5103 C   0  0  0  0  0  0  0  0  0  0  0  0
   -8.2849    8.7404   -9.9846 N   0  0  0  0  0  0  0  0  0  0  0  0
   -8.4192    8.8674  -11.2983 N   0  0  0  0  0  0  0  0  0  0  0  0
   -7.3225    9.8872   -8.0242 C   0  0  0  0  0  0  0  0  0  0  0  0
   -4.3834   13.6199  -11.4933 N   0  0  0  0  0  0  0  0  0  0  0  0
   -3.4237   14.7282  -11.5789 C   0  0  0  0  0  0  0  0  0  0  0  0
   -5.5369   13.6139  -12.1980 C   0  0  0  0  0  0  0  0  0  0  0  0
   -5.8771   14.5161  -12.9653 O   0  0  0  0  0  0  0  0  0  0  0  0
   -5.9516   10.5005   -7.7272 C   0  0  0  0  0  0  0  0  0  0  0  0
   -5.8803   11.7722   -7.1539 C   0  0  0  0  0  0  0  0  0  0  0  0
   -4.6129   12.3159   -6.9118 C   0  0  0  0  0  0  0  0  0  0  0  0
   -3.4418   11.5625   -7.2429 C   0  0  0  0  0  0  0  0  0  0  0  0
   -3.5059   10.2842   -7.8062 C   0  0  0  0  0  0  0  0  0  0  0  0
   -4.7935    9.7780   -8.0417 C   0  0  0  0  0  0  0  0  0  0  0  0
   -4.0936   13.5458   -6.3664 C   0  0  0  0  0  0  0  0  0  0  0  0
   -2.7885   13.5288   -6.3742 N   0  0  0  0  0  0  0  0  0  0  0  0
   -2.3831   12.3683   -6.8823 N   0  0  0  0  0  0  0  0  0  0  0  0
   -0.9539   12.1016   -6.9897 C   0  0  0  0  0  0  0  0  0  0  0  0
   -6.0597   12.2849   -9.8771 H   0  0  0  0  0  0  0  0  0  0  0  0
   -8.7517   10.7843  -13.3842 H   0  0  0  0  0  0  0  0  0  0  0  0
   -7.2525    9.8433  -13.6900 H   0  0  0  0  0  0  0  0  0  0  0  0
   -6.9098   12.2595  -14.0890 H   0  0  0  0  0  0  0  0  0  0  0  0
   -8.7581   10.5712  -11.5763 H   0  0  0  0  0  0  0  0  0  0  0  0
   -8.0161    9.5818   -7.2548 H   0  0  0  0  0  0  0  0  0  0  0  0
   -2.5640   14.5209  -10.9247 H   0  0  0  0  0  0  0  0  0  0  0  0
   -3.0770   14.8334  -12.6175 H   0  0  0  0  0  0  0  0  0  0  0  0
   -3.9113   15.6608  -11.2589 H   0  0  0  0  0  0  0  0  0  0  0  0
   -5.2270   15.2086  -12.9486 H   0  0  0  0  0  0  0  0  0  0  0  0
   -6.7769   12.3203   -6.9046 H   0  0  0  0  0  0  0  0  0  0  0  0
   -2.6169    9.7197   -8.0459 H   0  0  0  0  0  0  0  0  0  0  0  0
   -4.8951    8.7966   -8.4810 H   0  0  0  0  0  0  0  0  0  0  0  0
   -4.6981   14.3639   -6.0034 H   0  0  0  0  0  0  0  0  0  0  0  0
   -0.3895   12.9643   -6.6059 H   0  0  0  0  0  0  0  0  0  0  0  0
   -0.7026   11.2076   -6.4002 H   0  0  0  0  0  0  0  0  0  0  0  0
   -0.6910   11.9314   -8.0442 H   0  0  0  0  0  0  0  0  0  0  0  0
  1  2  1  0  0  0  0
  1  4  2  0  0  0  0
  1 13  1  0  0  0  0
  2  6  2  0  0  0  0
  3  4  1  0  0  0  0
  3  5  1  0  0  0  0
  5  6  1  0  0  0  0
  5  9  1  0  0  0  0
  6  7  1  0  0  0  0
  7  8  1  0  0  0  0
  7 10  2  3  0  0  0
  8  9  2  0  0  0  0
 10 15  1  0  0  0  0
 11 12  1  0  0  0  0
 11 13  2  0  0  0  0
 13 14  1  0  0  0  0
 15 16  2  0  0  0  0
 15 20  1  0  0  0  0
 16 17  1  0  0  0  0
 17 18  2  0  0  0  0
 17 21  1  0  0  0  0
 18 19  1  0  0  0  0
 18 23  1  0  0  0  0
 19 20  2  0  0  0  0
 21 22  2  0  0  0  0
 22 23  1  0  0  0  0
 23 24  1  0  0  0  0
  2 25  1  0  0  0  0
  3 26  1  0  0  0  0
  3 27  1  0  0  0  0
  4 28  1  0  0  0  0
  5 29  1  0  0  0  0
 10 30  1  0  0  0  0
 12 31  1  0  0  0  0
 12 32  1  0  0  0  0
 12 33  1  0  0  0  0
 14 34  1  0  0  0  0
 16 35  1  0  0  0  0
 19 36  1  0  0  0  0
 20 37  1  0  0  0  0
 21 38  1  0  0  0  0
 24 39  1  0  0  0  0
 24 40  1  0  0  0  0
 24 41  1  0  0  0  0
M  END
> <Name>
18

> <IC50[uM]>
0.01

$$$$
18
  -OEChem-05192314333D
 Structure written by MMmdl.
 41 44  0     1  0  0  0  0  0999 V2000
   -6.3808   12.3686  -12.0119 C   0  0  3  0  0  0  0  0  0  0  0  0
   -6.5112   11.8116  -10.7365 C   0  0  0  0  0  0  0  0  0  0  0  0
   -7.7301   10.5824  -13.0300 C   0  0  0  0  0  0  0  0  0  0  0  0
   -6.9992   11.7782  -13.1263 C   0  0  0  0  0  0  0  0  0  0  0  0
   -7.8250   10.0166  -11.7542 C   0  0  0  0  0  0  0  0  0  0  0  0
   -7.2407   10.6266  -10.6010 C   0  0  0  0  0  0  0  0  0  0  0  0
   -7.6094    9.7513   -9.5103 C   0  0  0  0  0  0  0  0  0  0  0  0
   -8.2849    8.7404   -9.9846 N   0  0  0  0  0  0  0  0  0  0  0  0
   -8.4192    8.8674  -11.2983 N   0  0  0  0  0  0  0  0  0  0  0  0
   -7.3225    9.8872   -8.0242 C   0  0  0  0  0  0  0  0  0  0  0  0
   -4.3834   13.6199  -11.4933 N   0  0  0  0  0  0  0  0  0  0  0  0
   -3.4237   14.7282  -11.5789 C   0  0  0  0  0  0  0  0  0  0  0  0
   -5.5369   13.6139  -12.1980 C   0  0  0  0  0  0  0  0  0  0  0  0
   -5.8771   14.5161  -12.9653 O   0  0  0  0  0  0  0  0  0  0  0  0
   -5.9516   10.5005   -7.7272 C   0  0  0  0  0  0  0  0  0  0  0  0
   -5.8803   11.7722   -7.1539 C   0  0  0  0  0  0  0  0  0  0  0  0
   -4.6129   12.3159   -6.9118 C   0  0  0  0  0  0  0  0  0  0  0  0
   -3.4418   11.5625   -7.2429 C   0  0  0  0  0  0  0  0  0  0  0  0
   -3.5059   10.2842   -7.8062 C   0  0  0  0  0  0  0  0  0  0  0  0
   -4.7935    9.7780   -8.0417 C   0  0  0  0  0  0  0  0  0  0  0  0
   -4.0936   13.5458   -6.3664 C   0  0  0  0  0  0  0  0  0  0  0  0
   -2.7885   13.5288   -6.3742 N   0  0  0  0  0  0  0  0  0  0  0  0
   -2.3831   12.3683   -6.8823 N   0  0  0  0  0  0  0  0  0  0  0  0
   -0.9539   12.1016   -6.9897 C   0  0  0  0  0  0  0  0  0  0  0  0
   -7.2714   12.9905  -11.8387 H   0  0  0  0  0  0  0  0  0  0  0  0
   -6.0597   12.2849   -9.8771 H   0  0  0  0  0  0  0  0  0  0  0  0
   -8.1927   10.1256  -13.8924 H   0  0  0  0  0  0  0  0  0  0  0  0
   -7.6938   12.5312  -13.5268 H   0  0  0  0  0  0  0  0  0  0  0  0
   -6.1994   11.5912  -13.8580 H   0  0  0  0  0  0  0  0  0  0  0  0
   -8.0161    9.5818   -7.2548 H   0  0  0  0  0  0  0  0  0  0  0  0
   -2.5640   14.5209  -10.9247 H   0  0  0  0  0  0  0  0  0  0  0  0
   -3.0770   14.8334  -12.6175 H   0  0  0  0  0  0  0  0  0  0  0  0
   -3.9113   15.6608  -11.2589 H   0  0  0  0  0  0  0  0  0  0  0  0
   -5.2270   15.2086  -12.9486 H   0  0  0  0  0  0  0  0  0  0  0  0
   -6.7769   12.3203   -6.9046 H   0  0  0  0  0  0  0  0  0  0  0  0
   -2.6169    9.7197   -8.0459 H   0  0  0  0  0  0  0  0  0  0  0  0
   -4.8951    8.7966   -8.4810 H   0  0  0  0  0  0  0  0  0  0  0  0
   -4.6981   14.3639   -6.0034 H   0  0  0  0  0  0  0  0  0  0  0  0
   -0.3895   12.9643   -6.6059 H   0  0  0  0  0  0  0  0  0  0  0  0
   -0.7026   11.2076   -6.4002 H   0  0  0  0  0  0  0  0  0  0  0  0
   -0.6910   11.9314   -8.0442 H   0  0  0  0  0  0  0  0  0  0  0  0
  1  2  1  0  0  0  0
  1  4  1  0  0  0  0
  1 13  1  0  0  0  0
  2  6  2  0  0  0  0
  3  4  1  0  0  0  0
  3  5  2  0  0  0  0
  5  6  1  0  0  0  0
  5  9  1  0  0  0  0
  6  7  1  0  0  0  0
  7  8  1  0  0  0  0
  7 10  2  3  0  0  0
  8  9  2  0  0  0  0
 10 15  1  0  0  0  0
 11 12  1  0  0  0  0
 11 13  2  0  0  0  0
 13 14  1  0  0  0  0
 15 16  2  0  0  0  0
 15 20  1  0  0  0  0
 16 17  1  0  0  0  0
 17 18  2  0  0  0  0
 17 21  1  0  0  0  0
 18 19  1  0  0  0  0
 18 23  1  0  0  0  0
 19 20  2  0  0  0  0
 21 22  2  0  0  0  0
 22 23  1  0  0  0  0
 23 24  1  0  0  0  0
  1 25  1  0  0  0  0
  2 26  1  0  0  0  0
  3 27  1  0  0  0  0
  4 28  1  0  0  0  0
  4 29  1  0  0  0  0
 10 30  1  0  0  0  0
 12 31  1  0  0  0  0
 12 32  1  0  0  0  0
 12 33  1  0  0  0  0
 14 34  1  0  0  0  0
 16 35  1  0  0  0  0
 19 36  1  0  0  0  0
 20 37  1  0  0  0  0
 21 38  1  0  0  0  0
 24 39  1  0  0  0  0
 24 40  1  0  0  0  0
 24 41  1  0  0  0  0
M  END
> <Name>
18

> <IC50[uM]>
0.01

$$$$
18
  -OEChem-05192314333D
 Structure written by MMmdl.
 41 44  0     1  0  0  0  0  0999 V2000
   -6.3808   12.3686  -12.0119 C   0  0  0  0  0  0  0  0  0  0  0  0
   -6.5112   11.8116  -10.7365 C   0  0  0  0  0  0  0  0  0  0  0  0
   -7.7301   10.5824  -13.0300 C   0  0  0  0  0  0  0  0  0  0  0  0
   -6.9992   11.7782  -13.1263 C   0  0  0  0  0  0  0  0  0  0  0  0
   -7.8250   10.0166  -11.7542 C   0  0  0  0  0  0  0  0  0  0  0  0
   -7.2407   10.6266  -10.6010 C   0  0  3  0  0  0  0  0  0  0  0  0
   -7.6094    9.7513   -9.5103 C   0  0  0  0  0  0  0  0  0  0  0  0
   -8.2849    8.7404   -9.9846 N   0  0  0  0  0  0  0  0  0  0  0  0
   -8.4192    8.8674  -11.2983 N   0  0  0  0  0  0  0  0  0  0  0  0
   -7.3225    9.8872   -8.0242 C   0  0  0  0  0  0  0  0  0  0  0  0
   -4.3834   13.6199  -11.4933 N   0  0  0  0  0  0  0  0  0  0  0  0
   -3.4237   14.7282  -11.5789 C   0  0  0  0  0  0  0  0  0  0  0  0
   -5.5369   13.6139  -12.1980 C   0  0  0  0  0  0  0  0  0  0  0  0
   -5.8771   14.5161  -12.9653 O   0  0  0  0  0  0  0  0  0  0  0  0
   -5.9516   10.5005   -7.7272 C   0  0  0  0  0  0  0  0  0  0  0  0
   -5.8803   11.7722   -7.1539 C   0  0  0  0  0  0  0  0  0  0  0  0
   -4.6129   12.3159   -6.9118 C   0  0  0  0  0  0  0  0  0  0  0  0
   -3.4418   11.5625   -7.2429 C   0  0  0  0  0  0  0  0  0  0  0  0
   -3.5059   10.2842   -7.8062 C   0  0  0  0  0  0  0  0  0  0  0  0
   -4.7935    9.7780   -8.0417 C   0  0  0  0  0  0  0  0  0  0  0  0
   -4.0936   13.5458   -6.3664 C   0  0  0  0  0  0  0  0  0  0  0  0
   -2.7885   13.5288   -6.3742 N   0  0  0  0  0  0  0  0  0  0  0  0
   -2.3831   12.3683   -6.8823 N   0  0  0  0  0  0  0  0  0  0  0  0
   -0.9539   12.1016   -6.9897 C   0  0  0  0  0  0  0  0  0  0  0  0
   -6.0597   12.2849   -9.8771 H   0  0  0  0  0  0  0  0  0  0  0  0
   -8.1927   10.1256  -13.8924 H   0  0  0  0  0  0  0  0  0  0  0  0
   -7.6938   12.5312  -13.5268 H   0  0  0  0  0  0  0  0  0  0  0  0
   -6.1994   11.5912  -13.8580 H   0  0  0  0  0  0  0  0  0  0  0  0
   -8.1598   11.2101  -10.4437 H   0  0  0  0  0  0  0  0  0  0  0  0
   -8.0161    9.5818   -7.2548 H   0  0  0  0  0  0  0  0  0  0  0  0
   -2.5640   14.5209  -10.9247 H   0  0  0  0  0  0  0  0  0  0  0  0
   -3.0770   14.8334  -12.6175 H   0  0  0  0  0  0  0  0  0  0  0  0
   -3.9113   15.6608  -11.2589 H   0  0  0  0  0  0  0  0  0  0  0  0
   -5.2270   15.2086  -12.9486 H   0  0  0  0  0  0  0  0  0  0  0  0
   -6.7769   12.3203   -6.9046 H   0  0  0  0  0  0  0  0  0  0  0  0
   -2.6169    9.7197   -8.0459 H   0  0  0  0  0  0  0  0  0  0  0  0
   -4.8951    8.7966   -8.4810 H   0  0  0  0  0  0  0  0  0  0  0  0
   -4.6981   14.3639   -6.0034 H   0  0  0  0  0  0  0  0  0  0  0  0
   -0.3895   12.9643   -6.6059 H   0  0  0  0  0  0  0  0  0  0  0  0
   -0.7026   11.2076   -6.4002 H   0  0  0  0  0  0  0  0  0  0  0  0
   -0.6910   11.9314   -8.0442 H   0  0  0  0  0  0  0  0  0  0  0  0
  1  2  2  0  0  0  0
  1  4  1  0  0  0  0
  1 13  1  0  0  0  0
  2  6  1  0  0  0  0
  3  4  1  0  0  0  0
  3  5  2  0  0  0  0
  5  6  1  0  0  0  0
  5  9  1  0  0  0  0
  6  7  1  0  0  0  0
  7  8  1  0  0  0  0
  7 10  2  3  0  0  0
  8  9  2  0  0  0  0
 10 15  1  0  0  0  0
 11 12  1  0  0  0  0
 11 13  2  0  0  0  0
 13 14  1  0  0  0  0
 15 16  2  0  0  0  0
 15 20  1  0  0  0  0
 16 17  1  0  0  0  0
 17 18  2  0  0  0  0
 17 21  1  0  0  0  0
 18 19  1  0  0  0  0
 18 23  1  0  0  0  0
 19 20  2  0  0  0  0
 21 22  2  0  0  0  0
 22 23  1  0  0  0  0
 23 24  1  0  0  0  0
  2 25  1  0  0  0  0
  3 26  1  0  0  0  0
  4 27  1  0  0  0  0
  4 28  1  0  0  0  0
  6 29  1  0  0  0  0
 10 30  1  0  0  0  0
 12 31  1  0  0  0  0
 12 32  1  0  0  0  0
 12 33  1  0  0  0  0
 14 34  1  0  0  0  0
 16 35  1  0  0  0  0
 19 36  1  0  0  0  0
 20 37  1  0  0  0  0
 21 38  1  0  0  0  0
 24 39  1  0  0  0  0
 24 40  1  0  0  0  0
 24 41  1  0  0  0  0
M  END
> <Name>
18

> <IC50[uM]>
0.01

$$$$
18
  -OEChem-05192314333D
 Structure written by MMmdl.
 41 44  0     0  0  0  0  0  0999 V2000
   -6.3808   12.3686  -12.0119 C   0  0  0  0  0  0  0  0  0  0  0  0
   -6.5112   11.8116  -10.7365 C   0  0  0  0  0  0  0  0  0  0  0  0
   -7.7301   10.5824  -13.0300 C   0  0  0  0  0  0  0  0  0  0  0  0
   -6.9992   11.7782  -13.1263 C   0  0  0  0  0  0  0  0  0  0  0  0
   -7.8250   10.0166  -11.7542 C   0  0  0  0  0  0  0  0  0  0  0  0
   -7.2407   10.6266  -10.6010 C   0  0  0  0  0  0  0  0  0  0  0  0
   -7.6094    9.7513   -9.5103 C   0  0  0  0  0  0  0  0  0  0  0  0
   -8.2849    8.7404   -9.9846 N   0  0  0  0  0  0  0  0  0  0  0  0
   -8.4192    8.8674  -11.2983 N   0  0  0  0  0  0  0  0  0  0  0  0
   -7.3225    9.8872   -8.0242 C   0  0  0  0  0  0  0  0  0  0  0  0
   -4.3834   13.6199  -11.4933 N   0  0  0  0  0  0  0  0  0  0  0  0
   -3.4237   14.7282  -11.5789 C   0  0  0  0  0  0  0  0  0  0  0  0
   -5.5369   13.6139  -12.1980 C   0  0  0  0  0  0  0  0  0  0  0  0
   -5.8771   14.5161  -12.9653 O   0  0  0  0  0  0  0  0  0  0  0  0
   -5.9516   10.5005   -7.7272 C   0  0  0  0  0  0  0  0  0  0  0  0
   -5.8803   11.7722   -7.1539 C   0  0  0  0  0  0  0  0  0  0  0  0
   -4.6129   12.3159   -6.9118 C   0  0  0  0  0  0  0  0  0  0  0  0
   -3.4418   11.5625   -7.2429 C   0  0  0  0  0  0  0  0  0  0  0  0
   -3.5059   10.2842   -7.8062 C   0  0  0  0  0  0  0  0  0  0  0  0
   -4.7935    9.7780   -8.0417 C   0  0  0  0  0  0  0  0  0  0  0  0
   -4.0936   13.5458   -6.3664 C   0  0  0  0  0  0  0  0  0  0  0  0
   -2.7885   13.5288   -6.3742 N   0  0  0  0  0  0  0  0  0  0  0  0
   -2.3831   12.3683   -6.8823 N   0  0  0  0  0  0  0  0  0  0  0  0
   -0.9539   12.1016   -6.9897 C   0  0  0  0  0  0  0  0  0  0  0  0
   -6.0597   12.2849   -9.8771 H   0  0  0  0  0  0  0  0  0  0  0  0
   -8.7517   10.7843  -13.3842 H   0  0  0  0  0  0  0  0  0  0  0  0
   -7.2525    9.8433  -13.6900 H   0  0  0  0  0  0  0  0  0  0  0  0
   -7.6938   12.5312  -13.5268 H   0  0  0  0  0  0  0  0  0  0  0  0
   -6.1994   11.5912  -13.8580 H   0  0  0  0  0  0  0  0  0  0  0  0
   -8.0161    9.5818   -7.2548 H   0  0  0  0  0  0  0  0  0  0  0  0
   -2.5640   14.5209  -10.9247 H   0  0  0  0  0  0  0  0  0  0  0  0
   -3.0770   14.8334  -12.6175 H   0  0  0  0  0  0  0  0  0  0  0  0
   -3.9113   15.6608  -11.2589 H   0  0  0  0  0  0  0  0  0  0  0  0
   -5.2270   15.2086  -12.9486 H   0  0  0  0  0  0  0  0  0  0  0  0
   -6.7769   12.3203   -6.9046 H   0  0  0  0  0  0  0  0  0  0  0  0
   -2.6169    9.7197   -8.0459 H   0  0  0  0  0  0  0  0  0  0  0  0
   -4.8951    8.7966   -8.4810 H   0  0  0  0  0  0  0  0  0  0  0  0
   -4.6981   14.3639   -6.0034 H   0  0  0  0  0  0  0  0  0  0  0  0
   -0.3895   12.9643   -6.6059 H   0  0  0  0  0  0  0  0  0  0  0  0
   -0.7026   11.2076   -6.4002 H   0  0  0  0  0  0  0  0  0  0  0  0
   -0.6910   11.9314   -8.0442 H   0  0  0  0  0  0  0  0  0  0  0  0
  1  2  2  0  0  0  0
  1  4  1  0  0  0  0
  1 13  1  0  0  0  0
  2  6  1  0  0  0  0
  3  4  1  0  0  0  0
  3  5  1  0  0  0  0
  5  6  2  0  0  0  0
  5  9  1  0  0  0  0
  6  7  1  0  0  0  0
  7  8  1  0  0  0  0
  7 10  2  3  0  0  0
  8  9  2  0  0  0  0
 10 15  1  0  0  0  0
 11 12  1  0  0  0  0
 11 13  2  0  0  0  0
 13 14  1  0  0  0  0
 15 16  2  0  0  0  0
 15 20  1  0  0  0  0
 16 17  1  0  0  0  0
 17 18  2  0  0  0  0
 17 21  1  0  0  0  0
 18 19  1  0  0  0  0
 18 23  1  0  0  0  0
 19 20  2  0  0  0  0
 21 22  2  0  0  0  0
 22 23  1  0  0  0  0
 23 24  1  0  0  0  0
  2 25  1  0  0  0  0
  3 26  1  0  0  0  0
  3 27  1  0  0  0  0
  4 28  1  0  0  0  0
  4 29  1  0  0  0  0
 10 30  1  0  0  0  0
 12 31  1  0  0  0  0
 12 32  1  0  0  0  0
 12 33  1  0  0  0  0
 14 34  1  0  0  0  0
 16 35  1  0  0  0  0
 19 36  1  0  0  0  0
 20 37  1  0  0  0  0
 21 38  1  0  0  0  0
 24 39  1  0  0  0  0
 24 40  1  0  0  0  0
 24 41  1  0  0  0  0
M  END
> <Name>
18

> <IC50[uM]>
0.01

$$$$
18
  -OEChem-05192314333D
 Structure written by MMmdl.
 41 44  0     1  0  0  0  0  0999 V2000
   -6.3808   12.3686  -12.0119 C   0  0  3  0  0  0  0  0  0  0  0  0
   -6.5112   11.8116  -10.7365 C   0  0  0  0  0  0  0  0  0  0  0  0
   -7.7301   10.5824  -13.0300 C   0  0  0  0  0  0  0  0  0  0  0  0
   -6.9992   11.7782  -13.1263 C   0  0  0  0  0  0  0  0  0  0  0  0
   -7.8250   10.0166  -11.7542 C   0  0  0  0  0  0  0  0  0  0  0  0
   -7.2407   10.6266  -10.6010 C   0  0  0  0  0  0  0  0  0  0  0  0
   -7.6094    9.7513   -9.5103 C   0  0  0  0  0  0  0  0  0  0  0  0
   -8.2849    8.7404   -9.9846 N   0  0  0  0  0  0  0  0  0  0  0  0
   -8.4192    8.8674  -11.2983 N   0  0  0  0  0  0  0  0  0  0  0  0
   -7.3225    9.8872   -8.0242 C   0  0  0  0  0  0  0  0  0  0  0  0
   -4.3834   13.6199  -11.4933 N   0  0  0  0  0  0  0  0  0  0  0  0
   -3.4237   14.7282  -11.5789 C   0  0  0  0  0  0  0  0  0  0  0  0
   -5.5369   13.6139  -12.1980 C   0  0  0  0  0  0  0  0  0  0  0  0
   -5.8771   14.5161  -12.9653 O   0  0  0  0  0  0  0  0  0  0  0  0
   -5.9516   10.5005   -7.7272 C   0  0  0  0  0  0  0  0  0  0  0  0
   -5.8803   11.7722   -7.1539 C   0  0  0  0  0  0  0  0  0  0  0  0
   -4.6129   12.3159   -6.9118 C   0  0  0  0  0  0  0  0  0  0  0  0
   -3.4418   11.5625   -7.2429 C   0  0  0  0  0  0  0  0  0  0  0  0
   -3.5059   10.2842   -7.8062 C   0  0  0  0  0  0  0  0  0  0  0  0
   -4.7935    9.7780   -8.0417 C   0  0  0  0  0  0  0  0  0  0  0  0
   -4.0936   13.5458   -6.3664 C   0  0  0  0  0  0  0  0  0  0  0  0
   -2.7885   13.5288   -6.3742 N   0  0  0  0  0  0  0  0  0  0  0  0
   -2.3831   12.3683   -6.8823 N   0  0  0  0  0  0  0  0  0  0  0  0
   -0.9539   12.1016   -6.9897 C   0  0  0  0  0  0  0  0  0  0  0  0
   -7.2714   12.9905  -11.8387 H   0  0  0  0  0  0  0  0  0  0  0  0
   -5.4959   11.6133  -10.3626 H   0  0  0  0  0  0  0  0  0  0  0  0
   -6.9955   12.5665  -10.0997 H   0  0  0  0  0  0  0  0  0  0  0  0
   -8.1927   10.1256  -13.8924 H   0  0  0  0  0  0  0  0  0  0  0  0
   -6.9098   12.2595  -14.0890 H   0  0  0  0  0  0  0  0  0  0  0  0
   -8.0161    9.5818   -7.2548 H   0  0  0  0  0  0  0  0  0  0  0  0
   -2.5640   14.5209  -10.9247 H   0  0  0  0  0  0  0  0  0  0  0  0
   -3.0770   14.8334  -12.6175 H   0  0  0  0  0  0  0  0  0  0  0  0
   -3.9113   15.6608  -11.2589 H   0  0  0  0  0  0  0  0  0  0  0  0
   -5.2270   15.2086  -12.9486 H   0  0  0  0  0  0  0  0  0  0  0  0
   -6.7769   12.3203   -6.9046 H   0  0  0  0  0  0  0  0  0  0  0  0
   -2.6169    9.7197   -8.0459 H   0  0  0  0  0  0  0  0  0  0  0  0
   -4.8951    8.7966   -8.4810 H   0  0  0  0  0  0  0  0  0  0  0  0
   -4.6981   14.3639   -6.0034 H   0  0  0  0  0  0  0  0  0  0  0  0
   -0.3895   12.9643   -6.6059 H   0  0  0  0  0  0  0  0  0  0  0  0
   -0.7026   11.2076   -6.4002 H   0  0  0  0  0  0  0  0  0  0  0  0
   -0.6910   11.9314   -8.0442 H   0  0  0  0  0  0  0  0  0  0  0  0
  1  2  1  0  0  0  0
  1  4  1  0  0  0  0
  1 13  1  0  0  0  0
  2  6  1  0  0  0  0
  3  4  2  0  0  0  0
  3  5  1  0  0  0  0
  5  6  2  0  0  0  0
  5  9  1  0  0  0  0
  6  7  1  0  0  0  0
  7  8  1  0  0  0  0
  7 10  2  3  0  0  0
  8  9  2  0  0  0  0
 10 15  1  0  0  0  0
 11 12  1  0  0  0  0
 11 13  2  0  0  0  0
 13 14  1  0  0  0  0
 15 16  2  0  0  0  0
 15 20  1  0  0  0  0
 16 17  1  0  0  0  0
 17 18  2  0  0  0  0
 17 21  1  0  0  0  0
 18 19  1  0  0  0  0
 18 23  1  0  0  0  0
 19 20  2  0  0  0  0
 21 22  2  0  0  0  0
 22 23  1  0  0  0  0
 23 24  1  0  0  0  0
  1 25  1  0  0  0  0
  2 26  1  0  0  0  0
  2 27  1  0  0  0  0
  3 28  1  0  0  0  0
  4 29  1  0  0  0  0
 10 30  1  0  0  0  0
 12 31  1  0  0  0  0
 12 32  1  0  0  0  0
 12 33  1  0  0  0  0
 14 34  1  0  0  0  0
 16 35  1  0  0  0  0
 19 36  1  0  0  0  0
 20 37  1  0  0  0  0
 21 38  1  0  0  0  0
 24 39  1  0  0  0  0
 24 40  1  0  0  0  0
 24 41  1  0  0  0  0
M  END
> <Name>
18

> <IC50[uM]>
0.01

$$$$
18
  -OEChem-05192314333D
 Structure written by MMmdl.
 41 44  0     1  0  0  0  0  0999 V2000
   -6.3808   12.3686  -12.0119 C   0  0  0  0  0  0  0  0  0  0  0  0
   -6.5112   11.8116  -10.7365 C   0  0  0  0  0  0  0  0  0  0  0  0
   -7.7301   10.5824  -13.0300 C   0  0  0  0  0  0  0  0  0  0  0  0
   -6.9992   11.7782  -13.1263 C   0  0  0  0  0  0  0  0  0  0  0  0
   -7.8250   10.0166  -11.7542 C   0  0  0  0  0  0  0  0  0  0  0  0
   -7.2407   10.6266  -10.6010 C   0  0  3  0  0  0  0  0  0  0  0  0
   -7.6094    9.7513   -9.5103 C   0  0  0  0  0  0  0  0  0  0  0  0
   -8.2849    8.7404   -9.9846 N   0  0  0  0  0  0  0  0  0  0  0  0
   -8.4192    8.8674  -11.2983 N   0  0  0  0  0  0  0  0  0  0  0  0
   -7.3225    9.8872   -8.0242 C   0  0  0  0  0  0  0  0  0  0  0  0
   -4.3834   13.6199  -11.4933 N   0  0  0  0  0  0  0  0  0  0  0  0
   -3.4237   14.7282  -11.5789 C   0  0  0  0  0  0  0  0  0  0  0  0
   -5.5369   13.6139  -12.1980 C   0  0  0  0  0  0  0  0  0  0  0  0
   -5.8771   14.5161  -12.9653 O   0  0  0  0  0  0  0  0  0  0  0  0
   -5.9516   10.5005   -7.7272 C   0  0  0  0  0  0  0  0  0  0  0  0
   -5.8803   11.7722   -7.1539 C   0  0  0  0  0  0  0  0  0  0  0  0
   -4.6129   12.3159   -6.9118 C   0  0  0  0  0  0  0  0  0  0  0  0
   -3.4418   11.5625   -7.2429 C   0  0  0  0  0  0  0  0  0  0  0  0
   -3.5059   10.2842   -7.8062 C   0  0  0  0  0  0  0  0  0  0  0  0
   -4.7935    9.7780   -8.0417 C   0  0  0  0  0  0  0  0  0  0  0  0
   -4.0936   13.5458   -6.3664 C   0  0  0  0  0  0  0  0  0  0  0  0
   -2.7885   13.5288   -6.3742 N   0  0  0  0  0  0  0  0  0  0  0  0
   -2.3831   12.3683   -6.8823 N   0  0  0  0  0  0  0  0  0  0  0  0
   -0.9539   12.1016   -6.9897 C   0  0  0  0  0  0  0  0  0  0  0  0
   -5.4959   11.6133  -10.3626 H   0  0  0  0  0  0  0  0  0  0  0  0
   -6.9955   12.5665  -10.0997 H   0  0  0  0  0  0  0  0  0  0  0  0
   -8.1927   10.1256  -13.8924 H   0  0  0  0  0  0  0  0  0  0  0  0
   -6.9098   12.2595  -14.0890 H   0  0  0  0  0  0  0  0  0  0  0  0
   -8.1598   11.2101  -10.4437 H   0  0  0  0  0  0  0  0  0  0  0  0
   -8.0161    9.5818   -7.2548 H   0  0  0  0  0  0  0  0  0  0  0  0
   -2.5640   14.5209  -10.9247 H   0  0  0  0  0  0  0  0  0  0  0  0
   -3.0770   14.8334  -12.6175 H   0  0  0  0  0  0  0  0  0  0  0  0
   -3.9113   15.6608  -11.2589 H   0  0  0  0  0  0  0  0  0  0  0  0
   -5.2270   15.2086  -12.9486 H   0  0  0  0  0  0  0  0  0  0  0  0
   -6.7769   12.3203   -6.9046 H   0  0  0  0  0  0  0  0  0  0  0  0
   -2.6169    9.7197   -8.0459 H   0  0  0  0  0  0  0  0  0  0  0  0
   -4.8951    8.7966   -8.4810 H   0  0  0  0  0  0  0  0  0  0  0  0
   -4.6981   14.3639   -6.0034 H   0  0  0  0  0  0  0  0  0  0  0  0
   -0.3895   12.9643   -6.6059 H   0  0  0  0  0  0  0  0  0  0  0  0
   -0.7026   11.2076   -6.4002 H   0  0  0  0  0  0  0  0  0  0  0  0
   -0.6910   11.9314   -8.0442 H   0  0  0  0  0  0  0  0  0  0  0  0
  1  2  1  0  0  0  0
  1  4  2  0  0  0  0
  1 13  1  0  0  0  0
  2  6  1  0  0  0  0
  3  4  1  0  0  0  0
  3  5  2  0  0  0  0
  5  6  1  0  0  0  0
  5  9  1  0  0  0  0
  6  7  1  0  0  0  0
  7  8  1  0  0  0  0
  7 10  2  3  0  0  0
  8  9  2  0  0  0  0
 10 15  1  0  0  0  0
 11 12  1  0  0  0  0
 11 13  2  0  0  0  0
 13 14  1  0  0  0  0
 15 16  2  0  0  0  0
 15 20  1  0  0  0  0
 16 17  1  0  0  0  0
 17 18  2  0  0  0  0
 17 21  1  0  0  0  0
 18 19  1  0  0  0  0
 18 23  1  0  0  0  0
 19 20  2  0  0  0  0
 21 22  2  0  0  0  0
 22 23  1  0  0  0  0
 23 24  1  0  0  0  0
  2 25  1  0  0  0  0
  2 26  1  0  0  0  0
  3 27  1  0  0  0  0
  4 28  1  0  0  0  0
  6 29  1  0  0  0  0
 10 30  1  0  0  0  0
 12 31  1  0  0  0  0
 12 32  1  0  0  0  0
 12 33  1  0  0  0  0
 14 34  1  0  0  0  0
 16 35  1  0  0  0  0
 19 36  1  0  0  0  0
 20 37  1  0  0  0  0
 21 38  1  0  0  0  0
 24 39  1  0  0  0  0
 24 40  1  0  0  0  0
 24 41  1  0  0  0  0
M  END
> <Name>
18

> <IC50[uM]>
0.01

$$$$
18
  -OEChem-05192314333D
 Structure written by MMmdl.
 41 44  0     0  0  0  0  0  0999 V2000
   -6.3808   12.3686  -12.0119 C   0  0  0  0  0  0  0  0  0  0  0  0
   -6.5112   11.8116  -10.7365 C   0  0  0  0  0  0  0  0  0  0  0  0
   -7.7301   10.5824  -13.0300 C   0  0  0  0  0  0  0  0  0  0  0  0
   -6.9992   11.7782  -13.1263 C   0  0  0  0  0  0  0  0  0  0  0  0
   -7.8250   10.0166  -11.7542 C   0  0  0  0  0  0  0  0  0  0  0  0
   -7.2407   10.6266  -10.6010 C   0  0  0  0  0  0  0  0  0  0  0  0
   -7.6094    9.7513   -9.5103 C   0  0  0  0  0  0  0  0  0  0  0  0
   -8.2849    8.7404   -9.9846 N   0  0  0  0  0  0  0  0  0  0  0  0
   -8.4192    8.8674  -11.2983 N   0  0  0  0  0  0  0  0  0  0  0  0
   -7.3225    9.8872   -8.0242 C   0  0  0  0  0  0  0  0  0  0  0  0
   -4.3834   13.6199  -11.4933 N   0  0  0  0  0  0  0  0  0  0  0  0
   -3.4237   14.7282  -11.5789 C   0  0  0  0  0  0  0  0  0  0  0  0
   -5.5369   13.6139  -12.1980 C   0  0  0  0  0  0  0  0  0  0  0  0
   -5.8771   14.5161  -12.9653 O   0  0  0  0  0  0  0  0  0  0  0  0
   -5.9516   10.5005   -7.7272 C   0  0  0  0  0  0  0  0  0  0  0  0
   -5.8803   11.7722   -7.1539 C   0  0  0  0  0  0  0  0  0  0  0  0
   -4.6129   12.3159   -6.9118 C   0  0  0  0  0  0  0  0  0  0  0  0
   -3.4418   11.5625   -7.2429 C   0  0  0  0  0  0  0  0  0  0  0  0
   -3.5059   10.2842   -7.8062 C   0  0  0  0  0  0  0  0  0  0  0  0
   -4.7935    9.7780   -8.0417 C   0  0  0  0  0  0  0  0  0  0  0  0
   -4.0936   13.5458   -6.3664 C   0  0  0  0  0  0  0  0  0  0  0  0
   -2.7885   13.5288   -6.3742 N   0  0  0  0  0  0  0  0  0  0  0  0
   -2.3831   12.3683   -6.8823 N   0  0  0  0  0  0  0  0  0  0  0  0
   -0.9539   12.1016   -6.9897 C   0  0  0  0  0  0  0  0  0  0  0  0
   -5.4959   11.6133  -10.3626 H   0  0  0  0  0  0  0  0  0  0  0  0
   -6.9955   12.5665  -10.0997 H   0  0  0  0  0  0  0  0  0  0  0  0
   -8.7517   10.7843  -13.3842 H   0  0  0  0  0  0  0  0  0  0  0  0
   -7.2525    9.8433  -13.6900 H   0  0  0  0  0  0  0  0  0  0  0  0
   -6.9098   12.2595  -14.0890 H   0  0  0  0  0  0  0  0  0  0  0  0
   -8.0161    9.5818   -7.2548 H   0  0  0  0  0  0  0  0  0  0  0  0
   -2.5640   14.5209  -10.9247 H   0  0  0  0  0  0  0  0  0  0  0  0
   -3.0770   14.8334  -12.6175 H   0  0  0  0  0  0  0  0  0  0  0  0
   -3.9113   15.6608  -11.2589 H   0  0  0  0  0  0  0  0  0  0  0  0
   -5.2270   15.2086  -12.9486 H   0  0  0  0  0  0  0  0  0  0  0  0
   -6.7769   12.3203   -6.9046 H   0  0  0  0  0  0  0  0  0  0  0  0
   -2.6169    9.7197   -8.0459 H   0  0  0  0  0  0  0  0  0  0  0  0
   -4.8951    8.7966   -8.4810 H   0  0  0  0  0  0  0  0  0  0  0  0
   -4.6981   14.3639   -6.0034 H   0  0  0  0  0  0  0  0  0  0  0  0
   -0.3895   12.9643   -6.6059 H   0  0  0  0  0  0  0  0  0  0  0  0
   -0.7026   11.2076   -6.4002 H   0  0  0  0  0  0  0  0  0  0  0  0
   -0.6910   11.9314   -8.0442 H   0  0  0  0  0  0  0  0  0  0  0  0
  1  2  1  0  0  0  0
  1  4  2  0  0  0  0
  1 13  1  0  0  0  0
  2  6  1  0  0  0  0
  3  4  1  0  0  0  0
  3  5  1  0  0  0  0
  5  6  2  0  0  0  0
  5  9  1  0  0  0  0
  6  7  1  0  0  0  0
  7  8  1  0  0  0  0
  7 10  2  3  0  0  0
  8  9  2  0  0  0  0
 10 15  1  0  0  0  0
 11 12  1  0  0  0  0
 11 13  2  0  0  0  0
 13 14  1  0  0  0  0
 15 16  2  0  0  0  0
 15 20  1  0  0  0  0
 16 17  1  0  0  0  0
 17 18  2  0  0  0  0
 17 21  1  0  0  0  0
 18 19  1  0  0  0  0
 18 23  1  0  0  0  0
 19 20  2  0  0  0  0
 21 22  2  0  0  0  0
 22 23  1  0  0  0  0
 23 24  1  0  0  0  0
  2 25  1  0  0  0  0
  2 26  1  0  0  0  0
  3 27  1  0  0  0  0
  3 28  1  0  0  0  0
  4 29  1  0  0  0  0
 10 30  1  0  0  0  0
 12 31  1  0  0  0  0
 12 32  1  0  0  0  0
 12 33  1  0  0  0  0
 14 34  1  0  0  0  0
 16 35  1  0  0  0  0
 19 36  1  0  0  0  0
 20 37  1  0  0  0  0
 21 38  1  0  0  0  0
 24 39  1  0  0  0  0
 24 40  1  0  0  0  0
 24 41  1  0  0  0  0
M  END
> <Name>
18

> <IC50[uM]>
0.01

$$$$
18
  -OEChem-05192314333D
 Structure written by MMmdl.
 41 44  0     1  0  0  0  0  0999 V2000
   -6.3808   12.3686  -12.0119 C   0  0  0  0  0  0  0  0  0  0  0  0
   -6.5112   11.8116  -10.7365 C   0  0  0  0  0  0  0  0  0  0  0  0
   -7.7301   10.5824  -13.0300 C   0  0  0  0  0  0  0  0  0  0  0  0
   -6.9992   11.7782  -13.1263 C   0  0  0  0  0  0  0  0  0  0  0  0
   -7.8250   10.0166  -11.7542 C   0  0  3  0  0  0  0  0  0  0  0  0
   -7.2407   10.6266  -10.6010 C   0  0  0  0  0  0  0  0  0  0  0  0
   -7.6094    9.7513   -9.5103 C   0  0  0  0  0  0  0  0  0  0  0  0
   -8.2849    8.7404   -9.9846 N   0  0  0  0  0  0  0  0  0  0  0  0
   -8.4192    8.8674  -11.2983 N   0  0  0  0  0  0  0  0  0  0  0  0
   -7.3225    9.8872   -8.0242 C   0  0  0  0  0  0  0  0  0  0  0  0
   -4.3834   13.6199  -11.4933 N   0  0  0  0  0  0  0  0  0  0  0  0
   -3.4237   14.7282  -11.5789 C   0  0  0  0  0  0  0  0  0  0  0  0
   -5.5369   13.6139  -12.1980 C   0  0  0  0  0  0  0  0  0  0  0  0
   -5.8771   14.5161  -12.9653 O   0  0  0  0  0  0  0  0  0  0  0  0
   -5.9516   10.5005   -7.7272 C   0  0  0  0  0  0  0  0  0  0  0  0
   -5.8803   11.7722   -7.1539 C   0  0  0  0  0  0  0  0  0  0  0  0
   -4.6129   12.3159   -6.9118 C   0  0  0  0  0  0  0  0  0  0  0  0
   -3.4418   11.5625   -7.2429 C   0  0  0  0  0  0  0  0  0  0  0  0
   -3.5059   10.2842   -7.8062 C   0  0  0  0  0  0  0  0  0  0  0  0
   -4.7935    9.7780   -8.0417 C   0  0  0  0  0  0  0  0  0  0  0  0
   -4.0936   13.5458   -6.3664 C   0  0  0  0  0  0  0  0  0  0  0  0
   -2.7885   13.5288   -6.3742 N   0  0  0  0  0  0  0  0  0  0  0  0
   -2.3831   12.3683   -6.8823 N   0  0  0  0  0  0  0  0  0  0  0  0
   -0.9539   12.1016   -6.9897 C   0  0  0  0  0  0  0  0  0  0  0  0
   -6.0597   12.2849   -9.8771 H   0  0  0  0  0  0  0  0  0  0  0  0
   -8.1927   10.1256  -13.8924 H   0  0  0  0  0  0  0  0  0  0  0  0
   -6.9098   12.2595  -14.0890 H   0  0  0  0  0  0  0  0  0  0  0  0
   -8.7581   10.5712  -11.5763 H   0  0  0  0  0  0  0  0  0  0  0  0
   -8.0964   10.5278   -7.5761 H   0  0  0  0  0  0  0  0  0  0  0  0
   -7.3644    8.8874   -7.5674 H   0  0  0  0  0  0  0  0  0  0  0  0
   -2.5640   14.5209  -10.9247 H   0  0  0  0  0  0  0  0  0  0  0  0
   -3.0770   14.8334  -12.6175 H   0  0  0  0  0  0  0  0  0  0  0  0
   -3.9113   15.6608  -11.2589 H   0  0  0  0  0  0  0  0  0  0  0  0
   -5.2270   15.2086  -12.9486 H   0  0  0  0  0  0  0  0  0  0  0  0
   -6.7769   12.3203   -6.9046 H   0  0  0  0  0  0  0  0  0  0  0  0
   -2.6169    9.7197   -8.0459 H   0  0  0  0  0  0  0  0  0  0  0  0
   -4.8951    8.7966   -8.4810 H   0  0  0  0  0  0  0  0  0  0  0  0
   -4.6981   14.3639   -6.0034 H   0  0  0  0  0  0  0  0  0  0  0  0
   -0.3895   12.9643   -6.6059 H   0  0  0  0  0  0  0  0  0  0  0  0
   -0.7026   11.2076   -6.4002 H   0  0  0  0  0  0  0  0  0  0  0  0
   -0.6910   11.9314   -8.0442 H   0  0  0  0  0  0  0  0  0  0  0  0
  1  2  2  0  0  0  0
  1  4  1  0  0  0  0
  1 13  1  0  0  0  0
  2  6  1  0  0  0  0
  3  4  2  0  0  0  0
  3  5  1  0  0  0  0
  5  6  1  0  0  0  0
  5  9  1  0  0  0  0
  6  7  2  0  0  0  0
  7  8  1  0  0  0  0
  7 10  1  0  0  0  0
  8  9  2  0  0  0  0
 10 15  1  0  0  0  0
 11 12  1  0  0  0  0
 11 13  2  0  0  0  0
 13 14  1  0  0  0  0
 15 16  2  0  0  0  0
 15 20  1  0  0  0  0
 16 17  1  0  0  0  0
 17 18  2  0  0  0  0
 17 21  1  0  0  0  0
 18 19  1  0  0  0  0
 18 23  1  0  0  0  0
 19 20  2  0  0  0  0
 21 22  2  0  0  0  0
 22 23  1  0  0  0  0
 23 24  1  0  0  0  0
  2 25  1  0  0  0  0
  3 26  1  0  0  0  0
  4 27  1  0  0  0  0
  5 28  1  0  0  0  0
 10 29  1  0  0  0  0
 10 30  1  0  0  0  0
 12 31  1  0  0  0  0
 12 32  1  0  0  0  0
 12 33  1  0  0  0  0
 14 34  1  0  0  0  0
 16 35  1  0  0  0  0
 19 36  1  0  0  0  0
 20 37  1  0  0  0  0
 21 38  1  0  0  0  0
 24 39  1  0  0  0  0
 24 40  1  0  0  0  0
 24 41  1  0  0  0  0
M  END
> <Name>
18

> <IC50[uM]>
0.01

$$$$
18
  -OEChem-05192314333D
 Structure written by MMmdl.
 41 44  0     0  0  0  0  0  0999 V2000
   -6.3808   12.3686  -12.0119 C   0  0  0  0  0  0  0  0  0  0  0  0
   -6.5112   11.8116  -10.7365 C   0  0  0  0  0  0  0  0  0  0  0  0
   -7.7301   10.5824  -13.0300 C   0  0  0  0  0  0  0  0  0  0  0  0
   -6.9992   11.7782  -13.1263 C   0  0  0  0  0  0  0  0  0  0  0  0
   -7.8250   10.0166  -11.7542 C   0  0  0  0  0  0  0  0  0  0  0  0
   -7.2407   10.6266  -10.6010 C   0  0  0  0  0  0  0  0  0  0  0  0
   -7.6094    9.7513   -9.5103 C   0  0  0  0  0  0  0  0  0  0  0  0
   -8.2849    8.7404   -9.9846 N   0  0  0  0  0  0  0  0  0  0  0  0
   -8.4192    8.8674  -11.2983 N   0  0  0  0  0  0  0  0  0  0  0  0
   -7.3225    9.8872   -8.0242 C   0  0  0  0  0  0  0  0  0  0  0  0
   -4.3834   13.6199  -11.4933 N   0  0  0  0  0  0  0  0  0  0  0  0
   -3.4237   14.7282  -11.5789 C   0  0  0  0  0  0  0  0  0  0  0  0
   -5.5369   13.6139  -12.1980 C   0  0  0  0  0  0  0  0  0  0  0  0
   -5.8771   14.5161  -12.9653 O   0  0  0  0  0  0  0  0  0  0  0  0
   -5.9516   10.5005   -7.7272 C   0  0  0  0  0  0  0  0  0  0  0  0
   -5.8803   11.7722   -7.1539 C   0  0  0  0  0  0  0  0  0  0  0  0
   -4.6129   12.3159   -6.9118 C   0  0  0  0  0  0  0  0  0  0  0  0
   -3.4418   11.5625   -7.2429 C   0  0  0  0  0  0  0  0  0  0  0  0
   -3.5059   10.2842   -7.8062 C   0  0  0  0  0  0  0  0  0  0  0  0
   -4.7935    9.7780   -8.0417 C   0  0  0  0  0  0  0  0  0  0  0  0
   -4.0936   13.5458   -6.3664 C   0  0  0  0  0  0  0  0  0  0  0  0
   -2.7885   13.5288   -6.3742 N   0  0  0  0  0  0  0  0  0  0  0  0
   -2.3831   12.3683   -6.8823 N   0  0  0  0  0  0  0  0  0  0  0  0
   -0.9539   12.1016   -6.9897 C   0  0  0  0  0  0  0  0  0  0  0  0
   -6.0597   12.2849   -9.8771 H   0  0  0  0  0  0  0  0  0  0  0  0
   -8.1927   10.1256  -13.8924 H   0  0  0  0  0  0  0  0  0  0  0  0
   -7.6938   12.5312  -13.5268 H   0  0  0  0  0  0  0  0  0  0  0  0
   -6.1994   11.5912  -13.8580 H   0  0  0  0  0  0  0  0  0  0  0  0
   -8.0964   10.5278   -7.5761 H   0  0  0  0  0  0  0  0  0  0  0  0
   -7.3644    8.8874   -7.5674 H   0  0  0  0  0  0  0  0  0  0  0  0
   -2.5640   14.5209  -10.9247 H   0  0  0  0  0  0  0  0  0  0  0  0
   -3.0770   14.8334  -12.6175 H   0  0  0  0  0  0  0  0  0  0  0  0
   -3.9113   15.6608  -11.2589 H   0  0  0  0  0  0  0  0  0  0  0  0
   -5.2270   15.2086  -12.9486 H   0  0  0  0  0  0  0  0  0  0  0  0
   -6.7769   12.3203   -6.9046 H   0  0  0  0  0  0  0  0  0  0  0  0
   -2.6169    9.7197   -8.0459 H   0  0  0  0  0  0  0  0  0  0  0  0
   -4.8951    8.7966   -8.4810 H   0  0  0  0  0  0  0  0  0  0  0  0
   -4.6981   14.3639   -6.0034 H   0  0  0  0  0  0  0  0  0  0  0  0
   -0.3895   12.9643   -6.6059 H   0  0  0  0  0  0  0  0  0  0  0  0
   -0.7026   11.2076   -6.4002 H   0  0  0  0  0  0  0  0  0  0  0  0
   -0.6910   11.9314   -8.0442 H   0  0  0  0  0  0  0  0  0  0  0  0
  1  2  2  0  0  0  0
  1  4  1  0  0  0  0
  1 13  1  0  0  0  0
  2  6  1  0  0  0  0
  3  4  1  0  0  0  0
  3  5  2  0  0  0  0
  5  6  1  0  0  0  0
  5  9  1  0  0  0  0
  6  7  2  0  0  0  0
  7  8  1  0  0  0  0
  7 10  1  0  0  0  0
  8  9  2  0  0  0  0
 10 15  1  0  0  0  0
 11 12  1  0  0  0  0
 11 13  2  0  0  0  0
 13 14  1  0  0  0  0
 15 16  2  0  0  0  0
 15 20  1  0  0  0  0
 16 17  1  0  0  0  0
 17 18  2  0  0  0  0
 17 21  1  0  0  0  0
 18 19  1  0  0  0  0
 18 23  1  0  0  0  0
 19 20  2  0  0  0  0
 21 22  2  0  0  0  0
 22 23  1  0  0  0  0
 23 24  1  0  0  0  0
  2 25  1  0  0  0  0
  3 26  1  0  0  0  0
  4 27  1  0  0  0  0
  4 28  1  0  0  0  0
 10 29  1  0  0  0  0
 10 30  1  0  0  0  0
 12 31  1  0  0  0  0
 12 32  1  0  0  0  0
 12 33  1  0  0  0  0
 14 34  1  0  0  0  0
 16 35  1  0  0  0  0
 19 36  1  0  0  0  0
 20 37  1  0  0  0  0
 21 38  1  0  0  0  0
 24 39  1  0  0  0  0
 24 40  1  0  0  0  0
 24 41  1  0  0  0  0
M  END
> <Name>
18

> <IC50[uM]>
0.01

$$$$
18
  -OEChem-05192314333D
 Structure written by MMmdl.
 41 44  0     0  0  0  0  0  0999 V2000
   -6.3808   12.3686  -12.0119 C   0  0  0  0  0  0  0  0  0  0  0  0
   -6.5112   11.8116  -10.7365 C   0  0  0  0  0  0  0  0  0  0  0  0
   -7.7301   10.5824  -13.0300 C   0  0  0  0  0  0  0  0  0  0  0  0
   -6.9992   11.7782  -13.1263 C   0  0  0  0  0  0  0  0  0  0  0  0
   -7.8250   10.0166  -11.7542 C   0  0  0  0  0  0  0  0  0  0  0  0
   -7.2407   10.6266  -10.6010 C   0  0  0  0  0  0  0  0  0  0  0  0
   -7.6094    9.7513   -9.5103 C   0  0  0  0  0  0  0  0  0  0  0  0
   -8.2849    8.7404   -9.9846 N   0  0  0  0  0  0  0  0  0  0  0  0
   -8.4192    8.8674  -11.2983 N   0  0  0  0  0  0  0  0  0  0  0  0
   -7.3225    9.8872   -8.0242 C   0  0  0  0  0  0  0  0  0  0  0  0
   -4.3834   13.6199  -11.4933 N   0  0  0  0  0  0  0  0  0  0  0  0
   -3.4237   14.7282  -11.5789 C   0  0  0  0  0  0  0  0  0  0  0  0
   -5.5369   13.6139  -12.1980 C   0  0  0  0  0  0  0  0  0  0  0  0
   -5.8771   14.5161  -12.9653 O   0  0  0  0  0  0  0  0  0  0  0  0
   -5.9516   10.5005   -7.7272 C   0  0  0  0  0  0  0  0  0  0  0  0
   -5.8803   11.7722   -7.1539 C   0  0  0  0  0  0  0  0  0  0  0  0
   -4.6129   12.3159   -6.9118 C   0  0  0  0  0  0  0  0  0  0  0  0
   -3.4418   11.5625   -7.2429 C   0  0  0  0  0  0  0  0  0  0  0  0
   -3.5059   10.2842   -7.8062 C   0  0  0  0  0  0  0  0  0  0  0  0
   -4.7935    9.7780   -8.0417 C   0  0  0  0  0  0  0  0  0  0  0  0
   -4.0936   13.5458   -6.3664 C   0  0  0  0  0  0  0  0  0  0  0  0
   -2.7885   13.5288   -6.3742 N   0  0  0  0  0  0  0  0  0  0  0  0
   -2.3831   12.3683   -6.8823 N   0  0  0  0  0  0  0  0  0  0  0  0
   -0.9539   12.1016   -6.9897 C   0  0  0  0  0  0  0  0  0  0  0  0
   -5.4959   11.6133  -10.3626 H   0  0  0  0  0  0  0  0  0  0  0  0
   -6.9955   12.5665  -10.0997 H   0  0  0  0  0  0  0  0  0  0  0  0
   -8.1927   10.1256  -13.8924 H   0  0  0  0  0  0  0  0  0  0  0  0
   -6.9098   12.2595  -14.0890 H   0  0  0  0  0  0  0  0  0  0  0  0
   -8.0964   10.5278   -7.5761 H   0  0  0  0  0  0  0  0  0  0  0  0
   -7.3644    8.8874   -7.5674 H   0  0  0  0  0  0  0  0  0  0  0  0
   -2.5640   14.5209  -10.9247 H   0  0  0  0  0  0  0  0  0  0  0  0
   -3.0770   14.8334  -12.6175 H   0  0  0  0  0  0  0  0  0  0  0  0
   -3.9113   15.6608  -11.2589 H   0  0  0  0  0  0  0  0  0  0  0  0
   -5.2270   15.2086  -12.9486 H   0  0  0  0  0  0  0  0  0  0  0  0
   -6.7769   12.3203   -6.9046 H   0  0  0  0  0  0  0  0  0  0  0  0
   -2.6169    9.7197   -8.0459 H   0  0  0  0  0  0  0  0  0  0  0  0
   -4.8951    8.7966   -8.4810 H   0  0  0  0  0  0  0  0  0  0  0  0
   -4.6981   14.3639   -6.0034 H   0  0  0  0  0  0  0  0  0  0  0  0
   -0.3895   12.9643   -6.6059 H   0  0  0  0  0  0  0  0  0  0  0  0
   -0.7026   11.2076   -6.4002 H   0  0  0  0  0  0  0  0  0  0  0  0
   -0.6910   11.9314   -8.0442 H   0  0  0  0  0  0  0  0  0  0  0  0
  1  2  1  0  0  0  0
  1  4  2  0  0  0  0
  1 13  1  0  0  0  0
  2  6  1  0  0  0  0
  3  4  1  0  0  0  0
  3  5  2  0  0  0  0
  5  6  1  0  0  0  0
  5  9  1  0  0  0  0
  6  7  2  0  0  0  0
  7  8  1  0  0  0  0
  7 10  1  0  0  0  0
  8  9  2  0  0  0  0
 10 15  1  0  0  0  0
 11 12  1  0  0  0  0
 11 13  2  0  0  0  0
 13 14  1  0  0  0  0
 15 16  2  0  0  0  0
 15 20  1  0  0  0  0
 16 17  1  0  0  0  0
 17 18  2  0  0  0  0
 17 21  1  0  0  0  0
 18 19  1  0  0  0  0
 18 23  1  0  0  0  0
 19 20  2  0  0  0  0
 21 22  2  0  0  0  0
 22 23  1  0  0  0  0
 23 24  1  0  0  0  0
  2 25  1  0  0  0  0
  2 26  1  0  0  0  0
  3 27  1  0  0  0  0
  4 28  1  0  0  0  0
 10 29  1  0  0  0  0
 10 30  1  0  0  0  0
 12 31  1  0  0  0  0
 12 32  1  0  0  0  0
 12 33  1  0  0  0  0
 14 34  1  0  0  0  0
 16 35  1  0  0  0  0
 19 36  1  0  0  0  0
 20 37  1  0  0  0  0
 21 38  1  0  0  0  0
 24 39  1  0  0  0  0
 24 40  1  0  0  0  0
 24 41  1  0  0  0  0
M  END
> <Name>
18

> <IC50[uM]>
0.01

$$$$
18
  -OEChem-05192314333D
 Structure written by MMmdl.
 41 44  0     1  0  0  0  0  0999 V2000
   -6.3808   12.3686  -12.0119 C   0  0  0  0  0  0  0  0  0  0  0  0
   -6.5112   11.8116  -10.7365 C   0  0  0  0  0  0  0  0  0  0  0  0
   -7.7301   10.5824  -13.0300 C   0  0  0  0  0  0  0  0  0  0  0  0
   -6.9992   11.7782  -13.1263 C   0  0  0  0  0  0  0  0  0  0  0  0
   -7.8250   10.0166  -11.7542 C   0  0  0  0  0  0  0  0  0  0  0  0
   -7.2407   10.6266  -10.6010 C   0  0  3  0  0  0  0  0  0  0  0  0
   -7.6094    9.7513   -9.5103 C   0  0  0  0  0  0  0  0  0  0  0  0
   -8.2849    8.7404   -9.9846 N   0  0  0  0  0  0  0  0  0  0  0  0
   -8.4192    8.8674  -11.2983 N   0  0  0  0  0  0  0  0  0  0  0  0
   -7.3225    9.8872   -8.0242 C   0  0  0  0  0  0  0  0  0  0  0  0
   -4.3834   13.6199  -11.4933 N   0  0  0  0  0  0  0  0  0  0  0  0
   -3.4237   14.7282  -11.5789 C   0  0  0  0  0  0  0  0  0  0  0  0
   -5.5369   13.6139  -12.1980 C   0  0  0  0  0  0  0  0  0  0  0  0
   -5.8771   14.5161  -12.9653 O   0  0  0  0  0  0  0  0  0  0  0  0
   -5.9516   10.5005   -7.7272 C   0  0  0  0  0  0  0  0  0  0  0  0
   -5.8803   11.7722   -7.1539 C   0  0  0  0  0  0  0  0  0  0  0  0
   -4.6129   12.3159   -6.9118 C   0  0  0  0  0  0  0  0  0  0  0  0
   -3.4418   11.5625   -7.2429 C   0  0  0  0  0  0  0  0  0  0  0  0
   -3.5059   10.2842   -7.8062 C   0  0  0  0  0  0  0  0  0  0  0  0
   -4.7935    9.7780   -8.0417 C   0  0  0  0  0  0  0  0  0  0  0  0
   -4.0936   13.5458   -6.3664 C   0  0  0  0  0  0  0  0  0  0  0  0
   -2.7885   13.5288   -6.3742 N   0  0  0  0  0  0  0  0  0  0  0  0
   -2.3831   12.3683   -6.8823 N   0  0  0  0  0  0  0  0  0  0  0  0
   -0.9539   12.1016   -6.9897 C   0  0  0  0  0  0  0  0  0  0  0  0
   -6.0597   12.2849   -9.8771 H   0  0  0  0  0  0  0  0  0  0  0  0
   -8.1927   10.1256  -13.8924 H   0  0  0  0  0  0  0  0  0  0  0  0
   -6.9098   12.2595  -14.0890 H   0  0  0  0  0  0  0  0  0  0  0  0
   -8.1598   11.2101  -10.4437 H   0  0  0  0  0  0  0  0  0  0  0  0
   -8.6468    7.9839   -9.4398 H   0  0  0  0  0  0  0  0  0  0  0  0
   -8.0161    9.5818   -7.2548 H   0  0  0  0  0  0  0  0  0  0  0  0
   -2.5640   14.5209  -10.9247 H   0  0  0  0  0  0  0  0  0  0  0  0
   -3.0770   14.8334  -12.6175 H   0  0  0  0  0  0  0  0  0  0  0  0
   -3.9113   15.6608  -11.2589 H   0  0  0  0  0  0  0  0  0  0  0  0
   -5.2270   15.2086  -12.9486 H   0  0  0  0  0  0  0  0  0  0  0  0
   -6.7769   12.3203   -6.9046 H   0  0  0  0  0  0  0  0  0  0  0  0
   -2.6169    9.7197   -8.0459 H   0  0  0  0  0  0  0  0  0  0  0  0
   -4.8951    8.7966   -8.4810 H   0  0  0  0  0  0  0  0  0  0  0  0
   -4.6981   14.3639   -6.0034 H   0  0  0  0  0  0  0  0  0  0  0  0
   -0.3895   12.9643   -6.6059 H   0  0  0  0  0  0  0  0  0  0  0  0
   -0.7026   11.2076   -6.4002 H   0  0  0  0  0  0  0  0  0  0  0  0
   -0.6910   11.9314   -8.0442 H   0  0  0  0  0  0  0  0  0  0  0  0
  1  2  2  0  0  0  0
  1  4  1  0  0  0  0
  1 13  1  0  0  0  0
  2  6  1  0  0  0  0
  3  4  2  0  0  0  0
  3  5  1  0  0  0  0
  5  6  1  0  0  0  0
  5  9  2  0  0  0  0
  6  7  1  0  0  0  0
  7  8  1  0  0  0  0
  7 10  2  3  0  0  0
  8  9  1  0  0  0  0
 10 15  1  0  0  0  0
 11 12  1  0  0  0  0
 11 13  2  0  0  0  0
 13 14  1  0  0  0  0
 15 16  2  0  0  0  0
 15 20  1  0  0  0  0
 16 17  1  0  0  0  0
 17 18  2  0  0  0  0
 17 21  1  0  0  0  0
 18 19  1  0  0  0  0
 18 23  1  0  0  0  0
 19 20  2  0  0  0  0
 21 22  2  0  0  0  0
 22 23  1  0  0  0  0
 23 24  1  0  0  0  0
  2 25  1  0  0  0  0
  3 26  1  0  0  0  0
  4 27  1  0  0  0  0
  6 28  1  0  0  0  0
  8 29  1  0  0  0  0
 10 30  1  0  0  0  0
 12 31  1  0  0  0  0
 12 32  1  0  0  0  0
 12 33  1  0  0  0  0
 14 34  1  0  0  0  0
 16 35  1  0  0  0  0
 19 36  1  0  0  0  0
 20 37  1  0  0  0  0
 21 38  1  0  0  0  0
 24 39  1  0  0  0  0
 24 40  1  0  0  0  0
 24 41  1  0  0  0  0
M  END
> <Name>
18

> <IC50[uM]>
0.01

$$$$
18
  -OEChem-05192314333D
 Structure written by MMmdl.
 41 44  0     1  0  0  0  0  0999 V2000
   -6.3808   12.3686  -12.0119 C   0  0  0  0  0  0  0  0  0  0  0  0
   -6.5112   11.8116  -10.7365 C   0  0  0  0  0  0  0  0  0  0  0  0
   -7.7301   10.5824  -13.0300 C   0  0  0  0  0  0  0  0  0  0  0  0
   -6.9992   11.7782  -13.1263 C   0  0  0  0  0  0  0  0  0  0  0  0
   -7.8250   10.0166  -11.7542 C   0  0  0  0  0  0  0  0  0  0  0  0
   -7.2407   10.6266  -10.6010 C   0  0  0  0  0  0  0  0  0  0  0  0
   -7.6094    9.7513   -9.5103 C   0  0  0  0  0  0  0  0  0  0  0  0
   -8.2849    8.7404   -9.9846 N   0  0  0  0  0  0  0  0  0  0  0  0
   -8.4192    8.8674  -11.2983 N   0  0  0  0  0  0  0  0  0  0  0  0
   -7.3225    9.8872   -8.0242 C   0  0  0  0  0  0  0  0  0  0  0  0
   -4.3834   13.6199  -11.4933 N   0  0  0  0  0  0  0  0  0  0  0  0
   -3.4237   14.7282  -11.5789 C   0  0  0  0  0  0  0  0  0  0  0  0
   -5.5369   13.6139  -12.1980 C   0  0  0  0  0  0  0  0  0  0  0  0
   -5.8771   14.5161  -12.9653 O   0  0  0  0  0  0  0  0  0  0  0  0
   -5.9516   10.5005   -7.7272 C   0  0  0  0  0  0  0  0  0  0  0  0
   -5.8803   11.7722   -7.1539 C   0  0  0  0  0  0  0  0  0  0  0  0
   -4.6129   12.3159   -6.9118 C   0  0  0  0  0  0  0  0  0  0  0  0
   -3.4418   11.5625   -7.2429 C   0  0  3  0  0  0  0  0  0  0  0  0
   -3.5059   10.2842   -7.8062 C   0  0  0  0  0  0  0  0  0  0  0  0
   -4.7935    9.7780   -8.0417 C   0  0  0  0  0  0  0  0  0  0  0  0
   -4.0936   13.5458   -6.3664 C   0  0  0  0  0  0  0  0  0  0  0  0
   -2.7885   13.5288   -6.3742 N   0  0  0  0  0  0  0  0  0  0  0  0
   -2.3831   12.3683   -6.8823 N   0  0  3  0  0  0  0  0  0  0  0  0
   -0.9539   12.1016   -6.9897 C   0  0  0  0  0  0  0  0  0  0  0  0
   -6.0597   12.2849   -9.8771 H   0  0  0  0  0  0  0  0  0  0  0  0
   -8.1927   10.1256  -13.8924 H   0  0  0  0  0  0  0  0  0  0  0  0
   -6.9098   12.2595  -14.0890 H   0  0  0  0  0  0  0  0  0  0  0  0
   -8.6468    7.9839   -9.4398 H   0  0  0  0  0  0  0  0  0  0  0  0
   -8.0161    9.5818   -7.2548 H   0  0  0  0  0  0  0  0  0  0  0  0
   -2.5640   14.5209  -10.9247 H   0  0  0  0  0  0  0  0  0  0  0  0
   -3.0770   14.8334  -12.6175 H   0  0  0  0  0  0  0  0  0  0  0  0
   -3.9113   15.6608  -11.2589 H   0  0  0  0  0  0  0  0  0  0  0  0
   -5.2270   15.2086  -12.9486 H   0  0  0  0  0  0  0  0  0  0  0  0
   -6.7769   12.3203   -6.9046 H   0  0  0  0  0  0  0  0  0  0  0  0
   -3.4389   12.0070   -8.2491 H   0  0  0  0  0  0  0  0  0  0  0  0
   -2.6169    9.7197   -8.0459 H   0  0  0  0  0  0  0  0  0  0  0  0
   -4.8951    8.7966   -8.4810 H   0  0  0  0  0  0  0  0  0  0  0  0
   -4.6981   14.3639   -6.0034 H   0  0  0  0  0  0  0  0  0  0  0  0
   -0.3895   12.9643   -6.6059 H   0  0  0  0  0  0  0  0  0  0  0  0
   -0.7026   11.2076   -6.4002 H   0  0  0  0  0  0  0  0  0  0  0  0
   -0.6910   11.9314   -8.0442 H   0  0  0  0  0  0  0  0  0  0  0  0
  1  2  2  0  0  0  0
  1  4  1  0  0  0  0
  1 13  1  0  0  0  0
  2  6  1  0  0  0  0
  3  4  2  0  0  0  0
  3  5  1  0  0  0  0
  5  6  1  0  0  0  0
  5  9  2  0  0  0  0
  6  7  2  0  0  0  0
  7  8  1  0  0  0  0
  7 10  1  0  0  0  0
  8  9  1  0  0  0  0
 10 15  2  3  0  0  0
 11 12  1  0  0  0  0
 11 13  2  0  0  0  0
 13 14  1  0  0  0  0
 15 16  1  0  0  0  0
 15 20  1  0  0  0  0
 16 17  2  0  0  0  0
 17 18  1  0  0  0  0
 17 21  1  0  0  0  0
 18 19  1  0  0  0  0
 18 23  1  0  0  0  0
 19 20  2  0  0  0  0
 21 22  2  0  0  0  0
 22 23  1  0  0  0  0
 23 24  1  0  0  0  0
  2 25  1  0  0  0  0
  3 26  1  0  0  0  0
  4 27  1  0  0  0  0
  8 28  1  0  0  0  0
 10 29  1  0  0  0  0
 12 30  1  0  0  0  0
 12 31  1  0  0  0  0
 12 32  1  0  0  0  0
 14 33  1  0  0  0  0
 16 34  1  0  0  0  0
 18 35  1  0  0  0  0
 19 36  1  0  0  0  0
 20 37  1  0  0  0  0
 21 38  1  0  0  0  0
 24 39  1  0  0  0  0
 24 40  1  0  0  0  0
 24 41  1  0  0  0  0
M  END
> <Name>
18

> <IC50[uM]>
0.01

$$$$
18
  -OEChem-05192314333D
 Structure written by MMmdl.
 41 44  0     1  0  0  0  0  0999 V2000
   -6.3808   12.3686  -12.0119 C   0  0  0  0  0  0  0  0  0  0  0  0
   -6.5112   11.8116  -10.7365 C   0  0  0  0  0  0  0  0  0  0  0  0
   -7.7301   10.5824  -13.0300 C   0  0  0  0  0  0  0  0  0  0  0  0
   -6.9992   11.7782  -13.1263 C   0  0  0  0  0  0  0  0  0  0  0  0
   -7.8250   10.0166  -11.7542 C   0  0  0  0  0  0  0  0  0  0  0  0
   -7.2407   10.6266  -10.6010 C   0  0  0  0  0  0  0  0  0  0  0  0
   -7.6094    9.7513   -9.5103 C   0  0  0  0  0  0  0  0  0  0  0  0
   -8.2849    8.7404   -9.9846 N   0  0  0  0  0  0  0  0  0  0  0  0
   -8.4192    8.8674  -11.2983 N   0  0  0  0  0  0  0  0  0  0  0  0
   -7.3225    9.8872   -8.0242 C   0  0  0  0  0  0  0  0  0  0  0  0
   -4.3834   13.6199  -11.4933 N   0  0  0  0  0  0  0  0  0  0  0  0
   -3.4237   14.7282  -11.5789 C   0  0  0  0  0  0  0  0  0  0  0  0
   -5.5369   13.6139  -12.1980 C   0  0  0  0  0  0  0  0  0  0  0  0
   -5.8771   14.5161  -12.9653 O   0  0  0  0  0  0  0  0  0  0  0  0
   -5.9516   10.5005   -7.7272 C   0  0  0  0  0  0  0  0  0  0  0  0
   -5.8803   11.7722   -7.1539 C   0  0  0  0  0  0  0  0  0  0  0  0
   -4.6129   12.3159   -6.9118 C   0  0  0  0  0  0  0  0  0  0  0  0
   -3.4418   11.5625   -7.2429 C   0  0  3  0  0  0  0  0  0  0  0  0
   -3.5059   10.2842   -7.8062 C   0  0  0  0  0  0  0  0  0  0  0  0
   -4.7935    9.7780   -8.0417 C   0  0  0  0  0  0  0  0  0  0  0  0
   -4.0936   13.5458   -6.3664 C   0  0  0  0  0  0  0  0  0  0  0  0
   -2.7885   13.5288   -6.3742 N   0  0  0  0  0  0  0  0  0  0  0  0
   -2.3831   12.3683   -6.8823 N   0  0  3  0  0  0  0  0  0  0  0  0
   -0.9539   12.1016   -6.9897 C   0  0  0  0  0  0  0  0  0  0  0  0
   -6.0597   12.2849   -9.8771 H   0  0  0  0  0  0  0  0  0  0  0  0
   -8.1927   10.1256  -13.8924 H   0  0  0  0  0  0  0  0  0  0  0  0
   -6.9098   12.2595  -14.0890 H   0  0  0  0  0  0  0  0  0  0  0  0
   -8.8936    8.2087  -11.8823 H   0  0  0  0  0  0  0  0  0  0  0  0
   -8.0161    9.5818   -7.2548 H   0  0  0  0  0  0  0  0  0  0  0  0
   -2.5640   14.5209  -10.9247 H   0  0  0  0  0  0  0  0  0  0  0  0
   -3.0770   14.8334  -12.6175 H   0  0  0  0  0  0  0  0  0  0  0  0
   -3.9113   15.6608  -11.2589 H   0  0  0  0  0  0  0  0  0  0  0  0
   -5.2270   15.2086  -12.9486 H   0  0  0  0  0  0  0  0  0  0  0  0
   -6.7769   12.3203   -6.9046 H   0  0  0  0  0  0  0  0  0  0  0  0
   -3.4389   12.0070   -8.2491 H   0  0  0  0  0  0  0  0  0  0  0  0
   -2.6169    9.7197   -8.0459 H   0  0  0  0  0  0  0  0  0  0  0  0
   -4.8951    8.7966   -8.4810 H   0  0  0  0  0  0  0  0  0  0  0  0
   -4.6981   14.3639   -6.0034 H   0  0  0  0  0  0  0  0  0  0  0  0
   -0.3895   12.9643   -6.6059 H   0  0  0  0  0  0  0  0  0  0  0  0
   -0.7026   11.2076   -6.4002 H   0  0  0  0  0  0  0  0  0  0  0  0
   -0.6910   11.9314   -8.0442 H   0  0  0  0  0  0  0  0  0  0  0  0
  1  2  2  0  0  0  0
  1  4  1  0  0  0  0
  1 13  1  0  0  0  0
  2  6  1  0  0  0  0
  3  4  2  0  0  0  0
  3  5  1  0  0  0  0
  5  6  2  0  0  0  0
  5  9  1  0  0  0  0
  6  7  1  0  0  0  0
  7  8  2  0  0  0  0
  7 10  1  0  0  0  0
  8  9  1  0  0  0  0
 10 15  2  3  0  0  0
 11 12  1  0  0  0  0
 11 13  2  0  0  0  0
 13 14  1  0  0  0  0
 15 16  1  0  0  0  0
 15 20  1  0  0  0  0
 16 17  2  0  0  0  0
 17 18  1  0  0  0  0
 17 21  1  0  0  0  0
 18 19  1  0  0  0  0
 18 23  1  0  0  0  0
 19 20  2  0  0  0  0
 21 22  2  0  0  0  0
 22 23  1  0  0  0  0
 23 24  1  0  0  0  0
  2 25  1  0  0  0  0
  3 26  1  0  0  0  0
  4 27  1  0  0  0  0
  9 28  1  0  0  0  0
 10 29  1  0  0  0  0
 12 30  1  0  0  0  0
 12 31  1  0  0  0  0
 12 32  1  0  0  0  0
 14 33  1  0  0  0  0
 16 34  1  0  0  0  0
 18 35  1  0  0  0  0
 19 36  1  0  0  0  0
 20 37  1  0  0  0  0
 21 38  1  0  0  0  0
 24 39  1  0  0  0  0
 24 40  1  0  0  0  0
 24 41  1  0  0  0  0
M  END
> <Name>
18

> <IC50[uM]>
0.01

$$$$
18
  -OEChem-05192314333D
 Structure written by MMmdl.
 41 44  0     1  0  0  0  0  0999 V2000
   -6.3808   12.3686  -12.0119 C   0  0  0  0  0  0  0  0  0  0  0  0
   -6.5112   11.8116  -10.7365 C   0  0  0  0  0  0  0  0  0  0  0  0
   -7.7301   10.5824  -13.0300 C   0  0  0  0  0  0  0  0  0  0  0  0
   -6.9992   11.7782  -13.1263 C   0  0  0  0  0  0  0  0  0  0  0  0
   -7.8250   10.0166  -11.7542 C   0  0  0  0  0  0  0  0  0  0  0  0
   -7.2407   10.6266  -10.6010 C   0  0  0  0  0  0  0  0  0  0  0  0
   -7.6094    9.7513   -9.5103 C   0  0  0  0  0  0  0  0  0  0  0  0
   -8.2849    8.7404   -9.9846 N   0  0  0  0  0  0  0  0  0  0  0  0
   -8.4192    8.8674  -11.2983 N   0  0  0  0  0  0  0  0  0  0  0  0
   -7.3225    9.8872   -8.0242 C   0  0  0  0  0  0  0  0  0  0  0  0
   -4.3834   13.6199  -11.4933 N   0  0  0  0  0  0  0  0  0  0  0  0
   -3.4237   14.7282  -11.5789 C   0  0  0  0  0  0  0  0  0  0  0  0
   -5.5369   13.6139  -12.1980 C   0  0  0  0  0  0  0  0  0  0  0  0
   -5.8771   14.5161  -12.9653 O   0  0  0  0  0  0  0  0  0  0  0  0
   -5.9516   10.5005   -7.7272 C   0  0  3  0  0  0  0  0  0  0  0  0
   -5.8803   11.7722   -7.1539 C   0  0  0  0  0  0  0  0  0  0  0  0
   -4.6129   12.3159   -6.9118 C   0  0  0  0  0  0  0  0  0  0  0  0
   -3.4418   11.5625   -7.2429 C   0  0  3  0  0  0  0  0  0  0  0  0
   -3.5059   10.2842   -7.8062 C   0  0  0  0  0  0  0  0  0  0  0  0
   -4.7935    9.7780   -8.0417 C   0  0  0  0  0  0  0  0  0  0  0  0
   -4.0936   13.5458   -6.3664 C   0  0  0  0  0  0  0  0  0  0  0  0
   -2.7885   13.5288   -6.3742 N   0  0  0  0  0  0  0  0  0  0  0  0
   -2.3831   12.3683   -6.8823 N   0  0  3  0  0  0  0  0  0  0  0  0
   -0.9539   12.1016   -6.9897 C   0  0  0  0  0  0  0  0  0  0  0  0
   -6.0597   12.2849   -9.8771 H   0  0  0  0  0  0  0  0  0  0  0  0
   -8.1927   10.1256  -13.8924 H   0  0  0  0  0  0  0  0  0  0  0  0
   -6.9098   12.2595  -14.0890 H   0  0  0  0  0  0  0  0  0  0  0  0
   -8.0161    9.5818   -7.2548 H   0  0  0  0  0  0  0  0  0  0  0  0
   -4.1771   12.8456  -10.8951 H   0  0  0  0  0  0  0  0  0  0  0  0
   -2.5640   14.5209  -10.9247 H   0  0  0  0  0  0  0  0  0  0  0  0
   -3.0770   14.8334  -12.6175 H   0  0  0  0  0  0  0  0  0  0  0  0
   -3.9113   15.6608  -11.2589 H   0  0  0  0  0  0  0  0  0  0  0  0
   -5.9642   10.0474   -6.7249 H   0  0  0  0  0  0  0  0  0  0  0  0
   -6.7769   12.3203   -6.9046 H   0  0  0  0  0  0  0  0  0  0  0  0
   -3.4389   12.0070   -8.2491 H   0  0  0  0  0  0  0  0  0  0  0  0
   -2.6169    9.7197   -8.0459 H   0  0  0  0  0  0  0  0  0  0  0  0
   -4.8951    8.7966   -8.4810 H   0  0  0  0  0  0  0  0  0  0  0  0
   -4.6981   14.3639   -6.0034 H   0  0  0  0  0  0  0  0  0  0  0  0
   -0.3895   12.9643   -6.6059 H   0  0  0  0  0  0  0  0  0  0  0  0
   -0.7026   11.2076   -6.4002 H   0  0  0  0  0  0  0  0  0  0  0  0
   -0.6910   11.9314   -8.0442 H   0  0  0  0  0  0  0  0  0  0  0  0
  1  2  2  0  0  0  0
  1  4  1  0  0  0  0
  1 13  1  0  0  0  0
  2  6  1  0  0  0  0
  3  4  2  0  0  0  0
  3  5  1  0  0  0  0
  5  6  2  0  0  0  0
  5  9  1  0  0  0  0
  6  7  1  0  0  0  0
  7  8  1  0  0  0  0
  7 10  2  3  0  0  0
  8  9  2  0  0  0  0
 10 15  1  0  0  0  0
 11 12  1  0  0  0  0
 11 13  1  0  0  0  0
 13 14  2  0  0  0  0
 15 16  1  0  0  0  0
 15 20  1  0  0  0  0
 16 17  2  0  0  0  0
 17 18  1  0  0  0  0
 17 21  1  0  0  0  0
 18 19  1  0  0  0  0
 18 23  1  0  0  0  0
 19 20  2  0  0  0  0
 21 22  2  0  0  0  0
 22 23  1  0  0  0  0
 23 24  1  0  0  0  0
  2 25  1  0  0  0  0
  3 26  1  0  0  0  0
  4 27  1  0  0  0  0
 10 28  1  0  0  0  0
 11 29  1  0  0  0  0
 12 30  1  0  0  0  0
 12 31  1  0  0  0  0
 12 32  1  0  0  0  0
 15 33  1  0  0  0  0
 16 34  1  0  0  0  0
 18 35  1  0  0  0  0
 19 36  1  0  0  0  0
 20 37  1  0  0  0  0
 21 38  1  0  0  0  0
 24 39  1  0  0  0  0
 24 40  1  0  0  0  0
 24 41  1  0  0  0  0
M  END
> <Name>
18

> <IC50[uM]>
0.01

$$$$
18
  -OEChem-05192314333D
 Structure written by MMmdl.
 41 44  0     1  0  0  0  0  0999 V2000
   -6.3808   12.3686  -12.0119 C   0  0  0  0  0  0  0  0  0  0  0  0
   -6.5112   11.8116  -10.7365 C   0  0  0  0  0  0  0  0  0  0  0  0
   -7.7301   10.5824  -13.0300 C   0  0  0  0  0  0  0  0  0  0  0  0
   -6.9992   11.7782  -13.1263 C   0  0  0  0  0  0  0  0  0  0  0  0
   -7.8250   10.0166  -11.7542 C   0  0  0  0  0  0  0  0  0  0  0  0
   -7.2407   10.6266  -10.6010 C   0  0  0  0  0  0  0  0  0  0  0  0
   -7.6094    9.7513   -9.5103 C   0  0  0  0  0  0  0  0  0  0  0  0
   -8.2849    8.7404   -9.9846 N   0  0  0  0  0  0  0  0  0  0  0  0
   -8.4192    8.8674  -11.2983 N   0  0  0  0  0  0  0  0  0  0  0  0
   -7.3225    9.8872   -8.0242 C   0  0  0  0  0  0  0  0  0  0  0  0
   -4.3834   13.6199  -11.4933 N   0  0  0  0  0  0  0  0  0  0  0  0
   -3.4237   14.7282  -11.5789 C   0  0  0  0  0  0  0  0  0  0  0  0
   -5.5369   13.6139  -12.1980 C   0  0  0  0  0  0  0  0  0  0  0  0
   -5.8771   14.5161  -12.9653 O   0  0  0  0  0  0  0  0  0  0  0  0
   -5.9516   10.5005   -7.7272 C   0  0  0  0  0  0  0  0  0  0  0  0
   -5.8803   11.7722   -7.1539 C   0  0  0  0  0  0  0  0  0  0  0  0
   -4.6129   12.3159   -6.9118 C   0  0  3  0  0  0  0  0  0  0  0  0
   -3.4418   11.5625   -7.2429 C   0  0  3  0  0  0  0  0  0  0  0  0
   -3.5059   10.2842   -7.8062 C   0  0  0  0  0  0  0  0  0  0  0  0
   -4.7935    9.7780   -8.0417 C   0  0  0  0  0  0  0  0  0  0  0  0
   -4.0936   13.5458   -6.3664 C   0  0  0  0  0  0  0  0  0  0  0  0
   -2.7885   13.5288   -6.3742 N   0  0  0  0  0  0  0  0  0  0  0  0
   -2.3831   12.3683   -6.8823 N   0  0  3  0  0  0  0  0  0  0  0  0
   -0.9539   12.1016   -6.9897 C   0  0  0  0  0  0  0  0  0  0  0  0
   -6.0597   12.2849   -9.8771 H   0  0  0  0  0  0  0  0  0  0  0  0
   -8.1927   10.1256  -13.8924 H   0  0  0  0  0  0  0  0  0  0  0  0
   -6.9098   12.2595  -14.0890 H   0  0  0  0  0  0  0  0  0  0  0  0
   -8.0161    9.5818   -7.2548 H   0  0  0  0  0  0  0  0  0  0  0  0
   -4.1771   12.8456  -10.8951 H   0  0  0  0  0  0  0  0  0  0  0  0
   -2.5640   14.5209  -10.9247 H   0  0  0  0  0  0  0  0  0  0  0  0
   -3.0770   14.8334  -12.6175 H   0  0  0  0  0  0  0  0  0  0  0  0
   -3.9113   15.6608  -11.2589 H   0  0  0  0  0  0  0  0  0  0  0  0
   -6.7769   12.3203   -6.9046 H   0  0  0  0  0  0  0  0  0  0  0  0
   -4.6113   12.7610   -7.9177 H   0  0  0  0  0  0  0  0  0  0  0  0
   -3.4389   12.0070   -8.2491 H   0  0  0  0  0  0  0  0  0  0  0  0
   -2.6169    9.7197   -8.0459 H   0  0  0  0  0  0  0  0  0  0  0  0
   -4.8951    8.7966   -8.4810 H   0  0  0  0  0  0  0  0  0  0  0  0
   -4.6981   14.3639   -6.0034 H   0  0  0  0  0  0  0  0  0  0  0  0
   -0.3895   12.9643   -6.6059 H   0  0  0  0  0  0  0  0  0  0  0  0
   -0.7026   11.2076   -6.4002 H   0  0  0  0  0  0  0  0  0  0  0  0
   -0.6910   11.9314   -8.0442 H   0  0  0  0  0  0  0  0  0  0  0  0
  1  2  2  0  0  0  0
  1  4  1  0  0  0  0
  1 13  1  0  0  0  0
  2  6  1  0  0  0  0
  3  4  2  0  0  0  0
  3  5  1  0  0  0  0
  5  6  2  0  0  0  0
  5  9  1  0  0  0  0
  6  7  1  0  0  0  0
  7  8  1  0  0  0  0
  7 10  2  3  0  0  0
  8  9  2  0  0  0  0
 10 15  1  0  0  0  0
 11 12  1  0  0  0  0
 11 13  1  0  0  0  0
 13 14  2  0  0  0  0
 15 16  2  0  0  0  0
 15 20  1  0  0  0  0
 16 17  1  0  0  0  0
 17 18  1  0  0  0  0
 17 21  1  0  0  0  0
 18 19  1  0  0  0  0
 18 23  1  0  0  0  0
 19 20  2  0  0  0  0
 21 22  2  0  0  0  0
 22 23  1  0  0  0  0
 23 24  1  0  0  0  0
  2 25  1  0  0  0  0
  3 26  1  0  0  0  0
  4 27  1  0  0  0  0
 10 28  1  0  0  0  0
 11 29  1  0  0  0  0
 12 30  1  0  0  0  0
 12 31  1  0  0  0  0
 12 32  1  0  0  0  0
 16 33  1  0  0  0  0
 17 34  1  0  0  0  0
 18 35  1  0  0  0  0
 19 36  1  0  0  0  0
 20 37  1  0  0  0  0
 21 38  1  0  0  0  0
 24 39  1  0  0  0  0
 24 40  1  0  0  0  0
 24 41  1  0  0  0  0
M  END
> <Name>
18

> <IC50[uM]>
0.01

$$$$
18
  -OEChem-05192314333D
 Structure written by MMmdl.
 41 44  0     1  0  0  0  0  0999 V2000
   -6.3808   12.3686  -12.0119 C   0  0  0  0  0  0  0  0  0  0  0  0
   -6.5112   11.8116  -10.7365 C   0  0  0  0  0  0  0  0  0  0  0  0
   -7.7301   10.5824  -13.0300 C   0  0  0  0  0  0  0  0  0  0  0  0
   -6.9992   11.7782  -13.1263 C   0  0  0  0  0  0  0  0  0  0  0  0
   -7.8250   10.0166  -11.7542 C   0  0  0  0  0  0  0  0  0  0  0  0
   -7.2407   10.6266  -10.6010 C   0  0  0  0  0  0  0  0  0  0  0  0
   -7.6094    9.7513   -9.5103 C   0  0  3  0  0  0  0  0  0  0  0  0
   -8.2849    8.7404   -9.9846 N   0  0  0  0  0  0  0  0  0  0  0  0
   -8.4192    8.8674  -11.2983 N   0  0  0  0  0  0  0  0  0  0  0  0
   -7.3225    9.8872   -8.0242 C   0  0  0  0  0  0  0  0  0  0  0  0
   -4.3834   13.6199  -11.4933 N   0  0  0  0  0  0  0  0  0  0  0  0
   -3.4237   14.7282  -11.5789 C   0  0  0  0  0  0  0  0  0  0  0  0
   -5.5369   13.6139  -12.1980 C   0  0  0  0  0  0  0  0  0  0  0  0
   -5.8771   14.5161  -12.9653 O   0  0  0  0  0  0  0  0  0  0  0  0
   -5.9516   10.5005   -7.7272 C   0  0  0  0  0  0  0  0  0  0  0  0
   -5.8803   11.7722   -7.1539 C   0  0  0  0  0  0  0  0  0  0  0  0
   -4.6129   12.3159   -6.9118 C   0  0  0  0  0  0  0  0  0  0  0  0
   -3.4418   11.5625   -7.2429 C   0  0  3  0  0  0  0  0  0  0  0  0
   -3.5059   10.2842   -7.8062 C   0  0  0  0  0  0  0  0  0  0  0  0
   -4.7935    9.7780   -8.0417 C   0  0  0  0  0  0  0  0  0  0  0  0
   -4.0936   13.5458   -6.3664 C   0  0  0  0  0  0  0  0  0  0  0  0
   -2.7885   13.5288   -6.3742 N   0  0  0  0  0  0  0  0  0  0  0  0
   -2.3831   12.3683   -6.8823 N   0  0  3  0  0  0  0  0  0  0  0  0
   -0.9539   12.1016   -6.9897 C   0  0  0  0  0  0  0  0  0  0  0  0
   -6.0597   12.2849   -9.8771 H   0  0  0  0  0  0  0  0  0  0  0  0
   -8.1927   10.1256  -13.8924 H   0  0  0  0  0  0  0  0  0  0  0  0
   -6.9098   12.2595  -14.0890 H   0  0  0  0  0  0  0  0  0  0  0  0
   -6.6727    9.1898   -9.6417 H   0  0  0  0  0  0  0  0  0  0  0  0
   -8.0161    9.5818   -7.2548 H   0  0  0  0  0  0  0  0  0  0  0  0
   -4.1771   12.8456  -10.8951 H   0  0  0  0  0  0  0  0  0  0  0  0
   -2.5640   14.5209  -10.9247 H   0  0  0  0  0  0  0  0  0  0  0  0
   -3.0770   14.8334  -12.6175 H   0  0  0  0  0  0  0  0  0  0  0  0
   -3.9113   15.6608  -11.2589 H   0  0  0  0  0  0  0  0  0  0  0  0
   -6.7769   12.3203   -6.9046 H   0  0  0  0  0  0  0  0  0  0  0  0
   -3.4389   12.0070   -8.2491 H   0  0  0  0  0  0  0  0  0  0  0  0
   -2.6169    9.7197   -8.0459 H   0  0  0  0  0  0  0  0  0  0  0  0
   -4.8951    8.7966   -8.4810 H   0  0  0  0  0  0  0  0  0  0  0  0
   -4.6981   14.3639   -6.0034 H   0  0  0  0  0  0  0  0  0  0  0  0
   -0.3895   12.9643   -6.6059 H   0  0  0  0  0  0  0  0  0  0  0  0
   -0.7026   11.2076   -6.4002 H   0  0  0  0  0  0  0  0  0  0  0  0
   -0.6910   11.9314   -8.0442 H   0  0  0  0  0  0  0  0  0  0  0  0
  1  2  2  0  0  0  0
  1  4  1  0  0  0  0
  1 13  1  0  0  0  0
  2  6  1  0  0  0  0
  3  4  2  0  0  0  0
  3  5  1  0  0  0  0
  5  6  2  0  0  0  0
  5  9  1  0  0  0  0
  6  7  1  0  0  0  0
  7  8  1  0  0  0  0
  7 10  1  0  0  0  0
  8  9  2  0  0  0  0
 10 15  2  3  0  0  0
 11 12  1  0  0  0  0
 11 13  1  0  0  0  0
 13 14  2  0  0  0  0
 15 16  1  0  0  0  0
 15 20  1  0  0  0  0
 16 17  2  0  0  0  0
 17 18  1  0  0  0  0
 17 21  1  0  0  0  0
 18 19  1  0  0  0  0
 18 23  1  0  0  0  0
 19 20  2  0  0  0  0
 21 22  2  0  0  0  0
 22 23  1  0  0  0  0
 23 24  1  0  0  0  0
  2 25  1  0  0  0  0
  3 26  1  0  0  0  0
  4 27  1  0  0  0  0
  7 28  1  0  0  0  0
 10 29  1  0  0  0  0
 11 30  1  0  0  0  0
 12 31  1  0  0  0  0
 12 32  1  0  0  0  0
 12 33  1  0  0  0  0
 16 34  1  0  0  0  0
 18 35  1  0  0  0  0
 19 36  1  0  0  0  0
 20 37  1  0  0  0  0
 21 38  1  0  0  0  0
 24 39  1  0  0  0  0
 24 40  1  0  0  0  0
 24 41  1  0  0  0  0
M  END
> <Name>
18

> <IC50[uM]>
0.01

$$$$
18
  -OEChem-05192314333D
 Structure written by MMmdl.
 41 44  0     1  0  0  0  0  0999 V2000
   -6.3808   12.3686  -12.0119 C   0  0  0  0  0  0  0  0  0  0  0  0
   -6.5112   11.8116  -10.7365 C   0  0  0  0  0  0  0  0  0  0  0  0
   -7.7301   10.5824  -13.0300 C   0  0  0  0  0  0  0  0  0  0  0  0
   -6.9992   11.7782  -13.1263 C   0  0  0  0  0  0  0  0  0  0  0  0
   -7.8250   10.0166  -11.7542 C   0  0  0  0  0  0  0  0  0  0  0  0
   -7.2407   10.6266  -10.6010 C   0  0  0  0  0  0  0  0  0  0  0  0
   -7.6094    9.7513   -9.5103 C   0  0  0  0  0  0  0  0  0  0  0  0
   -8.2849    8.7404   -9.9846 N   0  0  0  0  0  0  0  0  0  0  0  0
   -8.4192    8.8674  -11.2983 N   0  0  0  0  0  0  0  0  0  0  0  0
   -7.3225    9.8872   -8.0242 C   0  0  0  0  0  0  0  0  0  0  0  0
   -4.3834   13.6199  -11.4933 N   0  0  0  0  0  0  0  0  0  0  0  0
   -3.4237   14.7282  -11.5789 C   0  0  0  0  0  0  0  0  0  0  0  0
   -5.5369   13.6139  -12.1980 C   0  0  0  0  0  0  0  0  0  0  0  0
   -5.8771   14.5161  -12.9653 O   0  0  0  0  0  0  0  0  0  0  0  0
   -5.9516   10.5005   -7.7272 C   0  0  0  0  0  0  0  0  0  0  0  0
   -5.8803   11.7722   -7.1539 C   0  0  0  0  0  0  0  0  0  0  0  0
   -4.6129   12.3159   -6.9118 C   0  0  0  0  0  0  0  0  0  0  0  0
   -3.4418   11.5625   -7.2429 C   0  0  3  0  0  0  0  0  0  0  0  0
   -3.5059   10.2842   -7.8062 C   0  0  0  0  0  0  0  0  0  0  0  0
   -4.7935    9.7780   -8.0417 C   0  0  0  0  0  0  0  0  0  0  0  0
   -4.0936   13.5458   -6.3664 C   0  0  0  0  0  0  0  0  0  0  0  0
   -2.7885   13.5288   -6.3742 N   0  0  0  0  0  0  0  0  0  0  0  0
   -2.3831   12.3683   -6.8823 N   0  0  3  0  0  0  0  0  0  0  0  0
   -0.9539   12.1016   -6.9897 C   0  0  0  0  0  0  0  0  0  0  0  0
   -6.0597   12.2849   -9.8771 H   0  0  0  0  0  0  0  0  0  0  0  0
   -8.1927   10.1256  -13.8924 H   0  0  0  0  0  0  0  0  0  0  0  0
   -6.9098   12.2595  -14.0890 H   0  0  0  0  0  0  0  0  0  0  0  0
   -8.0161    9.5818   -7.2548 H   0  0  0  0  0  0  0  0  0  0  0  0
   -4.1771   12.8456  -10.8951 H   0  0  0  0  0  0  0  0  0  0  0  0
   -2.5640   14.5209  -10.9247 H   0  0  0  0  0  0  0  0  0  0  0  0
   -3.0770   14.8334  -12.6175 H   0  0  0  0  0  0  0  0  0  0  0  0
   -3.9113   15.6608  -11.2589 H   0  0  0  0  0  0  0  0  0  0  0  0
   -6.7769   12.3203   -6.9046 H   0  0  0  0  0  0  0  0  0  0  0  0
   -3.4389   12.0070   -8.2491 H   0  0  0  0  0  0  0  0  0  0  0  0
   -2.9750   10.3141   -8.7692 H   0  0  0  0  0  0  0  0  0  0  0  0
   -2.9912    9.5904   -7.1252 H   0  0  0  0  0  0  0  0  0  0  0  0
   -4.8951    8.7966   -8.4810 H   0  0  0  0  0  0  0  0  0  0  0  0
   -4.6981   14.3639   -6.0034 H   0  0  0  0  0  0  0  0  0  0  0  0
   -0.3895   12.9643   -6.6059 H   0  0  0  0  0  0  0  0  0  0  0  0
   -0.7026   11.2076   -6.4002 H   0  0  0  0  0  0  0  0  0  0  0  0
   -0.6910   11.9314   -8.0442 H   0  0  0  0  0  0  0  0  0  0  0  0
  1  2  2  0  0  0  0
  1  4  1  0  0  0  0
  1 13  1  0  0  0  0
  2  6  1  0  0  0  0
  3  4  2  0  0  0  0
  3  5  1  0  0  0  0
  5  6  2  0  0  0  0
  5  9  1  0  0  0  0
  6  7  1  0  0  0  0
  7  8  1  0  0  0  0
  7 10  2  3  0  0  0
  8  9  2  0  0  0  0
 10 15  1  0  0  0  0
 11 12  1  0  0  0  0
 11 13  1  0  0  0  0
 13 14  2  0  0  0  0
 15 16  1  0  0  0  0
 15 20  2  0  0  0  0
 16 17  2  0  0  0  0
 17 18  1  0  0  0  0
 17 21  1  0  0  0  0
 18 19  1  0  0  0  0
 18 23  1  0  0  0  0
 19 20  1  0  0  0  0
 21 22  2  0  0  0  0
 22 23  1  0  0  0  0
 23 24  1  0  0  0  0
  2 25  1  0  0  0  0
  3 26  1  0  0  0  0
  4 27  1  0  0  0  0
 10 28  1  0  0  0  0
 11 29  1  0  0  0  0
 12 30  1  0  0  0  0
 12 31  1  0  0  0  0
 12 32  1  0  0  0  0
 16 33  1  0  0  0  0
 18 34  1  0  0  0  0
 19 35  1  0  0  0  0
 19 36  1  0  0  0  0
 20 37  1  0  0  0  0
 21 38  1  0  0  0  0
 24 39  1  0  0  0  0
 24 40  1  0  0  0  0
 24 41  1  0  0  0  0
M  END
> <Name>
18

> <IC50[uM]>
0.01

$$$$
18
  -OEChem-05192314333D
 Structure written by MMmdl.
 41 44  0     1  0  0  0  0  0999 V2000
   -6.3808   12.3686  -12.0119 C   0  0  0  0  0  0  0  0  0  0  0  0
   -6.5112   11.8116  -10.7365 C   0  0  0  0  0  0  0  0  0  0  0  0
   -7.7301   10.5824  -13.0300 C   0  0  0  0  0  0  0  0  0  0  0  0
   -6.9992   11.7782  -13.1263 C   0  0  0  0  0  0  0  0  0  0  0  0
   -7.8250   10.0166  -11.7542 C   0  0  0  0  0  0  0  0  0  0  0  0
   -7.2407   10.6266  -10.6010 C   0  0  0  0  0  0  0  0  0  0  0  0
   -7.6094    9.7513   -9.5103 C   0  0  0  0  0  0  0  0  0  0  0  0
   -8.2849    8.7404   -9.9846 N   0  0  0  0  0  0  0  0  0  0  0  0
   -8.4192    8.8674  -11.2983 N   0  0  0  0  0  0  0  0  0  0  0  0
   -7.3225    9.8872   -8.0242 C   0  0  0  0  0  0  0  0  0  0  0  0
   -4.3834   13.6199  -11.4933 N   0  0  0  0  0  0  0  0  0  0  0  0
   -3.4237   14.7282  -11.5789 C   0  0  0  0  0  0  0  0  0  0  0  0
   -5.5369   13.6139  -12.1980 C   0  0  0  0  0  0  0  0  0  0  0  0
   -5.8771   14.5161  -12.9653 O   0  0  0  0  0  0  0  0  0  0  0  0
   -5.9516   10.5005   -7.7272 C   0  0  0  0  0  0  0  0  0  0  0  0
   -5.8803   11.7722   -7.1539 C   0  0  0  0  0  0  0  0  0  0  0  0
   -4.6129   12.3159   -6.9118 C   0  0  3  0  0  0  0  0  0  0  0  0
   -3.4418   11.5625   -7.2429 C   0  0  0  0  0  0  0  0  0  0  0  0
   -3.5059   10.2842   -7.8062 C   0  0  0  0  0  0  0  0  0  0  0  0
   -4.7935    9.7780   -8.0417 C   0  0  0  0  0  0  0  0  0  0  0  0
   -4.0936   13.5458   -6.3664 C   0  0  0  0  0  0  0  0  0  0  0  0
   -2.7885   13.5288   -6.3742 N   0  0  0  0  0  0  0  0  0  0  0  0
   -2.3831   12.3683   -6.8823 N   0  0  0  0  0  0  0  0  0  0  0  0
   -0.9539   12.1016   -6.9897 C   0  0  0  0  0  0  0  0  0  0  0  0
   -6.0597   12.2849   -9.8771 H   0  0  0  0  0  0  0  0  0  0  0  0
   -8.1927   10.1256  -13.8924 H   0  0  0  0  0  0  0  0  0  0  0  0
   -6.9098   12.2595  -14.0890 H   0  0  0  0  0  0  0  0  0  0  0  0
   -8.0161    9.5818   -7.2548 H   0  0  0  0  0  0  0  0  0  0  0  0
   -4.1771   12.8456  -10.8951 H   0  0  0  0  0  0  0  0  0  0  0  0
   -2.5640   14.5209  -10.9247 H   0  0  0  0  0  0  0  0  0  0  0  0
   -3.0770   14.8334  -12.6175 H   0  0  0  0  0  0  0  0  0  0  0  0
   -3.9113   15.6608  -11.2589 H   0  0  0  0  0  0  0  0  0  0  0  0
   -6.7769   12.3203   -6.9046 H   0  0  0  0  0  0  0  0  0  0  0  0
   -4.6113   12.7610   -7.9177 H   0  0  0  0  0  0  0  0  0  0  0  0
   -2.6169    9.7197   -8.0459 H   0  0  0  0  0  0  0  0  0  0  0  0
   -4.8591    8.8345   -7.4800 H   0  0  0  0  0  0  0  0  0  0  0  0
   -4.8473    9.5673   -9.1200 H   0  0  0  0  0  0  0  0  0  0  0  0
   -4.6981   14.3639   -6.0034 H   0  0  0  0  0  0  0  0  0  0  0  0
   -0.3895   12.9643   -6.6059 H   0  0  0  0  0  0  0  0  0  0  0  0
   -0.7026   11.2076   -6.4002 H   0  0  0  0  0  0  0  0  0  0  0  0
   -0.6910   11.9314   -8.0442 H   0  0  0  0  0  0  0  0  0  0  0  0
  1  2  2  0  0  0  0
  1  4  1  0  0  0  0
  1 13  1  0  0  0  0
  2  6  1  0  0  0  0
  3  4  2  0  0  0  0
  3  5  1  0  0  0  0
  5  6  2  0  0  0  0
  5  9  1  0  0  0  0
  6  7  1  0  0  0  0
  7  8  1  0  0  0  0
  7 10  2  3  0  0  0
  8  9  2  0  0  0  0
 10 15  1  0  0  0  0
 11 12  1  0  0  0  0
 11 13  1  0  0  0  0
 13 14  2  0  0  0  0
 15 16  2  0  0  0  0
 15 20  1  0  0  0  0
 16 17  1  0  0  0  0
 17 18  1  0  0  0  0
 17 21  1  0  0  0  0
 18 19  2  0  0  0  0
 18 23  1  0  0  0  0
 19 20  1  0  0  0  0
 21 22  2  0  0  0  0
 22 23  1  0  0  0  0
 23 24  1  0  0  0  0
  2 25  1  0  0  0  0
  3 26  1  0  0  0  0
  4 27  1  0  0  0  0
 10 28  1  0  0  0  0
 11 29  1  0  0  0  0
 12 30  1  0  0  0  0
 12 31  1  0  0  0  0
 12 32  1  0  0  0  0
 16 33  1  0  0  0  0
 17 34  1  0  0  0  0
 19 35  1  0  0  0  0
 20 36  1  0  0  0  0
 20 37  1  0  0  0  0
 21 38  1  0  0  0  0
 24 39  1  0  0  0  0
 24 40  1  0  0  0  0
 24 41  1  0  0  0  0
M  END
> <Name>
18

> <IC50[uM]>
0.01

$$$$
18
  -OEChem-05192314333D
 Structure written by MMmdl.
 41 44  0     1  0  0  0  0  0999 V2000
   -6.3808   12.3686  -12.0119 C   0  0  0  0  0  0  0  0  0  0  0  0
   -6.5112   11.8116  -10.7365 C   0  0  0  0  0  0  0  0  0  0  0  0
   -7.7301   10.5824  -13.0300 C   0  0  0  0  0  0  0  0  0  0  0  0
   -6.9992   11.7782  -13.1263 C   0  0  0  0  0  0  0  0  0  0  0  0
   -7.8250   10.0166  -11.7542 C   0  0  0  0  0  0  0  0  0  0  0  0
   -7.2407   10.6266  -10.6010 C   0  0  0  0  0  0  0  0  0  0  0  0
   -7.6094    9.7513   -9.5103 C   0  0  0  0  0  0  0  0  0  0  0  0
   -8.2849    8.7404   -9.9846 N   0  0  0  0  0  0  0  0  0  0  0  0
   -8.4192    8.8674  -11.2983 N   0  0  0  0  0  0  0  0  0  0  0  0
   -7.3225    9.8872   -8.0242 C   0  0  0  0  0  0  0  0  0  0  0  0
   -4.3834   13.6199  -11.4933 N   0  0  0  0  0  0  0  0  0  0  0  0
   -3.4237   14.7282  -11.5789 C   0  0  0  0  0  0  0  0  0  0  0  0
   -5.5369   13.6139  -12.1980 C   0  0  0  0  0  0  0  0  0  0  0  0
   -5.8771   14.5161  -12.9653 O   0  0  0  0  0  0  0  0  0  0  0  0
   -5.9516   10.5005   -7.7272 C   0  0  0  0  0  0  0  0  0  0  0  0
   -5.8803   11.7722   -7.1539 C   0  0  0  0  0  0  0  0  0  0  0  0
   -4.6129   12.3159   -6.9118 C   0  0  3  0  0  0  0  0  0  0  0  0
   -3.4418   11.5625   -7.2429 C   0  0  0  0  0  0  0  0  0  0  0  0
   -3.5059   10.2842   -7.8062 C   0  0  0  0  0  0  0  0  0  0  0  0
   -4.7935    9.7780   -8.0417 C   0  0  0  0  0  0  0  0  0  0  0  0
   -4.0936   13.5458   -6.3664 C   0  0  0  0  0  0  0  0  0  0  0  0
   -2.7885   13.5288   -6.3742 N   0  0  0  0  0  0  0  0  0  0  0  0
   -2.3831   12.3683   -6.8823 N   0  0  0  0  0  0  0  0  0  0  0  0
   -0.9539   12.1016   -6.9897 C   0  0  0  0  0  0  0  0  0  0  0  0
   -6.0597   12.2849   -9.8771 H   0  0  0  0  0  0  0  0  0  0  0  0
   -8.1927   10.1256  -13.8924 H   0  0  0  0  0  0  0  0  0  0  0  0
   -6.9098   12.2595  -14.0890 H   0  0  0  0  0  0  0  0  0  0  0  0
   -8.0161    9.5818   -7.2548 H   0  0  0  0  0  0  0  0  0  0  0  0
   -4.1771   12.8456  -10.8951 H   0  0  0  0  0  0  0  0  0  0  0  0
   -2.5640   14.5209  -10.9247 H   0  0  0  0  0  0  0  0  0  0  0  0
   -3.0770   14.8334  -12.6175 H   0  0  0  0  0  0  0  0  0  0  0  0
   -3.9113   15.6608  -11.2589 H   0  0  0  0  0  0  0  0  0  0  0  0
   -6.4095   12.4637   -7.8260 H   0  0  0  0  0  0  0  0  0  0  0  0
   -6.4055   11.7253   -6.1885 H   0  0  0  0  0  0  0  0  0  0  0  0
   -4.6113   12.7610   -7.9177 H   0  0  0  0  0  0  0  0  0  0  0  0
   -2.6169    9.7197   -8.0459 H   0  0  0  0  0  0  0  0  0  0  0  0
   -4.8951    8.7966   -8.4810 H   0  0  0  0  0  0  0  0  0  0  0  0
   -4.6981   14.3639   -6.0034 H   0  0  0  0  0  0  0  0  0  0  0  0
   -0.3895   12.9643   -6.6059 H   0  0  0  0  0  0  0  0  0  0  0  0
   -0.7026   11.2076   -6.4002 H   0  0  0  0  0  0  0  0  0  0  0  0
   -0.6910   11.9314   -8.0442 H   0  0  0  0  0  0  0  0  0  0  0  0
  1  2  2  0  0  0  0
  1  4  1  0  0  0  0
  1 13  1  0  0  0  0
  2  6  1  0  0  0  0
  3  4  2  0  0  0  0
  3  5  1  0  0  0  0
  5  6  2  0  0  0  0
  5  9  1  0  0  0  0
  6  7  1  0  0  0  0
  7  8  1  0  0  0  0
  7 10  2  3  0  0  0
  8  9  2  0  0  0  0
 10 15  1  0  0  0  0
 11 12  1  0  0  0  0
 11 13  1  0  0  0  0
 13 14  2  0  0  0  0
 15 16  1  0  0  0  0
 15 20  2  0  0  0  0
 16 17  1  0  0  0  0
 17 18  1  0  0  0  0
 17 21  1  0  0  0  0
 18 19  2  0  0  0  0
 18 23  1  0  0  0  0
 19 20  1  0  0  0  0
 21 22  2  0  0  0  0
 22 23  1  0  0  0  0
 23 24  1  0  0  0  0
  2 25  1  0  0  0  0
  3 26  1  0  0  0  0
  4 27  1  0  0  0  0
 10 28  1  0  0  0  0
 11 29  1  0  0  0  0
 12 30  1  0  0  0  0
 12 31  1  0  0  0  0
 12 32  1  0  0  0  0
 16 33  1  0  0  0  0
 16 34  1  0  0  0  0
 17 35  1  0  0  0  0
 19 36  1  0  0  0  0
 20 37  1  0  0  0  0
 21 38  1  0  0  0  0
 24 39  1  0  0  0  0
 24 40  1  0  0  0  0
 24 41  1  0  0  0  0
M  END
> <Name>
18

> <IC50[uM]>
0.01

$$$$
18
  -OEChem-05192314333D
 Structure written by MMmdl.
 41 44  0     1  0  0  0  0  0999 V2000
   -6.3808   12.3686  -12.0119 C   0  0  0  0  0  0  0  0  0  0  0  0
   -6.5112   11.8116  -10.7365 C   0  0  0  0  0  0  0  0  0  0  0  0
   -7.7301   10.5824  -13.0300 C   0  0  0  0  0  0  0  0  0  0  0  0
   -6.9992   11.7782  -13.1263 C   0  0  0  0  0  0  0  0  0  0  0  0
   -7.8250   10.0166  -11.7542 C   0  0  0  0  0  0  0  0  0  0  0  0
   -7.2407   10.6266  -10.6010 C   0  0  0  0  0  0  0  0  0  0  0  0
   -7.6094    9.7513   -9.5103 C   0  0  0  0  0  0  0  0  0  0  0  0
   -8.2849    8.7404   -9.9846 N   0  0  0  0  0  0  0  0  0  0  0  0
   -8.4192    8.8674  -11.2983 N   0  0  0  0  0  0  0  0  0  0  0  0
   -7.3225    9.8872   -8.0242 C   0  0  0  0  0  0  0  0  0  0  0  0
   -4.3834   13.6199  -11.4933 N   0  0  0  0  0  0  0  0  0  0  0  0
   -3.4237   14.7282  -11.5789 C   0  0  0  0  0  0  0  0  0  0  0  0
   -5.5369   13.6139  -12.1980 C   0  0  0  0  0  0  0  0  0  0  0  0
   -5.8771   14.5161  -12.9653 O   0  0  0  0  0  0  0  0  0  0  0  0
   -5.9516   10.5005   -7.7272 C   0  0  3  0  0  0  0  0  0  0  0  0
   -5.8803   11.7722   -7.1539 C   0  0  0  0  0  0  0  0  0  0  0  0
   -4.6129   12.3159   -6.9118 C   0  0  0  0  0  0  0  0  0  0  0  0
   -3.4418   11.5625   -7.2429 C   0  0  3  0  0  0  0  0  0  0  0  0
   -3.5059   10.2842   -7.8062 C   0  0  0  0  0  0  0  0  0  0  0  0
   -4.7935    9.7780   -8.0417 C   0  0  0  0  0  0  0  0  0  0  0  0
   -4.0936   13.5458   -6.3664 C   0  0  0  0  0  0  0  0  0  0  0  0
   -2.7885   13.5288   -6.3742 N   0  0  0  0  0  0  0  0  0  0  0  0
   -2.3831   12.3683   -6.8823 N   0  0  3  0  0  0  0  0  0  0  0  0
   -0.9539   12.1016   -6.9897 C   0  0  0  0  0  0  0  0  0  0  0  0
   -6.0597   12.2849   -9.8771 H   0  0  0  0  0  0  0  0  0  0  0  0
   -8.1927   10.1256  -13.8924 H   0  0  0  0  0  0  0  0  0  0  0  0
   -6.9098   12.2595  -14.0890 H   0  0  0  0  0  0  0  0  0  0  0  0
   -8.0161    9.5818   -7.2548 H   0  0  0  0  0  0  0  0  0  0  0  0
   -2.5640   14.5209  -10.9247 H   0  0  0  0  0  0  0  0  0  0  0  0
   -3.0770   14.8334  -12.6175 H   0  0  0  0  0  0  0  0  0  0  0  0
   -3.9113   15.6608  -11.2589 H   0  0  0  0  0  0  0  0  0  0  0  0
   -5.2270   15.2086  -12.9486 H   0  0  0  0  0  0  0  0  0  0  0  0
   -5.9642   10.0474   -6.7249 H   0  0  0  0  0  0  0  0  0  0  0  0
   -6.7769   12.3203   -6.9046 H   0  0  0  0  0  0  0  0  0  0  0  0
   -3.4389   12.0070   -8.2491 H   0  0  0  0  0  0  0  0  0  0  0  0
   -2.6169    9.7197   -8.0459 H   0  0  0  0  0  0  0  0  0  0  0  0
   -4.8951    8.7966   -8.4810 H   0  0  0  0  0  0  0  0  0  0  0  0
   -4.6981   14.3639   -6.0034 H   0  0  0  0  0  0  0  0  0  0  0  0
   -0.3895   12.9643   -6.6059 H   0  0  0  0  0  0  0  0  0  0  0  0
   -0.7026   11.2076   -6.4002 H   0  0  0  0  0  0  0  0  0  0  0  0
   -0.6910   11.9314   -8.0442 H   0  0  0  0  0  0  0  0  0  0  0  0
  1  2  2  0  0  0  0
  1  4  1  0  0  0  0
  1 13  1  0  0  0  0
  2  6  1  0  0  0  0
  3  4  2  0  0  0  0
  3  5  1  0  0  0  0
  5  6  2  0  0  0  0
  5  9  1  0  0  0  0
  6  7  1  0  0  0  0
  7  8  1  0  0  0  0
  7 10  2  3  0  0  0
  8  9  2  0  0  0  0
 10 15  1  0  0  0  0
 11 12  1  0  0  0  0
 11 13  2  0  0  0  0
 13 14  1  0  0  0  0
 15 16  1  0  0  0  0
 15 20  1  0  0  0  0
 16 17  2  0  0  0  0
 17 18  1  0  0  0  0
 17 21  1  0  0  0  0
 18 19  1  0  0  0  0
 18 23  1  0  0  0  0
 19 20  2  0  0  0  0
 21 22  2  0  0  0  0
 22 23  1  0  0  0  0
 23 24  1  0  0  0  0
  2 25  1  0  0  0  0
  3 26  1  0  0  0  0
  4 27  1  0  0  0  0
 10 28  1  0  0  0  0
 12 29  1  0  0  0  0
 12 30  1  0  0  0  0
 12 31  1  0  0  0  0
 14 32  1  0  0  0  0
 15 33  1  0  0  0  0
 16 34  1  0  0  0  0
 18 35  1  0  0  0  0
 19 36  1  0  0  0  0
 20 37  1  0  0  0  0
 21 38  1  0  0  0  0
 24 39  1  0  0  0  0
 24 40  1  0  0  0  0
 24 41  1  0  0  0  0
M  END
> <Name>
18

> <IC50[uM]>
0.01

$$$$
18
  -OEChem-05192314333D
 Structure written by MMmdl.
 41 44  0     1  0  0  0  0  0999 V2000
   -6.3808   12.3686  -12.0119 C   0  0  0  0  0  0  0  0  0  0  0  0
   -6.5112   11.8116  -10.7365 C   0  0  0  0  0  0  0  0  0  0  0  0
   -7.7301   10.5824  -13.0300 C   0  0  0  0  0  0  0  0  0  0  0  0
   -6.9992   11.7782  -13.1263 C   0  0  0  0  0  0  0  0  0  0  0  0
   -7.8250   10.0166  -11.7542 C   0  0  0  0  0  0  0  0  0  0  0  0
   -7.2407   10.6266  -10.6010 C   0  0  0  0  0  0  0  0  0  0  0  0
   -7.6094    9.7513   -9.5103 C   0  0  0  0  0  0  0  0  0  0  0  0
   -8.2849    8.7404   -9.9846 N   0  0  0  0  0  0  0  0  0  0  0  0
   -8.4192    8.8674  -11.2983 N   0  0  0  0  0  0  0  0  0  0  0  0
   -7.3225    9.8872   -8.0242 C   0  0  0  0  0  0  0  0  0  0  0  0
   -4.3834   13.6199  -11.4933 N   0  0  0  0  0  0  0  0  0  0  0  0
   -3.4237   14.7282  -11.5789 C   0  0  0  0  0  0  0  0  0  0  0  0
   -5.5369   13.6139  -12.1980 C   0  0  0  0  0  0  0  0  0  0  0  0
   -5.8771   14.5161  -12.9653 O   0  0  0  0  0  0  0  0  0  0  0  0
   -5.9516   10.5005   -7.7272 C   0  0  0  0  0  0  0  0  0  0  0  0
   -5.8803   11.7722   -7.1539 C   0  0  0  0  0  0  0  0  0  0  0  0
   -4.6129   12.3159   -6.9118 C   0  0  3  0  0  0  0  0  0  0  0  0
   -3.4418   11.5625   -7.2429 C   0  0  3  0  0  0  0  0  0  0  0  0
   -3.5059   10.2842   -7.8062 C   0  0  0  0  0  0  0  0  0  0  0  0
   -4.7935    9.7780   -8.0417 C   0  0  0  0  0  0  0  0  0  0  0  0
   -4.0936   13.5458   -6.3664 C   0  0  0  0  0  0  0  0  0  0  0  0
   -2.7885   13.5288   -6.3742 N   0  0  0  0  0  0  0  0  0  0  0  0
   -2.3831   12.3683   -6.8823 N   0  0  3  0  0  0  0  0  0  0  0  0
   -0.9539   12.1016   -6.9897 C   0  0  0  0  0  0  0  0  0  0  0  0
   -6.0597   12.2849   -9.8771 H   0  0  0  0  0  0  0  0  0  0  0  0
   -8.1927   10.1256  -13.8924 H   0  0  0  0  0  0  0  0  0  0  0  0
   -6.9098   12.2595  -14.0890 H   0  0  0  0  0  0  0  0  0  0  0  0
   -8.0161    9.5818   -7.2548 H   0  0  0  0  0  0  0  0  0  0  0  0
   -2.5640   14.5209  -10.9247 H   0  0  0  0  0  0  0  0  0  0  0  0
   -3.0770   14.8334  -12.6175 H   0  0  0  0  0  0  0  0  0  0  0  0
   -3.9113   15.6608  -11.2589 H   0  0  0  0  0  0  0  0  0  0  0  0
   -5.2270   15.2086  -12.9486 H   0  0  0  0  0  0  0  0  0  0  0  0
   -6.7769   12.3203   -6.9046 H   0  0  0  0  0  0  0  0  0  0  0  0
   -4.6113   12.7610   -7.9177 H   0  0  0  0  0  0  0  0  0  0  0  0
   -3.4389   12.0070   -8.2491 H   0  0  0  0  0  0  0  0  0  0  0  0
   -2.6169    9.7197   -8.0459 H   0  0  0  0  0  0  0  0  0  0  0  0
   -4.8951    8.7966   -8.4810 H   0  0  0  0  0  0  0  0  0  0  0  0
   -4.6981   14.3639   -6.0034 H   0  0  0  0  0  0  0  0  0  0  0  0
   -0.3895   12.9643   -6.6059 H   0  0  0  0  0  0  0  0  0  0  0  0
   -0.7026   11.2076   -6.4002 H   0  0  0  0  0  0  0  0  0  0  0  0
   -0.6910   11.9314   -8.0442 H   0  0  0  0  0  0  0  0  0  0  0  0
  1  2  2  0  0  0  0
  1  4  1  0  0  0  0
  1 13  1  0  0  0  0
  2  6  1  0  0  0  0
  3  4  2  0  0  0  0
  3  5  1  0  0  0  0
  5  6  2  0  0  0  0
  5  9  1  0  0  0  0
  6  7  1  0  0  0  0
  7  8  1  0  0  0  0
  7 10  2  3  0  0  0
  8  9  2  0  0  0  0
 10 15  1  0  0  0  0
 11 12  1  0  0  0  0
 11 13  2  0  0  0  0
 13 14  1  0  0  0  0
 15 16  2  0  0  0  0
 15 20  1  0  0  0  0
 16 17  1  0  0  0  0
 17 18  1  0  0  0  0
 17 21  1  0  0  0  0
 18 19  1  0  0  0  0
 18 23  1  0  0  0  0
 19 20  2  0  0  0  0
 21 22  2  0  0  0  0
 22 23  1  0  0  0  0
 23 24  1  0  0  0  0
  2 25  1  0  0  0  0
  3 26  1  0  0  0  0
  4 27  1  0  0  0  0
 10 28  1  0  0  0  0
 12 29  1  0  0  0  0
 12 30  1  0  0  0  0
 12 31  1  0  0  0  0
 14 32  1  0  0  0  0
 16 33  1  0  0  0  0
 17 34  1  0  0  0  0
 18 35  1  0  0  0  0
 19 36  1  0  0  0  0
 20 37  1  0  0  0  0
 21 38  1  0  0  0  0
 24 39  1  0  0  0  0
 24 40  1  0  0  0  0
 24 41  1  0  0  0  0
M  END
> <Name>
18

> <IC50[uM]>
0.01

$$$$
18
  -OEChem-05192314333D
 Structure written by MMmdl.
 41 44  0     1  0  0  0  0  0999 V2000
   -6.3808   12.3686  -12.0119 C   0  0  0  0  0  0  0  0  0  0  0  0
   -6.5112   11.8116  -10.7365 C   0  0  0  0  0  0  0  0  0  0  0  0
   -7.7301   10.5824  -13.0300 C   0  0  0  0  0  0  0  0  0  0  0  0
   -6.9992   11.7782  -13.1263 C   0  0  0  0  0  0  0  0  0  0  0  0
   -7.8250   10.0166  -11.7542 C   0  0  0  0  0  0  0  0  0  0  0  0
   -7.2407   10.6266  -10.6010 C   0  0  0  0  0  0  0  0  0  0  0  0
   -7.6094    9.7513   -9.5103 C   0  0  3  0  0  0  0  0  0  0  0  0
   -8.2849    8.7404   -9.9846 N   0  0  0  0  0  0  0  0  0  0  0  0
   -8.4192    8.8674  -11.2983 N   0  0  0  0  0  0  0  0  0  0  0  0
   -7.3225    9.8872   -8.0242 C   0  0  0  0  0  0  0  0  0  0  0  0
   -4.3834   13.6199  -11.4933 N   0  0  0  0  0  0  0  0  0  0  0  0
   -3.4237   14.7282  -11.5789 C   0  0  0  0  0  0  0  0  0  0  0  0
   -5.5369   13.6139  -12.1980 C   0  0  0  0  0  0  0  0  0  0  0  0
   -5.8771   14.5161  -12.9653 O   0  0  0  0  0  0  0  0  0  0  0  0
   -5.9516   10.5005   -7.7272 C   0  0  0  0  0  0  0  0  0  0  0  0
   -5.8803   11.7722   -7.1539 C   0  0  0  0  0  0  0  0  0  0  0  0
   -4.6129   12.3159   -6.9118 C   0  0  0  0  0  0  0  0  0  0  0  0
   -3.4418   11.5625   -7.2429 C   0  0  3  0  0  0  0  0  0  0  0  0
   -3.5059   10.2842   -7.8062 C   0  0  0  0  0  0  0  0  0  0  0  0
   -4.7935    9.7780   -8.0417 C   0  0  0  0  0  0  0  0  0  0  0  0
   -4.0936   13.5458   -6.3664 C   0  0  0  0  0  0  0  0  0  0  0  0
   -2.7885   13.5288   -6.3742 N   0  0  0  0  0  0  0  0  0  0  0  0
   -2.3831   12.3683   -6.8823 N   0  0  3  0  0  0  0  0  0  0  0  0
   -0.9539   12.1016   -6.9897 C   0  0  0  0  0  0  0  0  0  0  0  0
   -6.0597   12.2849   -9.8771 H   0  0  0  0  0  0  0  0  0  0  0  0
   -8.1927   10.1256  -13.8924 H   0  0  0  0  0  0  0  0  0  0  0  0
   -6.9098   12.2595  -14.0890 H   0  0  0  0  0  0  0  0  0  0  0  0
   -6.6727    9.1898   -9.6417 H   0  0  0  0  0  0  0  0  0  0  0  0
   -8.0161    9.5818   -7.2548 H   0  0  0  0  0  0  0  0  0  0  0  0
   -2.5640   14.5209  -10.9247 H   0  0  0  0  0  0  0  0  0  0  0  0
   -3.0770   14.8334  -12.6175 H   0  0  0  0  0  0  0  0  0  0  0  0
   -3.9113   15.6608  -11.2589 H   0  0  0  0  0  0  0  0  0  0  0  0
   -5.2270   15.2086  -12.9486 H   0  0  0  0  0  0  0  0  0  0  0  0
   -6.7769   12.3203   -6.9046 H   0  0  0  0  0  0  0  0  0  0  0  0
   -3.4389   12.0070   -8.2491 H   0  0  0  0  0  0  0  0  0  0  0  0
   -2.6169    9.7197   -8.0459 H   0  0  0  0  0  0  0  0  0  0  0  0
   -4.8951    8.7966   -8.4810 H   0  0  0  0  0  0  0  0  0  0  0  0
   -4.6981   14.3639   -6.0034 H   0  0  0  0  0  0  0  0  0  0  0  0
   -0.3895   12.9643   -6.6059 H   0  0  0  0  0  0  0  0  0  0  0  0
   -0.7026   11.2076   -6.4002 H   0  0  0  0  0  0  0  0  0  0  0  0
   -0.6910   11.9314   -8.0442 H   0  0  0  0  0  0  0  0  0  0  0  0
  1  2  2  0  0  0  0
  1  4  1  0  0  0  0
  1 13  1  0  0  0  0
  2  6  1  0  0  0  0
  3  4  2  0  0  0  0
  3  5  1  0  0  0  0
  5  6  2  0  0  0  0
  5  9  1  0  0  0  0
  6  7  1  0  0  0  0
  7  8  1  0  0  0  0
  7 10  1  0  0  0  0
  8  9  2  0  0  0  0
 10 15  2  3  0  0  0
 11 12  1  0  0  0  0
 11 13  2  0  0  0  0
 13 14  1  0  0  0  0
 15 16  1  0  0  0  0
 15 20  1  0  0  0  0
 16 17  2  0  0  0  0
 17 18  1  0  0  0  0
 17 21  1  0  0  0  0
 18 19  1  0  0  0  0
 18 23  1  0  0  0  0
 19 20  2  0  0  0  0
 21 22  2  0  0  0  0
 22 23  1  0  0  0  0
 23 24  1  0  0  0  0
  2 25  1  0  0  0  0
  3 26  1  0  0  0  0
  4 27  1  0  0  0  0
  7 28  1  0  0  0  0
 10 29  1  0  0  0  0
 12 30  1  0  0  0  0
 12 31  1  0  0  0  0
 12 32  1  0  0  0  0
 14 33  1  0  0  0  0
 16 34  1  0  0  0  0
 18 35  1  0  0  0  0
 19 36  1  0  0  0  0
 20 37  1  0  0  0  0
 21 38  1  0  0  0  0
 24 39  1  0  0  0  0
 24 40  1  0  0  0  0
 24 41  1  0  0  0  0
M  END
> <Name>
18

> <IC50[uM]>
0.01

$$$$
18
  -OEChem-05192314333D
 Structure written by MMmdl.
 41 44  0     1  0  0  0  0  0999 V2000
   -6.3808   12.3686  -12.0119 C   0  0  0  0  0  0  0  0  0  0  0  0
   -6.5112   11.8116  -10.7365 C   0  0  0  0  0  0  0  0  0  0  0  0
   -7.7301   10.5824  -13.0300 C   0  0  0  0  0  0  0  0  0  0  0  0
   -6.9992   11.7782  -13.1263 C   0  0  0  0  0  0  0  0  0  0  0  0
   -7.8250   10.0166  -11.7542 C   0  0  0  0  0  0  0  0  0  0  0  0
   -7.2407   10.6266  -10.6010 C   0  0  0  0  0  0  0  0  0  0  0  0
   -7.6094    9.7513   -9.5103 C   0  0  0  0  0  0  0  0  0  0  0  0
   -8.2849    8.7404   -9.9846 N   0  0  0  0  0  0  0  0  0  0  0  0
   -8.4192    8.8674  -11.2983 N   0  0  0  0  0  0  0  0  0  0  0  0
   -7.3225    9.8872   -8.0242 C   0  0  0  0  0  0  0  0  0  0  0  0
   -4.3834   13.6199  -11.4933 N   0  0  0  0  0  0  0  0  0  0  0  0
   -3.4237   14.7282  -11.5789 C   0  0  0  0  0  0  0  0  0  0  0  0
   -5.5369   13.6139  -12.1980 C   0  0  0  0  0  0  0  0  0  0  0  0
   -5.8771   14.5161  -12.9653 O   0  0  0  0  0  0  0  0  0  0  0  0
   -5.9516   10.5005   -7.7272 C   0  0  0  0  0  0  0  0  0  0  0  0
   -5.8803   11.7722   -7.1539 C   0  0  0  0  0  0  0  0  0  0  0  0
   -4.6129   12.3159   -6.9118 C   0  0  0  0  0  0  0  0  0  0  0  0
   -3.4418   11.5625   -7.2429 C   0  0  3  0  0  0  0  0  0  0  0  0
   -3.5059   10.2842   -7.8062 C   0  0  0  0  0  0  0  0  0  0  0  0
   -4.7935    9.7780   -8.0417 C   0  0  0  0  0  0  0  0  0  0  0  0
   -4.0936   13.5458   -6.3664 C   0  0  0  0  0  0  0  0  0  0  0  0
   -2.7885   13.5288   -6.3742 N   0  0  0  0  0  0  0  0  0  0  0  0
   -2.3831   12.3683   -6.8823 N   0  0  3  0  0  0  0  0  0  0  0  0
   -0.9539   12.1016   -6.9897 C   0  0  0  0  0  0  0  0  0  0  0  0
   -6.0597   12.2849   -9.8771 H   0  0  0  0  0  0  0  0  0  0  0  0
   -8.1927   10.1256  -13.8924 H   0  0  0  0  0  0  0  0  0  0  0  0
   -6.9098   12.2595  -14.0890 H   0  0  0  0  0  0  0  0  0  0  0  0
   -8.0161    9.5818   -7.2548 H   0  0  0  0  0  0  0  0  0  0  0  0
   -2.5640   14.5209  -10.9247 H   0  0  0  0  0  0  0  0  0  0  0  0
   -3.0770   14.8334  -12.6175 H   0  0  0  0  0  0  0  0  0  0  0  0
   -3.9113   15.6608  -11.2589 H   0  0  0  0  0  0  0  0  0  0  0  0
   -5.2270   15.2086  -12.9486 H   0  0  0  0  0  0  0  0  0  0  0  0
   -6.7769   12.3203   -6.9046 H   0  0  0  0  0  0  0  0  0  0  0  0
   -3.4389   12.0070   -8.2491 H   0  0  0  0  0  0  0  0  0  0  0  0
   -2.9750   10.3141   -8.7692 H   0  0  0  0  0  0  0  0  0  0  0  0
   -2.9912    9.5904   -7.1252 H   0  0  0  0  0  0  0  0  0  0  0  0
   -4.8951    8.7966   -8.4810 H   0  0  0  0  0  0  0  0  0  0  0  0
   -4.6981   14.3639   -6.0034 H   0  0  0  0  0  0  0  0  0  0  0  0
   -0.3895   12.9643   -6.6059 H   0  0  0  0  0  0  0  0  0  0  0  0
   -0.7026   11.2076   -6.4002 H   0  0  0  0  0  0  0  0  0  0  0  0
   -0.6910   11.9314   -8.0442 H   0  0  0  0  0  0  0  0  0  0  0  0
  1  2  2  0  0  0  0
  1  4  1  0  0  0  0
  1 13  1  0  0  0  0
  2  6  1  0  0  0  0
  3  4  2  0  0  0  0
  3  5  1  0  0  0  0
  5  6  2  0  0  0  0
  5  9  1  0  0  0  0
  6  7  1  0  0  0  0
  7  8  1  0  0  0  0
  7 10  2  3  0  0  0
  8  9  2  0  0  0  0
 10 15  1  0  0  0  0
 11 12  1  0  0  0  0
 11 13  2  0  0  0  0
 13 14  1  0  0  0  0
 15 16  1  0  0  0  0
 15 20  2  0  0  0  0
 16 17  2  0  0  0  0
 17 18  1  0  0  0  0
 17 21  1  0  0  0  0
 18 19  1  0  0  0  0
 18 23  1  0  0  0  0
 19 20  1  0  0  0  0
 21 22  2  0  0  0  0
 22 23  1  0  0  0  0
 23 24  1  0  0  0  0
  2 25  1  0  0  0  0
  3 26  1  0  0  0  0
  4 27  1  0  0  0  0
 10 28  1  0  0  0  0
 12 29  1  0  0  0  0
 12 30  1  0  0  0  0
 12 31  1  0  0  0  0
 14 32  1  0  0  0  0
 16 33  1  0  0  0  0
 18 34  1  0  0  0  0
 19 35  1  0  0  0  0
 19 36  1  0  0  0  0
 20 37  1  0  0  0  0
 21 38  1  0  0  0  0
 24 39  1  0  0  0  0
 24 40  1  0  0  0  0
 24 41  1  0  0  0  0
M  END
> <Name>
18

> <IC50[uM]>
0.01

$$$$
18
  -OEChem-05192314333D
 Structure written by MMmdl.
 41 44  0     1  0  0  0  0  0999 V2000
   -6.3808   12.3686  -12.0119 C   0  0  0  0  0  0  0  0  0  0  0  0
   -6.5112   11.8116  -10.7365 C   0  0  0  0  0  0  0  0  0  0  0  0
   -7.7301   10.5824  -13.0300 C   0  0  0  0  0  0  0  0  0  0  0  0
   -6.9992   11.7782  -13.1263 C   0  0  0  0  0  0  0  0  0  0  0  0
   -7.8250   10.0166  -11.7542 C   0  0  0  0  0  0  0  0  0  0  0  0
   -7.2407   10.6266  -10.6010 C   0  0  0  0  0  0  0  0  0  0  0  0
   -7.6094    9.7513   -9.5103 C   0  0  0  0  0  0  0  0  0  0  0  0
   -8.2849    8.7404   -9.9846 N   0  0  0  0  0  0  0  0  0  0  0  0
   -8.4192    8.8674  -11.2983 N   0  0  0  0  0  0  0  0  0  0  0  0
   -7.3225    9.8872   -8.0242 C   0  0  0  0  0  0  0  0  0  0  0  0
   -4.3834   13.6199  -11.4933 N   0  0  0  0  0  0  0  0  0  0  0  0
   -3.4237   14.7282  -11.5789 C   0  0  0  0  0  0  0  0  0  0  0  0
   -5.5369   13.6139  -12.1980 C   0  0  0  0  0  0  0  0  0  0  0  0
   -5.8771   14.5161  -12.9653 O   0  0  0  0  0  0  0  0  0  0  0  0
   -5.9516   10.5005   -7.7272 C   0  0  0  0  0  0  0  0  0  0  0  0
   -5.8803   11.7722   -7.1539 C   0  0  0  0  0  0  0  0  0  0  0  0
   -4.6129   12.3159   -6.9118 C   0  0  3  0  0  0  0  0  0  0  0  0
   -3.4418   11.5625   -7.2429 C   0  0  0  0  0  0  0  0  0  0  0  0
   -3.5059   10.2842   -7.8062 C   0  0  0  0  0  0  0  0  0  0  0  0
   -4.7935    9.7780   -8.0417 C   0  0  0  0  0  0  0  0  0  0  0  0
   -4.0936   13.5458   -6.3664 C   0  0  0  0  0  0  0  0  0  0  0  0
   -2.7885   13.5288   -6.3742 N   0  0  0  0  0  0  0  0  0  0  0  0
   -2.3831   12.3683   -6.8823 N   0  0  0  0  0  0  0  0  0  0  0  0
   -0.9539   12.1016   -6.9897 C   0  0  0  0  0  0  0  0  0  0  0  0
   -6.0597   12.2849   -9.8771 H   0  0  0  0  0  0  0  0  0  0  0  0
   -8.1927   10.1256  -13.8924 H   0  0  0  0  0  0  0  0  0  0  0  0
   -6.9098   12.2595  -14.0890 H   0  0  0  0  0  0  0  0  0  0  0  0
   -8.0161    9.5818   -7.2548 H   0  0  0  0  0  0  0  0  0  0  0  0
   -2.5640   14.5209  -10.9247 H   0  0  0  0  0  0  0  0  0  0  0  0
   -3.0770   14.8334  -12.6175 H   0  0  0  0  0  0  0  0  0  0  0  0
   -3.9113   15.6608  -11.2589 H   0  0  0  0  0  0  0  0  0  0  0  0
   -5.2270   15.2086  -12.9486 H   0  0  0  0  0  0  0  0  0  0  0  0
   -6.7769   12.3203   -6.9046 H   0  0  0  0  0  0  0  0  0  0  0  0
   -4.6113   12.7610   -7.9177 H   0  0  0  0  0  0  0  0  0  0  0  0
   -2.6169    9.7197   -8.0459 H   0  0  0  0  0  0  0  0  0  0  0  0
   -4.8591    8.8345   -7.4800 H   0  0  0  0  0  0  0  0  0  0  0  0
   -4.8473    9.5673   -9.1200 H   0  0  0  0  0  0  0  0  0  0  0  0
   -4.6981   14.3639   -6.0034 H   0  0  0  0  0  0  0  0  0  0  0  0
   -0.3895   12.9643   -6.6059 H   0  0  0  0  0  0  0  0  0  0  0  0
   -0.7026   11.2076   -6.4002 H   0  0  0  0  0  0  0  0  0  0  0  0
   -0.6910   11.9314   -8.0442 H   0  0  0  0  0  0  0  0  0  0  0  0
  1  2  2  0  0  0  0
  1  4  1  0  0  0  0
  1 13  1  0  0  0  0
  2  6  1  0  0  0  0
  3  4  2  0  0  0  0
  3  5  1  0  0  0  0
  5  6  2  0  0  0  0
  5  9  1  0  0  0  0
  6  7  1  0  0  0  0
  7  8  1  0  0  0  0
  7 10  2  3  0  0  0
  8  9  2  0  0  0  0
 10 15  1  0  0  0  0
 11 12  1  0  0  0  0
 11 13  2  0  0  0  0
 13 14  1  0  0  0  0
 15 16  2  0  0  0  0
 15 20  1  0  0  0  0
 16 17  1  0  0  0  0
 17 18  1  0  0  0  0
 17 21  1  0  0  0  0
 18 19  2  0  0  0  0
 18 23  1  0  0  0  0
 19 20  1  0  0  0  0
 21 22  2  0  0  0  0
 22 23  1  0  0  0  0
 23 24  1  0  0  0  0
  2 25  1  0  0  0  0
  3 26  1  0  0  0  0
  4 27  1  0  0  0  0
 10 28  1  0  0  0  0
 12 29  1  0  0  0  0
 12 30  1  0  0  0  0
 12 31  1  0  0  0  0
 14 32  1  0  0  0  0
 16 33  1  0  0  0  0
 17 34  1  0  0  0  0
 19 35  1  0  0  0  0
 20 36  1  0  0  0  0
 20 37  1  0  0  0  0
 21 38  1  0  0  0  0
 24 39  1  0  0  0  0
 24 40  1  0  0  0  0
 24 41  1  0  0  0  0
M  END
> <Name>
18

> <IC50[uM]>
0.01

$$$$
18
  -OEChem-05192314333D
 Structure written by MMmdl.
 41 44  0     1  0  0  0  0  0999 V2000
   -6.3808   12.3686  -12.0119 C   0  0  0  0  0  0  0  0  0  0  0  0
   -6.5112   11.8116  -10.7365 C   0  0  0  0  0  0  0  0  0  0  0  0
   -7.7301   10.5824  -13.0300 C   0  0  0  0  0  0  0  0  0  0  0  0
   -6.9992   11.7782  -13.1263 C   0  0  0  0  0  0  0  0  0  0  0  0
   -7.8250   10.0166  -11.7542 C   0  0  0  0  0  0  0  0  0  0  0  0
   -7.2407   10.6266  -10.6010 C   0  0  0  0  0  0  0  0  0  0  0  0
   -7.6094    9.7513   -9.5103 C   0  0  0  0  0  0  0  0  0  0  0  0
   -8.2849    8.7404   -9.9846 N   0  0  0  0  0  0  0  0  0  0  0  0
   -8.4192    8.8674  -11.2983 N   0  0  0  0  0  0  0  0  0  0  0  0
   -7.3225    9.8872   -8.0242 C   0  0  0  0  0  0  0  0  0  0  0  0
   -4.3834   13.6199  -11.4933 N   0  0  0  0  0  0  0  0  0  0  0  0
   -3.4237   14.7282  -11.5789 C   0  0  0  0  0  0  0  0  0  0  0  0
   -5.5369   13.6139  -12.1980 C   0  0  0  0  0  0  0  0  0  0  0  0
   -5.8771   14.5161  -12.9653 O   0  0  0  0  0  0  0  0  0  0  0  0
   -5.9516   10.5005   -7.7272 C   0  0  0  0  0  0  0  0  0  0  0  0
   -5.8803   11.7722   -7.1539 C   0  0  0  0  0  0  0  0  0  0  0  0
   -4.6129   12.3159   -6.9118 C   0  0  3  0  0  0  0  0  0  0  0  0
   -3.4418   11.5625   -7.2429 C   0  0  0  0  0  0  0  0  0  0  0  0
   -3.5059   10.2842   -7.8062 C   0  0  0  0  0  0  0  0  0  0  0  0
   -4.7935    9.7780   -8.0417 C   0  0  0  0  0  0  0  0  0  0  0  0
   -4.0936   13.5458   -6.3664 C   0  0  0  0  0  0  0  0  0  0  0  0
   -2.7885   13.5288   -6.3742 N   0  0  0  0  0  0  0  0  0  0  0  0
   -2.3831   12.3683   -6.8823 N   0  0  0  0  0  0  0  0  0  0  0  0
   -0.9539   12.1016   -6.9897 C   0  0  0  0  0  0  0  0  0  0  0  0
   -6.0597   12.2849   -9.8771 H   0  0  0  0  0  0  0  0  0  0  0  0
   -8.1927   10.1256  -13.8924 H   0  0  0  0  0  0  0  0  0  0  0  0
   -6.9098   12.2595  -14.0890 H   0  0  0  0  0  0  0  0  0  0  0  0
   -8.0161    9.5818   -7.2548 H   0  0  0  0  0  0  0  0  0  0  0  0
   -2.5640   14.5209  -10.9247 H   0  0  0  0  0  0  0  0  0  0  0  0
   -3.0770   14.8334  -12.6175 H   0  0  0  0  0  0  0  0  0  0  0  0
   -3.9113   15.6608  -11.2589 H   0  0  0  0  0  0  0  0  0  0  0  0
   -5.2270   15.2086  -12.9486 H   0  0  0  0  0  0  0  0  0  0  0  0
   -6.4095   12.4637   -7.8260 H   0  0  0  0  0  0  0  0  0  0  0  0
   -6.4055   11.7253   -6.1885 H   0  0  0  0  0  0  0  0  0  0  0  0
   -4.6113   12.7610   -7.9177 H   0  0  0  0  0  0  0  0  0  0  0  0
   -2.6169    9.7197   -8.0459 H   0  0  0  0  0  0  0  0  0  0  0  0
   -4.8951    8.7966   -8.4810 H   0  0  0  0  0  0  0  0  0  0  0  0
   -4.6981   14.3639   -6.0034 H   0  0  0  0  0  0  0  0  0  0  0  0
   -0.3895   12.9643   -6.6059 H   0  0  0  0  0  0  0  0  0  0  0  0
   -0.7026   11.2076   -6.4002 H   0  0  0  0  0  0  0  0  0  0  0  0
   -0.6910   11.9314   -8.0442 H   0  0  0  0  0  0  0  0  0  0  0  0
  1  2  2  0  0  0  0
  1  4  1  0  0  0  0
  1 13  1  0  0  0  0
  2  6  1  0  0  0  0
  3  4  2  0  0  0  0
  3  5  1  0  0  0  0
  5  6  2  0  0  0  0
  5  9  1  0  0  0  0
  6  7  1  0  0  0  0
  7  8  1  0  0  0  0
  7 10  2  3  0  0  0
  8  9  2  0  0  0  0
 10 15  1  0  0  0  0
 11 12  1  0  0  0  0
 11 13  2  0  0  0  0
 13 14  1  0  0  0  0
 15 16  1  0  0  0  0
 15 20  2  0  0  0  0
 16 17  1  0  0  0  0
 17 18  1  0  0  0  0
 17 21  1  0  0  0  0
 18 19  2  0  0  0  0
 18 23  1  0  0  0  0
 19 20  1  0  0  0  0
 21 22  2  0  0  0  0
 22 23  1  0  0  0  0
 23 24  1  0  0  0  0
  2 25  1  0  0  0  0
  3 26  1  0  0  0  0
  4 27  1  0  0  0  0
 10 28  1  0  0  0  0
 12 29  1  0  0  0  0
 12 30  1  0  0  0  0
 12 31  1  0  0  0  0
 14 32  1  0  0  0  0
 16 33  1  0  0  0  0
 16 34  1  0  0  0  0
 17 35  1  0  0  0  0
 19 36  1  0  0  0  0
 20 37  1  0  0  0  0
 21 38  1  0  0  0  0
 24 39  1  0  0  0  0
 24 40  1  0  0  0  0
 24 41  1  0  0  0  0
M  END
> <Name>
18

> <IC50[uM]>
0.01

$$$$
18
  -OEChem-05192314333D
 Structure written by MMmdl.
 41 44  0     1  0  0  0  0  0999 V2000
   -6.3808   12.3686  -12.0119 C   0  0  0  0  0  0  0  0  0  0  0  0
   -6.5112   11.8116  -10.7365 C   0  0  0  0  0  0  0  0  0  0  0  0
   -7.7301   10.5824  -13.0300 C   0  0  0  0  0  0  0  0  0  0  0  0
   -6.9992   11.7782  -13.1263 C   0  0  0  0  0  0  0  0  0  0  0  0
   -7.8250   10.0166  -11.7542 C   0  0  0  0  0  0  0  0  0  0  0  0
   -7.2407   10.6266  -10.6010 C   0  0  0  0  0  0  0  0  0  0  0  0
   -7.6094    9.7513   -9.5103 C   0  0  0  0  0  0  0  0  0  0  0  0
   -8.2849    8.7404   -9.9846 N   0  0  0  0  0  0  0  0  0  0  0  0
   -8.4192    8.8674  -11.2983 N   0  0  0  0  0  0  0  0  0  0  0  0
   -7.3225    9.8872   -8.0242 C   0  0  0  0  0  0  0  0  0  0  0  0
   -4.3834   13.6199  -11.4933 N   0  0  0  0  0  0  0  0  0  0  0  0
   -3.4237   14.7282  -11.5789 C   0  0  0  0  0  0  0  0  0  0  0  0
   -5.5369   13.6139  -12.1980 C   0  0  0  0  0  0  0  0  0  0  0  0
   -5.8771   14.5161  -12.9653 O   0  0  0  0  0  0  0  0  0  0  0  0
   -5.9516   10.5005   -7.7272 C   0  0  0  0  0  0  0  0  0  0  0  0
   -5.8803   11.7722   -7.1539 C   0  0  0  0  0  0  0  0  0  0  0  0
   -4.6129   12.3159   -6.9118 C   0  0  0  0  0  0  0  0  0  0  0  0
   -3.4418   11.5625   -7.2429 C   0  0  3  0  0  0  0  0  0  0  0  0
   -3.5059   10.2842   -7.8062 C   0  0  0  0  0  0  0  0  0  0  0  0
   -4.7935    9.7780   -8.0417 C   0  0  0  0  0  0  0  0  0  0  0  0
   -4.0936   13.5458   -6.3664 C   0  0  0  0  0  0  0  0  0  0  0  0
   -2.7885   13.5288   -6.3742 N   0  0  0  0  0  0  0  0  0  0  0  0
   -2.3831   12.3683   -6.8823 N   0  0  3  0  0  0  0  0  0  0  0  0
   -0.9539   12.1016   -6.9897 C   0  0  0  0  0  0  0  0  0  0  0  0
   -6.0597   12.2849   -9.8771 H   0  0  0  0  0  0  0  0  0  0  0  0
   -8.1927   10.1256  -13.8924 H   0  0  0  0  0  0  0  0  0  0  0  0
   -6.9098   12.2595  -14.0890 H   0  0  0  0  0  0  0  0  0  0  0  0
   -8.0161    9.5818   -7.2548 H   0  0  0  0  0  0  0  0  0  0  0  0
   -4.1771   12.8456  -10.8951 H   0  0  0  0  0  0  0  0  0  0  0  0
   -2.5640   14.5209  -10.9247 H   0  0  0  0  0  0  0  0  0  0  0  0
   -3.0770   14.8334  -12.6175 H   0  0  0  0  0  0  0  0  0  0  0  0
   -3.9113   15.6608  -11.2589 H   0  0  0  0  0  0  0  0  0  0  0  0
   -6.7769   12.3203   -6.9046 H   0  0  0  0  0  0  0  0  0  0  0  0
   -3.4389   12.0070   -8.2491 H   0  0  0  0  0  0  0  0  0  0  0  0
   -2.6169    9.7197   -8.0459 H   0  0  0  0  0  0  0  0  0  0  0  0
   -4.8951    8.7966   -8.4810 H   0  0  0  0  0  0  0  0  0  0  0  0
   -4.6981   14.3639   -6.0034 H   0  0  0  0  0  0  0  0  0  0  0  0
   -2.4450   14.2812   -6.9362 H   0  0  0  0  0  0  0  0  0  0  0  0
   -0.3895   12.9648   -6.6072 H   0  0  0  0  0  0  0  0  0  0  0  0
   -0.7023   11.2084   -6.3991 H   0  0  0  0  0  0  0  0  0  0  0  0
   -0.6913   11.9300   -8.0440 H   0  0  0  0  0  0  0  0  0  0  0  0
  1  2  2  0  0  0  0
  1  4  1  0  0  0  0
  1 13  1  0  0  0  0
  2  6  1  0  0  0  0
  3  4  2  0  0  0  0
  3  5  1  0  0  0  0
  5  6  2  0  0  0  0
  5  9  1  0  0  0  0
  6  7  1  0  0  0  0
  7  8  1  0  0  0  0
  7 10  2  3  0  0  0
  8  9  2  0  0  0  0
 10 15  1  0  0  0  0
 11 12  1  0  0  0  0
 11 13  1  0  0  0  0
 13 14  2  0  0  0  0
 15 16  2  0  0  0  0
 15 20  1  0  0  0  0
 16 17  1  0  0  0  0
 17 18  1  0  0  0  0
 17 21  2  0  0  0  0
 18 19  1  0  0  0  0
 18 23  1  0  0  0  0
 19 20  2  0  0  0  0
 21 22  1  0  0  0  0
 22 23  1  0  0  0  0
 23 24  1  0  0  0  0
  2 25  1  0  0  0  0
  3 26  1  0  0  0  0
  4 27  1  0  0  0  0
 10 28  1  0  0  0  0
 11 29  1  0  0  0  0
 12 30  1  0  0  0  0
 12 31  1  0  0  0  0
 12 32  1  0  0  0  0
 16 33  1  0  0  0  0
 18 34  1  0  0  0  0
 19 35  1  0  0  0  0
 20 36  1  0  0  0  0
 21 37  1  0  0  0  0
 22 38  1  0  0  0  0
 24 39  1  0  0  0  0
 24 40  1  0  0  0  0
 24 41  1  0  0  0  0
M  END
> <Name>
18

> <IC50[uM]>
0.01

$$$$
18
  -OEChem-05192314333D
 Structure written by MMmdl.
 41 44  0     1  0  0  0  0  0999 V2000
   -6.3808   12.3686  -12.0119 C   0  0  0  0  0  0  0  0  0  0  0  0
   -6.5112   11.8116  -10.7365 C   0  0  0  0  0  0  0  0  0  0  0  0
   -7.7301   10.5824  -13.0300 C   0  0  0  0  0  0  0  0  0  0  0  0
   -6.9992   11.7782  -13.1263 C   0  0  0  0  0  0  0  0  0  0  0  0
   -7.8250   10.0166  -11.7542 C   0  0  0  0  0  0  0  0  0  0  0  0
   -7.2407   10.6266  -10.6010 C   0  0  0  0  0  0  0  0  0  0  0  0
   -7.6094    9.7513   -9.5103 C   0  0  0  0  0  0  0  0  0  0  0  0
   -8.2849    8.7404   -9.9846 N   0  0  0  0  0  0  0  0  0  0  0  0
   -8.4192    8.8674  -11.2983 N   0  0  0  0  0  0  0  0  0  0  0  0
   -7.3225    9.8872   -8.0242 C   0  0  0  0  0  0  0  0  0  0  0  0
   -4.3834   13.6199  -11.4933 N   0  0  0  0  0  0  0  0  0  0  0  0
   -3.4237   14.7282  -11.5789 C   0  0  0  0  0  0  0  0  0  0  0  0
   -5.5369   13.6139  -12.1980 C   0  0  0  0  0  0  0  0  0  0  0  0
   -5.8771   14.5161  -12.9653 O   0  0  0  0  0  0  0  0  0  0  0  0
   -5.9516   10.5005   -7.7272 C   0  0  0  0  0  0  0  0  0  0  0  0
   -5.8803   11.7722   -7.1539 C   0  0  0  0  0  0  0  0  0  0  0  0
   -4.6129   12.3159   -6.9118 C   0  0  0  0  0  0  0  0  0  0  0  0
   -3.4418   11.5625   -7.2429 C   0  0  0  0  0  0  0  0  0  0  0  0
   -3.5059   10.2842   -7.8062 C   0  0  0  0  0  0  0  0  0  0  0  0
   -4.7935    9.7780   -8.0417 C   0  0  0  0  0  0  0  0  0  0  0  0
   -4.0936   13.5458   -6.3664 C   0  0  0  0  0  0  0  0  0  0  0  0
   -2.7885   13.5288   -6.3742 N   0  0  0  0  0  0  0  0  0  0  0  0
   -2.3831   12.3683   -6.8823 N   0  0  3  0  0  0  0  0  0  0  0  0
   -0.9539   12.1016   -6.9897 C   0  0  0  0  0  0  0  0  0  0  0  0
   -6.0597   12.2849   -9.8771 H   0  0  0  0  0  0  0  0  0  0  0  0
   -8.1927   10.1256  -13.8924 H   0  0  0  0  0  0  0  0  0  0  0  0
   -6.9098   12.2595  -14.0890 H   0  0  0  0  0  0  0  0  0  0  0  0
   -8.0161    9.5818   -7.2548 H   0  0  0  0  0  0  0  0  0  0  0  0
   -4.1771   12.8456  -10.8951 H   0  0  0  0  0  0  0  0  0  0  0  0
   -2.5640   14.5209  -10.9247 H   0  0  0  0  0  0  0  0  0  0  0  0
   -3.0770   14.8334  -12.6175 H   0  0  0  0  0  0  0  0  0  0  0  0
   -3.9113   15.6608  -11.2589 H   0  0  0  0  0  0  0  0  0  0  0  0
   -6.7769   12.3203   -6.9046 H   0  0  0  0  0  0  0  0  0  0  0  0
   -2.6169    9.7197   -8.0459 H   0  0  0  0  0  0  0  0  0  0  0  0
   -4.8591    8.8345   -7.4800 H   0  0  0  0  0  0  0  0  0  0  0  0
   -4.8473    9.5673   -9.1200 H   0  0  0  0  0  0  0  0  0  0  0  0
   -4.6981   14.3639   -6.0034 H   0  0  0  0  0  0  0  0  0  0  0  0
   -2.4450   14.2812   -6.9362 H   0  0  0  0  0  0  0  0  0  0  0  0
   -0.3895   12.9648   -6.6072 H   0  0  0  0  0  0  0  0  0  0  0  0
   -0.7023   11.2084   -6.3991 H   0  0  0  0  0  0  0  0  0  0  0  0
   -0.6913   11.9300   -8.0440 H   0  0  0  0  0  0  0  0  0  0  0  0
  1  2  2  0  0  0  0
  1  4  1  0  0  0  0
  1 13  1  0  0  0  0
  2  6  1  0  0  0  0
  3  4  2  0  0  0  0
  3  5  1  0  0  0  0
  5  6  2  0  0  0  0
  5  9  1  0  0  0  0
  6  7  1  0  0  0  0
  7  8  1  0  0  0  0
  7 10  2  3  0  0  0
  8  9  2  0  0  0  0
 10 15  1  0  0  0  0
 11 12  1  0  0  0  0
 11 13  1  0  0  0  0
 13 14  2  0  0  0  0
 15 16  2  0  0  0  0
 15 20  1  0  0  0  0
 16 17  1  0  0  0  0
 17 18  1  0  0  0  0
 17 21  2  0  0  0  0
 18 19  2  0  0  0  0
 18 23  1  0  0  0  0
 19 20  1  0  0  0  0
 21 22  1  0  0  0  0
 22 23  1  0  0  0  0
 23 24  1  0  0  0  0
  2 25  1  0  0  0  0
  3 26  1  0  0  0  0
  4 27  1  0  0  0  0
 10 28  1  0  0  0  0
 11 29  1  0  0  0  0
 12 30  1  0  0  0  0
 12 31  1  0  0  0  0
 12 32  1  0  0  0  0
 16 33  1  0  0  0  0
 19 34  1  0  0  0  0
 20 35  1  0  0  0  0
 20 36  1  0  0  0  0
 21 37  1  0  0  0  0
 22 38  1  0  0  0  0
 24 39  1  0  0  0  0
 24 40  1  0  0  0  0
 24 41  1  0  0  0  0
M  END
> <Name>
18

> <IC50[uM]>
0.01

$$$$
18
  -OEChem-05192314333D
 Structure written by MMmdl.
 41 44  0     1  0  0  0  0  0999 V2000
   -6.3808   12.3686  -12.0119 C   0  0  0  0  0  0  0  0  0  0  0  0
   -6.5112   11.8116  -10.7365 C   0  0  0  0  0  0  0  0  0  0  0  0
   -7.7301   10.5824  -13.0300 C   0  0  0  0  0  0  0  0  0  0  0  0
   -6.9992   11.7782  -13.1263 C   0  0  0  0  0  0  0  0  0  0  0  0
   -7.8250   10.0166  -11.7542 C   0  0  0  0  0  0  0  0  0  0  0  0
   -7.2407   10.6266  -10.6010 C   0  0  0  0  0  0  0  0  0  0  0  0
   -7.6094    9.7513   -9.5103 C   0  0  0  0  0  0  0  0  0  0  0  0
   -8.2849    8.7404   -9.9846 N   0  0  0  0  0  0  0  0  0  0  0  0
   -8.4192    8.8674  -11.2983 N   0  0  0  0  0  0  0  0  0  0  0  0
   -7.3225    9.8872   -8.0242 C   0  0  0  0  0  0  0  0  0  0  0  0
   -4.3834   13.6199  -11.4933 N   0  0  0  0  0  0  0  0  0  0  0  0
   -3.4237   14.7282  -11.5789 C   0  0  0  0  0  0  0  0  0  0  0  0
   -5.5369   13.6139  -12.1980 C   0  0  0  0  0  0  0  0  0  0  0  0
   -5.8771   14.5161  -12.9653 O   0  0  0  0  0  0  0  0  0  0  0  0
   -5.9516   10.5005   -7.7272 C   0  0  0  0  0  0  0  0  0  0  0  0
   -5.8803   11.7722   -7.1539 C   0  0  0  0  0  0  0  0  0  0  0  0
   -4.6129   12.3159   -6.9118 C   0  0  0  0  0  0  0  0  0  0  0  0
   -3.4418   11.5625   -7.2429 C   0  0  0  0  0  0  0  0  0  0  0  0
   -3.5059   10.2842   -7.8062 C   0  0  0  0  0  0  0  0  0  0  0  0
   -4.7935    9.7780   -8.0417 C   0  0  0  0  0  0  0  0  0  0  0  0
   -4.0936   13.5458   -6.3664 C   0  0  0  0  0  0  0  0  0  0  0  0
   -2.7885   13.5288   -6.3742 N   0  0  0  0  0  0  0  0  0  0  0  0
   -2.3831   12.3683   -6.8823 N   0  0  3  0  0  0  0  0  0  0  0  0
   -0.9539   12.1016   -6.9897 C   0  0  0  0  0  0  0  0  0  0  0  0
   -6.0597   12.2849   -9.8771 H   0  0  0  0  0  0  0  0  0  0  0  0
   -8.1927   10.1256  -13.8924 H   0  0  0  0  0  0  0  0  0  0  0  0
   -6.9098   12.2595  -14.0890 H   0  0  0  0  0  0  0  0  0  0  0  0
   -8.0161    9.5818   -7.2548 H   0  0  0  0  0  0  0  0  0  0  0  0
   -4.1771   12.8456  -10.8951 H   0  0  0  0  0  0  0  0  0  0  0  0
   -2.5640   14.5209  -10.9247 H   0  0  0  0  0  0  0  0  0  0  0  0
   -3.0770   14.8334  -12.6175 H   0  0  0  0  0  0  0  0  0  0  0  0
   -3.9113   15.6608  -11.2589 H   0  0  0  0  0  0  0  0  0  0  0  0
   -6.4095   12.4637   -7.8260 H   0  0  0  0  0  0  0  0  0  0  0  0
   -6.4055   11.7253   -6.1885 H   0  0  0  0  0  0  0  0  0  0  0  0
   -2.6169    9.7197   -8.0459 H   0  0  0  0  0  0  0  0  0  0  0  0
   -4.8951    8.7966   -8.4810 H   0  0  0  0  0  0  0  0  0  0  0  0
   -4.6981   14.3639   -6.0034 H   0  0  0  0  0  0  0  0  0  0  0  0
   -2.4450   14.2812   -6.9362 H   0  0  0  0  0  0  0  0  0  0  0  0
   -0.3895   12.9648   -6.6072 H   0  0  0  0  0  0  0  0  0  0  0  0
   -0.7023   11.2084   -6.3991 H   0  0  0  0  0  0  0  0  0  0  0  0
   -0.6913   11.9300   -8.0440 H   0  0  0  0  0  0  0  0  0  0  0  0
  1  2  2  0  0  0  0
  1  4  1  0  0  0  0
  1 13  1  0  0  0  0
  2  6  1  0  0  0  0
  3  4  2  0  0  0  0
  3  5  1  0  0  0  0
  5  6  2  0  0  0  0
  5  9  1  0  0  0  0
  6  7  1  0  0  0  0
  7  8  1  0  0  0  0
  7 10  2  3  0  0  0
  8  9  2  0  0  0  0
 10 15  1  0  0  0  0
 11 12  1  0  0  0  0
 11 13  1  0  0  0  0
 13 14  2  0  0  0  0
 15 16  1  0  0  0  0
 15 20  2  0  0  0  0
 16 17  1  0  0  0  0
 17 18  1  0  0  0  0
 17 21  2  0  0  0  0
 18 19  2  0  0  0  0
 18 23  1  0  0  0  0
 19 20  1  0  0  0  0
 21 22  1  0  0  0  0
 22 23  1  0  0  0  0
 23 24  1  0  0  0  0
  2 25  1  0  0  0  0
  3 26  1  0  0  0  0
  4 27  1  0  0  0  0
 10 28  1  0  0  0  0
 11 29  1  0  0  0  0
 12 30  1  0  0  0  0
 12 31  1  0  0  0  0
 12 32  1  0  0  0  0
 16 33  1  0  0  0  0
 16 34  1  0  0  0  0
 19 35  1  0  0  0  0
 20 36  1  0  0  0  0
 21 37  1  0  0  0  0
 22 38  1  0  0  0  0
 24 39  1  0  0  0  0
 24 40  1  0  0  0  0
 24 41  1  0  0  0  0
M  END
> <Name>
18

> <IC50[uM]>
0.01

$$$$
18
  -OEChem-05192314333D
 Structure written by MMmdl.
 41 44  0     1  0  0  0  0  0999 V2000
   -6.3808   12.3686  -12.0119 C   0  0  0  0  0  0  0  0  0  0  0  0
   -6.5112   11.8116  -10.7365 C   0  0  0  0  0  0  0  0  0  0  0  0
   -7.7301   10.5824  -13.0300 C   0  0  0  0  0  0  0  0  0  0  0  0
   -6.9992   11.7782  -13.1263 C   0  0  0  0  0  0  0  0  0  0  0  0
   -7.8250   10.0166  -11.7542 C   0  0  0  0  0  0  0  0  0  0  0  0
   -7.2407   10.6266  -10.6010 C   0  0  0  0  0  0  0  0  0  0  0  0
   -7.6094    9.7513   -9.5103 C   0  0  0  0  0  0  0  0  0  0  0  0
   -8.2849    8.7404   -9.9846 N   0  0  0  0  0  0  0  0  0  0  0  0
   -8.4192    8.8674  -11.2983 N   0  0  0  0  0  0  0  0  0  0  0  0
   -7.3225    9.8872   -8.0242 C   0  0  0  0  0  0  0  0  0  0  0  0
   -4.3834   13.6199  -11.4933 N   0  0  0  0  0  0  0  0  0  0  0  0
   -3.4237   14.7282  -11.5789 C   0  0  0  0  0  0  0  0  0  0  0  0
   -5.5369   13.6139  -12.1980 C   0  0  0  0  0  0  0  0  0  0  0  0
   -5.8771   14.5161  -12.9653 O   0  0  0  0  0  0  0  0  0  0  0  0
   -5.9516   10.5005   -7.7272 C   0  0  0  0  0  0  0  0  0  0  0  0
   -5.8803   11.7722   -7.1539 C   0  0  0  0  0  0  0  0  0  0  0  0
   -4.6129   12.3159   -6.9118 C   0  0  0  0  0  0  0  0  0  0  0  0
   -3.4418   11.5625   -7.2429 C   0  0  3  0  0  0  0  0  0  0  0  0
   -3.5059   10.2842   -7.8062 C   0  0  0  0  0  0  0  0  0  0  0  0
   -4.7935    9.7780   -8.0417 C   0  0  0  0  0  0  0  0  0  0  0  0
   -4.0936   13.5458   -6.3664 C   0  0  0  0  0  0  0  0  0  0  0  0
   -2.7885   13.5288   -6.3742 N   0  0  0  0  0  0  0  0  0  0  0  0
   -2.3831   12.3683   -6.8823 N   0  0  3  0  0  0  0  0  0  0  0  0
   -0.9539   12.1016   -6.9897 C   0  0  0  0  0  0  0  0  0  0  0  0
   -6.0597   12.2849   -9.8771 H   0  0  0  0  0  0  0  0  0  0  0  0
   -8.1927   10.1256  -13.8924 H   0  0  0  0  0  0  0  0  0  0  0  0
   -6.9098   12.2595  -14.0890 H   0  0  0  0  0  0  0  0  0  0  0  0
   -8.0161    9.5818   -7.2548 H   0  0  0  0  0  0  0  0  0  0  0  0
   -2.5640   14.5209  -10.9247 H   0  0  0  0  0  0  0  0  0  0  0  0
   -3.0770   14.8334  -12.6175 H   0  0  0  0  0  0  0  0  0  0  0  0
   -3.9113   15.6608  -11.2589 H   0  0  0  0  0  0  0  0  0  0  0  0
   -5.2270   15.2086  -12.9486 H   0  0  0  0  0  0  0  0  0  0  0  0
   -6.7769   12.3203   -6.9046 H   0  0  0  0  0  0  0  0  0  0  0  0
   -3.4389   12.0070   -8.2491 H   0  0  0  0  0  0  0  0  0  0  0  0
   -2.6169    9.7197   -8.0459 H   0  0  0  0  0  0  0  0  0  0  0  0
   -4.8951    8.7966   -8.4810 H   0  0  0  0  0  0  0  0  0  0  0  0
   -4.6981   14.3639   -6.0034 H   0  0  0  0  0  0  0  0  0  0  0  0
   -2.4450   14.2812   -6.9362 H   0  0  0  0  0  0  0  0  0  0  0  0
   -0.3895   12.9648   -6.6072 H   0  0  0  0  0  0  0  0  0  0  0  0
   -0.7023   11.2084   -6.3991 H   0  0  0  0  0  0  0  0  0  0  0  0
   -0.6913   11.9300   -8.0440 H   0  0  0  0  0  0  0  0  0  0  0  0
  1  2  2  0  0  0  0
  1  4  1  0  0  0  0
  1 13  1  0  0  0  0
  2  6  1  0  0  0  0
  3  4  2  0  0  0  0
  3  5  1  0  0  0  0
  5  6  2  0  0  0  0
  5  9  1  0  0  0  0
  6  7  1  0  0  0  0
  7  8  1  0  0  0  0
  7 10  2  3  0  0  0
  8  9  2  0  0  0  0
 10 15  1  0  0  0  0
 11 12  1  0  0  0  0
 11 13  2  0  0  0  0
 13 14  1  0  0  0  0
 15 16  2  0  0  0  0
 15 20  1  0  0  0  0
 16 17  1  0  0  0  0
 17 18  1  0  0  0  0
 17 21  2  0  0  0  0
 18 19  1  0  0  0  0
 18 23  1  0  0  0  0
 19 20  2  0  0  0  0
 21 22  1  0  0  0  0
 22 23  1  0  0  0  0
 23 24  1  0  0  0  0
  2 25  1  0  0  0  0
  3 26  1  0  0  0  0
  4 27  1  0  0  0  0
 10 28  1  0  0  0  0
 12 29  1  0  0  0  0
 12 30  1  0  0  0  0
 12 31  1  0  0  0  0
 14 32  1  0  0  0  0
 16 33  1  0  0  0  0
 18 34  1  0  0  0  0
 19 35  1  0  0  0  0
 20 36  1  0  0  0  0
 21 37  1  0  0  0  0
 22 38  1  0  0  0  0
 24 39  1  0  0  0  0
 24 40  1  0  0  0  0
 24 41  1  0  0  0  0
M  END
> <Name>
18

> <IC50[uM]>
0.01

$$$$
18
  -OEChem-05192314333D
 Structure written by MMmdl.
 41 44  0     1  0  0  0  0  0999 V2000
   -6.3808   12.3686  -12.0119 C   0  0  0  0  0  0  0  0  0  0  0  0
   -6.5112   11.8116  -10.7365 C   0  0  0  0  0  0  0  0  0  0  0  0
   -7.7301   10.5824  -13.0300 C   0  0  0  0  0  0  0  0  0  0  0  0
   -6.9992   11.7782  -13.1263 C   0  0  0  0  0  0  0  0  0  0  0  0
   -7.8250   10.0166  -11.7542 C   0  0  0  0  0  0  0  0  0  0  0  0
   -7.2407   10.6266  -10.6010 C   0  0  0  0  0  0  0  0  0  0  0  0
   -7.6094    9.7513   -9.5103 C   0  0  0  0  0  0  0  0  0  0  0  0
   -8.2849    8.7404   -9.9846 N   0  0  0  0  0  0  0  0  0  0  0  0
   -8.4192    8.8674  -11.2983 N   0  0  0  0  0  0  0  0  0  0  0  0
   -7.3225    9.8872   -8.0242 C   0  0  0  0  0  0  0  0  0  0  0  0
   -4.3834   13.6199  -11.4933 N   0  0  0  0  0  0  0  0  0  0  0  0
   -3.4237   14.7282  -11.5789 C   0  0  0  0  0  0  0  0  0  0  0  0
   -5.5369   13.6139  -12.1980 C   0  0  0  0  0  0  0  0  0  0  0  0
   -5.8771   14.5161  -12.9653 O   0  0  0  0  0  0  0  0  0  0  0  0
   -5.9516   10.5005   -7.7272 C   0  0  0  0  0  0  0  0  0  0  0  0
   -5.8803   11.7722   -7.1539 C   0  0  0  0  0  0  0  0  0  0  0  0
   -4.6129   12.3159   -6.9118 C   0  0  0  0  0  0  0  0  0  0  0  0
   -3.4418   11.5625   -7.2429 C   0  0  0  0  0  0  0  0  0  0  0  0
   -3.5059   10.2842   -7.8062 C   0  0  0  0  0  0  0  0  0  0  0  0
   -4.7935    9.7780   -8.0417 C   0  0  0  0  0  0  0  0  0  0  0  0
   -4.0936   13.5458   -6.3664 C   0  0  0  0  0  0  0  0  0  0  0  0
   -2.7885   13.5288   -6.3742 N   0  0  0  0  0  0  0  0  0  0  0  0
   -2.3831   12.3683   -6.8823 N   0  0  3  0  0  0  0  0  0  0  0  0
   -0.9539   12.1016   -6.9897 C   0  0  0  0  0  0  0  0  0  0  0  0
   -6.0597   12.2849   -9.8771 H   0  0  0  0  0  0  0  0  0  0  0  0
   -8.1927   10.1256  -13.8924 H   0  0  0  0  0  0  0  0  0  0  0  0
   -6.9098   12.2595  -14.0890 H   0  0  0  0  0  0  0  0  0  0  0  0
   -8.0161    9.5818   -7.2548 H   0  0  0  0  0  0  0  0  0  0  0  0
   -2.5640   14.5209  -10.9247 H   0  0  0  0  0  0  0  0  0  0  0  0
   -3.0770   14.8334  -12.6175 H   0  0  0  0  0  0  0  0  0  0  0  0
   -3.9113   15.6608  -11.2589 H   0  0  0  0  0  0  0  0  0  0  0  0
   -5.2270   15.2086  -12.9486 H   0  0  0  0  0  0  0  0  0  0  0  0
   -6.7769   12.3203   -6.9046 H   0  0  0  0  0  0  0  0  0  0  0  0
   -2.6169    9.7197   -8.0459 H   0  0  0  0  0  0  0  0  0  0  0  0
   -4.8591    8.8345   -7.4800 H   0  0  0  0  0  0  0  0  0  0  0  0
   -4.8473    9.5673   -9.1200 H   0  0  0  0  0  0  0  0  0  0  0  0
   -4.6981   14.3639   -6.0034 H   0  0  0  0  0  0  0  0  0  0  0  0
   -2.4450   14.2812   -6.9362 H   0  0  0  0  0  0  0  0  0  0  0  0
   -0.3895   12.9648   -6.6072 H   0  0  0  0  0  0  0  0  0  0  0  0
   -0.7023   11.2084   -6.3991 H   0  0  0  0  0  0  0  0  0  0  0  0
   -0.6913   11.9300   -8.0440 H   0  0  0  0  0  0  0  0  0  0  0  0
  1  2  2  0  0  0  0
  1  4  1  0  0  0  0
  1 13  1  0  0  0  0
  2  6  1  0  0  0  0
  3  4  2  0  0  0  0
  3  5  1  0  0  0  0
  5  6  2  0  0  0  0
  5  9  1  0  0  0  0
  6  7  1  0  0  0  0
  7  8  1  0  0  0  0
  7 10  2  3  0  0  0
  8  9  2  0  0  0  0
 10 15  1  0  0  0  0
 11 12  1  0  0  0  0
 11 13  2  0  0  0  0
 13 14  1  0  0  0  0
 15 16  2  0  0  0  0
 15 20  1  0  0  0  0
 16 17  1  0  0  0  0
 17 18  1  0  0  0  0
 17 21  2  0  0  0  0
 18 19  2  0  0  0  0
 18 23  1  0  0  0  0
 19 20  1  0  0  0  0
 21 22  1  0  0  0  0
 22 23  1  0  0  0  0
 23 24  1  0  0  0  0
  2 25  1  0  0  0  0
  3 26  1  0  0  0  0
  4 27  1  0  0  0  0
 10 28  1  0  0  0  0
 12 29  1  0  0  0  0
 12 30  1  0  0  0  0
 12 31  1  0  0  0  0
 14 32  1  0  0  0  0
 16 33  1  0  0  0  0
 19 34  1  0  0  0  0
 20 35  1  0  0  0  0
 20 36  1  0  0  0  0
 21 37  1  0  0  0  0
 22 38  1  0  0  0  0
 24 39  1  0  0  0  0
 24 40  1  0  0  0  0
 24 41  1  0  0  0  0
M  END
> <Name>
18

> <IC50[uM]>
0.01

$$$$
18
  -OEChem-05192314333D
 Structure written by MMmdl.
 41 44  0     1  0  0  0  0  0999 V2000
   -6.3808   12.3686  -12.0119 C   0  0  0  0  0  0  0  0  0  0  0  0
   -6.5112   11.8116  -10.7365 C   0  0  0  0  0  0  0  0  0  0  0  0
   -7.7301   10.5824  -13.0300 C   0  0  0  0  0  0  0  0  0  0  0  0
   -6.9992   11.7782  -13.1263 C   0  0  0  0  0  0  0  0  0  0  0  0
   -7.8250   10.0166  -11.7542 C   0  0  0  0  0  0  0  0  0  0  0  0
   -7.2407   10.6266  -10.6010 C   0  0  0  0  0  0  0  0  0  0  0  0
   -7.6094    9.7513   -9.5103 C   0  0  0  0  0  0  0  0  0  0  0  0
   -8.2849    8.7404   -9.9846 N   0  0  0  0  0  0  0  0  0  0  0  0
   -8.4192    8.8674  -11.2983 N   0  0  0  0  0  0  0  0  0  0  0  0
   -7.3225    9.8872   -8.0242 C   0  0  0  0  0  0  0  0  0  0  0  0
   -4.3834   13.6199  -11.4933 N   0  0  0  0  0  0  0  0  0  0  0  0
   -3.4237   14.7282  -11.5789 C   0  0  0  0  0  0  0  0  0  0  0  0
   -5.5369   13.6139  -12.1980 C   0  0  0  0  0  0  0  0  0  0  0  0
   -5.8771   14.5161  -12.9653 O   0  0  0  0  0  0  0  0  0  0  0  0
   -5.9516   10.5005   -7.7272 C   0  0  0  0  0  0  0  0  0  0  0  0
   -5.8803   11.7722   -7.1539 C   0  0  0  0  0  0  0  0  0  0  0  0
   -4.6129   12.3159   -6.9118 C   0  0  0  0  0  0  0  0  0  0  0  0
   -3.4418   11.5625   -7.2429 C   0  0  0  0  0  0  0  0  0  0  0  0
   -3.5059   10.2842   -7.8062 C   0  0  0  0  0  0  0  0  0  0  0  0
   -4.7935    9.7780   -8.0417 C   0  0  0  0  0  0  0  0  0  0  0  0
   -4.0936   13.5458   -6.3664 C   0  0  0  0  0  0  0  0  0  0  0  0
   -2.7885   13.5288   -6.3742 N   0  0  0  0  0  0  0  0  0  0  0  0
   -2.3831   12.3683   -6.8823 N   0  0  3  0  0  0  0  0  0  0  0  0
   -0.9539   12.1016   -6.9897 C   0  0  0  0  0  0  0  0  0  0  0  0
   -6.0597   12.2849   -9.8771 H   0  0  0  0  0  0  0  0  0  0  0  0
   -8.1927   10.1256  -13.8924 H   0  0  0  0  0  0  0  0  0  0  0  0
   -6.9098   12.2595  -14.0890 H   0  0  0  0  0  0  0  0  0  0  0  0
   -8.0161    9.5818   -7.2548 H   0  0  0  0  0  0  0  0  0  0  0  0
   -2.5640   14.5209  -10.9247 H   0  0  0  0  0  0  0  0  0  0  0  0
   -3.0770   14.8334  -12.6175 H   0  0  0  0  0  0  0  0  0  0  0  0
   -3.9113   15.6608  -11.2589 H   0  0  0  0  0  0  0  0  0  0  0  0
   -5.2270   15.2086  -12.9486 H   0  0  0  0  0  0  0  0  0  0  0  0
   -6.4095   12.4637   -7.8260 H   0  0  0  0  0  0  0  0  0  0  0  0
   -6.4055   11.7253   -6.1885 H   0  0  0  0  0  0  0  0  0  0  0  0
   -2.6169    9.7197   -8.0459 H   0  0  0  0  0  0  0  0  0  0  0  0
   -4.8951    8.7966   -8.4810 H   0  0  0  0  0  0  0  0  0  0  0  0
   -4.6981   14.3639   -6.0034 H   0  0  0  0  0  0  0  0  0  0  0  0
   -2.4450   14.2812   -6.9362 H   0  0  0  0  0  0  0  0  0  0  0  0
   -0.3895   12.9648   -6.6072 H   0  0  0  0  0  0  0  0  0  0  0  0
   -0.7023   11.2084   -6.3991 H   0  0  0  0  0  0  0  0  0  0  0  0
   -0.6913   11.9300   -8.0440 H   0  0  0  0  0  0  0  0  0  0  0  0
  1  2  2  0  0  0  0
  1  4  1  0  0  0  0
  1 13  1  0  0  0  0
  2  6  1  0  0  0  0
  3  4  2  0  0  0  0
  3  5  1  0  0  0  0
  5  6  2  0  0  0  0
  5  9  1  0  0  0  0
  6  7  1  0  0  0  0
  7  8  1  0  0  0  0
  7 10  2  3  0  0  0
  8  9  2  0  0  0  0
 10 15  1  0  0  0  0
 11 12  1  0  0  0  0
 11 13  2  0  0  0  0
 13 14  1  0  0  0  0
 15 16  1  0  0  0  0
 15 20  2  0  0  0  0
 16 17  1  0  0  0  0
 17 18  1  0  0  0  0
 17 21  2  0  0  0  0
 18 19  2  0  0  0  0
 18 23  1  0  0  0  0
 19 20  1  0  0  0  0
 21 22  1  0  0  0  0
 22 23  1  0  0  0  0
 23 24  1  0  0  0  0
  2 25  1  0  0  0  0
  3 26  1  0  0  0  0
  4 27  1  0  0  0  0
 10 28  1  0  0  0  0
 12 29  1  0  0  0  0
 12 30  1  0  0  0  0
 12 31  1  0  0  0  0
 14 32  1  0  0  0  0
 16 33  1  0  0  0  0
 16 34  1  0  0  0  0
 19 35  1  0  0  0  0
 20 36  1  0  0  0  0
 21 37  1  0  0  0  0
 22 38  1  0  0  0  0
 24 39  1  0  0  0  0
 24 40  1  0  0  0  0
 24 41  1  0  0  0  0
M  END
> <Name>
18

> <IC50[uM]>
0.01

$$$$
18
  -OEChem-05192314333D
 Structure written by MMmdl.
 41 44  0     1  0  0  0  0  0999 V2000
   -6.3808   12.3686  -12.0119 C   0  0  3  0  0  0  0  0  0  0  0  0
   -6.5112   11.8116  -10.7365 C   0  0  0  0  0  0  0  0  0  0  0  0
   -7.7301   10.5824  -13.0300 C   0  0  0  0  0  0  0  0  0  0  0  0
   -6.9992   11.7782  -13.1263 C   0  0  0  0  0  0  0  0  0  0  0  0
   -7.8250   10.0166  -11.7542 C   0  0  0  0  0  0  0  0  0  0  0  0
   -7.2407   10.6266  -10.6010 C   0  0  0  0  0  0  0  0  0  0  0  0
   -7.6094    9.7513   -9.5103 C   0  0  0  0  0  0  0  0  0  0  0  0
   -8.2849    8.7404   -9.9846 N   0  0  0  0  0  0  0  0  0  0  0  0
   -8.4192    8.8674  -11.2983 N   0  0  0  0  0  0  0  0  0  0  0  0
   -7.3225    9.8872   -8.0242 C   0  0  0  0  0  0  0  0  0  0  0  0
   -4.3834   13.6199  -11.4933 N   0  0  0  0  0  0  0  0  0  0  0  0
   -3.4237   14.7282  -11.5789 C   0  0  0  0  0  0  0  0  0  0  0  0
   -5.5369   13.6139  -12.1980 C   0  0  0  0  0  0  0  0  0  0  0  0
   -5.8771   14.5161  -12.9653 O   0  0  0  0  0  0  0  0  0  0  0  0
   -5.9516   10.5005   -7.7272 C   0  0  0  0  0  0  0  0  0  0  0  0
   -5.8803   11.7722   -7.1539 C   0  0  0  0  0  0  0  0  0  0  0  0
   -4.6129   12.3159   -6.9118 C   0  0  0  0  0  0  0  0  0  0  0  0
   -3.4418   11.5625   -7.2429 C   0  0  0  0  0  0  0  0  0  0  0  0
   -3.5059   10.2842   -7.8062 C   0  0  0  0  0  0  0  0  0  0  0  0
   -4.7935    9.7780   -8.0417 C   0  0  0  0  0  0  0  0  0  0  0  0
   -4.0936   13.5458   -6.3664 C   0  0  0  0  0  0  0  0  0  0  0  0
   -2.7885   13.5288   -6.3742 N   0  0  0  0  0  0  0  0  0  0  0  0
   -2.3831   12.3683   -6.8823 N   0  0  0  0  0  0  0  0  0  0  0  0
   -0.9539   12.1016   -6.9897 C   0  0  0  0  0  0  0  0  0  0  0  0
   -7.2714   12.9905  -11.8387 H   0  0  0  0  0  0  0  0  0  0  0  0
   -6.0597   12.2849   -9.8771 H   0  0  0  0  0  0  0  0  0  0  0  0
   -8.1927   10.1256  -13.8924 H   0  0  0  0  0  0  0  0  0  0  0  0
   -6.9098   12.2595  -14.0890 H   0  0  0  0  0  0  0  0  0  0  0  0
   -8.0161    9.5818   -7.2548 H   0  0  0  0  0  0  0  0  0  0  0  0
   -4.1771   12.8456  -10.8951 H   0  0  0  0  0  0  0  0  0  0  0  0
   -2.5640   14.5209  -10.9247 H   0  0  0  0  0  0  0  0  0  0  0  0
   -3.0770   14.8334  -12.6175 H   0  0  0  0  0  0  0  0  0  0  0  0
   -3.9113   15.6608  -11.2589 H   0  0  0  0  0  0  0  0  0  0  0  0
   -6.4095   12.4637   -7.8260 H   0  0  0  0  0  0  0  0  0  0  0  0
   -6.4055   11.7253   -6.1885 H   0  0  0  0  0  0  0  0  0  0  0  0
   -2.6169    9.7197   -8.0459 H   0  0  0  0  0  0  0  0  0  0  0  0
   -4.8951    8.7966   -8.4810 H   0  0  0  0  0  0  0  0  0  0  0  0
   -4.6981   14.3639   -6.0034 H   0  0  0  0  0  0  0  0  0  0  0  0
   -0.3895   12.9643   -6.6059 H   0  0  0  0  0  0  0  0  0  0  0  0
   -0.7026   11.2076   -6.4002 H   0  0  0  0  0  0  0  0  0  0  0  0
   -0.6910   11.9314   -8.0442 H   0  0  0  0  0  0  0  0  0  0  0  0
  1  2  1  0  0  0  0
  1  4  1  0  0  0  0
  1 13  1  0  0  0  0
  2  6  2  0  0  0  0
  3  4  2  0  0  0  0
  3  5  1  0  0  0  0
  5  6  1  0  0  0  0
  5  9  2  0  0  0  0
  6  7  1  0  0  0  0
  7  8  2  0  0  0  0
  7 10  1  0  0  0  0
  8  9  1  0  0  0  0
 10 15  2  3  0  0  0
 11 12  1  0  0  0  0
 11 13  1  0  0  0  0
 13 14  2  0  0  0  0
 15 16  1  0  0  0  0
 15 20  1  0  0  0  0
 16 17  1  0  0  0  0
 17 18  2  0  0  0  0
 17 21  1  0  0  0  0
 18 19  1  0  0  0  0
 18 23  1  0  0  0  0
 19 20  2  0  0  0  0
 21 22  2  0  0  0  0
 22 23  1  0  0  0  0
 23 24  1  0  0  0  0
  1 25  1  0  0  0  0
  2 26  1  0  0  0  0
  3 27  1  0  0  0  0
  4 28  1  0  0  0  0
 10 29  1  0  0  0  0
 11 30  1  0  0  0  0
 12 31  1  0  0  0  0
 12 32  1  0  0  0  0
 12 33  1  0  0  0  0
 16 34  1  0  0  0  0
 16 35  1  0  0  0  0
 19 36  1  0  0  0  0
 20 37  1  0  0  0  0
 21 38  1  0  0  0  0
 24 39  1  0  0  0  0
 24 40  1  0  0  0  0
 24 41  1  0  0  0  0
M  END
> <Name>
18

> <IC50[uM]>
0.01

$$$$
18
  -OEChem-05192314333D
 Structure written by MMmdl.
 41 44  0     1  0  0  0  0  0999 V2000
   -6.3808   12.3686  -12.0119 C   0  0  0  0  0  0  0  0  0  0  0  0
   -6.5112   11.8116  -10.7365 C   0  0  0  0  0  0  0  0  0  0  0  0
   -7.7301   10.5824  -13.0300 C   0  0  0  0  0  0  0  0  0  0  0  0
   -6.9992   11.7782  -13.1263 C   0  0  0  0  0  0  0  0  0  0  0  0
   -7.8250   10.0166  -11.7542 C   0  0  0  0  0  0  0  0  0  0  0  0
   -7.2407   10.6266  -10.6010 C   0  0  3  0  0  0  0  0  0  0  0  0
   -7.6094    9.7513   -9.5103 C   0  0  0  0  0  0  0  0  0  0  0  0
   -8.2849    8.7404   -9.9846 N   0  0  0  0  0  0  0  0  0  0  0  0
   -8.4192    8.8674  -11.2983 N   0  0  0  0  0  0  0  0  0  0  0  0
   -7.3225    9.8872   -8.0242 C   0  0  0  0  0  0  0  0  0  0  0  0
   -4.3834   13.6199  -11.4933 N   0  0  0  0  0  0  0  0  0  0  0  0
   -3.4237   14.7282  -11.5789 C   0  0  0  0  0  0  0  0  0  0  0  0
   -5.5369   13.6139  -12.1980 C   0  0  0  0  0  0  0  0  0  0  0  0
   -5.8771   14.5161  -12.9653 O   0  0  0  0  0  0  0  0  0  0  0  0
   -5.9516   10.5005   -7.7272 C   0  0  0  0  0  0  0  0  0  0  0  0
   -5.8803   11.7722   -7.1539 C   0  0  0  0  0  0  0  0  0  0  0  0
   -4.6129   12.3159   -6.9118 C   0  0  0  0  0  0  0  0  0  0  0  0
   -3.4418   11.5625   -7.2429 C   0  0  0  0  0  0  0  0  0  0  0  0
   -3.5059   10.2842   -7.8062 C   0  0  0  0  0  0  0  0  0  0  0  0
   -4.7935    9.7780   -8.0417 C   0  0  0  0  0  0  0  0  0  0  0  0
   -4.0936   13.5458   -6.3664 C   0  0  0  0  0  0  0  0  0  0  0  0
   -2.7885   13.5288   -6.3742 N   0  0  0  0  0  0  0  0  0  0  0  0
   -2.3831   12.3683   -6.8823 N   0  0  0  0  0  0  0  0  0  0  0  0
   -0.9539   12.1016   -6.9897 C   0  0  0  0  0  0  0  0  0  0  0  0
   -6.0597   12.2849   -9.8771 H   0  0  0  0  0  0  0  0  0  0  0  0
   -8.1927   10.1256  -13.8924 H   0  0  0  0  0  0  0  0  0  0  0  0
   -6.9098   12.2595  -14.0890 H   0  0  0  0  0  0  0  0  0  0  0  0
   -8.1598   11.2101  -10.4437 H   0  0  0  0  0  0  0  0  0  0  0  0
   -8.0161    9.5818   -7.2548 H   0  0  0  0  0  0  0  0  0  0  0  0
   -4.1771   12.8456  -10.8951 H   0  0  0  0  0  0  0  0  0  0  0  0
   -2.5640   14.5209  -10.9247 H   0  0  0  0  0  0  0  0  0  0  0  0
   -3.0770   14.8334  -12.6175 H   0  0  0  0  0  0  0  0  0  0  0  0
   -3.9113   15.6608  -11.2589 H   0  0  0  0  0  0  0  0  0  0  0  0
   -6.4095   12.4637   -7.8260 H   0  0  0  0  0  0  0  0  0  0  0  0
   -6.4055   11.7253   -6.1885 H   0  0  0  0  0  0  0  0  0  0  0  0
   -2.6169    9.7197   -8.0459 H   0  0  0  0  0  0  0  0  0  0  0  0
   -4.8951    8.7966   -8.4810 H   0  0  0  0  0  0  0  0  0  0  0  0
   -4.6981   14.3639   -6.0034 H   0  0  0  0  0  0  0  0  0  0  0  0
   -0.3895   12.9643   -6.6059 H   0  0  0  0  0  0  0  0  0  0  0  0
   -0.7026   11.2076   -6.4002 H   0  0  0  0  0  0  0  0  0  0  0  0
   -0.6910   11.9314   -8.0442 H   0  0  0  0  0  0  0  0  0  0  0  0
  1  2  2  0  0  0  0
  1  4  1  0  0  0  0
  1 13  1  0  0  0  0
  2  6  1  0  0  0  0
  3  4  2  0  0  0  0
  3  5  1  0  0  0  0
  5  6  1  0  0  0  0
  5  9  2  0  0  0  0
  6  7  1  0  0  0  0
  7  8  2  0  0  0  0
  7 10  1  0  0  0  0
  8  9  1  0  0  0  0
 10 15  2  3  0  0  0
 11 12  1  0  0  0  0
 11 13  1  0  0  0  0
 13 14  2  0  0  0  0
 15 16  1  0  0  0  0
 15 20  1  0  0  0  0
 16 17  1  0  0  0  0
 17 18  2  0  0  0  0
 17 21  1  0  0  0  0
 18 19  1  0  0  0  0
 18 23  1  0  0  0  0
 19 20  2  0  0  0  0
 21 22  2  0  0  0  0
 22 23  1  0  0  0  0
 23 24  1  0  0  0  0
  2 25  1  0  0  0  0
  3 26  1  0  0  0  0
  4 27  1  0  0  0  0
  6 28  1  0  0  0  0
 10 29  1  0  0  0  0
 11 30  1  0  0  0  0
 12 31  1  0  0  0  0
 12 32  1  0  0  0  0
 12 33  1  0  0  0  0
 16 34  1  0  0  0  0
 16 35  1  0  0  0  0
 19 36  1  0  0  0  0
 20 37  1  0  0  0  0
 21 38  1  0  0  0  0
 24 39  1  0  0  0  0
 24 40  1  0  0  0  0
 24 41  1  0  0  0  0
M  END
> <Name>
18

> <IC50[uM]>
0.01

$$$$
18
  -OEChem-05192314333D
 Structure written by MMmdl.
 41 44  0     0  0  0  0  0  0999 V2000
   -6.3808   12.3686  -12.0119 C   0  0  0  0  0  0  0  0  0  0  0  0
   -6.5112   11.8116  -10.7365 C   0  0  0  0  0  0  0  0  0  0  0  0
   -7.7301   10.5824  -13.0300 C   0  0  0  0  0  0  0  0  0  0  0  0
   -6.9992   11.7782  -13.1263 C   0  0  0  0  0  0  0  0  0  0  0  0
   -7.8250   10.0166  -11.7542 C   0  0  0  0  0  0  0  0  0  0  0  0
   -7.2407   10.6266  -10.6010 C   0  0  0  0  0  0  0  0  0  0  0  0
   -7.6094    9.7513   -9.5103 C   0  0  0  0  0  0  0  0  0  0  0  0
   -8.2849    8.7404   -9.9846 N   0  0  0  0  0  0  0  0  0  0  0  0
   -8.4192    8.8674  -11.2983 N   0  0  0  0  0  0  0  0  0  0  0  0
   -7.3225    9.8872   -8.0242 C   0  0  0  0  0  0  0  0  0  0  0  0
   -4.3834   13.6199  -11.4933 N   0  0  0  0  0  0  0  0  0  0  0  0
   -3.4237   14.7282  -11.5789 C   0  0  0  0  0  0  0  0  0  0  0  0
   -5.5369   13.6139  -12.1980 C   0  0  0  0  0  0  0  0  0  0  0  0
   -5.8771   14.5161  -12.9653 O   0  0  0  0  0  0  0  0  0  0  0  0
   -5.9516   10.5005   -7.7272 C   0  0  0  0  0  0  0  0  0  0  0  0
   -5.8803   11.7722   -7.1539 C   0  0  0  0  0  0  0  0  0  0  0  0
   -4.6129   12.3159   -6.9118 C   0  0  0  0  0  0  0  0  0  0  0  0
   -3.4418   11.5625   -7.2429 C   0  0  0  0  0  0  0  0  0  0  0  0
   -3.5059   10.2842   -7.8062 C   0  0  0  0  0  0  0  0  0  0  0  0
   -4.7935    9.7780   -8.0417 C   0  0  0  0  0  0  0  0  0  0  0  0
   -4.0936   13.5458   -6.3664 C   0  0  0  0  0  0  0  0  0  0  0  0
   -2.7885   13.5288   -6.3742 N   0  0  0  0  0  0  0  0  0  0  0  0
   -2.3831   12.3683   -6.8823 N   0  0  0  0  0  0  0  0  0  0  0  0
   -0.9539   12.1016   -6.9897 C   0  0  0  0  0  0  0  0  0  0  0  0
   -6.0597   12.2849   -9.8771 H   0  0  0  0  0  0  0  0  0  0  0  0
   -8.7517   10.7843  -13.3842 H   0  0  0  0  0  0  0  0  0  0  0  0
   -7.2525    9.8433  -13.6900 H   0  0  0  0  0  0  0  0  0  0  0  0
   -6.9098   12.2595  -14.0890 H   0  0  0  0  0  0  0  0  0  0  0  0
   -8.0161    9.5818   -7.2548 H   0  0  0  0  0  0  0  0  0  0  0  0
   -4.1771   12.8456  -10.8951 H   0  0  0  0  0  0  0  0  0  0  0  0
   -2.5640   14.5209  -10.9247 H   0  0  0  0  0  0  0  0  0  0  0  0
   -3.0770   14.8334  -12.6175 H   0  0  0  0  0  0  0  0  0  0  0  0
   -3.9113   15.6608  -11.2589 H   0  0  0  0  0  0  0  0  0  0  0  0
   -6.4095   12.4637   -7.8260 H   0  0  0  0  0  0  0  0  0  0  0  0
   -6.4055   11.7253   -6.1885 H   0  0  0  0  0  0  0  0  0  0  0  0
   -2.6169    9.7197   -8.0459 H   0  0  0  0  0  0  0  0  0  0  0  0
   -4.8951    8.7966   -8.4810 H   0  0  0  0  0  0  0  0  0  0  0  0
   -4.6981   14.3639   -6.0034 H   0  0  0  0  0  0  0  0  0  0  0  0
   -0.3895   12.9643   -6.6059 H   0  0  0  0  0  0  0  0  0  0  0  0
   -0.7026   11.2076   -6.4002 H   0  0  0  0  0  0  0  0  0  0  0  0
   -0.6910   11.9314   -8.0442 H   0  0  0  0  0  0  0  0  0  0  0  0
  1  2  1  0  0  0  0
  1  4  2  0  0  0  0
  1 13  1  0  0  0  0
  2  6  2  0  0  0  0
  3  4  1  0  0  0  0
  3  5  1  0  0  0  0
  5  6  1  0  0  0  0
  5  9  2  0  0  0  0
  6  7  1  0  0  0  0
  7  8  2  0  0  0  0
  7 10  1  0  0  0  0
  8  9  1  0  0  0  0
 10 15  2  3  0  0  0
 11 12  1  0  0  0  0
 11 13  1  0  0  0  0
 13 14  2  0  0  0  0
 15 16  1  0  0  0  0
 15 20  1  0  0  0  0
 16 17  1  0  0  0  0
 17 18  2  0  0  0  0
 17 21  1  0  0  0  0
 18 19  1  0  0  0  0
 18 23  1  0  0  0  0
 19 20  2  0  0  0  0
 21 22  2  0  0  0  0
 22 23  1  0  0  0  0
 23 24  1  0  0  0  0
  2 25  1  0  0  0  0
  3 26  1  0  0  0  0
  3 27  1  0  0  0  0
  4 28  1  0  0  0  0
 10 29  1  0  0  0  0
 11 30  1  0  0  0  0
 12 31  1  0  0  0  0
 12 32  1  0  0  0  0
 12 33  1  0  0  0  0
 16 34  1  0  0  0  0
 16 35  1  0  0  0  0
 19 36  1  0  0  0  0
 20 37  1  0  0  0  0
 21 38  1  0  0  0  0
 24 39  1  0  0  0  0
 24 40  1  0  0  0  0
 24 41  1  0  0  0  0
M  END
> <Name>
18

> <IC50[uM]>
0.01

$$$$
18
  -OEChem-05192314333D
 Structure written by MMmdl.
 41 44  0     1  0  0  0  0  0999 V2000
   -6.3808   12.3686  -12.0119 C   0  0  3  0  0  0  0  0  0  0  0  0
   -6.5112   11.8116  -10.7365 C   0  0  0  0  0  0  0  0  0  0  0  0
   -7.7301   10.5824  -13.0300 C   0  0  0  0  0  0  0  0  0  0  0  0
   -6.9992   11.7782  -13.1263 C   0  0  0  0  0  0  0  0  0  0  0  0
   -7.8250   10.0166  -11.7542 C   0  0  0  0  0  0  0  0  0  0  0  0
   -7.2407   10.6266  -10.6010 C   0  0  0  0  0  0  0  0  0  0  0  0
   -7.6094    9.7513   -9.5103 C   0  0  0  0  0  0  0  0  0  0  0  0
   -8.2849    8.7404   -9.9846 N   0  0  0  0  0  0  0  0  0  0  0  0
   -8.4192    8.8674  -11.2983 N   0  0  0  0  0  0  0  0  0  0  0  0
   -7.3225    9.8872   -8.0242 C   0  0  0  0  0  0  0  0  0  0  0  0
   -4.3834   13.6199  -11.4933 N   0  0  0  0  0  0  0  0  0  0  0  0
   -3.4237   14.7282  -11.5789 C   0  0  0  0  0  0  0  0  0  0  0  0
   -5.5369   13.6139  -12.1980 C   0  0  0  0  0  0  0  0  0  0  0  0
   -5.8771   14.5161  -12.9653 O   0  0  0  0  0  0  0  0  0  0  0  0
   -5.9516   10.5005   -7.7272 C   0  0  0  0  0  0  0  0  0  0  0  0
   -5.8803   11.7722   -7.1539 C   0  0  0  0  0  0  0  0  0  0  0  0
   -4.6129   12.3159   -6.9118 C   0  0  0  0  0  0  0  0  0  0  0  0
   -3.4418   11.5625   -7.2429 C   0  0  0  0  0  0  0  0  0  0  0  0
   -3.5059   10.2842   -7.8062 C   0  0  0  0  0  0  0  0  0  0  0  0
   -4.7935    9.7780   -8.0417 C   0  0  0  0  0  0  0  0  0  0  0  0
   -4.0936   13.5458   -6.3664 C   0  0  0  0  0  0  0  0  0  0  0  0
   -2.7885   13.5288   -6.3742 N   0  0  0  0  0  0  0  0  0  0  0  0
   -2.3831   12.3683   -6.8823 N   0  0  0  0  0  0  0  0  0  0  0  0
   -0.9539   12.1016   -6.9897 C   0  0  0  0  0  0  0  0  0  0  0  0
   -7.2714   12.9905  -11.8387 H   0  0  0  0  0  0  0  0  0  0  0  0
   -6.0597   12.2849   -9.8771 H   0  0  0  0  0  0  0  0  0  0  0  0
   -8.1927   10.1256  -13.8924 H   0  0  0  0  0  0  0  0  0  0  0  0
   -6.9098   12.2595  -14.0890 H   0  0  0  0  0  0  0  0  0  0  0  0
   -8.0161    9.5818   -7.2548 H   0  0  0  0  0  0  0  0  0  0  0  0
   -2.5640   14.5209  -10.9247 H   0  0  0  0  0  0  0  0  0  0  0  0
   -3.0770   14.8334  -12.6175 H   0  0  0  0  0  0  0  0  0  0  0  0
   -3.9113   15.6608  -11.2589 H   0  0  0  0  0  0  0  0  0  0  0  0
   -5.2270   15.2086  -12.9486 H   0  0  0  0  0  0  0  0  0  0  0  0
   -6.4095   12.4637   -7.8260 H   0  0  0  0  0  0  0  0  0  0  0  0
   -6.4055   11.7253   -6.1885 H   0  0  0  0  0  0  0  0  0  0  0  0
   -2.6169    9.7197   -8.0459 H   0  0  0  0  0  0  0  0  0  0  0  0
   -4.8951    8.7966   -8.4810 H   0  0  0  0  0  0  0  0  0  0  0  0
   -4.6981   14.3639   -6.0034 H   0  0  0  0  0  0  0  0  0  0  0  0
   -0.3895   12.9643   -6.6059 H   0  0  0  0  0  0  0  0  0  0  0  0
   -0.7026   11.2076   -6.4002 H   0  0  0  0  0  0  0  0  0  0  0  0
   -0.6910   11.9314   -8.0442 H   0  0  0  0  0  0  0  0  0  0  0  0
  1  2  1  0  0  0  0
  1  4  1  0  0  0  0
  1 13  1  0  0  0  0
  2  6  2  0  0  0  0
  3  4  2  0  0  0  0
  3  5  1  0  0  0  0
  5  6  1  0  0  0  0
  5  9  2  0  0  0  0
  6  7  1  0  0  0  0
  7  8  2  0  0  0  0
  7 10  1  0  0  0  0
  8  9  1  0  0  0  0
 10 15  2  3  0  0  0
 11 12  1  0  0  0  0
 11 13  2  0  0  0  0
 13 14  1  0  0  0  0
 15 16  1  0  0  0  0
 15 20  1  0  0  0  0
 16 17  1  0  0  0  0
 17 18  2  0  0  0  0
 17 21  1  0  0  0  0
 18 19  1  0  0  0  0
 18 23  1  0  0  0  0
 19 20  2  0  0  0  0
 21 22  2  0  0  0  0
 22 23  1  0  0  0  0
 23 24  1  0  0  0  0
  1 25  1  0  0  0  0
  2 26  1  0  0  0  0
  3 27  1  0  0  0  0
  4 28  1  0  0  0  0
 10 29  1  0  0  0  0
 12 30  1  0  0  0  0
 12 31  1  0  0  0  0
 12 32  1  0  0  0  0
 14 33  1  0  0  0  0
 16 34  1  0  0  0  0
 16 35  1  0  0  0  0
 19 36  1  0  0  0  0
 20 37  1  0  0  0  0
 21 38  1  0  0  0  0
 24 39  1  0  0  0  0
 24 40  1  0  0  0  0
 24 41  1  0  0  0  0
M  END
> <Name>
18

> <IC50[uM]>
0.01

$$$$
18
  -OEChem-05192314333D
 Structure written by MMmdl.
 41 44  0     1  0  0  0  0  0999 V2000
   -6.3808   12.3686  -12.0119 C   0  0  0  0  0  0  0  0  0  0  0  0
   -6.5112   11.8116  -10.7365 C   0  0  0  0  0  0  0  0  0  0  0  0
   -7.7301   10.5824  -13.0300 C   0  0  0  0  0  0  0  0  0  0  0  0
   -6.9992   11.7782  -13.1263 C   0  0  0  0  0  0  0  0  0  0  0  0
   -7.8250   10.0166  -11.7542 C   0  0  0  0  0  0  0  0  0  0  0  0
   -7.2407   10.6266  -10.6010 C   0  0  3  0  0  0  0  0  0  0  0  0
   -7.6094    9.7513   -9.5103 C   0  0  0  0  0  0  0  0  0  0  0  0
   -8.2849    8.7404   -9.9846 N   0  0  0  0  0  0  0  0  0  0  0  0
   -8.4192    8.8674  -11.2983 N   0  0  0  0  0  0  0  0  0  0  0  0
   -7.3225    9.8872   -8.0242 C   0  0  0  0  0  0  0  0  0  0  0  0
   -4.3834   13.6199  -11.4933 N   0  0  0  0  0  0  0  0  0  0  0  0
   -3.4237   14.7282  -11.5789 C   0  0  0  0  0  0  0  0  0  0  0  0
   -5.5369   13.6139  -12.1980 C   0  0  0  0  0  0  0  0  0  0  0  0
   -5.8771   14.5161  -12.9653 O   0  0  0  0  0  0  0  0  0  0  0  0
   -5.9516   10.5005   -7.7272 C   0  0  0  0  0  0  0  0  0  0  0  0
   -5.8803   11.7722   -7.1539 C   0  0  0  0  0  0  0  0  0  0  0  0
   -4.6129   12.3159   -6.9118 C   0  0  0  0  0  0  0  0  0  0  0  0
   -3.4418   11.5625   -7.2429 C   0  0  0  0  0  0  0  0  0  0  0  0
   -3.5059   10.2842   -7.8062 C   0  0  0  0  0  0  0  0  0  0  0  0
   -4.7935    9.7780   -8.0417 C   0  0  0  0  0  0  0  0  0  0  0  0
   -4.0936   13.5458   -6.3664 C   0  0  0  0  0  0  0  0  0  0  0  0
   -2.7885   13.5288   -6.3742 N   0  0  0  0  0  0  0  0  0  0  0  0
   -2.3831   12.3683   -6.8823 N   0  0  0  0  0  0  0  0  0  0  0  0
   -0.9539   12.1016   -6.9897 C   0  0  0  0  0  0  0  0  0  0  0  0
   -6.0597   12.2849   -9.8771 H   0  0  0  0  0  0  0  0  0  0  0  0
   -8.1927   10.1256  -13.8924 H   0  0  0  0  0  0  0  0  0  0  0  0
   -6.9098   12.2595  -14.0890 H   0  0  0  0  0  0  0  0  0  0  0  0
   -8.1598   11.2101  -10.4437 H   0  0  0  0  0  0  0  0  0  0  0  0
   -8.0161    9.5818   -7.2548 H   0  0  0  0  0  0  0  0  0  0  0  0
   -2.5640   14.5209  -10.9247 H   0  0  0  0  0  0  0  0  0  0  0  0
   -3.0770   14.8334  -12.6175 H   0  0  0  0  0  0  0  0  0  0  0  0
   -3.9113   15.6608  -11.2589 H   0  0  0  0  0  0  0  0  0  0  0  0
   -5.2270   15.2086  -12.9486 H   0  0  0  0  0  0  0  0  0  0  0  0
   -6.4095   12.4637   -7.8260 H   0  0  0  0  0  0  0  0  0  0  0  0
   -6.4055   11.7253   -6.1885 H   0  0  0  0  0  0  0  0  0  0  0  0
   -2.6169    9.7197   -8.0459 H   0  0  0  0  0  0  0  0  0  0  0  0
   -4.8951    8.7966   -8.4810 H   0  0  0  0  0  0  0  0  0  0  0  0
   -4.6981   14.3639   -6.0034 H   0  0  0  0  0  0  0  0  0  0  0  0
   -0.3895   12.9643   -6.6059 H   0  0  0  0  0  0  0  0  0  0  0  0
   -0.7026   11.2076   -6.4002 H   0  0  0  0  0  0  0  0  0  0  0  0
   -0.6910   11.9314   -8.0442 H   0  0  0  0  0  0  0  0  0  0  0  0
  1  2  2  0  0  0  0
  1  4  1  0  0  0  0
  1 13  1  0  0  0  0
  2  6  1  0  0  0  0
  3  4  2  0  0  0  0
  3  5  1  0  0  0  0
  5  6  1  0  0  0  0
  5  9  2  0  0  0  0
  6  7  1  0  0  0  0
  7  8  2  0  0  0  0
  7 10  1  0  0  0  0
  8  9  1  0  0  0  0
 10 15  2  3  0  0  0
 11 12  1  0  0  0  0
 11 13  2  0  0  0  0
 13 14  1  0  0  0  0
 15 16  1  0  0  0  0
 15 20  1  0  0  0  0
 16 17  1  0  0  0  0
 17 18  2  0  0  0  0
 17 21  1  0  0  0  0
 18 19  1  0  0  0  0
 18 23  1  0  0  0  0
 19 20  2  0  0  0  0
 21 22  2  0  0  0  0
 22 23  1  0  0  0  0
 23 24  1  0  0  0  0
  2 25  1  0  0  0  0
  3 26  1  0  0  0  0
  4 27  1  0  0  0  0
  6 28  1  0  0  0  0
 10 29  1  0  0  0  0
 12 30  1  0  0  0  0
 12 31  1  0  0  0  0
 12 32  1  0  0  0  0
 14 33  1  0  0  0  0
 16 34  1  0  0  0  0
 16 35  1  0  0  0  0
 19 36  1  0  0  0  0
 20 37  1  0  0  0  0
 21 38  1  0  0  0  0
 24 39  1  0  0  0  0
 24 40  1  0  0  0  0
 24 41  1  0  0  0  0
M  END
> <Name>
18

> <IC50[uM]>
0.01

$$$$
18
  -OEChem-05192314333D
 Structure written by MMmdl.
 41 44  0     0  0  0  0  0  0999 V2000
   -6.3808   12.3686  -12.0119 C   0  0  0  0  0  0  0  0  0  0  0  0
   -6.5112   11.8116  -10.7365 C   0  0  0  0  0  0  0  0  0  0  0  0
   -7.7301   10.5824  -13.0300 C   0  0  0  0  0  0  0  0  0  0  0  0
   -6.9992   11.7782  -13.1263 C   0  0  0  0  0  0  0  0  0  0  0  0
   -7.8250   10.0166  -11.7542 C   0  0  0  0  0  0  0  0  0  0  0  0
   -7.2407   10.6266  -10.6010 C   0  0  0  0  0  0  0  0  0  0  0  0
   -7.6094    9.7513   -9.5103 C   0  0  0  0  0  0  0  0  0  0  0  0
   -8.2849    8.7404   -9.9846 N   0  0  0  0  0  0  0  0  0  0  0  0
   -8.4192    8.8674  -11.2983 N   0  0  0  0  0  0  0  0  0  0  0  0
   -7.3225    9.8872   -8.0242 C   0  0  0  0  0  0  0  0  0  0  0  0
   -4.3834   13.6199  -11.4933 N   0  0  0  0  0  0  0  0  0  0  0  0
   -3.4237   14.7282  -11.5789 C   0  0  0  0  0  0  0  0  0  0  0  0
   -5.5369   13.6139  -12.1980 C   0  0  0  0  0  0  0  0  0  0  0  0
   -5.8771   14.5161  -12.9653 O   0  0  0  0  0  0  0  0  0  0  0  0
   -5.9516   10.5005   -7.7272 C   0  0  0  0  0  0  0  0  0  0  0  0
   -5.8803   11.7722   -7.1539 C   0  0  0  0  0  0  0  0  0  0  0  0
   -4.6129   12.3159   -6.9118 C   0  0  0  0  0  0  0  0  0  0  0  0
   -3.4418   11.5625   -7.2429 C   0  0  0  0  0  0  0  0  0  0  0  0
   -3.5059   10.2842   -7.8062 C   0  0  0  0  0  0  0  0  0  0  0  0
   -4.7935    9.7780   -8.0417 C   0  0  0  0  0  0  0  0  0  0  0  0
   -4.0936   13.5458   -6.3664 C   0  0  0  0  0  0  0  0  0  0  0  0
   -2.7885   13.5288   -6.3742 N   0  0  0  0  0  0  0  0  0  0  0  0
   -2.3831   12.3683   -6.8823 N   0  0  0  0  0  0  0  0  0  0  0  0
   -0.9539   12.1016   -6.9897 C   0  0  0  0  0  0  0  0  0  0  0  0
   -6.0597   12.2849   -9.8771 H   0  0  0  0  0  0  0  0  0  0  0  0
   -8.7517   10.7843  -13.3842 H   0  0  0  0  0  0  0  0  0  0  0  0
   -7.2525    9.8433  -13.6900 H   0  0  0  0  0  0  0  0  0  0  0  0
   -6.9098   12.2595  -14.0890 H   0  0  0  0  0  0  0  0  0  0  0  0
   -8.0161    9.5818   -7.2548 H   0  0  0  0  0  0  0  0  0  0  0  0
   -2.5640   14.5209  -10.9247 H   0  0  0  0  0  0  0  0  0  0  0  0
   -3.0770   14.8334  -12.6175 H   0  0  0  0  0  0  0  0  0  0  0  0
   -3.9113   15.6608  -11.2589 H   0  0  0  0  0  0  0  0  0  0  0  0
   -5.2270   15.2086  -12.9486 H   0  0  0  0  0  0  0  0  0  0  0  0
   -6.4095   12.4637   -7.8260 H   0  0  0  0  0  0  0  0  0  0  0  0
   -6.4055   11.7253   -6.1885 H   0  0  0  0  0  0  0  0  0  0  0  0
   -2.6169    9.7197   -8.0459 H   0  0  0  0  0  0  0  0  0  0  0  0
   -4.8951    8.7966   -8.4810 H   0  0  0  0  0  0  0  0  0  0  0  0
   -4.6981   14.3639   -6.0034 H   0  0  0  0  0  0  0  0  0  0  0  0
   -0.3895   12.9643   -6.6059 H   0  0  0  0  0  0  0  0  0  0  0  0
   -0.7026   11.2076   -6.4002 H   0  0  0  0  0  0  0  0  0  0  0  0
   -0.6910   11.9314   -8.0442 H   0  0  0  0  0  0  0  0  0  0  0  0
  1  2  1  0  0  0  0
  1  4  2  0  0  0  0
  1 13  1  0  0  0  0
  2  6  2  0  0  0  0
  3  4  1  0  0  0  0
  3  5  1  0  0  0  0
  5  6  1  0  0  0  0
  5  9  2  0  0  0  0
  6  7  1  0  0  0  0
  7  8  2  0  0  0  0
  7 10  1  0  0  0  0
  8  9  1  0  0  0  0
 10 15  2  3  0  0  0
 11 12  1  0  0  0  0
 11 13  2  0  0  0  0
 13 14  1  0  0  0  0
 15 16  1  0  0  0  0
 15 20  1  0  0  0  0
 16 17  1  0  0  0  0
 17 18  2  0  0  0  0
 17 21  1  0  0  0  0
 18 19  1  0  0  0  0
 18 23  1  0  0  0  0
 19 20  2  0  0  0  0
 21 22  2  0  0  0  0
 22 23  1  0  0  0  0
 23 24  1  0  0  0  0
  2 25  1  0  0  0  0
  3 26  1  0  0  0  0
  3 27  1  0  0  0  0
  4 28  1  0  0  0  0
 10 29  1  0  0  0  0
 12 30  1  0  0  0  0
 12 31  1  0  0  0  0
 12 32  1  0  0  0  0
 14 33  1  0  0  0  0
 16 34  1  0  0  0  0
 16 35  1  0  0  0  0
 19 36  1  0  0  0  0
 20 37  1  0  0  0  0
 21 38  1  0  0  0  0
 24 39  1  0  0  0  0
 24 40  1  0  0  0  0
 24 41  1  0  0  0  0
M  END
> <Name>
18

> <IC50[uM]>
0.01

$$$$
18
  -OEChem-05192314333D
 Structure written by MMmdl.
 41 44  0     1  0  0  0  0  0999 V2000
   -6.3808   12.3686  -12.0119 C   0  0  0  0  0  0  0  0  0  0  0  0
   -6.5112   11.8116  -10.7365 C   0  0  0  0  0  0  0  0  0  0  0  0
   -7.7301   10.5824  -13.0300 C   0  0  0  0  0  0  0  0  0  0  0  0
   -6.9992   11.7782  -13.1263 C   0  0  0  0  0  0  0  0  0  0  0  0
   -7.8250   10.0166  -11.7542 C   0  0  3  0  0  0  0  0  0  0  0  0
   -7.2407   10.6266  -10.6010 C   0  0  0  0  0  0  0  0  0  0  0  0
   -7.6094    9.7513   -9.5103 C   0  0  0  0  0  0  0  0  0  0  0  0
   -8.2849    8.7404   -9.9846 N   0  0  0  0  0  0  0  0  0  0  0  0
   -8.4192    8.8674  -11.2983 N   0  0  0  0  0  0  0  0  0  0  0  0
   -7.3225    9.8872   -8.0242 C   0  0  0  0  0  0  0  0  0  0  0  0
   -4.3834   13.6199  -11.4933 N   0  0  0  0  0  0  0  0  0  0  0  0
   -3.4237   14.7282  -11.5789 C   0  0  0  0  0  0  0  0  0  0  0  0
   -5.5369   13.6139  -12.1980 C   0  0  0  0  0  0  0  0  0  0  0  0
   -5.8771   14.5161  -12.9653 O   0  0  0  0  0  0  0  0  0  0  0  0
   -5.9516   10.5005   -7.7272 C   0  0  0  0  0  0  0  0  0  0  0  0
   -5.8803   11.7722   -7.1539 C   0  0  0  0  0  0  0  0  0  0  0  0
   -4.6129   12.3159   -6.9118 C   0  0  0  0  0  0  0  0  0  0  0  0
   -3.4418   11.5625   -7.2429 C   0  0  0  0  0  0  0  0  0  0  0  0
   -3.5059   10.2842   -7.8062 C   0  0  0  0  0  0  0  0  0  0  0  0
   -4.7935    9.7780   -8.0417 C   0  0  0  0  0  0  0  0  0  0  0  0
   -4.0936   13.5458   -6.3664 C   0  0  0  0  0  0  0  0  0  0  0  0
   -2.7885   13.5288   -6.3742 N   0  0  0  0  0  0  0  0  0  0  0  0
   -2.3831   12.3683   -6.8823 N   0  0  0  0  0  0  0  0  0  0  0  0
   -0.9539   12.1016   -6.9897 C   0  0  0  0  0  0  0  0  0  0  0  0
   -6.0597   12.2849   -9.8771 H   0  0  0  0  0  0  0  0  0  0  0  0
   -8.1927   10.1256  -13.8924 H   0  0  0  0  0  0  0  0  0  0  0  0
   -6.9098   12.2595  -14.0890 H   0  0  0  0  0  0  0  0  0  0  0  0
   -8.7581   10.5712  -11.5763 H   0  0  0  0  0  0  0  0  0  0  0  0
   -8.0161    9.5818   -7.2548 H   0  0  0  0  0  0  0  0  0  0  0  0
   -4.1771   12.8456  -10.8951 H   0  0  0  0  0  0  0  0  0  0  0  0
   -2.5640   14.5209  -10.9247 H   0  0  0  0  0  0  0  0  0  0  0  0
   -3.0770   14.8334  -12.6175 H   0  0  0  0  0  0  0  0  0  0  0  0
   -3.9113   15.6608  -11.2589 H   0  0  0  0  0  0  0  0  0  0  0  0
   -6.4095   12.4637   -7.8260 H   0  0  0  0  0  0  0  0  0  0  0  0
   -6.4055   11.7253   -6.1885 H   0  0  0  0  0  0  0  0  0  0  0  0
   -2.6169    9.7197   -8.0459 H   0  0  0  0  0  0  0  0  0  0  0  0
   -4.8951    8.7966   -8.4810 H   0  0  0  0  0  0  0  0  0  0  0  0
   -4.6981   14.3639   -6.0034 H   0  0  0  0  0  0  0  0  0  0  0  0
   -0.3895   12.9643   -6.6059 H   0  0  0  0  0  0  0  0  0  0  0  0
   -0.7026   11.2076   -6.4002 H   0  0  0  0  0  0  0  0  0  0  0  0
   -0.6910   11.9314   -8.0442 H   0  0  0  0  0  0  0  0  0  0  0  0
  1  2  2  0  0  0  0
  1  4  1  0  0  0  0
  1 13  1  0  0  0  0
  2  6  1  0  0  0  0
  3  4  2  0  0  0  0
  3  5  1  0  0  0  0
  5  6  1  0  0  0  0
  5  9  1  0  0  0  0
  6  7  2  0  0  0  0
  7  8  1  0  0  0  0
  7 10  1  0  0  0  0
  8  9  2  0  0  0  0
 10 15  2  3  0  0  0
 11 12  1  0  0  0  0
 11 13  1  0  0  0  0
 13 14  2  0  0  0  0
 15 16  1  0  0  0  0
 15 20  1  0  0  0  0
 16 17  1  0  0  0  0
 17 18  2  0  0  0  0
 17 21  1  0  0  0  0
 18 19  1  0  0  0  0
 18 23  1  0  0  0  0
 19 20  2  0  0  0  0
 21 22  2  0  0  0  0
 22 23  1  0  0  0  0
 23 24  1  0  0  0  0
  2 25  1  0  0  0  0
  3 26  1  0  0  0  0
  4 27  1  0  0  0  0
  5 28  1  0  0  0  0
 10 29  1  0  0  0  0
 11 30  1  0  0  0  0
 12 31  1  0  0  0  0
 12 32  1  0  0  0  0
 12 33  1  0  0  0  0
 16 34  1  0  0  0  0
 16 35  1  0  0  0  0
 19 36  1  0  0  0  0
 20 37  1  0  0  0  0
 21 38  1  0  0  0  0
 24 39  1  0  0  0  0
 24 40  1  0  0  0  0
 24 41  1  0  0  0  0
M  END
> <Name>
18

> <IC50[uM]>
0.01

$$$$
18
  -OEChem-05192314333D
 Structure written by MMmdl.
 41 44  0     0  0  0  0  0  0999 V2000
   -6.3808   12.3686  -12.0119 C   0  0  0  0  0  0  0  0  0  0  0  0
   -6.5112   11.8116  -10.7365 C   0  0  0  0  0  0  0  0  0  0  0  0
   -7.7301   10.5824  -13.0300 C   0  0  0  0  0  0  0  0  0  0  0  0
   -6.9992   11.7782  -13.1263 C   0  0  0  0  0  0  0  0  0  0  0  0
   -7.8250   10.0166  -11.7542 C   0  0  0  0  0  0  0  0  0  0  0  0
   -7.2407   10.6266  -10.6010 C   0  0  0  0  0  0  0  0  0  0  0  0
   -7.6094    9.7513   -9.5103 C   0  0  0  0  0  0  0  0  0  0  0  0
   -8.2849    8.7404   -9.9846 N   0  0  0  0  0  0  0  0  0  0  0  0
   -8.4192    8.8674  -11.2983 N   0  0  0  0  0  0  0  0  0  0  0  0
   -7.3225    9.8872   -8.0242 C   0  0  0  0  0  0  0  0  0  0  0  0
   -4.3834   13.6199  -11.4933 N   0  0  0  0  0  0  0  0  0  0  0  0
   -3.4237   14.7282  -11.5789 C   0  0  0  0  0  0  0  0  0  0  0  0
   -5.5369   13.6139  -12.1980 C   0  0  0  0  0  0  0  0  0  0  0  0
   -5.8771   14.5161  -12.9653 O   0  0  0  0  0  0  0  0  0  0  0  0
   -5.9516   10.5005   -7.7272 C   0  0  0  0  0  0  0  0  0  0  0  0
   -5.8803   11.7722   -7.1539 C   0  0  0  0  0  0  0  0  0  0  0  0
   -4.6129   12.3159   -6.9118 C   0  0  0  0  0  0  0  0  0  0  0  0
   -3.4418   11.5625   -7.2429 C   0  0  0  0  0  0  0  0  0  0  0  0
   -3.5059   10.2842   -7.8062 C   0  0  0  0  0  0  0  0  0  0  0  0
   -4.7935    9.7780   -8.0417 C   0  0  0  0  0  0  0  0  0  0  0  0
   -4.0936   13.5458   -6.3664 C   0  0  0  0  0  0  0  0  0  0  0  0
   -2.7885   13.5288   -6.3742 N   0  0  0  0  0  0  0  0  0  0  0  0
   -2.3831   12.3683   -6.8823 N   0  0  0  0  0  0  0  0  0  0  0  0
   -0.9539   12.1016   -6.9897 C   0  0  0  0  0  0  0  0  0  0  0  0
   -6.0597   12.2849   -9.8771 H   0  0  0  0  0  0  0  0  0  0  0  0
   -8.1927   10.1256  -13.8924 H   0  0  0  0  0  0  0  0  0  0  0  0
   -7.6938   12.5312  -13.5268 H   0  0  0  0  0  0  0  0  0  0  0  0
   -6.1994   11.5912  -13.8580 H   0  0  0  0  0  0  0  0  0  0  0  0
   -8.0161    9.5818   -7.2548 H   0  0  0  0  0  0  0  0  0  0  0  0
   -4.1771   12.8456  -10.8951 H   0  0  0  0  0  0  0  0  0  0  0  0
   -2.5640   14.5209  -10.9247 H   0  0  0  0  0  0  0  0  0  0  0  0
   -3.0770   14.8334  -12.6175 H   0  0  0  0  0  0  0  0  0  0  0  0
   -3.9113   15.6608  -11.2589 H   0  0  0  0  0  0  0  0  0  0  0  0
   -6.4095   12.4637   -7.8260 H   0  0  0  0  0  0  0  0  0  0  0  0
   -6.4055   11.7253   -6.1885 H   0  0  0  0  0  0  0  0  0  0  0  0
   -2.6169    9.7197   -8.0459 H   0  0  0  0  0  0  0  0  0  0  0  0
   -4.8951    8.7966   -8.4810 H   0  0  0  0  0  0  0  0  0  0  0  0
   -4.6981   14.3639   -6.0034 H   0  0  0  0  0  0  0  0  0  0  0  0
   -0.3895   12.9643   -6.6059 H   0  0  0  0  0  0  0  0  0  0  0  0
   -0.7026   11.2076   -6.4002 H   0  0  0  0  0  0  0  0  0  0  0  0
   -0.6910   11.9314   -8.0442 H   0  0  0  0  0  0  0  0  0  0  0  0
  1  2  2  0  0  0  0
  1  4  1  0  0  0  0
  1 13  1  0  0  0  0
  2  6  1  0  0  0  0
  3  4  1  0  0  0  0
  3  5  2  0  0  0  0
  5  6  1  0  0  0  0
  5  9  1  0  0  0  0
  6  7  2  0  0  0  0
  7  8  1  0  0  0  0
  7 10  1  0  0  0  0
  8  9  2  0  0  0  0
 10 15  2  3  0  0  0
 11 12  1  0  0  0  0
 11 13  1  0  0  0  0
 13 14  2  0  0  0  0
 15 16  1  0  0  0  0
 15 20  1  0  0  0  0
 16 17  1  0  0  0  0
 17 18  2  0  0  0  0
 17 21  1  0  0  0  0
 18 19  1  0  0  0  0
 18 23  1  0  0  0  0
 19 20  2  0  0  0  0
 21 22  2  0  0  0  0
 22 23  1  0  0  0  0
 23 24  1  0  0  0  0
  2 25  1  0  0  0  0
  3 26  1  0  0  0  0
  4 27  1  0  0  0  0
  4 28  1  0  0  0  0
 10 29  1  0  0  0  0
 11 30  1  0  0  0  0
 12 31  1  0  0  0  0
 12 32  1  0  0  0  0
 12 33  1  0  0  0  0
 16 34  1  0  0  0  0
 16 35  1  0  0  0  0
 19 36  1  0  0  0  0
 20 37  1  0  0  0  0
 21 38  1  0  0  0  0
 24 39  1  0  0  0  0
 24 40  1  0  0  0  0
 24 41  1  0  0  0  0
M  END
> <Name>
18

> <IC50[uM]>
0.01

$$$$
18
  -OEChem-05192314333D
 Structure written by MMmdl.
 41 44  0     0  0  0  0  0  0999 V2000
   -6.3808   12.3686  -12.0119 C   0  0  0  0  0  0  0  0  0  0  0  0
   -6.5112   11.8116  -10.7365 C   0  0  0  0  0  0  0  0  0  0  0  0
   -7.7301   10.5824  -13.0300 C   0  0  0  0  0  0  0  0  0  0  0  0
   -6.9992   11.7782  -13.1263 C   0  0  0  0  0  0  0  0  0  0  0  0
   -7.8250   10.0166  -11.7542 C   0  0  0  0  0  0  0  0  0  0  0  0
   -7.2407   10.6266  -10.6010 C   0  0  0  0  0  0  0  0  0  0  0  0
   -7.6094    9.7513   -9.5103 C   0  0  0  0  0  0  0  0  0  0  0  0
   -8.2849    8.7404   -9.9846 N   0  0  0  0  0  0  0  0  0  0  0  0
   -8.4192    8.8674  -11.2983 N   0  0  0  0  0  0  0  0  0  0  0  0
   -7.3225    9.8872   -8.0242 C   0  0  0  0  0  0  0  0  0  0  0  0
   -4.3834   13.6199  -11.4933 N   0  0  0  0  0  0  0  0  0  0  0  0
   -3.4237   14.7282  -11.5789 C   0  0  0  0  0  0  0  0  0  0  0  0
   -5.5369   13.6139  -12.1980 C   0  0  0  0  0  0  0  0  0  0  0  0
   -5.8771   14.5161  -12.9653 O   0  0  0  0  0  0  0  0  0  0  0  0
   -5.9516   10.5005   -7.7272 C   0  0  0  0  0  0  0  0  0  0  0  0
   -5.8803   11.7722   -7.1539 C   0  0  0  0  0  0  0  0  0  0  0  0
   -4.6129   12.3159   -6.9118 C   0  0  0  0  0  0  0  0  0  0  0  0
   -3.4418   11.5625   -7.2429 C   0  0  0  0  0  0  0  0  0  0  0  0
   -3.5059   10.2842   -7.8062 C   0  0  0  0  0  0  0  0  0  0  0  0
   -4.7935    9.7780   -8.0417 C   0  0  0  0  0  0  0  0  0  0  0  0
   -4.0936   13.5458   -6.3664 C   0  0  0  0  0  0  0  0  0  0  0  0
   -2.7885   13.5288   -6.3742 N   0  0  0  0  0  0  0  0  0  0  0  0
   -2.3831   12.3683   -6.8823 N   0  0  0  0  0  0  0  0  0  0  0  0
   -0.9539   12.1016   -6.9897 C   0  0  0  0  0  0  0  0  0  0  0  0
   -5.4959   11.6133  -10.3626 H   0  0  0  0  0  0  0  0  0  0  0  0
   -6.9955   12.5665  -10.0997 H   0  0  0  0  0  0  0  0  0  0  0  0
   -8.1927   10.1256  -13.8924 H   0  0  0  0  0  0  0  0  0  0  0  0
   -6.9098   12.2595  -14.0890 H   0  0  0  0  0  0  0  0  0  0  0  0
   -8.0161    9.5818   -7.2548 H   0  0  0  0  0  0  0  0  0  0  0  0
   -4.1771   12.8456  -10.8951 H   0  0  0  0  0  0  0  0  0  0  0  0
   -2.5640   14.5209  -10.9247 H   0  0  0  0  0  0  0  0  0  0  0  0
   -3.0770   14.8334  -12.6175 H   0  0  0  0  0  0  0  0  0  0  0  0
   -3.9113   15.6608  -11.2589 H   0  0  0  0  0  0  0  0  0  0  0  0
   -6.4095   12.4637   -7.8260 H   0  0  0  0  0  0  0  0  0  0  0  0
   -6.4055   11.7253   -6.1885 H   0  0  0  0  0  0  0  0  0  0  0  0
   -2.6169    9.7197   -8.0459 H   0  0  0  0  0  0  0  0  0  0  0  0
   -4.8951    8.7966   -8.4810 H   0  0  0  0  0  0  0  0  0  0  0  0
   -4.6981   14.3639   -6.0034 H   0  0  0  0  0  0  0  0  0  0  0  0
   -0.3895   12.9643   -6.6059 H   0  0  0  0  0  0  0  0  0  0  0  0
   -0.7026   11.2076   -6.4002 H   0  0  0  0  0  0  0  0  0  0  0  0
   -0.6910   11.9314   -8.0442 H   0  0  0  0  0  0  0  0  0  0  0  0
  1  2  1  0  0  0  0
  1  4  2  0  0  0  0
  1 13  1  0  0  0  0
  2  6  1  0  0  0  0
  3  4  1  0  0  0  0
  3  5  2  0  0  0  0
  5  6  1  0  0  0  0
  5  9  1  0  0  0  0
  6  7  2  0  0  0  0
  7  8  1  0  0  0  0
  7 10  1  0  0  0  0
  8  9  2  0  0  0  0
 10 15  2  3  0  0  0
 11 12  1  0  0  0  0
 11 13  1  0  0  0  0
 13 14  2  0  0  0  0
 15 16  1  0  0  0  0
 15 20  1  0  0  0  0
 16 17  1  0  0  0  0
 17 18  2  0  0  0  0
 17 21  1  0  0  0  0
 18 19  1  0  0  0  0
 18 23  1  0  0  0  0
 19 20  2  0  0  0  0
 21 22  2  0  0  0  0
 22 23  1  0  0  0  0
 23 24  1  0  0  0  0
  2 25  1  0  0  0  0
  2 26  1  0  0  0  0
  3 27  1  0  0  0  0
  4 28  1  0  0  0  0
 10 29  1  0  0  0  0
 11 30  1  0  0  0  0
 12 31  1  0  0  0  0
 12 32  1  0  0  0  0
 12 33  1  0  0  0  0
 16 34  1  0  0  0  0
 16 35  1  0  0  0  0
 19 36  1  0  0  0  0
 20 37  1  0  0  0  0
 21 38  1  0  0  0  0
 24 39  1  0  0  0  0
 24 40  1  0  0  0  0
 24 41  1  0  0  0  0
M  END
> <Name>
18

> <IC50[uM]>
0.01

$$$$
18
  -OEChem-05192314333D
 Structure written by MMmdl.
 41 44  0     1  0  0  0  0  0999 V2000
   -6.3808   12.3686  -12.0119 C   0  0  0  0  0  0  0  0  0  0  0  0
   -6.5112   11.8116  -10.7365 C   0  0  0  0  0  0  0  0  0  0  0  0
   -7.7301   10.5824  -13.0300 C   0  0  0  0  0  0  0  0  0  0  0  0
   -6.9992   11.7782  -13.1263 C   0  0  0  0  0  0  0  0  0  0  0  0
   -7.8250   10.0166  -11.7542 C   0  0  3  0  0  0  0  0  0  0  0  0
   -7.2407   10.6266  -10.6010 C   0  0  0  0  0  0  0  0  0  0  0  0
   -7.6094    9.7513   -9.5103 C   0  0  0  0  0  0  0  0  0  0  0  0
   -8.2849    8.7404   -9.9846 N   0  0  0  0  0  0  0  0  0  0  0  0
   -8.4192    8.8674  -11.2983 N   0  0  0  0  0  0  0  0  0  0  0  0
   -7.3225    9.8872   -8.0242 C   0  0  0  0  0  0  0  0  0  0  0  0
   -4.3834   13.6199  -11.4933 N   0  0  0  0  0  0  0  0  0  0  0  0
   -3.4237   14.7282  -11.5789 C   0  0  0  0  0  0  0  0  0  0  0  0
   -5.5369   13.6139  -12.1980 C   0  0  0  0  0  0  0  0  0  0  0  0
   -5.8771   14.5161  -12.9653 O   0  0  0  0  0  0  0  0  0  0  0  0
   -5.9516   10.5005   -7.7272 C   0  0  0  0  0  0  0  0  0  0  0  0
   -5.8803   11.7722   -7.1539 C   0  0  0  0  0  0  0  0  0  0  0  0
   -4.6129   12.3159   -6.9118 C   0  0  0  0  0  0  0  0  0  0  0  0
   -3.4418   11.5625   -7.2429 C   0  0  0  0  0  0  0  0  0  0  0  0
   -3.5059   10.2842   -7.8062 C   0  0  0  0  0  0  0  0  0  0  0  0
   -4.7935    9.7780   -8.0417 C   0  0  0  0  0  0  0  0  0  0  0  0
   -4.0936   13.5458   -6.3664 C   0  0  0  0  0  0  0  0  0  0  0  0
   -2.7885   13.5288   -6.3742 N   0  0  0  0  0  0  0  0  0  0  0  0
   -2.3831   12.3683   -6.8823 N   0  0  0  0  0  0  0  0  0  0  0  0
   -0.9539   12.1016   -6.9897 C   0  0  0  0  0  0  0  0  0  0  0  0
   -6.0597   12.2849   -9.8771 H   0  0  0  0  0  0  0  0  0  0  0  0
   -8.1927   10.1256  -13.8924 H   0  0  0  0  0  0  0  0  0  0  0  0
   -6.9098   12.2595  -14.0890 H   0  0  0  0  0  0  0  0  0  0  0  0
   -8.7581   10.5712  -11.5763 H   0  0  0  0  0  0  0  0  0  0  0  0
   -8.0161    9.5818   -7.2548 H   0  0  0  0  0  0  0  0  0  0  0  0
   -2.5640   14.5209  -10.9247 H   0  0  0  0  0  0  0  0  0  0  0  0
   -3.0770   14.8334  -12.6175 H   0  0  0  0  0  0  0  0  0  0  0  0
   -3.9113   15.6608  -11.2589 H   0  0  0  0  0  0  0  0  0  0  0  0
   -5.2270   15.2086  -12.9486 H   0  0  0  0  0  0  0  0  0  0  0  0
   -6.4095   12.4637   -7.8260 H   0  0  0  0  0  0  0  0  0  0  0  0
   -6.4055   11.7253   -6.1885 H   0  0  0  0  0  0  0  0  0  0  0  0
   -2.6169    9.7197   -8.0459 H   0  0  0  0  0  0  0  0  0  0  0  0
   -4.8951    8.7966   -8.4810 H   0  0  0  0  0  0  0  0  0  0  0  0
   -4.6981   14.3639   -6.0034 H   0  0  0  0  0  0  0  0  0  0  0  0
   -0.3895   12.9643   -6.6059 H   0  0  0  0  0  0  0  0  0  0  0  0
   -0.7026   11.2076   -6.4002 H   0  0  0  0  0  0  0  0  0  0  0  0
   -0.6910   11.9314   -8.0442 H   0  0  0  0  0  0  0  0  0  0  0  0
  1  2  2  0  0  0  0
  1  4  1  0  0  0  0
  1 13  1  0  0  0  0
  2  6  1  0  0  0  0
  3  4  2  0  0  0  0
  3  5  1  0  0  0  0
  5  6  1  0  0  0  0
  5  9  1  0  0  0  0
  6  7  2  0  0  0  0
  7  8  1  0  0  0  0
  7 10  1  0  0  0  0
  8  9  2  0  0  0  0
 10 15  2  3  0  0  0
 11 12  1  0  0  0  0
 11 13  2  0  0  0  0
 13 14  1  0  0  0  0
 15 16  1  0  0  0  0
 15 20  1  0  0  0  0
 16 17  1  0  0  0  0
 17 18  2  0  0  0  0
 17 21  1  0  0  0  0
 18 19  1  0  0  0  0
 18 23  1  0  0  0  0
 19 20  2  0  0  0  0
 21 22  2  0  0  0  0
 22 23  1  0  0  0  0
 23 24  1  0  0  0  0
  2 25  1  0  0  0  0
  3 26  1  0  0  0  0
  4 27  1  0  0  0  0
  5 28  1  0  0  0  0
 10 29  1  0  0  0  0
 12 30  1  0  0  0  0
 12 31  1  0  0  0  0
 12 32  1  0  0  0  0
 14 33  1  0  0  0  0
 16 34  1  0  0  0  0
 16 35  1  0  0  0  0
 19 36  1  0  0  0  0
 20 37  1  0  0  0  0
 21 38  1  0  0  0  0
 24 39  1  0  0  0  0
 24 40  1  0  0  0  0
 24 41  1  0  0  0  0
M  END
> <Name>
18

> <IC50[uM]>
0.01

$$$$
18
  -OEChem-05192314333D
 Structure written by MMmdl.
 41 44  0     0  0  0  0  0  0999 V2000
   -6.3808   12.3686  -12.0119 C   0  0  0  0  0  0  0  0  0  0  0  0
   -6.5112   11.8116  -10.7365 C   0  0  0  0  0  0  0  0  0  0  0  0
   -7.7301   10.5824  -13.0300 C   0  0  0  0  0  0  0  0  0  0  0  0
   -6.9992   11.7782  -13.1263 C   0  0  0  0  0  0  0  0  0  0  0  0
   -7.8250   10.0166  -11.7542 C   0  0  0  0  0  0  0  0  0  0  0  0
   -7.2407   10.6266  -10.6010 C   0  0  0  0  0  0  0  0  0  0  0  0
   -7.6094    9.7513   -9.5103 C   0  0  0  0  0  0  0  0  0  0  0  0
   -8.2849    8.7404   -9.9846 N   0  0  0  0  0  0  0  0  0  0  0  0
   -8.4192    8.8674  -11.2983 N   0  0  0  0  0  0  0  0  0  0  0  0
   -7.3225    9.8872   -8.0242 C   0  0  0  0  0  0  0  0  0  0  0  0
   -4.3834   13.6199  -11.4933 N   0  0  0  0  0  0  0  0  0  0  0  0
   -3.4237   14.7282  -11.5789 C   0  0  0  0  0  0  0  0  0  0  0  0
   -5.5369   13.6139  -12.1980 C   0  0  0  0  0  0  0  0  0  0  0  0
   -5.8771   14.5161  -12.9653 O   0  0  0  0  0  0  0  0  0  0  0  0
   -5.9516   10.5005   -7.7272 C   0  0  0  0  0  0  0  0  0  0  0  0
   -5.8803   11.7722   -7.1539 C   0  0  0  0  0  0  0  0  0  0  0  0
   -4.6129   12.3159   -6.9118 C   0  0  0  0  0  0  0  0  0  0  0  0
   -3.4418   11.5625   -7.2429 C   0  0  0  0  0  0  0  0  0  0  0  0
   -3.5059   10.2842   -7.8062 C   0  0  0  0  0  0  0  0  0  0  0  0
   -4.7935    9.7780   -8.0417 C   0  0  0  0  0  0  0  0  0  0  0  0
   -4.0936   13.5458   -6.3664 C   0  0  0  0  0  0  0  0  0  0  0  0
   -2.7885   13.5288   -6.3742 N   0  0  0  0  0  0  0  0  0  0  0  0
   -2.3831   12.3683   -6.8823 N   0  0  0  0  0  0  0  0  0  0  0  0
   -0.9539   12.1016   -6.9897 C   0  0  0  0  0  0  0  0  0  0  0  0
   -6.0597   12.2849   -9.8771 H   0  0  0  0  0  0  0  0  0  0  0  0
   -8.1927   10.1256  -13.8924 H   0  0  0  0  0  0  0  0  0  0  0  0
   -7.6938   12.5312  -13.5268 H   0  0  0  0  0  0  0  0  0  0  0  0
   -6.1994   11.5912  -13.8580 H   0  0  0  0  0  0  0  0  0  0  0  0
   -8.0161    9.5818   -7.2548 H   0  0  0  0  0  0  0  0  0  0  0  0
   -2.5640   14.5209  -10.9247 H   0  0  0  0  0  0  0  0  0  0  0  0
   -3.0770   14.8334  -12.6175 H   0  0  0  0  0  0  0  0  0  0  0  0
   -3.9113   15.6608  -11.2589 H   0  0  0  0  0  0  0  0  0  0  0  0
   -5.2270   15.2086  -12.9486 H   0  0  0  0  0  0  0  0  0  0  0  0
   -6.4095   12.4637   -7.8260 H   0  0  0  0  0  0  0  0  0  0  0  0
   -6.4055   11.7253   -6.1885 H   0  0  0  0  0  0  0  0  0  0  0  0
   -2.6169    9.7197   -8.0459 H   0  0  0  0  0  0  0  0  0  0  0  0
   -4.8951    8.7966   -8.4810 H   0  0  0  0  0  0  0  0  0  0  0  0
   -4.6981   14.3639   -6.0034 H   0  0  0  0  0  0  0  0  0  0  0  0
   -0.3895   12.9643   -6.6059 H   0  0  0  0  0  0  0  0  0  0  0  0
   -0.7026   11.2076   -6.4002 H   0  0  0  0  0  0  0  0  0  0  0  0
   -0.6910   11.9314   -8.0442 H   0  0  0  0  0  0  0  0  0  0  0  0
  1  2  2  0  0  0  0
  1  4  1  0  0  0  0
  1 13  1  0  0  0  0
  2  6  1  0  0  0  0
  3  4  1  0  0  0  0
  3  5  2  0  0  0  0
  5  6  1  0  0  0  0
  5  9  1  0  0  0  0
  6  7  2  0  0  0  0
  7  8  1  0  0  0  0
  7 10  1  0  0  0  0
  8  9  2  0  0  0  0
 10 15  2  3  0  0  0
 11 12  1  0  0  0  0
 11 13  2  0  0  0  0
 13 14  1  0  0  0  0
 15 16  1  0  0  0  0
 15 20  1  0  0  0  0
 16 17  1  0  0  0  0
 17 18  2  0  0  0  0
 17 21  1  0  0  0  0
 18 19  1  0  0  0  0
 18 23  1  0  0  0  0
 19 20  2  0  0  0  0
 21 22  2  0  0  0  0
 22 23  1  0  0  0  0
 23 24  1  0  0  0  0
  2 25  1  0  0  0  0
  3 26  1  0  0  0  0
  4 27  1  0  0  0  0
  4 28  1  0  0  0  0
 10 29  1  0  0  0  0
 12 30  1  0  0  0  0
 12 31  1  0  0  0  0
 12 32  1  0  0  0  0
 14 33  1  0  0  0  0
 16 34  1  0  0  0  0
 16 35  1  0  0  0  0
 19 36  1  0  0  0  0
 20 37  1  0  0  0  0
 21 38  1  0  0  0  0
 24 39  1  0  0  0  0
 24 40  1  0  0  0  0
 24 41  1  0  0  0  0
M  END
> <Name>
18

> <IC50[uM]>
0.01

$$$$
18
  -OEChem-05192314333D
 Structure written by MMmdl.
 41 44  0     0  0  0  0  0  0999 V2000
   -6.3808   12.3686  -12.0119 C   0  0  0  0  0  0  0  0  0  0  0  0
   -6.5112   11.8116  -10.7365 C   0  0  0  0  0  0  0  0  0  0  0  0
   -7.7301   10.5824  -13.0300 C   0  0  0  0  0  0  0  0  0  0  0  0
   -6.9992   11.7782  -13.1263 C   0  0  0  0  0  0  0  0  0  0  0  0
   -7.8250   10.0166  -11.7542 C   0  0  0  0  0  0  0  0  0  0  0  0
   -7.2407   10.6266  -10.6010 C   0  0  0  0  0  0  0  0  0  0  0  0
   -7.6094    9.7513   -9.5103 C   0  0  0  0  0  0  0  0  0  0  0  0
   -8.2849    8.7404   -9.9846 N   0  0  0  0  0  0  0  0  0  0  0  0
   -8.4192    8.8674  -11.2983 N   0  0  0  0  0  0  0  0  0  0  0  0
   -7.3225    9.8872   -8.0242 C   0  0  0  0  0  0  0  0  0  0  0  0
   -4.3834   13.6199  -11.4933 N   0  0  0  0  0  0  0  0  0  0  0  0
   -3.4237   14.7282  -11.5789 C   0  0  0  0  0  0  0  0  0  0  0  0
   -5.5369   13.6139  -12.1980 C   0  0  0  0  0  0  0  0  0  0  0  0
   -5.8771   14.5161  -12.9653 O   0  0  0  0  0  0  0  0  0  0  0  0
   -5.9516   10.5005   -7.7272 C   0  0  0  0  0  0  0  0  0  0  0  0
   -5.8803   11.7722   -7.1539 C   0  0  0  0  0  0  0  0  0  0  0  0
   -4.6129   12.3159   -6.9118 C   0  0  0  0  0  0  0  0  0  0  0  0
   -3.4418   11.5625   -7.2429 C   0  0  0  0  0  0  0  0  0  0  0  0
   -3.5059   10.2842   -7.8062 C   0  0  0  0  0  0  0  0  0  0  0  0
   -4.7935    9.7780   -8.0417 C   0  0  0  0  0  0  0  0  0  0  0  0
   -4.0936   13.5458   -6.3664 C   0  0  0  0  0  0  0  0  0  0  0  0
   -2.7885   13.5288   -6.3742 N   0  0  0  0  0  0  0  0  0  0  0  0
   -2.3831   12.3683   -6.8823 N   0  0  0  0  0  0  0  0  0  0  0  0
   -0.9539   12.1016   -6.9897 C   0  0  0  0  0  0  0  0  0  0  0  0
   -5.4959   11.6133  -10.3626 H   0  0  0  0  0  0  0  0  0  0  0  0
   -6.9955   12.5665  -10.0997 H   0  0  0  0  0  0  0  0  0  0  0  0
   -8.1927   10.1256  -13.8924 H   0  0  0  0  0  0  0  0  0  0  0  0
   -6.9098   12.2595  -14.0890 H   0  0  0  0  0  0  0  0  0  0  0  0
   -8.0161    9.5818   -7.2548 H   0  0  0  0  0  0  0  0  0  0  0  0
   -2.5640   14.5209  -10.9247 H   0  0  0  0  0  0  0  0  0  0  0  0
   -3.0770   14.8334  -12.6175 H   0  0  0  0  0  0  0  0  0  0  0  0
   -3.9113   15.6608  -11.2589 H   0  0  0  0  0  0  0  0  0  0  0  0
   -5.2270   15.2086  -12.9486 H   0  0  0  0  0  0  0  0  0  0  0  0
   -6.4095   12.4637   -7.8260 H   0  0  0  0  0  0  0  0  0  0  0  0
   -6.4055   11.7253   -6.1885 H   0  0  0  0  0  0  0  0  0  0  0  0
   -2.6169    9.7197   -8.0459 H   0  0  0  0  0  0  0  0  0  0  0  0
   -4.8951    8.7966   -8.4810 H   0  0  0  0  0  0  0  0  0  0  0  0
   -4.6981   14.3639   -6.0034 H   0  0  0  0  0  0  0  0  0  0  0  0
   -0.3895   12.9643   -6.6059 H   0  0  0  0  0  0  0  0  0  0  0  0
   -0.7026   11.2076   -6.4002 H   0  0  0  0  0  0  0  0  0  0  0  0
   -0.6910   11.9314   -8.0442 H   0  0  0  0  0  0  0  0  0  0  0  0
  1  2  1  0  0  0  0
  1  4  2  0  0  0  0
  1 13  1  0  0  0  0
  2  6  1  0  0  0  0
  3  4  1  0  0  0  0
  3  5  2  0  0  0  0
  5  6  1  0  0  0  0
  5  9  1  0  0  0  0
  6  7  2  0  0  0  0
  7  8  1  0  0  0  0
  7 10  1  0  0  0  0
  8  9  2  0  0  0  0
 10 15  2  3  0  0  0
 11 12  1  0  0  0  0
 11 13  2  0  0  0  0
 13 14  1  0  0  0  0
 15 16  1  0  0  0  0
 15 20  1  0  0  0  0
 16 17  1  0  0  0  0
 17 18  2  0  0  0  0
 17 21  1  0  0  0  0
 18 19  1  0  0  0  0
 18 23  1  0  0  0  0
 19 20  2  0  0  0  0
 21 22  2  0  0  0  0
 22 23  1  0  0  0  0
 23 24  1  0  0  0  0
  2 25  1  0  0  0  0
  2 26  1  0  0  0  0
  3 27  1  0  0  0  0
  4 28  1  0  0  0  0
 10 29  1  0  0  0  0
 12 30  1  0  0  0  0
 12 31  1  0  0  0  0
 12 32  1  0  0  0  0
 14 33  1  0  0  0  0
 16 34  1  0  0  0  0
 16 35  1  0  0  0  0
 19 36  1  0  0  0  0
 20 37  1  0  0  0  0
 21 38  1  0  0  0  0
 24 39  1  0  0  0  0
 24 40  1  0  0  0  0
 24 41  1  0  0  0  0
M  END
> <Name>
18

> <IC50[uM]>
0.01

$$$$
18
  -OEChem-05192314333D
 Structure written by MMmdl.
 41 44  0     1  0  0  0  0  0999 V2000
   -6.3808   12.3686  -12.0119 C   0  0  3  0  0  0  0  0  0  0  0  0
   -6.5112   11.8116  -10.7365 C   0  0  0  0  0  0  0  0  0  0  0  0
   -7.7301   10.5824  -13.0300 C   0  0  0  0  0  0  0  0  0  0  0  0
   -6.9992   11.7782  -13.1263 C   0  0  0  0  0  0  0  0  0  0  0  0
   -7.8250   10.0166  -11.7542 C   0  0  0  0  0  0  0  0  0  0  0  0
   -7.2407   10.6266  -10.6010 C   0  0  0  0  0  0  0  0  0  0  0  0
   -7.6094    9.7513   -9.5103 C   0  0  0  0  0  0  0  0  0  0  0  0
   -8.2849    8.7404   -9.9846 N   0  0  0  0  0  0  0  0  0  0  0  0
   -8.4192    8.8674  -11.2983 N   0  0  0  0  0  0  0  0  0  0  0  0
   -7.3225    9.8872   -8.0242 C   0  0  0  0  0  0  0  0  0  0  0  0
   -4.3834   13.6199  -11.4933 N   0  0  0  0  0  0  0  0  0  0  0  0
   -3.4237   14.7282  -11.5789 C   0  0  0  0  0  0  0  0  0  0  0  0
   -5.5369   13.6139  -12.1980 C   0  0  0  0  0  0  0  0  0  0  0  0
   -5.8771   14.5161  -12.9653 O   0  0  0  0  0  0  0  0  0  0  0  0
   -5.9516   10.5005   -7.7272 C   0  0  0  0  0  0  0  0  0  0  0  0
   -5.8803   11.7722   -7.1539 C   0  0  0  0  0  0  0  0  0  0  0  0
   -4.6129   12.3159   -6.9118 C   0  0  0  0  0  0  0  0  0  0  0  0
   -3.4418   11.5625   -7.2429 C   0  0  0  0  0  0  0  0  0  0  0  0
   -3.5059   10.2842   -7.8062 C   0  0  0  0  0  0  0  0  0  0  0  0
   -4.7935    9.7780   -8.0417 C   0  0  0  0  0  0  0  0  0  0  0  0
   -4.0936   13.5458   -6.3664 C   0  0  0  0  0  0  0  0  0  0  0  0
   -2.7885   13.5288   -6.3742 N   0  0  0  0  0  0  0  0  0  0  0  0
   -2.3831   12.3683   -6.8823 N   0  0  0  0  0  0  0  0  0  0  0  0
   -0.9539   12.1016   -6.9897 C   0  0  0  0  0  0  0  0  0  0  0  0
   -7.2714   12.9905  -11.8387 H   0  0  0  0  0  0  0  0  0  0  0  0
   -6.0597   12.2849   -9.8771 H   0  0  0  0  0  0  0  0  0  0  0  0
   -8.1927   10.1256  -13.8924 H   0  0  0  0  0  0  0  0  0  0  0  0
   -6.9098   12.2595  -14.0890 H   0  0  0  0  0  0  0  0  0  0  0  0
   -8.0161    9.5818   -7.2548 H   0  0  0  0  0  0  0  0  0  0  0  0
   -4.1771   12.8456  -10.8951 H   0  0  0  0  0  0  0  0  0  0  0  0
   -2.5640   14.5209  -10.9247 H   0  0  0  0  0  0  0  0  0  0  0  0
   -3.0770   14.8334  -12.6175 H   0  0  0  0  0  0  0  0  0  0  0  0
   -3.9113   15.6608  -11.2589 H   0  0  0  0  0  0  0  0  0  0  0  0
   -6.7769   12.3203   -6.9046 H   0  0  0  0  0  0  0  0  0  0  0  0
   -2.6169    9.7197   -8.0459 H   0  0  0  0  0  0  0  0  0  0  0  0
   -4.8591    8.8345   -7.4800 H   0  0  0  0  0  0  0  0  0  0  0  0
   -4.8473    9.5673   -9.1200 H   0  0  0  0  0  0  0  0  0  0  0  0
   -4.6981   14.3639   -6.0034 H   0  0  0  0  0  0  0  0  0  0  0  0
   -0.3895   12.9643   -6.6059 H   0  0  0  0  0  0  0  0  0  0  0  0
   -0.7026   11.2076   -6.4002 H   0  0  0  0  0  0  0  0  0  0  0  0
   -0.6910   11.9314   -8.0442 H   0  0  0  0  0  0  0  0  0  0  0  0
  1  2  1  0  0  0  0
  1  4  1  0  0  0  0
  1 13  1  0  0  0  0
  2  6  2  0  0  0  0
  3  4  2  0  0  0  0
  3  5  1  0  0  0  0
  5  6  1  0  0  0  0
  5  9  2  0  0  0  0
  6  7  1  0  0  0  0
  7  8  2  0  0  0  0
  7 10  1  0  0  0  0
  8  9  1  0  0  0  0
 10 15  2  3  0  0  0
 11 12  1  0  0  0  0
 11 13  1  0  0  0  0
 13 14  2  0  0  0  0
 15 16  1  0  0  0  0
 15 20  1  0  0  0  0
 16 17  2  0  0  0  0
 17 18  1  0  0  0  0
 17 21  1  0  0  0  0
 18 19  2  0  0  0  0
 18 23  1  0  0  0  0
 19 20  1  0  0  0  0
 21 22  2  0  0  0  0
 22 23  1  0  0  0  0
 23 24  1  0  0  0  0
  1 25  1  0  0  0  0
  2 26  1  0  0  0  0
  3 27  1  0  0  0  0
  4 28  1  0  0  0  0
 10 29  1  0  0  0  0
 11 30  1  0  0  0  0
 12 31  1  0  0  0  0
 12 32  1  0  0  0  0
 12 33  1  0  0  0  0
 16 34  1  0  0  0  0
 19 35  1  0  0  0  0
 20 36  1  0  0  0  0
 20 37  1  0  0  0  0
 21 38  1  0  0  0  0
 24 39  1  0  0  0  0
 24 40  1  0  0  0  0
 24 41  1  0  0  0  0
M  END
> <Name>
18

> <IC50[uM]>
0.01

$$$$
18
  -OEChem-05192314333D
 Structure written by MMmdl.
 41 44  0     1  0  0  0  0  0999 V2000
   -6.3808   12.3686  -12.0119 C   0  0  0  0  0  0  0  0  0  0  0  0
   -6.5112   11.8116  -10.7365 C   0  0  0  0  0  0  0  0  0  0  0  0
   -7.7301   10.5824  -13.0300 C   0  0  0  0  0  0  0  0  0  0  0  0
   -6.9992   11.7782  -13.1263 C   0  0  0  0  0  0  0  0  0  0  0  0
   -7.8250   10.0166  -11.7542 C   0  0  0  0  0  0  0  0  0  0  0  0
   -7.2407   10.6266  -10.6010 C   0  0  3  0  0  0  0  0  0  0  0  0
   -7.6094    9.7513   -9.5103 C   0  0  0  0  0  0  0  0  0  0  0  0
   -8.2849    8.7404   -9.9846 N   0  0  0  0  0  0  0  0  0  0  0  0
   -8.4192    8.8674  -11.2983 N   0  0  0  0  0  0  0  0  0  0  0  0
   -7.3225    9.8872   -8.0242 C   0  0  0  0  0  0  0  0  0  0  0  0
   -4.3834   13.6199  -11.4933 N   0  0  0  0  0  0  0  0  0  0  0  0
   -3.4237   14.7282  -11.5789 C   0  0  0  0  0  0  0  0  0  0  0  0
   -5.5369   13.6139  -12.1980 C   0  0  0  0  0  0  0  0  0  0  0  0
   -5.8771   14.5161  -12.9653 O   0  0  0  0  0  0  0  0  0  0  0  0
   -5.9516   10.5005   -7.7272 C   0  0  0  0  0  0  0  0  0  0  0  0
   -5.8803   11.7722   -7.1539 C   0  0  0  0  0  0  0  0  0  0  0  0
   -4.6129   12.3159   -6.9118 C   0  0  0  0  0  0  0  0  0  0  0  0
   -3.4418   11.5625   -7.2429 C   0  0  0  0  0  0  0  0  0  0  0  0
   -3.5059   10.2842   -7.8062 C   0  0  0  0  0  0  0  0  0  0  0  0
   -4.7935    9.7780   -8.0417 C   0  0  0  0  0  0  0  0  0  0  0  0
   -4.0936   13.5458   -6.3664 C   0  0  0  0  0  0  0  0  0  0  0  0
   -2.7885   13.5288   -6.3742 N   0  0  0  0  0  0  0  0  0  0  0  0
   -2.3831   12.3683   -6.8823 N   0  0  0  0  0  0  0  0  0  0  0  0
   -0.9539   12.1016   -6.9897 C   0  0  0  0  0  0  0  0  0  0  0  0
   -6.0597   12.2849   -9.8771 H   0  0  0  0  0  0  0  0  0  0  0  0
   -8.1927   10.1256  -13.8924 H   0  0  0  0  0  0  0  0  0  0  0  0
   -6.9098   12.2595  -14.0890 H   0  0  0  0  0  0  0  0  0  0  0  0
   -8.1598   11.2101  -10.4437 H   0  0  0  0  0  0  0  0  0  0  0  0
   -8.0161    9.5818   -7.2548 H   0  0  0  0  0  0  0  0  0  0  0  0
   -4.1771   12.8456  -10.8951 H   0  0  0  0  0  0  0  0  0  0  0  0
   -2.5640   14.5209  -10.9247 H   0  0  0  0  0  0  0  0  0  0  0  0
   -3.0770   14.8334  -12.6175 H   0  0  0  0  0  0  0  0  0  0  0  0
   -3.9113   15.6608  -11.2589 H   0  0  0  0  0  0  0  0  0  0  0  0
   -6.7769   12.3203   -6.9046 H   0  0  0  0  0  0  0  0  0  0  0  0
   -2.6169    9.7197   -8.0459 H   0  0  0  0  0  0  0  0  0  0  0  0
   -4.8591    8.8345   -7.4800 H   0  0  0  0  0  0  0  0  0  0  0  0
   -4.8473    9.5673   -9.1200 H   0  0  0  0  0  0  0  0  0  0  0  0
   -4.6981   14.3639   -6.0034 H   0  0  0  0  0  0  0  0  0  0  0  0
   -0.3895   12.9643   -6.6059 H   0  0  0  0  0  0  0  0  0  0  0  0
   -0.7026   11.2076   -6.4002 H   0  0  0  0  0  0  0  0  0  0  0  0
   -0.6910   11.9314   -8.0442 H   0  0  0  0  0  0  0  0  0  0  0  0
  1  2  2  0  0  0  0
  1  4  1  0  0  0  0
  1 13  1  0  0  0  0
  2  6  1  0  0  0  0
  3  4  2  0  0  0  0
  3  5  1  0  0  0  0
  5  6  1  0  0  0  0
  5  9  2  0  0  0  0
  6  7  1  0  0  0  0
  7  8  2  0  0  0  0
  7 10  1  0  0  0  0
  8  9  1  0  0  0  0
 10 15  2  3  0  0  0
 11 12  1  0  0  0  0
 11 13  1  0  0  0  0
 13 14  2  0  0  0  0
 15 16  1  0  0  0  0
 15 20  1  0  0  0  0
 16 17  2  0  0  0  0
 17 18  1  0  0  0  0
 17 21  1  0  0  0  0
 18 19  2  0  0  0  0
 18 23  1  0  0  0  0
 19 20  1  0  0  0  0
 21 22  2  0  0  0  0
 22 23  1  0  0  0  0
 23 24  1  0  0  0  0
  2 25  1  0  0  0  0
  3 26  1  0  0  0  0
  4 27  1  0  0  0  0
  6 28  1  0  0  0  0
 10 29  1  0  0  0  0
 11 30  1  0  0  0  0
 12 31  1  0  0  0  0
 12 32  1  0  0  0  0
 12 33  1  0  0  0  0
 16 34  1  0  0  0  0
 19 35  1  0  0  0  0
 20 36  1  0  0  0  0
 20 37  1  0  0  0  0
 21 38  1  0  0  0  0
 24 39  1  0  0  0  0
 24 40  1  0  0  0  0
 24 41  1  0  0  0  0
M  END
> <Name>
18

> <IC50[uM]>
0.01

$$$$
18
  -OEChem-05192314333D
 Structure written by MMmdl.
 41 44  0     0  0  0  0  0  0999 V2000
   -6.3808   12.3686  -12.0119 C   0  0  0  0  0  0  0  0  0  0  0  0
   -6.5112   11.8116  -10.7365 C   0  0  0  0  0  0  0  0  0  0  0  0
   -7.7301   10.5824  -13.0300 C   0  0  0  0  0  0  0  0  0  0  0  0
   -6.9992   11.7782  -13.1263 C   0  0  0  0  0  0  0  0  0  0  0  0
   -7.8250   10.0166  -11.7542 C   0  0  0  0  0  0  0  0  0  0  0  0
   -7.2407   10.6266  -10.6010 C   0  0  0  0  0  0  0  0  0  0  0  0
   -7.6094    9.7513   -9.5103 C   0  0  0  0  0  0  0  0  0  0  0  0
   -8.2849    8.7404   -9.9846 N   0  0  0  0  0  0  0  0  0  0  0  0
   -8.4192    8.8674  -11.2983 N   0  0  0  0  0  0  0  0  0  0  0  0
   -7.3225    9.8872   -8.0242 C   0  0  0  0  0  0  0  0  0  0  0  0
   -4.3834   13.6199  -11.4933 N   0  0  0  0  0  0  0  0  0  0  0  0
   -3.4237   14.7282  -11.5789 C   0  0  0  0  0  0  0  0  0  0  0  0
   -5.5369   13.6139  -12.1980 C   0  0  0  0  0  0  0  0  0  0  0  0
   -5.8771   14.5161  -12.9653 O   0  0  0  0  0  0  0  0  0  0  0  0
   -5.9516   10.5005   -7.7272 C   0  0  0  0  0  0  0  0  0  0  0  0
   -5.8803   11.7722   -7.1539 C   0  0  0  0  0  0  0  0  0  0  0  0
   -4.6129   12.3159   -6.9118 C   0  0  0  0  0  0  0  0  0  0  0  0
   -3.4418   11.5625   -7.2429 C   0  0  0  0  0  0  0  0  0  0  0  0
   -3.5059   10.2842   -7.8062 C   0  0  0  0  0  0  0  0  0  0  0  0
   -4.7935    9.7780   -8.0417 C   0  0  0  0  0  0  0  0  0  0  0  0
   -4.0936   13.5458   -6.3664 C   0  0  0  0  0  0  0  0  0  0  0  0
   -2.7885   13.5288   -6.3742 N   0  0  0  0  0  0  0  0  0  0  0  0
   -2.3831   12.3683   -6.8823 N   0  0  0  0  0  0  0  0  0  0  0  0
   -0.9539   12.1016   -6.9897 C   0  0  0  0  0  0  0  0  0  0  0  0
   -6.0597   12.2849   -9.8771 H   0  0  0  0  0  0  0  0  0  0  0  0
   -8.7517   10.7843  -13.3842 H   0  0  0  0  0  0  0  0  0  0  0  0
   -7.2525    9.8433  -13.6900 H   0  0  0  0  0  0  0  0  0  0  0  0
   -6.9098   12.2595  -14.0890 H   0  0  0  0  0  0  0  0  0  0  0  0
   -8.0161    9.5818   -7.2548 H   0  0  0  0  0  0  0  0  0  0  0  0
   -4.1771   12.8456  -10.8951 H   0  0  0  0  0  0  0  0  0  0  0  0
   -2.5640   14.5209  -10.9247 H   0  0  0  0  0  0  0  0  0  0  0  0
   -3.0770   14.8334  -12.6175 H   0  0  0  0  0  0  0  0  0  0  0  0
   -3.9113   15.6608  -11.2589 H   0  0  0  0  0  0  0  0  0  0  0  0
   -6.7769   12.3203   -6.9046 H   0  0  0  0  0  0  0  0  0  0  0  0
   -2.6169    9.7197   -8.0459 H   0  0  0  0  0  0  0  0  0  0  0  0
   -4.8591    8.8345   -7.4800 H   0  0  0  0  0  0  0  0  0  0  0  0
   -4.8473    9.5673   -9.1200 H   0  0  0  0  0  0  0  0  0  0  0  0
   -4.6981   14.3639   -6.0034 H   0  0  0  0  0  0  0  0  0  0  0  0
   -0.3895   12.9643   -6.6059 H   0  0  0  0  0  0  0  0  0  0  0  0
   -0.7026   11.2076   -6.4002 H   0  0  0  0  0  0  0  0  0  0  0  0
   -0.6910   11.9314   -8.0442 H   0  0  0  0  0  0  0  0  0  0  0  0
  1  2  1  0  0  0  0
  1  4  2  0  0  0  0
  1 13  1  0  0  0  0
  2  6  2  0  0  0  0
  3  4  1  0  0  0  0
  3  5  1  0  0  0  0
  5  6  1  0  0  0  0
  5  9  2  0  0  0  0
  6  7  1  0  0  0  0
  7  8  2  0  0  0  0
  7 10  1  0  0  0  0
  8  9  1  0  0  0  0
 10 15  2  3  0  0  0
 11 12  1  0  0  0  0
 11 13  1  0  0  0  0
 13 14  2  0  0  0  0
 15 16  1  0  0  0  0
 15 20  1  0  0  0  0
 16 17  2  0  0  0  0
 17 18  1  0  0  0  0
 17 21  1  0  0  0  0
 18 19  2  0  0  0  0
 18 23  1  0  0  0  0
 19 20  1  0  0  0  0
 21 22  2  0  0  0  0
 22 23  1  0  0  0  0
 23 24  1  0  0  0  0
  2 25  1  0  0  0  0
  3 26  1  0  0  0  0
  3 27  1  0  0  0  0
  4 28  1  0  0  0  0
 10 29  1  0  0  0  0
 11 30  1  0  0  0  0
 12 31  1  0  0  0  0
 12 32  1  0  0  0  0
 12 33  1  0  0  0  0
 16 34  1  0  0  0  0
 19 35  1  0  0  0  0
 20 36  1  0  0  0  0
 20 37  1  0  0  0  0
 21 38  1  0  0  0  0
 24 39  1  0  0  0  0
 24 40  1  0  0  0  0
 24 41  1  0  0  0  0
M  END
> <Name>
18

> <IC50[uM]>
0.01

$$$$
18
  -OEChem-05192314333D
 Structure written by MMmdl.
 41 44  0     1  0  0  0  0  0999 V2000
   -6.3808   12.3686  -12.0119 C   0  0  3  0  0  0  0  0  0  0  0  0
   -6.5112   11.8116  -10.7365 C   0  0  0  0  0  0  0  0  0  0  0  0
   -7.7301   10.5824  -13.0300 C   0  0  0  0  0  0  0  0  0  0  0  0
   -6.9992   11.7782  -13.1263 C   0  0  0  0  0  0  0  0  0  0  0  0
   -7.8250   10.0166  -11.7542 C   0  0  0  0  0  0  0  0  0  0  0  0
   -7.2407   10.6266  -10.6010 C   0  0  0  0  0  0  0  0  0  0  0  0
   -7.6094    9.7513   -9.5103 C   0  0  0  0  0  0  0  0  0  0  0  0
   -8.2849    8.7404   -9.9846 N   0  0  0  0  0  0  0  0  0  0  0  0
   -8.4192    8.8674  -11.2983 N   0  0  0  0  0  0  0  0  0  0  0  0
   -7.3225    9.8872   -8.0242 C   0  0  0  0  0  0  0  0  0  0  0  0
   -4.3834   13.6199  -11.4933 N   0  0  0  0  0  0  0  0  0  0  0  0
   -3.4237   14.7282  -11.5789 C   0  0  0  0  0  0  0  0  0  0  0  0
   -5.5369   13.6139  -12.1980 C   0  0  0  0  0  0  0  0  0  0  0  0
   -5.8771   14.5161  -12.9653 O   0  0  0  0  0  0  0  0  0  0  0  0
   -5.9516   10.5005   -7.7272 C   0  0  0  0  0  0  0  0  0  0  0  0
   -5.8803   11.7722   -7.1539 C   0  0  0  0  0  0  0  0  0  0  0  0
   -4.6129   12.3159   -6.9118 C   0  0  0  0  0  0  0  0  0  0  0  0
   -3.4418   11.5625   -7.2429 C   0  0  0  0  0  0  0  0  0  0  0  0
   -3.5059   10.2842   -7.8062 C   0  0  0  0  0  0  0  0  0  0  0  0
   -4.7935    9.7780   -8.0417 C   0  0  0  0  0  0  0  0  0  0  0  0
   -4.0936   13.5458   -6.3664 C   0  0  0  0  0  0  0  0  0  0  0  0
   -2.7885   13.5288   -6.3742 N   0  0  0  0  0  0  0  0  0  0  0  0
   -2.3831   12.3683   -6.8823 N   0  0  0  0  0  0  0  0  0  0  0  0
   -0.9539   12.1016   -6.9897 C   0  0  0  0  0  0  0  0  0  0  0  0
   -7.2714   12.9905  -11.8387 H   0  0  0  0  0  0  0  0  0  0  0  0
   -6.0597   12.2849   -9.8771 H   0  0  0  0  0  0  0  0  0  0  0  0
   -8.1927   10.1256  -13.8924 H   0  0  0  0  0  0  0  0  0  0  0  0
   -6.9098   12.2595  -14.0890 H   0  0  0  0  0  0  0  0  0  0  0  0
   -8.0161    9.5818   -7.2548 H   0  0  0  0  0  0  0  0  0  0  0  0
   -2.5640   14.5209  -10.9247 H   0  0  0  0  0  0  0  0  0  0  0  0
   -3.0770   14.8334  -12.6175 H   0  0  0  0  0  0  0  0  0  0  0  0
   -3.9113   15.6608  -11.2589 H   0  0  0  0  0  0  0  0  0  0  0  0
   -5.2270   15.2086  -12.9486 H   0  0  0  0  0  0  0  0  0  0  0  0
   -6.7769   12.3203   -6.9046 H   0  0  0  0  0  0  0  0  0  0  0  0
   -2.6169    9.7197   -8.0459 H   0  0  0  0  0  0  0  0  0  0  0  0
   -4.8591    8.8345   -7.4800 H   0  0  0  0  0  0  0  0  0  0  0  0
   -4.8473    9.5673   -9.1200 H   0  0  0  0  0  0  0  0  0  0  0  0
   -4.6981   14.3639   -6.0034 H   0  0  0  0  0  0  0  0  0  0  0  0
   -0.3895   12.9643   -6.6059 H   0  0  0  0  0  0  0  0  0  0  0  0
   -0.7026   11.2076   -6.4002 H   0  0  0  0  0  0  0  0  0  0  0  0
   -0.6910   11.9314   -8.0442 H   0  0  0  0  0  0  0  0  0  0  0  0
  1  2  1  0  0  0  0
  1  4  1  0  0  0  0
  1 13  1  0  0  0  0
  2  6  2  0  0  0  0
  3  4  2  0  0  0  0
  3  5  1  0  0  0  0
  5  6  1  0  0  0  0
  5  9  2  0  0  0  0
  6  7  1  0  0  0  0
  7  8  2  0  0  0  0
  7 10  1  0  0  0  0
  8  9  1  0  0  0  0
 10 15  2  3  0  0  0
 11 12  1  0  0  0  0
 11 13  2  0  0  0  0
 13 14  1  0  0  0  0
 15 16  1  0  0  0  0
 15 20  1  0  0  0  0
 16 17  2  0  0  0  0
 17 18  1  0  0  0  0
 17 21  1  0  0  0  0
 18 19  2  0  0  0  0
 18 23  1  0  0  0  0
 19 20  1  0  0  0  0
 21 22  2  0  0  0  0
 22 23  1  0  0  0  0
 23 24  1  0  0  0  0
  1 25  1  0  0  0  0
  2 26  1  0  0  0  0
  3 27  1  0  0  0  0
  4 28  1  0  0  0  0
 10 29  1  0  0  0  0
 12 30  1  0  0  0  0
 12 31  1  0  0  0  0
 12 32  1  0  0  0  0
 14 33  1  0  0  0  0
 16 34  1  0  0  0  0
 19 35  1  0  0  0  0
 20 36  1  0  0  0  0
 20 37  1  0  0  0  0
 21 38  1  0  0  0  0
 24 39  1  0  0  0  0
 24 40  1  0  0  0  0
 24 41  1  0  0  0  0
M  END
> <Name>
18

> <IC50[uM]>
0.01

$$$$
18
  -OEChem-05192314333D
 Structure written by MMmdl.
 41 44  0     1  0  0  0  0  0999 V2000
   -6.3808   12.3686  -12.0119 C   0  0  0  0  0  0  0  0  0  0  0  0
   -6.5112   11.8116  -10.7365 C   0  0  0  0  0  0  0  0  0  0  0  0
   -7.7301   10.5824  -13.0300 C   0  0  0  0  0  0  0  0  0  0  0  0
   -6.9992   11.7782  -13.1263 C   0  0  0  0  0  0  0  0  0  0  0  0
   -7.8250   10.0166  -11.7542 C   0  0  0  0  0  0  0  0  0  0  0  0
   -7.2407   10.6266  -10.6010 C   0  0  3  0  0  0  0  0  0  0  0  0
   -7.6094    9.7513   -9.5103 C   0  0  0  0  0  0  0  0  0  0  0  0
   -8.2849    8.7404   -9.9846 N   0  0  0  0  0  0  0  0  0  0  0  0
   -8.4192    8.8674  -11.2983 N   0  0  0  0  0  0  0  0  0  0  0  0
   -7.3225    9.8872   -8.0242 C   0  0  0  0  0  0  0  0  0  0  0  0
   -4.3834   13.6199  -11.4933 N   0  0  0  0  0  0  0  0  0  0  0  0
   -3.4237   14.7282  -11.5789 C   0  0  0  0  0  0  0  0  0  0  0  0
   -5.5369   13.6139  -12.1980 C   0  0  0  0  0  0  0  0  0  0  0  0
   -5.8771   14.5161  -12.9653 O   0  0  0  0  0  0  0  0  0  0  0  0
   -5.9516   10.5005   -7.7272 C   0  0  0  0  0  0  0  0  0  0  0  0
   -5.8803   11.7722   -7.1539 C   0  0  0  0  0  0  0  0  0  0  0  0
   -4.6129   12.3159   -6.9118 C   0  0  0  0  0  0  0  0  0  0  0  0
   -3.4418   11.5625   -7.2429 C   0  0  0  0  0  0  0  0  0  0  0  0
   -3.5059   10.2842   -7.8062 C   0  0  0  0  0  0  0  0  0  0  0  0
   -4.7935    9.7780   -8.0417 C   0  0  0  0  0  0  0  0  0  0  0  0
   -4.0936   13.5458   -6.3664 C   0  0  0  0  0  0  0  0  0  0  0  0
   -2.7885   13.5288   -6.3742 N   0  0  0  0  0  0  0  0  0  0  0  0
   -2.3831   12.3683   -6.8823 N   0  0  0  0  0  0  0  0  0  0  0  0
   -0.9539   12.1016   -6.9897 C   0  0  0  0  0  0  0  0  0  0  0  0
   -6.0597   12.2849   -9.8771 H   0  0  0  0  0  0  0  0  0  0  0  0
   -8.1927   10.1256  -13.8924 H   0  0  0  0  0  0  0  0  0  0  0  0
   -6.9098   12.2595  -14.0890 H   0  0  0  0  0  0  0  0  0  0  0  0
   -8.1598   11.2101  -10.4437 H   0  0  0  0  0  0  0  0  0  0  0  0
   -8.0161    9.5818   -7.2548 H   0  0  0  0  0  0  0  0  0  0  0  0
   -2.5640   14.5209  -10.9247 H   0  0  0  0  0  0  0  0  0  0  0  0
   -3.0770   14.8334  -12.6175 H   0  0  0  0  0  0  0  0  0  0  0  0
   -3.9113   15.6608  -11.2589 H   0  0  0  0  0  0  0  0  0  0  0  0
   -5.2270   15.2086  -12.9486 H   0  0  0  0  0  0  0  0  0  0  0  0
   -6.7769   12.3203   -6.9046 H   0  0  0  0  0  0  0  0  0  0  0  0
   -2.6169    9.7197   -8.0459 H   0  0  0  0  0  0  0  0  0  0  0  0
   -4.8591    8.8345   -7.4800 H   0  0  0  0  0  0  0  0  0  0  0  0
   -4.8473    9.5673   -9.1200 H   0  0  0  0  0  0  0  0  0  0  0  0
   -4.6981   14.3639   -6.0034 H   0  0  0  0  0  0  0  0  0  0  0  0
   -0.3895   12.9643   -6.6059 H   0  0  0  0  0  0  0  0  0  0  0  0
   -0.7026   11.2076   -6.4002 H   0  0  0  0  0  0  0  0  0  0  0  0
   -0.6910   11.9314   -8.0442 H   0  0  0  0  0  0  0  0  0  0  0  0
  1  2  2  0  0  0  0
  1  4  1  0  0  0  0
  1 13  1  0  0  0  0
  2  6  1  0  0  0  0
  3  4  2  0  0  0  0
  3  5  1  0  0  0  0
  5  6  1  0  0  0  0
  5  9  2  0  0  0  0
  6  7  1  0  0  0  0
  7  8  2  0  0  0  0
  7 10  1  0  0  0  0
  8  9  1  0  0  0  0
 10 15  2  3  0  0  0
 11 12  1  0  0  0  0
 11 13  2  0  0  0  0
 13 14  1  0  0  0  0
 15 16  1  0  0  0  0
 15 20  1  0  0  0  0
 16 17  2  0  0  0  0
 17 18  1  0  0  0  0
 17 21  1  0  0  0  0
 18 19  2  0  0  0  0
 18 23  1  0  0  0  0
 19 20  1  0  0  0  0
 21 22  2  0  0  0  0
 22 23  1  0  0  0  0
 23 24  1  0  0  0  0
  2 25  1  0  0  0  0
  3 26  1  0  0  0  0
  4 27  1  0  0  0  0
  6 28  1  0  0  0  0
 10 29  1  0  0  0  0
 12 30  1  0  0  0  0
 12 31  1  0  0  0  0
 12 32  1  0  0  0  0
 14 33  1  0  0  0  0
 16 34  1  0  0  0  0
 19 35  1  0  0  0  0
 20 36  1  0  0  0  0
 20 37  1  0  0  0  0
 21 38  1  0  0  0  0
 24 39  1  0  0  0  0
 24 40  1  0  0  0  0
 24 41  1  0  0  0  0
M  END
> <Name>
18

> <IC50[uM]>
0.01

$$$$
18
  -OEChem-05192314333D
 Structure written by MMmdl.
 41 44  0     0  0  0  0  0  0999 V2000
   -6.3808   12.3686  -12.0119 C   0  0  0  0  0  0  0  0  0  0  0  0
   -6.5112   11.8116  -10.7365 C   0  0  0  0  0  0  0  0  0  0  0  0
   -7.7301   10.5824  -13.0300 C   0  0  0  0  0  0  0  0  0  0  0  0
   -6.9992   11.7782  -13.1263 C   0  0  0  0  0  0  0  0  0  0  0  0
   -7.8250   10.0166  -11.7542 C   0  0  0  0  0  0  0  0  0  0  0  0
   -7.2407   10.6266  -10.6010 C   0  0  0  0  0  0  0  0  0  0  0  0
   -7.6094    9.7513   -9.5103 C   0  0  0  0  0  0  0  0  0  0  0  0
   -8.2849    8.7404   -9.9846 N   0  0  0  0  0  0  0  0  0  0  0  0
   -8.4192    8.8674  -11.2983 N   0  0  0  0  0  0  0  0  0  0  0  0
   -7.3225    9.8872   -8.0242 C   0  0  0  0  0  0  0  0  0  0  0  0
   -4.3834   13.6199  -11.4933 N   0  0  0  0  0  0  0  0  0  0  0  0
   -3.4237   14.7282  -11.5789 C   0  0  0  0  0  0  0  0  0  0  0  0
   -5.5369   13.6139  -12.1980 C   0  0  0  0  0  0  0  0  0  0  0  0
   -5.8771   14.5161  -12.9653 O   0  0  0  0  0  0  0  0  0  0  0  0
   -5.9516   10.5005   -7.7272 C   0  0  0  0  0  0  0  0  0  0  0  0
   -5.8803   11.7722   -7.1539 C   0  0  0  0  0  0  0  0  0  0  0  0
   -4.6129   12.3159   -6.9118 C   0  0  0  0  0  0  0  0  0  0  0  0
   -3.4418   11.5625   -7.2429 C   0  0  0  0  0  0  0  0  0  0  0  0
   -3.5059   10.2842   -7.8062 C   0  0  0  0  0  0  0  0  0  0  0  0
   -4.7935    9.7780   -8.0417 C   0  0  0  0  0  0  0  0  0  0  0  0
   -4.0936   13.5458   -6.3664 C   0  0  0  0  0  0  0  0  0  0  0  0
   -2.7885   13.5288   -6.3742 N   0  0  0  0  0  0  0  0  0  0  0  0
   -2.3831   12.3683   -6.8823 N   0  0  0  0  0  0  0  0  0  0  0  0
   -0.9539   12.1016   -6.9897 C   0  0  0  0  0  0  0  0  0  0  0  0
   -6.0597   12.2849   -9.8771 H   0  0  0  0  0  0  0  0  0  0  0  0
   -8.7517   10.7843  -13.3842 H   0  0  0  0  0  0  0  0  0  0  0  0
   -7.2525    9.8433  -13.6900 H   0  0  0  0  0  0  0  0  0  0  0  0
   -6.9098   12.2595  -14.0890 H   0  0  0  0  0  0  0  0  0  0  0  0
   -8.0161    9.5818   -7.2548 H   0  0  0  0  0  0  0  0  0  0  0  0
   -2.5640   14.5209  -10.9247 H   0  0  0  0  0  0  0  0  0  0  0  0
   -3.0770   14.8334  -12.6175 H   0  0  0  0  0  0  0  0  0  0  0  0
   -3.9113   15.6608  -11.2589 H   0  0  0  0  0  0  0  0  0  0  0  0
   -5.2270   15.2086  -12.9486 H   0  0  0  0  0  0  0  0  0  0  0  0
   -6.7769   12.3203   -6.9046 H   0  0  0  0  0  0  0  0  0  0  0  0
   -2.6169    9.7197   -8.0459 H   0  0  0  0  0  0  0  0  0  0  0  0
   -4.8591    8.8345   -7.4800 H   0  0  0  0  0  0  0  0  0  0  0  0
   -4.8473    9.5673   -9.1200 H   0  0  0  0  0  0  0  0  0  0  0  0
   -4.6981   14.3639   -6.0034 H   0  0  0  0  0  0  0  0  0  0  0  0
   -0.3895   12.9643   -6.6059 H   0  0  0  0  0  0  0  0  0  0  0  0
   -0.7026   11.2076   -6.4002 H   0  0  0  0  0  0  0  0  0  0  0  0
   -0.6910   11.9314   -8.0442 H   0  0  0  0  0  0  0  0  0  0  0  0
  1  2  1  0  0  0  0
  1  4  2  0  0  0  0
  1 13  1  0  0  0  0
  2  6  2  0  0  0  0
  3  4  1  0  0  0  0
  3  5  1  0  0  0  0
  5  6  1  0  0  0  0
  5  9  2  0  0  0  0
  6  7  1  0  0  0  0
  7  8  2  0  0  0  0
  7 10  1  0  0  0  0
  8  9  1  0  0  0  0
 10 15  2  3  0  0  0
 11 12  1  0  0  0  0
 11 13  2  0  0  0  0
 13 14  1  0  0  0  0
 15 16  1  0  0  0  0
 15 20  1  0  0  0  0
 16 17  2  0  0  0  0
 17 18  1  0  0  0  0
 17 21  1  0  0  0  0
 18 19  2  0  0  0  0
 18 23  1  0  0  0  0
 19 20  1  0  0  0  0
 21 22  2  0  0  0  0
 22 23  1  0  0  0  0
 23 24  1  0  0  0  0
  2 25  1  0  0  0  0
  3 26  1  0  0  0  0
  3 27  1  0  0  0  0
  4 28  1  0  0  0  0
 10 29  1  0  0  0  0
 12 30  1  0  0  0  0
 12 31  1  0  0  0  0
 12 32  1  0  0  0  0
 14 33  1  0  0  0  0
 16 34  1  0  0  0  0
 19 35  1  0  0  0  0
 20 36  1  0  0  0  0
 20 37  1  0  0  0  0
 21 38  1  0  0  0  0
 24 39  1  0  0  0  0
 24 40  1  0  0  0  0
 24 41  1  0  0  0  0
M  END
> <Name>
18

> <IC50[uM]>
0.01

$$$$
18
  -OEChem-05192314333D
 Structure written by MMmdl.
 41 44  0     1  0  0  0  0  0999 V2000
   -6.3808   12.3686  -12.0119 C   0  0  0  0  0  0  0  0  0  0  0  0
   -6.5112   11.8116  -10.7365 C   0  0  0  0  0  0  0  0  0  0  0  0
   -7.7301   10.5824  -13.0300 C   0  0  0  0  0  0  0  0  0  0  0  0
   -6.9992   11.7782  -13.1263 C   0  0  0  0  0  0  0  0  0  0  0  0
   -7.8250   10.0166  -11.7542 C   0  0  3  0  0  0  0  0  0  0  0  0
   -7.2407   10.6266  -10.6010 C   0  0  0  0  0  0  0  0  0  0  0  0
   -7.6094    9.7513   -9.5103 C   0  0  0  0  0  0  0  0  0  0  0  0
   -8.2849    8.7404   -9.9846 N   0  0  0  0  0  0  0  0  0  0  0  0
   -8.4192    8.8674  -11.2983 N   0  0  0  0  0  0  0  0  0  0  0  0
   -7.3225    9.8872   -8.0242 C   0  0  0  0  0  0  0  0  0  0  0  0
   -4.3834   13.6199  -11.4933 N   0  0  0  0  0  0  0  0  0  0  0  0
   -3.4237   14.7282  -11.5789 C   0  0  0  0  0  0  0  0  0  0  0  0
   -5.5369   13.6139  -12.1980 C   0  0  0  0  0  0  0  0  0  0  0  0
   -5.8771   14.5161  -12.9653 O   0  0  0  0  0  0  0  0  0  0  0  0
   -5.9516   10.5005   -7.7272 C   0  0  0  0  0  0  0  0  0  0  0  0
   -5.8803   11.7722   -7.1539 C   0  0  0  0  0  0  0  0  0  0  0  0
   -4.6129   12.3159   -6.9118 C   0  0  0  0  0  0  0  0  0  0  0  0
   -3.4418   11.5625   -7.2429 C   0  0  0  0  0  0  0  0  0  0  0  0
   -3.5059   10.2842   -7.8062 C   0  0  0  0  0  0  0  0  0  0  0  0
   -4.7935    9.7780   -8.0417 C   0  0  0  0  0  0  0  0  0  0  0  0
   -4.0936   13.5458   -6.3664 C   0  0  0  0  0  0  0  0  0  0  0  0
   -2.7885   13.5288   -6.3742 N   0  0  0  0  0  0  0  0  0  0  0  0
   -2.3831   12.3683   -6.8823 N   0  0  0  0  0  0  0  0  0  0  0  0
   -0.9539   12.1016   -6.9897 C   0  0  0  0  0  0  0  0  0  0  0  0
   -6.0597   12.2849   -9.8771 H   0  0  0  0  0  0  0  0  0  0  0  0
   -8.1927   10.1256  -13.8924 H   0  0  0  0  0  0  0  0  0  0  0  0
   -6.9098   12.2595  -14.0890 H   0  0  0  0  0  0  0  0  0  0  0  0
   -8.7581   10.5712  -11.5763 H   0  0  0  0  0  0  0  0  0  0  0  0
   -8.0161    9.5818   -7.2548 H   0  0  0  0  0  0  0  0  0  0  0  0
   -4.1771   12.8456  -10.8951 H   0  0  0  0  0  0  0  0  0  0  0  0
   -2.5640   14.5209  -10.9247 H   0  0  0  0  0  0  0  0  0  0  0  0
   -3.0770   14.8334  -12.6175 H   0  0  0  0  0  0  0  0  0  0  0  0
   -3.9113   15.6608  -11.2589 H   0  0  0  0  0  0  0  0  0  0  0  0
   -6.7769   12.3203   -6.9046 H   0  0  0  0  0  0  0  0  0  0  0  0
   -2.6169    9.7197   -8.0459 H   0  0  0  0  0  0  0  0  0  0  0  0
   -4.8591    8.8345   -7.4800 H   0  0  0  0  0  0  0  0  0  0  0  0
   -4.8473    9.5673   -9.1200 H   0  0  0  0  0  0  0  0  0  0  0  0
   -4.6981   14.3639   -6.0034 H   0  0  0  0  0  0  0  0  0  0  0  0
   -0.3895   12.9643   -6.6059 H   0  0  0  0  0  0  0  0  0  0  0  0
   -0.7026   11.2076   -6.4002 H   0  0  0  0  0  0  0  0  0  0  0  0
   -0.6910   11.9314   -8.0442 H   0  0  0  0  0  0  0  0  0  0  0  0
  1  2  2  0  0  0  0
  1  4  1  0  0  0  0
  1 13  1  0  0  0  0
  2  6  1  0  0  0  0
  3  4  2  0  0  0  0
  3  5  1  0  0  0  0
  5  6  1  0  0  0  0
  5  9  1  0  0  0  0
  6  7  2  0  0  0  0
  7  8  1  0  0  0  0
  7 10  1  0  0  0  0
  8  9  2  0  0  0  0
 10 15  2  3  0  0  0
 11 12  1  0  0  0  0
 11 13  1  0  0  0  0
 13 14  2  0  0  0  0
 15 16  1  0  0  0  0
 15 20  1  0  0  0  0
 16 17  2  0  0  0  0
 17 18  1  0  0  0  0
 17 21  1  0  0  0  0
 18 19  2  0  0  0  0
 18 23  1  0  0  0  0
 19 20  1  0  0  0  0
 21 22  2  0  0  0  0
 22 23  1  0  0  0  0
 23 24  1  0  0  0  0
  2 25  1  0  0  0  0
  3 26  1  0  0  0  0
  4 27  1  0  0  0  0
  5 28  1  0  0  0  0
 10 29  1  0  0  0  0
 11 30  1  0  0  0  0
 12 31  1  0  0  0  0
 12 32  1  0  0  0  0
 12 33  1  0  0  0  0
 16 34  1  0  0  0  0
 19 35  1  0  0  0  0
 20 36  1  0  0  0  0
 20 37  1  0  0  0  0
 21 38  1  0  0  0  0
 24 39  1  0  0  0  0
 24 40  1  0  0  0  0
 24 41  1  0  0  0  0
M  END
> <Name>
18

> <IC50[uM]>
0.01

$$$$
18
  -OEChem-05192314333D
 Structure written by MMmdl.
 41 44  0     0  0  0  0  0  0999 V2000
   -6.3808   12.3686  -12.0119 C   0  0  0  0  0  0  0  0  0  0  0  0
   -6.5112   11.8116  -10.7365 C   0  0  0  0  0  0  0  0  0  0  0  0
   -7.7301   10.5824  -13.0300 C   0  0  0  0  0  0  0  0  0  0  0  0
   -6.9992   11.7782  -13.1263 C   0  0  0  0  0  0  0  0  0  0  0  0
   -7.8250   10.0166  -11.7542 C   0  0  0  0  0  0  0  0  0  0  0  0
   -7.2407   10.6266  -10.6010 C   0  0  0  0  0  0  0  0  0  0  0  0
   -7.6094    9.7513   -9.5103 C   0  0  0  0  0  0  0  0  0  0  0  0
   -8.2849    8.7404   -9.9846 N   0  0  0  0  0  0  0  0  0  0  0  0
   -8.4192    8.8674  -11.2983 N   0  0  0  0  0  0  0  0  0  0  0  0
   -7.3225    9.8872   -8.0242 C   0  0  0  0  0  0  0  0  0  0  0  0
   -4.3834   13.6199  -11.4933 N   0  0  0  0  0  0  0  0  0  0  0  0
   -3.4237   14.7282  -11.5789 C   0  0  0  0  0  0  0  0  0  0  0  0
   -5.5369   13.6139  -12.1980 C   0  0  0  0  0  0  0  0  0  0  0  0
   -5.8771   14.5161  -12.9653 O   0  0  0  0  0  0  0  0  0  0  0  0
   -5.9516   10.5005   -7.7272 C   0  0  0  0  0  0  0  0  0  0  0  0
   -5.8803   11.7722   -7.1539 C   0  0  0  0  0  0  0  0  0  0  0  0
   -4.6129   12.3159   -6.9118 C   0  0  0  0  0  0  0  0  0  0  0  0
   -3.4418   11.5625   -7.2429 C   0  0  0  0  0  0  0  0  0  0  0  0
   -3.5059   10.2842   -7.8062 C   0  0  0  0  0  0  0  0  0  0  0  0
   -4.7935    9.7780   -8.0417 C   0  0  0  0  0  0  0  0  0  0  0  0
   -4.0936   13.5458   -6.3664 C   0  0  0  0  0  0  0  0  0  0  0  0
   -2.7885   13.5288   -6.3742 N   0  0  0  0  0  0  0  0  0  0  0  0
   -2.3831   12.3683   -6.8823 N   0  0  0  0  0  0  0  0  0  0  0  0
   -0.9539   12.1016   -6.9897 C   0  0  0  0  0  0  0  0  0  0  0  0
   -6.0597   12.2849   -9.8771 H   0  0  0  0  0  0  0  0  0  0  0  0
   -8.1927   10.1256  -13.8924 H   0  0  0  0  0  0  0  0  0  0  0  0
   -7.6938   12.5312  -13.5268 H   0  0  0  0  0  0  0  0  0  0  0  0
   -6.1994   11.5912  -13.8580 H   0  0  0  0  0  0  0  0  0  0  0  0
   -8.0161    9.5818   -7.2548 H   0  0  0  0  0  0  0  0  0  0  0  0
   -4.1771   12.8456  -10.8951 H   0  0  0  0  0  0  0  0  0  0  0  0
   -2.5640   14.5209  -10.9247 H   0  0  0  0  0  0  0  0  0  0  0  0
   -3.0770   14.8334  -12.6175 H   0  0  0  0  0  0  0  0  0  0  0  0
   -3.9113   15.6608  -11.2589 H   0  0  0  0  0  0  0  0  0  0  0  0
   -6.7769   12.3203   -6.9046 H   0  0  0  0  0  0  0  0  0  0  0  0
   -2.6169    9.7197   -8.0459 H   0  0  0  0  0  0  0  0  0  0  0  0
   -4.8591    8.8345   -7.4800 H   0  0  0  0  0  0  0  0  0  0  0  0
   -4.8473    9.5673   -9.1200 H   0  0  0  0  0  0  0  0  0  0  0  0
   -4.6981   14.3639   -6.0034 H   0  0  0  0  0  0  0  0  0  0  0  0
   -0.3895   12.9643   -6.6059 H   0  0  0  0  0  0  0  0  0  0  0  0
   -0.7026   11.2076   -6.4002 H   0  0  0  0  0  0  0  0  0  0  0  0
   -0.6910   11.9314   -8.0442 H   0  0  0  0  0  0  0  0  0  0  0  0
  1  2  2  0  0  0  0
  1  4  1  0  0  0  0
  1 13  1  0  0  0  0
  2  6  1  0  0  0  0
  3  4  1  0  0  0  0
  3  5  2  0  0  0  0
  5  6  1  0  0  0  0
  5  9  1  0  0  0  0
  6  7  2  0  0  0  0
  7  8  1  0  0  0  0
  7 10  1  0  0  0  0
  8  9  2  0  0  0  0
 10 15  2  3  0  0  0
 11 12  1  0  0  0  0
 11 13  1  0  0  0  0
 13 14  2  0  0  0  0
 15 16  1  0  0  0  0
 15 20  1  0  0  0  0
 16 17  2  0  0  0  0
 17 18  1  0  0  0  0
 17 21  1  0  0  0  0
 18 19  2  0  0  0  0
 18 23  1  0  0  0  0
 19 20  1  0  0  0  0
 21 22  2  0  0  0  0
 22 23  1  0  0  0  0
 23 24  1  0  0  0  0
  2 25  1  0  0  0  0
  3 26  1  0  0  0  0
  4 27  1  0  0  0  0
  4 28  1  0  0  0  0
 10 29  1  0  0  0  0
 11 30  1  0  0  0  0
 12 31  1  0  0  0  0
 12 32  1  0  0  0  0
 12 33  1  0  0  0  0
 16 34  1  0  0  0  0
 19 35  1  0  0  0  0
 20 36  1  0  0  0  0
 20 37  1  0  0  0  0
 21 38  1  0  0  0  0
 24 39  1  0  0  0  0
 24 40  1  0  0  0  0
 24 41  1  0  0  0  0
M  END
> <Name>
18

> <IC50[uM]>
0.01

$$$$
18
  -OEChem-05192314333D
 Structure written by MMmdl.
 41 44  0     0  0  0  0  0  0999 V2000
   -6.3808   12.3686  -12.0119 C   0  0  0  0  0  0  0  0  0  0  0  0
   -6.5112   11.8116  -10.7365 C   0  0  0  0  0  0  0  0  0  0  0  0
   -7.7301   10.5824  -13.0300 C   0  0  0  0  0  0  0  0  0  0  0  0
   -6.9992   11.7782  -13.1263 C   0  0  0  0  0  0  0  0  0  0  0  0
   -7.8250   10.0166  -11.7542 C   0  0  0  0  0  0  0  0  0  0  0  0
   -7.2407   10.6266  -10.6010 C   0  0  0  0  0  0  0  0  0  0  0  0
   -7.6094    9.7513   -9.5103 C   0  0  0  0  0  0  0  0  0  0  0  0
   -8.2849    8.7404   -9.9846 N   0  0  0  0  0  0  0  0  0  0  0  0
   -8.4192    8.8674  -11.2983 N   0  0  0  0  0  0  0  0  0  0  0  0
   -7.3225    9.8872   -8.0242 C   0  0  0  0  0  0  0  0  0  0  0  0
   -4.3834   13.6199  -11.4933 N   0  0  0  0  0  0  0  0  0  0  0  0
   -3.4237   14.7282  -11.5789 C   0  0  0  0  0  0  0  0  0  0  0  0
   -5.5369   13.6139  -12.1980 C   0  0  0  0  0  0  0  0  0  0  0  0
   -5.8771   14.5161  -12.9653 O   0  0  0  0  0  0  0  0  0  0  0  0
   -5.9516   10.5005   -7.7272 C   0  0  0  0  0  0  0  0  0  0  0  0
   -5.8803   11.7722   -7.1539 C   0  0  0  0  0  0  0  0  0  0  0  0
   -4.6129   12.3159   -6.9118 C   0  0  0  0  0  0  0  0  0  0  0  0
   -3.4418   11.5625   -7.2429 C   0  0  0  0  0  0  0  0  0  0  0  0
   -3.5059   10.2842   -7.8062 C   0  0  0  0  0  0  0  0  0  0  0  0
   -4.7935    9.7780   -8.0417 C   0  0  0  0  0  0  0  0  0  0  0  0
   -4.0936   13.5458   -6.3664 C   0  0  0  0  0  0  0  0  0  0  0  0
   -2.7885   13.5288   -6.3742 N   0  0  0  0  0  0  0  0  0  0  0  0
   -2.3831   12.3683   -6.8823 N   0  0  0  0  0  0  0  0  0  0  0  0
   -0.9539   12.1016   -6.9897 C   0  0  0  0  0  0  0  0  0  0  0  0
   -5.4959   11.6133  -10.3626 H   0  0  0  0  0  0  0  0  0  0  0  0
   -6.9955   12.5665  -10.0997 H   0  0  0  0  0  0  0  0  0  0  0  0
   -8.1927   10.1256  -13.8924 H   0  0  0  0  0  0  0  0  0  0  0  0
   -6.9098   12.2595  -14.0890 H   0  0  0  0  0  0  0  0  0  0  0  0
   -8.0161    9.5818   -7.2548 H   0  0  0  0  0  0  0  0  0  0  0  0
   -4.1771   12.8456  -10.8951 H   0  0  0  0  0  0  0  0  0  0  0  0
   -2.5640   14.5209  -10.9247 H   0  0  0  0  0  0  0  0  0  0  0  0
   -3.0770   14.8334  -12.6175 H   0  0  0  0  0  0  0  0  0  0  0  0
   -3.9113   15.6608  -11.2589 H   0  0  0  0  0  0  0  0  0  0  0  0
   -6.7769   12.3203   -6.9046 H   0  0  0  0  0  0  0  0  0  0  0  0
   -2.6169    9.7197   -8.0459 H   0  0  0  0  0  0  0  0  0  0  0  0
   -4.8591    8.8345   -7.4800 H   0  0  0  0  0  0  0  0  0  0  0  0
   -4.8473    9.5673   -9.1200 H   0  0  0  0  0  0  0  0  0  0  0  0
   -4.6981   14.3639   -6.0034 H   0  0  0  0  0  0  0  0  0  0  0  0
   -0.3895   12.9643   -6.6059 H   0  0  0  0  0  0  0  0  0  0  0  0
   -0.7026   11.2076   -6.4002 H   0  0  0  0  0  0  0  0  0  0  0  0
   -0.6910   11.9314   -8.0442 H   0  0  0  0  0  0  0  0  0  0  0  0
  1  2  1  0  0  0  0
  1  4  2  0  0  0  0
  1 13  1  0  0  0  0
  2  6  1  0  0  0  0
  3  4  1  0  0  0  0
  3  5  2  0  0  0  0
  5  6  1  0  0  0  0
  5  9  1  0  0  0  0
  6  7  2  0  0  0  0
  7  8  1  0  0  0  0
  7 10  1  0  0  0  0
  8  9  2  0  0  0  0
 10 15  2  3  0  0  0
 11 12  1  0  0  0  0
 11 13  1  0  0  0  0
 13 14  2  0  0  0  0
 15 16  1  0  0  0  0
 15 20  1  0  0  0  0
 16 17  2  0  0  0  0
 17 18  1  0  0  0  0
 17 21  1  0  0  0  0
 18 19  2  0  0  0  0
 18 23  1  0  0  0  0
 19 20  1  0  0  0  0
 21 22  2  0  0  0  0
 22 23  1  0  0  0  0
 23 24  1  0  0  0  0
  2 25  1  0  0  0  0
  2 26  1  0  0  0  0
  3 27  1  0  0  0  0
  4 28  1  0  0  0  0
 10 29  1  0  0  0  0
 11 30  1  0  0  0  0
 12 31  1  0  0  0  0
 12 32  1  0  0  0  0
 12 33  1  0  0  0  0
 16 34  1  0  0  0  0
 19 35  1  0  0  0  0
 20 36  1  0  0  0  0
 20 37  1  0  0  0  0
 21 38  1  0  0  0  0
 24 39  1  0  0  0  0
 24 40  1  0  0  0  0
 24 41  1  0  0  0  0
M  END
> <Name>
18

> <IC50[uM]>
0.01

$$$$
18
  -OEChem-05192314333D
 Structure written by MMmdl.
 41 44  0     1  0  0  0  0  0999 V2000
   -6.3808   12.3686  -12.0119 C   0  0  0  0  0  0  0  0  0  0  0  0
   -6.5112   11.8116  -10.7365 C   0  0  0  0  0  0  0  0  0  0  0  0
   -7.7301   10.5824  -13.0300 C   0  0  0  0  0  0  0  0  0  0  0  0
   -6.9992   11.7782  -13.1263 C   0  0  0  0  0  0  0  0  0  0  0  0
   -7.8250   10.0166  -11.7542 C   0  0  3  0  0  0  0  0  0  0  0  0
   -7.2407   10.6266  -10.6010 C   0  0  0  0  0  0  0  0  0  0  0  0
   -7.6094    9.7513   -9.5103 C   0  0  0  0  0  0  0  0  0  0  0  0
   -8.2849    8.7404   -9.9846 N   0  0  0  0  0  0  0  0  0  0  0  0
   -8.4192    8.8674  -11.2983 N   0  0  0  0  0  0  0  0  0  0  0  0
   -7.3225    9.8872   -8.0242 C   0  0  0  0  0  0  0  0  0  0  0  0
   -4.3834   13.6199  -11.4933 N   0  0  0  0  0  0  0  0  0  0  0  0
   -3.4237   14.7282  -11.5789 C   0  0  0  0  0  0  0  0  0  0  0  0
   -5.5369   13.6139  -12.1980 C   0  0  0  0  0  0  0  0  0  0  0  0
   -5.8771   14.5161  -12.9653 O   0  0  0  0  0  0  0  0  0  0  0  0
   -5.9516   10.5005   -7.7272 C   0  0  0  0  0  0  0  0  0  0  0  0
   -5.8803   11.7722   -7.1539 C   0  0  0  0  0  0  0  0  0  0  0  0
   -4.6129   12.3159   -6.9118 C   0  0  0  0  0  0  0  0  0  0  0  0
   -3.4418   11.5625   -7.2429 C   0  0  0  0  0  0  0  0  0  0  0  0
   -3.5059   10.2842   -7.8062 C   0  0  0  0  0  0  0  0  0  0  0  0
   -4.7935    9.7780   -8.0417 C   0  0  0  0  0  0  0  0  0  0  0  0
   -4.0936   13.5458   -6.3664 C   0  0  0  0  0  0  0  0  0  0  0  0
   -2.7885   13.5288   -6.3742 N   0  0  0  0  0  0  0  0  0  0  0  0
   -2.3831   12.3683   -6.8823 N   0  0  0  0  0  0  0  0  0  0  0  0
   -0.9539   12.1016   -6.9897 C   0  0  0  0  0  0  0  0  0  0  0  0
   -6.0597   12.2849   -9.8771 H   0  0  0  0  0  0  0  0  0  0  0  0
   -8.1927   10.1256  -13.8924 H   0  0  0  0  0  0  0  0  0  0  0  0
   -6.9098   12.2595  -14.0890 H   0  0  0  0  0  0  0  0  0  0  0  0
   -8.7581   10.5712  -11.5763 H   0  0  0  0  0  0  0  0  0  0  0  0
   -8.0161    9.5818   -7.2548 H   0  0  0  0  0  0  0  0  0  0  0  0
   -2.5640   14.5209  -10.9247 H   0  0  0  0  0  0  0  0  0  0  0  0
   -3.0770   14.8334  -12.6175 H   0  0  0  0  0  0  0  0  0  0  0  0
   -3.9113   15.6608  -11.2589 H   0  0  0  0  0  0  0  0  0  0  0  0
   -5.2270   15.2086  -12.9486 H   0  0  0  0  0  0  0  0  0  0  0  0
   -6.7769   12.3203   -6.9046 H   0  0  0  0  0  0  0  0  0  0  0  0
   -2.6169    9.7197   -8.0459 H   0  0  0  0  0  0  0  0  0  0  0  0
   -4.8591    8.8345   -7.4800 H   0  0  0  0  0  0  0  0  0  0  0  0
   -4.8473    9.5673   -9.1200 H   0  0  0  0  0  0  0  0  0  0  0  0
   -4.6981   14.3639   -6.0034 H   0  0  0  0  0  0  0  0  0  0  0  0
   -0.3895   12.9643   -6.6059 H   0  0  0  0  0  0  0  0  0  0  0  0
   -0.7026   11.2076   -6.4002 H   0  0  0  0  0  0  0  0  0  0  0  0
   -0.6910   11.9314   -8.0442 H   0  0  0  0  0  0  0  0  0  0  0  0
  1  2  2  0  0  0  0
  1  4  1  0  0  0  0
  1 13  1  0  0  0  0
  2  6  1  0  0  0  0
  3  4  2  0  0  0  0
  3  5  1  0  0  0  0
  5  6  1  0  0  0  0
  5  9  1  0  0  0  0
  6  7  2  0  0  0  0
  7  8  1  0  0  0  0
  7 10  1  0  0  0  0
  8  9  2  0  0  0  0
 10 15  2  3  0  0  0
 11 12  1  0  0  0  0
 11 13  2  0  0  0  0
 13 14  1  0  0  0  0
 15 16  1  0  0  0  0
 15 20  1  0  0  0  0
 16 17  2  0  0  0  0
 17 18  1  0  0  0  0
 17 21  1  0  0  0  0
 18 19  2  0  0  0  0
 18 23  1  0  0  0  0
 19 20  1  0  0  0  0
 21 22  2  0  0  0  0
 22 23  1  0  0  0  0
 23 24  1  0  0  0  0
  2 25  1  0  0  0  0
  3 26  1  0  0  0  0
  4 27  1  0  0  0  0
  5 28  1  0  0  0  0
 10 29  1  0  0  0  0
 12 30  1  0  0  0  0
 12 31  1  0  0  0  0
 12 32  1  0  0  0  0
 14 33  1  0  0  0  0
 16 34  1  0  0  0  0
 19 35  1  0  0  0  0
 20 36  1  0  0  0  0
 20 37  1  0  0  0  0
 21 38  1  0  0  0  0
 24 39  1  0  0  0  0
 24 40  1  0  0  0  0
 24 41  1  0  0  0  0
M  END
> <Name>
18

> <IC50[uM]>
0.01

$$$$
18
  -OEChem-05192314333D
 Structure written by MMmdl.
 41 44  0     0  0  0  0  0  0999 V2000
   -6.3808   12.3686  -12.0119 C   0  0  0  0  0  0  0  0  0  0  0  0
   -6.5112   11.8116  -10.7365 C   0  0  0  0  0  0  0  0  0  0  0  0
   -7.7301   10.5824  -13.0300 C   0  0  0  0  0  0  0  0  0  0  0  0
   -6.9992   11.7782  -13.1263 C   0  0  0  0  0  0  0  0  0  0  0  0
   -7.8250   10.0166  -11.7542 C   0  0  0  0  0  0  0  0  0  0  0  0
   -7.2407   10.6266  -10.6010 C   0  0  0  0  0  0  0  0  0  0  0  0
   -7.6094    9.7513   -9.5103 C   0  0  0  0  0  0  0  0  0  0  0  0
   -8.2849    8.7404   -9.9846 N   0  0  0  0  0  0  0  0  0  0  0  0
   -8.4192    8.8674  -11.2983 N   0  0  0  0  0  0  0  0  0  0  0  0
   -7.3225    9.8872   -8.0242 C   0  0  0  0  0  0  0  0  0  0  0  0
   -4.3834   13.6199  -11.4933 N   0  0  0  0  0  0  0  0  0  0  0  0
   -3.4237   14.7282  -11.5789 C   0  0  0  0  0  0  0  0  0  0  0  0
   -5.5369   13.6139  -12.1980 C   0  0  0  0  0  0  0  0  0  0  0  0
   -5.8771   14.5161  -12.9653 O   0  0  0  0  0  0  0  0  0  0  0  0
   -5.9516   10.5005   -7.7272 C   0  0  0  0  0  0  0  0  0  0  0  0
   -5.8803   11.7722   -7.1539 C   0  0  0  0  0  0  0  0  0  0  0  0
   -4.6129   12.3159   -6.9118 C   0  0  0  0  0  0  0  0  0  0  0  0
   -3.4418   11.5625   -7.2429 C   0  0  0  0  0  0  0  0  0  0  0  0
   -3.5059   10.2842   -7.8062 C   0  0  0  0  0  0  0  0  0  0  0  0
   -4.7935    9.7780   -8.0417 C   0  0  0  0  0  0  0  0  0  0  0  0
   -4.0936   13.5458   -6.3664 C   0  0  0  0  0  0  0  0  0  0  0  0
   -2.7885   13.5288   -6.3742 N   0  0  0  0  0  0  0  0  0  0  0  0
   -2.3831   12.3683   -6.8823 N   0  0  0  0  0  0  0  0  0  0  0  0
   -0.9539   12.1016   -6.9897 C   0  0  0  0  0  0  0  0  0  0  0  0
   -6.0597   12.2849   -9.8771 H   0  0  0  0  0  0  0  0  0  0  0  0
   -8.1927   10.1256  -13.8924 H   0  0  0  0  0  0  0  0  0  0  0  0
   -7.6938   12.5312  -13.5268 H   0  0  0  0  0  0  0  0  0  0  0  0
   -6.1994   11.5912  -13.8580 H   0  0  0  0  0  0  0  0  0  0  0  0
   -8.0161    9.5818   -7.2548 H   0  0  0  0  0  0  0  0  0  0  0  0
   -2.5640   14.5209  -10.9247 H   0  0  0  0  0  0  0  0  0  0  0  0
   -3.0770   14.8334  -12.6175 H   0  0  0  0  0  0  0  0  0  0  0  0
   -3.9113   15.6608  -11.2589 H   0  0  0  0  0  0  0  0  0  0  0  0
   -5.2270   15.2086  -12.9486 H   0  0  0  0  0  0  0  0  0  0  0  0
   -6.7769   12.3203   -6.9046 H   0  0  0  0  0  0  0  0  0  0  0  0
   -2.6169    9.7197   -8.0459 H   0  0  0  0  0  0  0  0  0  0  0  0
   -4.8591    8.8345   -7.4800 H   0  0  0  0  0  0  0  0  0  0  0  0
   -4.8473    9.5673   -9.1200 H   0  0  0  0  0  0  0  0  0  0  0  0
   -4.6981   14.3639   -6.0034 H   0  0  0  0  0  0  0  0  0  0  0  0
   -0.3895   12.9643   -6.6059 H   0  0  0  0  0  0  0  0  0  0  0  0
   -0.7026   11.2076   -6.4002 H   0  0  0  0  0  0  0  0  0  0  0  0
   -0.6910   11.9314   -8.0442 H   0  0  0  0  0  0  0  0  0  0  0  0
  1  2  2  0  0  0  0
  1  4  1  0  0  0  0
  1 13  1  0  0  0  0
  2  6  1  0  0  0  0
  3  4  1  0  0  0  0
  3  5  2  0  0  0  0
  5  6  1  0  0  0  0
  5  9  1  0  0  0  0
  6  7  2  0  0  0  0
  7  8  1  0  0  0  0
  7 10  1  0  0  0  0
  8  9  2  0  0  0  0
 10 15  2  3  0  0  0
 11 12  1  0  0  0  0
 11 13  2  0  0  0  0
 13 14  1  0  0  0  0
 15 16  1  0  0  0  0
 15 20  1  0  0  0  0
 16 17  2  0  0  0  0
 17 18  1  0  0  0  0
 17 21  1  0  0  0  0
 18 19  2  0  0  0  0
 18 23  1  0  0  0  0
 19 20  1  0  0  0  0
 21 22  2  0  0  0  0
 22 23  1  0  0  0  0
 23 24  1  0  0  0  0
  2 25  1  0  0  0  0
  3 26  1  0  0  0  0
  4 27  1  0  0  0  0
  4 28  1  0  0  0  0
 10 29  1  0  0  0  0
 12 30  1  0  0  0  0
 12 31  1  0  0  0  0
 12 32  1  0  0  0  0
 14 33  1  0  0  0  0
 16 34  1  0  0  0  0
 19 35  1  0  0  0  0
 20 36  1  0  0  0  0
 20 37  1  0  0  0  0
 21 38  1  0  0  0  0
 24 39  1  0  0  0  0
 24 40  1  0  0  0  0
 24 41  1  0  0  0  0
M  END
> <Name>
18

> <IC50[uM]>
0.01

$$$$
18
  -OEChem-05192314333D
 Structure written by MMmdl.
 41 44  0     0  0  0  0  0  0999 V2000
   -6.3808   12.3686  -12.0119 C   0  0  0  0  0  0  0  0  0  0  0  0
   -6.5112   11.8116  -10.7365 C   0  0  0  0  0  0  0  0  0  0  0  0
   -7.7301   10.5824  -13.0300 C   0  0  0  0  0  0  0  0  0  0  0  0
   -6.9992   11.7782  -13.1263 C   0  0  0  0  0  0  0  0  0  0  0  0
   -7.8250   10.0166  -11.7542 C   0  0  0  0  0  0  0  0  0  0  0  0
   -7.2407   10.6266  -10.6010 C   0  0  0  0  0  0  0  0  0  0  0  0
   -7.6094    9.7513   -9.5103 C   0  0  0  0  0  0  0  0  0  0  0  0
   -8.2849    8.7404   -9.9846 N   0  0  0  0  0  0  0  0  0  0  0  0
   -8.4192    8.8674  -11.2983 N   0  0  0  0  0  0  0  0  0  0  0  0
   -7.3225    9.8872   -8.0242 C   0  0  0  0  0  0  0  0  0  0  0  0
   -4.3834   13.6199  -11.4933 N   0  0  0  0  0  0  0  0  0  0  0  0
   -3.4237   14.7282  -11.5789 C   0  0  0  0  0  0  0  0  0  0  0  0
   -5.5369   13.6139  -12.1980 C   0  0  0  0  0  0  0  0  0  0  0  0
   -5.8771   14.5161  -12.9653 O   0  0  0  0  0  0  0  0  0  0  0  0
   -5.9516   10.5005   -7.7272 C   0  0  0  0  0  0  0  0  0  0  0  0
   -5.8803   11.7722   -7.1539 C   0  0  0  0  0  0  0  0  0  0  0  0
   -4.6129   12.3159   -6.9118 C   0  0  0  0  0  0  0  0  0  0  0  0
   -3.4418   11.5625   -7.2429 C   0  0  0  0  0  0  0  0  0  0  0  0
   -3.5059   10.2842   -7.8062 C   0  0  0  0  0  0  0  0  0  0  0  0
   -4.7935    9.7780   -8.0417 C   0  0  0  0  0  0  0  0  0  0  0  0
   -4.0936   13.5458   -6.3664 C   0  0  0  0  0  0  0  0  0  0  0  0
   -2.7885   13.5288   -6.3742 N   0  0  0  0  0  0  0  0  0  0  0  0
   -2.3831   12.3683   -6.8823 N   0  0  0  0  0  0  0  0  0  0  0  0
   -0.9539   12.1016   -6.9897 C   0  0  0  0  0  0  0  0  0  0  0  0
   -5.4959   11.6133  -10.3626 H   0  0  0  0  0  0  0  0  0  0  0  0
   -6.9955   12.5665  -10.0997 H   0  0  0  0  0  0  0  0  0  0  0  0
   -8.1927   10.1256  -13.8924 H   0  0  0  0  0  0  0  0  0  0  0  0
   -6.9098   12.2595  -14.0890 H   0  0  0  0  0  0  0  0  0  0  0  0
   -8.0161    9.5818   -7.2548 H   0  0  0  0  0  0  0  0  0  0  0  0
   -2.5640   14.5209  -10.9247 H   0  0  0  0  0  0  0  0  0  0  0  0
   -3.0770   14.8334  -12.6175 H   0  0  0  0  0  0  0  0  0  0  0  0
   -3.9113   15.6608  -11.2589 H   0  0  0  0  0  0  0  0  0  0  0  0
   -5.2270   15.2086  -12.9486 H   0  0  0  0  0  0  0  0  0  0  0  0
   -6.7769   12.3203   -6.9046 H   0  0  0  0  0  0  0  0  0  0  0  0
   -2.6169    9.7197   -8.0459 H   0  0  0  0  0  0  0  0  0  0  0  0
   -4.8591    8.8345   -7.4800 H   0  0  0  0  0  0  0  0  0  0  0  0
   -4.8473    9.5673   -9.1200 H   0  0  0  0  0  0  0  0  0  0  0  0
   -4.6981   14.3639   -6.0034 H   0  0  0  0  0  0  0  0  0  0  0  0
   -0.3895   12.9643   -6.6059 H   0  0  0  0  0  0  0  0  0  0  0  0
   -0.7026   11.2076   -6.4002 H   0  0  0  0  0  0  0  0  0  0  0  0
   -0.6910   11.9314   -8.0442 H   0  0  0  0  0  0  0  0  0  0  0  0
  1  2  1  0  0  0  0
  1  4  2  0  0  0  0
  1 13  1  0  0  0  0
  2  6  1  0  0  0  0
  3  4  1  0  0  0  0
  3  5  2  0  0  0  0
  5  6  1  0  0  0  0
  5  9  1  0  0  0  0
  6  7  2  0  0  0  0
  7  8  1  0  0  0  0
  7 10  1  0  0  0  0
  8  9  2  0  0  0  0
 10 15  2  3  0  0  0
 11 12  1  0  0  0  0
 11 13  2  0  0  0  0
 13 14  1  0  0  0  0
 15 16  1  0  0  0  0
 15 20  1  0  0  0  0
 16 17  2  0  0  0  0
 17 18  1  0  0  0  0
 17 21  1  0  0  0  0
 18 19  2  0  0  0  0
 18 23  1  0  0  0  0
 19 20  1  0  0  0  0
 21 22  2  0  0  0  0
 22 23  1  0  0  0  0
 23 24  1  0  0  0  0
  2 25  1  0  0  0  0
  2 26  1  0  0  0  0
  3 27  1  0  0  0  0
  4 28  1  0  0  0  0
 10 29  1  0  0  0  0
 12 30  1  0  0  0  0
 12 31  1  0  0  0  0
 12 32  1  0  0  0  0
 14 33  1  0  0  0  0
 16 34  1  0  0  0  0
 19 35  1  0  0  0  0
 20 36  1  0  0  0  0
 20 37  1  0  0  0  0
 21 38  1  0  0  0  0
 24 39  1  0  0  0  0
 24 40  1  0  0  0  0
 24 41  1  0  0  0  0
M  END
> <Name>
18

> <IC50[uM]>
0.01

$$$$
18
  -OEChem-05192314333D
 Structure written by MMmdl.
 41 44  0     1  0  0  0  0  0999 V2000
   -6.3808   12.3686  -12.0119 C   0  0  3  0  0  0  0  0  0  0  0  0
   -6.5112   11.8116  -10.7365 C   0  0  0  0  0  0  0  0  0  0  0  0
   -7.7301   10.5824  -13.0300 C   0  0  0  0  0  0  0  0  0  0  0  0
   -6.9992   11.7782  -13.1263 C   0  0  0  0  0  0  0  0  0  0  0  0
   -7.8250   10.0166  -11.7542 C   0  0  0  0  0  0  0  0  0  0  0  0
   -7.2407   10.6266  -10.6010 C   0  0  0  0  0  0  0  0  0  0  0  0
   -7.6094    9.7513   -9.5103 C   0  0  0  0  0  0  0  0  0  0  0  0
   -8.2849    8.7404   -9.9846 N   0  0  0  0  0  0  0  0  0  0  0  0
   -8.4192    8.8674  -11.2983 N   0  0  0  0  0  0  0  0  0  0  0  0
   -7.3225    9.8872   -8.0242 C   0  0  0  0  0  0  0  0  0  0  0  0
   -4.3834   13.6199  -11.4933 N   0  0  0  0  0  0  0  0  0  0  0  0
   -3.4237   14.7282  -11.5789 C   0  0  0  0  0  0  0  0  0  0  0  0
   -5.5369   13.6139  -12.1980 C   0  0  0  0  0  0  0  0  0  0  0  0
   -5.8771   14.5161  -12.9653 O   0  0  0  0  0  0  0  0  0  0  0  0
   -5.9516   10.5005   -7.7272 C   0  0  0  0  0  0  0  0  0  0  0  0
   -5.8803   11.7722   -7.1539 C   0  0  0  0  0  0  0  0  0  0  0  0
   -4.6129   12.3159   -6.9118 C   0  0  0  0  0  0  0  0  0  0  0  0
   -3.4418   11.5625   -7.2429 C   0  0  3  0  0  0  0  0  0  0  0  0
   -3.5059   10.2842   -7.8062 C   0  0  0  0  0  0  0  0  0  0  0  0
   -4.7935    9.7780   -8.0417 C   0  0  0  0  0  0  0  0  0  0  0  0
   -4.0936   13.5458   -6.3664 C   0  0  0  0  0  0  0  0  0  0  0  0
   -2.7885   13.5288   -6.3742 N   0  0  0  0  0  0  0  0  0  0  0  0
   -2.3831   12.3683   -6.8823 N   0  0  3  0  0  0  0  0  0  0  0  0
   -0.9539   12.1016   -6.9897 C   0  0  0  0  0  0  0  0  0  0  0  0
   -7.2714   12.9905  -11.8387 H   0  0  0  0  0  0  0  0  0  0  0  0
   -6.0597   12.2849   -9.8771 H   0  0  0  0  0  0  0  0  0  0  0  0
   -8.1927   10.1256  -13.8924 H   0  0  0  0  0  0  0  0  0  0  0  0
   -6.9098   12.2595  -14.0890 H   0  0  0  0  0  0  0  0  0  0  0  0
   -8.0161    9.5818   -7.2548 H   0  0  0  0  0  0  0  0  0  0  0  0
   -4.1771   12.8456  -10.8951 H   0  0  0  0  0  0  0  0  0  0  0  0
   -2.5640   14.5209  -10.9247 H   0  0  0  0  0  0  0  0  0  0  0  0
   -3.0770   14.8334  -12.6175 H   0  0  0  0  0  0  0  0  0  0  0  0
   -3.9113   15.6608  -11.2589 H   0  0  0  0  0  0  0  0  0  0  0  0
   -6.7769   12.3203   -6.9046 H   0  0  0  0  0  0  0  0  0  0  0  0
   -3.4389   12.0070   -8.2491 H   0  0  0  0  0  0  0  0  0  0  0  0
   -2.6169    9.7197   -8.0459 H   0  0  0  0  0  0  0  0  0  0  0  0
   -4.8951    8.7966   -8.4810 H   0  0  0  0  0  0  0  0  0  0  0  0
   -4.6981   14.3639   -6.0034 H   0  0  0  0  0  0  0  0  0  0  0  0
   -0.3895   12.9643   -6.6059 H   0  0  0  0  0  0  0  0  0  0  0  0
   -0.7026   11.2076   -6.4002 H   0  0  0  0  0  0  0  0  0  0  0  0
   -0.6910   11.9314   -8.0442 H   0  0  0  0  0  0  0  0  0  0  0  0
  1  2  1  0  0  0  0
  1  4  1  0  0  0  0
  1 13  1  0  0  0  0
  2  6  2  0  0  0  0
  3  4  2  0  0  0  0
  3  5  1  0  0  0  0
  5  6  1  0  0  0  0
  5  9  2  0  0  0  0
  6  7  1  0  0  0  0
  7  8  2  0  0  0  0
  7 10  1  0  0  0  0
  8  9  1  0  0  0  0
 10 15  2  3  0  0  0
 11 12  1  0  0  0  0
 11 13  1  0  0  0  0
 13 14  2  0  0  0  0
 15 16  1  0  0  0  0
 15 20  1  0  0  0  0
 16 17  2  0  0  0  0
 17 18  1  0  0  0  0
 17 21  1  0  0  0  0
 18 19  1  0  0  0  0
 18 23  1  0  0  0  0
 19 20  2  0  0  0  0
 21 22  2  0  0  0  0
 22 23  1  0  0  0  0
 23 24  1  0  0  0  0
  1 25  1  0  0  0  0
  2 26  1  0  0  0  0
  3 27  1  0  0  0  0
  4 28  1  0  0  0  0
 10 29  1  0  0  0  0
 11 30  1  0  0  0  0
 12 31  1  0  0  0  0
 12 32  1  0  0  0  0
 12 33  1  0  0  0  0
 16 34  1  0  0  0  0
 18 35  1  0  0  0  0
 19 36  1  0  0  0  0
 20 37  1  0  0  0  0
 21 38  1  0  0  0  0
 24 39  1  0  0  0  0
 24 40  1  0  0  0  0
 24 41  1  0  0  0  0
M  END
> <Name>
18

> <IC50[uM]>
0.01

$$$$
18
  -OEChem-05192314333D
 Structure written by MMmdl.
 41 44  0     1  0  0  0  0  0999 V2000
   -6.3808   12.3686  -12.0119 C   0  0  0  0  0  0  0  0  0  0  0  0
   -6.5112   11.8116  -10.7365 C   0  0  0  0  0  0  0  0  0  0  0  0
   -7.7301   10.5824  -13.0300 C   0  0  0  0  0  0  0  0  0  0  0  0
   -6.9992   11.7782  -13.1263 C   0  0  0  0  0  0  0  0  0  0  0  0
   -7.8250   10.0166  -11.7542 C   0  0  0  0  0  0  0  0  0  0  0  0
   -7.2407   10.6266  -10.6010 C   0  0  3  0  0  0  0  0  0  0  0  0
   -7.6094    9.7513   -9.5103 C   0  0  0  0  0  0  0  0  0  0  0  0
   -8.2849    8.7404   -9.9846 N   0  0  0  0  0  0  0  0  0  0  0  0
   -8.4192    8.8674  -11.2983 N   0  0  0  0  0  0  0  0  0  0  0  0
   -7.3225    9.8872   -8.0242 C   0  0  0  0  0  0  0  0  0  0  0  0
   -4.3834   13.6199  -11.4933 N   0  0  0  0  0  0  0  0  0  0  0  0
   -3.4237   14.7282  -11.5789 C   0  0  0  0  0  0  0  0  0  0  0  0
   -5.5369   13.6139  -12.1980 C   0  0  0  0  0  0  0  0  0  0  0  0
   -5.8771   14.5161  -12.9653 O   0  0  0  0  0  0  0  0  0  0  0  0
   -5.9516   10.5005   -7.7272 C   0  0  0  0  0  0  0  0  0  0  0  0
   -5.8803   11.7722   -7.1539 C   0  0  0  0  0  0  0  0  0  0  0  0
   -4.6129   12.3159   -6.9118 C   0  0  0  0  0  0  0  0  0  0  0  0
   -3.4418   11.5625   -7.2429 C   0  0  3  0  0  0  0  0  0  0  0  0
   -3.5059   10.2842   -7.8062 C   0  0  0  0  0  0  0  0  0  0  0  0
   -4.7935    9.7780   -8.0417 C   0  0  0  0  0  0  0  0  0  0  0  0
   -4.0936   13.5458   -6.3664 C   0  0  0  0  0  0  0  0  0  0  0  0
   -2.7885   13.5288   -6.3742 N   0  0  0  0  0  0  0  0  0  0  0  0
   -2.3831   12.3683   -6.8823 N   0  0  3  0  0  0  0  0  0  0  0  0
   -0.9539   12.1016   -6.9897 C   0  0  0  0  0  0  0  0  0  0  0  0
   -6.0597   12.2849   -9.8771 H   0  0  0  0  0  0  0  0  0  0  0  0
   -8.1927   10.1256  -13.8924 H   0  0  0  0  0  0  0  0  0  0  0  0
   -6.9098   12.2595  -14.0890 H   0  0  0  0  0  0  0  0  0  0  0  0
   -8.1598   11.2101  -10.4437 H   0  0  0  0  0  0  0  0  0  0  0  0
   -8.0161    9.5818   -7.2548 H   0  0  0  0  0  0  0  0  0  0  0  0
   -4.1771   12.8456  -10.8951 H   0  0  0  0  0  0  0  0  0  0  0  0
   -2.5640   14.5209  -10.9247 H   0  0  0  0  0  0  0  0  0  0  0  0
   -3.0770   14.8334  -12.6175 H   0  0  0  0  0  0  0  0  0  0  0  0
   -3.9113   15.6608  -11.2589 H   0  0  0  0  0  0  0  0  0  0  0  0
   -6.7769   12.3203   -6.9046 H   0  0  0  0  0  0  0  0  0  0  0  0
   -3.4389   12.0070   -8.2491 H   0  0  0  0  0  0  0  0  0  0  0  0
   -2.6169    9.7197   -8.0459 H   0  0  0  0  0  0  0  0  0  0  0  0
   -4.8951    8.7966   -8.4810 H   0  0  0  0  0  0  0  0  0  0  0  0
   -4.6981   14.3639   -6.0034 H   0  0  0  0  0  0  0  0  0  0  0  0
   -0.3895   12.9643   -6.6059 H   0  0  0  0  0  0  0  0  0  0  0  0
   -0.7026   11.2076   -6.4002 H   0  0  0  0  0  0  0  0  0  0  0  0
   -0.6910   11.9314   -8.0442 H   0  0  0  0  0  0  0  0  0  0  0  0
  1  2  2  0  0  0  0
  1  4  1  0  0  0  0
  1 13  1  0  0  0  0
  2  6  1  0  0  0  0
  3  4  2  0  0  0  0
  3  5  1  0  0  0  0
  5  6  1  0  0  0  0
  5  9  2  0  0  0  0
  6  7  1  0  0  0  0
  7  8  2  0  0  0  0
  7 10  1  0  0  0  0
  8  9  1  0  0  0  0
 10 15  2  3  0  0  0
 11 12  1  0  0  0  0
 11 13  1  0  0  0  0
 13 14  2  0  0  0  0
 15 16  1  0  0  0  0
 15 20  1  0  0  0  0
 16 17  2  0  0  0  0
 17 18  1  0  0  0  0
 17 21  1  0  0  0  0
 18 19  1  0  0  0  0
 18 23  1  0  0  0  0
 19 20  2  0  0  0  0
 21 22  2  0  0  0  0
 22 23  1  0  0  0  0
 23 24  1  0  0  0  0
  2 25  1  0  0  0  0
  3 26  1  0  0  0  0
  4 27  1  0  0  0  0
  6 28  1  0  0  0  0
 10 29  1  0  0  0  0
 11 30  1  0  0  0  0
 12 31  1  0  0  0  0
 12 32  1  0  0  0  0
 12 33  1  0  0  0  0
 16 34  1  0  0  0  0
 18 35  1  0  0  0  0
 19 36  1  0  0  0  0
 20 37  1  0  0  0  0
 21 38  1  0  0  0  0
 24 39  1  0  0  0  0
 24 40  1  0  0  0  0
 24 41  1  0  0  0  0
M  END
> <Name>
18

> <IC50[uM]>
0.01

$$$$
18
  -OEChem-05192314333D
 Structure written by MMmdl.
 41 44  0     1  0  0  0  0  0999 V2000
   -6.3808   12.3686  -12.0119 C   0  0  0  0  0  0  0  0  0  0  0  0
   -6.5112   11.8116  -10.7365 C   0  0  0  0  0  0  0  0  0  0  0  0
   -7.7301   10.5824  -13.0300 C   0  0  0  0  0  0  0  0  0  0  0  0
   -6.9992   11.7782  -13.1263 C   0  0  0  0  0  0  0  0  0  0  0  0
   -7.8250   10.0166  -11.7542 C   0  0  0  0  0  0  0  0  0  0  0  0
   -7.2407   10.6266  -10.6010 C   0  0  0  0  0  0  0  0  0  0  0  0
   -7.6094    9.7513   -9.5103 C   0  0  0  0  0  0  0  0  0  0  0  0
   -8.2849    8.7404   -9.9846 N   0  0  0  0  0  0  0  0  0  0  0  0
   -8.4192    8.8674  -11.2983 N   0  0  0  0  0  0  0  0  0  0  0  0
   -7.3225    9.8872   -8.0242 C   0  0  0  0  0  0  0  0  0  0  0  0
   -4.3834   13.6199  -11.4933 N   0  0  0  0  0  0  0  0  0  0  0  0
   -3.4237   14.7282  -11.5789 C   0  0  0  0  0  0  0  0  0  0  0  0
   -5.5369   13.6139  -12.1980 C   0  0  0  0  0  0  0  0  0  0  0  0
   -5.8771   14.5161  -12.9653 O   0  0  0  0  0  0  0  0  0  0  0  0
   -5.9516   10.5005   -7.7272 C   0  0  0  0  0  0  0  0  0  0  0  0
   -5.8803   11.7722   -7.1539 C   0  0  0  0  0  0  0  0  0  0  0  0
   -4.6129   12.3159   -6.9118 C   0  0  0  0  0  0  0  0  0  0  0  0
   -3.4418   11.5625   -7.2429 C   0  0  3  0  0  0  0  0  0  0  0  0
   -3.5059   10.2842   -7.8062 C   0  0  0  0  0  0  0  0  0  0  0  0
   -4.7935    9.7780   -8.0417 C   0  0  0  0  0  0  0  0  0  0  0  0
   -4.0936   13.5458   -6.3664 C   0  0  0  0  0  0  0  0  0  0  0  0
   -2.7885   13.5288   -6.3742 N   0  0  0  0  0  0  0  0  0  0  0  0
   -2.3831   12.3683   -6.8823 N   0  0  3  0  0  0  0  0  0  0  0  0
   -0.9539   12.1016   -6.9897 C   0  0  0  0  0  0  0  0  0  0  0  0
   -6.0597   12.2849   -9.8771 H   0  0  0  0  0  0  0  0  0  0  0  0
   -8.7517   10.7843  -13.3842 H   0  0  0  0  0  0  0  0  0  0  0  0
   -7.2525    9.8433  -13.6900 H   0  0  0  0  0  0  0  0  0  0  0  0
   -6.9098   12.2595  -14.0890 H   0  0  0  0  0  0  0  0  0  0  0  0
   -8.0161    9.5818   -7.2548 H   0  0  0  0  0  0  0  0  0  0  0  0
   -4.1771   12.8456  -10.8951 H   0  0  0  0  0  0  0  0  0  0  0  0
   -2.5640   14.5209  -10.9247 H   0  0  0  0  0  0  0  0  0  0  0  0
   -3.0770   14.8334  -12.6175 H   0  0  0  0  0  0  0  0  0  0  0  0
   -3.9113   15.6608  -11.2589 H   0  0  0  0  0  0  0  0  0  0  0  0
   -6.7769   12.3203   -6.9046 H   0  0  0  0  0  0  0  0  0  0  0  0
   -3.4389   12.0070   -8.2491 H   0  0  0  0  0  0  0  0  0  0  0  0
   -2.6169    9.7197   -8.0459 H   0  0  0  0  0  0  0  0  0  0  0  0
   -4.8951    8.7966   -8.4810 H   0  0  0  0  0  0  0  0  0  0  0  0
   -4.6981   14.3639   -6.0034 H   0  0  0  0  0  0  0  0  0  0  0  0
   -0.3895   12.9643   -6.6059 H   0  0  0  0  0  0  0  0  0  0  0  0
   -0.7026   11.2076   -6.4002 H   0  0  0  0  0  0  0  0  0  0  0  0
   -0.6910   11.9314   -8.0442 H   0  0  0  0  0  0  0  0  0  0  0  0
  1  2  1  0  0  0  0
  1  4  2  0  0  0  0
  1 13  1  0  0  0  0
  2  6  2  0  0  0  0
  3  4  1  0  0  0  0
  3  5  1  0  0  0  0
  5  6  1  0  0  0  0
  5  9  2  0  0  0  0
  6  7  1  0  0  0  0
  7  8  2  0  0  0  0
  7 10  1  0  0  0  0
  8  9  1  0  0  0  0
 10 15  2  3  0  0  0
 11 12  1  0  0  0  0
 11 13  1  0  0  0  0
 13 14  2  0  0  0  0
 15 16  1  0  0  0  0
 15 20  1  0  0  0  0
 16 17  2  0  0  0  0
 17 18  1  0  0  0  0
 17 21  1  0  0  0  0
 18 19  1  0  0  0  0
 18 23  1  0  0  0  0
 19 20  2  0  0  0  0
 21 22  2  0  0  0  0
 22 23  1  0  0  0  0
 23 24  1  0  0  0  0
  2 25  1  0  0  0  0
  3 26  1  0  0  0  0
  3 27  1  0  0  0  0
  4 28  1  0  0  0  0
 10 29  1  0  0  0  0
 11 30  1  0  0  0  0
 12 31  1  0  0  0  0
 12 32  1  0  0  0  0
 12 33  1  0  0  0  0
 16 34  1  0  0  0  0
 18 35  1  0  0  0  0
 19 36  1  0  0  0  0
 20 37  1  0  0  0  0
 21 38  1  0  0  0  0
 24 39  1  0  0  0  0
 24 40  1  0  0  0  0
 24 41  1  0  0  0  0
M  END
> <Name>
18

> <IC50[uM]>
0.01

$$$$
18
  -OEChem-05192314333D
 Structure written by MMmdl.
 41 44  0     1  0  0  0  0  0999 V2000
   -6.3808   12.3686  -12.0119 C   0  0  3  0  0  0  0  0  0  0  0  0
   -6.5112   11.8116  -10.7365 C   0  0  0  0  0  0  0  0  0  0  0  0
   -7.7301   10.5824  -13.0300 C   0  0  0  0  0  0  0  0  0  0  0  0
   -6.9992   11.7782  -13.1263 C   0  0  0  0  0  0  0  0  0  0  0  0
   -7.8250   10.0166  -11.7542 C   0  0  0  0  0  0  0  0  0  0  0  0
   -7.2407   10.6266  -10.6010 C   0  0  0  0  0  0  0  0  0  0  0  0
   -7.6094    9.7513   -9.5103 C   0  0  0  0  0  0  0  0  0  0  0  0
   -8.2849    8.7404   -9.9846 N   0  0  0  0  0  0  0  0  0  0  0  0
   -8.4192    8.8674  -11.2983 N   0  0  0  0  0  0  0  0  0  0  0  0
   -7.3225    9.8872   -8.0242 C   0  0  0  0  0  0  0  0  0  0  0  0
   -4.3834   13.6199  -11.4933 N   0  0  0  0  0  0  0  0  0  0  0  0
   -3.4237   14.7282  -11.5789 C   0  0  0  0  0  0  0  0  0  0  0  0
   -5.5369   13.6139  -12.1980 C   0  0  0  0  0  0  0  0  0  0  0  0
   -5.8771   14.5161  -12.9653 O   0  0  0  0  0  0  0  0  0  0  0  0
   -5.9516   10.5005   -7.7272 C   0  0  0  0  0  0  0  0  0  0  0  0
   -5.8803   11.7722   -7.1539 C   0  0  0  0  0  0  0  0  0  0  0  0
   -4.6129   12.3159   -6.9118 C   0  0  0  0  0  0  0  0  0  0  0  0
   -3.4418   11.5625   -7.2429 C   0  0  3  0  0  0  0  0  0  0  0  0
   -3.5059   10.2842   -7.8062 C   0  0  0  0  0  0  0  0  0  0  0  0
   -4.7935    9.7780   -8.0417 C   0  0  0  0  0  0  0  0  0  0  0  0
   -4.0936   13.5458   -6.3664 C   0  0  0  0  0  0  0  0  0  0  0  0
   -2.7885   13.5288   -6.3742 N   0  0  0  0  0  0  0  0  0  0  0  0
   -2.3831   12.3683   -6.8823 N   0  0  3  0  0  0  0  0  0  0  0  0
   -0.9539   12.1016   -6.9897 C   0  0  0  0  0  0  0  0  0  0  0  0
   -7.2714   12.9905  -11.8387 H   0  0  0  0  0  0  0  0  0  0  0  0
   -6.0597   12.2849   -9.8771 H   0  0  0  0  0  0  0  0  0  0  0  0
   -8.1927   10.1256  -13.8924 H   0  0  0  0  0  0  0  0  0  0  0  0
   -6.9098   12.2595  -14.0890 H   0  0  0  0  0  0  0  0  0  0  0  0
   -8.0161    9.5818   -7.2548 H   0  0  0  0  0  0  0  0  0  0  0  0
   -2.5640   14.5209  -10.9247 H   0  0  0  0  0  0  0  0  0  0  0  0
   -3.0770   14.8334  -12.6175 H   0  0  0  0  0  0  0  0  0  0  0  0
   -3.9113   15.6608  -11.2589 H   0  0  0  0  0  0  0  0  0  0  0  0
   -5.2270   15.2086  -12.9486 H   0  0  0  0  0  0  0  0  0  0  0  0
   -6.7769   12.3203   -6.9046 H   0  0  0  0  0  0  0  0  0  0  0  0
   -3.4389   12.0070   -8.2491 H   0  0  0  0  0  0  0  0  0  0  0  0
   -2.6169    9.7197   -8.0459 H   0  0  0  0  0  0  0  0  0  0  0  0
   -4.8951    8.7966   -8.4810 H   0  0  0  0  0  0  0  0  0  0  0  0
   -4.6981   14.3639   -6.0034 H   0  0  0  0  0  0  0  0  0  0  0  0
   -0.3895   12.9643   -6.6059 H   0  0  0  0  0  0  0  0  0  0  0  0
   -0.7026   11.2076   -6.4002 H   0  0  0  0  0  0  0  0  0  0  0  0
   -0.6910   11.9314   -8.0442 H   0  0  0  0  0  0  0  0  0  0  0  0
  1  2  1  0  0  0  0
  1  4  1  0  0  0  0
  1 13  1  0  0  0  0
  2  6  2  0  0  0  0
  3  4  2  0  0  0  0
  3  5  1  0  0  0  0
  5  6  1  0  0  0  0
  5  9  2  0  0  0  0
  6  7  1  0  0  0  0
  7  8  2  0  0  0  0
  7 10  1  0  0  0  0
  8  9  1  0  0  0  0
 10 15  2  3  0  0  0
 11 12  1  0  0  0  0
 11 13  2  0  0  0  0
 13 14  1  0  0  0  0
 15 16  1  0  0  0  0
 15 20  1  0  0  0  0
 16 17  2  0  0  0  0
 17 18  1  0  0  0  0
 17 21  1  0  0  0  0
 18 19  1  0  0  0  0
 18 23  1  0  0  0  0
 19 20  2  0  0  0  0
 21 22  2  0  0  0  0
 22 23  1  0  0  0  0
 23 24  1  0  0  0  0
  1 25  1  0  0  0  0
  2 26  1  0  0  0  0
  3 27  1  0  0  0  0
  4 28  1  0  0  0  0
 10 29  1  0  0  0  0
 12 30  1  0  0  0  0
 12 31  1  0  0  0  0
 12 32  1  0  0  0  0
 14 33  1  0  0  0  0
 16 34  1  0  0  0  0
 18 35  1  0  0  0  0
 19 36  1  0  0  0  0
 20 37  1  0  0  0  0
 21 38  1  0  0  0  0
 24 39  1  0  0  0  0
 24 40  1  0  0  0  0
 24 41  1  0  0  0  0
M  END
> <Name>
18

> <IC50[uM]>
0.01

$$$$
18
  -OEChem-05192314333D
 Structure written by MMmdl.
 41 44  0     1  0  0  0  0  0999 V2000
   -6.3808   12.3686  -12.0119 C   0  0  0  0  0  0  0  0  0  0  0  0
   -6.5112   11.8116  -10.7365 C   0  0  0  0  0  0  0  0  0  0  0  0
   -7.7301   10.5824  -13.0300 C   0  0  0  0  0  0  0  0  0  0  0  0
   -6.9992   11.7782  -13.1263 C   0  0  0  0  0  0  0  0  0  0  0  0
   -7.8250   10.0166  -11.7542 C   0  0  0  0  0  0  0  0  0  0  0  0
   -7.2407   10.6266  -10.6010 C   0  0  3  0  0  0  0  0  0  0  0  0
   -7.6094    9.7513   -9.5103 C   0  0  0  0  0  0  0  0  0  0  0  0
   -8.2849    8.7404   -9.9846 N   0  0  0  0  0  0  0  0  0  0  0  0
   -8.4192    8.8674  -11.2983 N   0  0  0  0  0  0  0  0  0  0  0  0
   -7.3225    9.8872   -8.0242 C   0  0  0  0  0  0  0  0  0  0  0  0
   -4.3834   13.6199  -11.4933 N   0  0  0  0  0  0  0  0  0  0  0  0
   -3.4237   14.7282  -11.5789 C   0  0  0  0  0  0  0  0  0  0  0  0
   -5.5369   13.6139  -12.1980 C   0  0  0  0  0  0  0  0  0  0  0  0
   -5.8771   14.5161  -12.9653 O   0  0  0  0  0  0  0  0  0  0  0  0
   -5.9516   10.5005   -7.7272 C   0  0  0  0  0  0  0  0  0  0  0  0
   -5.8803   11.7722   -7.1539 C   0  0  0  0  0  0  0  0  0  0  0  0
   -4.6129   12.3159   -6.9118 C   0  0  0  0  0  0  0  0  0  0  0  0
   -3.4418   11.5625   -7.2429 C   0  0  3  0  0  0  0  0  0  0  0  0
   -3.5059   10.2842   -7.8062 C   0  0  0  0  0  0  0  0  0  0  0  0
   -4.7935    9.7780   -8.0417 C   0  0  0  0  0  0  0  0  0  0  0  0
   -4.0936   13.5458   -6.3664 C   0  0  0  0  0  0  0  0  0  0  0  0
   -2.7885   13.5288   -6.3742 N   0  0  0  0  0  0  0  0  0  0  0  0
   -2.3831   12.3683   -6.8823 N   0  0  3  0  0  0  0  0  0  0  0  0
   -0.9539   12.1016   -6.9897 C   0  0  0  0  0  0  0  0  0  0  0  0
   -6.0597   12.2849   -9.8771 H   0  0  0  0  0  0  0  0  0  0  0  0
   -8.1927   10.1256  -13.8924 H   0  0  0  0  0  0  0  0  0  0  0  0
   -6.9098   12.2595  -14.0890 H   0  0  0  0  0  0  0  0  0  0  0  0
   -8.1598   11.2101  -10.4437 H   0  0  0  0  0  0  0  0  0  0  0  0
   -8.0161    9.5818   -7.2548 H   0  0  0  0  0  0  0  0  0  0  0  0
   -2.5640   14.5209  -10.9247 H   0  0  0  0  0  0  0  0  0  0  0  0
   -3.0770   14.8334  -12.6175 H   0  0  0  0  0  0  0  0  0  0  0  0
   -3.9113   15.6608  -11.2589 H   0  0  0  0  0  0  0  0  0  0  0  0
   -5.2270   15.2086  -12.9486 H   0  0  0  0  0  0  0  0  0  0  0  0
   -6.7769   12.3203   -6.9046 H   0  0  0  0  0  0  0  0  0  0  0  0
   -3.4389   12.0070   -8.2491 H   0  0  0  0  0  0  0  0  0  0  0  0
   -2.6169    9.7197   -8.0459 H   0  0  0  0  0  0  0  0  0  0  0  0
   -4.8951    8.7966   -8.4810 H   0  0  0  0  0  0  0  0  0  0  0  0
   -4.6981   14.3639   -6.0034 H   0  0  0  0  0  0  0  0  0  0  0  0
   -0.3895   12.9643   -6.6059 H   0  0  0  0  0  0  0  0  0  0  0  0
   -0.7026   11.2076   -6.4002 H   0  0  0  0  0  0  0  0  0  0  0  0
   -0.6910   11.9314   -8.0442 H   0  0  0  0  0  0  0  0  0  0  0  0
  1  2  2  0  0  0  0
  1  4  1  0  0  0  0
  1 13  1  0  0  0  0
  2  6  1  0  0  0  0
  3  4  2  0  0  0  0
  3  5  1  0  0  0  0
  5  6  1  0  0  0  0
  5  9  2  0  0  0  0
  6  7  1  0  0  0  0
  7  8  2  0  0  0  0
  7 10  1  0  0  0  0
  8  9  1  0  0  0  0
 10 15  2  3  0  0  0
 11 12  1  0  0  0  0
 11 13  2  0  0  0  0
 13 14  1  0  0  0  0
 15 16  1  0  0  0  0
 15 20  1  0  0  0  0
 16 17  2  0  0  0  0
 17 18  1  0  0  0  0
 17 21  1  0  0  0  0
 18 19  1  0  0  0  0
 18 23  1  0  0  0  0
 19 20  2  0  0  0  0
 21 22  2  0  0  0  0
 22 23  1  0  0  0  0
 23 24  1  0  0  0  0
  2 25  1  0  0  0  0
  3 26  1  0  0  0  0
  4 27  1  0  0  0  0
  6 28  1  0  0  0  0
 10 29  1  0  0  0  0
 12 30  1  0  0  0  0
 12 31  1  0  0  0  0
 12 32  1  0  0  0  0
 14 33  1  0  0  0  0
 16 34  1  0  0  0  0
 18 35  1  0  0  0  0
 19 36  1  0  0  0  0
 20 37  1  0  0  0  0
 21 38  1  0  0  0  0
 24 39  1  0  0  0  0
 24 40  1  0  0  0  0
 24 41  1  0  0  0  0
M  END
> <Name>
18

> <IC50[uM]>
0.01

$$$$
18
  -OEChem-05192314333D
 Structure written by MMmdl.
 41 44  0     1  0  0  0  0  0999 V2000
   -6.3808   12.3686  -12.0119 C   0  0  0  0  0  0  0  0  0  0  0  0
   -6.5112   11.8116  -10.7365 C   0  0  0  0  0  0  0  0  0  0  0  0
   -7.7301   10.5824  -13.0300 C   0  0  0  0  0  0  0  0  0  0  0  0
   -6.9992   11.7782  -13.1263 C   0  0  0  0  0  0  0  0  0  0  0  0
   -7.8250   10.0166  -11.7542 C   0  0  0  0  0  0  0  0  0  0  0  0
   -7.2407   10.6266  -10.6010 C   0  0  0  0  0  0  0  0  0  0  0  0
   -7.6094    9.7513   -9.5103 C   0  0  0  0  0  0  0  0  0  0  0  0
   -8.2849    8.7404   -9.9846 N   0  0  0  0  0  0  0  0  0  0  0  0
   -8.4192    8.8674  -11.2983 N   0  0  0  0  0  0  0  0  0  0  0  0
   -7.3225    9.8872   -8.0242 C   0  0  0  0  0  0  0  0  0  0  0  0
   -4.3834   13.6199  -11.4933 N   0  0  0  0  0  0  0  0  0  0  0  0
   -3.4237   14.7282  -11.5789 C   0  0  0  0  0  0  0  0  0  0  0  0
   -5.5369   13.6139  -12.1980 C   0  0  0  0  0  0  0  0  0  0  0  0
   -5.8771   14.5161  -12.9653 O   0  0  0  0  0  0  0  0  0  0  0  0
   -5.9516   10.5005   -7.7272 C   0  0  0  0  0  0  0  0  0  0  0  0
   -5.8803   11.7722   -7.1539 C   0  0  0  0  0  0  0  0  0  0  0  0
   -4.6129   12.3159   -6.9118 C   0  0  0  0  0  0  0  0  0  0  0  0
   -3.4418   11.5625   -7.2429 C   0  0  3  0  0  0  0  0  0  0  0  0
   -3.5059   10.2842   -7.8062 C   0  0  0  0  0  0  0  0  0  0  0  0
   -4.7935    9.7780   -8.0417 C   0  0  0  0  0  0  0  0  0  0  0  0
   -4.0936   13.5458   -6.3664 C   0  0  0  0  0  0  0  0  0  0  0  0
   -2.7885   13.5288   -6.3742 N   0  0  0  0  0  0  0  0  0  0  0  0
   -2.3831   12.3683   -6.8823 N   0  0  3  0  0  0  0  0  0  0  0  0
   -0.9539   12.1016   -6.9897 C   0  0  0  0  0  0  0  0  0  0  0  0
   -6.0597   12.2849   -9.8771 H   0  0  0  0  0  0  0  0  0  0  0  0
   -8.7517   10.7843  -13.3842 H   0  0  0  0  0  0  0  0  0  0  0  0
   -7.2525    9.8433  -13.6900 H   0  0  0  0  0  0  0  0  0  0  0  0
   -6.9098   12.2595  -14.0890 H   0  0  0  0  0  0  0  0  0  0  0  0
   -8.0161    9.5818   -7.2548 H   0  0  0  0  0  0  0  0  0  0  0  0
   -2.5640   14.5209  -10.9247 H   0  0  0  0  0  0  0  0  0  0  0  0
   -3.0770   14.8334  -12.6175 H   0  0  0  0  0  0  0  0  0  0  0  0
   -3.9113   15.6608  -11.2589 H   0  0  0  0  0  0  0  0  0  0  0  0
   -5.2270   15.2086  -12.9486 H   0  0  0  0  0  0  0  0  0  0  0  0
   -6.7769   12.3203   -6.9046 H   0  0  0  0  0  0  0  0  0  0  0  0
   -3.4389   12.0070   -8.2491 H   0  0  0  0  0  0  0  0  0  0  0  0
   -2.6169    9.7197   -8.0459 H   0  0  0  0  0  0  0  0  0  0  0  0
   -4.8951    8.7966   -8.4810 H   0  0  0  0  0  0  0  0  0  0  0  0
   -4.6981   14.3639   -6.0034 H   0  0  0  0  0  0  0  0  0  0  0  0
   -0.3895   12.9643   -6.6059 H   0  0  0  0  0  0  0  0  0  0  0  0
   -0.7026   11.2076   -6.4002 H   0  0  0  0  0  0  0  0  0  0  0  0
   -0.6910   11.9314   -8.0442 H   0  0  0  0  0  0  0  0  0  0  0  0
  1  2  1  0  0  0  0
  1  4  2  0  0  0  0
  1 13  1  0  0  0  0
  2  6  2  0  0  0  0
  3  4  1  0  0  0  0
  3  5  1  0  0  0  0
  5  6  1  0  0  0  0
  5  9  2  0  0  0  0
  6  7  1  0  0  0  0
  7  8  2  0  0  0  0
  7 10  1  0  0  0  0
  8  9  1  0  0  0  0
 10 15  2  3  0  0  0
 11 12  1  0  0  0  0
 11 13  2  0  0  0  0
 13 14  1  0  0  0  0
 15 16  1  0  0  0  0
 15 20  1  0  0  0  0
 16 17  2  0  0  0  0
 17 18  1  0  0  0  0
 17 21  1  0  0  0  0
 18 19  1  0  0  0  0
 18 23  1  0  0  0  0
 19 20  2  0  0  0  0
 21 22  2  0  0  0  0
 22 23  1  0  0  0  0
 23 24  1  0  0  0  0
  2 25  1  0  0  0  0
  3 26  1  0  0  0  0
  3 27  1  0  0  0  0
  4 28  1  0  0  0  0
 10 29  1  0  0  0  0
 12 30  1  0  0  0  0
 12 31  1  0  0  0  0
 12 32  1  0  0  0  0
 14 33  1  0  0  0  0
 16 34  1  0  0  0  0
 18 35  1  0  0  0  0
 19 36  1  0  0  0  0
 20 37  1  0  0  0  0
 21 38  1  0  0  0  0
 24 39  1  0  0  0  0
 24 40  1  0  0  0  0
 24 41  1  0  0  0  0
M  END
> <Name>
18

> <IC50[uM]>
0.01

$$$$
18
  -OEChem-05192314333D
 Structure written by MMmdl.
 41 44  0     1  0  0  0  0  0999 V2000
   -6.3808   12.3686  -12.0119 C   0  0  0  0  0  0  0  0  0  0  0  0
   -6.5112   11.8116  -10.7365 C   0  0  0  0  0  0  0  0  0  0  0  0
   -7.7301   10.5824  -13.0300 C   0  0  0  0  0  0  0  0  0  0  0  0
   -6.9992   11.7782  -13.1263 C   0  0  0  0  0  0  0  0  0  0  0  0
   -7.8250   10.0166  -11.7542 C   0  0  3  0  0  0  0  0  0  0  0  0
   -7.2407   10.6266  -10.6010 C   0  0  0  0  0  0  0  0  0  0  0  0
   -7.6094    9.7513   -9.5103 C   0  0  0  0  0  0  0  0  0  0  0  0
   -8.2849    8.7404   -9.9846 N   0  0  0  0  0  0  0  0  0  0  0  0
   -8.4192    8.8674  -11.2983 N   0  0  0  0  0  0  0  0  0  0  0  0
   -7.3225    9.8872   -8.0242 C   0  0  0  0  0  0  0  0  0  0  0  0
   -4.3834   13.6199  -11.4933 N   0  0  0  0  0  0  0  0  0  0  0  0
   -3.4237   14.7282  -11.5789 C   0  0  0  0  0  0  0  0  0  0  0  0
   -5.5369   13.6139  -12.1980 C   0  0  0  0  0  0  0  0  0  0  0  0
   -5.8771   14.5161  -12.9653 O   0  0  0  0  0  0  0  0  0  0  0  0
   -5.9516   10.5005   -7.7272 C   0  0  0  0  0  0  0  0  0  0  0  0
   -5.8803   11.7722   -7.1539 C   0  0  0  0  0  0  0  0  0  0  0  0
   -4.6129   12.3159   -6.9118 C   0  0  0  0  0  0  0  0  0  0  0  0
   -3.4418   11.5625   -7.2429 C   0  0  3  0  0  0  0  0  0  0  0  0
   -3.5059   10.2842   -7.8062 C   0  0  0  0  0  0  0  0  0  0  0  0
   -4.7935    9.7780   -8.0417 C   0  0  0  0  0  0  0  0  0  0  0  0
   -4.0936   13.5458   -6.3664 C   0  0  0  0  0  0  0  0  0  0  0  0
   -2.7885   13.5288   -6.3742 N   0  0  0  0  0  0  0  0  0  0  0  0
   -2.3831   12.3683   -6.8823 N   0  0  3  0  0  0  0  0  0  0  0  0
   -0.9539   12.1016   -6.9897 C   0  0  0  0  0  0  0  0  0  0  0  0
   -6.0597   12.2849   -9.8771 H   0  0  0  0  0  0  0  0  0  0  0  0
   -8.1927   10.1256  -13.8924 H   0  0  0  0  0  0  0  0  0  0  0  0
   -6.9098   12.2595  -14.0890 H   0  0  0  0  0  0  0  0  0  0  0  0
   -8.7581   10.5712  -11.5763 H   0  0  0  0  0  0  0  0  0  0  0  0
   -8.0161    9.5818   -7.2548 H   0  0  0  0  0  0  0  0  0  0  0  0
   -4.1771   12.8456  -10.8951 H   0  0  0  0  0  0  0  0  0  0  0  0
   -2.5640   14.5209  -10.9247 H   0  0  0  0  0  0  0  0  0  0  0  0
   -3.0770   14.8334  -12.6175 H   0  0  0  0  0  0  0  0  0  0  0  0
   -3.9113   15.6608  -11.2589 H   0  0  0  0  0  0  0  0  0  0  0  0
   -6.7769   12.3203   -6.9046 H   0  0  0  0  0  0  0  0  0  0  0  0
   -3.4389   12.0070   -8.2491 H   0  0  0  0  0  0  0  0  0  0  0  0
   -2.6169    9.7197   -8.0459 H   0  0  0  0  0  0  0  0  0  0  0  0
   -4.8951    8.7966   -8.4810 H   0  0  0  0  0  0  0  0  0  0  0  0
   -4.6981   14.3639   -6.0034 H   0  0  0  0  0  0  0  0  0  0  0  0
   -0.3895   12.9643   -6.6059 H   0  0  0  0  0  0  0  0  0  0  0  0
   -0.7026   11.2076   -6.4002 H   0  0  0  0  0  0  0  0  0  0  0  0
   -0.6910   11.9314   -8.0442 H   0  0  0  0  0  0  0  0  0  0  0  0
  1  2  2  0  0  0  0
  1  4  1  0  0  0  0
  1 13  1  0  0  0  0
  2  6  1  0  0  0  0
  3  4  2  0  0  0  0
  3  5  1  0  0  0  0
  5  6  1  0  0  0  0
  5  9  1  0  0  0  0
  6  7  2  0  0  0  0
  7  8  1  0  0  0  0
  7 10  1  0  0  0  0
  8  9  2  0  0  0  0
 10 15  2  3  0  0  0
 11 12  1  0  0  0  0
 11 13  1  0  0  0  0
 13 14  2  0  0  0  0
 15 16  1  0  0  0  0
 15 20  1  0  0  0  0
 16 17  2  0  0  0  0
 17 18  1  0  0  0  0
 17 21  1  0  0  0  0
 18 19  1  0  0  0  0
 18 23  1  0  0  0  0
 19 20  2  0  0  0  0
 21 22  2  0  0  0  0
 22 23  1  0  0  0  0
 23 24  1  0  0  0  0
  2 25  1  0  0  0  0
  3 26  1  0  0  0  0
  4 27  1  0  0  0  0
  5 28  1  0  0  0  0
 10 29  1  0  0  0  0
 11 30  1  0  0  0  0
 12 31  1  0  0  0  0
 12 32  1  0  0  0  0
 12 33  1  0  0  0  0
 16 34  1  0  0  0  0
 18 35  1  0  0  0  0
 19 36  1  0  0  0  0
 20 37  1  0  0  0  0
 21 38  1  0  0  0  0
 24 39  1  0  0  0  0
 24 40  1  0  0  0  0
 24 41  1  0  0  0  0
M  END
> <Name>
18

> <IC50[uM]>
0.01

$$$$
18
  -OEChem-05192314333D
 Structure written by MMmdl.
 41 44  0     1  0  0  0  0  0999 V2000
   -6.3808   12.3686  -12.0119 C   0  0  0  0  0  0  0  0  0  0  0  0
   -6.5112   11.8116  -10.7365 C   0  0  0  0  0  0  0  0  0  0  0  0
   -7.7301   10.5824  -13.0300 C   0  0  0  0  0  0  0  0  0  0  0  0
   -6.9992   11.7782  -13.1263 C   0  0  0  0  0  0  0  0  0  0  0  0
   -7.8250   10.0166  -11.7542 C   0  0  0  0  0  0  0  0  0  0  0  0
   -7.2407   10.6266  -10.6010 C   0  0  0  0  0  0  0  0  0  0  0  0
   -7.6094    9.7513   -9.5103 C   0  0  0  0  0  0  0  0  0  0  0  0
   -8.2849    8.7404   -9.9846 N   0  0  0  0  0  0  0  0  0  0  0  0
   -8.4192    8.8674  -11.2983 N   0  0  0  0  0  0  0  0  0  0  0  0
   -7.3225    9.8872   -8.0242 C   0  0  0  0  0  0  0  0  0  0  0  0
   -4.3834   13.6199  -11.4933 N   0  0  0  0  0  0  0  0  0  0  0  0
   -3.4237   14.7282  -11.5789 C   0  0  0  0  0  0  0  0  0  0  0  0
   -5.5369   13.6139  -12.1980 C   0  0  0  0  0  0  0  0  0  0  0  0
   -5.8771   14.5161  -12.9653 O   0  0  0  0  0  0  0  0  0  0  0  0
   -5.9516   10.5005   -7.7272 C   0  0  0  0  0  0  0  0  0  0  0  0
   -5.8803   11.7722   -7.1539 C   0  0  0  0  0  0  0  0  0  0  0  0
   -4.6129   12.3159   -6.9118 C   0  0  0  0  0  0  0  0  0  0  0  0
   -3.4418   11.5625   -7.2429 C   0  0  3  0  0  0  0  0  0  0  0  0
   -3.5059   10.2842   -7.8062 C   0  0  0  0  0  0  0  0  0  0  0  0
   -4.7935    9.7780   -8.0417 C   0  0  0  0  0  0  0  0  0  0  0  0
   -4.0936   13.5458   -6.3664 C   0  0  0  0  0  0  0  0  0  0  0  0
   -2.7885   13.5288   -6.3742 N   0  0  0  0  0  0  0  0  0  0  0  0
   -2.3831   12.3683   -6.8823 N   0  0  3  0  0  0  0  0  0  0  0  0
   -0.9539   12.1016   -6.9897 C   0  0  0  0  0  0  0  0  0  0  0  0
   -6.0597   12.2849   -9.8771 H   0  0  0  0  0  0  0  0  0  0  0  0
   -8.1927   10.1256  -13.8924 H   0  0  0  0  0  0  0  0  0  0  0  0
   -7.6938   12.5312  -13.5268 H   0  0  0  0  0  0  0  0  0  0  0  0
   -6.1994   11.5912  -13.8580 H   0  0  0  0  0  0  0  0  0  0  0  0
   -8.0161    9.5818   -7.2548 H   0  0  0  0  0  0  0  0  0  0  0  0
   -4.1771   12.8456  -10.8951 H   0  0  0  0  0  0  0  0  0  0  0  0
   -2.5640   14.5209  -10.9247 H   0  0  0  0  0  0  0  0  0  0  0  0
   -3.0770   14.8334  -12.6175 H   0  0  0  0  0  0  0  0  0  0  0  0
   -3.9113   15.6608  -11.2589 H   0  0  0  0  0  0  0  0  0  0  0  0
   -6.7769   12.3203   -6.9046 H   0  0  0  0  0  0  0  0  0  0  0  0
   -3.4389   12.0070   -8.2491 H   0  0  0  0  0  0  0  0  0  0  0  0
   -2.6169    9.7197   -8.0459 H   0  0  0  0  0  0  0  0  0  0  0  0
   -4.8951    8.7966   -8.4810 H   0  0  0  0  0  0  0  0  0  0  0  0
   -4.6981   14.3639   -6.0034 H   0  0  0  0  0  0  0  0  0  0  0  0
   -0.3895   12.9643   -6.6059 H   0  0  0  0  0  0  0  0  0  0  0  0
   -0.7026   11.2076   -6.4002 H   0  0  0  0  0  0  0  0  0  0  0  0
   -0.6910   11.9314   -8.0442 H   0  0  0  0  0  0  0  0  0  0  0  0
  1  2  2  0  0  0  0
  1  4  1  0  0  0  0
  1 13  1  0  0  0  0
  2  6  1  0  0  0  0
  3  4  1  0  0  0  0
  3  5  2  0  0  0  0
  5  6  1  0  0  0  0
  5  9  1  0  0  0  0
  6  7  2  0  0  0  0
  7  8  1  0  0  0  0
  7 10  1  0  0  0  0
  8  9  2  0  0  0  0
 10 15  2  3  0  0  0
 11 12  1  0  0  0  0
 11 13  1  0  0  0  0
 13 14  2  0  0  0  0
 15 16  1  0  0  0  0
 15 20  1  0  0  0  0
 16 17  2  0  0  0  0
 17 18  1  0  0  0  0
 17 21  1  0  0  0  0
 18 19  1  0  0  0  0
 18 23  1  0  0  0  0
 19 20  2  0  0  0  0
 21 22  2  0  0  0  0
 22 23  1  0  0  0  0
 23 24  1  0  0  0  0
  2 25  1  0  0  0  0
  3 26  1  0  0  0  0
  4 27  1  0  0  0  0
  4 28  1  0  0  0  0
 10 29  1  0  0  0  0
 11 30  1  0  0  0  0
 12 31  1  0  0  0  0
 12 32  1  0  0  0  0
 12 33  1  0  0  0  0
 16 34  1  0  0  0  0
 18 35  1  0  0  0  0
 19 36  1  0  0  0  0
 20 37  1  0  0  0  0
 21 38  1  0  0  0  0
 24 39  1  0  0  0  0
 24 40  1  0  0  0  0
 24 41  1  0  0  0  0
M  END
> <Name>
18

> <IC50[uM]>
0.01

$$$$
18
  -OEChem-05192314333D
 Structure written by MMmdl.
 41 44  0     1  0  0  0  0  0999 V2000
   -6.3808   12.3686  -12.0119 C   0  0  0  0  0  0  0  0  0  0  0  0
   -6.5112   11.8116  -10.7365 C   0  0  0  0  0  0  0  0  0  0  0  0
   -7.7301   10.5824  -13.0300 C   0  0  0  0  0  0  0  0  0  0  0  0
   -6.9992   11.7782  -13.1263 C   0  0  0  0  0  0  0  0  0  0  0  0
   -7.8250   10.0166  -11.7542 C   0  0  0  0  0  0  0  0  0  0  0  0
   -7.2407   10.6266  -10.6010 C   0  0  0  0  0  0  0  0  0  0  0  0
   -7.6094    9.7513   -9.5103 C   0  0  0  0  0  0  0  0  0  0  0  0
   -8.2849    8.7404   -9.9846 N   0  0  0  0  0  0  0  0  0  0  0  0
   -8.4192    8.8674  -11.2983 N   0  0  0  0  0  0  0  0  0  0  0  0
   -7.3225    9.8872   -8.0242 C   0  0  0  0  0  0  0  0  0  0  0  0
   -4.3834   13.6199  -11.4933 N   0  0  0  0  0  0  0  0  0  0  0  0
   -3.4237   14.7282  -11.5789 C   0  0  0  0  0  0  0  0  0  0  0  0
   -5.5369   13.6139  -12.1980 C   0  0  0  0  0  0  0  0  0  0  0  0
   -5.8771   14.5161  -12.9653 O   0  0  0  0  0  0  0  0  0  0  0  0
   -5.9516   10.5005   -7.7272 C   0  0  0  0  0  0  0  0  0  0  0  0
   -5.8803   11.7722   -7.1539 C   0  0  0  0  0  0  0  0  0  0  0  0
   -4.6129   12.3159   -6.9118 C   0  0  0  0  0  0  0  0  0  0  0  0
   -3.4418   11.5625   -7.2429 C   0  0  3  0  0  0  0  0  0  0  0  0
   -3.5059   10.2842   -7.8062 C   0  0  0  0  0  0  0  0  0  0  0  0
   -4.7935    9.7780   -8.0417 C   0  0  0  0  0  0  0  0  0  0  0  0
   -4.0936   13.5458   -6.3664 C   0  0  0  0  0  0  0  0  0  0  0  0
   -2.7885   13.5288   -6.3742 N   0  0  0  0  0  0  0  0  0  0  0  0
   -2.3831   12.3683   -6.8823 N   0  0  3  0  0  0  0  0  0  0  0  0
   -0.9539   12.1016   -6.9897 C   0  0  0  0  0  0  0  0  0  0  0  0
   -5.4959   11.6133  -10.3626 H   0  0  0  0  0  0  0  0  0  0  0  0
   -6.9955   12.5665  -10.0997 H   0  0  0  0  0  0  0  0  0  0  0  0
   -8.1927   10.1256  -13.8924 H   0  0  0  0  0  0  0  0  0  0  0  0
   -6.9098   12.2595  -14.0890 H   0  0  0  0  0  0  0  0  0  0  0  0
   -8.0161    9.5818   -7.2548 H   0  0  0  0  0  0  0  0  0  0  0  0
   -4.1771   12.8456  -10.8951 H   0  0  0  0  0  0  0  0  0  0  0  0
   -2.5640   14.5209  -10.9247 H   0  0  0  0  0  0  0  0  0  0  0  0
   -3.0770   14.8334  -12.6175 H   0  0  0  0  0  0  0  0  0  0  0  0
   -3.9113   15.6608  -11.2589 H   0  0  0  0  0  0  0  0  0  0  0  0
   -6.7769   12.3203   -6.9046 H   0  0  0  0  0  0  0  0  0  0  0  0
   -3.4389   12.0070   -8.2491 H   0  0  0  0  0  0  0  0  0  0  0  0
   -2.6169    9.7197   -8.0459 H   0  0  0  0  0  0  0  0  0  0  0  0
   -4.8951    8.7966   -8.4810 H   0  0  0  0  0  0  0  0  0  0  0  0
   -4.6981   14.3639   -6.0034 H   0  0  0  0  0  0  0  0  0  0  0  0
   -0.3895   12.9643   -6.6059 H   0  0  0  0  0  0  0  0  0  0  0  0
   -0.7026   11.2076   -6.4002 H   0  0  0  0  0  0  0  0  0  0  0  0
   -0.6910   11.9314   -8.0442 H   0  0  0  0  0  0  0  0  0  0  0  0
  1  2  1  0  0  0  0
  1  4  2  0  0  0  0
  1 13  1  0  0  0  0
  2  6  1  0  0  0  0
  3  4  1  0  0  0  0
  3  5  2  0  0  0  0
  5  6  1  0  0  0  0
  5  9  1  0  0  0  0
  6  7  2  0  0  0  0
  7  8  1  0  0  0  0
  7 10  1  0  0  0  0
  8  9  2  0  0  0  0
 10 15  2  3  0  0  0
 11 12  1  0  0  0  0
 11 13  1  0  0  0  0
 13 14  2  0  0  0  0
 15 16  1  0  0  0  0
 15 20  1  0  0  0  0
 16 17  2  0  0  0  0
 17 18  1  0  0  0  0
 17 21  1  0  0  0  0
 18 19  1  0  0  0  0
 18 23  1  0  0  0  0
 19 20  2  0  0  0  0
 21 22  2  0  0  0  0
 22 23  1  0  0  0  0
 23 24  1  0  0  0  0
  2 25  1  0  0  0  0
  2 26  1  0  0  0  0
  3 27  1  0  0  0  0
  4 28  1  0  0  0  0
 10 29  1  0  0  0  0
 11 30  1  0  0  0  0
 12 31  1  0  0  0  0
 12 32  1  0  0  0  0
 12 33  1  0  0  0  0
 16 34  1  0  0  0  0
 18 35  1  0  0  0  0
 19 36  1  0  0  0  0
 20 37  1  0  0  0  0
 21 38  1  0  0  0  0
 24 39  1  0  0  0  0
 24 40  1  0  0  0  0
 24 41  1  0  0  0  0
M  END
> <Name>
18

> <IC50[uM]>
0.01

$$$$
18
  -OEChem-05192314333D
 Structure written by MMmdl.
 41 44  0     1  0  0  0  0  0999 V2000
   -6.3808   12.3686  -12.0119 C   0  0  0  0  0  0  0  0  0  0  0  0
   -6.5112   11.8116  -10.7365 C   0  0  0  0  0  0  0  0  0  0  0  0
   -7.7301   10.5824  -13.0300 C   0  0  0  0  0  0  0  0  0  0  0  0
   -6.9992   11.7782  -13.1263 C   0  0  0  0  0  0  0  0  0  0  0  0
   -7.8250   10.0166  -11.7542 C   0  0  3  0  0  0  0  0  0  0  0  0
   -7.2407   10.6266  -10.6010 C   0  0  0  0  0  0  0  0  0  0  0  0
   -7.6094    9.7513   -9.5103 C   0  0  0  0  0  0  0  0  0  0  0  0
   -8.2849    8.7404   -9.9846 N   0  0  0  0  0  0  0  0  0  0  0  0
   -8.4192    8.8674  -11.2983 N   0  0  0  0  0  0  0  0  0  0  0  0
   -7.3225    9.8872   -8.0242 C   0  0  0  0  0  0  0  0  0  0  0  0
   -4.3834   13.6199  -11.4933 N   0  0  0  0  0  0  0  0  0  0  0  0
   -3.4237   14.7282  -11.5789 C   0  0  0  0  0  0  0  0  0  0  0  0
   -5.5369   13.6139  -12.1980 C   0  0  0  0  0  0  0  0  0  0  0  0
   -5.8771   14.5161  -12.9653 O   0  0  0  0  0  0  0  0  0  0  0  0
   -5.9516   10.5005   -7.7272 C   0  0  0  0  0  0  0  0  0  0  0  0
   -5.8803   11.7722   -7.1539 C   0  0  0  0  0  0  0  0  0  0  0  0
   -4.6129   12.3159   -6.9118 C   0  0  0  0  0  0  0  0  0  0  0  0
   -3.4418   11.5625   -7.2429 C   0  0  3  0  0  0  0  0  0  0  0  0
   -3.5059   10.2842   -7.8062 C   0  0  0  0  0  0  0  0  0  0  0  0
   -4.7935    9.7780   -8.0417 C   0  0  0  0  0  0  0  0  0  0  0  0
   -4.0936   13.5458   -6.3664 C   0  0  0  0  0  0  0  0  0  0  0  0
   -2.7885   13.5288   -6.3742 N   0  0  0  0  0  0  0  0  0  0  0  0
   -2.3831   12.3683   -6.8823 N   0  0  3  0  0  0  0  0  0  0  0  0
   -0.9539   12.1016   -6.9897 C   0  0  0  0  0  0  0  0  0  0  0  0
   -6.0597   12.2849   -9.8771 H   0  0  0  0  0  0  0  0  0  0  0  0
   -8.1927   10.1256  -13.8924 H   0  0  0  0  0  0  0  0  0  0  0  0
   -6.9098   12.2595  -14.0890 H   0  0  0  0  0  0  0  0  0  0  0  0
   -8.7581   10.5712  -11.5763 H   0  0  0  0  0  0  0  0  0  0  0  0
   -8.0161    9.5818   -7.2548 H   0  0  0  0  0  0  0  0  0  0  0  0
   -2.5640   14.5209  -10.9247 H   0  0  0  0  0  0  0  0  0  0  0  0
   -3.0770   14.8334  -12.6175 H   0  0  0  0  0  0  0  0  0  0  0  0
   -3.9113   15.6608  -11.2589 H   0  0  0  0  0  0  0  0  0  0  0  0
   -5.2270   15.2086  -12.9486 H   0  0  0  0  0  0  0  0  0  0  0  0
   -6.7769   12.3203   -6.9046 H   0  0  0  0  0  0  0  0  0  0  0  0
   -3.4389   12.0070   -8.2491 H   0  0  0  0  0  0  0  0  0  0  0  0
   -2.6169    9.7197   -8.0459 H   0  0  0  0  0  0  0  0  0  0  0  0
   -4.8951    8.7966   -8.4810 H   0  0  0  0  0  0  0  0  0  0  0  0
   -4.6981   14.3639   -6.0034 H   0  0  0  0  0  0  0  0  0  0  0  0
   -0.3895   12.9643   -6.6059 H   0  0  0  0  0  0  0  0  0  0  0  0
   -0.7026   11.2076   -6.4002 H   0  0  0  0  0  0  0  0  0  0  0  0
   -0.6910   11.9314   -8.0442 H   0  0  0  0  0  0  0  0  0  0  0  0
  1  2  2  0  0  0  0
  1  4  1  0  0  0  0
  1 13  1  0  0  0  0
  2  6  1  0  0  0  0
  3  4  2  0  0  0  0
  3  5  1  0  0  0  0
  5  6  1  0  0  0  0
  5  9  1  0  0  0  0
  6  7  2  0  0  0  0
  7  8  1  0  0  0  0
  7 10  1  0  0  0  0
  8  9  2  0  0  0  0
 10 15  2  3  0  0  0
 11 12  1  0  0  0  0
 11 13  2  0  0  0  0
 13 14  1  0  0  0  0
 15 16  1  0  0  0  0
 15 20  1  0  0  0  0
 16 17  2  0  0  0  0
 17 18  1  0  0  0  0
 17 21  1  0  0  0  0
 18 19  1  0  0  0  0
 18 23  1  0  0  0  0
 19 20  2  0  0  0  0
 21 22  2  0  0  0  0
 22 23  1  0  0  0  0
 23 24  1  0  0  0  0
  2 25  1  0  0  0  0
  3 26  1  0  0  0  0
  4 27  1  0  0  0  0
  5 28  1  0  0  0  0
 10 29  1  0  0  0  0
 12 30  1  0  0  0  0
 12 31  1  0  0  0  0
 12 32  1  0  0  0  0
 14 33  1  0  0  0  0
 16 34  1  0  0  0  0
 18 35  1  0  0  0  0
 19 36  1  0  0  0  0
 20 37  1  0  0  0  0
 21 38  1  0  0  0  0
 24 39  1  0  0  0  0
 24 40  1  0  0  0  0
 24 41  1  0  0  0  0
M  END
> <Name>
18

> <IC50[uM]>
0.01

$$$$
18
  -OEChem-05192314333D
 Structure written by MMmdl.
 41 44  0     1  0  0  0  0  0999 V2000
   -6.3808   12.3686  -12.0119 C   0  0  0  0  0  0  0  0  0  0  0  0
   -6.5112   11.8116  -10.7365 C   0  0  0  0  0  0  0  0  0  0  0  0
   -7.7301   10.5824  -13.0300 C   0  0  0  0  0  0  0  0  0  0  0  0
   -6.9992   11.7782  -13.1263 C   0  0  0  0  0  0  0  0  0  0  0  0
   -7.8250   10.0166  -11.7542 C   0  0  0  0  0  0  0  0  0  0  0  0
   -7.2407   10.6266  -10.6010 C   0  0  0  0  0  0  0  0  0  0  0  0
   -7.6094    9.7513   -9.5103 C   0  0  0  0  0  0  0  0  0  0  0  0
   -8.2849    8.7404   -9.9846 N   0  0  0  0  0  0  0  0  0  0  0  0
   -8.4192    8.8674  -11.2983 N   0  0  0  0  0  0  0  0  0  0  0  0
   -7.3225    9.8872   -8.0242 C   0  0  0  0  0  0  0  0  0  0  0  0
   -4.3834   13.6199  -11.4933 N   0  0  0  0  0  0  0  0  0  0  0  0
   -3.4237   14.7282  -11.5789 C   0  0  0  0  0  0  0  0  0  0  0  0
   -5.5369   13.6139  -12.1980 C   0  0  0  0  0  0  0  0  0  0  0  0
   -5.8771   14.5161  -12.9653 O   0  0  0  0  0  0  0  0  0  0  0  0
   -5.9516   10.5005   -7.7272 C   0  0  0  0  0  0  0  0  0  0  0  0
   -5.8803   11.7722   -7.1539 C   0  0  0  0  0  0  0  0  0  0  0  0
   -4.6129   12.3159   -6.9118 C   0  0  0  0  0  0  0  0  0  0  0  0
   -3.4418   11.5625   -7.2429 C   0  0  3  0  0  0  0  0  0  0  0  0
   -3.5059   10.2842   -7.8062 C   0  0  0  0  0  0  0  0  0  0  0  0
   -4.7935    9.7780   -8.0417 C   0  0  0  0  0  0  0  0  0  0  0  0
   -4.0936   13.5458   -6.3664 C   0  0  0  0  0  0  0  0  0  0  0  0
   -2.7885   13.5288   -6.3742 N   0  0  0  0  0  0  0  0  0  0  0  0
   -2.3831   12.3683   -6.8823 N   0  0  3  0  0  0  0  0  0  0  0  0
   -0.9539   12.1016   -6.9897 C   0  0  0  0  0  0  0  0  0  0  0  0
   -6.0597   12.2849   -9.8771 H   0  0  0  0  0  0  0  0  0  0  0  0
   -8.1927   10.1256  -13.8924 H   0  0  0  0  0  0  0  0  0  0  0  0
   -7.6938   12.5312  -13.5268 H   0  0  0  0  0  0  0  0  0  0  0  0
   -6.1994   11.5912  -13.8580 H   0  0  0  0  0  0  0  0  0  0  0  0
   -8.0161    9.5818   -7.2548 H   0  0  0  0  0  0  0  0  0  0  0  0
   -2.5640   14.5209  -10.9247 H   0  0  0  0  0  0  0  0  0  0  0  0
   -3.0770   14.8334  -12.6175 H   0  0  0  0  0  0  0  0  0  0  0  0
   -3.9113   15.6608  -11.2589 H   0  0  0  0  0  0  0  0  0  0  0  0
   -5.2270   15.2086  -12.9486 H   0  0  0  0  0  0  0  0  0  0  0  0
   -6.7769   12.3203   -6.9046 H   0  0  0  0  0  0  0  0  0  0  0  0
   -3.4389   12.0070   -8.2491 H   0  0  0  0  0  0  0  0  0  0  0  0
   -2.6169    9.7197   -8.0459 H   0  0  0  0  0  0  0  0  0  0  0  0
   -4.8951    8.7966   -8.4810 H   0  0  0  0  0  0  0  0  0  0  0  0
   -4.6981   14.3639   -6.0034 H   0  0  0  0  0  0  0  0  0  0  0  0
   -0.3895   12.9643   -6.6059 H   0  0  0  0  0  0  0  0  0  0  0  0
   -0.7026   11.2076   -6.4002 H   0  0  0  0  0  0  0  0  0  0  0  0
   -0.6910   11.9314   -8.0442 H   0  0  0  0  0  0  0  0  0  0  0  0
  1  2  2  0  0  0  0
  1  4  1  0  0  0  0
  1 13  1  0  0  0  0
  2  6  1  0  0  0  0
  3  4  1  0  0  0  0
  3  5  2  0  0  0  0
  5  6  1  0  0  0  0
  5  9  1  0  0  0  0
  6  7  2  0  0  0  0
  7  8  1  0  0  0  0
  7 10  1  0  0  0  0
  8  9  2  0  0  0  0
 10 15  2  3  0  0  0
 11 12  1  0  0  0  0
 11 13  2  0  0  0  0
 13 14  1  0  0  0  0
 15 16  1  0  0  0  0
 15 20  1  0  0  0  0
 16 17  2  0  0  0  0
 17 18  1  0  0  0  0
 17 21  1  0  0  0  0
 18 19  1  0  0  0  0
 18 23  1  0  0  0  0
 19 20  2  0  0  0  0
 21 22  2  0  0  0  0
 22 23  1  0  0  0  0
 23 24  1  0  0  0  0
  2 25  1  0  0  0  0
  3 26  1  0  0  0  0
  4 27  1  0  0  0  0
  4 28  1  0  0  0  0
 10 29  1  0  0  0  0
 12 30  1  0  0  0  0
 12 31  1  0  0  0  0
 12 32  1  0  0  0  0
 14 33  1  0  0  0  0
 16 34  1  0  0  0  0
 18 35  1  0  0  0  0
 19 36  1  0  0  0  0
 20 37  1  0  0  0  0
 21 38  1  0  0  0  0
 24 39  1  0  0  0  0
 24 40  1  0  0  0  0
 24 41  1  0  0  0  0
M  END
> <Name>
18

> <IC50[uM]>
0.01

$$$$
18
  -OEChem-05192314333D
 Structure written by MMmdl.
 41 44  0     1  0  0  0  0  0999 V2000
   -6.3808   12.3686  -12.0119 C   0  0  0  0  0  0  0  0  0  0  0  0
   -6.5112   11.8116  -10.7365 C   0  0  0  0  0  0  0  0  0  0  0  0
   -7.7301   10.5824  -13.0300 C   0  0  0  0  0  0  0  0  0  0  0  0
   -6.9992   11.7782  -13.1263 C   0  0  0  0  0  0  0  0  0  0  0  0
   -7.8250   10.0166  -11.7542 C   0  0  0  0  0  0  0  0  0  0  0  0
   -7.2407   10.6266  -10.6010 C   0  0  0  0  0  0  0  0  0  0  0  0
   -7.6094    9.7513   -9.5103 C   0  0  0  0  0  0  0  0  0  0  0  0
   -8.2849    8.7404   -9.9846 N   0  0  0  0  0  0  0  0  0  0  0  0
   -8.4192    8.8674  -11.2983 N   0  0  0  0  0  0  0  0  0  0  0  0
   -7.3225    9.8872   -8.0242 C   0  0  0  0  0  0  0  0  0  0  0  0
   -4.3834   13.6199  -11.4933 N   0  0  0  0  0  0  0  0  0  0  0  0
   -3.4237   14.7282  -11.5789 C   0  0  0  0  0  0  0  0  0  0  0  0
   -5.5369   13.6139  -12.1980 C   0  0  0  0  0  0  0  0  0  0  0  0
   -5.8771   14.5161  -12.9653 O   0  0  0  0  0  0  0  0  0  0  0  0
   -5.9516   10.5005   -7.7272 C   0  0  0  0  0  0  0  0  0  0  0  0
   -5.8803   11.7722   -7.1539 C   0  0  0  0  0  0  0  0  0  0  0  0
   -4.6129   12.3159   -6.9118 C   0  0  0  0  0  0  0  0  0  0  0  0
   -3.4418   11.5625   -7.2429 C   0  0  3  0  0  0  0  0  0  0  0  0
   -3.5059   10.2842   -7.8062 C   0  0  0  0  0  0  0  0  0  0  0  0
   -4.7935    9.7780   -8.0417 C   0  0  0  0  0  0  0  0  0  0  0  0
   -4.0936   13.5458   -6.3664 C   0  0  0  0  0  0  0  0  0  0  0  0
   -2.7885   13.5288   -6.3742 N   0  0  0  0  0  0  0  0  0  0  0  0
   -2.3831   12.3683   -6.8823 N   0  0  3  0  0  0  0  0  0  0  0  0
   -0.9539   12.1016   -6.9897 C   0  0  0  0  0  0  0  0  0  0  0  0
   -5.4959   11.6133  -10.3626 H   0  0  0  0  0  0  0  0  0  0  0  0
   -6.9955   12.5665  -10.0997 H   0  0  0  0  0  0  0  0  0  0  0  0
   -8.1927   10.1256  -13.8924 H   0  0  0  0  0  0  0  0  0  0  0  0
   -6.9098   12.2595  -14.0890 H   0  0  0  0  0  0  0  0  0  0  0  0
   -8.0161    9.5818   -7.2548 H   0  0  0  0  0  0  0  0  0  0  0  0
   -2.5640   14.5209  -10.9247 H   0  0  0  0  0  0  0  0  0  0  0  0
   -3.0770   14.8334  -12.6175 H   0  0  0  0  0  0  0  0  0  0  0  0
   -3.9113   15.6608  -11.2589 H   0  0  0  0  0  0  0  0  0  0  0  0
   -5.2270   15.2086  -12.9486 H   0  0  0  0  0  0  0  0  0  0  0  0
   -6.7769   12.3203   -6.9046 H   0  0  0  0  0  0  0  0  0  0  0  0
   -3.4389   12.0070   -8.2491 H   0  0  0  0  0  0  0  0  0  0  0  0
   -2.6169    9.7197   -8.0459 H   0  0  0  0  0  0  0  0  0  0  0  0
   -4.8951    8.7966   -8.4810 H   0  0  0  0  0  0  0  0  0  0  0  0
   -4.6981   14.3639   -6.0034 H   0  0  0  0  0  0  0  0  0  0  0  0
   -0.3895   12.9643   -6.6059 H   0  0  0  0  0  0  0  0  0  0  0  0
   -0.7026   11.2076   -6.4002 H   0  0  0  0  0  0  0  0  0  0  0  0
   -0.6910   11.9314   -8.0442 H   0  0  0  0  0  0  0  0  0  0  0  0
  1  2  1  0  0  0  0
  1  4  2  0  0  0  0
  1 13  1  0  0  0  0
  2  6  1  0  0  0  0
  3  4  1  0  0  0  0
  3  5  2  0  0  0  0
  5  6  1  0  0  0  0
  5  9  1  0  0  0  0
  6  7  2  0  0  0  0
  7  8  1  0  0  0  0
  7 10  1  0  0  0  0
  8  9  2  0  0  0  0
 10 15  2  3  0  0  0
 11 12  1  0  0  0  0
 11 13  2  0  0  0  0
 13 14  1  0  0  0  0
 15 16  1  0  0  0  0
 15 20  1  0  0  0  0
 16 17  2  0  0  0  0
 17 18  1  0  0  0  0
 17 21  1  0  0  0  0
 18 19  1  0  0  0  0
 18 23  1  0  0  0  0
 19 20  2  0  0  0  0
 21 22  2  0  0  0  0
 22 23  1  0  0  0  0
 23 24  1  0  0  0  0
  2 25  1  0  0  0  0
  2 26  1  0  0  0  0
  3 27  1  0  0  0  0
  4 28  1  0  0  0  0
 10 29  1  0  0  0  0
 12 30  1  0  0  0  0
 12 31  1  0  0  0  0
 12 32  1  0  0  0  0
 14 33  1  0  0  0  0
 16 34  1  0  0  0  0
 18 35  1  0  0  0  0
 19 36  1  0  0  0  0
 20 37  1  0  0  0  0
 21 38  1  0  0  0  0
 24 39  1  0  0  0  0
 24 40  1  0  0  0  0
 24 41  1  0  0  0  0
M  END
> <Name>
18

> <IC50[uM]>
0.01

$$$$
18
  -OEChem-05192314333D
 Structure written by MMmdl.
 41 44  0     0  0  0  0  0  0999 V2000
   -6.3808   12.3686  -12.0119 C   0  0  0  0  0  0  0  0  0  0  0  0
   -6.5112   11.8116  -10.7365 C   0  0  0  0  0  0  0  0  0  0  0  0
   -7.7301   10.5824  -13.0300 C   0  0  0  0  0  0  0  0  0  0  0  0
   -6.9992   11.7782  -13.1263 C   0  0  0  0  0  0  0  0  0  0  0  0
   -7.8250   10.0166  -11.7542 C   0  0  0  0  0  0  0  0  0  0  0  0
   -7.2407   10.6266  -10.6010 C   0  0  0  0  0  0  0  0  0  0  0  0
   -7.6094    9.7513   -9.5103 C   0  0  0  0  0  0  0  0  0  0  0  0
   -8.2849    8.7404   -9.9846 N   0  0  0  0  0  0  0  0  0  0  0  0
   -8.4192    8.8674  -11.2983 N   0  0  0  0  0  0  0  0  0  0  0  0
   -7.3225    9.8872   -8.0242 C   0  0  0  0  0  0  0  0  0  0  0  0
   -4.3834   13.6199  -11.4933 N   0  0  0  0  0  0  0  0  0  0  0  0
   -3.4237   14.7282  -11.5789 C   0  0  0  0  0  0  0  0  0  0  0  0
   -5.5369   13.6139  -12.1980 C   0  0  0  0  0  0  0  0  0  0  0  0
   -5.8771   14.5161  -12.9653 O   0  0  0  0  0  0  0  0  0  0  0  0
   -5.9516   10.5005   -7.7272 C   0  0  0  0  0  0  0  0  0  0  0  0
   -5.8803   11.7722   -7.1539 C   0  0  0  0  0  0  0  0  0  0  0  0
   -4.6129   12.3159   -6.9118 C   0  0  0  0  0  0  0  0  0  0  0  0
   -3.4418   11.5625   -7.2429 C   0  0  0  0  0  0  0  0  0  0  0  0
   -3.5059   10.2842   -7.8062 C   0  0  0  0  0  0  0  0  0  0  0  0
   -4.7935    9.7780   -8.0417 C   0  0  0  0  0  0  0  0  0  0  0  0
   -4.0936   13.5458   -6.3664 C   0  0  0  0  0  0  0  0  0  0  0  0
   -2.7885   13.5288   -6.3742 N   0  0  0  0  0  0  0  0  0  0  0  0
   -2.3831   12.3683   -6.8823 N   0  0  0  0  0  0  0  0  0  0  0  0
   -0.9539   12.1016   -6.9897 C   0  0  0  0  0  0  0  0  0  0  0  0
   -6.0597   12.2849   -9.8771 H   0  0  0  0  0  0  0  0  0  0  0  0
   -8.1927   10.1256  -13.8924 H   0  0  0  0  0  0  0  0  0  0  0  0
   -6.9098   12.2595  -14.0890 H   0  0  0  0  0  0  0  0  0  0  0  0
   -8.6468    7.9839   -9.4398 H   0  0  0  0  0  0  0  0  0  0  0  0
   -8.0161    9.5818   -7.2548 H   0  0  0  0  0  0  0  0  0  0  0  0
   -3.8851   12.7967  -11.7655 H   0  0  0  0  0  0  0  0  0  0  0  0
   -2.5640   14.5209  -10.9247 H   0  0  0  0  0  0  0  0  0  0  0  0
   -3.0770   14.8334  -12.6175 H   0  0  0  0  0  0  0  0  0  0  0  0
   -3.9113   15.6608  -11.2589 H   0  0  0  0  0  0  0  0  0  0  0  0
   -5.2270   15.2086  -12.9486 H   0  0  0  0  0  0  0  0  0  0  0  0
   -6.7769   12.3203   -6.9046 H   0  0  0  0  0  0  0  0  0  0  0  0
   -2.6169    9.7197   -8.0459 H   0  0  0  0  0  0  0  0  0  0  0  0
   -4.8951    8.7966   -8.4810 H   0  0  0  0  0  0  0  0  0  0  0  0
   -4.6981   14.3639   -6.0034 H   0  0  0  0  0  0  0  0  0  0  0  0
   -0.3895   12.9643   -6.6059 H   0  0  0  0  0  0  0  0  0  0  0  0
   -0.7026   11.2076   -6.4002 H   0  0  0  0  0  0  0  0  0  0  0  0
   -0.6910   11.9314   -8.0442 H   0  0  0  0  0  0  0  0  0  0  0  0
  1  2  1  0  0  0  0
  1  4  1  0  0  0  0
  1 13  2  3  0  0  0
  2  6  2  0  0  0  0
  3  4  2  0  0  0  0
  3  5  1  0  0  0  0
  5  6  1  0  0  0  0
  5  9  2  0  0  0  0
  6  7  1  0  0  0  0
  7  8  1  0  0  0  0
  7 10  2  3  0  0  0
  8  9  1  0  0  0  0
 10 15  1  0  0  0  0
 11 12  1  0  0  0  0
 11 13  1  0  0  0  0
 13 14  1  0  0  0  0
 15 16  2  0  0  0  0
 15 20  1  0  0  0  0
 16 17  1  0  0  0  0
 17 18  2  0  0  0  0
 17 21  1  0  0  0  0
 18 19  1  0  0  0  0
 18 23  1  0  0  0  0
 19 20  2  0  0  0  0
 21 22  2  0  0  0  0
 22 23  1  0  0  0  0
 23 24  1  0  0  0  0
  2 25  1  0  0  0  0
  3 26  1  0  0  0  0
  4 27  1  0  0  0  0
  8 28  1  0  0  0  0
 10 29  1  0  0  0  0
 11 30  1  0  0  0  0
 12 31  1  0  0  0  0
 12 32  1  0  0  0  0
 12 33  1  0  0  0  0
 14 34  1  0  0  0  0
 16 35  1  0  0  0  0
 19 36  1  0  0  0  0
 20 37  1  0  0  0  0
 21 38  1  0  0  0  0
 24 39  1  0  0  0  0
 24 40  1  0  0  0  0
 24 41  1  0  0  0  0
M  END
> <Name>
18

> <IC50[uM]>
0.01

$$$$
18
  -OEChem-05192314333D
 Structure written by MMmdl.
 41 44  0     1  0  0  0  0  0999 V2000
   -6.3808   12.3686  -12.0119 C   0  0  0  0  0  0  0  0  0  0  0  0
   -6.5112   11.8116  -10.7365 C   0  0  0  0  0  0  0  0  0  0  0  0
   -7.7301   10.5824  -13.0300 C   0  0  0  0  0  0  0  0  0  0  0  0
   -6.9992   11.7782  -13.1263 C   0  0  0  0  0  0  0  0  0  0  0  0
   -7.8250   10.0166  -11.7542 C   0  0  0  0  0  0  0  0  0  0  0  0
   -7.2407   10.6266  -10.6010 C   0  0  0  0  0  0  0  0  0  0  0  0
   -7.6094    9.7513   -9.5103 C   0  0  0  0  0  0  0  0  0  0  0  0
   -8.2849    8.7404   -9.9846 N   0  0  0  0  0  0  0  0  0  0  0  0
   -8.4192    8.8674  -11.2983 N   0  0  0  0  0  0  0  0  0  0  0  0
   -7.3225    9.8872   -8.0242 C   0  0  0  0  0  0  0  0  0  0  0  0
   -4.3834   13.6199  -11.4933 N   0  0  0  0  0  0  0  0  0  0  0  0
   -3.4237   14.7282  -11.5789 C   0  0  0  0  0  0  0  0  0  0  0  0
   -5.5369   13.6139  -12.1980 C   0  0  3  0  0  0  0  0  0  0  0  0
   -5.8771   14.5161  -12.9653 O   0  0  0  0  0  0  0  0  0  0  0  0
   -5.9516   10.5005   -7.7272 C   0  0  0  0  0  0  0  0  0  0  0  0
   -5.8803   11.7722   -7.1539 C   0  0  0  0  0  0  0  0  0  0  0  0
   -4.6129   12.3159   -6.9118 C   0  0  0  0  0  0  0  0  0  0  0  0
   -3.4418   11.5625   -7.2429 C   0  0  0  0  0  0  0  0  0  0  0  0
   -3.5059   10.2842   -7.8062 C   0  0  0  0  0  0  0  0  0  0  0  0
   -4.7935    9.7780   -8.0417 C   0  0  0  0  0  0  0  0  0  0  0  0
   -4.0936   13.5458   -6.3664 C   0  0  0  0  0  0  0  0  0  0  0  0
   -2.7885   13.5288   -6.3742 N   0  0  0  0  0  0  0  0  0  0  0  0
   -2.3831   12.3683   -6.8823 N   0  0  0  0  0  0  0  0  0  0  0  0
   -0.9539   12.1016   -6.9897 C   0  0  0  0  0  0  0  0  0  0  0  0
   -6.0597   12.2849   -9.8771 H   0  0  0  0  0  0  0  0  0  0  0  0
   -8.1927   10.1256  -13.8924 H   0  0  0  0  0  0  0  0  0  0  0  0
   -6.9098   12.2595  -14.0890 H   0  0  0  0  0  0  0  0  0  0  0  0
   -8.0161    9.5818   -7.2548 H   0  0  0  0  0  0  0  0  0  0  0  0
   -3.8851   12.7967  -11.7655 H   0  0  0  0  0  0  0  0  0  0  0  0
   -2.5640   14.5209  -10.9247 H   0  0  0  0  0  0  0  0  0  0  0  0
   -3.0770   14.8334  -12.6175 H   0  0  0  0  0  0  0  0  0  0  0  0
   -3.9113   15.6608  -11.2589 H   0  0  0  0  0  0  0  0  0  0  0  0
   -6.0614   14.1063  -11.3659 H   0  0  0  0  0  0  0  0  0  0  0  0
   -5.2270   15.2086  -12.9486 H   0  0  0  0  0  0  0  0  0  0  0  0
   -6.7769   12.3203   -6.9046 H   0  0  0  0  0  0  0  0  0  0  0  0
   -2.6169    9.7197   -8.0459 H   0  0  0  0  0  0  0  0  0  0  0  0
   -4.8951    8.7966   -8.4810 H   0  0  0  0  0  0  0  0  0  0  0  0
   -4.6981   14.3639   -6.0034 H   0  0  0  0  0  0  0  0  0  0  0  0
   -0.3895   12.9643   -6.6059 H   0  0  0  0  0  0  0  0  0  0  0  0
   -0.7026   11.2076   -6.4002 H   0  0  0  0  0  0  0  0  0  0  0  0
   -0.6910   11.9314   -8.0442 H   0  0  0  0  0  0  0  0  0  0  0  0
  1  2  2  0  0  0  0
  1  4  1  0  0  0  0
  1 13  1  0  0  0  0
  2  6  1  0  0  0  0
  3  4  2  0  0  0  0
  3  5  1  0  0  0  0
  5  6  2  0  0  0  0
  5  9  1  0  0  0  0
  6  7  1  0  0  0  0
  7  8  1  0  0  0  0
  7 10  2  3  0  0  0
  8  9  2  0  0  0  0
 10 15  1  0  0  0  0
 11 12  1  0  0  0  0
 11 13  1  0  0  0  0
 13 14  1  0  0  0  0
 15 16  2  0  0  0  0
 15 20  1  0  0  0  0
 16 17  1  0  0  0  0
 17 18  2  0  0  0  0
 17 21  1  0  0  0  0
 18 19  1  0  0  0  0
 18 23  1  0  0  0  0
 19 20  2  0  0  0  0
 21 22  2  0  0  0  0
 22 23  1  0  0  0  0
 23 24  1  0  0  0  0
  2 25  1  0  0  0  0
  3 26  1  0  0  0  0
  4 27  1  0  0  0  0
 10 28  1  0  0  0  0
 11 29  1  0  0  0  0
 12 30  1  0  0  0  0
 12 31  1  0  0  0  0
 12 32  1  0  0  0  0
 13 33  1  0  0  0  0
 14 34  1  0  0  0  0
 16 35  1  0  0  0  0
 19 36  1  0  0  0  0
 20 37  1  0  0  0  0
 21 38  1  0  0  0  0
 24 39  1  0  0  0  0
 24 40  1  0  0  0  0
 24 41  1  0  0  0  0
M  END
> <Name>
18

> <IC50[uM]>
0.01

$$$$
18
  -OEChem-05192314333D
 Structure written by MMmdl.
 41 44  0     0  0  0  0  0  0999 V2000
   -6.3808   12.3686  -12.0119 C   0  0  0  0  0  0  0  0  0  0  0  0
   -6.5112   11.8116  -10.7365 C   0  0  0  0  0  0  0  0  0  0  0  0
   -7.7301   10.5824  -13.0300 C   0  0  0  0  0  0  0  0  0  0  0  0
   -6.9992   11.7782  -13.1263 C   0  0  0  0  0  0  0  0  0  0  0  0
   -7.8250   10.0166  -11.7542 C   0  0  0  0  0  0  0  0  0  0  0  0
   -7.2407   10.6266  -10.6010 C   0  0  0  0  0  0  0  0  0  0  0  0
   -7.6094    9.7513   -9.5103 C   0  0  0  0  0  0  0  0  0  0  0  0
   -8.2849    8.7404   -9.9846 N   0  0  0  0  0  0  0  0  0  0  0  0
   -8.4192    8.8674  -11.2983 N   0  0  0  0  0  0  0  0  0  0  0  0
   -7.3225    9.8872   -8.0242 C   0  0  0  0  0  0  0  0  0  0  0  0
   -4.3834   13.6199  -11.4933 N   0  0  0  0  0  0  0  0  0  0  0  0
   -3.4237   14.7282  -11.5789 C   0  0  0  0  0  0  0  0  0  0  0  0
   -5.5369   13.6139  -12.1980 C   0  0  0  0  0  0  0  0  0  0  0  0
   -5.8771   14.5161  -12.9653 O   0  0  0  0  0  0  0  0  0  0  0  0
   -5.9516   10.5005   -7.7272 C   0  0  0  0  0  0  0  0  0  0  0  0
   -5.8803   11.7722   -7.1539 C   0  0  0  0  0  0  0  0  0  0  0  0
   -4.6129   12.3159   -6.9118 C   0  0  0  0  0  0  0  0  0  0  0  0
   -3.4418   11.5625   -7.2429 C   0  0  0  0  0  0  0  0  0  0  0  0
   -3.5059   10.2842   -7.8062 C   0  0  0  0  0  0  0  0  0  0  0  0
   -4.7935    9.7780   -8.0417 C   0  0  0  0  0  0  0  0  0  0  0  0
   -4.0936   13.5458   -6.3664 C   0  0  0  0  0  0  0  0  0  0  0  0
   -2.7885   13.5288   -6.3742 N   0  0  0  0  0  0  0  0  0  0  0  0
   -2.3831   12.3683   -6.8823 N   0  0  0  0  0  0  0  0  0  0  0  0
   -0.9539   12.1016   -6.9897 C   0  0  0  0  0  0  0  0  0  0  0  0
   -6.0597   12.2849   -9.8771 H   0  0  0  0  0  0  0  0  0  0  0  0
   -8.1927   10.1256  -13.8924 H   0  0  0  0  0  0  0  0  0  0  0  0
   -6.9098   12.2595  -14.0890 H   0  0  0  0  0  0  0  0  0  0  0  0
   -8.0964   10.5278   -7.5761 H   0  0  0  0  0  0  0  0  0  0  0  0
   -7.3644    8.8874   -7.5674 H   0  0  0  0  0  0  0  0  0  0  0  0
   -3.8851   12.7967  -11.7655 H   0  0  0  0  0  0  0  0  0  0  0  0
   -2.5640   14.5209  -10.9247 H   0  0  0  0  0  0  0  0  0  0  0  0
   -3.0770   14.8334  -12.6175 H   0  0  0  0  0  0  0  0  0  0  0  0
   -3.9113   15.6608  -11.2589 H   0  0  0  0  0  0  0  0  0  0  0  0
   -5.2270   15.2086  -12.9486 H   0  0  0  0  0  0  0  0  0  0  0  0
   -6.7769   12.3203   -6.9046 H   0  0  0  0  0  0  0  0  0  0  0  0
   -2.6169    9.7197   -8.0459 H   0  0  0  0  0  0  0  0  0  0  0  0
   -4.8951    8.7966   -8.4810 H   0  0  0  0  0  0  0  0  0  0  0  0
   -4.6981   14.3639   -6.0034 H   0  0  0  0  0  0  0  0  0  0  0  0
   -0.3895   12.9643   -6.6059 H   0  0  0  0  0  0  0  0  0  0  0  0
   -0.7026   11.2076   -6.4002 H   0  0  0  0  0  0  0  0  0  0  0  0
   -0.6910   11.9314   -8.0442 H   0  0  0  0  0  0  0  0  0  0  0  0
  1  2  1  0  0  0  0
  1  4  1  0  0  0  0
  1 13  2  3  0  0  0
  2  6  2  0  0  0  0
  3  4  2  0  0  0  0
  3  5  1  0  0  0  0
  5  6  1  0  0  0  0
  5  9  2  0  0  0  0
  6  7  1  0  0  0  0
  7  8  2  0  0  0  0
  7 10  1  0  0  0  0
  8  9  1  0  0  0  0
 10 15  1  0  0  0  0
 11 12  1  0  0  0  0
 11 13  1  0  0  0  0
 13 14  1  0  0  0  0
 15 16  2  0  0  0  0
 15 20  1  0  0  0  0
 16 17  1  0  0  0  0
 17 18  2  0  0  0  0
 17 21  1  0  0  0  0
 18 19  1  0  0  0  0
 18 23  1  0  0  0  0
 19 20  2  0  0  0  0
 21 22  2  0  0  0  0
 22 23  1  0  0  0  0
 23 24  1  0  0  0  0
  2 25  1  0  0  0  0
  3 26  1  0  0  0  0
  4 27  1  0  0  0  0
 10 28  1  0  0  0  0
 10 29  1  0  0  0  0
 11 30  1  0  0  0  0
 12 31  1  0  0  0  0
 12 32  1  0  0  0  0
 12 33  1  0  0  0  0
 14 34  1  0  0  0  0
 16 35  1  0  0  0  0
 19 36  1  0  0  0  0
 20 37  1  0  0  0  0
 21 38  1  0  0  0  0
 24 39  1  0  0  0  0
 24 40  1  0  0  0  0
 24 41  1  0  0  0  0
M  END
> <Name>
18

> <IC50[uM]>
0.01

$$$$
18
  -OEChem-05192314333D
 Structure written by MMmdl.
 41 44  0     0  0  0  0  0  0999 V2000
   -6.3808   12.3686  -12.0119 C   0  0  0  0  0  0  0  0  0  0  0  0
   -6.5112   11.8116  -10.7365 C   0  0  0  0  0  0  0  0  0  0  0  0
   -7.7301   10.5824  -13.0300 C   0  0  0  0  0  0  0  0  0  0  0  0
   -6.9992   11.7782  -13.1263 C   0  0  0  0  0  0  0  0  0  0  0  0
   -7.8250   10.0166  -11.7542 C   0  0  0  0  0  0  0  0  0  0  0  0
   -7.2407   10.6266  -10.6010 C   0  0  0  0  0  0  0  0  0  0  0  0
   -7.6094    9.7513   -9.5103 C   0  0  0  0  0  0  0  0  0  0  0  0
   -8.2849    8.7404   -9.9846 N   0  0  0  0  0  0  0  0  0  0  0  0
   -8.4192    8.8674  -11.2983 N   0  0  0  0  0  0  0  0  0  0  0  0
   -7.3225    9.8872   -8.0242 C   0  0  0  0  0  0  0  0  0  0  0  0
   -4.3834   13.6199  -11.4933 N   0  0  0  0  0  0  0  0  0  0  0  0
   -3.4237   14.7282  -11.5789 C   0  0  0  0  0  0  0  0  0  0  0  0
   -5.5369   13.6139  -12.1980 C   0  0  0  0  0  0  0  0  0  0  0  0
   -5.8771   14.5161  -12.9653 O   0  0  0  0  0  0  0  0  0  0  0  0
   -5.9516   10.5005   -7.7272 C   0  0  0  0  0  0  0  0  0  0  0  0
   -5.8803   11.7722   -7.1539 C   0  0  0  0  0  0  0  0  0  0  0  0
   -4.6129   12.3159   -6.9118 C   0  0  0  0  0  0  0  0  0  0  0  0
   -3.4418   11.5625   -7.2429 C   0  0  0  0  0  0  0  0  0  0  0  0
   -3.5059   10.2842   -7.8062 C   0  0  0  0  0  0  0  0  0  0  0  0
   -4.7935    9.7780   -8.0417 C   0  0  0  0  0  0  0  0  0  0  0  0
   -4.0936   13.5458   -6.3664 C   0  0  0  0  0  0  0  0  0  0  0  0
   -2.7885   13.5288   -6.3742 N   0  0  0  0  0  0  0  0  0  0  0  0
   -2.3831   12.3683   -6.8823 N   0  0  0  0  0  0  0  0  0  0  0  0
   -0.9539   12.1016   -6.9897 C   0  0  0  0  0  0  0  0  0  0  0  0
   -6.0597   12.2849   -9.8771 H   0  0  0  0  0  0  0  0  0  0  0  0
   -8.1927   10.1256  -13.8924 H   0  0  0  0  0  0  0  0  0  0  0  0
   -6.9098   12.2595  -14.0890 H   0  0  0  0  0  0  0  0  0  0  0  0
   -8.0161    9.5818   -7.2548 H   0  0  0  0  0  0  0  0  0  0  0  0
   -3.8851   12.7967  -11.7655 H   0  0  0  0  0  0  0  0  0  0  0  0
   -2.5640   14.5209  -10.9247 H   0  0  0  0  0  0  0  0  0  0  0  0
   -3.0770   14.8334  -12.6175 H   0  0  0  0  0  0  0  0  0  0  0  0
   -3.9113   15.6608  -11.2589 H   0  0  0  0  0  0  0  0  0  0  0  0
   -5.2270   15.2086  -12.9486 H   0  0  0  0  0  0  0  0  0  0  0  0
   -6.4095   12.4637   -7.8260 H   0  0  0  0  0  0  0  0  0  0  0  0
   -6.4055   11.7253   -6.1885 H   0  0  0  0  0  0  0  0  0  0  0  0
   -2.6169    9.7197   -8.0459 H   0  0  0  0  0  0  0  0  0  0  0  0
   -4.8951    8.7966   -8.4810 H   0  0  0  0  0  0  0  0  0  0  0  0
   -4.6981   14.3639   -6.0034 H   0  0  0  0  0  0  0  0  0  0  0  0
   -0.3895   12.9643   -6.6059 H   0  0  0  0  0  0  0  0  0  0  0  0
   -0.7026   11.2076   -6.4002 H   0  0  0  0  0  0  0  0  0  0  0  0
   -0.6910   11.9314   -8.0442 H   0  0  0  0  0  0  0  0  0  0  0  0
  1  2  1  0  0  0  0
  1  4  1  0  0  0  0
  1 13  2  3  0  0  0
  2  6  2  0  0  0  0
  3  4  2  0  0  0  0
  3  5  1  0  0  0  0
  5  6  1  0  0  0  0
  5  9  2  0  0  0  0
  6  7  1  0  0  0  0
  7  8  2  0  0  0  0
  7 10  1  0  0  0  0
  8  9  1  0  0  0  0
 10 15  2  3  0  0  0
 11 12  1  0  0  0  0
 11 13  1  0  0  0  0
 13 14  1  0  0  0  0
 15 16  1  0  0  0  0
 15 20  1  0  0  0  0
 16 17  1  0  0  0  0
 17 18  2  0  0  0  0
 17 21  1  0  0  0  0
 18 19  1  0  0  0  0
 18 23  1  0  0  0  0
 19 20  2  0  0  0  0
 21 22  2  0  0  0  0
 22 23  1  0  0  0  0
 23 24  1  0  0  0  0
  2 25  1  0  0  0  0
  3 26  1  0  0  0  0
  4 27  1  0  0  0  0
 10 28  1  0  0  0  0
 11 29  1  0  0  0  0
 12 30  1  0  0  0  0
 12 31  1  0  0  0  0
 12 32  1  0  0  0  0
 14 33  1  0  0  0  0
 16 34  1  0  0  0  0
 16 35  1  0  0  0  0
 19 36  1  0  0  0  0
 20 37  1  0  0  0  0
 21 38  1  0  0  0  0
 24 39  1  0  0  0  0
 24 40  1  0  0  0  0
 24 41  1  0  0  0  0
M  END
> <Name>
18

> <IC50[uM]>
0.01

$$$$
18
  -OEChem-05192314333D
 Structure written by MMmdl.
 41 44  0     0  0  0  0  0  0999 V2000
   -6.3808   12.3686  -12.0119 C   0  0  0  0  0  0  0  0  0  0  0  0
   -6.5112   11.8116  -10.7365 C   0  0  0  0  0  0  0  0  0  0  0  0
   -7.7301   10.5824  -13.0300 C   0  0  0  0  0  0  0  0  0  0  0  0
   -6.9992   11.7782  -13.1263 C   0  0  0  0  0  0  0  0  0  0  0  0
   -7.8250   10.0166  -11.7542 C   0  0  0  0  0  0  0  0  0  0  0  0
   -7.2407   10.6266  -10.6010 C   0  0  0  0  0  0  0  0  0  0  0  0
   -7.6094    9.7513   -9.5103 C   0  0  0  0  0  0  0  0  0  0  0  0
   -8.2849    8.7404   -9.9846 N   0  0  0  0  0  0  0  0  0  0  0  0
   -8.4192    8.8674  -11.2983 N   0  0  0  0  0  0  0  0  0  0  0  0
   -7.3225    9.8872   -8.0242 C   0  0  0  0  0  0  0  0  0  0  0  0
   -4.3834   13.6199  -11.4933 N   0  0  0  0  0  0  0  0  0  0  0  0
   -3.4237   14.7282  -11.5789 C   0  0  0  0  0  0  0  0  0  0  0  0
   -5.5369   13.6139  -12.1980 C   0  0  0  0  0  0  0  0  0  0  0  0
   -5.8771   14.5161  -12.9653 O   0  0  0  0  0  0  0  0  0  0  0  0
   -5.9516   10.5005   -7.7272 C   0  0  0  0  0  0  0  0  0  0  0  0
   -5.8803   11.7722   -7.1539 C   0  0  0  0  0  0  0  0  0  0  0  0
   -4.6129   12.3159   -6.9118 C   0  0  0  0  0  0  0  0  0  0  0  0
   -3.4418   11.5625   -7.2429 C   0  0  0  0  0  0  0  0  0  0  0  0
   -3.5059   10.2842   -7.8062 C   0  0  0  0  0  0  0  0  0  0  0  0
   -4.7935    9.7780   -8.0417 C   0  0  0  0  0  0  0  0  0  0  0  0
   -4.0936   13.5458   -6.3664 C   0  0  0  0  0  0  0  0  0  0  0  0
   -2.7885   13.5288   -6.3742 N   0  0  0  0  0  0  0  0  0  0  0  0
   -2.3831   12.3683   -6.8823 N   0  0  0  0  0  0  0  0  0  0  0  0
   -0.9539   12.1016   -6.9897 C   0  0  0  0  0  0  0  0  0  0  0  0
   -6.0597   12.2849   -9.8771 H   0  0  0  0  0  0  0  0  0  0  0  0
   -8.1927   10.1256  -13.8924 H   0  0  0  0  0  0  0  0  0  0  0  0
   -6.9098   12.2595  -14.0890 H   0  0  0  0  0  0  0  0  0  0  0  0
   -8.0161    9.5818   -7.2548 H   0  0  0  0  0  0  0  0  0  0  0  0
   -3.8851   12.7967  -11.7655 H   0  0  0  0  0  0  0  0  0  0  0  0
   -2.5640   14.5209  -10.9247 H   0  0  0  0  0  0  0  0  0  0  0  0
   -3.0770   14.8334  -12.6175 H   0  0  0  0  0  0  0  0  0  0  0  0
   -3.9113   15.6608  -11.2589 H   0  0  0  0  0  0  0  0  0  0  0  0
   -5.2270   15.2086  -12.9486 H   0  0  0  0  0  0  0  0  0  0  0  0
   -6.7769   12.3203   -6.9046 H   0  0  0  0  0  0  0  0  0  0  0  0
   -2.6169    9.7197   -8.0459 H   0  0  0  0  0  0  0  0  0  0  0  0
   -4.8591    8.8345   -7.4800 H   0  0  0  0  0  0  0  0  0  0  0  0
   -4.8473    9.5673   -9.1200 H   0  0  0  0  0  0  0  0  0  0  0  0
   -4.6981   14.3639   -6.0034 H   0  0  0  0  0  0  0  0  0  0  0  0
   -0.3895   12.9643   -6.6059 H   0  0  0  0  0  0  0  0  0  0  0  0
   -0.7026   11.2076   -6.4002 H   0  0  0  0  0  0  0  0  0  0  0  0
   -0.6910   11.9314   -8.0442 H   0  0  0  0  0  0  0  0  0  0  0  0
  1  2  1  0  0  0  0
  1  4  1  0  0  0  0
  1 13  2  3  0  0  0
  2  6  2  0  0  0  0
  3  4  2  0  0  0  0
  3  5  1  0  0  0  0
  5  6  1  0  0  0  0
  5  9  2  0  0  0  0
  6  7  1  0  0  0  0
  7  8  2  0  0  0  0
  7 10  1  0  0  0  0
  8  9  1  0  0  0  0
 10 15  2  3  0  0  0
 11 12  1  0  0  0  0
 11 13  1  0  0  0  0
 13 14  1  0  0  0  0
 15 16  1  0  0  0  0
 15 20  1  0  0  0  0
 16 17  2  0  0  0  0
 17 18  1  0  0  0  0
 17 21  1  0  0  0  0
 18 19  2  0  0  0  0
 18 23  1  0  0  0  0
 19 20  1  0  0  0  0
 21 22  2  0  0  0  0
 22 23  1  0  0  0  0
 23 24  1  0  0  0  0
  2 25  1  0  0  0  0
  3 26  1  0  0  0  0
  4 27  1  0  0  0  0
 10 28  1  0  0  0  0
 11 29  1  0  0  0  0
 12 30  1  0  0  0  0
 12 31  1  0  0  0  0
 12 32  1  0  0  0  0
 14 33  1  0  0  0  0
 16 34  1  0  0  0  0
 19 35  1  0  0  0  0
 20 36  1  0  0  0  0
 20 37  1  0  0  0  0
 21 38  1  0  0  0  0
 24 39  1  0  0  0  0
 24 40  1  0  0  0  0
 24 41  1  0  0  0  0
M  END
> <Name>
18

> <IC50[uM]>
0.01

$$$$
18
  -OEChem-05192314333D
 Structure written by MMmdl.
 41 44  0     1  0  0  0  0  0999 V2000
   -6.3808   12.3686  -12.0119 C   0  0  0  0  0  0  0  0  0  0  0  0
   -6.5112   11.8116  -10.7365 C   0  0  0  0  0  0  0  0  0  0  0  0
   -7.7301   10.5824  -13.0300 C   0  0  0  0  0  0  0  0  0  0  0  0
   -6.9992   11.7782  -13.1263 C   0  0  0  0  0  0  0  0  0  0  0  0
   -7.8250   10.0166  -11.7542 C   0  0  3  0  0  0  0  0  0  0  0  0
   -7.2407   10.6266  -10.6010 C   0  0  0  0  0  0  0  0  0  0  0  0
   -7.6094    9.7513   -9.5103 C   0  0  0  0  0  0  0  0  0  0  0  0
   -8.2849    8.7404   -9.9846 N   0  0  0  0  0  0  0  0  0  0  0  0
   -8.4192    8.8674  -11.2983 N   0  0  0  0  0  0  0  0  0  0  0  0
   -7.3225    9.8872   -8.0242 C   0  0  0  0  0  0  0  0  0  0  0  0
   -4.3834   13.6199  -11.4933 N   0  0  0  0  0  0  0  0  0  0  0  0
   -3.4237   14.7282  -11.5789 C   0  0  0  0  0  0  0  0  0  0  0  0
   -5.5369   13.6139  -12.1980 C   0  0  0  0  0  0  0  0  0  0  0  0
   -5.8771   14.5161  -12.9653 O   0  0  0  0  0  0  0  0  0  0  0  0
   -5.9516   10.5005   -7.7272 C   0  0  0  0  0  0  0  0  0  0  0  0
   -5.8803   11.7722   -7.1539 C   0  0  0  0  0  0  0  0  0  0  0  0
   -4.6129   12.3159   -6.9118 C   0  0  0  0  0  0  0  0  0  0  0  0
   -3.4418   11.5625   -7.2429 C   0  0  0  0  0  0  0  0  0  0  0  0
   -3.5059   10.2842   -7.8062 C   0  0  0  0  0  0  0  0  0  0  0  0
   -4.7935    9.7780   -8.0417 C   0  0  0  0  0  0  0  0  0  0  0  0
   -4.0936   13.5458   -6.3664 C   0  0  0  0  0  0  0  0  0  0  0  0
   -2.7885   13.5288   -6.3742 N   0  0  0  0  0  0  0  0  0  0  0  0
   -2.3831   12.3683   -6.8823 N   0  0  0  0  0  0  0  0  0  0  0  0
   -0.9539   12.1016   -6.9897 C   0  0  0  0  0  0  0  0  0  0  0  0
   -6.0597   12.2849   -9.8771 H   0  0  0  0  0  0  0  0  0  0  0  0
   -8.1927   10.1256  -13.8924 H   0  0  0  0  0  0  0  0  0  0  0  0
   -6.9098   12.2595  -14.0890 H   0  0  0  0  0  0  0  0  0  0  0  0
   -8.7581   10.5712  -11.5763 H   0  0  0  0  0  0  0  0  0  0  0  0
   -8.0161    9.5818   -7.2548 H   0  0  0  0  0  0  0  0  0  0  0  0
   -3.8851   12.7967  -11.7655 H   0  0  0  0  0  0  0  0  0  0  0  0
   -2.5640   14.5209  -10.9247 H   0  0  0  0  0  0  0  0  0  0  0  0
   -3.0770   14.8334  -12.6175 H   0  0  0  0  0  0  0  0  0  0  0  0
   -3.9113   15.6608  -11.2589 H   0  0  0  0  0  0  0  0  0  0  0  0
   -5.2270   15.2086  -12.9486 H   0  0  0  0  0  0  0  0  0  0  0  0
   -6.7769   12.3203   -6.9046 H   0  0  0  0  0  0  0  0  0  0  0  0
   -2.6169    9.7197   -8.0459 H   0  0  0  0  0  0  0  0  0  0  0  0
   -4.8951    8.7966   -8.4810 H   0  0  0  0  0  0  0  0  0  0  0  0
   -4.6981   14.3639   -6.0034 H   0  0  0  0  0  0  0  0  0  0  0  0
   -0.3895   12.9643   -6.6059 H   0  0  0  0  0  0  0  0  0  0  0  0
   -0.7026   11.2076   -6.4002 H   0  0  0  0  0  0  0  0  0  0  0  0
   -0.6910   11.9314   -8.0442 H   0  0  0  0  0  0  0  0  0  0  0  0
  1  2  1  0  0  0  0
  1  4  1  0  0  0  0
  1 13  2  3  0  0  0
  2  6  2  0  0  0  0
  3  4  2  0  0  0  0
  3  5  1  0  0  0  0
  5  6  1  0  0  0  0
  5  9  1  0  0  0  0
  6  7  1  0  0  0  0
  7  8  1  0  0  0  0
  7 10  2  3  0  0  0
  8  9  2  0  0  0  0
 10 15  1  0  0  0  0
 11 12  1  0  0  0  0
 11 13  1  0  0  0  0
 13 14  1  0  0  0  0
 15 16  2  0  0  0  0
 15 20  1  0  0  0  0
 16 17  1  0  0  0  0
 17 18  2  0  0  0  0
 17 21  1  0  0  0  0
 18 19  1  0  0  0  0
 18 23  1  0  0  0  0
 19 20  2  0  0  0  0
 21 22  2  0  0  0  0
 22 23  1  0  0  0  0
 23 24  1  0  0  0  0
  2 25  1  0  0  0  0
  3 26  1  0  0  0  0
  4 27  1  0  0  0  0
  5 28  1  0  0  0  0
 10 29  1  0  0  0  0
 11 30  1  0  0  0  0
 12 31  1  0  0  0  0
 12 32  1  0  0  0  0
 12 33  1  0  0  0  0
 14 34  1  0  0  0  0
 16 35  1  0  0  0  0
 19 36  1  0  0  0  0
 20 37  1  0  0  0  0
 21 38  1  0  0  0  0
 24 39  1  0  0  0  0
 24 40  1  0  0  0  0
 24 41  1  0  0  0  0
M  END
> <Name>
18

> <IC50[uM]>
0.01

$$$$
18
  -OEChem-05192314333D
 Structure written by MMmdl.
 41 44  0     0  0  0  0  0  0999 V2000
   -6.3808   12.3686  -12.0119 C   0  0  0  0  0  0  0  0  0  0  0  0
   -6.5112   11.8116  -10.7365 C   0  0  0  0  0  0  0  0  0  0  0  0
   -7.7301   10.5824  -13.0300 C   0  0  0  0  0  0  0  0  0  0  0  0
   -6.9992   11.7782  -13.1263 C   0  0  0  0  0  0  0  0  0  0  0  0
   -7.8250   10.0166  -11.7542 C   0  0  0  0  0  0  0  0  0  0  0  0
   -7.2407   10.6266  -10.6010 C   0  0  0  0  0  0  0  0  0  0  0  0
   -7.6094    9.7513   -9.5103 C   0  0  0  0  0  0  0  0  0  0  0  0
   -8.2849    8.7404   -9.9846 N   0  0  0  0  0  0  0  0  0  0  0  0
   -8.4192    8.8674  -11.2983 N   0  0  0  0  0  0  0  0  0  0  0  0
   -7.3225    9.8872   -8.0242 C   0  0  0  0  0  0  0  0  0  0  0  0
   -4.3834   13.6199  -11.4933 N   0  0  0  0  0  0  0  0  0  0  0  0
   -3.4237   14.7282  -11.5789 C   0  0  0  0  0  0  0  0  0  0  0  0
   -5.5369   13.6139  -12.1980 C   0  0  0  0  0  0  0  0  0  0  0  0
   -5.8771   14.5161  -12.9653 O   0  0  0  0  0  0  0  0  0  0  0  0
   -5.9516   10.5005   -7.7272 C   0  0  0  0  0  0  0  0  0  0  0  0
   -5.8803   11.7722   -7.1539 C   0  0  0  0  0  0  0  0  0  0  0  0
   -4.6129   12.3159   -6.9118 C   0  0  0  0  0  0  0  0  0  0  0  0
   -3.4418   11.5625   -7.2429 C   0  0  0  0  0  0  0  0  0  0  0  0
   -3.5059   10.2842   -7.8062 C   0  0  0  0  0  0  0  0  0  0  0  0
   -4.7935    9.7780   -8.0417 C   0  0  0  0  0  0  0  0  0  0  0  0
   -4.0936   13.5458   -6.3664 C   0  0  0  0  0  0  0  0  0  0  0  0
   -2.7885   13.5288   -6.3742 N   0  0  0  0  0  0  0  0  0  0  0  0
   -2.3831   12.3683   -6.8823 N   0  0  0  0  0  0  0  0  0  0  0  0
   -0.9539   12.1016   -6.9897 C   0  0  0  0  0  0  0  0  0  0  0  0
   -6.0597   12.2849   -9.8771 H   0  0  0  0  0  0  0  0  0  0  0  0
   -8.1927   10.1256  -13.8924 H   0  0  0  0  0  0  0  0  0  0  0  0
   -7.6938   12.5312  -13.5268 H   0  0  0  0  0  0  0  0  0  0  0  0
   -6.1994   11.5912  -13.8580 H   0  0  0  0  0  0  0  0  0  0  0  0
   -8.0161    9.5818   -7.2548 H   0  0  0  0  0  0  0  0  0  0  0  0
   -3.8851   12.7967  -11.7655 H   0  0  0  0  0  0  0  0  0  0  0  0
   -2.5640   14.5209  -10.9247 H   0  0  0  0  0  0  0  0  0  0  0  0
   -3.0770   14.8334  -12.6175 H   0  0  0  0  0  0  0  0  0  0  0  0
   -3.9113   15.6608  -11.2589 H   0  0  0  0  0  0  0  0  0  0  0  0
   -5.2270   15.2086  -12.9486 H   0  0  0  0  0  0  0  0  0  0  0  0
   -6.7769   12.3203   -6.9046 H   0  0  0  0  0  0  0  0  0  0  0  0
   -2.6169    9.7197   -8.0459 H   0  0  0  0  0  0  0  0  0  0  0  0
   -4.8951    8.7966   -8.4810 H   0  0  0  0  0  0  0  0  0  0  0  0
   -4.6981   14.3639   -6.0034 H   0  0  0  0  0  0  0  0  0  0  0  0
   -0.3895   12.9643   -6.6059 H   0  0  0  0  0  0  0  0  0  0  0  0
   -0.7026   11.2076   -6.4002 H   0  0  0  0  0  0  0  0  0  0  0  0
   -0.6910   11.9314   -8.0442 H   0  0  0  0  0  0  0  0  0  0  0  0
  1  2  1  0  0  0  0
  1  4  1  0  0  0  0
  1 13  2  3  0  0  0
  2  6  2  0  0  0  0
  3  4  1  0  0  0  0
  3  5  2  0  0  0  0
  5  6  1  0  0  0  0
  5  9  1  0  0  0  0
  6  7  1  0  0  0  0
  7  8  1  0  0  0  0
  7 10  2  3  0  0  0
  8  9  2  0  0  0  0
 10 15  1  0  0  0  0
 11 12  1  0  0  0  0
 11 13  1  0  0  0  0
 13 14  1  0  0  0  0
 15 16  2  0  0  0  0
 15 20  1  0  0  0  0
 16 17  1  0  0  0  0
 17 18  2  0  0  0  0
 17 21  1  0  0  0  0
 18 19  1  0  0  0  0
 18 23  1  0  0  0  0
 19 20  2  0  0  0  0
 21 22  2  0  0  0  0
 22 23  1  0  0  0  0
 23 24  1  0  0  0  0
  2 25  1  0  0  0  0
  3 26  1  0  0  0  0
  4 27  1  0  0  0  0
  4 28  1  0  0  0  0
 10 29  1  0  0  0  0
 11 30  1  0  0  0  0
 12 31  1  0  0  0  0
 12 32  1  0  0  0  0
 12 33  1  0  0  0  0
 14 34  1  0  0  0  0
 16 35  1  0  0  0  0
 19 36  1  0  0  0  0
 20 37  1  0  0  0  0
 21 38  1  0  0  0  0
 24 39  1  0  0  0  0
 24 40  1  0  0  0  0
 24 41  1  0  0  0  0
M  END
> <Name>
18

> <IC50[uM]>
0.01

$$$$
18
  -OEChem-05192314333D
 Structure written by MMmdl.
 41 44  0     0  0  0  0  0  0999 V2000
   -6.3808   12.3686  -12.0119 C   0  0  0  0  0  0  0  0  0  0  0  0
   -6.5112   11.8116  -10.7365 C   0  0  0  0  0  0  0  0  0  0  0  0
   -7.7301   10.5824  -13.0300 C   0  0  0  0  0  0  0  0  0  0  0  0
   -6.9992   11.7782  -13.1263 C   0  0  0  0  0  0  0  0  0  0  0  0
   -7.8250   10.0166  -11.7542 C   0  0  0  0  0  0  0  0  0  0  0  0
   -7.2407   10.6266  -10.6010 C   0  0  0  0  0  0  0  0  0  0  0  0
   -7.6094    9.7513   -9.5103 C   0  0  0  0  0  0  0  0  0  0  0  0
   -8.2849    8.7404   -9.9846 N   0  0  0  0  0  0  0  0  0  0  0  0
   -8.4192    8.8674  -11.2983 N   0  0  0  0  0  0  0  0  0  0  0  0
   -7.3225    9.8872   -8.0242 C   0  0  0  0  0  0  0  0  0  0  0  0
   -4.3834   13.6199  -11.4933 N   0  0  0  0  0  0  0  0  0  0  0  0
   -3.4237   14.7282  -11.5789 C   0  0  0  0  0  0  0  0  0  0  0  0
   -5.5369   13.6139  -12.1980 C   0  0  0  0  0  0  0  0  0  0  0  0
   -5.8771   14.5161  -12.9653 O   0  0  0  0  0  0  0  0  0  0  0  0
   -5.9516   10.5005   -7.7272 C   0  0  0  0  0  0  0  0  0  0  0  0
   -5.8803   11.7722   -7.1539 C   0  0  0  0  0  0  0  0  0  0  0  0
   -4.6129   12.3159   -6.9118 C   0  0  0  0  0  0  0  0  0  0  0  0
   -3.4418   11.5625   -7.2429 C   0  0  0  0  0  0  0  0  0  0  0  0
   -3.5059   10.2842   -7.8062 C   0  0  0  0  0  0  0  0  0  0  0  0
   -4.7935    9.7780   -8.0417 C   0  0  0  0  0  0  0  0  0  0  0  0
   -4.0936   13.5458   -6.3664 C   0  0  0  0  0  0  0  0  0  0  0  0
   -2.7885   13.5288   -6.3742 N   0  0  0  0  0  0  0  0  0  0  0  0
   -2.3831   12.3683   -6.8823 N   0  0  0  0  0  0  0  0  0  0  0  0
   -0.9539   12.1016   -6.9897 C   0  0  0  0  0  0  0  0  0  0  0  0
   -5.4959   11.6133  -10.3626 H   0  0  0  0  0  0  0  0  0  0  0  0
   -6.9955   12.5665  -10.0997 H   0  0  0  0  0  0  0  0  0  0  0  0
   -8.1927   10.1256  -13.8924 H   0  0  0  0  0  0  0  0  0  0  0  0
   -6.9098   12.2595  -14.0890 H   0  0  0  0  0  0  0  0  0  0  0  0
   -8.0161    9.5818   -7.2548 H   0  0  0  0  0  0  0  0  0  0  0  0
   -3.8851   12.7967  -11.7655 H   0  0  0  0  0  0  0  0  0  0  0  0
   -2.5640   14.5209  -10.9247 H   0  0  0  0  0  0  0  0  0  0  0  0
   -3.0770   14.8334  -12.6175 H   0  0  0  0  0  0  0  0  0  0  0  0
   -3.9113   15.6608  -11.2589 H   0  0  0  0  0  0  0  0  0  0  0  0
   -5.2270   15.2086  -12.9486 H   0  0  0  0  0  0  0  0  0  0  0  0
   -6.7769   12.3203   -6.9046 H   0  0  0  0  0  0  0  0  0  0  0  0
   -2.6169    9.7197   -8.0459 H   0  0  0  0  0  0  0  0  0  0  0  0
   -4.8951    8.7966   -8.4810 H   0  0  0  0  0  0  0  0  0  0  0  0
   -4.6981   14.3639   -6.0034 H   0  0  0  0  0  0  0  0  0  0  0  0
   -0.3895   12.9643   -6.6059 H   0  0  0  0  0  0  0  0  0  0  0  0
   -0.7026   11.2076   -6.4002 H   0  0  0  0  0  0  0  0  0  0  0  0
   -0.6910   11.9314   -8.0442 H   0  0  0  0  0  0  0  0  0  0  0  0
  1  2  1  0  0  0  0
  1  4  1  0  0  0  0
  1 13  2  3  0  0  0
  2  6  1  0  0  0  0
  3  4  2  0  0  0  0
  3  5  1  0  0  0  0
  5  6  2  0  0  0  0
  5  9  1  0  0  0  0
  6  7  1  0  0  0  0
  7  8  1  0  0  0  0
  7 10  2  3  0  0  0
  8  9  2  0  0  0  0
 10 15  1  0  0  0  0
 11 12  1  0  0  0  0
 11 13  1  0  0  0  0
 13 14  1  0  0  0  0
 15 16  2  0  0  0  0
 15 20  1  0  0  0  0
 16 17  1  0  0  0  0
 17 18  2  0  0  0  0
 17 21  1  0  0  0  0
 18 19  1  0  0  0  0
 18 23  1  0  0  0  0
 19 20  2  0  0  0  0
 21 22  2  0  0  0  0
 22 23  1  0  0  0  0
 23 24  1  0  0  0  0
  2 25  1  0  0  0  0
  2 26  1  0  0  0  0
  3 27  1  0  0  0  0
  4 28  1  0  0  0  0
 10 29  1  0  0  0  0
 11 30  1  0  0  0  0
 12 31  1  0  0  0  0
 12 32  1  0  0  0  0
 12 33  1  0  0  0  0
 14 34  1  0  0  0  0
 16 35  1  0  0  0  0
 19 36  1  0  0  0  0
 20 37  1  0  0  0  0
 21 38  1  0  0  0  0
 24 39  1  0  0  0  0
 24 40  1  0  0  0  0
 24 41  1  0  0  0  0
M  END
> <Name>
18

> <IC50[uM]>
0.01

$$$$
18
  -OEChem-05192314333D
 Structure written by MMmdl.
 41 44  0     1  0  0  0  0  0999 V2000
   -6.3808   12.3686  -12.0119 C   0  0  0  0  0  0  0  0  0  0  0  0
   -6.5112   11.8116  -10.7365 C   0  0  0  0  0  0  0  0  0  0  0  0
   -7.7301   10.5824  -13.0300 C   0  0  0  0  0  0  0  0  0  0  0  0
   -6.9992   11.7782  -13.1263 C   0  0  0  0  0  0  0  0  0  0  0  0
   -7.8250   10.0166  -11.7542 C   0  0  0  0  0  0  0  0  0  0  0  0
   -7.2407   10.6266  -10.6010 C   0  0  0  0  0  0  0  0  0  0  0  0
   -7.6094    9.7513   -9.5103 C   0  0  0  0  0  0  0  0  0  0  0  0
   -8.2849    8.7404   -9.9846 N   0  0  0  0  0  0  0  0  0  0  0  0
   -8.4192    8.8674  -11.2983 N   0  0  0  0  0  0  0  0  0  0  0  0
   -7.3225    9.8872   -8.0242 C   0  0  0  0  0  0  0  0  0  0  0  0
   -4.3834   13.6199  -11.4933 N   0  0  0  0  0  0  0  0  0  0  0  0
   -3.4237   14.7282  -11.5789 C   0  0  0  0  0  0  0  0  0  0  0  0
   -5.5369   13.6139  -12.1980 C   0  0  0  0  0  0  0  0  0  0  0  0
   -5.8771   14.5161  -12.9653 O   0  0  0  0  0  0  0  0  0  0  0  0
   -5.9516   10.5005   -7.7272 C   0  0  0  0  0  0  0  0  0  0  0  0
   -5.8803   11.7722   -7.1539 C   0  0  0  0  0  0  0  0  0  0  0  0
   -4.6129   12.3159   -6.9118 C   0  0  0  0  0  0  0  0  0  0  0  0
   -3.4418   11.5625   -7.2429 C   0  0  3  0  0  0  0  0  0  0  0  0
   -3.5059   10.2842   -7.8062 C   0  0  0  0  0  0  0  0  0  0  0  0
   -4.7935    9.7780   -8.0417 C   0  0  0  0  0  0  0  0  0  0  0  0
   -4.0936   13.5458   -6.3664 C   0  0  0  0  0  0  0  0  0  0  0  0
   -2.7885   13.5288   -6.3742 N   0  0  0  0  0  0  0  0  0  0  0  0
   -2.3831   12.3683   -6.8823 N   0  0  3  0  0  0  0  0  0  0  0  0
   -0.9539   12.1016   -6.9897 C   0  0  0  0  0  0  0  0  0  0  0  0
   -6.0597   12.2849   -9.8771 H   0  0  0  0  0  0  0  0  0  0  0  0
   -8.1927   10.1256  -13.8924 H   0  0  0  0  0  0  0  0  0  0  0  0
   -6.9098   12.2595  -14.0890 H   0  0  0  0  0  0  0  0  0  0  0  0
   -8.0161    9.5818   -7.2548 H   0  0  0  0  0  0  0  0  0  0  0  0
   -3.8851   12.7967  -11.7655 H   0  0  0  0  0  0  0  0  0  0  0  0
   -2.5640   14.5209  -10.9247 H   0  0  0  0  0  0  0  0  0  0  0  0
   -3.0770   14.8334  -12.6175 H   0  0  0  0  0  0  0  0  0  0  0  0
   -3.9113   15.6608  -11.2589 H   0  0  0  0  0  0  0  0  0  0  0  0
   -5.2270   15.2086  -12.9486 H   0  0  0  0  0  0  0  0  0  0  0  0
   -6.7769   12.3203   -6.9046 H   0  0  0  0  0  0  0  0  0  0  0  0
   -3.4389   12.0070   -8.2491 H   0  0  0  0  0  0  0  0  0  0  0  0
   -2.6169    9.7197   -8.0459 H   0  0  0  0  0  0  0  0  0  0  0  0
   -4.8951    8.7966   -8.4810 H   0  0  0  0  0  0  0  0  0  0  0  0
   -4.6981   14.3639   -6.0034 H   0  0  0  0  0  0  0  0  0  0  0  0
   -0.3895   12.9643   -6.6059 H   0  0  0  0  0  0  0  0  0  0  0  0
   -0.7026   11.2076   -6.4002 H   0  0  0  0  0  0  0  0  0  0  0  0
   -0.6910   11.9314   -8.0442 H   0  0  0  0  0  0  0  0  0  0  0  0
  1  2  1  0  0  0  0
  1  4  1  0  0  0  0
  1 13  2  3  0  0  0
  2  6  2  0  0  0  0
  3  4  2  0  0  0  0
  3  5  1  0  0  0  0
  5  6  1  0  0  0  0
  5  9  2  0  0  0  0
  6  7  1  0  0  0  0
  7  8  2  0  0  0  0
  7 10  1  0  0  0  0
  8  9  1  0  0  0  0
 10 15  2  3  0  0  0
 11 12  1  0  0  0  0
 11 13  1  0  0  0  0
 13 14  1  0  0  0  0
 15 16  1  0  0  0  0
 15 20  1  0  0  0  0
 16 17  2  0  0  0  0
 17 18  1  0  0  0  0
 17 21  1  0  0  0  0
 18 19  1  0  0  0  0
 18 23  1  0  0  0  0
 19 20  2  0  0  0  0
 21 22  2  0  0  0  0
 22 23  1  0  0  0  0
 23 24  1  0  0  0  0
  2 25  1  0  0  0  0
  3 26  1  0  0  0  0
  4 27  1  0  0  0  0
 10 28  1  0  0  0  0
 11 29  1  0  0  0  0
 12 30  1  0  0  0  0
 12 31  1  0  0  0  0
 12 32  1  0  0  0  0
 14 33  1  0  0  0  0
 16 34  1  0  0  0  0
 18 35  1  0  0  0  0
 19 36  1  0  0  0  0
 20 37  1  0  0  0  0
 21 38  1  0  0  0  0
 24 39  1  0  0  0  0
 24 40  1  0  0  0  0
 24 41  1  0  0  0  0
M  END
> <Name>
18

> <IC50[uM]>
0.01

$$$$
