39
  -OEChem-05192314333D
 Structure written by MMmdl.
 53 57  0     0  0  0  0  0  0999 V2000
   -6.3502   12.3553  -12.0171 C   0  0  0  0  0  0  0  0  0  0  0  0
   -6.4935   11.7977  -10.7426 C   0  0  0  0  0  0  0  0  0  0  0  0
   -7.7106   10.5751  -13.0385 C   0  0  0  0  0  0  0  0  0  0  0  0
   -6.9725   11.7720  -13.1357 C   0  0  0  0  0  0  0  0  0  0  0  0
   -7.8130   10.0109  -11.7654 C   0  0  0  0  0  0  0  0  0  0  0  0
   -7.2309   10.6170  -10.6058 C   0  0  0  0  0  0  0  0  0  0  0  0
   -7.6111    9.7517   -9.5147 C   0  0  0  0  0  0  0  0  0  0  0  0
   -8.2865    8.7392   -9.9897 N   0  0  0  0  0  0  0  0  0  0  0  0
   -8.4152    8.8682  -11.3006 N   0  0  0  0  0  0  0  0  0  0  0  0
   -7.3373    9.8888   -8.0252 C   0  0  0  0  0  0  0  0  0  0  0  0
   -4.3541   13.7129  -11.4635 N   0  0  0  0  0  0  0  0  0  0  0  0
   -5.5361   13.6428  -12.1728 C   0  0  0  0  0  0  0  0  0  0  0  0
   -5.9526   14.5668  -12.8773 O   0  0  0  0  0  0  0  0  0  0  0  0
   -5.9623   10.4854   -7.7364 C   0  0  0  0  0  0  0  0  0  0  0  0
   -5.8532   11.7571   -7.1646 C   0  0  0  0  0  0  0  0  0  0  0  0
   -4.5945   12.3064   -6.9180 C   0  0  0  0  0  0  0  0  0  0  0  0
   -3.4446   11.5858   -7.2382 C   0  0  0  0  0  0  0  0  0  0  0  0
   -3.5555   10.3115   -7.8022 C   0  0  0  0  0  0  0  0  0  0  0  0
   -4.8126    9.7649   -8.0516 C   0  0  0  0  0  0  0  0  0  0  0  0
   -2.0930   12.1652   -6.9785 C   0  0  0  0  0  0  0  0  0  0  0  0
   -1.7427   13.4236   -6.4970 C   0  0  0  0  0  0  0  0  0  0  0  0
   -0.4061   13.4591   -6.4324 N   0  0  0  0  0  0  0  0  0  0  0  0
    0.1810   12.3567   -6.8070 N   0  0  0  0  0  0  0  0  0  0  0  0
   -0.8030   11.5520   -7.1701 C   0  0  0  0  0  0  0  0  0  0  0  0
    0.4260   14.5701   -5.9973 C   0  0  0  0  0  0  0  0  0  0  0  0
   -3.6444   15.0059  -11.3286 C   0  0  0  0  0  0  0  0  0  0  0  0
   -2.1848   14.8660  -11.7465 C   0  0  0  0  0  0  0  0  0  0  0  0
   -1.5251   13.6965  -11.2881 O   0  0  0  0  0  0  0  0  0  0  0  0
   -2.2131   12.5012  -11.6333 C   0  0  0  0  0  0  0  0  0  0  0  0
   -3.6517   12.4721  -11.0120 C   0  0  0  0  0  0  0  0  0  0  0  0
   -6.0438   12.2692   -9.8813 H   0  0  0  0  0  0  0  0  0  0  0  0
   -8.1720   10.1191  -13.9020 H   0  0  0  0  0  0  0  0  0  0  0  0
   -6.8821   12.2554  -14.0972 H   0  0  0  0  0  0  0  0  0  0  0  0
   -8.6504    7.9828   -9.4462 H   0  0  0  0  0  0  0  0  0  0  0  0
   -8.1049   10.5416   -7.5840 H   0  0  0  0  0  0  0  0  0  0  0  0
   -7.3937    8.8922   -7.5629 H   0  0  0  0  0  0  0  0  0  0  0  0
   -6.7437   12.3143   -6.9138 H   0  0  0  0  0  0  0  0  0  0  0  0
   -4.5109   13.2897   -6.4791 H   0  0  0  0  0  0  0  0  0  0  0  0
   -2.6655    9.7499   -8.0449 H   0  0  0  0  0  0  0  0  0  0  0  0
   -4.8957    8.7813   -8.4899 H   0  0  0  0  0  0  0  0  0  0  0  0
   -2.4205   14.2199   -6.2269 H   0  0  0  0  0  0  0  0  0  0  0  0
   -0.6578   10.5563   -7.5625 H   0  0  0  0  0  0  0  0  0  0  0  0
    1.4856   14.2813   -6.0588 H   0  0  0  0  0  0  0  0  0  0  0  0
    0.2449   15.4398   -6.6461 H   0  0  0  0  0  0  0  0  0  0  0  0
    0.1766   14.8298   -4.9579 H   0  0  0  0  0  0  0  0  0  0  0  0
   -4.1332   15.7546  -11.9693 H   0  0  0  0  0  0  0  0  0  0  0  0
   -3.6898   15.3350  -10.2800 H   0  0  0  0  0  0  0  0  0  0  0  0
   -2.1459   14.8676  -12.8458 H   0  0  0  0  0  0  0  0  0  0  0  0
   -1.6368   15.7375  -11.3590 H   0  0  0  0  0  0  0  0  0  0  0  0
   -2.2945   12.4382  -12.7285 H   0  0  0  0  0  0  0  0  0  0  0  0
   -1.6432   11.6386  -11.2578 H   0  0  0  0  0  0  0  0  0  0  0  0
   -3.5876   12.4537   -9.9140 H   0  0  0  0  0  0  0  0  0  0  0  0
   -4.1956   11.5825  -11.3625 H   0  0  0  0  0  0  0  0  0  0  0  0
  1  2  2  0  0  0  0
  1  4  1  0  0  0  0
  1 12  1  0  0  0  0
  2  6  1  0  0  0  0
  3  4  2  0  0  0  0
  3  5  1  0  0  0  0
  5  6  1  0  0  0  0
  5  9  2  0  0  0  0
  6  7  2  0  0  0  0
  7  8  1  0  0  0  0
  7 10  1  0  0  0  0
  8  9  1  0  0  0  0
 10 14  1  0  0  0  0
 11 12  1  0  0  0  0
 11 26  1  0  0  0  0
 11 30  1  0  0  0  0
 12 13  2  0  0  0  0
 14 15  2  0  0  0  0
 14 19  1  0  0  0  0
 15 16  1  0  0  0  0
 16 17  2  0  0  0  0
 17 18  1  0  0  0  0
 17 20  1  0  0  0  0
 18 19  2  0  0  0  0
 20 21  2  0  0  0  0
 20 24  1  0  0  0  0
 21 22  1  0  0  0  0
 22 23  1  0  0  0  0
 22 25  1  0  0  0  0
 23 24  2  0  0  0  0
 26 27  1  0  0  0  0
 27 28  1  0  0  0  0
 28 29  1  0  0  0  0
 29 30  1  0  0  0  0
  2 31  1  0  0  0  0
  3 32  1  0  0  0  0
  4 33  1  0  0  0  0
  8 34  1  0  0  0  0
 10 35  1  0  0  0  0
 10 36  1  0  0  0  0
 15 37  1  0  0  0  0
 16 38  1  0  0  0  0
 18 39  1  0  0  0  0
 19 40  1  0  0  0  0
 21 41  1  0  0  0  0
 24 42  1  0  0  0  0
 25 43  1  0  0  0  0
 25 44  1  0  0  0  0
 25 45  1  0  0  0  0
 26 46  1  0  0  0  0
 26 47  1  0  0  0  0
 27 48  1  0  0  0  0
 27 49  1  0  0  0  0
 29 50  1  0  0  0  0
 29 51  1  0  0  0  0
 30 52  1  0  0  0  0
 30 53  1  0  0  0  0
M  END
> <Name>
39

> <IC50[uM]>
0.004

$$$$
39
  -OEChem-05192314333D
 Structure written by MMmdl.
 53 57  0     0  0  0  0  0  0999 V2000
   -6.3502   12.3553  -12.0171 C   0  0  0  0  0  0  0  0  0  0  0  0
   -6.4935   11.7977  -10.7426 C   0  0  0  0  0  0  0  0  0  0  0  0
   -7.7106   10.5751  -13.0385 C   0  0  0  0  0  0  0  0  0  0  0  0
   -6.9725   11.7720  -13.1357 C   0  0  0  0  0  0  0  0  0  0  0  0
   -7.8130   10.0109  -11.7654 C   0  0  0  0  0  0  0  0  0  0  0  0
   -7.2309   10.6170  -10.6058 C   0  0  0  0  0  0  0  0  0  0  0  0
   -7.6111    9.7517   -9.5147 C   0  0  0  0  0  0  0  0  0  0  0  0
   -8.2865    8.7392   -9.9897 N   0  0  0  0  0  0  0  0  0  0  0  0
   -8.4152    8.8682  -11.3006 N   0  0  0  0  0  0  0  0  0  0  0  0
   -7.3373    9.8888   -8.0252 C   0  0  0  0  0  0  0  0  0  0  0  0
   -4.3541   13.7129  -11.4635 N   0  0  0  0  0  0  0  0  0  0  0  0
   -5.5361   13.6428  -12.1728 C   0  0  0  0  0  0  0  0  0  0  0  0
   -5.9526   14.5668  -12.8773 O   0  0  0  0  0  0  0  0  0  0  0  0
   -5.9623   10.4854   -7.7364 C   0  0  0  0  0  0  0  0  0  0  0  0
   -5.8532   11.7571   -7.1646 C   0  0  0  0  0  0  0  0  0  0  0  0
   -4.5945   12.3064   -6.9180 C   0  0  0  0  0  0  0  0  0  0  0  0
   -3.4446   11.5858   -7.2382 C   0  0  0  0  0  0  0  0  0  0  0  0
   -3.5555   10.3115   -7.8022 C   0  0  0  0  0  0  0  0  0  0  0  0
   -4.8126    9.7649   -8.0516 C   0  0  0  0  0  0  0  0  0  0  0  0
   -2.0930   12.1652   -6.9785 C   0  0  0  0  0  0  0  0  0  0  0  0
   -1.7427   13.4236   -6.4970 C   0  0  0  0  0  0  0  0  0  0  0  0
   -0.4061   13.4591   -6.4324 N   0  0  0  0  0  0  0  0  0  0  0  0
    0.1810   12.3567   -6.8070 N   0  0  0  0  0  0  0  0  0  0  0  0
   -0.8030   11.5520   -7.1701 C   0  0  0  0  0  0  0  0  0  0  0  0
    0.4260   14.5701   -5.9973 C   0  0  0  0  0  0  0  0  0  0  0  0
   -3.6444   15.0059  -11.3286 C   0  0  0  0  0  0  0  0  0  0  0  0
   -2.1848   14.8660  -11.7465 C   0  0  0  0  0  0  0  0  0  0  0  0
   -1.5251   13.6965  -11.2881 O   0  0  0  0  0  0  0  0  0  0  0  0
   -2.2131   12.5012  -11.6333 C   0  0  0  0  0  0  0  0  0  0  0  0
   -3.6517   12.4721  -11.0120 C   0  0  0  0  0  0  0  0  0  0  0  0
   -6.0438   12.2692   -9.8813 H   0  0  0  0  0  0  0  0  0  0  0  0
   -8.1720   10.1191  -13.9020 H   0  0  0  0  0  0  0  0  0  0  0  0
   -6.8821   12.2554  -14.0972 H   0  0  0  0  0  0  0  0  0  0  0  0
   -8.8941    8.2115  -11.8831 H   0  0  0  0  0  0  0  0  0  0  0  0
   -8.1049   10.5416   -7.5840 H   0  0  0  0  0  0  0  0  0  0  0  0
   -7.3937    8.8922   -7.5629 H   0  0  0  0  0  0  0  0  0  0  0  0
   -6.7437   12.3143   -6.9138 H   0  0  0  0  0  0  0  0  0  0  0  0
   -4.5109   13.2897   -6.4791 H   0  0  0  0  0  0  0  0  0  0  0  0
   -2.6655    9.7499   -8.0449 H   0  0  0  0  0  0  0  0  0  0  0  0
   -4.8957    8.7813   -8.4899 H   0  0  0  0  0  0  0  0  0  0  0  0
   -2.4205   14.2199   -6.2269 H   0  0  0  0  0  0  0  0  0  0  0  0
   -0.6578   10.5563   -7.5625 H   0  0  0  0  0  0  0  0  0  0  0  0
    1.4856   14.2813   -6.0588 H   0  0  0  0  0  0  0  0  0  0  0  0
    0.2449   15.4398   -6.6461 H   0  0  0  0  0  0  0  0  0  0  0  0
    0.1766   14.8298   -4.9579 H   0  0  0  0  0  0  0  0  0  0  0  0
   -4.1332   15.7546  -11.9693 H   0  0  0  0  0  0  0  0  0  0  0  0
   -3.6898   15.3350  -10.2800 H   0  0  0  0  0  0  0  0  0  0  0  0
   -2.1459   14.8676  -12.8458 H   0  0  0  0  0  0  0  0  0  0  0  0
   -1.6368   15.7375  -11.3590 H   0  0  0  0  0  0  0  0  0  0  0  0
   -2.2945   12.4382  -12.7285 H   0  0  0  0  0  0  0  0  0  0  0  0
   -1.6432   11.6386  -11.2578 H   0  0  0  0  0  0  0  0  0  0  0  0
   -3.5876   12.4537   -9.9140 H   0  0  0  0  0  0  0  0  0  0  0  0
   -4.1956   11.5825  -11.3625 H   0  0  0  0  0  0  0  0  0  0  0  0
  1  2  2  0  0  0  0
  1  4  1  0  0  0  0
  1 12  1  0  0  0  0
  2  6  1  0  0  0  0
  3  4  2  0  0  0  0
  3  5  1  0  0  0  0
  5  6  2  0  0  0  0
  5  9  1  0  0  0  0
  6  7  1  0  0  0  0
  7  8  2  0  0  0  0
  7 10  1  0  0  0  0
  8  9  1  0  0  0  0
 10 14  1  0  0  0  0
 11 12  1  0  0  0  0
 11 26  1  0  0  0  0
 11 30  1  0  0  0  0
 12 13  2  0  0  0  0
 14 15  2  0  0  0  0
 14 19  1  0  0  0  0
 15 16  1  0  0  0  0
 16 17  2  0  0  0  0
 17 18  1  0  0  0  0
 17 20  1  0  0  0  0
 18 19  2  0  0  0  0
 20 21  2  0  0  0  0
 20 24  1  0  0  0  0
 21 22  1  0  0  0  0
 22 23  1  0  0  0  0
 22 25  1  0  0  0  0
 23 24  2  0  0  0  0
 26 27  1  0  0  0  0
 27 28  1  0  0  0  0
 28 29  1  0  0  0  0
 29 30  1  0  0  0  0
  2 31  1  0  0  0  0
  3 32  1  0  0  0  0
  4 33  1  0  0  0  0
  9 34  1  0  0  0  0
 10 35  1  0  0  0  0
 10 36  1  0  0  0  0
 15 37  1  0  0  0  0
 16 38  1  0  0  0  0
 18 39  1  0  0  0  0
 19 40  1  0  0  0  0
 21 41  1  0  0  0  0
 24 42  1  0  0  0  0
 25 43  1  0  0  0  0
 25 44  1  0  0  0  0
 25 45  1  0  0  0  0
 26 46  1  0  0  0  0
 26 47  1  0  0  0  0
 27 48  1  0  0  0  0
 27 49  1  0  0  0  0
 29 50  1  0  0  0  0
 29 51  1  0  0  0  0
 30 52  1  0  0  0  0
 30 53  1  0  0  0  0
M  END
> <Name>
39

> <IC50[uM]>
0.004

$$$$
39
  -OEChem-05192314333D
 Structure written by MMmdl.
 53 57  0     1  0  0  0  0  0999 V2000
   -6.3502   12.3553  -12.0171 C   0  0  0  0  0  0  0  0  0  0  0  0
   -6.4935   11.7977  -10.7426 C   0  0  0  0  0  0  0  0  0  0  0  0
   -7.7106   10.5751  -13.0385 C   0  0  0  0  0  0  0  0  0  0  0  0
   -6.9725   11.7720  -13.1357 C   0  0  0  0  0  0  0  0  0  0  0  0
   -7.8130   10.0109  -11.7654 C   0  0  0  0  0  0  0  0  0  0  0  0
   -7.2309   10.6170  -10.6058 C   0  0  0  0  0  0  0  0  0  0  0  0
   -7.6111    9.7517   -9.5147 C   0  0  3  0  0  0  0  0  0  0  0  0
   -8.2865    8.7392   -9.9897 N   0  0  0  0  0  0  0  0  0  0  0  0
   -8.4152    8.8682  -11.3006 N   0  0  0  0  0  0  0  0  0  0  0  0
   -7.3373    9.8888   -8.0252 C   0  0  0  0  0  0  0  0  0  0  0  0
   -4.3541   13.7129  -11.4635 N   0  0  0  0  0  0  0  0  0  0  0  0
   -5.5361   13.6428  -12.1728 C   0  0  0  0  0  0  0  0  0  0  0  0
   -5.9526   14.5668  -12.8773 O   0  0  0  0  0  0  0  0  0  0  0  0
   -5.9623   10.4854   -7.7364 C   0  0  0  0  0  0  0  0  0  0  0  0
   -5.8532   11.7571   -7.1646 C   0  0  0  0  0  0  0  0  0  0  0  0
   -4.5945   12.3064   -6.9180 C   0  0  0  0  0  0  0  0  0  0  0  0
   -3.4446   11.5858   -7.2382 C   0  0  0  0  0  0  0  0  0  0  0  0
   -3.5555   10.3115   -7.8022 C   0  0  0  0  0  0  0  0  0  0  0  0
   -4.8126    9.7649   -8.0516 C   0  0  0  0  0  0  0  0  0  0  0  0
   -2.0930   12.1652   -6.9785 C   0  0  0  0  0  0  0  0  0  0  0  0
   -1.7427   13.4236   -6.4970 C   0  0  0  0  0  0  0  0  0  0  0  0
   -0.4061   13.4591   -6.4324 N   0  0  0  0  0  0  0  0  0  0  0  0
    0.1810   12.3567   -6.8070 N   0  0  0  0  0  0  0  0  0  0  0  0
   -0.8030   11.5520   -7.1701 C   0  0  0  0  0  0  0  0  0  0  0  0
    0.4260   14.5701   -5.9973 C   0  0  0  0  0  0  0  0  0  0  0  0
   -3.6444   15.0059  -11.3286 C   0  0  0  0  0  0  0  0  0  0  0  0
   -2.1848   14.8660  -11.7465 C   0  0  0  0  0  0  0  0  0  0  0  0
   -1.5251   13.6965  -11.2881 O   0  0  0  0  0  0  0  0  0  0  0  0
   -2.2131   12.5012  -11.6333 C   0  0  0  0  0  0  0  0  0  0  0  0
   -3.6517   12.4721  -11.0120 C   0  0  0  0  0  0  0  0  0  0  0  0
   -6.0438   12.2692   -9.8813 H   0  0  0  0  0  0  0  0  0  0  0  0
   -8.1720   10.1191  -13.9020 H   0  0  0  0  0  0  0  0  0  0  0  0
   -6.8821   12.2554  -14.0972 H   0  0  0  0  0  0  0  0  0  0  0  0
   -6.6755    9.1860   -9.6357 H   0  0  0  0  0  0  0  0  0  0  0  0
   -8.1049   10.5416   -7.5840 H   0  0  0  0  0  0  0  0  0  0  0  0
   -7.3937    8.8922   -7.5629 H   0  0  0  0  0  0  0  0  0  0  0  0
   -6.7437   12.3143   -6.9138 H   0  0  0  0  0  0  0  0  0  0  0  0
   -4.5109   13.2897   -6.4791 H   0  0  0  0  0  0  0  0  0  0  0  0
   -2.6655    9.7499   -8.0449 H   0  0  0  0  0  0  0  0  0  0  0  0
   -4.8957    8.7813   -8.4899 H   0  0  0  0  0  0  0  0  0  0  0  0
   -2.4205   14.2199   -6.2269 H   0  0  0  0  0  0  0  0  0  0  0  0
   -0.6578   10.5563   -7.5625 H   0  0  0  0  0  0  0  0  0  0  0  0
    1.4856   14.2813   -6.0588 H   0  0  0  0  0  0  0  0  0  0  0  0
    0.2449   15.4398   -6.6461 H   0  0  0  0  0  0  0  0  0  0  0  0
    0.1766   14.8298   -4.9579 H   0  0  0  0  0  0  0  0  0  0  0  0
   -4.1332   15.7546  -11.9693 H   0  0  0  0  0  0  0  0  0  0  0  0
   -3.6898   15.3350  -10.2800 H   0  0  0  0  0  0  0  0  0  0  0  0
   -2.1459   14.8676  -12.8458 H   0  0  0  0  0  0  0  0  0  0  0  0
   -1.6368   15.7375  -11.3590 H   0  0  0  0  0  0  0  0  0  0  0  0
   -2.2945   12.4382  -12.7285 H   0  0  0  0  0  0  0  0  0  0  0  0
   -1.6432   11.6386  -11.2578 H   0  0  0  0  0  0  0  0  0  0  0  0
   -3.5876   12.4537   -9.9140 H   0  0  0  0  0  0  0  0  0  0  0  0
   -4.1956   11.5825  -11.3625 H   0  0  0  0  0  0  0  0  0  0  0  0
  1  2  2  0  0  0  0
  1  4  1  0  0  0  0
  1 12  1  0  0  0  0
  2  6  1  0  0  0  0
  3  4  2  0  0  0  0
  3  5  1  0  0  0  0
  5  6  2  0  0  0  0
  5  9  1  0  0  0  0
  6  7  1  0  0  0  0
  7  8  1  0  0  0  0
  7 10  1  0  0  0  0
  8  9  2  0  0  0  0
 10 14  1  0  0  0  0
 11 12  1  0  0  0  0
 11 26  1  0  0  0  0
 11 30  1  0  0  0  0
 12 13  2  0  0  0  0
 14 15  2  0  0  0  0
 14 19  1  0  0  0  0
 15 16  1  0  0  0  0
 16 17  2  0  0  0  0
 17 18  1  0  0  0  0
 17 20  1  0  0  0  0
 18 19  2  0  0  0  0
 20 21  2  0  0  0  0
 20 24  1  0  0  0  0
 21 22  1  0  0  0  0
 22 23  1  0  0  0  0
 22 25  1  0  0  0  0
 23 24  2  0  0  0  0
 26 27  1  0  0  0  0
 27 28  1  0  0  0  0
 28 29  1  0  0  0  0
 29 30  1  0  0  0  0
  2 31  1  0  0  0  0
  3 32  1  0  0  0  0
  4 33  1  0  0  0  0
  7 34  1  0  0  0  0
 10 35  1  0  0  0  0
 10 36  1  0  0  0  0
 15 37  1  0  0  0  0
 16 38  1  0  0  0  0
 18 39  1  0  0  0  0
 19 40  1  0  0  0  0
 21 41  1  0  0  0  0
 24 42  1  0  0  0  0
 25 43  1  0  0  0  0
 25 44  1  0  0  0  0
 25 45  1  0  0  0  0
 26 46  1  0  0  0  0
 26 47  1  0  0  0  0
 27 48  1  0  0  0  0
 27 49  1  0  0  0  0
 29 50  1  0  0  0  0
 29 51  1  0  0  0  0
 30 52  1  0  0  0  0
 30 53  1  0  0  0  0
M  END
> <Name>
39

> <IC50[uM]>
0.004

$$$$
39
  -OEChem-05192314333D
 Structure written by MMmdl.
 53 57  0     0  0  0  0  0  0999 V2000
   -6.3502   12.3553  -12.0171 C   0  0  0  0  0  0  0  0  0  0  0  0
   -6.4935   11.7977  -10.7426 C   0  0  0  0  0  0  0  0  0  0  0  0
   -7.7106   10.5751  -13.0385 C   0  0  0  0  0  0  0  0  0  0  0  0
   -6.9725   11.7720  -13.1357 C   0  0  0  0  0  0  0  0  0  0  0  0
   -7.8130   10.0109  -11.7654 C   0  0  0  0  0  0  0  0  0  0  0  0
   -7.2309   10.6170  -10.6058 C   0  0  0  0  0  0  0  0  0  0  0  0
   -7.6111    9.7517   -9.5147 C   0  0  0  0  0  0  0  0  0  0  0  0
   -8.2865    8.7392   -9.9897 N   0  0  0  0  0  0  0  0  0  0  0  0
   -8.4152    8.8682  -11.3006 N   0  0  0  0  0  0  0  0  0  0  0  0
   -7.3373    9.8888   -8.0252 C   0  0  0  0  0  0  0  0  0  0  0  0
   -4.3541   13.7129  -11.4635 N   0  0  0  0  0  0  0  0  0  0  0  0
   -5.5361   13.6428  -12.1728 C   0  0  0  0  0  0  0  0  0  0  0  0
   -5.9526   14.5668  -12.8773 O   0  0  0  0  0  0  0  0  0  0  0  0
   -5.9623   10.4854   -7.7364 C   0  0  0  0  0  0  0  0  0  0  0  0
   -5.8532   11.7571   -7.1646 C   0  0  0  0  0  0  0  0  0  0  0  0
   -4.5945   12.3064   -6.9180 C   0  0  0  0  0  0  0  0  0  0  0  0
   -3.4446   11.5858   -7.2382 C   0  0  0  0  0  0  0  0  0  0  0  0
   -3.5555   10.3115   -7.8022 C   0  0  0  0  0  0  0  0  0  0  0  0
   -4.8126    9.7649   -8.0516 C   0  0  0  0  0  0  0  0  0  0  0  0
   -2.0930   12.1652   -6.9785 C   0  0  0  0  0  0  0  0  0  0  0  0
   -1.7427   13.4236   -6.4970 C   0  0  0  0  0  0  0  0  0  0  0  0
   -0.4061   13.4591   -6.4324 N   0  0  0  0  0  0  0  0  0  0  0  0
    0.1810   12.3567   -6.8070 N   0  0  0  0  0  0  0  0  0  0  0  0
   -0.8030   11.5520   -7.1701 C   0  0  0  0  0  0  0  0  0  0  0  0
    0.4260   14.5701   -5.9973 C   0  0  0  0  0  0  0  0  0  0  0  0
   -3.6444   15.0059  -11.3286 C   0  0  0  0  0  0  0  0  0  0  0  0
   -2.1848   14.8660  -11.7465 C   0  0  0  0  0  0  0  0  0  0  0  0
   -1.5251   13.6965  -11.2881 O   0  0  0  0  0  0  0  0  0  0  0  0
   -2.2131   12.5012  -11.6333 C   0  0  0  0  0  0  0  0  0  0  0  0
   -3.6517   12.4721  -11.0120 C   0  0  0  0  0  0  0  0  0  0  0  0
   -6.0438   12.2692   -9.8813 H   0  0  0  0  0  0  0  0  0  0  0  0
   -8.1720   10.1191  -13.9020 H   0  0  0  0  0  0  0  0  0  0  0  0
   -6.8821   12.2554  -14.0972 H   0  0  0  0  0  0  0  0  0  0  0  0
   -7.8008    7.8894   -9.7849 H   0  0  0  0  0  0  0  0  0  0  0  0
   -9.3885    8.9005  -11.5280 H   0  0  0  0  0  0  0  0  0  0  0  0
   -8.0379    9.5965   -7.2570 H   0  0  0  0  0  0  0  0  0  0  0  0
   -6.7437   12.3143   -6.9138 H   0  0  0  0  0  0  0  0  0  0  0  0
   -4.5109   13.2897   -6.4791 H   0  0  0  0  0  0  0  0  0  0  0  0
   -2.6655    9.7499   -8.0449 H   0  0  0  0  0  0  0  0  0  0  0  0
   -4.8957    8.7813   -8.4899 H   0  0  0  0  0  0  0  0  0  0  0  0
   -2.4205   14.2199   -6.2269 H   0  0  0  0  0  0  0  0  0  0  0  0
   -0.6578   10.5563   -7.5625 H   0  0  0  0  0  0  0  0  0  0  0  0
    1.4856   14.2813   -6.0588 H   0  0  0  0  0  0  0  0  0  0  0  0
    0.2449   15.4398   -6.6461 H   0  0  0  0  0  0  0  0  0  0  0  0
    0.1766   14.8298   -4.9579 H   0  0  0  0  0  0  0  0  0  0  0  0
   -4.1332   15.7546  -11.9693 H   0  0  0  0  0  0  0  0  0  0  0  0
   -3.6898   15.3350  -10.2800 H   0  0  0  0  0  0  0  0  0  0  0  0
   -2.1459   14.8676  -12.8458 H   0  0  0  0  0  0  0  0  0  0  0  0
   -1.6368   15.7375  -11.3590 H   0  0  0  0  0  0  0  0  0  0  0  0
   -2.2945   12.4382  -12.7285 H   0  0  0  0  0  0  0  0  0  0  0  0
   -1.6432   11.6386  -11.2578 H   0  0  0  0  0  0  0  0  0  0  0  0
   -3.5876   12.4537   -9.9140 H   0  0  0  0  0  0  0  0  0  0  0  0
   -4.1956   11.5825  -11.3625 H   0  0  0  0  0  0  0  0  0  0  0  0
  1  2  2  0  0  0  0
  1  4  1  0  0  0  0
  1 12  1  0  0  0  0
  2  6  1  0  0  0  0
  3  4  2  0  0  0  0
  3  5  1  0  0  0  0
  5  6  2  0  0  0  0
  5  9  1  0  0  0  0
  6  7  1  0  0  0  0
  7  8  1  0  0  0  0
  7 10  2  3  0  0  0
  8  9  1  0  0  0  0
 10 14  1  0  0  0  0
 11 12  1  0  0  0  0
 11 26  1  0  0  0  0
 11 30  1  0  0  0  0
 12 13  2  0  0  0  0
 14 15  2  0  0  0  0
 14 19  1  0  0  0  0
 15 16  1  0  0  0  0
 16 17  2  0  0  0  0
 17 18  1  0  0  0  0
 17 20  1  0  0  0  0
 18 19  2  0  0  0  0
 20 21  2  0  0  0  0
 20 24  1  0  0  0  0
 21 22  1  0  0  0  0
 22 23  1  0  0  0  0
 22 25  1  0  0  0  0
 23 24  2  0  0  0  0
 26 27  1  0  0  0  0
 27 28  1  0  0  0  0
 28 29  1  0  0  0  0
 29 30  1  0  0  0  0
  2 31  1  0  0  0  0
  3 32  1  0  0  0  0
  4 33  1  0  0  0  0
  8 34  1  0  0  0  0
  9 35  1  0  0  0  0
 10 36  1  0  0  0  0
 15 37  1  0  0  0  0
 16 38  1  0  0  0  0
 18 39  1  0  0  0  0
 19 40  1  0  0  0  0
 21 41  1  0  0  0  0
 24 42  1  0  0  0  0
 25 43  1  0  0  0  0
 25 44  1  0  0  0  0
 25 45  1  0  0  0  0
 26 46  1  0  0  0  0
 26 47  1  0  0  0  0
 27 48  1  0  0  0  0
 27 49  1  0  0  0  0
 29 50  1  0  0  0  0
 29 51  1  0  0  0  0
 30 52  1  0  0  0  0
 30 53  1  0  0  0  0
M  END
> <Name>
39

> <IC50[uM]>
0.004

$$$$
39
  -OEChem-05192314333D
 Structure written by MMmdl.
 53 57  0     1  0  0  0  0  0999 V2000
   -6.3502   12.3553  -12.0171 C   0  0  3  0  0  0  0  0  0  0  0  0
   -6.4935   11.7977  -10.7426 C   0  0  0  0  0  0  0  0  0  0  0  0
   -7.7106   10.5751  -13.0385 C   0  0  0  0  0  0  0  0  0  0  0  0
   -6.9725   11.7720  -13.1357 C   0  0  0  0  0  0  0  0  0  0  0  0
   -7.8130   10.0109  -11.7654 C   0  0  0  0  0  0  0  0  0  0  0  0
   -7.2309   10.6170  -10.6058 C   0  0  0  0  0  0  0  0  0  0  0  0
   -7.6111    9.7517   -9.5147 C   0  0  0  0  0  0  0  0  0  0  0  0
   -8.2865    8.7392   -9.9897 N   0  0  0  0  0  0  0  0  0  0  0  0
   -8.4152    8.8682  -11.3006 N   0  0  0  0  0  0  0  0  0  0  0  0
   -7.3373    9.8888   -8.0252 C   0  0  0  0  0  0  0  0  0  0  0  0
   -4.3541   13.7129  -11.4635 N   0  0  0  0  0  0  0  0  0  0  0  0
   -5.5361   13.6428  -12.1728 C   0  0  0  0  0  0  0  0  0  0  0  0
   -5.9526   14.5668  -12.8773 O   0  0  0  0  0  0  0  0  0  0  0  0
   -5.9623   10.4854   -7.7364 C   0  0  0  0  0  0  0  0  0  0  0  0
   -5.8532   11.7571   -7.1646 C   0  0  0  0  0  0  0  0  0  0  0  0
   -4.5945   12.3064   -6.9180 C   0  0  0  0  0  0  0  0  0  0  0  0
   -3.4446   11.5858   -7.2382 C   0  0  0  0  0  0  0  0  0  0  0  0
   -3.5555   10.3115   -7.8022 C   0  0  0  0  0  0  0  0  0  0  0  0
   -4.8126    9.7649   -8.0516 C   0  0  0  0  0  0  0  0  0  0  0  0
   -2.0930   12.1652   -6.9785 C   0  0  0  0  0  0  0  0  0  0  0  0
   -1.7427   13.4236   -6.4970 C   0  0  0  0  0  0  0  0  0  0  0  0
   -0.4061   13.4591   -6.4324 N   0  0  0  0  0  0  0  0  0  0  0  0
    0.1810   12.3567   -6.8070 N   0  0  0  0  0  0  0  0  0  0  0  0
   -0.8030   11.5520   -7.1701 C   0  0  0  0  0  0  0  0  0  0  0  0
    0.4260   14.5701   -5.9973 C   0  0  0  0  0  0  0  0  0  0  0  0
   -3.6444   15.0059  -11.3286 C   0  0  0  0  0  0  0  0  0  0  0  0
   -2.1848   14.8660  -11.7465 C   0  0  0  0  0  0  0  0  0  0  0  0
   -1.5251   13.6965  -11.2881 O   0  0  0  0  0  0  0  0  0  0  0  0
   -2.2131   12.5012  -11.6333 C   0  0  0  0  0  0  0  0  0  0  0  0
   -3.6517   12.4721  -11.0120 C   0  0  0  0  0  0  0  0  0  0  0  0
   -5.4473   11.7517  -12.1914 H   0  0  0  0  0  0  0  0  0  0  0  0
   -6.0438   12.2692   -9.8813 H   0  0  0  0  0  0  0  0  0  0  0  0
   -8.1720   10.1191  -13.9020 H   0  0  0  0  0  0  0  0  0  0  0  0
   -6.8821   12.2554  -14.0972 H   0  0  0  0  0  0  0  0  0  0  0  0
   -8.6504    7.9828   -9.4462 H   0  0  0  0  0  0  0  0  0  0  0  0
   -8.0379    9.5965   -7.2570 H   0  0  0  0  0  0  0  0  0  0  0  0
   -6.7437   12.3143   -6.9138 H   0  0  0  0  0  0  0  0  0  0  0  0
   -4.5109   13.2897   -6.4791 H   0  0  0  0  0  0  0  0  0  0  0  0
   -2.6655    9.7499   -8.0449 H   0  0  0  0  0  0  0  0  0  0  0  0
   -4.8957    8.7813   -8.4899 H   0  0  0  0  0  0  0  0  0  0  0  0
   -2.4205   14.2199   -6.2269 H   0  0  0  0  0  0  0  0  0  0  0  0
   -0.6578   10.5563   -7.5625 H   0  0  0  0  0  0  0  0  0  0  0  0
    1.4856   14.2813   -6.0588 H   0  0  0  0  0  0  0  0  0  0  0  0
    0.2449   15.4398   -6.6461 H   0  0  0  0  0  0  0  0  0  0  0  0
    0.1766   14.8298   -4.9579 H   0  0  0  0  0  0  0  0  0  0  0  0
   -4.1332   15.7546  -11.9693 H   0  0  0  0  0  0  0  0  0  0  0  0
   -3.6898   15.3350  -10.2800 H   0  0  0  0  0  0  0  0  0  0  0  0
   -2.1459   14.8676  -12.8458 H   0  0  0  0  0  0  0  0  0  0  0  0
   -1.6368   15.7375  -11.3590 H   0  0  0  0  0  0  0  0  0  0  0  0
   -2.2945   12.4382  -12.7285 H   0  0  0  0  0  0  0  0  0  0  0  0
   -1.6432   11.6386  -11.2578 H   0  0  0  0  0  0  0  0  0  0  0  0
   -3.5876   12.4537   -9.9140 H   0  0  0  0  0  0  0  0  0  0  0  0
   -4.1956   11.5825  -11.3625 H   0  0  0  0  0  0  0  0  0  0  0  0
  1  2  1  0  0  0  0
  1  4  1  0  0  0  0
  1 12  1  0  0  0  0
  2  6  2  0  0  0  0
  3  4  2  0  0  0  0
  3  5  1  0  0  0  0
  5  6  1  0  0  0  0
  5  9  2  0  0  0  0
  6  7  1  0  0  0  0
  7  8  1  0  0  0  0
  7 10  2  3  0  0  0
  8  9  1  0  0  0  0
 10 14  1  0  0  0  0
 11 12  1  0  0  0  0
 11 26  1  0  0  0  0
 11 30  1  0  0  0  0
 12 13  2  0  0  0  0
 14 15  2  0  0  0  0
 14 19  1  0  0  0  0
 15 16  1  0  0  0  0
 16 17  2  0  0  0  0
 17 18  1  0  0  0  0
 17 20  1  0  0  0  0
 18 19  2  0  0  0  0
 20 21  2  0  0  0  0
 20 24  1  0  0  0  0
 21 22  1  0  0  0  0
 22 23  1  0  0  0  0
 22 25  1  0  0  0  0
 23 24  2  0  0  0  0
 26 27  1  0  0  0  0
 27 28  1  0  0  0  0
 28 29  1  0  0  0  0
 29 30  1  0  0  0  0
  1 31  1  0  0  0  0
  2 32  1  0  0  0  0
  3 33  1  0  0  0  0
  4 34  1  0  0  0  0
  8 35  1  0  0  0  0
 10 36  1  0  0  0  0
 15 37  1  0  0  0  0
 16 38  1  0  0  0  0
 18 39  1  0  0  0  0
 19 40  1  0  0  0  0
 21 41  1  0  0  0  0
 24 42  1  0  0  0  0
 25 43  1  0  0  0  0
 25 44  1  0  0  0  0
 25 45  1  0  0  0  0
 26 46  1  0  0  0  0
 26 47  1  0  0  0  0
 27 48  1  0  0  0  0
 27 49  1  0  0  0  0
 29 50  1  0  0  0  0
 29 51  1  0  0  0  0
 30 52  1  0  0  0  0
 30 53  1  0  0  0  0
M  END
> <Name>
39

> <IC50[uM]>
0.004

$$$$
39
  -OEChem-05192314333D
 Structure written by MMmdl.
 53 57  0     0  0  0  0  0  0999 V2000
   -6.3502   12.3553  -12.0171 C   0  0  0  0  0  0  0  0  0  0  0  0
   -6.4935   11.7977  -10.7426 C   0  0  0  0  0  0  0  0  0  0  0  0
   -7.7106   10.5751  -13.0385 C   0  0  0  0  0  0  0  0  0  0  0  0
   -6.9725   11.7720  -13.1357 C   0  0  0  0  0  0  0  0  0  0  0  0
   -7.8130   10.0109  -11.7654 C   0  0  0  0  0  0  0  0  0  0  0  0
   -7.2309   10.6170  -10.6058 C   0  0  0  0  0  0  0  0  0  0  0  0
   -7.6111    9.7517   -9.5147 C   0  0  0  0  0  0  0  0  0  0  0  0
   -8.2865    8.7392   -9.9897 N   0  0  0  0  0  0  0  0  0  0  0  0
   -8.4152    8.8682  -11.3006 N   0  0  0  0  0  0  0  0  0  0  0  0
   -7.3373    9.8888   -8.0252 C   0  0  0  0  0  0  0  0  0  0  0  0
   -4.3541   13.7129  -11.4635 N   0  0  0  0  0  0  0  0  0  0  0  0
   -5.5361   13.6428  -12.1728 C   0  0  0  0  0  0  0  0  0  0  0  0
   -5.9526   14.5668  -12.8773 O   0  0  0  0  0  0  0  0  0  0  0  0
   -5.9623   10.4854   -7.7364 C   0  0  0  0  0  0  0  0  0  0  0  0
   -5.8532   11.7571   -7.1646 C   0  0  0  0  0  0  0  0  0  0  0  0
   -4.5945   12.3064   -6.9180 C   0  0  0  0  0  0  0  0  0  0  0  0
   -3.4446   11.5858   -7.2382 C   0  0  0  0  0  0  0  0  0  0  0  0
   -3.5555   10.3115   -7.8022 C   0  0  0  0  0  0  0  0  0  0  0  0
   -4.8126    9.7649   -8.0516 C   0  0  0  0  0  0  0  0  0  0  0  0
   -2.0930   12.1652   -6.9785 C   0  0  0  0  0  0  0  0  0  0  0  0
   -1.7427   13.4236   -6.4970 C   0  0  0  0  0  0  0  0  0  0  0  0
   -0.4061   13.4591   -6.4324 N   0  0  0  0  0  0  0  0  0  0  0  0
    0.1810   12.3567   -6.8070 N   0  0  0  0  0  0  0  0  0  0  0  0
   -0.8030   11.5520   -7.1701 C   0  0  0  0  0  0  0  0  0  0  0  0
    0.4260   14.5701   -5.9973 C   0  0  0  0  0  0  0  0  0  0  0  0
   -3.6444   15.0059  -11.3286 C   0  0  0  0  0  0  0  0  0  0  0  0
   -2.1848   14.8660  -11.7465 C   0  0  0  0  0  0  0  0  0  0  0  0
   -1.5251   13.6965  -11.2881 O   0  0  0  0  0  0  0  0  0  0  0  0
   -2.2131   12.5012  -11.6333 C   0  0  0  0  0  0  0  0  0  0  0  0
   -3.6517   12.4721  -11.0120 C   0  0  0  0  0  0  0  0  0  0  0  0
   -6.0438   12.2692   -9.8813 H   0  0  0  0  0  0  0  0  0  0  0  0
   -8.7302   10.7806  -13.3966 H   0  0  0  0  0  0  0  0  0  0  0  0
   -7.2336    9.8333  -13.6960 H   0  0  0  0  0  0  0  0  0  0  0  0
   -6.8821   12.2554  -14.0972 H   0  0  0  0  0  0  0  0  0  0  0  0
   -8.6504    7.9828   -9.4462 H   0  0  0  0  0  0  0  0  0  0  0  0
   -8.0379    9.5965   -7.2570 H   0  0  0  0  0  0  0  0  0  0  0  0
   -6.7437   12.3143   -6.9138 H   0  0  0  0  0  0  0  0  0  0  0  0
   -4.5109   13.2897   -6.4791 H   0  0  0  0  0  0  0  0  0  0  0  0
   -2.6655    9.7499   -8.0449 H   0  0  0  0  0  0  0  0  0  0  0  0
   -4.8957    8.7813   -8.4899 H   0  0  0  0  0  0  0  0  0  0  0  0
   -2.4205   14.2199   -6.2269 H   0  0  0  0  0  0  0  0  0  0  0  0
   -0.6578   10.5563   -7.5625 H   0  0  0  0  0  0  0  0  0  0  0  0
    1.4856   14.2813   -6.0588 H   0  0  0  0  0  0  0  0  0  0  0  0
    0.2449   15.4398   -6.6461 H   0  0  0  0  0  0  0  0  0  0  0  0
    0.1766   14.8298   -4.9579 H   0  0  0  0  0  0  0  0  0  0  0  0
   -4.1332   15.7546  -11.9693 H   0  0  0  0  0  0  0  0  0  0  0  0
   -3.6898   15.3350  -10.2800 H   0  0  0  0  0  0  0  0  0  0  0  0
   -2.1459   14.8676  -12.8458 H   0  0  0  0  0  0  0  0  0  0  0  0
   -1.6368   15.7375  -11.3590 H   0  0  0  0  0  0  0  0  0  0  0  0
   -2.2945   12.4382  -12.7285 H   0  0  0  0  0  0  0  0  0  0  0  0
   -1.6432   11.6386  -11.2578 H   0  0  0  0  0  0  0  0  0  0  0  0
   -3.5876   12.4537   -9.9140 H   0  0  0  0  0  0  0  0  0  0  0  0
   -4.1956   11.5825  -11.3625 H   0  0  0  0  0  0  0  0  0  0  0  0
  1  2  1  0  0  0  0
  1  4  2  0  0  0  0
  1 12  1  0  0  0  0
  2  6  2  0  0  0  0
  3  4  1  0  0  0  0
  3  5  1  0  0  0  0
  5  6  1  0  0  0  0
  5  9  2  0  0  0  0
  6  7  1  0  0  0  0
  7  8  1  0  0  0  0
  7 10  2  3  0  0  0
  8  9  1  0  0  0  0
 10 14  1  0  0  0  0
 11 12  1  0  0  0  0
 11 26  1  0  0  0  0
 11 30  1  0  0  0  0
 12 13  2  0  0  0  0
 14 15  2  0  0  0  0
 14 19  1  0  0  0  0
 15 16  1  0  0  0  0
 16 17  2  0  0  0  0
 17 18  1  0  0  0  0
 17 20  1  0  0  0  0
 18 19  2  0  0  0  0
 20 21  2  0  0  0  0
 20 24  1  0  0  0  0
 21 22  1  0  0  0  0
 22 23  1  0  0  0  0
 22 25  1  0  0  0  0
 23 24  2  0  0  0  0
 26 27  1  0  0  0  0
 27 28  1  0  0  0  0
 28 29  1  0  0  0  0
 29 30  1  0  0  0  0
  2 31  1  0  0  0  0
  3 32  1  0  0  0  0
  3 33  1  0  0  0  0
  4 34  1  0  0  0  0
  8 35  1  0  0  0  0
 10 36  1  0  0  0  0
 15 37  1  0  0  0  0
 16 38  1  0  0  0  0
 18 39  1  0  0  0  0
 19 40  1  0  0  0  0
 21 41  1  0  0  0  0
 24 42  1  0  0  0  0
 25 43  1  0  0  0  0
 25 44  1  0  0  0  0
 25 45  1  0  0  0  0
 26 46  1  0  0  0  0
 26 47  1  0  0  0  0
 27 48  1  0  0  0  0
 27 49  1  0  0  0  0
 29 50  1  0  0  0  0
 29 51  1  0  0  0  0
 30 52  1  0  0  0  0
 30 53  1  0  0  0  0
M  END
> <Name>
39

> <IC50[uM]>
0.004

$$$$
39
  -OEChem-05192314333D
 Structure written by MMmdl.
 53 57  0     1  0  0  0  0  0999 V2000
   -6.3502   12.3553  -12.0171 C   0  0  0  0  0  0  0  0  0  0  0  0
   -6.4935   11.7977  -10.7426 C   0  0  0  0  0  0  0  0  0  0  0  0
   -7.7106   10.5751  -13.0385 C   0  0  0  0  0  0  0  0  0  0  0  0
   -6.9725   11.7720  -13.1357 C   0  0  0  0  0  0  0  0  0  0  0  0
   -7.8130   10.0109  -11.7654 C   0  0  0  0  0  0  0  0  0  0  0  0
   -7.2309   10.6170  -10.6058 C   0  0  0  0  0  0  0  0  0  0  0  0
   -7.6111    9.7517   -9.5147 C   0  0  0  0  0  0  0  0  0  0  0  0
   -8.2865    8.7392   -9.9897 N   0  0  0  0  0  0  0  0  0  0  0  0
   -8.4152    8.8682  -11.3006 N   0  0  0  0  0  0  0  0  0  0  0  0
   -7.3373    9.8888   -8.0252 C   0  0  0  0  0  0  0  0  0  0  0  0
   -4.3541   13.7129  -11.4635 N   0  0  0  0  0  0  0  0  0  0  0  0
   -5.5361   13.6428  -12.1728 C   0  0  0  0  0  0  0  0  0  0  0  0
   -5.9526   14.5668  -12.8773 O   0  0  0  0  0  0  0  0  0  0  0  0
   -5.9623   10.4854   -7.7364 C   0  0  0  0  0  0  0  0  0  0  0  0
   -5.8532   11.7571   -7.1646 C   0  0  0  0  0  0  0  0  0  0  0  0
   -4.5945   12.3064   -6.9180 C   0  0  0  0  0  0  0  0  0  0  0  0
   -3.4446   11.5858   -7.2382 C   0  0  0  0  0  0  0  0  0  0  0  0
   -3.5555   10.3115   -7.8022 C   0  0  0  0  0  0  0  0  0  0  0  0
   -4.8126    9.7649   -8.0516 C   0  0  0  0  0  0  0  0  0  0  0  0
   -2.0930   12.1652   -6.9785 C   0  0  0  0  0  0  0  0  0  0  0  0
   -1.7427   13.4236   -6.4970 C   0  0  0  0  0  0  0  0  0  0  0  0
   -0.4061   13.4591   -6.4324 N   0  0  3  0  0  0  0  0  0  0  0  0
    0.1810   12.3567   -6.8070 N   0  0  0  0  0  0  0  0  0  0  0  0
   -0.8030   11.5520   -7.1701 C   0  0  0  0  0  0  0  0  0  0  0  0
    0.4260   14.5701   -5.9973 C   0  0  0  0  0  0  0  0  0  0  0  0
   -3.6444   15.0059  -11.3286 C   0  0  0  0  0  0  0  0  0  0  0  0
   -2.1848   14.8660  -11.7465 C   0  0  0  0  0  0  0  0  0  0  0  0
   -1.5251   13.6965  -11.2881 O   0  0  0  0  0  0  0  0  0  0  0  0
   -2.2131   12.5012  -11.6333 C   0  0  0  0  0  0  0  0  0  0  0  0
   -3.6517   12.4721  -11.0120 C   0  0  0  0  0  0  0  0  0  0  0  0
   -6.0438   12.2692   -9.8813 H   0  0  0  0  0  0  0  0  0  0  0  0
   -8.1720   10.1191  -13.9020 H   0  0  0  0  0  0  0  0  0  0  0  0
   -6.8821   12.2554  -14.0972 H   0  0  0  0  0  0  0  0  0  0  0  0
   -8.6504    7.9828   -9.4462 H   0  0  0  0  0  0  0  0  0  0  0  0
   -8.0379    9.5965   -7.2570 H   0  0  0  0  0  0  0  0  0  0  0  0
   -6.7437   12.3143   -6.9138 H   0  0  0  0  0  0  0  0  0  0  0  0
   -4.5109   13.2897   -6.4791 H   0  0  0  0  0  0  0  0  0  0  0  0
   -2.6655    9.7499   -8.0449 H   0  0  0  0  0  0  0  0  0  0  0  0
   -4.8957    8.7813   -8.4899 H   0  0  0  0  0  0  0  0  0  0  0  0
   -2.1089   14.2047   -7.1794 H   0  0  0  0  0  0  0  0  0  0  0  0
   -2.1736   13.5790   -5.4969 H   0  0  0  0  0  0  0  0  0  0  0  0
   -0.6578   10.5563   -7.5625 H   0  0  0  0  0  0  0  0  0  0  0  0
    1.4856   14.2813   -6.0588 H   0  0  0  0  0  0  0  0  0  0  0  0
    0.2449   15.4398   -6.6461 H   0  0  0  0  0  0  0  0  0  0  0  0
    0.1766   14.8298   -4.9579 H   0  0  0  0  0  0  0  0  0  0  0  0
   -4.1332   15.7546  -11.9693 H   0  0  0  0  0  0  0  0  0  0  0  0
   -3.6898   15.3350  -10.2800 H   0  0  0  0  0  0  0  0  0  0  0  0
   -2.1459   14.8676  -12.8458 H   0  0  0  0  0  0  0  0  0  0  0  0
   -1.6368   15.7375  -11.3590 H   0  0  0  0  0  0  0  0  0  0  0  0
   -2.2945   12.4382  -12.7285 H   0  0  0  0  0  0  0  0  0  0  0  0
   -1.6432   11.6386  -11.2578 H   0  0  0  0  0  0  0  0  0  0  0  0
   -3.5876   12.4537   -9.9140 H   0  0  0  0  0  0  0  0  0  0  0  0
   -4.1956   11.5825  -11.3625 H   0  0  0  0  0  0  0  0  0  0  0  0
  1  2  2  0  0  0  0
  1  4  1  0  0  0  0
  1 12  1  0  0  0  0
  2  6  1  0  0  0  0
  3  4  2  0  0  0  0
  3  5  1  0  0  0  0
  5  6  1  0  0  0  0
  5  9  2  0  0  0  0
  6  7  2  0  0  0  0
  7  8  1  0  0  0  0
  7 10  1  0  0  0  0
  8  9  1  0  0  0  0
 10 14  2  0  0  0  0
 11 12  1  0  0  0  0
 11 26  1  0  0  0  0
 11 30  1  0  0  0  0
 12 13  2  0  0  0  0
 14 15  1  0  0  0  0
 14 19  1  0  0  0  0
 15 16  2  0  0  0  0
 16 17  1  0  0  0  0
 17 18  1  0  0  0  0
 17 20  2  0  0  0  0
 18 19  2  0  0  0  0
 20 21  1  0  0  0  0
 20 24  1  0  0  0  0
 21 22  1  0  0  0  0
 22 23  1  0  0  0  0
 22 25  1  0  0  0  0
 23 24  2  0  0  0  0
 26 27  1  0  0  0  0
 27 28  1  0  0  0  0
 28 29  1  0  0  0  0
 29 30  1  0  0  0  0
  2 31  1  0  0  0  0
  3 32  1  0  0  0  0
  4 33  1  0  0  0  0
  8 34  1  0  0  0  0
 10 35  1  0  0  0  0
 15 36  1  0  0  0  0
 16 37  1  0  0  0  0
 18 38  1  0  0  0  0
 19 39  1  0  0  0  0
 21 40  1  0  0  0  0
 21 41  1  0  0  0  0
 24 42  1  0  0  0  0
 25 43  1  0  0  0  0
 25 44  1  0  0  0  0
 25 45  1  0  0  0  0
 26 46  1  0  0  0  0
 26 47  1  0  0  0  0
 27 48  1  0  0  0  0
 27 49  1  0  0  0  0
 29 50  1  0  0  0  0
 29 51  1  0  0  0  0
 30 52  1  0  0  0  0
 30 53  1  0  0  0  0
M  END
> <Name>
39

> <IC50[uM]>
0.004

$$$$
39
  -OEChem-05192314333D
 Structure written by MMmdl.
 53 57  0     1  0  0  0  0  0999 V2000
   -6.3502   12.3553  -12.0171 C   0  0  0  0  0  0  0  0  0  0  0  0
   -6.4935   11.7977  -10.7426 C   0  0  0  0  0  0  0  0  0  0  0  0
   -7.7106   10.5751  -13.0385 C   0  0  0  0  0  0  0  0  0  0  0  0
   -6.9725   11.7720  -13.1357 C   0  0  0  0  0  0  0  0  0  0  0  0
   -7.8130   10.0109  -11.7654 C   0  0  0  0  0  0  0  0  0  0  0  0
   -7.2309   10.6170  -10.6058 C   0  0  0  0  0  0  0  0  0  0  0  0
   -7.6111    9.7517   -9.5147 C   0  0  0  0  0  0  0  0  0  0  0  0
   -8.2865    8.7392   -9.9897 N   0  0  0  0  0  0  0  0  0  0  0  0
   -8.4152    8.8682  -11.3006 N   0  0  0  0  0  0  0  0  0  0  0  0
   -7.3373    9.8888   -8.0252 C   0  0  0  0  0  0  0  0  0  0  0  0
   -4.3541   13.7129  -11.4635 N   0  0  0  0  0  0  0  0  0  0  0  0
   -5.5361   13.6428  -12.1728 C   0  0  0  0  0  0  0  0  0  0  0  0
   -5.9526   14.5668  -12.8773 O   0  0  0  0  0  0  0  0  0  0  0  0
   -5.9623   10.4854   -7.7364 C   0  0  0  0  0  0  0  0  0  0  0  0
   -5.8532   11.7571   -7.1646 C   0  0  0  0  0  0  0  0  0  0  0  0
   -4.5945   12.3064   -6.9180 C   0  0  0  0  0  0  0  0  0  0  0  0
   -3.4446   11.5858   -7.2382 C   0  0  0  0  0  0  0  0  0  0  0  0
   -3.5555   10.3115   -7.8022 C   0  0  0  0  0  0  0  0  0  0  0  0
   -4.8126    9.7649   -8.0516 C   0  0  0  0  0  0  0  0  0  0  0  0
   -2.0930   12.1652   -6.9785 C   0  0  0  0  0  0  0  0  0  0  0  0
   -1.7427   13.4236   -6.4970 C   0  0  0  0  0  0  0  0  0  0  0  0
   -0.4061   13.4591   -6.4324 N   0  0  3  0  0  0  0  0  0  0  0  0
    0.1810   12.3567   -6.8070 N   0  0  0  0  0  0  0  0  0  0  0  0
   -0.8030   11.5520   -7.1701 C   0  0  0  0  0  0  0  0  0  0  0  0
    0.4260   14.5701   -5.9973 C   0  0  0  0  0  0  0  0  0  0  0  0
   -3.6444   15.0059  -11.3286 C   0  0  0  0  0  0  0  0  0  0  0  0
   -2.1848   14.8660  -11.7465 C   0  0  0  0  0  0  0  0  0  0  0  0
   -1.5251   13.6965  -11.2881 O   0  0  0  0  0  0  0  0  0  0  0  0
   -2.2131   12.5012  -11.6333 C   0  0  0  0  0  0  0  0  0  0  0  0
   -3.6517   12.4721  -11.0120 C   0  0  0  0  0  0  0  0  0  0  0  0
   -6.0438   12.2692   -9.8813 H   0  0  0  0  0  0  0  0  0  0  0  0
   -8.1720   10.1191  -13.9020 H   0  0  0  0  0  0  0  0  0  0  0  0
   -6.8821   12.2554  -14.0972 H   0  0  0  0  0  0  0  0  0  0  0  0
   -8.8941    8.2115  -11.8831 H   0  0  0  0  0  0  0  0  0  0  0  0
   -8.0379    9.5965   -7.2570 H   0  0  0  0  0  0  0  0  0  0  0  0
   -6.7437   12.3143   -6.9138 H   0  0  0  0  0  0  0  0  0  0  0  0
   -4.5109   13.2897   -6.4791 H   0  0  0  0  0  0  0  0  0  0  0  0
   -2.6655    9.7499   -8.0449 H   0  0  0  0  0  0  0  0  0  0  0  0
   -4.8957    8.7813   -8.4899 H   0  0  0  0  0  0  0  0  0  0  0  0
   -2.1089   14.2047   -7.1794 H   0  0  0  0  0  0  0  0  0  0  0  0
   -2.1736   13.5790   -5.4969 H   0  0  0  0  0  0  0  0  0  0  0  0
   -0.6578   10.5563   -7.5625 H   0  0  0  0  0  0  0  0  0  0  0  0
    1.4856   14.2813   -6.0588 H   0  0  0  0  0  0  0  0  0  0  0  0
    0.2449   15.4398   -6.6461 H   0  0  0  0  0  0  0  0  0  0  0  0
    0.1766   14.8298   -4.9579 H   0  0  0  0  0  0  0  0  0  0  0  0
   -4.1332   15.7546  -11.9693 H   0  0  0  0  0  0  0  0  0  0  0  0
   -3.6898   15.3350  -10.2800 H   0  0  0  0  0  0  0  0  0  0  0  0
   -2.1459   14.8676  -12.8458 H   0  0  0  0  0  0  0  0  0  0  0  0
   -1.6368   15.7375  -11.3590 H   0  0  0  0  0  0  0  0  0  0  0  0
   -2.2945   12.4382  -12.7285 H   0  0  0  0  0  0  0  0  0  0  0  0
   -1.6432   11.6386  -11.2578 H   0  0  0  0  0  0  0  0  0  0  0  0
   -3.5876   12.4537   -9.9140 H   0  0  0  0  0  0  0  0  0  0  0  0
   -4.1956   11.5825  -11.3625 H   0  0  0  0  0  0  0  0  0  0  0  0
  1  2  2  0  0  0  0
  1  4  1  0  0  0  0
  1 12  1  0  0  0  0
  2  6  1  0  0  0  0
  3  4  2  0  0  0  0
  3  5  1  0  0  0  0
  5  6  2  0  0  0  0
  5  9  1  0  0  0  0
  6  7  1  0  0  0  0
  7  8  2  0  0  0  0
  7 10  1  0  0  0  0
  8  9  1  0  0  0  0
 10 14  2  0  0  0  0
 11 12  1  0  0  0  0
 11 26  1  0  0  0  0
 11 30  1  0  0  0  0
 12 13  2  0  0  0  0
 14 15  1  0  0  0  0
 14 19  1  0  0  0  0
 15 16  2  0  0  0  0
 16 17  1  0  0  0  0
 17 18  1  0  0  0  0
 17 20  2  0  0  0  0
 18 19  2  0  0  0  0
 20 21  1  0  0  0  0
 20 24  1  0  0  0  0
 21 22  1  0  0  0  0
 22 23  1  0  0  0  0
 22 25  1  0  0  0  0
 23 24  2  0  0  0  0
 26 27  1  0  0  0  0
 27 28  1  0  0  0  0
 28 29  1  0  0  0  0
 29 30  1  0  0  0  0
  2 31  1  0  0  0  0
  3 32  1  0  0  0  0
  4 33  1  0  0  0  0
  9 34  1  0  0  0  0
 10 35  1  0  0  0  0
 15 36  1  0  0  0  0
 16 37  1  0  0  0  0
 18 38  1  0  0  0  0
 19 39  1  0  0  0  0
 21 40  1  0  0  0  0
 21 41  1  0  0  0  0
 24 42  1  0  0  0  0
 25 43  1  0  0  0  0
 25 44  1  0  0  0  0
 25 45  1  0  0  0  0
 26 46  1  0  0  0  0
 26 47  1  0  0  0  0
 27 48  1  0  0  0  0
 27 49  1  0  0  0  0
 29 50  1  0  0  0  0
 29 51  1  0  0  0  0
 30 52  1  0  0  0  0
 30 53  1  0  0  0  0
M  END
> <Name>
39

> <IC50[uM]>
0.004

$$$$
39
  -OEChem-05192314333D
 Structure written by MMmdl.
 53 57  0     0  0  0  0  0  0999 V2000
   -6.3502   12.3553  -12.0171 C   0  0  0  0  0  0  0  0  0  0  0  0
   -6.4935   11.7977  -10.7426 C   0  0  0  0  0  0  0  0  0  0  0  0
   -7.7106   10.5751  -13.0385 C   0  0  0  0  0  0  0  0  0  0  0  0
   -6.9725   11.7720  -13.1357 C   0  0  0  0  0  0  0  0  0  0  0  0
   -7.8130   10.0109  -11.7654 C   0  0  0  0  0  0  0  0  0  0  0  0
   -7.2309   10.6170  -10.6058 C   0  0  0  0  0  0  0  0  0  0  0  0
   -7.6111    9.7517   -9.5147 C   0  0  0  0  0  0  0  0  0  0  0  0
   -8.2865    8.7392   -9.9897 N   0  0  0  0  0  0  0  0  0  0  0  0
   -8.4152    8.8682  -11.3006 N   0  0  0  0  0  0  0  0  0  0  0  0
   -7.3373    9.8888   -8.0252 C   0  0  0  0  0  0  0  0  0  0  0  0
   -4.3541   13.7129  -11.4635 N   0  0  0  0  0  0  0  0  0  0  0  0
   -5.5361   13.6428  -12.1728 C   0  0  0  0  0  0  0  0  0  0  0  0
   -5.9526   14.5668  -12.8773 O   0  0  0  0  0  0  0  0  0  0  0  0
   -5.9623   10.4854   -7.7364 C   0  0  0  0  0  0  0  0  0  0  0  0
   -5.8532   11.7571   -7.1646 C   0  0  0  0  0  0  0  0  0  0  0  0
   -4.5945   12.3064   -6.9180 C   0  0  0  0  0  0  0  0  0  0  0  0
   -3.4446   11.5858   -7.2382 C   0  0  0  0  0  0  0  0  0  0  0  0
   -3.5555   10.3115   -7.8022 C   0  0  0  0  0  0  0  0  0  0  0  0
   -4.8126    9.7649   -8.0516 C   0  0  0  0  0  0  0  0  0  0  0  0
   -2.0930   12.1652   -6.9785 C   0  0  0  0  0  0  0  0  0  0  0  0
   -1.7427   13.4236   -6.4970 C   0  0  0  0  0  0  0  0  0  0  0  0
   -0.4061   13.4591   -6.4324 N   0  0  0  0  0  0  0  0  0  0  0  0
    0.1810   12.3567   -6.8070 N   0  0  0  0  0  0  0  0  0  0  0  0
   -0.8030   11.5520   -7.1701 C   0  0  0  0  0  0  0  0  0  0  0  0
    0.4260   14.5701   -5.9973 C   0  0  0  0  0  0  0  0  0  0  0  0
   -3.6444   15.0059  -11.3286 C   0  0  0  0  0  0  0  0  0  0  0  0
   -2.1848   14.8660  -11.7465 C   0  0  0  0  0  0  0  0  0  0  0  0
   -1.5251   13.6965  -11.2881 O   0  0  0  0  0  0  0  0  0  0  0  0
   -2.2131   12.5012  -11.6333 C   0  0  0  0  0  0  0  0  0  0  0  0
   -3.6517   12.4721  -11.0120 C   0  0  0  0  0  0  0  0  0  0  0  0
   -6.0438   12.2692   -9.8813 H   0  0  0  0  0  0  0  0  0  0  0  0
   -8.1720   10.1191  -13.9020 H   0  0  0  0  0  0  0  0  0  0  0  0
   -6.8821   12.2554  -14.0972 H   0  0  0  0  0  0  0  0  0  0  0  0
   -8.6504    7.9828   -9.4462 H   0  0  0  0  0  0  0  0  0  0  0  0
   -8.0379    9.5965   -7.2570 H   0  0  0  0  0  0  0  0  0  0  0  0
   -6.7437   12.3143   -6.9138 H   0  0  0  0  0  0  0  0  0  0  0  0
   -4.5109   13.2897   -6.4791 H   0  0  0  0  0  0  0  0  0  0  0  0
   -3.4437   12.0319   -8.2437 H   0  0  0  0  0  0  0  0  0  0  0  0
   -2.6655    9.7499   -8.0449 H   0  0  0  0  0  0  0  0  0  0  0  0
   -4.8957    8.7813   -8.4899 H   0  0  0  0  0  0  0  0  0  0  0  0
   -2.4205   14.2199   -6.2269 H   0  0  0  0  0  0  0  0  0  0  0  0
   -0.6578   10.5563   -7.5625 H   0  0  0  0  0  0  0  0  0  0  0  0
    1.4856   14.2813   -6.0588 H   0  0  0  0  0  0  0  0  0  0  0  0
    0.2449   15.4398   -6.6461 H   0  0  0  0  0  0  0  0  0  0  0  0
    0.1766   14.8298   -4.9579 H   0  0  0  0  0  0  0  0  0  0  0  0
   -4.1332   15.7546  -11.9693 H   0  0  0  0  0  0  0  0  0  0  0  0
   -3.6898   15.3350  -10.2800 H   0  0  0  0  0  0  0  0  0  0  0  0
   -2.1459   14.8676  -12.8458 H   0  0  0  0  0  0  0  0  0  0  0  0
   -1.6368   15.7375  -11.3590 H   0  0  0  0  0  0  0  0  0  0  0  0
   -2.2945   12.4382  -12.7285 H   0  0  0  0  0  0  0  0  0  0  0  0
   -1.6432   11.6386  -11.2578 H   0  0  0  0  0  0  0  0  0  0  0  0
   -3.5876   12.4537   -9.9140 H   0  0  0  0  0  0  0  0  0  0  0  0
   -4.1956   11.5825  -11.3625 H   0  0  0  0  0  0  0  0  0  0  0  0
  1  2  2  0  0  0  0
  1  4  1  0  0  0  0
  1 12  1  0  0  0  0
  2  6  1  0  0  0  0
  3  4  2  0  0  0  0
  3  5  1  0  0  0  0
  5  6  1  0  0  0  0
  5  9  2  0  0  0  0
  6  7  2  0  0  0  0
  7  8  1  0  0  0  0
  7 10  1  0  0  0  0
  8  9  1  0  0  0  0
 10 14  2  0  0  0  0
 11 12  1  0  0  0  0
 11 26  1  0  0  0  0
 11 30  1  0  0  0  0
 12 13  2  0  0  0  0
 14 15  1  0  0  0  0
 14 19  1  0  0  0  0
 15 16  2  0  0  0  0
 16 17  1  0  0  0  0
 17 18  1  0  0  0  0
 17 20  1  0  0  0  0
 18 19  2  0  0  0  0
 20 21  2  0  0  0  0
 20 24  1  0  0  0  0
 21 22  1  0  0  0  0
 22 23  1  0  0  0  0
 22 25  1  0  0  0  0
 23 24  2  0  0  0  0
 26 27  1  0  0  0  0
 27 28  1  0  0  0  0
 28 29  1  0  0  0  0
 29 30  1  0  0  0  0
  2 31  1  0  0  0  0
  3 32  1  0  0  0  0
  4 33  1  0  0  0  0
  8 34  1  0  0  0  0
 10 35  1  0  0  0  0
 15 36  1  0  0  0  0
 16 37  1  0  0  0  0
 17 38  1  0  0  0  0
 18 39  1  0  0  0  0
 19 40  1  0  0  0  0
 21 41  1  0  0  0  0
 24 42  1  0  0  0  0
 25 43  1  0  0  0  0
 25 44  1  0  0  0  0
 25 45  1  0  0  0  0
 26 46  1  0  0  0  0
 26 47  1  0  0  0  0
 27 48  1  0  0  0  0
 27 49  1  0  0  0  0
 29 50  1  0  0  0  0
 29 51  1  0  0  0  0
 30 52  1  0  0  0  0
 30 53  1  0  0  0  0
M  END
> <Name>
39

> <IC50[uM]>
0.004

$$$$
39
  -OEChem-05192314333D
 Structure written by MMmdl.
 53 57  0     0  0  0  0  0  0999 V2000
   -6.3502   12.3553  -12.0171 C   0  0  0  0  0  0  0  0  0  0  0  0
   -6.4935   11.7977  -10.7426 C   0  0  0  0  0  0  0  0  0  0  0  0
   -7.7106   10.5751  -13.0385 C   0  0  0  0  0  0  0  0  0  0  0  0
   -6.9725   11.7720  -13.1357 C   0  0  0  0  0  0  0  0  0  0  0  0
   -7.8130   10.0109  -11.7654 C   0  0  0  0  0  0  0  0  0  0  0  0
   -7.2309   10.6170  -10.6058 C   0  0  0  0  0  0  0  0  0  0  0  0
   -7.6111    9.7517   -9.5147 C   0  0  0  0  0  0  0  0  0  0  0  0
   -8.2865    8.7392   -9.9897 N   0  0  0  0  0  0  0  0  0  0  0  0
   -8.4152    8.8682  -11.3006 N   0  0  0  0  0  0  0  0  0  0  0  0
   -7.3373    9.8888   -8.0252 C   0  0  0  0  0  0  0  0  0  0  0  0
   -4.3541   13.7129  -11.4635 N   0  0  0  0  0  0  0  0  0  0  0  0
   -5.5361   13.6428  -12.1728 C   0  0  0  0  0  0  0  0  0  0  0  0
   -5.9526   14.5668  -12.8773 O   0  0  0  0  0  0  0  0  0  0  0  0
   -5.9623   10.4854   -7.7364 C   0  0  0  0  0  0  0  0  0  0  0  0
   -5.8532   11.7571   -7.1646 C   0  0  0  0  0  0  0  0  0  0  0  0
   -4.5945   12.3064   -6.9180 C   0  0  0  0  0  0  0  0  0  0  0  0
   -3.4446   11.5858   -7.2382 C   0  0  0  0  0  0  0  0  0  0  0  0
   -3.5555   10.3115   -7.8022 C   0  0  0  0  0  0  0  0  0  0  0  0
   -4.8126    9.7649   -8.0516 C   0  0  0  0  0  0  0  0  0  0  0  0
   -2.0930   12.1652   -6.9785 C   0  0  0  0  0  0  0  0  0  0  0  0
   -1.7427   13.4236   -6.4970 C   0  0  0  0  0  0  0  0  0  0  0  0
   -0.4061   13.4591   -6.4324 N   0  0  0  0  0  0  0  0  0  0  0  0
    0.1810   12.3567   -6.8070 N   0  0  0  0  0  0  0  0  0  0  0  0
   -0.8030   11.5520   -7.1701 C   0  0  0  0  0  0  0  0  0  0  0  0
    0.4260   14.5701   -5.9973 C   0  0  0  0  0  0  0  0  0  0  0  0
   -3.6444   15.0059  -11.3286 C   0  0  0  0  0  0  0  0  0  0  0  0
   -2.1848   14.8660  -11.7465 C   0  0  0  0  0  0  0  0  0  0  0  0
   -1.5251   13.6965  -11.2881 O   0  0  0  0  0  0  0  0  0  0  0  0
   -2.2131   12.5012  -11.6333 C   0  0  0  0  0  0  0  0  0  0  0  0
   -3.6517   12.4721  -11.0120 C   0  0  0  0  0  0  0  0  0  0  0  0
   -6.0438   12.2692   -9.8813 H   0  0  0  0  0  0  0  0  0  0  0  0
   -8.1720   10.1191  -13.9020 H   0  0  0  0  0  0  0  0  0  0  0  0
   -6.8821   12.2554  -14.0972 H   0  0  0  0  0  0  0  0  0  0  0  0
   -8.8941    8.2115  -11.8831 H   0  0  0  0  0  0  0  0  0  0  0  0
   -8.0379    9.5965   -7.2570 H   0  0  0  0  0  0  0  0  0  0  0  0
   -6.7437   12.3143   -6.9138 H   0  0  0  0  0  0  0  0  0  0  0  0
   -4.5109   13.2897   -6.4791 H   0  0  0  0  0  0  0  0  0  0  0  0
   -3.4437   12.0319   -8.2437 H   0  0  0  0  0  0  0  0  0  0  0  0
   -2.6655    9.7499   -8.0449 H   0  0  0  0  0  0  0  0  0  0  0  0
   -4.8957    8.7813   -8.4899 H   0  0  0  0  0  0  0  0  0  0  0  0
   -2.4205   14.2199   -6.2269 H   0  0  0  0  0  0  0  0  0  0  0  0
   -0.6578   10.5563   -7.5625 H   0  0  0  0  0  0  0  0  0  0  0  0
    1.4856   14.2813   -6.0588 H   0  0  0  0  0  0  0  0  0  0  0  0
    0.2449   15.4398   -6.6461 H   0  0  0  0  0  0  0  0  0  0  0  0
    0.1766   14.8298   -4.9579 H   0  0  0  0  0  0  0  0  0  0  0  0
   -4.1332   15.7546  -11.9693 H   0  0  0  0  0  0  0  0  0  0  0  0
   -3.6898   15.3350  -10.2800 H   0  0  0  0  0  0  0  0  0  0  0  0
   -2.1459   14.8676  -12.8458 H   0  0  0  0  0  0  0  0  0  0  0  0
   -1.6368   15.7375  -11.3590 H   0  0  0  0  0  0  0  0  0  0  0  0
   -2.2945   12.4382  -12.7285 H   0  0  0  0  0  0  0  0  0  0  0  0
   -1.6432   11.6386  -11.2578 H   0  0  0  0  0  0  0  0  0  0  0  0
   -3.5876   12.4537   -9.9140 H   0  0  0  0  0  0  0  0  0  0  0  0
   -4.1956   11.5825  -11.3625 H   0  0  0  0  0  0  0  0  0  0  0  0
  1  2  2  0  0  0  0
  1  4  1  0  0  0  0
  1 12  1  0  0  0  0
  2  6  1  0  0  0  0
  3  4  2  0  0  0  0
  3  5  1  0  0  0  0
  5  6  2  0  0  0  0
  5  9  1  0  0  0  0
  6  7  1  0  0  0  0
  7  8  2  0  0  0  0
  7 10  1  0  0  0  0
  8  9  1  0  0  0  0
 10 14  2  0  0  0  0
 11 12  1  0  0  0  0
 11 26  1  0  0  0  0
 11 30  1  0  0  0  0
 12 13  2  0  0  0  0
 14 15  1  0  0  0  0
 14 19  1  0  0  0  0
 15 16  2  0  0  0  0
 16 17  1  0  0  0  0
 17 18  1  0  0  0  0
 17 20  1  0  0  0  0
 18 19  2  0  0  0  0
 20 21  2  0  0  0  0
 20 24  1  0  0  0  0
 21 22  1  0  0  0  0
 22 23  1  0  0  0  0
 22 25  1  0  0  0  0
 23 24  2  0  0  0  0
 26 27  1  0  0  0  0
 27 28  1  0  0  0  0
 28 29  1  0  0  0  0
 29 30  1  0  0  0  0
  2 31  1  0  0  0  0
  3 32  1  0  0  0  0
  4 33  1  0  0  0  0
  9 34  1  0  0  0  0
 10 35  1  0  0  0  0
 15 36  1  0  0  0  0
 16 37  1  0  0  0  0
 17 38  1  0  0  0  0
 18 39  1  0  0  0  0
 19 40  1  0  0  0  0
 21 41  1  0  0  0  0
 24 42  1  0  0  0  0
 25 43  1  0  0  0  0
 25 44  1  0  0  0  0
 25 45  1  0  0  0  0
 26 46  1  0  0  0  0
 26 47  1  0  0  0  0
 27 48  1  0  0  0  0
 27 49  1  0  0  0  0
 29 50  1  0  0  0  0
 29 51  1  0  0  0  0
 30 52  1  0  0  0  0
 30 53  1  0  0  0  0
M  END
> <Name>
39

> <IC50[uM]>
0.004

$$$$
39
  -OEChem-05192314333D
 Structure written by MMmdl.
 53 57  0     0  0  0  0  0  0999 V2000
   -6.3502   12.3553  -12.0171 C   0  0  0  0  0  0  0  0  0  0  0  0
   -6.4935   11.7977  -10.7426 C   0  0  0  0  0  0  0  0  0  0  0  0
   -7.7106   10.5751  -13.0385 C   0  0  0  0  0  0  0  0  0  0  0  0
   -6.9725   11.7720  -13.1357 C   0  0  0  0  0  0  0  0  0  0  0  0
   -7.8130   10.0109  -11.7654 C   0  0  0  0  0  0  0  0  0  0  0  0
   -7.2309   10.6170  -10.6058 C   0  0  0  0  0  0  0  0  0  0  0  0
   -7.6111    9.7517   -9.5147 C   0  0  0  0  0  0  0  0  0  0  0  0
   -8.2865    8.7392   -9.9897 N   0  0  0  0  0  0  0  0  0  0  0  0
   -8.4152    8.8682  -11.3006 N   0  0  0  0  0  0  0  0  0  0  0  0
   -7.3373    9.8888   -8.0252 C   0  0  0  0  0  0  0  0  0  0  0  0
   -4.3541   13.7129  -11.4635 N   0  0  0  0  0  0  0  0  0  0  0  0
   -5.5361   13.6428  -12.1728 C   0  0  0  0  0  0  0  0  0  0  0  0
   -5.9526   14.5668  -12.8773 O   0  0  0  0  0  0  0  0  0  0  0  0
   -5.9623   10.4854   -7.7364 C   0  0  0  0  0  0  0  0  0  0  0  0
   -5.8532   11.7571   -7.1646 C   0  0  0  0  0  0  0  0  0  0  0  0
   -4.5945   12.3064   -6.9180 C   0  0  0  0  0  0  0  0  0  0  0  0
   -3.4446   11.5858   -7.2382 C   0  0  0  0  0  0  0  0  0  0  0  0
   -3.5555   10.3115   -7.8022 C   0  0  0  0  0  0  0  0  0  0  0  0
   -4.8126    9.7649   -8.0516 C   0  0  0  0  0  0  0  0  0  0  0  0
   -2.0930   12.1652   -6.9785 C   0  0  0  0  0  0  0  0  0  0  0  0
   -1.7427   13.4236   -6.4970 C   0  0  0  0  0  0  0  0  0  0  0  0
   -0.4061   13.4591   -6.4324 N   0  0  0  0  0  0  0  0  0  0  0  0
    0.1810   12.3567   -6.8070 N   0  0  0  0  0  0  0  0  0  0  0  0
   -0.8030   11.5520   -7.1701 C   0  0  0  0  0  0  0  0  0  0  0  0
    0.4260   14.5701   -5.9973 C   0  0  0  0  0  0  0  0  0  0  0  0
   -3.6444   15.0059  -11.3286 C   0  0  0  0  0  0  0  0  0  0  0  0
   -2.1848   14.8660  -11.7465 C   0  0  0  0  0  0  0  0  0  0  0  0
   -1.5251   13.6965  -11.2881 O   0  0  0  0  0  0  0  0  0  0  0  0
   -2.2131   12.5012  -11.6333 C   0  0  0  0  0  0  0  0  0  0  0  0
   -3.6517   12.4721  -11.0120 C   0  0  0  0  0  0  0  0  0  0  0  0
   -6.0438   12.2692   -9.8813 H   0  0  0  0  0  0  0  0  0  0  0  0
   -8.1720   10.1191  -13.9020 H   0  0  0  0  0  0  0  0  0  0  0  0
   -6.8821   12.2554  -14.0972 H   0  0  0  0  0  0  0  0  0  0  0  0
   -8.6504    7.9828   -9.4462 H   0  0  0  0  0  0  0  0  0  0  0  0
   -8.0379    9.5965   -7.2570 H   0  0  0  0  0  0  0  0  0  0  0  0
   -6.7437   12.3143   -6.9138 H   0  0  0  0  0  0  0  0  0  0  0  0
   -4.5109   13.2897   -6.4791 H   0  0  0  0  0  0  0  0  0  0  0  0
   -2.6655    9.7499   -8.0449 H   0  0  0  0  0  0  0  0  0  0  0  0
   -4.8654    8.8212   -7.4888 H   0  0  0  0  0  0  0  0  0  0  0  0
   -4.8575    9.5518   -9.1298 H   0  0  0  0  0  0  0  0  0  0  0  0
   -2.4205   14.2199   -6.2269 H   0  0  0  0  0  0  0  0  0  0  0  0
   -0.6578   10.5563   -7.5625 H   0  0  0  0  0  0  0  0  0  0  0  0
    1.4856   14.2813   -6.0588 H   0  0  0  0  0  0  0  0  0  0  0  0
    0.2449   15.4398   -6.6461 H   0  0  0  0  0  0  0  0  0  0  0  0
    0.1766   14.8298   -4.9579 H   0  0  0  0  0  0  0  0  0  0  0  0
   -4.1332   15.7546  -11.9693 H   0  0  0  0  0  0  0  0  0  0  0  0
   -3.6898   15.3350  -10.2800 H   0  0  0  0  0  0  0  0  0  0  0  0
   -2.1459   14.8676  -12.8458 H   0  0  0  0  0  0  0  0  0  0  0  0
   -1.6368   15.7375  -11.3590 H   0  0  0  0  0  0  0  0  0  0  0  0
   -2.2945   12.4382  -12.7285 H   0  0  0  0  0  0  0  0  0  0  0  0
   -1.6432   11.6386  -11.2578 H   0  0  0  0  0  0  0  0  0  0  0  0
   -3.5876   12.4537   -9.9140 H   0  0  0  0  0  0  0  0  0  0  0  0
   -4.1956   11.5825  -11.3625 H   0  0  0  0  0  0  0  0  0  0  0  0
  1  2  2  0  0  0  0
  1  4  1  0  0  0  0
  1 12  1  0  0  0  0
  2  6  1  0  0  0  0
  3  4  2  0  0  0  0
  3  5  1  0  0  0  0
  5  6  1  0  0  0  0
  5  9  2  0  0  0  0
  6  7  2  0  0  0  0
  7  8  1  0  0  0  0
  7 10  1  0  0  0  0
  8  9  1  0  0  0  0
 10 14  2  3  0  0  0
 11 12  1  0  0  0  0
 11 26  1  0  0  0  0
 11 30  1  0  0  0  0
 12 13  2  0  0  0  0
 14 15  1  0  0  0  0
 14 19  1  0  0  0  0
 15 16  2  0  0  0  0
 16 17  1  0  0  0  0
 17 18  2  0  0  0  0
 17 20  1  0  0  0  0
 18 19  1  0  0  0  0
 20 21  2  0  0  0  0
 20 24  1  0  0  0  0
 21 22  1  0  0  0  0
 22 23  1  0  0  0  0
 22 25  1  0  0  0  0
 23 24  2  0  0  0  0
 26 27  1  0  0  0  0
 27 28  1  0  0  0  0
 28 29  1  0  0  0  0
 29 30  1  0  0  0  0
  2 31  1  0  0  0  0
  3 32  1  0  0  0  0
  4 33  1  0  0  0  0
  8 34  1  0  0  0  0
 10 35  1  0  0  0  0
 15 36  1  0  0  0  0
 16 37  1  0  0  0  0
 18 38  1  0  0  0  0
 19 39  1  0  0  0  0
 19 40  1  0  0  0  0
 21 41  1  0  0  0  0
 24 42  1  0  0  0  0
 25 43  1  0  0  0  0
 25 44  1  0  0  0  0
 25 45  1  0  0  0  0
 26 46  1  0  0  0  0
 26 47  1  0  0  0  0
 27 48  1  0  0  0  0
 27 49  1  0  0  0  0
 29 50  1  0  0  0  0
 29 51  1  0  0  0  0
 30 52  1  0  0  0  0
 30 53  1  0  0  0  0
M  END
> <Name>
39

> <IC50[uM]>
0.004

$$$$
39
  -OEChem-05192314333D
 Structure written by MMmdl.
 53 57  0     0  0  0  0  0  0999 V2000
   -6.3502   12.3553  -12.0171 C   0  0  0  0  0  0  0  0  0  0  0  0
   -6.4935   11.7977  -10.7426 C   0  0  0  0  0  0  0  0  0  0  0  0
   -7.7106   10.5751  -13.0385 C   0  0  0  0  0  0  0  0  0  0  0  0
   -6.9725   11.7720  -13.1357 C   0  0  0  0  0  0  0  0  0  0  0  0
   -7.8130   10.0109  -11.7654 C   0  0  0  0  0  0  0  0  0  0  0  0
   -7.2309   10.6170  -10.6058 C   0  0  0  0  0  0  0  0  0  0  0  0
   -7.6111    9.7517   -9.5147 C   0  0  0  0  0  0  0  0  0  0  0  0
   -8.2865    8.7392   -9.9897 N   0  0  0  0  0  0  0  0  0  0  0  0
   -8.4152    8.8682  -11.3006 N   0  0  0  0  0  0  0  0  0  0  0  0
   -7.3373    9.8888   -8.0252 C   0  0  0  0  0  0  0  0  0  0  0  0
   -4.3541   13.7129  -11.4635 N   0  0  0  0  0  0  0  0  0  0  0  0
   -5.5361   13.6428  -12.1728 C   0  0  0  0  0  0  0  0  0  0  0  0
   -5.9526   14.5668  -12.8773 O   0  0  0  0  0  0  0  0  0  0  0  0
   -5.9623   10.4854   -7.7364 C   0  0  0  0  0  0  0  0  0  0  0  0
   -5.8532   11.7571   -7.1646 C   0  0  0  0  0  0  0  0  0  0  0  0
   -4.5945   12.3064   -6.9180 C   0  0  0  0  0  0  0  0  0  0  0  0
   -3.4446   11.5858   -7.2382 C   0  0  0  0  0  0  0  0  0  0  0  0
   -3.5555   10.3115   -7.8022 C   0  0  0  0  0  0  0  0  0  0  0  0
   -4.8126    9.7649   -8.0516 C   0  0  0  0  0  0  0  0  0  0  0  0
   -2.0930   12.1652   -6.9785 C   0  0  0  0  0  0  0  0  0  0  0  0
   -1.7427   13.4236   -6.4970 C   0  0  0  0  0  0  0  0  0  0  0  0
   -0.4061   13.4591   -6.4324 N   0  0  0  0  0  0  0  0  0  0  0  0
    0.1810   12.3567   -6.8070 N   0  0  0  0  0  0  0  0  0  0  0  0
   -0.8030   11.5520   -7.1701 C   0  0  0  0  0  0  0  0  0  0  0  0
    0.4260   14.5701   -5.9973 C   0  0  0  0  0  0  0  0  0  0  0  0
   -3.6444   15.0059  -11.3286 C   0  0  0  0  0  0  0  0  0  0  0  0
   -2.1848   14.8660  -11.7465 C   0  0  0  0  0  0  0  0  0  0  0  0
   -1.5251   13.6965  -11.2881 O   0  0  0  0  0  0  0  0  0  0  0  0
   -2.2131   12.5012  -11.6333 C   0  0  0  0  0  0  0  0  0  0  0  0
   -3.6517   12.4721  -11.0120 C   0  0  0  0  0  0  0  0  0  0  0  0
   -6.0438   12.2692   -9.8813 H   0  0  0  0  0  0  0  0  0  0  0  0
   -8.1720   10.1191  -13.9020 H   0  0  0  0  0  0  0  0  0  0  0  0
   -6.8821   12.2554  -14.0972 H   0  0  0  0  0  0  0  0  0  0  0  0
   -8.8941    8.2115  -11.8831 H   0  0  0  0  0  0  0  0  0  0  0  0
   -8.0379    9.5965   -7.2570 H   0  0  0  0  0  0  0  0  0  0  0  0
   -6.7437   12.3143   -6.9138 H   0  0  0  0  0  0  0  0  0  0  0  0
   -4.5109   13.2897   -6.4791 H   0  0  0  0  0  0  0  0  0  0  0  0
   -2.6655    9.7499   -8.0449 H   0  0  0  0  0  0  0  0  0  0  0  0
   -4.8654    8.8212   -7.4888 H   0  0  0  0  0  0  0  0  0  0  0  0
   -4.8575    9.5518   -9.1298 H   0  0  0  0  0  0  0  0  0  0  0  0
   -2.4205   14.2199   -6.2269 H   0  0  0  0  0  0  0  0  0  0  0  0
   -0.6578   10.5563   -7.5625 H   0  0  0  0  0  0  0  0  0  0  0  0
    1.4856   14.2813   -6.0588 H   0  0  0  0  0  0  0  0  0  0  0  0
    0.2449   15.4398   -6.6461 H   0  0  0  0  0  0  0  0  0  0  0  0
    0.1766   14.8298   -4.9579 H   0  0  0  0  0  0  0  0  0  0  0  0
   -4.1332   15.7546  -11.9693 H   0  0  0  0  0  0  0  0  0  0  0  0
   -3.6898   15.3350  -10.2800 H   0  0  0  0  0  0  0  0  0  0  0  0
   -2.1459   14.8676  -12.8458 H   0  0  0  0  0  0  0  0  0  0  0  0
   -1.6368   15.7375  -11.3590 H   0  0  0  0  0  0  0  0  0  0  0  0
   -2.2945   12.4382  -12.7285 H   0  0  0  0  0  0  0  0  0  0  0  0
   -1.6432   11.6386  -11.2578 H   0  0  0  0  0  0  0  0  0  0  0  0
   -3.5876   12.4537   -9.9140 H   0  0  0  0  0  0  0  0  0  0  0  0
   -4.1956   11.5825  -11.3625 H   0  0  0  0  0  0  0  0  0  0  0  0
  1  2  2  0  0  0  0
  1  4  1  0  0  0  0
  1 12  1  0  0  0  0
  2  6  1  0  0  0  0
  3  4  2  0  0  0  0
  3  5  1  0  0  0  0
  5  6  2  0  0  0  0
  5  9  1  0  0  0  0
  6  7  1  0  0  0  0
  7  8  2  0  0  0  0
  7 10  1  0  0  0  0
  8  9  1  0  0  0  0
 10 14  2  3  0  0  0
 11 12  1  0  0  0  0
 11 26  1  0  0  0  0
 11 30  1  0  0  0  0
 12 13  2  0  0  0  0
 14 15  1  0  0  0  0
 14 19  1  0  0  0  0
 15 16  2  0  0  0  0
 16 17  1  0  0  0  0
 17 18  2  0  0  0  0
 17 20  1  0  0  0  0
 18 19  1  0  0  0  0
 20 21  2  0  0  0  0
 20 24  1  0  0  0  0
 21 22  1  0  0  0  0
 22 23  1  0  0  0  0
 22 25  1  0  0  0  0
 23 24  2  0  0  0  0
 26 27  1  0  0  0  0
 27 28  1  0  0  0  0
 28 29  1  0  0  0  0
 29 30  1  0  0  0  0
  2 31  1  0  0  0  0
  3 32  1  0  0  0  0
  4 33  1  0  0  0  0
  9 34  1  0  0  0  0
 10 35  1  0  0  0  0
 15 36  1  0  0  0  0
 16 37  1  0  0  0  0
 18 38  1  0  0  0  0
 19 39  1  0  0  0  0
 19 40  1  0  0  0  0
 21 41  1  0  0  0  0
 24 42  1  0  0  0  0
 25 43  1  0  0  0  0
 25 44  1  0  0  0  0
 25 45  1  0  0  0  0
 26 46  1  0  0  0  0
 26 47  1  0  0  0  0
 27 48  1  0  0  0  0
 27 49  1  0  0  0  0
 29 50  1  0  0  0  0
 29 51  1  0  0  0  0
 30 52  1  0  0  0  0
 30 53  1  0  0  0  0
M  END
> <Name>
39

> <IC50[uM]>
0.004

$$$$
39
  -OEChem-05192314333D
 Structure written by MMmdl.
 53 57  0     1  0  0  0  0  0999 V2000
   -6.3502   12.3553  -12.0171 C   0  0  0  0  0  0  0  0  0  0  0  0
   -6.4935   11.7977  -10.7426 C   0  0  0  0  0  0  0  0  0  0  0  0
   -7.7106   10.5751  -13.0385 C   0  0  0  0  0  0  0  0  0  0  0  0
   -6.9725   11.7720  -13.1357 C   0  0  0  0  0  0  0  0  0  0  0  0
   -7.8130   10.0109  -11.7654 C   0  0  0  0  0  0  0  0  0  0  0  0
   -7.2309   10.6170  -10.6058 C   0  0  0  0  0  0  0  0  0  0  0  0
   -7.6111    9.7517   -9.5147 C   0  0  0  0  0  0  0  0  0  0  0  0
   -8.2865    8.7392   -9.9897 N   0  0  0  0  0  0  0  0  0  0  0  0
   -8.4152    8.8682  -11.3006 N   0  0  0  0  0  0  0  0  0  0  0  0
   -7.3373    9.8888   -8.0252 C   0  0  0  0  0  0  0  0  0  0  0  0
   -4.3541   13.7129  -11.4635 N   0  0  0  0  0  0  0  0  0  0  0  0
   -5.5361   13.6428  -12.1728 C   0  0  0  0  0  0  0  0  0  0  0  0
   -5.9526   14.5668  -12.8773 O   0  0  0  0  0  0  0  0  0  0  0  0
   -5.9623   10.4854   -7.7364 C   0  0  0  0  0  0  0  0  0  0  0  0
   -5.8532   11.7571   -7.1646 C   0  0  0  0  0  0  0  0  0  0  0  0
   -4.5945   12.3064   -6.9180 C   0  0  0  0  0  0  0  0  0  0  0  0
   -3.4446   11.5858   -7.2382 C   0  0  0  0  0  0  0  0  0  0  0  0
   -3.5555   10.3115   -7.8022 C   0  0  0  0  0  0  0  0  0  0  0  0
   -4.8126    9.7649   -8.0516 C   0  0  0  0  0  0  0  0  0  0  0  0
   -2.0930   12.1652   -6.9785 C   0  0  3  0  0  0  0  0  0  0  0  0
   -1.7427   13.4236   -6.4970 C   0  0  0  0  0  0  0  0  0  0  0  0
   -0.4061   13.4591   -6.4324 N   0  0  3  0  0  0  0  0  0  0  0  0
    0.1810   12.3567   -6.8070 N   0  0  0  0  0  0  0  0  0  0  0  0
   -0.8030   11.5520   -7.1701 C   0  0  0  0  0  0  0  0  0  0  0  0
    0.4260   14.5701   -5.9973 C   0  0  0  0  0  0  0  0  0  0  0  0
   -3.6444   15.0059  -11.3286 C   0  0  0  0  0  0  0  0  0  0  0  0
   -2.1848   14.8660  -11.7465 C   0  0  0  0  0  0  0  0  0  0  0  0
   -1.5251   13.6965  -11.2881 O   0  0  0  0  0  0  0  0  0  0  0  0
   -2.2131   12.5012  -11.6333 C   0  0  0  0  0  0  0  0  0  0  0  0
   -3.6517   12.4721  -11.0120 C   0  0  0  0  0  0  0  0  0  0  0  0
   -6.0438   12.2692   -9.8813 H   0  0  0  0  0  0  0  0  0  0  0  0
   -8.1720   10.1191  -13.9020 H   0  0  0  0  0  0  0  0  0  0  0  0
   -6.8821   12.2554  -14.0972 H   0  0  0  0  0  0  0  0  0  0  0  0
   -8.0379    9.5965   -7.2570 H   0  0  0  0  0  0  0  0  0  0  0  0
   -6.7437   12.3143   -6.9138 H   0  0  0  0  0  0  0  0  0  0  0  0
   -4.5109   13.2897   -6.4791 H   0  0  0  0  0  0  0  0  0  0  0  0
   -2.6655    9.7499   -8.0449 H   0  0  0  0  0  0  0  0  0  0  0  0
   -4.8957    8.7813   -8.4899 H   0  0  0  0  0  0  0  0  0  0  0  0
   -2.1245   11.7791   -5.9490 H   0  0  0  0  0  0  0  0  0  0  0  0
   -2.1089   14.2047   -7.1794 H   0  0  0  0  0  0  0  0  0  0  0  0
   -2.1736   13.5790   -5.4969 H   0  0  0  0  0  0  0  0  0  0  0  0
   -0.6578   10.5563   -7.5625 H   0  0  0  0  0  0  0  0  0  0  0  0
    1.4856   14.2813   -6.0588 H   0  0  0  0  0  0  0  0  0  0  0  0
    0.2449   15.4398   -6.6461 H   0  0  0  0  0  0  0  0  0  0  0  0
    0.1766   14.8298   -4.9579 H   0  0  0  0  0  0  0  0  0  0  0  0
   -4.1332   15.7546  -11.9693 H   0  0  0  0  0  0  0  0  0  0  0  0
   -3.6898   15.3350  -10.2800 H   0  0  0  0  0  0  0  0  0  0  0  0
   -2.1459   14.8676  -12.8458 H   0  0  0  0  0  0  0  0  0  0  0  0
   -1.6368   15.7375  -11.3590 H   0  0  0  0  0  0  0  0  0  0  0  0
   -2.2945   12.4382  -12.7285 H   0  0  0  0  0  0  0  0  0  0  0  0
   -1.6432   11.6386  -11.2578 H   0  0  0  0  0  0  0  0  0  0  0  0
   -3.5876   12.4537   -9.9140 H   0  0  0  0  0  0  0  0  0  0  0  0
   -4.1956   11.5825  -11.3625 H   0  0  0  0  0  0  0  0  0  0  0  0
  1  2  2  0  0  0  0
  1  4  1  0  0  0  0
  1 12  1  0  0  0  0
  2  6  1  0  0  0  0
  3  4  2  0  0  0  0
  3  5  1  0  0  0  0
  5  6  2  0  0  0  0
  5  9  1  0  0  0  0
  6  7  1  0  0  0  0
  7  8  1  0  0  0  0
  7 10  2  3  0  0  0
  8  9  2  0  0  0  0
 10 14  1  0  0  0  0
 11 12  1  0  0  0  0
 11 26  1  0  0  0  0
 11 30  1  0  0  0  0
 12 13  2  0  0  0  0
 14 15  2  0  0  0  0
 14 19  1  0  0  0  0
 15 16  1  0  0  0  0
 16 17  2  0  0  0  0
 17 18  1  0  0  0  0
 17 20  1  0  0  0  0
 18 19  2  0  0  0  0
 20 21  1  0  0  0  0
 20 24  1  0  0  0  0
 21 22  1  0  0  0  0
 22 23  1  0  0  0  0
 22 25  1  0  0  0  0
 23 24  2  0  0  0  0
 26 27  1  0  0  0  0
 27 28  1  0  0  0  0
 28 29  1  0  0  0  0
 29 30  1  0  0  0  0
  2 31  1  0  0  0  0
  3 32  1  0  0  0  0
  4 33  1  0  0  0  0
 10 34  1  0  0  0  0
 15 35  1  0  0  0  0
 16 36  1  0  0  0  0
 18 37  1  0  0  0  0
 19 38  1  0  0  0  0
 20 39  1  0  0  0  0
 21 40  1  0  0  0  0
 21 41  1  0  0  0  0
 24 42  1  0  0  0  0
 25 43  1  0  0  0  0
 25 44  1  0  0  0  0
 25 45  1  0  0  0  0
 26 46  1  0  0  0  0
 26 47  1  0  0  0  0
 27 48  1  0  0  0  0
 27 49  1  0  0  0  0
 29 50  1  0  0  0  0
 29 51  1  0  0  0  0
 30 52  1  0  0  0  0
 30 53  1  0  0  0  0
M  END
> <Name>
39

> <IC50[uM]>
0.004

$$$$
39
  -OEChem-05192314333D
 Structure written by MMmdl.
 53 57  0     1  0  0  0  0  0999 V2000
   -6.3502   12.3553  -12.0171 C   0  0  0  0  0  0  0  0  0  0  0  0
   -6.4935   11.7977  -10.7426 C   0  0  0  0  0  0  0  0  0  0  0  0
   -7.7106   10.5751  -13.0385 C   0  0  0  0  0  0  0  0  0  0  0  0
   -6.9725   11.7720  -13.1357 C   0  0  0  0  0  0  0  0  0  0  0  0
   -7.8130   10.0109  -11.7654 C   0  0  0  0  0  0  0  0  0  0  0  0
   -7.2309   10.6170  -10.6058 C   0  0  0  0  0  0  0  0  0  0  0  0
   -7.6111    9.7517   -9.5147 C   0  0  0  0  0  0  0  0  0  0  0  0
   -8.2865    8.7392   -9.9897 N   0  0  0  0  0  0  0  0  0  0  0  0
   -8.4152    8.8682  -11.3006 N   0  0  0  0  0  0  0  0  0  0  0  0
   -7.3373    9.8888   -8.0252 C   0  0  0  0  0  0  0  0  0  0  0  0
   -4.3541   13.7129  -11.4635 N   0  0  0  0  0  0  0  0  0  0  0  0
   -5.5361   13.6428  -12.1728 C   0  0  0  0  0  0  0  0  0  0  0  0
   -5.9526   14.5668  -12.8773 O   0  0  0  0  0  0  0  0  0  0  0  0
   -5.9623   10.4854   -7.7364 C   0  0  0  0  0  0  0  0  0  0  0  0
   -5.8532   11.7571   -7.1646 C   0  0  0  0  0  0  0  0  0  0  0  0
   -4.5945   12.3064   -6.9180 C   0  0  0  0  0  0  0  0  0  0  0  0
   -3.4446   11.5858   -7.2382 C   0  0  0  0  0  0  0  0  0  0  0  0
   -3.5555   10.3115   -7.8022 C   0  0  0  0  0  0  0  0  0  0  0  0
   -4.8126    9.7649   -8.0516 C   0  0  0  0  0  0  0  0  0  0  0  0
   -2.0930   12.1652   -6.9785 C   0  0  0  0  0  0  0  0  0  0  0  0
   -1.7427   13.4236   -6.4970 C   0  0  0  0  0  0  0  0  0  0  0  0
   -0.4061   13.4591   -6.4324 N   0  0  3  0  0  0  0  0  0  0  0  0
    0.1810   12.3567   -6.8070 N   0  0  0  0  0  0  0  0  0  0  0  0
   -0.8030   11.5520   -7.1701 C   0  0  0  0  0  0  0  0  0  0  0  0
    0.4260   14.5701   -5.9973 C   0  0  0  0  0  0  0  0  0  0  0  0
   -3.6444   15.0059  -11.3286 C   0  0  0  0  0  0  0  0  0  0  0  0
   -2.1848   14.8660  -11.7465 C   0  0  0  0  0  0  0  0  0  0  0  0
   -1.5251   13.6965  -11.2881 O   0  0  0  0  0  0  0  0  0  0  0  0
   -2.2131   12.5012  -11.6333 C   0  0  0  0  0  0  0  0  0  0  0  0
   -3.6517   12.4721  -11.0120 C   0  0  0  0  0  0  0  0  0  0  0  0
   -6.0438   12.2692   -9.8813 H   0  0  0  0  0  0  0  0  0  0  0  0
   -8.1720   10.1191  -13.9020 H   0  0  0  0  0  0  0  0  0  0  0  0
   -6.8821   12.2554  -14.0972 H   0  0  0  0  0  0  0  0  0  0  0  0
   -8.0379    9.5965   -7.2570 H   0  0  0  0  0  0  0  0  0  0  0  0
   -6.7437   12.3143   -6.9138 H   0  0  0  0  0  0  0  0  0  0  0  0
   -4.5109   13.2897   -6.4791 H   0  0  0  0  0  0  0  0  0  0  0  0
   -2.6655    9.7499   -8.0449 H   0  0  0  0  0  0  0  0  0  0  0  0
   -4.8957    8.7813   -8.4899 H   0  0  0  0  0  0  0  0  0  0  0  0
   -2.4205   14.2199   -6.2269 H   0  0  0  0  0  0  0  0  0  0  0  0
    0.7958   12.5297   -7.5765 H   0  0  0  0  0  0  0  0  0  0  0  0
   -0.7524   10.6330   -6.5676 H   0  0  0  0  0  0  0  0  0  0  0  0
   -0.6829   11.3000   -8.2341 H   0  0  0  0  0  0  0  0  0  0  0  0
    1.4857   14.2820   -6.0608 H   0  0  0  0  0  0  0  0  0  0  0  0
    0.2433   15.4404   -6.6448 H   0  0  0  0  0  0  0  0  0  0  0  0
    0.1780   14.8284   -4.9572 H   0  0  0  0  0  0  0  0  0  0  0  0
   -4.1332   15.7546  -11.9693 H   0  0  0  0  0  0  0  0  0  0  0  0
   -3.6898   15.3350  -10.2800 H   0  0  0  0  0  0  0  0  0  0  0  0
   -2.1459   14.8676  -12.8458 H   0  0  0  0  0  0  0  0  0  0  0  0
   -1.6368   15.7375  -11.3590 H   0  0  0  0  0  0  0  0  0  0  0  0
   -2.2945   12.4382  -12.7285 H   0  0  0  0  0  0  0  0  0  0  0  0
   -1.6432   11.6386  -11.2578 H   0  0  0  0  0  0  0  0  0  0  0  0
   -3.5876   12.4537   -9.9140 H   0  0  0  0  0  0  0  0  0  0  0  0
   -4.1956   11.5825  -11.3625 H   0  0  0  0  0  0  0  0  0  0  0  0
  1  2  2  0  0  0  0
  1  4  1  0  0  0  0
  1 12  1  0  0  0  0
  2  6  1  0  0  0  0
  3  4  2  0  0  0  0
  3  5  1  0  0  0  0
  5  6  2  0  0  0  0
  5  9  1  0  0  0  0
  6  7  1  0  0  0  0
  7  8  1  0  0  0  0
  7 10  2  3  0  0  0
  8  9  2  0  0  0  0
 10 14  1  0  0  0  0
 11 12  1  0  0  0  0
 11 26  1  0  0  0  0
 11 30  1  0  0  0  0
 12 13  2  0  0  0  0
 14 15  2  0  0  0  0
 14 19  1  0  0  0  0
 15 16  1  0  0  0  0
 16 17  2  0  0  0  0
 17 18  1  0  0  0  0
 17 20  1  0  0  0  0
 18 19  2  0  0  0  0
 20 21  2  0  0  0  0
 20 24  1  0  0  0  0
 21 22  1  0  0  0  0
 22 23  1  0  0  0  0
 22 25  1  0  0  0  0
 23 24  1  0  0  0  0
 26 27  1  0  0  0  0
 27 28  1  0  0  0  0
 28 29  1  0  0  0  0
 29 30  1  0  0  0  0
  2 31  1  0  0  0  0
  3 32  1  0  0  0  0
  4 33  1  0  0  0  0
 10 34  1  0  0  0  0
 15 35  1  0  0  0  0
 16 36  1  0  0  0  0
 18 37  1  0  0  0  0
 19 38  1  0  0  0  0
 21 39  1  0  0  0  0
 23 40  1  0  0  0  0
 24 41  1  0  0  0  0
 24 42  1  0  0  0  0
 25 43  1  0  0  0  0
 25 44  1  0  0  0  0
 25 45  1  0  0  0  0
 26 46  1  0  0  0  0
 26 47  1  0  0  0  0
 27 48  1  0  0  0  0
 27 49  1  0  0  0  0
 29 50  1  0  0  0  0
 29 51  1  0  0  0  0
 30 52  1  0  0  0  0
 30 53  1  0  0  0  0
M  END
> <Name>
39

> <IC50[uM]>
0.004

$$$$
39
  -OEChem-05192314333D
 Structure written by MMmdl.
 53 57  0     1  0  0  0  0  0999 V2000
   -6.3502   12.3553  -12.0171 C   0  0  0  0  0  0  0  0  0  0  0  0
   -6.4935   11.7977  -10.7426 C   0  0  0  0  0  0  0  0  0  0  0  0
   -7.7106   10.5751  -13.0385 C   0  0  0  0  0  0  0  0  0  0  0  0
   -6.9725   11.7720  -13.1357 C   0  0  0  0  0  0  0  0  0  0  0  0
   -7.8130   10.0109  -11.7654 C   0  0  0  0  0  0  0  0  0  0  0  0
   -7.2309   10.6170  -10.6058 C   0  0  0  0  0  0  0  0  0  0  0  0
   -7.6111    9.7517   -9.5147 C   0  0  0  0  0  0  0  0  0  0  0  0
   -8.2865    8.7392   -9.9897 N   0  0  0  0  0  0  0  0  0  0  0  0
   -8.4152    8.8682  -11.3006 N   0  0  0  0  0  0  0  0  0  0  0  0
   -7.3373    9.8888   -8.0252 C   0  0  0  0  0  0  0  0  0  0  0  0
   -4.3541   13.7129  -11.4635 N   0  0  0  0  0  0  0  0  0  0  0  0
   -5.5361   13.6428  -12.1728 C   0  0  0  0  0  0  0  0  0  0  0  0
   -5.9526   14.5668  -12.8773 O   0  0  0  0  0  0  0  0  0  0  0  0
   -5.9623   10.4854   -7.7364 C   0  0  0  0  0  0  0  0  0  0  0  0
   -5.8532   11.7571   -7.1646 C   0  0  0  0  0  0  0  0  0  0  0  0
   -4.5945   12.3064   -6.9180 C   0  0  0  0  0  0  0  0  0  0  0  0
   -3.4446   11.5858   -7.2382 C   0  0  0  0  0  0  0  0  0  0  0  0
   -3.5555   10.3115   -7.8022 C   0  0  0  0  0  0  0  0  0  0  0  0
   -4.8126    9.7649   -8.0516 C   0  0  0  0  0  0  0  0  0  0  0  0
   -2.0930   12.1652   -6.9785 C   0  0  0  0  0  0  0  0  0  0  0  0
   -1.7427   13.4236   -6.4970 C   0  0  0  0  0  0  0  0  0  0  0  0
   -0.4061   13.4591   -6.4324 N   0  0  3  0  0  0  0  0  0  0  0  0
    0.1810   12.3567   -6.8070 N   0  0  0  0  0  0  0  0  0  0  0  0
   -0.8030   11.5520   -7.1701 C   0  0  0  0  0  0  0  0  0  0  0  0
    0.4260   14.5701   -5.9973 C   0  0  0  0  0  0  0  0  0  0  0  0
   -3.6444   15.0059  -11.3286 C   0  0  0  0  0  0  0  0  0  0  0  0
   -2.1848   14.8660  -11.7465 C   0  0  0  0  0  0  0  0  0  0  0  0
   -1.5251   13.6965  -11.2881 O   0  0  0  0  0  0  0  0  0  0  0  0
   -2.2131   12.5012  -11.6333 C   0  0  0  0  0  0  0  0  0  0  0  0
   -3.6517   12.4721  -11.0120 C   0  0  0  0  0  0  0  0  0  0  0  0
   -6.0438   12.2692   -9.8813 H   0  0  0  0  0  0  0  0  0  0  0  0
   -8.1720   10.1191  -13.9020 H   0  0  0  0  0  0  0  0  0  0  0  0
   -6.8821   12.2554  -14.0972 H   0  0  0  0  0  0  0  0  0  0  0  0
   -8.0379    9.5965   -7.2570 H   0  0  0  0  0  0  0  0  0  0  0  0
   -6.7437   12.3143   -6.9138 H   0  0  0  0  0  0  0  0  0  0  0  0
   -4.5109   13.2897   -6.4791 H   0  0  0  0  0  0  0  0  0  0  0  0
   -2.6655    9.7499   -8.0449 H   0  0  0  0  0  0  0  0  0  0  0  0
   -4.8957    8.7813   -8.4899 H   0  0  0  0  0  0  0  0  0  0  0  0
   -2.1089   14.2047   -7.1794 H   0  0  0  0  0  0  0  0  0  0  0  0
   -2.1736   13.5790   -5.4969 H   0  0  0  0  0  0  0  0  0  0  0  0
    0.7958   12.5297   -7.5765 H   0  0  0  0  0  0  0  0  0  0  0  0
   -0.6578   10.5563   -7.5625 H   0  0  0  0  0  0  0  0  0  0  0  0
    1.4857   14.2820   -6.0608 H   0  0  0  0  0  0  0  0  0  0  0  0
    0.2433   15.4404   -6.6448 H   0  0  0  0  0  0  0  0  0  0  0  0
    0.1780   14.8284   -4.9572 H   0  0  0  0  0  0  0  0  0  0  0  0
   -4.1332   15.7546  -11.9693 H   0  0  0  0  0  0  0  0  0  0  0  0
   -3.6898   15.3350  -10.2800 H   0  0  0  0  0  0  0  0  0  0  0  0
   -2.1459   14.8676  -12.8458 H   0  0  0  0  0  0  0  0  0  0  0  0
   -1.6368   15.7375  -11.3590 H   0  0  0  0  0  0  0  0  0  0  0  0
   -2.2945   12.4382  -12.7285 H   0  0  0  0  0  0  0  0  0  0  0  0
   -1.6432   11.6386  -11.2578 H   0  0  0  0  0  0  0  0  0  0  0  0
   -3.5876   12.4537   -9.9140 H   0  0  0  0  0  0  0  0  0  0  0  0
   -4.1956   11.5825  -11.3625 H   0  0  0  0  0  0  0  0  0  0  0  0
  1  2  2  0  0  0  0
  1  4  1  0  0  0  0
  1 12  1  0  0  0  0
  2  6  1  0  0  0  0
  3  4  2  0  0  0  0
  3  5  1  0  0  0  0
  5  6  2  0  0  0  0
  5  9  1  0  0  0  0
  6  7  1  0  0  0  0
  7  8  1  0  0  0  0
  7 10  2  3  0  0  0
  8  9  2  0  0  0  0
 10 14  1  0  0  0  0
 11 12  1  0  0  0  0
 11 26  1  0  0  0  0
 11 30  1  0  0  0  0
 12 13  2  0  0  0  0
 14 15  2  0  0  0  0
 14 19  1  0  0  0  0
 15 16  1  0  0  0  0
 16 17  2  0  0  0  0
 17 18  1  0  0  0  0
 17 20  1  0  0  0  0
 18 19  2  0  0  0  0
 20 21  1  0  0  0  0
 20 24  2  0  0  0  0
 21 22  1  0  0  0  0
 22 23  1  0  0  0  0
 22 25  1  0  0  0  0
 23 24  1  0  0  0  0
 26 27  1  0  0  0  0
 27 28  1  0  0  0  0
 28 29  1  0  0  0  0
 29 30  1  0  0  0  0
  2 31  1  0  0  0  0
  3 32  1  0  0  0  0
  4 33  1  0  0  0  0
 10 34  1  0  0  0  0
 15 35  1  0  0  0  0
 16 36  1  0  0  0  0
 18 37  1  0  0  0  0
 19 38  1  0  0  0  0
 21 39  1  0  0  0  0
 21 40  1  0  0  0  0
 23 41  1  0  0  0  0
 24 42  1  0  0  0  0
 25 43  1  0  0  0  0
 25 44  1  0  0  0  0
 25 45  1  0  0  0  0
 26 46  1  0  0  0  0
 26 47  1  0  0  0  0
 27 48  1  0  0  0  0
 27 49  1  0  0  0  0
 29 50  1  0  0  0  0
 29 51  1  0  0  0  0
 30 52  1  0  0  0  0
 30 53  1  0  0  0  0
M  END
> <Name>
39

> <IC50[uM]>
0.004

$$$$
39
  -OEChem-05192314333D
 Structure written by MMmdl.
 53 57  0     1  0  0  0  0  0999 V2000
   -6.3502   12.3553  -12.0171 C   0  0  0  0  0  0  0  0  0  0  0  0
   -6.4935   11.7977  -10.7426 C   0  0  0  0  0  0  0  0  0  0  0  0
   -7.7106   10.5751  -13.0385 C   0  0  0  0  0  0  0  0  0  0  0  0
   -6.9725   11.7720  -13.1357 C   0  0  0  0  0  0  0  0  0  0  0  0
   -7.8130   10.0109  -11.7654 C   0  0  0  0  0  0  0  0  0  0  0  0
   -7.2309   10.6170  -10.6058 C   0  0  0  0  0  0  0  0  0  0  0  0
   -7.6111    9.7517   -9.5147 C   0  0  3  0  0  0  0  0  0  0  0  0
   -8.2865    8.7392   -9.9897 N   0  0  0  0  0  0  0  0  0  0  0  0
   -8.4152    8.8682  -11.3006 N   0  0  0  0  0  0  0  0  0  0  0  0
   -7.3373    9.8888   -8.0252 C   0  0  0  0  0  0  0  0  0  0  0  0
   -4.3541   13.7129  -11.4635 N   0  0  0  0  0  0  0  0  0  0  0  0
   -5.5361   13.6428  -12.1728 C   0  0  0  0  0  0  0  0  0  0  0  0
   -5.9526   14.5668  -12.8773 O   0  0  0  0  0  0  0  0  0  0  0  0
   -5.9623   10.4854   -7.7364 C   0  0  0  0  0  0  0  0  0  0  0  0
   -5.8532   11.7571   -7.1646 C   0  0  0  0  0  0  0  0  0  0  0  0
   -4.5945   12.3064   -6.9180 C   0  0  0  0  0  0  0  0  0  0  0  0
   -3.4446   11.5858   -7.2382 C   0  0  0  0  0  0  0  0  0  0  0  0
   -3.5555   10.3115   -7.8022 C   0  0  0  0  0  0  0  0  0  0  0  0
   -4.8126    9.7649   -8.0516 C   0  0  0  0  0  0  0  0  0  0  0  0
   -2.0930   12.1652   -6.9785 C   0  0  0  0  0  0  0  0  0  0  0  0
   -1.7427   13.4236   -6.4970 C   0  0  0  0  0  0  0  0  0  0  0  0
   -0.4061   13.4591   -6.4324 N   0  0  3  0  0  0  0  0  0  0  0  0
    0.1810   12.3567   -6.8070 N   0  0  0  0  0  0  0  0  0  0  0  0
   -0.8030   11.5520   -7.1701 C   0  0  0  0  0  0  0  0  0  0  0  0
    0.4260   14.5701   -5.9973 C   0  0  0  0  0  0  0  0  0  0  0  0
   -3.6444   15.0059  -11.3286 C   0  0  0  0  0  0  0  0  0  0  0  0
   -2.1848   14.8660  -11.7465 C   0  0  0  0  0  0  0  0  0  0  0  0
   -1.5251   13.6965  -11.2881 O   0  0  0  0  0  0  0  0  0  0  0  0
   -2.2131   12.5012  -11.6333 C   0  0  0  0  0  0  0  0  0  0  0  0
   -3.6517   12.4721  -11.0120 C   0  0  0  0  0  0  0  0  0  0  0  0
   -6.0438   12.2692   -9.8813 H   0  0  0  0  0  0  0  0  0  0  0  0
   -8.1720   10.1191  -13.9020 H   0  0  0  0  0  0  0  0  0  0  0  0
   -6.8821   12.2554  -14.0972 H   0  0  0  0  0  0  0  0  0  0  0  0
   -6.6755    9.1860   -9.6357 H   0  0  0  0  0  0  0  0  0  0  0  0
   -8.0379    9.5965   -7.2570 H   0  0  0  0  0  0  0  0  0  0  0  0
   -6.7437   12.3143   -6.9138 H   0  0  0  0  0  0  0  0  0  0  0  0
   -4.5109   13.2897   -6.4791 H   0  0  0  0  0  0  0  0  0  0  0  0
   -2.6655    9.7499   -8.0449 H   0  0  0  0  0  0  0  0  0  0  0  0
   -4.8957    8.7813   -8.4899 H   0  0  0  0  0  0  0  0  0  0  0  0
   -2.1089   14.2047   -7.1794 H   0  0  0  0  0  0  0  0  0  0  0  0
   -2.1736   13.5790   -5.4969 H   0  0  0  0  0  0  0  0  0  0  0  0
   -0.6578   10.5563   -7.5625 H   0  0  0  0  0  0  0  0  0  0  0  0
    1.4856   14.2813   -6.0588 H   0  0  0  0  0  0  0  0  0  0  0  0
    0.2449   15.4398   -6.6461 H   0  0  0  0  0  0  0  0  0  0  0  0
    0.1766   14.8298   -4.9579 H   0  0  0  0  0  0  0  0  0  0  0  0
   -4.1332   15.7546  -11.9693 H   0  0  0  0  0  0  0  0  0  0  0  0
   -3.6898   15.3350  -10.2800 H   0  0  0  0  0  0  0  0  0  0  0  0
   -2.1459   14.8676  -12.8458 H   0  0  0  0  0  0  0  0  0  0  0  0
   -1.6368   15.7375  -11.3590 H   0  0  0  0  0  0  0  0  0  0  0  0
   -2.2945   12.4382  -12.7285 H   0  0  0  0  0  0  0  0  0  0  0  0
   -1.6432   11.6386  -11.2578 H   0  0  0  0  0  0  0  0  0  0  0  0
   -3.5876   12.4537   -9.9140 H   0  0  0  0  0  0  0  0  0  0  0  0
   -4.1956   11.5825  -11.3625 H   0  0  0  0  0  0  0  0  0  0  0  0
  1  2  2  0  0  0  0
  1  4  1  0  0  0  0
  1 12  1  0  0  0  0
  2  6  1  0  0  0  0
  3  4  2  0  0  0  0
  3  5  1  0  0  0  0
  5  6  2  0  0  0  0
  5  9  1  0  0  0  0
  6  7  1  0  0  0  0
  7  8  1  0  0  0  0
  7 10  1  0  0  0  0
  8  9  2  0  0  0  0
 10 14  2  0  0  0  0
 11 12  1  0  0  0  0
 11 26  1  0  0  0  0
 11 30  1  0  0  0  0
 12 13  2  0  0  0  0
 14 15  1  0  0  0  0
 14 19  1  0  0  0  0
 15 16  2  0  0  0  0
 16 17  1  0  0  0  0
 17 18  1  0  0  0  0
 17 20  2  0  0  0  0
 18 19  2  0  0  0  0
 20 21  1  0  0  0  0
 20 24  1  0  0  0  0
 21 22  1  0  0  0  0
 22 23  1  0  0  0  0
 22 25  1  0  0  0  0
 23 24  2  0  0  0  0
 26 27  1  0  0  0  0
 27 28  1  0  0  0  0
 28 29  1  0  0  0  0
 29 30  1  0  0  0  0
  2 31  1  0  0  0  0
  3 32  1  0  0  0  0
  4 33  1  0  0  0  0
  7 34  1  0  0  0  0
 10 35  1  0  0  0  0
 15 36  1  0  0  0  0
 16 37  1  0  0  0  0
 18 38  1  0  0  0  0
 19 39  1  0  0  0  0
 21 40  1  0  0  0  0
 21 41  1  0  0  0  0
 24 42  1  0  0  0  0
 25 43  1  0  0  0  0
 25 44  1  0  0  0  0
 25 45  1  0  0  0  0
 26 46  1  0  0  0  0
 26 47  1  0  0  0  0
 27 48  1  0  0  0  0
 27 49  1  0  0  0  0
 29 50  1  0  0  0  0
 29 51  1  0  0  0  0
 30 52  1  0  0  0  0
 30 53  1  0  0  0  0
M  END
> <Name>
39

> <IC50[uM]>
0.004

$$$$
39
  -OEChem-05192314333D
 Structure written by MMmdl.
 53 57  0     1  0  0  0  0  0999 V2000
   -6.3502   12.3553  -12.0171 C   0  0  3  0  0  0  0  0  0  0  0  0
   -6.4935   11.7977  -10.7426 C   0  0  0  0  0  0  0  0  0  0  0  0
   -7.7106   10.5751  -13.0385 C   0  0  0  0  0  0  0  0  0  0  0  0
   -6.9725   11.7720  -13.1357 C   0  0  0  0  0  0  0  0  0  0  0  0
   -7.8130   10.0109  -11.7654 C   0  0  0  0  0  0  0  0  0  0  0  0
   -7.2309   10.6170  -10.6058 C   0  0  0  0  0  0  0  0  0  0  0  0
   -7.6111    9.7517   -9.5147 C   0  0  0  0  0  0  0  0  0  0  0  0
   -8.2865    8.7392   -9.9897 N   0  0  0  0  0  0  0  0  0  0  0  0
   -8.4152    8.8682  -11.3006 N   0  0  0  0  0  0  0  0  0  0  0  0
   -7.3373    9.8888   -8.0252 C   0  0  0  0  0  0  0  0  0  0  0  0
   -4.3541   13.7129  -11.4635 N   0  0  0  0  0  0  0  0  0  0  0  0
   -5.5361   13.6428  -12.1728 C   0  0  0  0  0  0  0  0  0  0  0  0
   -5.9526   14.5668  -12.8773 O   0  0  0  0  0  0  0  0  0  0  0  0
   -5.9623   10.4854   -7.7364 C   0  0  0  0  0  0  0  0  0  0  0  0
   -5.8532   11.7571   -7.1646 C   0  0  0  0  0  0  0  0  0  0  0  0
   -4.5945   12.3064   -6.9180 C   0  0  0  0  0  0  0  0  0  0  0  0
   -3.4446   11.5858   -7.2382 C   0  0  0  0  0  0  0  0  0  0  0  0
   -3.5555   10.3115   -7.8022 C   0  0  0  0  0  0  0  0  0  0  0  0
   -4.8126    9.7649   -8.0516 C   0  0  0  0  0  0  0  0  0  0  0  0
   -2.0930   12.1652   -6.9785 C   0  0  0  0  0  0  0  0  0  0  0  0
   -1.7427   13.4236   -6.4970 C   0  0  0  0  0  0  0  0  0  0  0  0
   -0.4061   13.4591   -6.4324 N   0  0  0  0  0  0  0  0  0  0  0  0
    0.1810   12.3567   -6.8070 N   0  0  0  0  0  0  0  0  0  0  0  0
   -0.8030   11.5520   -7.1701 C   0  0  0  0  0  0  0  0  0  0  0  0
    0.4260   14.5701   -5.9973 C   0  0  0  0  0  0  0  0  0  0  0  0
   -3.6444   15.0059  -11.3286 C   0  0  0  0  0  0  0  0  0  0  0  0
   -2.1848   14.8660  -11.7465 C   0  0  0  0  0  0  0  0  0  0  0  0
   -1.5251   13.6965  -11.2881 O   0  0  0  0  0  0  0  0  0  0  0  0
   -2.2131   12.5012  -11.6333 C   0  0  0  0  0  0  0  0  0  0  0  0
   -3.6517   12.4721  -11.0120 C   0  0  0  0  0  0  0  0  0  0  0  0
   -5.4473   11.7517  -12.1914 H   0  0  0  0  0  0  0  0  0  0  0  0
   -6.0438   12.2692   -9.8813 H   0  0  0  0  0  0  0  0  0  0  0  0
   -8.1720   10.1191  -13.9020 H   0  0  0  0  0  0  0  0  0  0  0  0
   -6.8821   12.2554  -14.0972 H   0  0  0  0  0  0  0  0  0  0  0  0
   -8.1049   10.5416   -7.5840 H   0  0  0  0  0  0  0  0  0  0  0  0
   -7.3937    8.8922   -7.5629 H   0  0  0  0  0  0  0  0  0  0  0  0
   -6.7437   12.3143   -6.9138 H   0  0  0  0  0  0  0  0  0  0  0  0
   -4.5109   13.2897   -6.4791 H   0  0  0  0  0  0  0  0  0  0  0  0
   -2.6655    9.7499   -8.0449 H   0  0  0  0  0  0  0  0  0  0  0  0
   -4.8957    8.7813   -8.4899 H   0  0  0  0  0  0  0  0  0  0  0  0
   -2.4205   14.2199   -6.2269 H   0  0  0  0  0  0  0  0  0  0  0  0
   -0.6578   10.5563   -7.5625 H   0  0  0  0  0  0  0  0  0  0  0  0
    1.4856   14.2813   -6.0588 H   0  0  0  0  0  0  0  0  0  0  0  0
    0.2449   15.4398   -6.6461 H   0  0  0  0  0  0  0  0  0  0  0  0
    0.1766   14.8298   -4.9579 H   0  0  0  0  0  0  0  0  0  0  0  0
   -4.1332   15.7546  -11.9693 H   0  0  0  0  0  0  0  0  0  0  0  0
   -3.6898   15.3350  -10.2800 H   0  0  0  0  0  0  0  0  0  0  0  0
   -2.1459   14.8676  -12.8458 H   0  0  0  0  0  0  0  0  0  0  0  0
   -1.6368   15.7375  -11.3590 H   0  0  0  0  0  0  0  0  0  0  0  0
   -2.2945   12.4382  -12.7285 H   0  0  0  0  0  0  0  0  0  0  0  0
   -1.6432   11.6386  -11.2578 H   0  0  0  0  0  0  0  0  0  0  0  0
   -3.5876   12.4537   -9.9140 H   0  0  0  0  0  0  0  0  0  0  0  0
   -4.1956   11.5825  -11.3625 H   0  0  0  0  0  0  0  0  0  0  0  0
  1  2  1  0  0  0  0
  1  4  1  0  0  0  0
  1 12  1  0  0  0  0
  2  6  2  0  0  0  0
  3  4  2  0  0  0  0
  3  5  1  0  0  0  0
  5  6  1  0  0  0  0
  5  9  2  0  0  0  0
  6  7  1  0  0  0  0
  7  8  2  0  0  0  0
  7 10  1  0  0  0  0
  8  9  1  0  0  0  0
 10 14  1  0  0  0  0
 11 12  1  0  0  0  0
 11 26  1  0  0  0  0
 11 30  1  0  0  0  0
 12 13  2  0  0  0  0
 14 15  2  0  0  0  0
 14 19  1  0  0  0  0
 15 16  1  0  0  0  0
 16 17  2  0  0  0  0
 17 18  1  0  0  0  0
 17 20  1  0  0  0  0
 18 19  2  0  0  0  0
 20 21  2  0  0  0  0
 20 24  1  0  0  0  0
 21 22  1  0  0  0  0
 22 23  1  0  0  0  0
 22 25  1  0  0  0  0
 23 24  2  0  0  0  0
 26 27  1  0  0  0  0
 27 28  1  0  0  0  0
 28 29  1  0  0  0  0
 29 30  1  0  0  0  0
  1 31  1  0  0  0  0
  2 32  1  0  0  0  0
  3 33  1  0  0  0  0
  4 34  1  0  0  0  0
 10 35  1  0  0  0  0
 10 36  1  0  0  0  0
 15 37  1  0  0  0  0
 16 38  1  0  0  0  0
 18 39  1  0  0  0  0
 19 40  1  0  0  0  0
 21 41  1  0  0  0  0
 24 42  1  0  0  0  0
 25 43  1  0  0  0  0
 25 44  1  0  0  0  0
 25 45  1  0  0  0  0
 26 46  1  0  0  0  0
 26 47  1  0  0  0  0
 27 48  1  0  0  0  0
 27 49  1  0  0  0  0
 29 50  1  0  0  0  0
 29 51  1  0  0  0  0
 30 52  1  0  0  0  0
 30 53  1  0  0  0  0
M  END
> <Name>
39

> <IC50[uM]>
0.004

$$$$
39
  -OEChem-05192314333D
 Structure written by MMmdl.
 53 57  0     1  0  0  0  0  0999 V2000
   -6.3502   12.3553  -12.0171 C   0  0  0  0  0  0  0  0  0  0  0  0
   -6.4935   11.7977  -10.7426 C   0  0  0  0  0  0  0  0  0  0  0  0
   -7.7106   10.5751  -13.0385 C   0  0  0  0  0  0  0  0  0  0  0  0
   -6.9725   11.7720  -13.1357 C   0  0  0  0  0  0  0  0  0  0  0  0
   -7.8130   10.0109  -11.7654 C   0  0  0  0  0  0  0  0  0  0  0  0
   -7.2309   10.6170  -10.6058 C   0  0  3  0  0  0  0  0  0  0  0  0
   -7.6111    9.7517   -9.5147 C   0  0  0  0  0  0  0  0  0  0  0  0
   -8.2865    8.7392   -9.9897 N   0  0  0  0  0  0  0  0  0  0  0  0
   -8.4152    8.8682  -11.3006 N   0  0  0  0  0  0  0  0  0  0  0  0
   -7.3373    9.8888   -8.0252 C   0  0  0  0  0  0  0  0  0  0  0  0
   -4.3541   13.7129  -11.4635 N   0  0  0  0  0  0  0  0  0  0  0  0
   -5.5361   13.6428  -12.1728 C   0  0  0  0  0  0  0  0  0  0  0  0
   -5.9526   14.5668  -12.8773 O   0  0  0  0  0  0  0  0  0  0  0  0
   -5.9623   10.4854   -7.7364 C   0  0  0  0  0  0  0  0  0  0  0  0
   -5.8532   11.7571   -7.1646 C   0  0  0  0  0  0  0  0  0  0  0  0
   -4.5945   12.3064   -6.9180 C   0  0  0  0  0  0  0  0  0  0  0  0
   -3.4446   11.5858   -7.2382 C   0  0  0  0  0  0  0  0  0  0  0  0
   -3.5555   10.3115   -7.8022 C   0  0  0  0  0  0  0  0  0  0  0  0
   -4.8126    9.7649   -8.0516 C   0  0  0  0  0  0  0  0  0  0  0  0
   -2.0930   12.1652   -6.9785 C   0  0  0  0  0  0  0  0  0  0  0  0
   -1.7427   13.4236   -6.4970 C   0  0  0  0  0  0  0  0  0  0  0  0
   -0.4061   13.4591   -6.4324 N   0  0  0  0  0  0  0  0  0  0  0  0
    0.1810   12.3567   -6.8070 N   0  0  0  0  0  0  0  0  0  0  0  0
   -0.8030   11.5520   -7.1701 C   0  0  0  0  0  0  0  0  0  0  0  0
    0.4260   14.5701   -5.9973 C   0  0  0  0  0  0  0  0  0  0  0  0
   -3.6444   15.0059  -11.3286 C   0  0  0  0  0  0  0  0  0  0  0  0
   -2.1848   14.8660  -11.7465 C   0  0  0  0  0  0  0  0  0  0  0  0
   -1.5251   13.6965  -11.2881 O   0  0  0  0  0  0  0  0  0  0  0  0
   -2.2131   12.5012  -11.6333 C   0  0  0  0  0  0  0  0  0  0  0  0
   -3.6517   12.4721  -11.0120 C   0  0  0  0  0  0  0  0  0  0  0  0
   -6.0438   12.2692   -9.8813 H   0  0  0  0  0  0  0  0  0  0  0  0
   -8.1720   10.1191  -13.9020 H   0  0  0  0  0  0  0  0  0  0  0  0
   -6.8821   12.2554  -14.0972 H   0  0  0  0  0  0  0  0  0  0  0  0
   -6.3150   10.0266  -10.7560 H   0  0  0  0  0  0  0  0  0  0  0  0
   -8.1049   10.5416   -7.5840 H   0  0  0  0  0  0  0  0  0  0  0  0
   -7.3937    8.8922   -7.5629 H   0  0  0  0  0  0  0  0  0  0  0  0
   -6.7437   12.3143   -6.9138 H   0  0  0  0  0  0  0  0  0  0  0  0
   -4.5109   13.2897   -6.4791 H   0  0  0  0  0  0  0  0  0  0  0  0
   -2.6655    9.7499   -8.0449 H   0  0  0  0  0  0  0  0  0  0  0  0
   -4.8957    8.7813   -8.4899 H   0  0  0  0  0  0  0  0  0  0  0  0
   -2.4205   14.2199   -6.2269 H   0  0  0  0  0  0  0  0  0  0  0  0
   -0.6578   10.5563   -7.5625 H   0  0  0  0  0  0  0  0  0  0  0  0
    1.4856   14.2813   -6.0588 H   0  0  0  0  0  0  0  0  0  0  0  0
    0.2449   15.4398   -6.6461 H   0  0  0  0  0  0  0  0  0  0  0  0
    0.1766   14.8298   -4.9579 H   0  0  0  0  0  0  0  0  0  0  0  0
   -4.1332   15.7546  -11.9693 H   0  0  0  0  0  0  0  0  0  0  0  0
   -3.6898   15.3350  -10.2800 H   0  0  0  0  0  0  0  0  0  0  0  0
   -2.1459   14.8676  -12.8458 H   0  0  0  0  0  0  0  0  0  0  0  0
   -1.6368   15.7375  -11.3590 H   0  0  0  0  0  0  0  0  0  0  0  0
   -2.2945   12.4382  -12.7285 H   0  0  0  0  0  0  0  0  0  0  0  0
   -1.6432   11.6386  -11.2578 H   0  0  0  0  0  0  0  0  0  0  0  0
   -3.5876   12.4537   -9.9140 H   0  0  0  0  0  0  0  0  0  0  0  0
   -4.1956   11.5825  -11.3625 H   0  0  0  0  0  0  0  0  0  0  0  0
  1  2  2  0  0  0  0
  1  4  1  0  0  0  0
  1 12  1  0  0  0  0
  2  6  1  0  0  0  0
  3  4  2  0  0  0  0
  3  5  1  0  0  0  0
  5  6  1  0  0  0  0
  5  9  2  0  0  0  0
  6  7  1  0  0  0  0
  7  8  2  0  0  0  0
  7 10  1  0  0  0  0
  8  9  1  0  0  0  0
 10 14  1  0  0  0  0
 11 12  1  0  0  0  0
 11 26  1  0  0  0  0
 11 30  1  0  0  0  0
 12 13  2  0  0  0  0
 14 15  2  0  0  0  0
 14 19  1  0  0  0  0
 15 16  1  0  0  0  0
 16 17  2  0  0  0  0
 17 18  1  0  0  0  0
 17 20  1  0  0  0  0
 18 19  2  0  0  0  0
 20 21  2  0  0  0  0
 20 24  1  0  0  0  0
 21 22  1  0  0  0  0
 22 23  1  0  0  0  0
 22 25  1  0  0  0  0
 23 24  2  0  0  0  0
 26 27  1  0  0  0  0
 27 28  1  0  0  0  0
 28 29  1  0  0  0  0
 29 30  1  0  0  0  0
  2 31  1  0  0  0  0
  3 32  1  0  0  0  0
  4 33  1  0  0  0  0
  6 34  1  0  0  0  0
 10 35  1  0  0  0  0
 10 36  1  0  0  0  0
 15 37  1  0  0  0  0
 16 38  1  0  0  0  0
 18 39  1  0  0  0  0
 19 40  1  0  0  0  0
 21 41  1  0  0  0  0
 24 42  1  0  0  0  0
 25 43  1  0  0  0  0
 25 44  1  0  0  0  0
 25 45  1  0  0  0  0
 26 46  1  0  0  0  0
 26 47  1  0  0  0  0
 27 48  1  0  0  0  0
 27 49  1  0  0  0  0
 29 50  1  0  0  0  0
 29 51  1  0  0  0  0
 30 52  1  0  0  0  0
 30 53  1  0  0  0  0
M  END
> <Name>
39

> <IC50[uM]>
0.004

$$$$
39
  -OEChem-05192314333D
 Structure written by MMmdl.
 53 57  0     0  0  0  0  0  0999 V2000
   -6.3502   12.3553  -12.0171 C   0  0  0  0  0  0  0  0  0  0  0  0
   -6.4935   11.7977  -10.7426 C   0  0  0  0  0  0  0  0  0  0  0  0
   -7.7106   10.5751  -13.0385 C   0  0  0  0  0  0  0  0  0  0  0  0
   -6.9725   11.7720  -13.1357 C   0  0  0  0  0  0  0  0  0  0  0  0
   -7.8130   10.0109  -11.7654 C   0  0  0  0  0  0  0  0  0  0  0  0
   -7.2309   10.6170  -10.6058 C   0  0  0  0  0  0  0  0  0  0  0  0
   -7.6111    9.7517   -9.5147 C   0  0  0  0  0  0  0  0  0  0  0  0
   -8.2865    8.7392   -9.9897 N   0  0  0  0  0  0  0  0  0  0  0  0
   -8.4152    8.8682  -11.3006 N   0  0  0  0  0  0  0  0  0  0  0  0
   -7.3373    9.8888   -8.0252 C   0  0  0  0  0  0  0  0  0  0  0  0
   -4.3541   13.7129  -11.4635 N   0  0  0  0  0  0  0  0  0  0  0  0
   -5.5361   13.6428  -12.1728 C   0  0  0  0  0  0  0  0  0  0  0  0
   -5.9526   14.5668  -12.8773 O   0  0  0  0  0  0  0  0  0  0  0  0
   -5.9623   10.4854   -7.7364 C   0  0  0  0  0  0  0  0  0  0  0  0
   -5.8532   11.7571   -7.1646 C   0  0  0  0  0  0  0  0  0  0  0  0
   -4.5945   12.3064   -6.9180 C   0  0  0  0  0  0  0  0  0  0  0  0
   -3.4446   11.5858   -7.2382 C   0  0  0  0  0  0  0  0  0  0  0  0
   -3.5555   10.3115   -7.8022 C   0  0  0  0  0  0  0  0  0  0  0  0
   -4.8126    9.7649   -8.0516 C   0  0  0  0  0  0  0  0  0  0  0  0
   -2.0930   12.1652   -6.9785 C   0  0  0  0  0  0  0  0  0  0  0  0
   -1.7427   13.4236   -6.4970 C   0  0  0  0  0  0  0  0  0  0  0  0
   -0.4061   13.4591   -6.4324 N   0  0  0  0  0  0  0  0  0  0  0  0
    0.1810   12.3567   -6.8070 N   0  0  0  0  0  0  0  0  0  0  0  0
   -0.8030   11.5520   -7.1701 C   0  0  0  0  0  0  0  0  0  0  0  0
    0.4260   14.5701   -5.9973 C   0  0  0  0  0  0  0  0  0  0  0  0
   -3.6444   15.0059  -11.3286 C   0  0  0  0  0  0  0  0  0  0  0  0
   -2.1848   14.8660  -11.7465 C   0  0  0  0  0  0  0  0  0  0  0  0
   -1.5251   13.6965  -11.2881 O   0  0  0  0  0  0  0  0  0  0  0  0
   -2.2131   12.5012  -11.6333 C   0  0  0  0  0  0  0  0  0  0  0  0
   -3.6517   12.4721  -11.0120 C   0  0  0  0  0  0  0  0  0  0  0  0
   -6.0438   12.2692   -9.8813 H   0  0  0  0  0  0  0  0  0  0  0  0
   -8.7302   10.7806  -13.3966 H   0  0  0  0  0  0  0  0  0  0  0  0
   -7.2336    9.8333  -13.6960 H   0  0  0  0  0  0  0  0  0  0  0  0
   -6.8821   12.2554  -14.0972 H   0  0  0  0  0  0  0  0  0  0  0  0
   -8.1049   10.5416   -7.5840 H   0  0  0  0  0  0  0  0  0  0  0  0
   -7.3937    8.8922   -7.5629 H   0  0  0  0  0  0  0  0  0  0  0  0
   -6.7437   12.3143   -6.9138 H   0  0  0  0  0  0  0  0  0  0  0  0
   -4.5109   13.2897   -6.4791 H   0  0  0  0  0  0  0  0  0  0  0  0
   -2.6655    9.7499   -8.0449 H   0  0  0  0  0  0  0  0  0  0  0  0
   -4.8957    8.7813   -8.4899 H   0  0  0  0  0  0  0  0  0  0  0  0
   -2.4205   14.2199   -6.2269 H   0  0  0  0  0  0  0  0  0  0  0  0
   -0.6578   10.5563   -7.5625 H   0  0  0  0  0  0  0  0  0  0  0  0
    1.4856   14.2813   -6.0588 H   0  0  0  0  0  0  0  0  0  0  0  0
    0.2449   15.4398   -6.6461 H   0  0  0  0  0  0  0  0  0  0  0  0
    0.1766   14.8298   -4.9579 H   0  0  0  0  0  0  0  0  0  0  0  0
   -4.1332   15.7546  -11.9693 H   0  0  0  0  0  0  0  0  0  0  0  0
   -3.6898   15.3350  -10.2800 H   0  0  0  0  0  0  0  0  0  0  0  0
   -2.1459   14.8676  -12.8458 H   0  0  0  0  0  0  0  0  0  0  0  0
   -1.6368   15.7375  -11.3590 H   0  0  0  0  0  0  0  0  0  0  0  0
   -2.2945   12.4382  -12.7285 H   0  0  0  0  0  0  0  0  0  0  0  0
   -1.6432   11.6386  -11.2578 H   0  0  0  0  0  0  0  0  0  0  0  0
   -3.5876   12.4537   -9.9140 H   0  0  0  0  0  0  0  0  0  0  0  0
   -4.1956   11.5825  -11.3625 H   0  0  0  0  0  0  0  0  0  0  0  0
  1  2  1  0  0  0  0
  1  4  2  0  0  0  0
  1 12  1  0  0  0  0
  2  6  2  0  0  0  0
  3  4  1  0  0  0  0
  3  5  1  0  0  0  0
  5  6  1  0  0  0  0
  5  9  2  0  0  0  0
  6  7  1  0  0  0  0
  7  8  2  0  0  0  0
  7 10  1  0  0  0  0
  8  9  1  0  0  0  0
 10 14  1  0  0  0  0
 11 12  1  0  0  0  0
 11 26  1  0  0  0  0
 11 30  1  0  0  0  0
 12 13  2  0  0  0  0
 14 15  2  0  0  0  0
 14 19  1  0  0  0  0
 15 16  1  0  0  0  0
 16 17  2  0  0  0  0
 17 18  1  0  0  0  0
 17 20  1  0  0  0  0
 18 19  2  0  0  0  0
 20 21  2  0  0  0  0
 20 24  1  0  0  0  0
 21 22  1  0  0  0  0
 22 23  1  0  0  0  0
 22 25  1  0  0  0  0
 23 24  2  0  0  0  0
 26 27  1  0  0  0  0
 27 28  1  0  0  0  0
 28 29  1  0  0  0  0
 29 30  1  0  0  0  0
  2 31  1  0  0  0  0
  3 32  1  0  0  0  0
  3 33  1  0  0  0  0
  4 34  1  0  0  0  0
 10 35  1  0  0  0  0
 10 36  1  0  0  0  0
 15 37  1  0  0  0  0
 16 38  1  0  0  0  0
 18 39  1  0  0  0  0
 19 40  1  0  0  0  0
 21 41  1  0  0  0  0
 24 42  1  0  0  0  0
 25 43  1  0  0  0  0
 25 44  1  0  0  0  0
 25 45  1  0  0  0  0
 26 46  1  0  0  0  0
 26 47  1  0  0  0  0
 27 48  1  0  0  0  0
 27 49  1  0  0  0  0
 29 50  1  0  0  0  0
 29 51  1  0  0  0  0
 30 52  1  0  0  0  0
 30 53  1  0  0  0  0
M  END
> <Name>
39

> <IC50[uM]>
0.004

$$$$
39
  -OEChem-05192314333D
 Structure written by MMmdl.
 53 57  0     0  0  0  0  0  0999 V2000
   -6.3502   12.3553  -12.0171 C   0  0  0  0  0  0  0  0  0  0  0  0
   -6.4935   11.7977  -10.7426 C   0  0  0  0  0  0  0  0  0  0  0  0
   -7.7106   10.5751  -13.0385 C   0  0  0  0  0  0  0  0  0  0  0  0
   -6.9725   11.7720  -13.1357 C   0  0  0  0  0  0  0  0  0  0  0  0
   -7.8130   10.0109  -11.7654 C   0  0  0  0  0  0  0  0  0  0  0  0
   -7.2309   10.6170  -10.6058 C   0  0  0  0  0  0  0  0  0  0  0  0
   -7.6111    9.7517   -9.5147 C   0  0  0  0  0  0  0  0  0  0  0  0
   -8.2865    8.7392   -9.9897 N   0  0  0  0  0  0  0  0  0  0  0  0
   -8.4152    8.8682  -11.3006 N   0  0  0  0  0  0  0  0  0  0  0  0
   -7.3373    9.8888   -8.0252 C   0  0  0  0  0  0  0  0  0  0  0  0
   -4.3541   13.7129  -11.4635 N   0  0  0  0  0  0  0  0  0  0  0  0
   -5.5361   13.6428  -12.1728 C   0  0  0  0  0  0  0  0  0  0  0  0
   -5.9526   14.5668  -12.8773 O   0  0  0  0  0  0  0  0  0  0  0  0
   -5.9623   10.4854   -7.7364 C   0  0  0  0  0  0  0  0  0  0  0  0
   -5.8532   11.7571   -7.1646 C   0  0  0  0  0  0  0  0  0  0  0  0
   -4.5945   12.3064   -6.9180 C   0  0  0  0  0  0  0  0  0  0  0  0
   -3.4446   11.5858   -7.2382 C   0  0  0  0  0  0  0  0  0  0  0  0
   -3.5555   10.3115   -7.8022 C   0  0  0  0  0  0  0  0  0  0  0  0
   -4.8126    9.7649   -8.0516 C   0  0  0  0  0  0  0  0  0  0  0  0
   -2.0930   12.1652   -6.9785 C   0  0  0  0  0  0  0  0  0  0  0  0
   -1.7427   13.4236   -6.4970 C   0  0  0  0  0  0  0  0  0  0  0  0
   -0.4061   13.4591   -6.4324 N   0  0  0  0  0  0  0  0  0  0  0  0
    0.1810   12.3567   -6.8070 N   0  0  0  0  0  0  0  0  0  0  0  0
   -0.8030   11.5520   -7.1701 C   0  0  0  0  0  0  0  0  0  0  0  0
    0.4260   14.5701   -5.9973 C   0  0  0  0  0  0  0  0  0  0  0  0
   -3.6444   15.0059  -11.3286 C   0  0  0  0  0  0  0  0  0  0  0  0
   -2.1848   14.8660  -11.7465 C   0  0  0  0  0  0  0  0  0  0  0  0
   -1.5251   13.6965  -11.2881 O   0  0  0  0  0  0  0  0  0  0  0  0
   -2.2131   12.5012  -11.6333 C   0  0  0  0  0  0  0  0  0  0  0  0
   -3.6517   12.4721  -11.0120 C   0  0  0  0  0  0  0  0  0  0  0  0
   -6.0438   12.2692   -9.8813 H   0  0  0  0  0  0  0  0  0  0  0  0
   -8.1720   10.1191  -13.9020 H   0  0  0  0  0  0  0  0  0  0  0  0
   -6.8821   12.2554  -14.0972 H   0  0  0  0  0  0  0  0  0  0  0  0
   -8.0379    9.5965   -7.2570 H   0  0  0  0  0  0  0  0  0  0  0  0
   -5.9740   10.0329   -6.7338 H   0  0  0  0  0  0  0  0  0  0  0  0
   -6.7437   12.3143   -6.9138 H   0  0  0  0  0  0  0  0  0  0  0  0
   -4.5109   13.2897   -6.4791 H   0  0  0  0  0  0  0  0  0  0  0  0
   -3.4437   12.0319   -8.2437 H   0  0  0  0  0  0  0  0  0  0  0  0
   -2.6655    9.7499   -8.0449 H   0  0  0  0  0  0  0  0  0  0  0  0
   -4.8957    8.7813   -8.4899 H   0  0  0  0  0  0  0  0  0  0  0  0
   -2.4205   14.2199   -6.2269 H   0  0  0  0  0  0  0  0  0  0  0  0
   -0.6578   10.5563   -7.5625 H   0  0  0  0  0  0  0  0  0  0  0  0
    1.4856   14.2813   -6.0588 H   0  0  0  0  0  0  0  0  0  0  0  0
    0.2449   15.4398   -6.6461 H   0  0  0  0  0  0  0  0  0  0  0  0
    0.1766   14.8298   -4.9579 H   0  0  0  0  0  0  0  0  0  0  0  0
   -4.1332   15.7546  -11.9693 H   0  0  0  0  0  0  0  0  0  0  0  0
   -3.6898   15.3350  -10.2800 H   0  0  0  0  0  0  0  0  0  0  0  0
   -2.1459   14.8676  -12.8458 H   0  0  0  0  0  0  0  0  0  0  0  0
   -1.6368   15.7375  -11.3590 H   0  0  0  0  0  0  0  0  0  0  0  0
   -2.2945   12.4382  -12.7285 H   0  0  0  0  0  0  0  0  0  0  0  0
   -1.6432   11.6386  -11.2578 H   0  0  0  0  0  0  0  0  0  0  0  0
   -3.5876   12.4537   -9.9140 H   0  0  0  0  0  0  0  0  0  0  0  0
   -4.1956   11.5825  -11.3625 H   0  0  0  0  0  0  0  0  0  0  0  0
  1  2  2  0  0  0  0
  1  4  1  0  0  0  0
  1 12  1  0  0  0  0
  2  6  1  0  0  0  0
  3  4  2  0  0  0  0
  3  5  1  0  0  0  0
  5  6  2  0  0  0  0
  5  9  1  0  0  0  0
  6  7  1  0  0  0  0
  7  8  1  0  0  0  0
  7 10  2  3  0  0  0
  8  9  2  0  0  0  0
 10 14  1  0  0  0  0
 11 12  1  0  0  0  0
 11 26  1  0  0  0  0
 11 30  1  0  0  0  0
 12 13  2  0  0  0  0
 14 15  1  0  0  0  0
 14 19  1  0  0  0  0
 15 16  2  0  0  0  0
 16 17  1  0  0  0  0
 17 18  1  0  0  0  0
 17 20  1  0  0  0  0
 18 19  2  0  0  0  0
 20 21  2  0  0  0  0
 20 24  1  0  0  0  0
 21 22  1  0  0  0  0
 22 23  1  0  0  0  0
 22 25  1  0  0  0  0
 23 24  2  0  0  0  0
 26 27  1  0  0  0  0
 27 28  1  0  0  0  0
 28 29  1  0  0  0  0
 29 30  1  0  0  0  0
  2 31  1  0  0  0  0
  3 32  1  0  0  0  0
  4 33  1  0  0  0  0
 10 34  1  0  0  0  0
 14 35  1  0  0  0  0
 15 36  1  0  0  0  0
 16 37  1  0  0  0  0
 17 38  1  0  0  0  0
 18 39  1  0  0  0  0
 19 40  1  0  0  0  0
 21 41  1  0  0  0  0
 24 42  1  0  0  0  0
 25 43  1  0  0  0  0
 25 44  1  0  0  0  0
 25 45  1  0  0  0  0
 26 46  1  0  0  0  0
 26 47  1  0  0  0  0
 27 48  1  0  0  0  0
 27 49  1  0  0  0  0
 29 50  1  0  0  0  0
 29 51  1  0  0  0  0
 30 52  1  0  0  0  0
 30 53  1  0  0  0  0
M  END
> <Name>
39

> <IC50[uM]>
0.004

$$$$
39
  -OEChem-05192314333D
 Structure written by MMmdl.
 53 57  0     1  0  0  0  0  0999 V2000
   -6.3502   12.3553  -12.0171 C   0  0  0  0  0  0  0  0  0  0  0  0
   -6.4935   11.7977  -10.7426 C   0  0  0  0  0  0  0  0  0  0  0  0
   -7.7106   10.5751  -13.0385 C   0  0  0  0  0  0  0  0  0  0  0  0
   -6.9725   11.7720  -13.1357 C   0  0  0  0  0  0  0  0  0  0  0  0
   -7.8130   10.0109  -11.7654 C   0  0  0  0  0  0  0  0  0  0  0  0
   -7.2309   10.6170  -10.6058 C   0  0  0  0  0  0  0  0  0  0  0  0
   -7.6111    9.7517   -9.5147 C   0  0  3  0  0  0  0  0  0  0  0  0
   -8.2865    8.7392   -9.9897 N   0  0  0  0  0  0  0  0  0  0  0  0
   -8.4152    8.8682  -11.3006 N   0  0  0  0  0  0  0  0  0  0  0  0
   -7.3373    9.8888   -8.0252 C   0  0  0  0  0  0  0  0  0  0  0  0
   -4.3541   13.7129  -11.4635 N   0  0  0  0  0  0  0  0  0  0  0  0
   -5.5361   13.6428  -12.1728 C   0  0  0  0  0  0  0  0  0  0  0  0
   -5.9526   14.5668  -12.8773 O   0  0  0  0  0  0  0  0  0  0  0  0
   -5.9623   10.4854   -7.7364 C   0  0  0  0  0  0  0  0  0  0  0  0
   -5.8532   11.7571   -7.1646 C   0  0  0  0  0  0  0  0  0  0  0  0
   -4.5945   12.3064   -6.9180 C   0  0  0  0  0  0  0  0  0  0  0  0
   -3.4446   11.5858   -7.2382 C   0  0  0  0  0  0  0  0  0  0  0  0
   -3.5555   10.3115   -7.8022 C   0  0  0  0  0  0  0  0  0  0  0  0
   -4.8126    9.7649   -8.0516 C   0  0  0  0  0  0  0  0  0  0  0  0
   -2.0930   12.1652   -6.9785 C   0  0  0  0  0  0  0  0  0  0  0  0
   -1.7427   13.4236   -6.4970 C   0  0  0  0  0  0  0  0  0  0  0  0
   -0.4061   13.4591   -6.4324 N   0  0  0  0  0  0  0  0  0  0  0  0
    0.1810   12.3567   -6.8070 N   0  0  0  0  0  0  0  0  0  0  0  0
   -0.8030   11.5520   -7.1701 C   0  0  0  0  0  0  0  0  0  0  0  0
    0.4260   14.5701   -5.9973 C   0  0  0  0  0  0  0  0  0  0  0  0
   -3.6444   15.0059  -11.3286 C   0  0  0  0  0  0  0  0  0  0  0  0
   -2.1848   14.8660  -11.7465 C   0  0  0  0  0  0  0  0  0  0  0  0
   -1.5251   13.6965  -11.2881 O   0  0  0  0  0  0  0  0  0  0  0  0
   -2.2131   12.5012  -11.6333 C   0  0  0  0  0  0  0  0  0  0  0  0
   -3.6517   12.4721  -11.0120 C   0  0  0  0  0  0  0  0  0  0  0  0
   -6.0438   12.2692   -9.8813 H   0  0  0  0  0  0  0  0  0  0  0  0
   -8.1720   10.1191  -13.9020 H   0  0  0  0  0  0  0  0  0  0  0  0
   -6.8821   12.2554  -14.0972 H   0  0  0  0  0  0  0  0  0  0  0  0
   -6.6755    9.1860   -9.6357 H   0  0  0  0  0  0  0  0  0  0  0  0
   -8.0379    9.5965   -7.2570 H   0  0  0  0  0  0  0  0  0  0  0  0
   -6.7437   12.3143   -6.9138 H   0  0  0  0  0  0  0  0  0  0  0  0
   -4.5109   13.2897   -6.4791 H   0  0  0  0  0  0  0  0  0  0  0  0
   -3.4437   12.0319   -8.2437 H   0  0  0  0  0  0  0  0  0  0  0  0
   -2.6655    9.7499   -8.0449 H   0  0  0  0  0  0  0  0  0  0  0  0
   -4.8957    8.7813   -8.4899 H   0  0  0  0  0  0  0  0  0  0  0  0
   -2.4205   14.2199   -6.2269 H   0  0  0  0  0  0  0  0  0  0  0  0
   -0.6578   10.5563   -7.5625 H   0  0  0  0  0  0  0  0  0  0  0  0
    1.4856   14.2813   -6.0588 H   0  0  0  0  0  0  0  0  0  0  0  0
    0.2449   15.4398   -6.6461 H   0  0  0  0  0  0  0  0  0  0  0  0
    0.1766   14.8298   -4.9579 H   0  0  0  0  0  0  0  0  0  0  0  0
   -4.1332   15.7546  -11.9693 H   0  0  0  0  0  0  0  0  0  0  0  0
   -3.6898   15.3350  -10.2800 H   0  0  0  0  0  0  0  0  0  0  0  0
   -2.1459   14.8676  -12.8458 H   0  0  0  0  0  0  0  0  0  0  0  0
   -1.6368   15.7375  -11.3590 H   0  0  0  0  0  0  0  0  0  0  0  0
   -2.2945   12.4382  -12.7285 H   0  0  0  0  0  0  0  0  0  0  0  0
   -1.6432   11.6386  -11.2578 H   0  0  0  0  0  0  0  0  0  0  0  0
   -3.5876   12.4537   -9.9140 H   0  0  0  0  0  0  0  0  0  0  0  0
   -4.1956   11.5825  -11.3625 H   0  0  0  0  0  0  0  0  0  0  0  0
  1  2  2  0  0  0  0
  1  4  1  0  0  0  0
  1 12  1  0  0  0  0
  2  6  1  0  0  0  0
  3  4  2  0  0  0  0
  3  5  1  0  0  0  0
  5  6  2  0  0  0  0
  5  9  1  0  0  0  0
  6  7  1  0  0  0  0
  7  8  1  0  0  0  0
  7 10  1  0  0  0  0
  8  9  2  0  0  0  0
 10 14  2  0  0  0  0
 11 12  1  0  0  0  0
 11 26  1  0  0  0  0
 11 30  1  0  0  0  0
 12 13  2  0  0  0  0
 14 15  1  0  0  0  0
 14 19  1  0  0  0  0
 15 16  2  0  0  0  0
 16 17  1  0  0  0  0
 17 18  1  0  0  0  0
 17 20  1  0  0  0  0
 18 19  2  0  0  0  0
 20 21  2  0  0  0  0
 20 24  1  0  0  0  0
 21 22  1  0  0  0  0
 22 23  1  0  0  0  0
 22 25  1  0  0  0  0
 23 24  2  0  0  0  0
 26 27  1  0  0  0  0
 27 28  1  0  0  0  0
 28 29  1  0  0  0  0
 29 30  1  0  0  0  0
  2 31  1  0  0  0  0
  3 32  1  0  0  0  0
  4 33  1  0  0  0  0
  7 34  1  0  0  0  0
 10 35  1  0  0  0  0
 15 36  1  0  0  0  0
 16 37  1  0  0  0  0
 17 38  1  0  0  0  0
 18 39  1  0  0  0  0
 19 40  1  0  0  0  0
 21 41  1  0  0  0  0
 24 42  1  0  0  0  0
 25 43  1  0  0  0  0
 25 44  1  0  0  0  0
 25 45  1  0  0  0  0
 26 46  1  0  0  0  0
 26 47  1  0  0  0  0
 27 48  1  0  0  0  0
 27 49  1  0  0  0  0
 29 50  1  0  0  0  0
 29 51  1  0  0  0  0
 30 52  1  0  0  0  0
 30 53  1  0  0  0  0
M  END
> <Name>
39

> <IC50[uM]>
0.004

$$$$
39
  -OEChem-05192314333D
 Structure written by MMmdl.
 53 57  0     1  0  0  0  0  0999 V2000
   -6.3502   12.3553  -12.0171 C   0  0  3  0  0  0  0  0  0  0  0  0
   -6.4935   11.7977  -10.7426 C   0  0  0  0  0  0  0  0  0  0  0  0
   -7.7106   10.5751  -13.0385 C   0  0  0  0  0  0  0  0  0  0  0  0
   -6.9725   11.7720  -13.1357 C   0  0  0  0  0  0  0  0  0  0  0  0
   -7.8130   10.0109  -11.7654 C   0  0  3  0  0  0  0  0  0  0  0  0
   -7.2309   10.6170  -10.6058 C   0  0  0  0  0  0  0  0  0  0  0  0
   -7.6111    9.7517   -9.5147 C   0  0  0  0  0  0  0  0  0  0  0  0
   -8.2865    8.7392   -9.9897 N   0  0  0  0  0  0  0  0  0  0  0  0
   -8.4152    8.8682  -11.3006 N   0  0  0  0  0  0  0  0  0  0  0  0
   -7.3373    9.8888   -8.0252 C   0  0  0  0  0  0  0  0  0  0  0  0
   -4.3541   13.7129  -11.4635 N   0  0  0  0  0  0  0  0  0  0  0  0
   -5.5361   13.6428  -12.1728 C   0  0  0  0  0  0  0  0  0  0  0  0
   -5.9526   14.5668  -12.8773 O   0  0  0  0  0  0  0  0  0  0  0  0
   -5.9623   10.4854   -7.7364 C   0  0  0  0  0  0  0  0  0  0  0  0
   -5.8532   11.7571   -7.1646 C   0  0  0  0  0  0  0  0  0  0  0  0
   -4.5945   12.3064   -6.9180 C   0  0  0  0  0  0  0  0  0  0  0  0
   -3.4446   11.5858   -7.2382 C   0  0  0  0  0  0  0  0  0  0  0  0
   -3.5555   10.3115   -7.8022 C   0  0  0  0  0  0  0  0  0  0  0  0
   -4.8126    9.7649   -8.0516 C   0  0  0  0  0  0  0  0  0  0  0  0
   -2.0930   12.1652   -6.9785 C   0  0  0  0  0  0  0  0  0  0  0  0
   -1.7427   13.4236   -6.4970 C   0  0  0  0  0  0  0  0  0  0  0  0
   -0.4061   13.4591   -6.4324 N   0  0  0  0  0  0  0  0  0  0  0  0
    0.1810   12.3567   -6.8070 N   0  0  0  0  0  0  0  0  0  0  0  0
   -0.8030   11.5520   -7.1701 C   0  0  0  0  0  0  0  0  0  0  0  0
    0.4260   14.5701   -5.9973 C   0  0  0  0  0  0  0  0  0  0  0  0
   -3.6444   15.0059  -11.3286 C   0  0  0  0  0  0  0  0  0  0  0  0
   -2.1848   14.8660  -11.7465 C   0  0  0  0  0  0  0  0  0  0  0  0
   -1.5251   13.6965  -11.2881 O   0  0  0  0  0  0  0  0  0  0  0  0
   -2.2131   12.5012  -11.6333 C   0  0  0  0  0  0  0  0  0  0  0  0
   -3.6517   12.4721  -11.0120 C   0  0  0  0  0  0  0  0  0  0  0  0
   -5.4473   11.7517  -12.1914 H   0  0  0  0  0  0  0  0  0  0  0  0
   -6.0438   12.2692   -9.8813 H   0  0  0  0  0  0  0  0  0  0  0  0
   -8.1720   10.1191  -13.9020 H   0  0  0  0  0  0  0  0  0  0  0  0
   -6.8821   12.2554  -14.0972 H   0  0  0  0  0  0  0  0  0  0  0  0
   -8.7432   10.5718  -11.5916 H   0  0  0  0  0  0  0  0  0  0  0  0
   -8.0379    9.5965   -7.2570 H   0  0  0  0  0  0  0  0  0  0  0  0
   -6.7437   12.3143   -6.9138 H   0  0  0  0  0  0  0  0  0  0  0  0
   -4.5109   13.2897   -6.4791 H   0  0  0  0  0  0  0  0  0  0  0  0
   -2.6655    9.7499   -8.0449 H   0  0  0  0  0  0  0  0  0  0  0  0
   -4.8957    8.7813   -8.4899 H   0  0  0  0  0  0  0  0  0  0  0  0
   -2.4205   14.2199   -6.2269 H   0  0  0  0  0  0  0  0  0  0  0  0
   -0.6578   10.5563   -7.5625 H   0  0  0  0  0  0  0  0  0  0  0  0
    1.4856   14.2813   -6.0588 H   0  0  0  0  0  0  0  0  0  0  0  0
    0.2449   15.4398   -6.6461 H   0  0  0  0  0  0  0  0  0  0  0  0
    0.1766   14.8298   -4.9579 H   0  0  0  0  0  0  0  0  0  0  0  0
   -4.1332   15.7546  -11.9693 H   0  0  0  0  0  0  0  0  0  0  0  0
   -3.6898   15.3350  -10.2800 H   0  0  0  0  0  0  0  0  0  0  0  0
   -2.1459   14.8676  -12.8458 H   0  0  0  0  0  0  0  0  0  0  0  0
   -1.6368   15.7375  -11.3590 H   0  0  0  0  0  0  0  0  0  0  0  0
   -2.2945   12.4382  -12.7285 H   0  0  0  0  0  0  0  0  0  0  0  0
   -1.6432   11.6386  -11.2578 H   0  0  0  0  0  0  0  0  0  0  0  0
   -3.5876   12.4537   -9.9140 H   0  0  0  0  0  0  0  0  0  0  0  0
   -4.1956   11.5825  -11.3625 H   0  0  0  0  0  0  0  0  0  0  0  0
  1  2  1  0  0  0  0
  1  4  1  0  0  0  0
  1 12  1  0  0  0  0
  2  6  2  0  0  0  0
  3  4  2  0  0  0  0
  3  5  1  0  0  0  0
  5  6  1  0  0  0  0
  5  9  1  0  0  0  0
  6  7  1  0  0  0  0
  7  8  1  0  0  0  0
  7 10  2  3  0  0  0
  8  9  2  0  0  0  0
 10 14  1  0  0  0  0
 11 12  1  0  0  0  0
 11 26  1  0  0  0  0
 11 30  1  0  0  0  0
 12 13  2  0  0  0  0
 14 15  2  0  0  0  0
 14 19  1  0  0  0  0
 15 16  1  0  0  0  0
 16 17  2  0  0  0  0
 17 18  1  0  0  0  0
 17 20  1  0  0  0  0
 18 19  2  0  0  0  0
 20 21  2  0  0  0  0
 20 24  1  0  0  0  0
 21 22  1  0  0  0  0
 22 23  1  0  0  0  0
 22 25  1  0  0  0  0
 23 24  2  0  0  0  0
 26 27  1  0  0  0  0
 27 28  1  0  0  0  0
 28 29  1  0  0  0  0
 29 30  1  0  0  0  0
  1 31  1  0  0  0  0
  2 32  1  0  0  0  0
  3 33  1  0  0  0  0
  4 34  1  0  0  0  0
  5 35  1  0  0  0  0
 10 36  1  0  0  0  0
 15 37  1  0  0  0  0
 16 38  1  0  0  0  0
 18 39  1  0  0  0  0
 19 40  1  0  0  0  0
 21 41  1  0  0  0  0
 24 42  1  0  0  0  0
 25 43  1  0  0  0  0
 25 44  1  0  0  0  0
 25 45  1  0  0  0  0
 26 46  1  0  0  0  0
 26 47  1  0  0  0  0
 27 48  1  0  0  0  0
 27 49  1  0  0  0  0
 29 50  1  0  0  0  0
 29 51  1  0  0  0  0
 30 52  1  0  0  0  0
 30 53  1  0  0  0  0
M  END
> <Name>
39

> <IC50[uM]>
0.004

$$$$
39
  -OEChem-05192314333D
 Structure written by MMmdl.
 53 57  0     1  0  0  0  0  0999 V2000
   -6.3502   12.3553  -12.0171 C   0  0  0  0  0  0  0  0  0  0  0  0
   -6.4935   11.7977  -10.7426 C   0  0  0  0  0  0  0  0  0  0  0  0
   -7.7106   10.5751  -13.0385 C   0  0  0  0  0  0  0  0  0  0  0  0
   -6.9725   11.7720  -13.1357 C   0  0  0  0  0  0  0  0  0  0  0  0
   -7.8130   10.0109  -11.7654 C   0  0  3  0  0  0  0  0  0  0  0  0
   -7.2309   10.6170  -10.6058 C   0  0  3  0  0  0  0  0  0  0  0  0
   -7.6111    9.7517   -9.5147 C   0  0  0  0  0  0  0  0  0  0  0  0
   -8.2865    8.7392   -9.9897 N   0  0  0  0  0  0  0  0  0  0  0  0
   -8.4152    8.8682  -11.3006 N   0  0  0  0  0  0  0  0  0  0  0  0
   -7.3373    9.8888   -8.0252 C   0  0  0  0  0  0  0  0  0  0  0  0
   -4.3541   13.7129  -11.4635 N   0  0  0  0  0  0  0  0  0  0  0  0
   -5.5361   13.6428  -12.1728 C   0  0  0  0  0  0  0  0  0  0  0  0
   -5.9526   14.5668  -12.8773 O   0  0  0  0  0  0  0  0  0  0  0  0
   -5.9623   10.4854   -7.7364 C   0  0  0  0  0  0  0  0  0  0  0  0
   -5.8532   11.7571   -7.1646 C   0  0  0  0  0  0  0  0  0  0  0  0
   -4.5945   12.3064   -6.9180 C   0  0  0  0  0  0  0  0  0  0  0  0
   -3.4446   11.5858   -7.2382 C   0  0  0  0  0  0  0  0  0  0  0  0
   -3.5555   10.3115   -7.8022 C   0  0  0  0  0  0  0  0  0  0  0  0
   -4.8126    9.7649   -8.0516 C   0  0  0  0  0  0  0  0  0  0  0  0
   -2.0930   12.1652   -6.9785 C   0  0  0  0  0  0  0  0  0  0  0  0
   -1.7427   13.4236   -6.4970 C   0  0  0  0  0  0  0  0  0  0  0  0
   -0.4061   13.4591   -6.4324 N   0  0  0  0  0  0  0  0  0  0  0  0
    0.1810   12.3567   -6.8070 N   0  0  0  0  0  0  0  0  0  0  0  0
   -0.8030   11.5520   -7.1701 C   0  0  0  0  0  0  0  0  0  0  0  0
    0.4260   14.5701   -5.9973 C   0  0  0  0  0  0  0  0  0  0  0  0
   -3.6444   15.0059  -11.3286 C   0  0  0  0  0  0  0  0  0  0  0  0
   -2.1848   14.8660  -11.7465 C   0  0  0  0  0  0  0  0  0  0  0  0
   -1.5251   13.6965  -11.2881 O   0  0  0  0  0  0  0  0  0  0  0  0
   -2.2131   12.5012  -11.6333 C   0  0  0  0  0  0  0  0  0  0  0  0
   -3.6517   12.4721  -11.0120 C   0  0  0  0  0  0  0  0  0  0  0  0
   -6.0438   12.2692   -9.8813 H   0  0  0  0  0  0  0  0  0  0  0  0
   -8.1720   10.1191  -13.9020 H   0  0  0  0  0  0  0  0  0  0  0  0
   -6.8821   12.2554  -14.0972 H   0  0  0  0  0  0  0  0  0  0  0  0
   -8.7432   10.5718  -11.5916 H   0  0  0  0  0  0  0  0  0  0  0  0
   -6.3150   10.0266  -10.7560 H   0  0  0  0  0  0  0  0  0  0  0  0
   -8.0379    9.5965   -7.2570 H   0  0  0  0  0  0  0  0  0  0  0  0
   -6.7437   12.3143   -6.9138 H   0  0  0  0  0  0  0  0  0  0  0  0
   -4.5109   13.2897   -6.4791 H   0  0  0  0  0  0  0  0  0  0  0  0
   -2.6655    9.7499   -8.0449 H   0  0  0  0  0  0  0  0  0  0  0  0
   -4.8957    8.7813   -8.4899 H   0  0  0  0  0  0  0  0  0  0  0  0
   -2.4205   14.2199   -6.2269 H   0  0  0  0  0  0  0  0  0  0  0  0
   -0.6578   10.5563   -7.5625 H   0  0  0  0  0  0  0  0  0  0  0  0
    1.4856   14.2813   -6.0588 H   0  0  0  0  0  0  0  0  0  0  0  0
    0.2449   15.4398   -6.6461 H   0  0  0  0  0  0  0  0  0  0  0  0
    0.1766   14.8298   -4.9579 H   0  0  0  0  0  0  0  0  0  0  0  0
   -4.1332   15.7546  -11.9693 H   0  0  0  0  0  0  0  0  0  0  0  0
   -3.6898   15.3350  -10.2800 H   0  0  0  0  0  0  0  0  0  0  0  0
   -2.1459   14.8676  -12.8458 H   0  0  0  0  0  0  0  0  0  0  0  0
   -1.6368   15.7375  -11.3590 H   0  0  0  0  0  0  0  0  0  0  0  0
   -2.2945   12.4382  -12.7285 H   0  0  0  0  0  0  0  0  0  0  0  0
   -1.6432   11.6386  -11.2578 H   0  0  0  0  0  0  0  0  0  0  0  0
   -3.5876   12.4537   -9.9140 H   0  0  0  0  0  0  0  0  0  0  0  0
   -4.1956   11.5825  -11.3625 H   0  0  0  0  0  0  0  0  0  0  0  0
  1  2  2  0  0  0  0
  1  4  1  0  0  0  0
  1 12  1  0  0  0  0
  2  6  1  0  0  0  0
  3  4  2  0  0  0  0
  3  5  1  0  0  0  0
  5  6  1  0  0  0  0
  5  9  1  0  0  0  0
  6  7  1  0  0  0  0
  7  8  1  0  0  0  0
  7 10  2  3  0  0  0
  8  9  2  0  0  0  0
 10 14  1  0  0  0  0
 11 12  1  0  0  0  0
 11 26  1  0  0  0  0
 11 30  1  0  0  0  0
 12 13  2  0  0  0  0
 14 15  2  0  0  0  0
 14 19  1  0  0  0  0
 15 16  1  0  0  0  0
 16 17  2  0  0  0  0
 17 18  1  0  0  0  0
 17 20  1  0  0  0  0
 18 19  2  0  0  0  0
 20 21  2  0  0  0  0
 20 24  1  0  0  0  0
 21 22  1  0  0  0  0
 22 23  1  0  0  0  0
 22 25  1  0  0  0  0
 23 24  2  0  0  0  0
 26 27  1  0  0  0  0
 27 28  1  0  0  0  0
 28 29  1  0  0  0  0
 29 30  1  0  0  0  0
  2 31  1  0  0  0  0
  3 32  1  0  0  0  0
  4 33  1  0  0  0  0
  5 34  1  0  0  0  0
  6 35  1  0  0  0  0
 10 36  1  0  0  0  0
 15 37  1  0  0  0  0
 16 38  1  0  0  0  0
 18 39  1  0  0  0  0
 19 40  1  0  0  0  0
 21 41  1  0  0  0  0
 24 42  1  0  0  0  0
 25 43  1  0  0  0  0
 25 44  1  0  0  0  0
 25 45  1  0  0  0  0
 26 46  1  0  0  0  0
 26 47  1  0  0  0  0
 27 48  1  0  0  0  0
 27 49  1  0  0  0  0
 29 50  1  0  0  0  0
 29 51  1  0  0  0  0
 30 52  1  0  0  0  0
 30 53  1  0  0  0  0
M  END
> <Name>
39

> <IC50[uM]>
0.004

$$$$
39
  -OEChem-05192314333D
 Structure written by MMmdl.
 53 57  0     1  0  0  0  0  0999 V2000
   -6.3502   12.3553  -12.0171 C   0  0  0  0  0  0  0  0  0  0  0  0
   -6.4935   11.7977  -10.7426 C   0  0  0  0  0  0  0  0  0  0  0  0
   -7.7106   10.5751  -13.0385 C   0  0  0  0  0  0  0  0  0  0  0  0
   -6.9725   11.7720  -13.1357 C   0  0  0  0  0  0  0  0  0  0  0  0
   -7.8130   10.0109  -11.7654 C   0  0  3  0  0  0  0  0  0  0  0  0
   -7.2309   10.6170  -10.6058 C   0  0  0  0  0  0  0  0  0  0  0  0
   -7.6111    9.7517   -9.5147 C   0  0  0  0  0  0  0  0  0  0  0  0
   -8.2865    8.7392   -9.9897 N   0  0  0  0  0  0  0  0  0  0  0  0
   -8.4152    8.8682  -11.3006 N   0  0  0  0  0  0  0  0  0  0  0  0
   -7.3373    9.8888   -8.0252 C   0  0  0  0  0  0  0  0  0  0  0  0
   -4.3541   13.7129  -11.4635 N   0  0  0  0  0  0  0  0  0  0  0  0
   -5.5361   13.6428  -12.1728 C   0  0  0  0  0  0  0  0  0  0  0  0
   -5.9526   14.5668  -12.8773 O   0  0  0  0  0  0  0  0  0  0  0  0
   -5.9623   10.4854   -7.7364 C   0  0  0  0  0  0  0  0  0  0  0  0
   -5.8532   11.7571   -7.1646 C   0  0  0  0  0  0  0  0  0  0  0  0
   -4.5945   12.3064   -6.9180 C   0  0  0  0  0  0  0  0  0  0  0  0
   -3.4446   11.5858   -7.2382 C   0  0  0  0  0  0  0  0  0  0  0  0
   -3.5555   10.3115   -7.8022 C   0  0  0  0  0  0  0  0  0  0  0  0
   -4.8126    9.7649   -8.0516 C   0  0  0  0  0  0  0  0  0  0  0  0
   -2.0930   12.1652   -6.9785 C   0  0  0  0  0  0  0  0  0  0  0  0
   -1.7427   13.4236   -6.4970 C   0  0  0  0  0  0  0  0  0  0  0  0
   -0.4061   13.4591   -6.4324 N   0  0  0  0  0  0  0  0  0  0  0  0
    0.1810   12.3567   -6.8070 N   0  0  0  0  0  0  0  0  0  0  0  0
   -0.8030   11.5520   -7.1701 C   0  0  0  0  0  0  0  0  0  0  0  0
    0.4260   14.5701   -5.9973 C   0  0  0  0  0  0  0  0  0  0  0  0
   -3.6444   15.0059  -11.3286 C   0  0  0  0  0  0  0  0  0  0  0  0
   -2.1848   14.8660  -11.7465 C   0  0  0  0  0  0  0  0  0  0  0  0
   -1.5251   13.6965  -11.2881 O   0  0  0  0  0  0  0  0  0  0  0  0
   -2.2131   12.5012  -11.6333 C   0  0  0  0  0  0  0  0  0  0  0  0
   -3.6517   12.4721  -11.0120 C   0  0  0  0  0  0  0  0  0  0  0  0
   -6.0438   12.2692   -9.8813 H   0  0  0  0  0  0  0  0  0  0  0  0
   -8.7302   10.7806  -13.3966 H   0  0  0  0  0  0  0  0  0  0  0  0
   -7.2336    9.8333  -13.6960 H   0  0  0  0  0  0  0  0  0  0  0  0
   -6.8821   12.2554  -14.0972 H   0  0  0  0  0  0  0  0  0  0  0  0
   -8.7432   10.5718  -11.5916 H   0  0  0  0  0  0  0  0  0  0  0  0
   -8.0379    9.5965   -7.2570 H   0  0  0  0  0  0  0  0  0  0  0  0
   -6.7437   12.3143   -6.9138 H   0  0  0  0  0  0  0  0  0  0  0  0
   -4.5109   13.2897   -6.4791 H   0  0  0  0  0  0  0  0  0  0  0  0
   -2.6655    9.7499   -8.0449 H   0  0  0  0  0  0  0  0  0  0  0  0
   -4.8957    8.7813   -8.4899 H   0  0  0  0  0  0  0  0  0  0  0  0
   -2.4205   14.2199   -6.2269 H   0  0  0  0  0  0  0  0  0  0  0  0
   -0.6578   10.5563   -7.5625 H   0  0  0  0  0  0  0  0  0  0  0  0
    1.4856   14.2813   -6.0588 H   0  0  0  0  0  0  0  0  0  0  0  0
    0.2449   15.4398   -6.6461 H   0  0  0  0  0  0  0  0  0  0  0  0
    0.1766   14.8298   -4.9579 H   0  0  0  0  0  0  0  0  0  0  0  0
   -4.1332   15.7546  -11.9693 H   0  0  0  0  0  0  0  0  0  0  0  0
   -3.6898   15.3350  -10.2800 H   0  0  0  0  0  0  0  0  0  0  0  0
   -2.1459   14.8676  -12.8458 H   0  0  0  0  0  0  0  0  0  0  0  0
   -1.6368   15.7375  -11.3590 H   0  0  0  0  0  0  0  0  0  0  0  0
   -2.2945   12.4382  -12.7285 H   0  0  0  0  0  0  0  0  0  0  0  0
   -1.6432   11.6386  -11.2578 H   0  0  0  0  0  0  0  0  0  0  0  0
   -3.5876   12.4537   -9.9140 H   0  0  0  0  0  0  0  0  0  0  0  0
   -4.1956   11.5825  -11.3625 H   0  0  0  0  0  0  0  0  0  0  0  0
  1  2  1  0  0  0  0
  1  4  2  0  0  0  0
  1 12  1  0  0  0  0
  2  6  2  0  0  0  0
  3  4  1  0  0  0  0
  3  5  1  0  0  0  0
  5  6  1  0  0  0  0
  5  9  1  0  0  0  0
  6  7  1  0  0  0  0
  7  8  1  0  0  0  0
  7 10  2  3  0  0  0
  8  9  2  0  0  0  0
 10 14  1  0  0  0  0
 11 12  1  0  0  0  0
 11 26  1  0  0  0  0
 11 30  1  0  0  0  0
 12 13  2  0  0  0  0
 14 15  2  0  0  0  0
 14 19  1  0  0  0  0
 15 16  1  0  0  0  0
 16 17  2  0  0  0  0
 17 18  1  0  0  0  0
 17 20  1  0  0  0  0
 18 19  2  0  0  0  0
 20 21  2  0  0  0  0
 20 24  1  0  0  0  0
 21 22  1  0  0  0  0
 22 23  1  0  0  0  0
 22 25  1  0  0  0  0
 23 24  2  0  0  0  0
 26 27  1  0  0  0  0
 27 28  1  0  0  0  0
 28 29  1  0  0  0  0
 29 30  1  0  0  0  0
  2 31  1  0  0  0  0
  3 32  1  0  0  0  0
  3 33  1  0  0  0  0
  4 34  1  0  0  0  0
  5 35  1  0  0  0  0
 10 36  1  0  0  0  0
 15 37  1  0  0  0  0
 16 38  1  0  0  0  0
 18 39  1  0  0  0  0
 19 40  1  0  0  0  0
 21 41  1  0  0  0  0
 24 42  1  0  0  0  0
 25 43  1  0  0  0  0
 25 44  1  0  0  0  0
 25 45  1  0  0  0  0
 26 46  1  0  0  0  0
 26 47  1  0  0  0  0
 27 48  1  0  0  0  0
 27 49  1  0  0  0  0
 29 50  1  0  0  0  0
 29 51  1  0  0  0  0
 30 52  1  0  0  0  0
 30 53  1  0  0  0  0
M  END
> <Name>
39

> <IC50[uM]>
0.004

$$$$
39
  -OEChem-05192314333D
 Structure written by MMmdl.
 53 57  0     1  0  0  0  0  0999 V2000
   -6.3502   12.3553  -12.0171 C   0  0  0  0  0  0  0  0  0  0  0  0
   -6.4935   11.7977  -10.7426 C   0  0  0  0  0  0  0  0  0  0  0  0
   -7.7106   10.5751  -13.0385 C   0  0  0  0  0  0  0  0  0  0  0  0
   -6.9725   11.7720  -13.1357 C   0  0  0  0  0  0  0  0  0  0  0  0
   -7.8130   10.0109  -11.7654 C   0  0  0  0  0  0  0  0  0  0  0  0
   -7.2309   10.6170  -10.6058 C   0  0  0  0  0  0  0  0  0  0  0  0
   -7.6111    9.7517   -9.5147 C   0  0  0  0  0  0  0  0  0  0  0  0
   -8.2865    8.7392   -9.9897 N   0  0  0  0  0  0  0  0  0  0  0  0
   -8.4152    8.8682  -11.3006 N   0  0  0  0  0  0  0  0  0  0  0  0
   -7.3373    9.8888   -8.0252 C   0  0  0  0  0  0  0  0  0  0  0  0
   -4.3541   13.7129  -11.4635 N   0  0  0  0  0  0  0  0  0  0  0  0
   -5.5361   13.6428  -12.1728 C   0  0  0  0  0  0  0  0  0  0  0  0
   -5.9526   14.5668  -12.8773 O   0  0  0  0  0  0  0  0  0  0  0  0
   -5.9623   10.4854   -7.7364 C   0  0  0  0  0  0  0  0  0  0  0  0
   -5.8532   11.7571   -7.1646 C   0  0  0  0  0  0  0  0  0  0  0  0
   -4.5945   12.3064   -6.9180 C   0  0  0  0  0  0  0  0  0  0  0  0
   -3.4446   11.5858   -7.2382 C   0  0  3  0  0  0  0  0  0  0  0  0
   -3.5555   10.3115   -7.8022 C   0  0  0  0  0  0  0  0  0  0  0  0
   -4.8126    9.7649   -8.0516 C   0  0  0  0  0  0  0  0  0  0  0  0
   -2.0930   12.1652   -6.9785 C   0  0  0  0  0  0  0  0  0  0  0  0
   -1.7427   13.4236   -6.4970 C   0  0  0  0  0  0  0  0  0  0  0  0
   -0.4061   13.4591   -6.4324 N   0  0  0  0  0  0  0  0  0  0  0  0
    0.1810   12.3567   -6.8070 N   0  0  0  0  0  0  0  0  0  0  0  0
   -0.8030   11.5520   -7.1701 C   0  0  0  0  0  0  0  0  0  0  0  0
    0.4260   14.5701   -5.9973 C   0  0  0  0  0  0  0  0  0  0  0  0
   -3.6444   15.0059  -11.3286 C   0  0  0  0  0  0  0  0  0  0  0  0
   -2.1848   14.8660  -11.7465 C   0  0  0  0  0  0  0  0  0  0  0  0
   -1.5251   13.6965  -11.2881 O   0  0  0  0  0  0  0  0  0  0  0  0
   -2.2131   12.5012  -11.6333 C   0  0  0  0  0  0  0  0  0  0  0  0
   -3.6517   12.4721  -11.0120 C   0  0  0  0  0  0  0  0  0  0  0  0
   -6.0438   12.2692   -9.8813 H   0  0  0  0  0  0  0  0  0  0  0  0
   -8.1720   10.1191  -13.9020 H   0  0  0  0  0  0  0  0  0  0  0  0
   -6.8821   12.2554  -14.0972 H   0  0  0  0  0  0  0  0  0  0  0  0
   -8.0379    9.5965   -7.2570 H   0  0  0  0  0  0  0  0  0  0  0  0
   -6.7437   12.3143   -6.9138 H   0  0  0  0  0  0  0  0  0  0  0  0
   -4.5444   13.2506   -7.4801 H   0  0  0  0  0  0  0  0  0  0  0  0
   -4.5463   12.5186   -5.8397 H   0  0  0  0  0  0  0  0  0  0  0  0
   -3.4437   12.0319   -8.2437 H   0  0  0  0  0  0  0  0  0  0  0  0
   -2.6655    9.7499   -8.0449 H   0  0  0  0  0  0  0  0  0  0  0  0
   -4.8957    8.7813   -8.4899 H   0  0  0  0  0  0  0  0  0  0  0  0
   -2.4205   14.2199   -6.2269 H   0  0  0  0  0  0  0  0  0  0  0  0
   -0.6578   10.5563   -7.5625 H   0  0  0  0  0  0  0  0  0  0  0  0
    1.4856   14.2813   -6.0588 H   0  0  0  0  0  0  0  0  0  0  0  0
    0.2449   15.4398   -6.6461 H   0  0  0  0  0  0  0  0  0  0  0  0
    0.1766   14.8298   -4.9579 H   0  0  0  0  0  0  0  0  0  0  0  0
   -4.1332   15.7546  -11.9693 H   0  0  0  0  0  0  0  0  0  0  0  0
   -3.6898   15.3350  -10.2800 H   0  0  0  0  0  0  0  0  0  0  0  0
   -2.1459   14.8676  -12.8458 H   0  0  0  0  0  0  0  0  0  0  0  0
   -1.6368   15.7375  -11.3590 H   0  0  0  0  0  0  0  0  0  0  0  0
   -2.2945   12.4382  -12.7285 H   0  0  0  0  0  0  0  0  0  0  0  0
   -1.6432   11.6386  -11.2578 H   0  0  0  0  0  0  0  0  0  0  0  0
   -3.5876   12.4537   -9.9140 H   0  0  0  0  0  0  0  0  0  0  0  0
   -4.1956   11.5825  -11.3625 H   0  0  0  0  0  0  0  0  0  0  0  0
  1  2  2  0  0  0  0
  1  4  1  0  0  0  0
  1 12  1  0  0  0  0
  2  6  1  0  0  0  0
  3  4  2  0  0  0  0
  3  5  1  0  0  0  0
  5  6  2  0  0  0  0
  5  9  1  0  0  0  0
  6  7  1  0  0  0  0
  7  8  1  0  0  0  0
  7 10  2  3  0  0  0
  8  9  2  0  0  0  0
 10 14  1  0  0  0  0
 11 12  1  0  0  0  0
 11 26  1  0  0  0  0
 11 30  1  0  0  0  0
 12 13  2  0  0  0  0
 14 15  2  0  0  0  0
 14 19  1  0  0  0  0
 15 16  1  0  0  0  0
 16 17  1  0  0  0  0
 17 18  1  0  0  0  0
 17 20  1  0  0  0  0
 18 19  2  0  0  0  0
 20 21  2  0  0  0  0
 20 24  1  0  0  0  0
 21 22  1  0  0  0  0
 22 23  1  0  0  0  0
 22 25  1  0  0  0  0
 23 24  2  0  0  0  0
 26 27  1  0  0  0  0
 27 28  1  0  0  0  0
 28 29  1  0  0  0  0
 29 30  1  0  0  0  0
  2 31  1  0  0  0  0
  3 32  1  0  0  0  0
  4 33  1  0  0  0  0
 10 34  1  0  0  0  0
 15 35  1  0  0  0  0
 16 36  1  0  0  0  0
 16 37  1  0  0  0  0
 17 38  1  0  0  0  0
 18 39  1  0  0  0  0
 19 40  1  0  0  0  0
 21 41  1  0  0  0  0
 24 42  1  0  0  0  0
 25 43  1  0  0  0  0
 25 44  1  0  0  0  0
 25 45  1  0  0  0  0
 26 46  1  0  0  0  0
 26 47  1  0  0  0  0
 27 48  1  0  0  0  0
 27 49  1  0  0  0  0
 29 50  1  0  0  0  0
 29 51  1  0  0  0  0
 30 52  1  0  0  0  0
 30 53  1  0  0  0  0
M  END
> <Name>
39

> <IC50[uM]>
0.004

$$$$
39
  -OEChem-05192314333D
 Structure written by MMmdl.
 53 57  0     1  0  0  0  0  0999 V2000
   -6.3502   12.3553  -12.0171 C   0  0  3  0  0  0  0  0  0  0  0  0
   -6.4935   11.7977  -10.7426 C   0  0  0  0  0  0  0  0  0  0  0  0
   -7.7106   10.5751  -13.0385 C   0  0  0  0  0  0  0  0  0  0  0  0
   -6.9725   11.7720  -13.1357 C   0  0  0  0  0  0  0  0  0  0  0  0
   -7.8130   10.0109  -11.7654 C   0  0  0  0  0  0  0  0  0  0  0  0
   -7.2309   10.6170  -10.6058 C   0  0  0  0  0  0  0  0  0  0  0  0
   -7.6111    9.7517   -9.5147 C   0  0  0  0  0  0  0  0  0  0  0  0
   -8.2865    8.7392   -9.9897 N   0  0  0  0  0  0  0  0  0  0  0  0
   -8.4152    8.8682  -11.3006 N   0  0  0  0  0  0  0  0  0  0  0  0
   -7.3373    9.8888   -8.0252 C   0  0  0  0  0  0  0  0  0  0  0  0
   -4.3541   13.7129  -11.4635 N   0  0  0  0  0  0  0  0  0  0  0  0
   -5.5361   13.6428  -12.1728 C   0  0  0  0  0  0  0  0  0  0  0  0
   -5.9526   14.5668  -12.8773 O   0  0  0  0  0  0  0  0  0  0  0  0
   -5.9623   10.4854   -7.7364 C   0  0  0  0  0  0  0  0  0  0  0  0
   -5.8532   11.7571   -7.1646 C   0  0  0  0  0  0  0  0  0  0  0  0
   -4.5945   12.3064   -6.9180 C   0  0  0  0  0  0  0  0  0  0  0  0
   -3.4446   11.5858   -7.2382 C   0  0  0  0  0  0  0  0  0  0  0  0
   -3.5555   10.3115   -7.8022 C   0  0  0  0  0  0  0  0  0  0  0  0
   -4.8126    9.7649   -8.0516 C   0  0  0  0  0  0  0  0  0  0  0  0
   -2.0930   12.1652   -6.9785 C   0  0  0  0  0  0  0  0  0  0  0  0
   -1.7427   13.4236   -6.4970 C   0  0  0  0  0  0  0  0  0  0  0  0
   -0.4061   13.4591   -6.4324 N   0  0  0  0  0  0  0  0  0  0  0  0
    0.1810   12.3567   -6.8070 N   0  0  0  0  0  0  0  0  0  0  0  0
   -0.8030   11.5520   -7.1701 C   0  0  0  0  0  0  0  0  0  0  0  0
    0.4260   14.5701   -5.9973 C   0  0  0  0  0  0  0  0  0  0  0  0
   -3.6444   15.0059  -11.3286 C   0  0  0  0  0  0  0  0  0  0  0  0
   -2.1848   14.8660  -11.7465 C   0  0  0  0  0  0  0  0  0  0  0  0
   -1.5251   13.6965  -11.2881 O   0  0  0  0  0  0  0  0  0  0  0  0
   -2.2131   12.5012  -11.6333 C   0  0  0  0  0  0  0  0  0  0  0  0
   -3.6517   12.4721  -11.0120 C   0  0  0  0  0  0  0  0  0  0  0  0
   -5.4473   11.7517  -12.1914 H   0  0  0  0  0  0  0  0  0  0  0  0
   -6.0438   12.2692   -9.8813 H   0  0  0  0  0  0  0  0  0  0  0  0
   -8.1720   10.1191  -13.9020 H   0  0  0  0  0  0  0  0  0  0  0  0
   -7.6642   12.5292  -13.5334 H   0  0  0  0  0  0  0  0  0  0  0  0
   -6.1745   11.5833  -13.8689 H   0  0  0  0  0  0  0  0  0  0  0  0
   -8.0379    9.5965   -7.2570 H   0  0  0  0  0  0  0  0  0  0  0  0
   -6.7437   12.3143   -6.9138 H   0  0  0  0  0  0  0  0  0  0  0  0
   -4.5109   13.2897   -6.4791 H   0  0  0  0  0  0  0  0  0  0  0  0
   -2.6655    9.7499   -8.0449 H   0  0  0  0  0  0  0  0  0  0  0  0
   -4.8957    8.7813   -8.4899 H   0  0  0  0  0  0  0  0  0  0  0  0
   -2.4205   14.2199   -6.2269 H   0  0  0  0  0  0  0  0  0  0  0  0
   -0.6578   10.5563   -7.5625 H   0  0  0  0  0  0  0  0  0  0  0  0
    1.4856   14.2813   -6.0588 H   0  0  0  0  0  0  0  0  0  0  0  0
    0.2449   15.4398   -6.6461 H   0  0  0  0  0  0  0  0  0  0  0  0
    0.1766   14.8298   -4.9579 H   0  0  0  0  0  0  0  0  0  0  0  0
   -4.1332   15.7546  -11.9693 H   0  0  0  0  0  0  0  0  0  0  0  0
   -3.6898   15.3350  -10.2800 H   0  0  0  0  0  0  0  0  0  0  0  0
   -2.1459   14.8676  -12.8458 H   0  0  0  0  0  0  0  0  0  0  0  0
   -1.6368   15.7375  -11.3590 H   0  0  0  0  0  0  0  0  0  0  0  0
   -2.2945   12.4382  -12.7285 H   0  0  0  0  0  0  0  0  0  0  0  0
   -1.6432   11.6386  -11.2578 H   0  0  0  0  0  0  0  0  0  0  0  0
   -3.5876   12.4537   -9.9140 H   0  0  0  0  0  0  0  0  0  0  0  0
   -4.1956   11.5825  -11.3625 H   0  0  0  0  0  0  0  0  0  0  0  0
  1  2  1  0  0  0  0
  1  4  1  0  0  0  0
  1 12  1  0  0  0  0
  2  6  2  0  0  0  0
  3  4  1  0  0  0  0
  3  5  2  0  0  0  0
  5  6  1  0  0  0  0
  5  9  1  0  0  0  0
  6  7  1  0  0  0  0
  7  8  1  0  0  0  0
  7 10  2  3  0  0  0
  8  9  2  0  0  0  0
 10 14  1  0  0  0  0
 11 12  1  0  0  0  0
 11 26  1  0  0  0  0
 11 30  1  0  0  0  0
 12 13  2  0  0  0  0
 14 15  2  0  0  0  0
 14 19  1  0  0  0  0
 15 16  1  0  0  0  0
 16 17  2  0  0  0  0
 17 18  1  0  0  0  0
 17 20  1  0  0  0  0
 18 19  2  0  0  0  0
 20 21  2  0  0  0  0
 20 24  1  0  0  0  0
 21 22  1  0  0  0  0
 22 23  1  0  0  0  0
 22 25  1  0  0  0  0
 23 24  2  0  0  0  0
 26 27  1  0  0  0  0
 27 28  1  0  0  0  0
 28 29  1  0  0  0  0
 29 30  1  0  0  0  0
  1 31  1  0  0  0  0
  2 32  1  0  0  0  0
  3 33  1  0  0  0  0
  4 34  1  0  0  0  0
  4 35  1  0  0  0  0
 10 36  1  0  0  0  0
 15 37  1  0  0  0  0
 16 38  1  0  0  0  0
 18 39  1  0  0  0  0
 19 40  1  0  0  0  0
 21 41  1  0  0  0  0
 24 42  1  0  0  0  0
 25 43  1  0  0  0  0
 25 44  1  0  0  0  0
 25 45  1  0  0  0  0
 26 46  1  0  0  0  0
 26 47  1  0  0  0  0
 27 48  1  0  0  0  0
 27 49  1  0  0  0  0
 29 50  1  0  0  0  0
 29 51  1  0  0  0  0
 30 52  1  0  0  0  0
 30 53  1  0  0  0  0
M  END
> <Name>
39

> <IC50[uM]>
0.004

$$$$
39
  -OEChem-05192314333D
 Structure written by MMmdl.
 53 57  0     1  0  0  0  0  0999 V2000
   -6.3502   12.3553  -12.0171 C   0  0  0  0  0  0  0  0  0  0  0  0
   -6.4935   11.7977  -10.7426 C   0  0  0  0  0  0  0  0  0  0  0  0
   -7.7106   10.5751  -13.0385 C   0  0  0  0  0  0  0  0  0  0  0  0
   -6.9725   11.7720  -13.1357 C   0  0  0  0  0  0  0  0  0  0  0  0
   -7.8130   10.0109  -11.7654 C   0  0  0  0  0  0  0  0  0  0  0  0
   -7.2309   10.6170  -10.6058 C   0  0  3  0  0  0  0  0  0  0  0  0
   -7.6111    9.7517   -9.5147 C   0  0  0  0  0  0  0  0  0  0  0  0
   -8.2865    8.7392   -9.9897 N   0  0  0  0  0  0  0  0  0  0  0  0
   -8.4152    8.8682  -11.3006 N   0  0  0  0  0  0  0  0  0  0  0  0
   -7.3373    9.8888   -8.0252 C   0  0  0  0  0  0  0  0  0  0  0  0
   -4.3541   13.7129  -11.4635 N   0  0  0  0  0  0  0  0  0  0  0  0
   -5.5361   13.6428  -12.1728 C   0  0  0  0  0  0  0  0  0  0  0  0
   -5.9526   14.5668  -12.8773 O   0  0  0  0  0  0  0  0  0  0  0  0
   -5.9623   10.4854   -7.7364 C   0  0  0  0  0  0  0  0  0  0  0  0
   -5.8532   11.7571   -7.1646 C   0  0  0  0  0  0  0  0  0  0  0  0
   -4.5945   12.3064   -6.9180 C   0  0  0  0  0  0  0  0  0  0  0  0
   -3.4446   11.5858   -7.2382 C   0  0  0  0  0  0  0  0  0  0  0  0
   -3.5555   10.3115   -7.8022 C   0  0  0  0  0  0  0  0  0  0  0  0
   -4.8126    9.7649   -8.0516 C   0  0  0  0  0  0  0  0  0  0  0  0
   -2.0930   12.1652   -6.9785 C   0  0  0  0  0  0  0  0  0  0  0  0
   -1.7427   13.4236   -6.4970 C   0  0  0  0  0  0  0  0  0  0  0  0
   -0.4061   13.4591   -6.4324 N   0  0  0  0  0  0  0  0  0  0  0  0
    0.1810   12.3567   -6.8070 N   0  0  0  0  0  0  0  0  0  0  0  0
   -0.8030   11.5520   -7.1701 C   0  0  0  0  0  0  0  0  0  0  0  0
    0.4260   14.5701   -5.9973 C   0  0  0  0  0  0  0  0  0  0  0  0
   -3.6444   15.0059  -11.3286 C   0  0  0  0  0  0  0  0  0  0  0  0
   -2.1848   14.8660  -11.7465 C   0  0  0  0  0  0  0  0  0  0  0  0
   -1.5251   13.6965  -11.2881 O   0  0  0  0  0  0  0  0  0  0  0  0
   -2.2131   12.5012  -11.6333 C   0  0  0  0  0  0  0  0  0  0  0  0
   -3.6517   12.4721  -11.0120 C   0  0  0  0  0  0  0  0  0  0  0  0
   -6.0438   12.2692   -9.8813 H   0  0  0  0  0  0  0  0  0  0  0  0
   -8.1720   10.1191  -13.9020 H   0  0  0  0  0  0  0  0  0  0  0  0
   -7.6642   12.5292  -13.5334 H   0  0  0  0  0  0  0  0  0  0  0  0
   -6.1745   11.5833  -13.8689 H   0  0  0  0  0  0  0  0  0  0  0  0
   -6.3150   10.0266  -10.7560 H   0  0  0  0  0  0  0  0  0  0  0  0
   -8.0379    9.5965   -7.2570 H   0  0  0  0  0  0  0  0  0  0  0  0
   -6.7437   12.3143   -6.9138 H   0  0  0  0  0  0  0  0  0  0  0  0
   -4.5109   13.2897   -6.4791 H   0  0  0  0  0  0  0  0  0  0  0  0
   -2.6655    9.7499   -8.0449 H   0  0  0  0  0  0  0  0  0  0  0  0
   -4.8957    8.7813   -8.4899 H   0  0  0  0  0  0  0  0  0  0  0  0
   -2.4205   14.2199   -6.2269 H   0  0  0  0  0  0  0  0  0  0  0  0
   -0.6578   10.5563   -7.5625 H   0  0  0  0  0  0  0  0  0  0  0  0
    1.4856   14.2813   -6.0588 H   0  0  0  0  0  0  0  0  0  0  0  0
    0.2449   15.4398   -6.6461 H   0  0  0  0  0  0  0  0  0  0  0  0
    0.1766   14.8298   -4.9579 H   0  0  0  0  0  0  0  0  0  0  0  0
   -4.1332   15.7546  -11.9693 H   0  0  0  0  0  0  0  0  0  0  0  0
   -3.6898   15.3350  -10.2800 H   0  0  0  0  0  0  0  0  0  0  0  0
   -2.1459   14.8676  -12.8458 H   0  0  0  0  0  0  0  0  0  0  0  0
   -1.6368   15.7375  -11.3590 H   0  0  0  0  0  0  0  0  0  0  0  0
   -2.2945   12.4382  -12.7285 H   0  0  0  0  0  0  0  0  0  0  0  0
   -1.6432   11.6386  -11.2578 H   0  0  0  0  0  0  0  0  0  0  0  0
   -3.5876   12.4537   -9.9140 H   0  0  0  0  0  0  0  0  0  0  0  0
   -4.1956   11.5825  -11.3625 H   0  0  0  0  0  0  0  0  0  0  0  0
  1  2  2  0  0  0  0
  1  4  1  0  0  0  0
  1 12  1  0  0  0  0
  2  6  1  0  0  0  0
  3  4  1  0  0  0  0
  3  5  2  0  0  0  0
  5  6  1  0  0  0  0
  5  9  1  0  0  0  0
  6  7  1  0  0  0  0
  7  8  1  0  0  0  0
  7 10  2  3  0  0  0
  8  9  2  0  0  0  0
 10 14  1  0  0  0  0
 11 12  1  0  0  0  0
 11 26  1  0  0  0  0
 11 30  1  0  0  0  0
 12 13  2  0  0  0  0
 14 15  2  0  0  0  0
 14 19  1  0  0  0  0
 15 16  1  0  0  0  0
 16 17  2  0  0  0  0
 17 18  1  0  0  0  0
 17 20  1  0  0  0  0
 18 19  2  0  0  0  0
 20 21  2  0  0  0  0
 20 24  1  0  0  0  0
 21 22  1  0  0  0  0
 22 23  1  0  0  0  0
 22 25  1  0  0  0  0
 23 24  2  0  0  0  0
 26 27  1  0  0  0  0
 27 28  1  0  0  0  0
 28 29  1  0  0  0  0
 29 30  1  0  0  0  0
  2 31  1  0  0  0  0
  3 32  1  0  0  0  0
  4 33  1  0  0  0  0
  4 34  1  0  0  0  0
  6 35  1  0  0  0  0
 10 36  1  0  0  0  0
 15 37  1  0  0  0  0
 16 38  1  0  0  0  0
 18 39  1  0  0  0  0
 19 40  1  0  0  0  0
 21 41  1  0  0  0  0
 24 42  1  0  0  0  0
 25 43  1  0  0  0  0
 25 44  1  0  0  0  0
 25 45  1  0  0  0  0
 26 46  1  0  0  0  0
 26 47  1  0  0  0  0
 27 48  1  0  0  0  0
 27 49  1  0  0  0  0
 29 50  1  0  0  0  0
 29 51  1  0  0  0  0
 30 52  1  0  0  0  0
 30 53  1  0  0  0  0
M  END
> <Name>
39

> <IC50[uM]>
0.004

$$$$
39
  -OEChem-05192314333D
 Structure written by MMmdl.
 53 57  0     0  0  0  0  0  0999 V2000
   -6.3502   12.3553  -12.0171 C   0  0  0  0  0  0  0  0  0  0  0  0
   -6.4935   11.7977  -10.7426 C   0  0  0  0  0  0  0  0  0  0  0  0
   -7.7106   10.5751  -13.0385 C   0  0  0  0  0  0  0  0  0  0  0  0
   -6.9725   11.7720  -13.1357 C   0  0  0  0  0  0  0  0  0  0  0  0
   -7.8130   10.0109  -11.7654 C   0  0  0  0  0  0  0  0  0  0  0  0
   -7.2309   10.6170  -10.6058 C   0  0  0  0  0  0  0  0  0  0  0  0
   -7.6111    9.7517   -9.5147 C   0  0  0  0  0  0  0  0  0  0  0  0
   -8.2865    8.7392   -9.9897 N   0  0  0  0  0  0  0  0  0  0  0  0
   -8.4152    8.8682  -11.3006 N   0  0  0  0  0  0  0  0  0  0  0  0
   -7.3373    9.8888   -8.0252 C   0  0  0  0  0  0  0  0  0  0  0  0
   -4.3541   13.7129  -11.4635 N   0  0  0  0  0  0  0  0  0  0  0  0
   -5.5361   13.6428  -12.1728 C   0  0  0  0  0  0  0  0  0  0  0  0
   -5.9526   14.5668  -12.8773 O   0  0  0  0  0  0  0  0  0  0  0  0
   -5.9623   10.4854   -7.7364 C   0  0  0  0  0  0  0  0  0  0  0  0
   -5.8532   11.7571   -7.1646 C   0  0  0  0  0  0  0  0  0  0  0  0
   -4.5945   12.3064   -6.9180 C   0  0  0  0  0  0  0  0  0  0  0  0
   -3.4446   11.5858   -7.2382 C   0  0  0  0  0  0  0  0  0  0  0  0
   -3.5555   10.3115   -7.8022 C   0  0  0  0  0  0  0  0  0  0  0  0
   -4.8126    9.7649   -8.0516 C   0  0  0  0  0  0  0  0  0  0  0  0
   -2.0930   12.1652   -6.9785 C   0  0  0  0  0  0  0  0  0  0  0  0
   -1.7427   13.4236   -6.4970 C   0  0  0  0  0  0  0  0  0  0  0  0
   -0.4061   13.4591   -6.4324 N   0  0  0  0  0  0  0  0  0  0  0  0
    0.1810   12.3567   -6.8070 N   0  0  0  0  0  0  0  0  0  0  0  0
   -0.8030   11.5520   -7.1701 C   0  0  0  0  0  0  0  0  0  0  0  0
    0.4260   14.5701   -5.9973 C   0  0  0  0  0  0  0  0  0  0  0  0
   -3.6444   15.0059  -11.3286 C   0  0  0  0  0  0  0  0  0  0  0  0
   -2.1848   14.8660  -11.7465 C   0  0  0  0  0  0  0  0  0  0  0  0
   -1.5251   13.6965  -11.2881 O   0  0  0  0  0  0  0  0  0  0  0  0
   -2.2131   12.5012  -11.6333 C   0  0  0  0  0  0  0  0  0  0  0  0
   -3.6517   12.4721  -11.0120 C   0  0  0  0  0  0  0  0  0  0  0  0
   -6.0438   12.2692   -9.8813 H   0  0  0  0  0  0  0  0  0  0  0  0
   -8.7302   10.7806  -13.3966 H   0  0  0  0  0  0  0  0  0  0  0  0
   -7.2336    9.8333  -13.6960 H   0  0  0  0  0  0  0  0  0  0  0  0
   -7.6642   12.5292  -13.5334 H   0  0  0  0  0  0  0  0  0  0  0  0
   -6.1745   11.5833  -13.8689 H   0  0  0  0  0  0  0  0  0  0  0  0
   -8.0379    9.5965   -7.2570 H   0  0  0  0  0  0  0  0  0  0  0  0
   -6.7437   12.3143   -6.9138 H   0  0  0  0  0  0  0  0  0  0  0  0
   -4.5109   13.2897   -6.4791 H   0  0  0  0  0  0  0  0  0  0  0  0
   -2.6655    9.7499   -8.0449 H   0  0  0  0  0  0  0  0  0  0  0  0
   -4.8957    8.7813   -8.4899 H   0  0  0  0  0  0  0  0  0  0  0  0
   -2.4205   14.2199   -6.2269 H   0  0  0  0  0  0  0  0  0  0  0  0
   -0.6578   10.5563   -7.5625 H   0  0  0  0  0  0  0  0  0  0  0  0
    1.4856   14.2813   -6.0588 H   0  0  0  0  0  0  0  0  0  0  0  0
    0.2449   15.4398   -6.6461 H   0  0  0  0  0  0  0  0  0  0  0  0
    0.1766   14.8298   -4.9579 H   0  0  0  0  0  0  0  0  0  0  0  0
   -4.1332   15.7546  -11.9693 H   0  0  0  0  0  0  0  0  0  0  0  0
   -3.6898   15.3350  -10.2800 H   0  0  0  0  0  0  0  0  0  0  0  0
   -2.1459   14.8676  -12.8458 H   0  0  0  0  0  0  0  0  0  0  0  0
   -1.6368   15.7375  -11.3590 H   0  0  0  0  0  0  0  0  0  0  0  0
   -2.2945   12.4382  -12.7285 H   0  0  0  0  0  0  0  0  0  0  0  0
   -1.6432   11.6386  -11.2578 H   0  0  0  0  0  0  0  0  0  0  0  0
   -3.5876   12.4537   -9.9140 H   0  0  0  0  0  0  0  0  0  0  0  0
   -4.1956   11.5825  -11.3625 H   0  0  0  0  0  0  0  0  0  0  0  0
  1  2  2  0  0  0  0
  1  4  1  0  0  0  0
  1 12  1  0  0  0  0
  2  6  1  0  0  0  0
  3  4  1  0  0  0  0
  3  5  1  0  0  0  0
  5  6  2  0  0  0  0
  5  9  1  0  0  0  0
  6  7  1  0  0  0  0
  7  8  1  0  0  0  0
  7 10  2  3  0  0  0
  8  9  2  0  0  0  0
 10 14  1  0  0  0  0
 11 12  1  0  0  0  0
 11 26  1  0  0  0  0
 11 30  1  0  0  0  0
 12 13  2  0  0  0  0
 14 15  2  0  0  0  0
 14 19  1  0  0  0  0
 15 16  1  0  0  0  0
 16 17  2  0  0  0  0
 17 18  1  0  0  0  0
 17 20  1  0  0  0  0
 18 19  2  0  0  0  0
 20 21  2  0  0  0  0
 20 24  1  0  0  0  0
 21 22  1  0  0  0  0
 22 23  1  0  0  0  0
 22 25  1  0  0  0  0
 23 24  2  0  0  0  0
 26 27  1  0  0  0  0
 27 28  1  0  0  0  0
 28 29  1  0  0  0  0
 29 30  1  0  0  0  0
  2 31  1  0  0  0  0
  3 32  1  0  0  0  0
  3 33  1  0  0  0  0
  4 34  1  0  0  0  0
  4 35  1  0  0  0  0
 10 36  1  0  0  0  0
 15 37  1  0  0  0  0
 16 38  1  0  0  0  0
 18 39  1  0  0  0  0
 19 40  1  0  0  0  0
 21 41  1  0  0  0  0
 24 42  1  0  0  0  0
 25 43  1  0  0  0  0
 25 44  1  0  0  0  0
 25 45  1  0  0  0  0
 26 46  1  0  0  0  0
 26 47  1  0  0  0  0
 27 48  1  0  0  0  0
 27 49  1  0  0  0  0
 29 50  1  0  0  0  0
 29 51  1  0  0  0  0
 30 52  1  0  0  0  0
 30 53  1  0  0  0  0
M  END
> <Name>
39

> <IC50[uM]>
0.004

$$$$
39
  -OEChem-05192314333D
 Structure written by MMmdl.
 53 57  0     1  0  0  0  0  0999 V2000
   -6.3502   12.3553  -12.0171 C   0  0  0  0  0  0  0  0  0  0  0  0
   -6.4935   11.7977  -10.7426 C   0  0  0  0  0  0  0  0  0  0  0  0
   -7.7106   10.5751  -13.0385 C   0  0  0  0  0  0  0  0  0  0  0  0
   -6.9725   11.7720  -13.1357 C   0  0  0  0  0  0  0  0  0  0  0  0
   -7.8130   10.0109  -11.7654 C   0  0  0  0  0  0  0  0  0  0  0  0
   -7.2309   10.6170  -10.6058 C   0  0  0  0  0  0  0  0  0  0  0  0
   -7.6111    9.7517   -9.5147 C   0  0  0  0  0  0  0  0  0  0  0  0
   -8.2865    8.7392   -9.9897 N   0  0  0  0  0  0  0  0  0  0  0  0
   -8.4152    8.8682  -11.3006 N   0  0  0  0  0  0  0  0  0  0  0  0
   -7.3373    9.8888   -8.0252 C   0  0  0  0  0  0  0  0  0  0  0  0
   -4.3541   13.7129  -11.4635 N   0  0  0  0  0  0  0  0  0  0  0  0
   -5.5361   13.6428  -12.1728 C   0  0  0  0  0  0  0  0  0  0  0  0
   -5.9526   14.5668  -12.8773 O   0  0  0  0  0  0  0  0  0  0  0  0
   -5.9623   10.4854   -7.7364 C   0  0  3  0  0  0  0  0  0  0  0  0
   -5.8532   11.7571   -7.1646 C   0  0  0  0  0  0  0  0  0  0  0  0
   -4.5945   12.3064   -6.9180 C   0  0  0  0  0  0  0  0  0  0  0  0
   -3.4446   11.5858   -7.2382 C   0  0  0  0  0  0  0  0  0  0  0  0
   -3.5555   10.3115   -7.8022 C   0  0  0  0  0  0  0  0  0  0  0  0
   -4.8126    9.7649   -8.0516 C   0  0  0  0  0  0  0  0  0  0  0  0
   -2.0930   12.1652   -6.9785 C   0  0  0  0  0  0  0  0  0  0  0  0
   -1.7427   13.4236   -6.4970 C   0  0  0  0  0  0  0  0  0  0  0  0
   -0.4061   13.4591   -6.4324 N   0  0  0  0  0  0  0  0  0  0  0  0
    0.1810   12.3567   -6.8070 N   0  0  0  0  0  0  0  0  0  0  0  0
   -0.8030   11.5520   -7.1701 C   0  0  0  0  0  0  0  0  0  0  0  0
    0.4260   14.5701   -5.9973 C   0  0  0  0  0  0  0  0  0  0  0  0
   -3.6444   15.0059  -11.3286 C   0  0  0  0  0  0  0  0  0  0  0  0
   -2.1848   14.8660  -11.7465 C   0  0  0  0  0  0  0  0  0  0  0  0
   -1.5251   13.6965  -11.2881 O   0  0  0  0  0  0  0  0  0  0  0  0
   -2.2131   12.5012  -11.6333 C   0  0  0  0  0  0  0  0  0  0  0  0
   -3.6517   12.4721  -11.0120 C   0  0  0  0  0  0  0  0  0  0  0  0
   -6.0438   12.2692   -9.8813 H   0  0  0  0  0  0  0  0  0  0  0  0
   -8.1720   10.1191  -13.9020 H   0  0  0  0  0  0  0  0  0  0  0  0
   -6.8821   12.2554  -14.0972 H   0  0  0  0  0  0  0  0  0  0  0  0
   -8.0379    9.5965   -7.2570 H   0  0  0  0  0  0  0  0  0  0  0  0
   -5.9740   10.0329   -6.7338 H   0  0  0  0  0  0  0  0  0  0  0  0
   -6.7437   12.3143   -6.9138 H   0  0  0  0  0  0  0  0  0  0  0  0
   -4.5109   13.2897   -6.4791 H   0  0  0  0  0  0  0  0  0  0  0  0
   -2.6655    9.7499   -8.0449 H   0  0  0  0  0  0  0  0  0  0  0  0
   -4.8654    8.8212   -7.4888 H   0  0  0  0  0  0  0  0  0  0  0  0
   -4.8575    9.5518   -9.1298 H   0  0  0  0  0  0  0  0  0  0  0  0
   -2.4205   14.2199   -6.2269 H   0  0  0  0  0  0  0  0  0  0  0  0
   -0.6578   10.5563   -7.5625 H   0  0  0  0  0  0  0  0  0  0  0  0
    1.4856   14.2813   -6.0588 H   0  0  0  0  0  0  0  0  0  0  0  0
    0.2449   15.4398   -6.6461 H   0  0  0  0  0  0  0  0  0  0  0  0
    0.1766   14.8298   -4.9579 H   0  0  0  0  0  0  0  0  0  0  0  0
   -4.1332   15.7546  -11.9693 H   0  0  0  0  0  0  0  0  0  0  0  0
   -3.6898   15.3350  -10.2800 H   0  0  0  0  0  0  0  0  0  0  0  0
   -2.1459   14.8676  -12.8458 H   0  0  0  0  0  0  0  0  0  0  0  0
   -1.6368   15.7375  -11.3590 H   0  0  0  0  0  0  0  0  0  0  0  0
   -2.2945   12.4382  -12.7285 H   0  0  0  0  0  0  0  0  0  0  0  0
   -1.6432   11.6386  -11.2578 H   0  0  0  0  0  0  0  0  0  0  0  0
   -3.5876   12.4537   -9.9140 H   0  0  0  0  0  0  0  0  0  0  0  0
   -4.1956   11.5825  -11.3625 H   0  0  0  0  0  0  0  0  0  0  0  0
  1  2  2  0  0  0  0
  1  4  1  0  0  0  0
  1 12  1  0  0  0  0
  2  6  1  0  0  0  0
  3  4  2  0  0  0  0
  3  5  1  0  0  0  0
  5  6  2  0  0  0  0
  5  9  1  0  0  0  0
  6  7  1  0  0  0  0
  7  8  1  0  0  0  0
  7 10  2  3  0  0  0
  8  9  2  0  0  0  0
 10 14  1  0  0  0  0
 11 12  1  0  0  0  0
 11 26  1  0  0  0  0
 11 30  1  0  0  0  0
 12 13  2  0  0  0  0
 14 15  1  0  0  0  0
 14 19  1  0  0  0  0
 15 16  2  0  0  0  0
 16 17  1  0  0  0  0
 17 18  2  0  0  0  0
 17 20  1  0  0  0  0
 18 19  1  0  0  0  0
 20 21  2  0  0  0  0
 20 24  1  0  0  0  0
 21 22  1  0  0  0  0
 22 23  1  0  0  0  0
 22 25  1  0  0  0  0
 23 24  2  0  0  0  0
 26 27  1  0  0  0  0
 27 28  1  0  0  0  0
 28 29  1  0  0  0  0
 29 30  1  0  0  0  0
  2 31  1  0  0  0  0
  3 32  1  0  0  0  0
  4 33  1  0  0  0  0
 10 34  1  0  0  0  0
 14 35  1  0  0  0  0
 15 36  1  0  0  0  0
 16 37  1  0  0  0  0
 18 38  1  0  0  0  0
 19 39  1  0  0  0  0
 19 40  1  0  0  0  0
 21 41  1  0  0  0  0
 24 42  1  0  0  0  0
 25 43  1  0  0  0  0
 25 44  1  0  0  0  0
 25 45  1  0  0  0  0
 26 46  1  0  0  0  0
 26 47  1  0  0  0  0
 27 48  1  0  0  0  0
 27 49  1  0  0  0  0
 29 50  1  0  0  0  0
 29 51  1  0  0  0  0
 30 52  1  0  0  0  0
 30 53  1  0  0  0  0
M  END
> <Name>
39

> <IC50[uM]>
0.004

$$$$
39
  -OEChem-05192314333D
 Structure written by MMmdl.
 53 57  0     1  0  0  0  0  0999 V2000
   -6.3502   12.3553  -12.0171 C   0  0  0  0  0  0  0  0  0  0  0  0
   -6.4935   11.7977  -10.7426 C   0  0  0  0  0  0  0  0  0  0  0  0
   -7.7106   10.5751  -13.0385 C   0  0  0  0  0  0  0  0  0  0  0  0
   -6.9725   11.7720  -13.1357 C   0  0  0  0  0  0  0  0  0  0  0  0
   -7.8130   10.0109  -11.7654 C   0  0  0  0  0  0  0  0  0  0  0  0
   -7.2309   10.6170  -10.6058 C   0  0  0  0  0  0  0  0  0  0  0  0
   -7.6111    9.7517   -9.5147 C   0  0  3  0  0  0  0  0  0  0  0  0
   -8.2865    8.7392   -9.9897 N   0  0  0  0  0  0  0  0  0  0  0  0
   -8.4152    8.8682  -11.3006 N   0  0  0  0  0  0  0  0  0  0  0  0
   -7.3373    9.8888   -8.0252 C   0  0  0  0  0  0  0  0  0  0  0  0
   -4.3541   13.7129  -11.4635 N   0  0  0  0  0  0  0  0  0  0  0  0
   -5.5361   13.6428  -12.1728 C   0  0  0  0  0  0  0  0  0  0  0  0
   -5.9526   14.5668  -12.8773 O   0  0  0  0  0  0  0  0  0  0  0  0
   -5.9623   10.4854   -7.7364 C   0  0  0  0  0  0  0  0  0  0  0  0
   -5.8532   11.7571   -7.1646 C   0  0  0  0  0  0  0  0  0  0  0  0
   -4.5945   12.3064   -6.9180 C   0  0  0  0  0  0  0  0  0  0  0  0
   -3.4446   11.5858   -7.2382 C   0  0  0  0  0  0  0  0  0  0  0  0
   -3.5555   10.3115   -7.8022 C   0  0  0  0  0  0  0  0  0  0  0  0
   -4.8126    9.7649   -8.0516 C   0  0  0  0  0  0  0  0  0  0  0  0
   -2.0930   12.1652   -6.9785 C   0  0  0  0  0  0  0  0  0  0  0  0
   -1.7427   13.4236   -6.4970 C   0  0  0  0  0  0  0  0  0  0  0  0
   -0.4061   13.4591   -6.4324 N   0  0  0  0  0  0  0  0  0  0  0  0
    0.1810   12.3567   -6.8070 N   0  0  0  0  0  0  0  0  0  0  0  0
   -0.8030   11.5520   -7.1701 C   0  0  0  0  0  0  0  0  0  0  0  0
    0.4260   14.5701   -5.9973 C   0  0  0  0  0  0  0  0  0  0  0  0
   -3.6444   15.0059  -11.3286 C   0  0  0  0  0  0  0  0  0  0  0  0
   -2.1848   14.8660  -11.7465 C   0  0  0  0  0  0  0  0  0  0  0  0
   -1.5251   13.6965  -11.2881 O   0  0  0  0  0  0  0  0  0  0  0  0
   -2.2131   12.5012  -11.6333 C   0  0  0  0  0  0  0  0  0  0  0  0
   -3.6517   12.4721  -11.0120 C   0  0  0  0  0  0  0  0  0  0  0  0
   -6.0438   12.2692   -9.8813 H   0  0  0  0  0  0  0  0  0  0  0  0
   -8.1720   10.1191  -13.9020 H   0  0  0  0  0  0  0  0  0  0  0  0
   -6.8821   12.2554  -14.0972 H   0  0  0  0  0  0  0  0  0  0  0  0
   -6.6755    9.1860   -9.6357 H   0  0  0  0  0  0  0  0  0  0  0  0
   -8.0379    9.5965   -7.2570 H   0  0  0  0  0  0  0  0  0  0  0  0
   -6.7437   12.3143   -6.9138 H   0  0  0  0  0  0  0  0  0  0  0  0
   -4.5109   13.2897   -6.4791 H   0  0  0  0  0  0  0  0  0  0  0  0
   -2.6655    9.7499   -8.0449 H   0  0  0  0  0  0  0  0  0  0  0  0
   -4.8654    8.8212   -7.4888 H   0  0  0  0  0  0  0  0  0  0  0  0
   -4.8575    9.5518   -9.1298 H   0  0  0  0  0  0  0  0  0  0  0  0
   -2.4205   14.2199   -6.2269 H   0  0  0  0  0  0  0  0  0  0  0  0
   -0.6578   10.5563   -7.5625 H   0  0  0  0  0  0  0  0  0  0  0  0
    1.4856   14.2813   -6.0588 H   0  0  0  0  0  0  0  0  0  0  0  0
    0.2449   15.4398   -6.6461 H   0  0  0  0  0  0  0  0  0  0  0  0
    0.1766   14.8298   -4.9579 H   0  0  0  0  0  0  0  0  0  0  0  0
   -4.1332   15.7546  -11.9693 H   0  0  0  0  0  0  0  0  0  0  0  0
   -3.6898   15.3350  -10.2800 H   0  0  0  0  0  0  0  0  0  0  0  0
   -2.1459   14.8676  -12.8458 H   0  0  0  0  0  0  0  0  0  0  0  0
   -1.6368   15.7375  -11.3590 H   0  0  0  0  0  0  0  0  0  0  0  0
   -2.2945   12.4382  -12.7285 H   0  0  0  0  0  0  0  0  0  0  0  0
   -1.6432   11.6386  -11.2578 H   0  0  0  0  0  0  0  0  0  0  0  0
   -3.5876   12.4537   -9.9140 H   0  0  0  0  0  0  0  0  0  0  0  0
   -4.1956   11.5825  -11.3625 H   0  0  0  0  0  0  0  0  0  0  0  0
  1  2  2  0  0  0  0
  1  4  1  0  0  0  0
  1 12  1  0  0  0  0
  2  6  1  0  0  0  0
  3  4  2  0  0  0  0
  3  5  1  0  0  0  0
  5  6  2  0  0  0  0
  5  9  1  0  0  0  0
  6  7  1  0  0  0  0
  7  8  1  0  0  0  0
  7 10  1  0  0  0  0
  8  9  2  0  0  0  0
 10 14  2  3  0  0  0
 11 12  1  0  0  0  0
 11 26  1  0  0  0  0
 11 30  1  0  0  0  0
 12 13  2  0  0  0  0
 14 15  1  0  0  0  0
 14 19  1  0  0  0  0
 15 16  2  0  0  0  0
 16 17  1  0  0  0  0
 17 18  2  0  0  0  0
 17 20  1  0  0  0  0
 18 19  1  0  0  0  0
 20 21  2  0  0  0  0
 20 24  1  0  0  0  0
 21 22  1  0  0  0  0
 22 23  1  0  0  0  0
 22 25  1  0  0  0  0
 23 24  2  0  0  0  0
 26 27  1  0  0  0  0
 27 28  1  0  0  0  0
 28 29  1  0  0  0  0
 29 30  1  0  0  0  0
  2 31  1  0  0  0  0
  3 32  1  0  0  0  0
  4 33  1  0  0  0  0
  7 34  1  0  0  0  0
 10 35  1  0  0  0  0
 15 36  1  0  0  0  0
 16 37  1  0  0  0  0
 18 38  1  0  0  0  0
 19 39  1  0  0  0  0
 19 40  1  0  0  0  0
 21 41  1  0  0  0  0
 24 42  1  0  0  0  0
 25 43  1  0  0  0  0
 25 44  1  0  0  0  0
 25 45  1  0  0  0  0
 26 46  1  0  0  0  0
 26 47  1  0  0  0  0
 27 48  1  0  0  0  0
 27 49  1  0  0  0  0
 29 50  1  0  0  0  0
 29 51  1  0  0  0  0
 30 52  1  0  0  0  0
 30 53  1  0  0  0  0
M  END
> <Name>
39

> <IC50[uM]>
0.004

$$$$
39
  -OEChem-05192314333D
 Structure written by MMmdl.
 53 57  0     0  0  0  0  0  0999 V2000
   -6.3502   12.3553  -12.0171 C   0  0  0  0  0  0  0  0  0  0  0  0
   -6.4935   11.7977  -10.7426 C   0  0  0  0  0  0  0  0  0  0  0  0
   -7.7106   10.5751  -13.0385 C   0  0  0  0  0  0  0  0  0  0  0  0
   -6.9725   11.7720  -13.1357 C   0  0  0  0  0  0  0  0  0  0  0  0
   -7.8130   10.0109  -11.7654 C   0  0  0  0  0  0  0  0  0  0  0  0
   -7.2309   10.6170  -10.6058 C   0  0  0  0  0  0  0  0  0  0  0  0
   -7.6111    9.7517   -9.5147 C   0  0  0  0  0  0  0  0  0  0  0  0
   -8.2865    8.7392   -9.9897 N   0  0  0  0  0  0  0  0  0  0  0  0
   -8.4152    8.8682  -11.3006 N   0  0  0  0  0  0  0  0  0  0  0  0
   -7.3373    9.8888   -8.0252 C   0  0  0  0  0  0  0  0  0  0  0  0
   -4.3541   13.7129  -11.4635 N   0  0  0  0  0  0  0  0  0  0  0  0
   -5.5361   13.6428  -12.1728 C   0  0  0  0  0  0  0  0  0  0  0  0
   -5.9526   14.5668  -12.8773 O   0  0  0  0  0  0  0  0  0  0  0  0
   -5.9623   10.4854   -7.7364 C   0  0  0  0  0  0  0  0  0  0  0  0
   -5.8532   11.7571   -7.1646 C   0  0  0  0  0  0  0  0  0  0  0  0
   -4.5945   12.3064   -6.9180 C   0  0  0  0  0  0  0  0  0  0  0  0
   -3.4446   11.5858   -7.2382 C   0  0  0  0  0  0  0  0  0  0  0  0
   -3.5555   10.3115   -7.8022 C   0  0  0  0  0  0  0  0  0  0  0  0
   -4.8126    9.7649   -8.0516 C   0  0  0  0  0  0  0  0  0  0  0  0
   -2.0930   12.1652   -6.9785 C   0  0  0  0  0  0  0  0  0  0  0  0
   -1.7427   13.4236   -6.4970 C   0  0  0  0  0  0  0  0  0  0  0  0
   -0.4061   13.4591   -6.4324 N   0  0  0  0  0  0  0  0  0  0  0  0
    0.1810   12.3567   -6.8070 N   0  0  0  0  0  0  0  0  0  0  0  0
   -0.8030   11.5520   -7.1701 C   0  0  0  0  0  0  0  0  0  0  0  0
    0.4260   14.5701   -5.9973 C   0  0  0  0  0  0  0  0  0  0  0  0
   -3.6444   15.0059  -11.3286 C   0  0  0  0  0  0  0  0  0  0  0  0
   -2.1848   14.8660  -11.7465 C   0  0  0  0  0  0  0  0  0  0  0  0
   -1.5251   13.6965  -11.2881 O   0  0  0  0  0  0  0  0  0  0  0  0
   -2.2131   12.5012  -11.6333 C   0  0  0  0  0  0  0  0  0  0  0  0
   -3.6517   12.4721  -11.0120 C   0  0  0  0  0  0  0  0  0  0  0  0
   -6.0438   12.2692   -9.8813 H   0  0  0  0  0  0  0  0  0  0  0  0
   -8.1720   10.1191  -13.9020 H   0  0  0  0  0  0  0  0  0  0  0  0
   -6.8821   12.2554  -14.0972 H   0  0  0  0  0  0  0  0  0  0  0  0
   -8.0379    9.5965   -7.2570 H   0  0  0  0  0  0  0  0  0  0  0  0
   -6.7437   12.3143   -6.9138 H   0  0  0  0  0  0  0  0  0  0  0  0
   -4.5444   13.2506   -7.4801 H   0  0  0  0  0  0  0  0  0  0  0  0
   -4.5463   12.5186   -5.8397 H   0  0  0  0  0  0  0  0  0  0  0  0
   -2.6655    9.7499   -8.0449 H   0  0  0  0  0  0  0  0  0  0  0  0
   -4.8654    8.8212   -7.4888 H   0  0  0  0  0  0  0  0  0  0  0  0
   -4.8575    9.5518   -9.1298 H   0  0  0  0  0  0  0  0  0  0  0  0
   -2.4205   14.2199   -6.2269 H   0  0  0  0  0  0  0  0  0  0  0  0
   -0.6578   10.5563   -7.5625 H   0  0  0  0  0  0  0  0  0  0  0  0
    1.4856   14.2813   -6.0588 H   0  0  0  0  0  0  0  0  0  0  0  0
    0.2449   15.4398   -6.6461 H   0  0  0  0  0  0  0  0  0  0  0  0
    0.1766   14.8298   -4.9579 H   0  0  0  0  0  0  0  0  0  0  0  0
   -4.1332   15.7546  -11.9693 H   0  0  0  0  0  0  0  0  0  0  0  0
   -3.6898   15.3350  -10.2800 H   0  0  0  0  0  0  0  0  0  0  0  0
   -2.1459   14.8676  -12.8458 H   0  0  0  0  0  0  0  0  0  0  0  0
   -1.6368   15.7375  -11.3590 H   0  0  0  0  0  0  0  0  0  0  0  0
   -2.2945   12.4382  -12.7285 H   0  0  0  0  0  0  0  0  0  0  0  0
   -1.6432   11.6386  -11.2578 H   0  0  0  0  0  0  0  0  0  0  0  0
   -3.5876   12.4537   -9.9140 H   0  0  0  0  0  0  0  0  0  0  0  0
   -4.1956   11.5825  -11.3625 H   0  0  0  0  0  0  0  0  0  0  0  0
  1  2  2  0  0  0  0
  1  4  1  0  0  0  0
  1 12  1  0  0  0  0
  2  6  1  0  0  0  0
  3  4  2  0  0  0  0
  3  5  1  0  0  0  0
  5  6  2  0  0  0  0
  5  9  1  0  0  0  0
  6  7  1  0  0  0  0
  7  8  1  0  0  0  0
  7 10  2  3  0  0  0
  8  9  2  0  0  0  0
 10 14  1  0  0  0  0
 11 12  1  0  0  0  0
 11 26  1  0  0  0  0
 11 30  1  0  0  0  0
 12 13  2  0  0  0  0
 14 15  2  0  0  0  0
 14 19  1  0  0  0  0
 15 16  1  0  0  0  0
 16 17  1  0  0  0  0
 17 18  2  0  0  0  0
 17 20  1  0  0  0  0
 18 19  1  0  0  0  0
 20 21  2  0  0  0  0
 20 24  1  0  0  0  0
 21 22  1  0  0  0  0
 22 23  1  0  0  0  0
 22 25  1  0  0  0  0
 23 24  2  0  0  0  0
 26 27  1  0  0  0  0
 27 28  1  0  0  0  0
 28 29  1  0  0  0  0
 29 30  1  0  0  0  0
  2 31  1  0  0  0  0
  3 32  1  0  0  0  0
  4 33  1  0  0  0  0
 10 34  1  0  0  0  0
 15 35  1  0  0  0  0
 16 36  1  0  0  0  0
 16 37  1  0  0  0  0
 18 38  1  0  0  0  0
 19 39  1  0  0  0  0
 19 40  1  0  0  0  0
 21 41  1  0  0  0  0
 24 42  1  0  0  0  0
 25 43  1  0  0  0  0
 25 44  1  0  0  0  0
 25 45  1  0  0  0  0
 26 46  1  0  0  0  0
 26 47  1  0  0  0  0
 27 48  1  0  0  0  0
 27 49  1  0  0  0  0
 29 50  1  0  0  0  0
 29 51  1  0  0  0  0
 30 52  1  0  0  0  0
 30 53  1  0  0  0  0
M  END
> <Name>
39

> <IC50[uM]>
0.004

$$$$
39
  -OEChem-05192314333D
 Structure written by MMmdl.
 53 57  0     0  0  0  0  0  0999 V2000
   -6.3502   12.3553  -12.0171 C   0  0  0  0  0  0  0  0  0  0  0  0
   -6.4935   11.7977  -10.7426 C   0  0  0  0  0  0  0  0  0  0  0  0
   -7.7106   10.5751  -13.0385 C   0  0  0  0  0  0  0  0  0  0  0  0
   -6.9725   11.7720  -13.1357 C   0  0  0  0  0  0  0  0  0  0  0  0
   -7.8130   10.0109  -11.7654 C   0  0  0  0  0  0  0  0  0  0  0  0
   -7.2309   10.6170  -10.6058 C   0  0  0  0  0  0  0  0  0  0  0  0
   -7.6111    9.7517   -9.5147 C   0  0  0  0  0  0  0  0  0  0  0  0
   -8.2865    8.7392   -9.9897 N   0  0  0  0  0  0  0  0  0  0  0  0
   -8.4152    8.8682  -11.3006 N   0  0  0  0  0  0  0  0  0  0  0  0
   -7.3373    9.8888   -8.0252 C   0  0  0  0  0  0  0  0  0  0  0  0
   -4.3541   13.7129  -11.4635 N   0  0  0  0  0  0  0  0  0  0  0  0
   -5.5361   13.6428  -12.1728 C   0  0  0  0  0  0  0  0  0  0  0  0
   -5.9526   14.5668  -12.8773 O   0  0  0  0  0  0  0  0  0  0  0  0
   -5.9623   10.4854   -7.7364 C   0  0  0  0  0  0  0  0  0  0  0  0
   -5.8532   11.7571   -7.1646 C   0  0  0  0  0  0  0  0  0  0  0  0
   -4.5945   12.3064   -6.9180 C   0  0  0  0  0  0  0  0  0  0  0  0
   -3.4446   11.5858   -7.2382 C   0  0  0  0  0  0  0  0  0  0  0  0
   -3.5555   10.3115   -7.8022 C   0  0  0  0  0  0  0  0  0  0  0  0
   -4.8126    9.7649   -8.0516 C   0  0  0  0  0  0  0  0  0  0  0  0
   -2.0930   12.1652   -6.9785 C   0  0  0  0  0  0  0  0  0  0  0  0
   -1.7427   13.4236   -6.4970 C   0  0  0  0  0  0  0  0  0  0  0  0
   -0.4061   13.4591   -6.4324 N   0  0  0  0  0  0  0  0  0  0  0  0
    0.1810   12.3567   -6.8070 N   0  0  0  0  0  0  0  0  0  0  0  0
   -0.8030   11.5520   -7.1701 C   0  0  0  0  0  0  0  0  0  0  0  0
    0.4260   14.5701   -5.9973 C   0  0  0  0  0  0  0  0  0  0  0  0
   -3.6444   15.0059  -11.3286 C   0  0  0  0  0  0  0  0  0  0  0  0
   -2.1848   14.8660  -11.7465 C   0  0  0  0  0  0  0  0  0  0  0  0
   -1.5251   13.6965  -11.2881 O   0  0  0  0  0  0  0  0  0  0  0  0
   -2.2131   12.5012  -11.6333 C   0  0  0  0  0  0  0  0  0  0  0  0
   -3.6517   12.4721  -11.0120 C   0  0  0  0  0  0  0  0  0  0  0  0
   -6.0438   12.2692   -9.8813 H   0  0  0  0  0  0  0  0  0  0  0  0
   -8.1720   10.1191  -13.9020 H   0  0  0  0  0  0  0  0  0  0  0  0
   -6.8821   12.2554  -14.0972 H   0  0  0  0  0  0  0  0  0  0  0  0
   -8.0379    9.5965   -7.2570 H   0  0  0  0  0  0  0  0  0  0  0  0
   -6.7437   12.3143   -6.9138 H   0  0  0  0  0  0  0  0  0  0  0  0
   -4.5109   13.2897   -6.4791 H   0  0  0  0  0  0  0  0  0  0  0  0
   -3.0271   10.3444   -8.7664 H   0  0  0  0  0  0  0  0  0  0  0  0
   -3.0372    9.6181   -7.1235 H   0  0  0  0  0  0  0  0  0  0  0  0
   -4.8654    8.8212   -7.4888 H   0  0  0  0  0  0  0  0  0  0  0  0
   -4.8575    9.5518   -9.1298 H   0  0  0  0  0  0  0  0  0  0  0  0
   -2.4205   14.2199   -6.2269 H   0  0  0  0  0  0  0  0  0  0  0  0
   -0.6578   10.5563   -7.5625 H   0  0  0  0  0  0  0  0  0  0  0  0
    1.4856   14.2813   -6.0588 H   0  0  0  0  0  0  0  0  0  0  0  0
    0.2449   15.4398   -6.6461 H   0  0  0  0  0  0  0  0  0  0  0  0
    0.1766   14.8298   -4.9579 H   0  0  0  0  0  0  0  0  0  0  0  0
   -4.1332   15.7546  -11.9693 H   0  0  0  0  0  0  0  0  0  0  0  0
   -3.6898   15.3350  -10.2800 H   0  0  0  0  0  0  0  0  0  0  0  0
   -2.1459   14.8676  -12.8458 H   0  0  0  0  0  0  0  0  0  0  0  0
   -1.6368   15.7375  -11.3590 H   0  0  0  0  0  0  0  0  0  0  0  0
   -2.2945   12.4382  -12.7285 H   0  0  0  0  0  0  0  0  0  0  0  0
   -1.6432   11.6386  -11.2578 H   0  0  0  0  0  0  0  0  0  0  0  0
   -3.5876   12.4537   -9.9140 H   0  0  0  0  0  0  0  0  0  0  0  0
   -4.1956   11.5825  -11.3625 H   0  0  0  0  0  0  0  0  0  0  0  0
  1  2  2  0  0  0  0
  1  4  1  0  0  0  0
  1 12  1  0  0  0  0
  2  6  1  0  0  0  0
  3  4  2  0  0  0  0
  3  5  1  0  0  0  0
  5  6  2  0  0  0  0
  5  9  1  0  0  0  0
  6  7  1  0  0  0  0
  7  8  1  0  0  0  0
  7 10  2  3  0  0  0
  8  9  2  0  0  0  0
 10 14  1  0  0  0  0
 11 12  1  0  0  0  0
 11 26  1  0  0  0  0
 11 30  1  0  0  0  0
 12 13  2  0  0  0  0
 14 15  2  0  0  0  0
 14 19  1  0  0  0  0
 15 16  1  0  0  0  0
 16 17  2  0  0  0  0
 17 18  1  0  0  0  0
 17 20  1  0  0  0  0
 18 19  1  0  0  0  0
 20 21  2  0  0  0  0
 20 24  1  0  0  0  0
 21 22  1  0  0  0  0
 22 23  1  0  0  0  0
 22 25  1  0  0  0  0
 23 24  2  0  0  0  0
 26 27  1  0  0  0  0
 27 28  1  0  0  0  0
 28 29  1  0  0  0  0
 29 30  1  0  0  0  0
  2 31  1  0  0  0  0
  3 32  1  0  0  0  0
  4 33  1  0  0  0  0
 10 34  1  0  0  0  0
 15 35  1  0  0  0  0
 16 36  1  0  0  0  0
 18 37  1  0  0  0  0
 18 38  1  0  0  0  0
 19 39  1  0  0  0  0
 19 40  1  0  0  0  0
 21 41  1  0  0  0  0
 24 42  1  0  0  0  0
 25 43  1  0  0  0  0
 25 44  1  0  0  0  0
 25 45  1  0  0  0  0
 26 46  1  0  0  0  0
 26 47  1  0  0  0  0
 27 48  1  0  0  0  0
 27 49  1  0  0  0  0
 29 50  1  0  0  0  0
 29 51  1  0  0  0  0
 30 52  1  0  0  0  0
 30 53  1  0  0  0  0
M  END
> <Name>
39

> <IC50[uM]>
0.004

$$$$
39
  -OEChem-05192314333D
 Structure written by MMmdl.
 53 57  0     1  0  0  0  0  0999 V2000
   -6.3502   12.3553  -12.0171 C   0  0  3  0  0  0  0  0  0  0  0  0
   -6.4935   11.7977  -10.7426 C   0  0  0  0  0  0  0  0  0  0  0  0
   -7.7106   10.5751  -13.0385 C   0  0  0  0  0  0  0  0  0  0  0  0
   -6.9725   11.7720  -13.1357 C   0  0  0  0  0  0  0  0  0  0  0  0
   -7.8130   10.0109  -11.7654 C   0  0  0  0  0  0  0  0  0  0  0  0
   -7.2309   10.6170  -10.6058 C   0  0  0  0  0  0  0  0  0  0  0  0
   -7.6111    9.7517   -9.5147 C   0  0  0  0  0  0  0  0  0  0  0  0
   -8.2865    8.7392   -9.9897 N   0  0  0  0  0  0  0  0  0  0  0  0
   -8.4152    8.8682  -11.3006 N   0  0  0  0  0  0  0  0  0  0  0  0
   -7.3373    9.8888   -8.0252 C   0  0  0  0  0  0  0  0  0  0  0  0
   -4.3541   13.7129  -11.4635 N   0  0  0  0  0  0  0  0  0  0  0  0
   -5.5361   13.6428  -12.1728 C   0  0  0  0  0  0  0  0  0  0  0  0
   -5.9526   14.5668  -12.8773 O   0  0  0  0  0  0  0  0  0  0  0  0
   -5.9623   10.4854   -7.7364 C   0  0  0  0  0  0  0  0  0  0  0  0
   -5.8532   11.7571   -7.1646 C   0  0  0  0  0  0  0  0  0  0  0  0
   -4.5945   12.3064   -6.9180 C   0  0  0  0  0  0  0  0  0  0  0  0
   -3.4446   11.5858   -7.2382 C   0  0  0  0  0  0  0  0  0  0  0  0
   -3.5555   10.3115   -7.8022 C   0  0  0  0  0  0  0  0  0  0  0  0
   -4.8126    9.7649   -8.0516 C   0  0  0  0  0  0  0  0  0  0  0  0
   -2.0930   12.1652   -6.9785 C   0  0  0  0  0  0  0  0  0  0  0  0
   -1.7427   13.4236   -6.4970 C   0  0  0  0  0  0  0  0  0  0  0  0
   -0.4061   13.4591   -6.4324 N   0  0  0  0  0  0  0  0  0  0  0  0
    0.1810   12.3567   -6.8070 N   0  0  0  0  0  0  0  0  0  0  0  0
   -0.8030   11.5520   -7.1701 C   0  0  0  0  0  0  0  0  0  0  0  0
    0.4260   14.5701   -5.9973 C   0  0  0  0  0  0  0  0  0  0  0  0
   -3.6444   15.0059  -11.3286 C   0  0  0  0  0  0  0  0  0  0  0  0
   -2.1848   14.8660  -11.7465 C   0  0  0  0  0  0  0  0  0  0  0  0
   -1.5251   13.6965  -11.2881 O   0  0  0  0  0  0  0  0  0  0  0  0
   -2.2131   12.5012  -11.6333 C   0  0  0  0  0  0  0  0  0  0  0  0
   -3.6517   12.4721  -11.0120 C   0  0  0  0  0  0  0  0  0  0  0  0
   -5.4473   11.7517  -12.1914 H   0  0  0  0  0  0  0  0  0  0  0  0
   -5.4816   11.5935  -10.3627 H   0  0  0  0  0  0  0  0  0  0  0  0
   -6.9766   12.5565  -10.1095 H   0  0  0  0  0  0  0  0  0  0  0  0
   -8.1720   10.1191  -13.9020 H   0  0  0  0  0  0  0  0  0  0  0  0
   -6.8821   12.2554  -14.0972 H   0  0  0  0  0  0  0  0  0  0  0  0
   -8.0379    9.5965   -7.2570 H   0  0  0  0  0  0  0  0  0  0  0  0
   -6.7437   12.3143   -6.9138 H   0  0  0  0  0  0  0  0  0  0  0  0
   -4.5109   13.2897   -6.4791 H   0  0  0  0  0  0  0  0  0  0  0  0
   -2.6655    9.7499   -8.0449 H   0  0  0  0  0  0  0  0  0  0  0  0
   -4.8957    8.7813   -8.4899 H   0  0  0  0  0  0  0  0  0  0  0  0
   -2.4205   14.2199   -6.2269 H   0  0  0  0  0  0  0  0  0  0  0  0
   -0.6578   10.5563   -7.5625 H   0  0  0  0  0  0  0  0  0  0  0  0
    1.4856   14.2813   -6.0588 H   0  0  0  0  0  0  0  0  0  0  0  0
    0.2449   15.4398   -6.6461 H   0  0  0  0  0  0  0  0  0  0  0  0
    0.1766   14.8298   -4.9579 H   0  0  0  0  0  0  0  0  0  0  0  0
   -4.1332   15.7546  -11.9693 H   0  0  0  0  0  0  0  0  0  0  0  0
   -3.6898   15.3350  -10.2800 H   0  0  0  0  0  0  0  0  0  0  0  0
   -2.1459   14.8676  -12.8458 H   0  0  0  0  0  0  0  0  0  0  0  0
   -1.6368   15.7375  -11.3590 H   0  0  0  0  0  0  0  0  0  0  0  0
   -2.2945   12.4382  -12.7285 H   0  0  0  0  0  0  0  0  0  0  0  0
   -1.6432   11.6386  -11.2578 H   0  0  0  0  0  0  0  0  0  0  0  0
   -3.5876   12.4537   -9.9140 H   0  0  0  0  0  0  0  0  0  0  0  0
   -4.1956   11.5825  -11.3625 H   0  0  0  0  0  0  0  0  0  0  0  0
  1  2  1  0  0  0  0
  1  4  1  0  0  0  0
  1 12  1  0  0  0  0
  2  6  1  0  0  0  0
  3  4  2  0  0  0  0
  3  5  1  0  0  0  0
  5  6  2  0  0  0  0
  5  9  1  0  0  0  0
  6  7  1  0  0  0  0
  7  8  1  0  0  0  0
  7 10  2  3  0  0  0
  8  9  2  0  0  0  0
 10 14  1  0  0  0  0
 11 12  1  0  0  0  0
 11 26  1  0  0  0  0
 11 30  1  0  0  0  0
 12 13  2  0  0  0  0
 14 15  2  0  0  0  0
 14 19  1  0  0  0  0
 15 16  1  0  0  0  0
 16 17  2  0  0  0  0
 17 18  1  0  0  0  0
 17 20  1  0  0  0  0
 18 19  2  0  0  0  0
 20 21  2  0  0  0  0
 20 24  1  0  0  0  0
 21 22  1  0  0  0  0
 22 23  1  0  0  0  0
 22 25  1  0  0  0  0
 23 24  2  0  0  0  0
 26 27  1  0  0  0  0
 27 28  1  0  0  0  0
 28 29  1  0  0  0  0
 29 30  1  0  0  0  0
  1 31  1  0  0  0  0
  2 32  1  0  0  0  0
  2 33  1  0  0  0  0
  3 34  1  0  0  0  0
  4 35  1  0  0  0  0
 10 36  1  0  0  0  0
 15 37  1  0  0  0  0
 16 38  1  0  0  0  0
 18 39  1  0  0  0  0
 19 40  1  0  0  0  0
 21 41  1  0  0  0  0
 24 42  1  0  0  0  0
 25 43  1  0  0  0  0
 25 44  1  0  0  0  0
 25 45  1  0  0  0  0
 26 46  1  0  0  0  0
 26 47  1  0  0  0  0
 27 48  1  0  0  0  0
 27 49  1  0  0  0  0
 29 50  1  0  0  0  0
 29 51  1  0  0  0  0
 30 52  1  0  0  0  0
 30 53  1  0  0  0  0
M  END
> <Name>
39

> <IC50[uM]>
0.004

$$$$
39
  -OEChem-05192314333D
 Structure written by MMmdl.
 53 57  0     1  0  0  0  0  0999 V2000
   -6.3502   12.3553  -12.0171 C   0  0  0  0  0  0  0  0  0  0  0  0
   -6.4935   11.7977  -10.7426 C   0  0  0  0  0  0  0  0  0  0  0  0
   -7.7106   10.5751  -13.0385 C   0  0  0  0  0  0  0  0  0  0  0  0
   -6.9725   11.7720  -13.1357 C   0  0  0  0  0  0  0  0  0  0  0  0
   -7.8130   10.0109  -11.7654 C   0  0  0  0  0  0  0  0  0  0  0  0
   -7.2309   10.6170  -10.6058 C   0  0  3  0  0  0  0  0  0  0  0  0
   -7.6111    9.7517   -9.5147 C   0  0  0  0  0  0  0  0  0  0  0  0
   -8.2865    8.7392   -9.9897 N   0  0  0  0  0  0  0  0  0  0  0  0
   -8.4152    8.8682  -11.3006 N   0  0  0  0  0  0  0  0  0  0  0  0
   -7.3373    9.8888   -8.0252 C   0  0  0  0  0  0  0  0  0  0  0  0
   -4.3541   13.7129  -11.4635 N   0  0  0  0  0  0  0  0  0  0  0  0
   -5.5361   13.6428  -12.1728 C   0  0  0  0  0  0  0  0  0  0  0  0
   -5.9526   14.5668  -12.8773 O   0  0  0  0  0  0  0  0  0  0  0  0
   -5.9623   10.4854   -7.7364 C   0  0  0  0  0  0  0  0  0  0  0  0
   -5.8532   11.7571   -7.1646 C   0  0  0  0  0  0  0  0  0  0  0  0
   -4.5945   12.3064   -6.9180 C   0  0  0  0  0  0  0  0  0  0  0  0
   -3.4446   11.5858   -7.2382 C   0  0  0  0  0  0  0  0  0  0  0  0
   -3.5555   10.3115   -7.8022 C   0  0  0  0  0  0  0  0  0  0  0  0
   -4.8126    9.7649   -8.0516 C   0  0  0  0  0  0  0  0  0  0  0  0
   -2.0930   12.1652   -6.9785 C   0  0  0  0  0  0  0  0  0  0  0  0
   -1.7427   13.4236   -6.4970 C   0  0  0  0  0  0  0  0  0  0  0  0
   -0.4061   13.4591   -6.4324 N   0  0  0  0  0  0  0  0  0  0  0  0
    0.1810   12.3567   -6.8070 N   0  0  0  0  0  0  0  0  0  0  0  0
   -0.8030   11.5520   -7.1701 C   0  0  0  0  0  0  0  0  0  0  0  0
    0.4260   14.5701   -5.9973 C   0  0  0  0  0  0  0  0  0  0  0  0
   -3.6444   15.0059  -11.3286 C   0  0  0  0  0  0  0  0  0  0  0  0
   -2.1848   14.8660  -11.7465 C   0  0  0  0  0  0  0  0  0  0  0  0
   -1.5251   13.6965  -11.2881 O   0  0  0  0  0  0  0  0  0  0  0  0
   -2.2131   12.5012  -11.6333 C   0  0  0  0  0  0  0  0  0  0  0  0
   -3.6517   12.4721  -11.0120 C   0  0  0  0  0  0  0  0  0  0  0  0
   -5.4816   11.5935  -10.3627 H   0  0  0  0  0  0  0  0  0  0  0  0
   -6.9766   12.5565  -10.1095 H   0  0  0  0  0  0  0  0  0  0  0  0
   -8.1720   10.1191  -13.9020 H   0  0  0  0  0  0  0  0  0  0  0  0
   -6.8821   12.2554  -14.0972 H   0  0  0  0  0  0  0  0  0  0  0  0
   -6.3150   10.0266  -10.7560 H   0  0  0  0  0  0  0  0  0  0  0  0
   -8.0379    9.5965   -7.2570 H   0  0  0  0  0  0  0  0  0  0  0  0
   -6.7437   12.3143   -6.9138 H   0  0  0  0  0  0  0  0  0  0  0  0
   -4.5109   13.2897   -6.4791 H   0  0  0  0  0  0  0  0  0  0  0  0
   -2.6655    9.7499   -8.0449 H   0  0  0  0  0  0  0  0  0  0  0  0
   -4.8957    8.7813   -8.4899 H   0  0  0  0  0  0  0  0  0  0  0  0
   -2.4205   14.2199   -6.2269 H   0  0  0  0  0  0  0  0  0  0  0  0
   -0.6578   10.5563   -7.5625 H   0  0  0  0  0  0  0  0  0  0  0  0
    1.4856   14.2813   -6.0588 H   0  0  0  0  0  0  0  0  0  0  0  0
    0.2449   15.4398   -6.6461 H   0  0  0  0  0  0  0  0  0  0  0  0
    0.1766   14.8298   -4.9579 H   0  0  0  0  0  0  0  0  0  0  0  0
   -4.1332   15.7546  -11.9693 H   0  0  0  0  0  0  0  0  0  0  0  0
   -3.6898   15.3350  -10.2800 H   0  0  0  0  0  0  0  0  0  0  0  0
   -2.1459   14.8676  -12.8458 H   0  0  0  0  0  0  0  0  0  0  0  0
   -1.6368   15.7375  -11.3590 H   0  0  0  0  0  0  0  0  0  0  0  0
   -2.2945   12.4382  -12.7285 H   0  0  0  0  0  0  0  0  0  0  0  0
   -1.6432   11.6386  -11.2578 H   0  0  0  0  0  0  0  0  0  0  0  0
   -3.5876   12.4537   -9.9140 H   0  0  0  0  0  0  0  0  0  0  0  0
   -4.1956   11.5825  -11.3625 H   0  0  0  0  0  0  0  0  0  0  0  0
  1  2  1  0  0  0  0
  1  4  2  0  0  0  0
  1 12  1  0  0  0  0
  2  6  1  0  0  0  0
  3  4  1  0  0  0  0
  3  5  2  0  0  0  0
  5  6  1  0  0  0  0
  5  9  1  0  0  0  0
  6  7  1  0  0  0  0
  7  8  1  0  0  0  0
  7 10  2  3  0  0  0
  8  9  2  0  0  0  0
 10 14  1  0  0  0  0
 11 12  1  0  0  0  0
 11 26  1  0  0  0  0
 11 30  1  0  0  0  0
 12 13  2  0  0  0  0
 14 15  2  0  0  0  0
 14 19  1  0  0  0  0
 15 16  1  0  0  0  0
 16 17  2  0  0  0  0
 17 18  1  0  0  0  0
 17 20  1  0  0  0  0
 18 19  2  0  0  0  0
 20 21  2  0  0  0  0
 20 24  1  0  0  0  0
 21 22  1  0  0  0  0
 22 23  1  0  0  0  0
 22 25  1  0  0  0  0
 23 24  2  0  0  0  0
 26 27  1  0  0  0  0
 27 28  1  0  0  0  0
 28 29  1  0  0  0  0
 29 30  1  0  0  0  0
  2 31  1  0  0  0  0
  2 32  1  0  0  0  0
  3 33  1  0  0  0  0
  4 34  1  0  0  0  0
  6 35  1  0  0  0  0
 10 36  1  0  0  0  0
 15 37  1  0  0  0  0
 16 38  1  0  0  0  0
 18 39  1  0  0  0  0
 19 40  1  0  0  0  0
 21 41  1  0  0  0  0
 24 42  1  0  0  0  0
 25 43  1  0  0  0  0
 25 44  1  0  0  0  0
 25 45  1  0  0  0  0
 26 46  1  0  0  0  0
 26 47  1  0  0  0  0
 27 48  1  0  0  0  0
 27 49  1  0  0  0  0
 29 50  1  0  0  0  0
 29 51  1  0  0  0  0
 30 52  1  0  0  0  0
 30 53  1  0  0  0  0
M  END
> <Name>
39

> <IC50[uM]>
0.004

$$$$
39
  -OEChem-05192314333D
 Structure written by MMmdl.
 53 57  0     0  0  0  0  0  0999 V2000
   -6.3502   12.3553  -12.0171 C   0  0  0  0  0  0  0  0  0  0  0  0
   -6.4935   11.7977  -10.7426 C   0  0  0  0  0  0  0  0  0  0  0  0
   -7.7106   10.5751  -13.0385 C   0  0  0  0  0  0  0  0  0  0  0  0
   -6.9725   11.7720  -13.1357 C   0  0  0  0  0  0  0  0  0  0  0  0
   -7.8130   10.0109  -11.7654 C   0  0  0  0  0  0  0  0  0  0  0  0
   -7.2309   10.6170  -10.6058 C   0  0  0  0  0  0  0  0  0  0  0  0
   -7.6111    9.7517   -9.5147 C   0  0  0  0  0  0  0  0  0  0  0  0
   -8.2865    8.7392   -9.9897 N   0  0  0  0  0  0  0  0  0  0  0  0
   -8.4152    8.8682  -11.3006 N   0  0  0  0  0  0  0  0  0  0  0  0
   -7.3373    9.8888   -8.0252 C   0  0  0  0  0  0  0  0  0  0  0  0
   -4.3541   13.7129  -11.4635 N   0  0  0  0  0  0  0  0  0  0  0  0
   -5.5361   13.6428  -12.1728 C   0  0  0  0  0  0  0  0  0  0  0  0
   -5.9526   14.5668  -12.8773 O   0  0  0  0  0  0  0  0  0  0  0  0
   -5.9623   10.4854   -7.7364 C   0  0  0  0  0  0  0  0  0  0  0  0
   -5.8532   11.7571   -7.1646 C   0  0  0  0  0  0  0  0  0  0  0  0
   -4.5945   12.3064   -6.9180 C   0  0  0  0  0  0  0  0  0  0  0  0
   -3.4446   11.5858   -7.2382 C   0  0  0  0  0  0  0  0  0  0  0  0
   -3.5555   10.3115   -7.8022 C   0  0  0  0  0  0  0  0  0  0  0  0
   -4.8126    9.7649   -8.0516 C   0  0  0  0  0  0  0  0  0  0  0  0
   -2.0930   12.1652   -6.9785 C   0  0  0  0  0  0  0  0  0  0  0  0
   -1.7427   13.4236   -6.4970 C   0  0  0  0  0  0  0  0  0  0  0  0
   -0.4061   13.4591   -6.4324 N   0  0  0  0  0  0  0  0  0  0  0  0
    0.1810   12.3567   -6.8070 N   0  0  0  0  0  0  0  0  0  0  0  0
   -0.8030   11.5520   -7.1701 C   0  0  0  0  0  0  0  0  0  0  0  0
    0.4260   14.5701   -5.9973 C   0  0  0  0  0  0  0  0  0  0  0  0
   -3.6444   15.0059  -11.3286 C   0  0  0  0  0  0  0  0  0  0  0  0
   -2.1848   14.8660  -11.7465 C   0  0  0  0  0  0  0  0  0  0  0  0
   -1.5251   13.6965  -11.2881 O   0  0  0  0  0  0  0  0  0  0  0  0
   -2.2131   12.5012  -11.6333 C   0  0  0  0  0  0  0  0  0  0  0  0
   -3.6517   12.4721  -11.0120 C   0  0  0  0  0  0  0  0  0  0  0  0
   -5.4816   11.5935  -10.3627 H   0  0  0  0  0  0  0  0  0  0  0  0
   -6.9766   12.5565  -10.1095 H   0  0  0  0  0  0  0  0  0  0  0  0
   -8.7302   10.7806  -13.3966 H   0  0  0  0  0  0  0  0  0  0  0  0
   -7.2336    9.8333  -13.6960 H   0  0  0  0  0  0  0  0  0  0  0  0
   -6.8821   12.2554  -14.0972 H   0  0  0  0  0  0  0  0  0  0  0  0
   -8.0379    9.5965   -7.2570 H   0  0  0  0  0  0  0  0  0  0  0  0
   -6.7437   12.3143   -6.9138 H   0  0  0  0  0  0  0  0  0  0  0  0
   -4.5109   13.2897   -6.4791 H   0  0  0  0  0  0  0  0  0  0  0  0
   -2.6655    9.7499   -8.0449 H   0  0  0  0  0  0  0  0  0  0  0  0
   -4.8957    8.7813   -8.4899 H   0  0  0  0  0  0  0  0  0  0  0  0
   -2.4205   14.2199   -6.2269 H   0  0  0  0  0  0  0  0  0  0  0  0
   -0.6578   10.5563   -7.5625 H   0  0  0  0  0  0  0  0  0  0  0  0
    1.4856   14.2813   -6.0588 H   0  0  0  0  0  0  0  0  0  0  0  0
    0.2449   15.4398   -6.6461 H   0  0  0  0  0  0  0  0  0  0  0  0
    0.1766   14.8298   -4.9579 H   0  0  0  0  0  0  0  0  0  0  0  0
   -4.1332   15.7546  -11.9693 H   0  0  0  0  0  0  0  0  0  0  0  0
   -3.6898   15.3350  -10.2800 H   0  0  0  0  0  0  0  0  0  0  0  0
   -2.1459   14.8676  -12.8458 H   0  0  0  0  0  0  0  0  0  0  0  0
   -1.6368   15.7375  -11.3590 H   0  0  0  0  0  0  0  0  0  0  0  0
   -2.2945   12.4382  -12.7285 H   0  0  0  0  0  0  0  0  0  0  0  0
   -1.6432   11.6386  -11.2578 H   0  0  0  0  0  0  0  0  0  0  0  0
   -3.5876   12.4537   -9.9140 H   0  0  0  0  0  0  0  0  0  0  0  0
   -4.1956   11.5825  -11.3625 H   0  0  0  0  0  0  0  0  0  0  0  0
  1  2  1  0  0  0  0
  1  4  2  0  0  0  0
  1 12  1  0  0  0  0
  2  6  1  0  0  0  0
  3  4  1  0  0  0  0
  3  5  1  0  0  0  0
  5  6  2  0  0  0  0
  5  9  1  0  0  0  0
  6  7  1  0  0  0  0
  7  8  1  0  0  0  0
  7 10  2  3  0  0  0
  8  9  2  0  0  0  0
 10 14  1  0  0  0  0
 11 12  1  0  0  0  0
 11 26  1  0  0  0  0
 11 30  1  0  0  0  0
 12 13  2  0  0  0  0
 14 15  2  0  0  0  0
 14 19  1  0  0  0  0
 15 16  1  0  0  0  0
 16 17  2  0  0  0  0
 17 18  1  0  0  0  0
 17 20  1  0  0  0  0
 18 19  2  0  0  0  0
 20 21  2  0  0  0  0
 20 24  1  0  0  0  0
 21 22  1  0  0  0  0
 22 23  1  0  0  0  0
 22 25  1  0  0  0  0
 23 24  2  0  0  0  0
 26 27  1  0  0  0  0
 27 28  1  0  0  0  0
 28 29  1  0  0  0  0
 29 30  1  0  0  0  0
  2 31  1  0  0  0  0
  2 32  1  0  0  0  0
  3 33  1  0  0  0  0
  3 34  1  0  0  0  0
  4 35  1  0  0  0  0
 10 36  1  0  0  0  0
 15 37  1  0  0  0  0
 16 38  1  0  0  0  0
 18 39  1  0  0  0  0
 19 40  1  0  0  0  0
 21 41  1  0  0  0  0
 24 42  1  0  0  0  0
 25 43  1  0  0  0  0
 25 44  1  0  0  0  0
 25 45  1  0  0  0  0
 26 46  1  0  0  0  0
 26 47  1  0  0  0  0
 27 48  1  0  0  0  0
 27 49  1  0  0  0  0
 29 50  1  0  0  0  0
 29 51  1  0  0  0  0
 30 52  1  0  0  0  0
 30 53  1  0  0  0  0
M  END
> <Name>
39

> <IC50[uM]>
0.004

$$$$
39
  -OEChem-05192314333D
 Structure written by MMmdl.
 53 57  0     1  0  0  0  0  0999 V2000
   -6.3502   12.3553  -12.0171 C   0  0  0  0  0  0  0  0  0  0  0  0
   -6.4935   11.7977  -10.7426 C   0  0  0  0  0  0  0  0  0  0  0  0
   -7.7106   10.5751  -13.0385 C   0  0  0  0  0  0  0  0  0  0  0  0
   -6.9725   11.7720  -13.1357 C   0  0  0  0  0  0  0  0  0  0  0  0
   -7.8130   10.0109  -11.7654 C   0  0  3  0  0  0  0  0  0  0  0  0
   -7.2309   10.6170  -10.6058 C   0  0  0  0  0  0  0  0  0  0  0  0
   -7.6111    9.7517   -9.5147 C   0  0  0  0  0  0  0  0  0  0  0  0
   -8.2865    8.7392   -9.9897 N   0  0  0  0  0  0  0  0  0  0  0  0
   -8.4152    8.8682  -11.3006 N   0  0  0  0  0  0  0  0  0  0  0  0
   -7.3373    9.8888   -8.0252 C   0  0  0  0  0  0  0  0  0  0  0  0
   -4.3541   13.7129  -11.4635 N   0  0  0  0  0  0  0  0  0  0  0  0
   -5.5361   13.6428  -12.1728 C   0  0  0  0  0  0  0  0  0  0  0  0
   -5.9526   14.5668  -12.8773 O   0  0  0  0  0  0  0  0  0  0  0  0
   -5.9623   10.4854   -7.7364 C   0  0  0  0  0  0  0  0  0  0  0  0
   -5.8532   11.7571   -7.1646 C   0  0  0  0  0  0  0  0  0  0  0  0
   -4.5945   12.3064   -6.9180 C   0  0  0  0  0  0  0  0  0  0  0  0
   -3.4446   11.5858   -7.2382 C   0  0  0  0  0  0  0  0  0  0  0  0
   -3.5555   10.3115   -7.8022 C   0  0  0  0  0  0  0  0  0  0  0  0
   -4.8126    9.7649   -8.0516 C   0  0  0  0  0  0  0  0  0  0  0  0
   -2.0930   12.1652   -6.9785 C   0  0  0  0  0  0  0  0  0  0  0  0
   -1.7427   13.4236   -6.4970 C   0  0  0  0  0  0  0  0  0  0  0  0
   -0.4061   13.4591   -6.4324 N   0  0  0  0  0  0  0  0  0  0  0  0
    0.1810   12.3567   -6.8070 N   0  0  0  0  0  0  0  0  0  0  0  0
   -0.8030   11.5520   -7.1701 C   0  0  0  0  0  0  0  0  0  0  0  0
    0.4260   14.5701   -5.9973 C   0  0  0  0  0  0  0  0  0  0  0  0
   -3.6444   15.0059  -11.3286 C   0  0  0  0  0  0  0  0  0  0  0  0
   -2.1848   14.8660  -11.7465 C   0  0  0  0  0  0  0  0  0  0  0  0
   -1.5251   13.6965  -11.2881 O   0  0  0  0  0  0  0  0  0  0  0  0
   -2.2131   12.5012  -11.6333 C   0  0  0  0  0  0  0  0  0  0  0  0
   -3.6517   12.4721  -11.0120 C   0  0  0  0  0  0  0  0  0  0  0  0
   -6.0438   12.2692   -9.8813 H   0  0  0  0  0  0  0  0  0  0  0  0
   -8.1720   10.1191  -13.9020 H   0  0  0  0  0  0  0  0  0  0  0  0
   -6.8821   12.2554  -14.0972 H   0  0  0  0  0  0  0  0  0  0  0  0
   -8.7432   10.5718  -11.5916 H   0  0  0  0  0  0  0  0  0  0  0  0
   -8.1049   10.5416   -7.5840 H   0  0  0  0  0  0  0  0  0  0  0  0
   -7.3937    8.8922   -7.5629 H   0  0  0  0  0  0  0  0  0  0  0  0
   -6.7437   12.3143   -6.9138 H   0  0  0  0  0  0  0  0  0  0  0  0
   -4.5109   13.2897   -6.4791 H   0  0  0  0  0  0  0  0  0  0  0  0
   -2.6655    9.7499   -8.0449 H   0  0  0  0  0  0  0  0  0  0  0  0
   -4.8957    8.7813   -8.4899 H   0  0  0  0  0  0  0  0  0  0  0  0
   -2.4205   14.2199   -6.2269 H   0  0  0  0  0  0  0  0  0  0  0  0
   -0.6578   10.5563   -7.5625 H   0  0  0  0  0  0  0  0  0  0  0  0
    1.4856   14.2813   -6.0588 H   0  0  0  0  0  0  0  0  0  0  0  0
    0.2449   15.4398   -6.6461 H   0  0  0  0  0  0  0  0  0  0  0  0
    0.1766   14.8298   -4.9579 H   0  0  0  0  0  0  0  0  0  0  0  0
   -4.1332   15.7546  -11.9693 H   0  0  0  0  0  0  0  0  0  0  0  0
   -3.6898   15.3350  -10.2800 H   0  0  0  0  0  0  0  0  0  0  0  0
   -2.1459   14.8676  -12.8458 H   0  0  0  0  0  0  0  0  0  0  0  0
   -1.6368   15.7375  -11.3590 H   0  0  0  0  0  0  0  0  0  0  0  0
   -2.2945   12.4382  -12.7285 H   0  0  0  0  0  0  0  0  0  0  0  0
   -1.6432   11.6386  -11.2578 H   0  0  0  0  0  0  0  0  0  0  0  0
   -3.5876   12.4537   -9.9140 H   0  0  0  0  0  0  0  0  0  0  0  0
   -4.1956   11.5825  -11.3625 H   0  0  0  0  0  0  0  0  0  0  0  0
  1  2  2  0  0  0  0
  1  4  1  0  0  0  0
  1 12  1  0  0  0  0
  2  6  1  0  0  0  0
  3  4  2  0  0  0  0
  3  5  1  0  0  0  0
  5  6  1  0  0  0  0
  5  9  1  0  0  0  0
  6  7  2  0  0  0  0
  7  8  1  0  0  0  0
  7 10  1  0  0  0  0
  8  9  2  0  0  0  0
 10 14  1  0  0  0  0
 11 12  1  0  0  0  0
 11 26  1  0  0  0  0
 11 30  1  0  0  0  0
 12 13  2  0  0  0  0
 14 15  2  0  0  0  0
 14 19  1  0  0  0  0
 15 16  1  0  0  0  0
 16 17  2  0  0  0  0
 17 18  1  0  0  0  0
 17 20  1  0  0  0  0
 18 19  2  0  0  0  0
 20 21  2  0  0  0  0
 20 24  1  0  0  0  0
 21 22  1  0  0  0  0
 22 23  1  0  0  0  0
 22 25  1  0  0  0  0
 23 24  2  0  0  0  0
 26 27  1  0  0  0  0
 27 28  1  0  0  0  0
 28 29  1  0  0  0  0
 29 30  1  0  0  0  0
  2 31  1  0  0  0  0
  3 32  1  0  0  0  0
  4 33  1  0  0  0  0
  5 34  1  0  0  0  0
 10 35  1  0  0  0  0
 10 36  1  0  0  0  0
 15 37  1  0  0  0  0
 16 38  1  0  0  0  0
 18 39  1  0  0  0  0
 19 40  1  0  0  0  0
 21 41  1  0  0  0  0
 24 42  1  0  0  0  0
 25 43  1  0  0  0  0
 25 44  1  0  0  0  0
 25 45  1  0  0  0  0
 26 46  1  0  0  0  0
 26 47  1  0  0  0  0
 27 48  1  0  0  0  0
 27 49  1  0  0  0  0
 29 50  1  0  0  0  0
 29 51  1  0  0  0  0
 30 52  1  0  0  0  0
 30 53  1  0  0  0  0
M  END
> <Name>
39

> <IC50[uM]>
0.004

$$$$
39
  -OEChem-05192314333D
 Structure written by MMmdl.
 53 57  0     0  0  0  0  0  0999 V2000
   -6.3502   12.3553  -12.0171 C   0  0  0  0  0  0  0  0  0  0  0  0
   -6.4935   11.7977  -10.7426 C   0  0  0  0  0  0  0  0  0  0  0  0
   -7.7106   10.5751  -13.0385 C   0  0  0  0  0  0  0  0  0  0  0  0
   -6.9725   11.7720  -13.1357 C   0  0  0  0  0  0  0  0  0  0  0  0
   -7.8130   10.0109  -11.7654 C   0  0  0  0  0  0  0  0  0  0  0  0
   -7.2309   10.6170  -10.6058 C   0  0  0  0  0  0  0  0  0  0  0  0
   -7.6111    9.7517   -9.5147 C   0  0  0  0  0  0  0  0  0  0  0  0
   -8.2865    8.7392   -9.9897 N   0  0  0  0  0  0  0  0  0  0  0  0
   -8.4152    8.8682  -11.3006 N   0  0  0  0  0  0  0  0  0  0  0  0
   -7.3373    9.8888   -8.0252 C   0  0  0  0  0  0  0  0  0  0  0  0
   -4.3541   13.7129  -11.4635 N   0  0  0  0  0  0  0  0  0  0  0  0
   -5.5361   13.6428  -12.1728 C   0  0  0  0  0  0  0  0  0  0  0  0
   -5.9526   14.5668  -12.8773 O   0  0  0  0  0  0  0  0  0  0  0  0
   -5.9623   10.4854   -7.7364 C   0  0  0  0  0  0  0  0  0  0  0  0
   -5.8532   11.7571   -7.1646 C   0  0  0  0  0  0  0  0  0  0  0  0
   -4.5945   12.3064   -6.9180 C   0  0  0  0  0  0  0  0  0  0  0  0
   -3.4446   11.5858   -7.2382 C   0  0  0  0  0  0  0  0  0  0  0  0
   -3.5555   10.3115   -7.8022 C   0  0  0  0  0  0  0  0  0  0  0  0
   -4.8126    9.7649   -8.0516 C   0  0  0  0  0  0  0  0  0  0  0  0
   -2.0930   12.1652   -6.9785 C   0  0  0  0  0  0  0  0  0  0  0  0
   -1.7427   13.4236   -6.4970 C   0  0  0  0  0  0  0  0  0  0  0  0
   -0.4061   13.4591   -6.4324 N   0  0  0  0  0  0  0  0  0  0  0  0
    0.1810   12.3567   -6.8070 N   0  0  0  0  0  0  0  0  0  0  0  0
   -0.8030   11.5520   -7.1701 C   0  0  0  0  0  0  0  0  0  0  0  0
    0.4260   14.5701   -5.9973 C   0  0  0  0  0  0  0  0  0  0  0  0
   -3.6444   15.0059  -11.3286 C   0  0  0  0  0  0  0  0  0  0  0  0
   -2.1848   14.8660  -11.7465 C   0  0  0  0  0  0  0  0  0  0  0  0
   -1.5251   13.6965  -11.2881 O   0  0  0  0  0  0  0  0  0  0  0  0
   -2.2131   12.5012  -11.6333 C   0  0  0  0  0  0  0  0  0  0  0  0
   -3.6517   12.4721  -11.0120 C   0  0  0  0  0  0  0  0  0  0  0  0
   -6.0438   12.2692   -9.8813 H   0  0  0  0  0  0  0  0  0  0  0  0
   -8.1720   10.1191  -13.9020 H   0  0  0  0  0  0  0  0  0  0  0  0
   -7.6642   12.5292  -13.5334 H   0  0  0  0  0  0  0  0  0  0  0  0
   -6.1745   11.5833  -13.8689 H   0  0  0  0  0  0  0  0  0  0  0  0
   -8.1049   10.5416   -7.5840 H   0  0  0  0  0  0  0  0  0  0  0  0
   -7.3937    8.8922   -7.5629 H   0  0  0  0  0  0  0  0  0  0  0  0
   -6.7437   12.3143   -6.9138 H   0  0  0  0  0  0  0  0  0  0  0  0
   -4.5109   13.2897   -6.4791 H   0  0  0  0  0  0  0  0  0  0  0  0
   -2.6655    9.7499   -8.0449 H   0  0  0  0  0  0  0  0  0  0  0  0
   -4.8957    8.7813   -8.4899 H   0  0  0  0  0  0  0  0  0  0  0  0
   -2.4205   14.2199   -6.2269 H   0  0  0  0  0  0  0  0  0  0  0  0
   -0.6578   10.5563   -7.5625 H   0  0  0  0  0  0  0  0  0  0  0  0
    1.4856   14.2813   -6.0588 H   0  0  0  0  0  0  0  0  0  0  0  0
    0.2449   15.4398   -6.6461 H   0  0  0  0  0  0  0  0  0  0  0  0
    0.1766   14.8298   -4.9579 H   0  0  0  0  0  0  0  0  0  0  0  0
   -4.1332   15.7546  -11.9693 H   0  0  0  0  0  0  0  0  0  0  0  0
   -3.6898   15.3350  -10.2800 H   0  0  0  0  0  0  0  0  0  0  0  0
   -2.1459   14.8676  -12.8458 H   0  0  0  0  0  0  0  0  0  0  0  0
   -1.6368   15.7375  -11.3590 H   0  0  0  0  0  0  0  0  0  0  0  0
   -2.2945   12.4382  -12.7285 H   0  0  0  0  0  0  0  0  0  0  0  0
   -1.6432   11.6386  -11.2578 H   0  0  0  0  0  0  0  0  0  0  0  0
   -3.5876   12.4537   -9.9140 H   0  0  0  0  0  0  0  0  0  0  0  0
   -4.1956   11.5825  -11.3625 H   0  0  0  0  0  0  0  0  0  0  0  0
  1  2  2  0  0  0  0
  1  4  1  0  0  0  0
  1 12  1  0  0  0  0
  2  6  1  0  0  0  0
  3  4  1  0  0  0  0
  3  5  2  0  0  0  0
  5  6  1  0  0  0  0
  5  9  1  0  0  0  0
  6  7  2  0  0  0  0
  7  8  1  0  0  0  0
  7 10  1  0  0  0  0
  8  9  2  0  0  0  0
 10 14  1  0  0  0  0
 11 12  1  0  0  0  0
 11 26  1  0  0  0  0
 11 30  1  0  0  0  0
 12 13  2  0  0  0  0
 14 15  2  0  0  0  0
 14 19  1  0  0  0  0
 15 16  1  0  0  0  0
 16 17  2  0  0  0  0
 17 18  1  0  0  0  0
 17 20  1  0  0  0  0
 18 19  2  0  0  0  0
 20 21  2  0  0  0  0
 20 24  1  0  0  0  0
 21 22  1  0  0  0  0
 22 23  1  0  0  0  0
 22 25  1  0  0  0  0
 23 24  2  0  0  0  0
 26 27  1  0  0  0  0
 27 28  1  0  0  0  0
 28 29  1  0  0  0  0
 29 30  1  0  0  0  0
  2 31  1  0  0  0  0
  3 32  1  0  0  0  0
  4 33  1  0  0  0  0
  4 34  1  0  0  0  0
 10 35  1  0  0  0  0
 10 36  1  0  0  0  0
 15 37  1  0  0  0  0
 16 38  1  0  0  0  0
 18 39  1  0  0  0  0
 19 40  1  0  0  0  0
 21 41  1  0  0  0  0
 24 42  1  0  0  0  0
 25 43  1  0  0  0  0
 25 44  1  0  0  0  0
 25 45  1  0  0  0  0
 26 46  1  0  0  0  0
 26 47  1  0  0  0  0
 27 48  1  0  0  0  0
 27 49  1  0  0  0  0
 29 50  1  0  0  0  0
 29 51  1  0  0  0  0
 30 52  1  0  0  0  0
 30 53  1  0  0  0  0
M  END
> <Name>
39

> <IC50[uM]>
0.004

$$$$
39
  -OEChem-05192314333D
 Structure written by MMmdl.
 53 57  0     0  0  0  0  0  0999 V2000
   -6.3502   12.3553  -12.0171 C   0  0  0  0  0  0  0  0  0  0  0  0
   -6.4935   11.7977  -10.7426 C   0  0  0  0  0  0  0  0  0  0  0  0
   -7.7106   10.5751  -13.0385 C   0  0  0  0  0  0  0  0  0  0  0  0
   -6.9725   11.7720  -13.1357 C   0  0  0  0  0  0  0  0  0  0  0  0
   -7.8130   10.0109  -11.7654 C   0  0  0  0  0  0  0  0  0  0  0  0
   -7.2309   10.6170  -10.6058 C   0  0  0  0  0  0  0  0  0  0  0  0
   -7.6111    9.7517   -9.5147 C   0  0  0  0  0  0  0  0  0  0  0  0
   -8.2865    8.7392   -9.9897 N   0  0  0  0  0  0  0  0  0  0  0  0
   -8.4152    8.8682  -11.3006 N   0  0  0  0  0  0  0  0  0  0  0  0
   -7.3373    9.8888   -8.0252 C   0  0  0  0  0  0  0  0  0  0  0  0
   -4.3541   13.7129  -11.4635 N   0  0  0  0  0  0  0  0  0  0  0  0
   -5.5361   13.6428  -12.1728 C   0  0  0  0  0  0  0  0  0  0  0  0
   -5.9526   14.5668  -12.8773 O   0  0  0  0  0  0  0  0  0  0  0  0
   -5.9623   10.4854   -7.7364 C   0  0  0  0  0  0  0  0  0  0  0  0
   -5.8532   11.7571   -7.1646 C   0  0  0  0  0  0  0  0  0  0  0  0
   -4.5945   12.3064   -6.9180 C   0  0  0  0  0  0  0  0  0  0  0  0
   -3.4446   11.5858   -7.2382 C   0  0  0  0  0  0  0  0  0  0  0  0
   -3.5555   10.3115   -7.8022 C   0  0  0  0  0  0  0  0  0  0  0  0
   -4.8126    9.7649   -8.0516 C   0  0  0  0  0  0  0  0  0  0  0  0
   -2.0930   12.1652   -6.9785 C   0  0  0  0  0  0  0  0  0  0  0  0
   -1.7427   13.4236   -6.4970 C   0  0  0  0  0  0  0  0  0  0  0  0
   -0.4061   13.4591   -6.4324 N   0  0  0  0  0  0  0  0  0  0  0  0
    0.1810   12.3567   -6.8070 N   0  0  0  0  0  0  0  0  0  0  0  0
   -0.8030   11.5520   -7.1701 C   0  0  0  0  0  0  0  0  0  0  0  0
    0.4260   14.5701   -5.9973 C   0  0  0  0  0  0  0  0  0  0  0  0
   -3.6444   15.0059  -11.3286 C   0  0  0  0  0  0  0  0  0  0  0  0
   -2.1848   14.8660  -11.7465 C   0  0  0  0  0  0  0  0  0  0  0  0
   -1.5251   13.6965  -11.2881 O   0  0  0  0  0  0  0  0  0  0  0  0
   -2.2131   12.5012  -11.6333 C   0  0  0  0  0  0  0  0  0  0  0  0
   -3.6517   12.4721  -11.0120 C   0  0  0  0  0  0  0  0  0  0  0  0
   -5.4816   11.5935  -10.3627 H   0  0  0  0  0  0  0  0  0  0  0  0
   -6.9766   12.5565  -10.1095 H   0  0  0  0  0  0  0  0  0  0  0  0
   -8.1720   10.1191  -13.9020 H   0  0  0  0  0  0  0  0  0  0  0  0
   -6.8821   12.2554  -14.0972 H   0  0  0  0  0  0  0  0  0  0  0  0
   -8.1049   10.5416   -7.5840 H   0  0  0  0  0  0  0  0  0  0  0  0
   -7.3937    8.8922   -7.5629 H   0  0  0  0  0  0  0  0  0  0  0  0
   -6.7437   12.3143   -6.9138 H   0  0  0  0  0  0  0  0  0  0  0  0
   -4.5109   13.2897   -6.4791 H   0  0  0  0  0  0  0  0  0  0  0  0
   -2.6655    9.7499   -8.0449 H   0  0  0  0  0  0  0  0  0  0  0  0
   -4.8957    8.7813   -8.4899 H   0  0  0  0  0  0  0  0  0  0  0  0
   -2.4205   14.2199   -6.2269 H   0  0  0  0  0  0  0  0  0  0  0  0
   -0.6578   10.5563   -7.5625 H   0  0  0  0  0  0  0  0  0  0  0  0
    1.4856   14.2813   -6.0588 H   0  0  0  0  0  0  0  0  0  0  0  0
    0.2449   15.4398   -6.6461 H   0  0  0  0  0  0  0  0  0  0  0  0
    0.1766   14.8298   -4.9579 H   0  0  0  0  0  0  0  0  0  0  0  0
   -4.1332   15.7546  -11.9693 H   0  0  0  0  0  0  0  0  0  0  0  0
   -3.6898   15.3350  -10.2800 H   0  0  0  0  0  0  0  0  0  0  0  0
   -2.1459   14.8676  -12.8458 H   0  0  0  0  0  0  0  0  0  0  0  0
   -1.6368   15.7375  -11.3590 H   0  0  0  0  0  0  0  0  0  0  0  0
   -2.2945   12.4382  -12.7285 H   0  0  0  0  0  0  0  0  0  0  0  0
   -1.6432   11.6386  -11.2578 H   0  0  0  0  0  0  0  0  0  0  0  0
   -3.5876   12.4537   -9.9140 H   0  0  0  0  0  0  0  0  0  0  0  0
   -4.1956   11.5825  -11.3625 H   0  0  0  0  0  0  0  0  0  0  0  0
  1  2  1  0  0  0  0
  1  4  2  0  0  0  0
  1 12  1  0  0  0  0
  2  6  1  0  0  0  0
  3  4  1  0  0  0  0
  3  5  2  0  0  0  0
  5  6  1  0  0  0  0
  5  9  1  0  0  0  0
  6  7  2  0  0  0  0
  7  8  1  0  0  0  0
  7 10  1  0  0  0  0
  8  9  2  0  0  0  0
 10 14  1  0  0  0  0
 11 12  1  0  0  0  0
 11 26  1  0  0  0  0
 11 30  1  0  0  0  0
 12 13  2  0  0  0  0
 14 15  2  0  0  0  0
 14 19  1  0  0  0  0
 15 16  1  0  0  0  0
 16 17  2  0  0  0  0
 17 18  1  0  0  0  0
 17 20  1  0  0  0  0
 18 19  2  0  0  0  0
 20 21  2  0  0  0  0
 20 24  1  0  0  0  0
 21 22  1  0  0  0  0
 22 23  1  0  0  0  0
 22 25  1  0  0  0  0
 23 24  2  0  0  0  0
 26 27  1  0  0  0  0
 27 28  1  0  0  0  0
 28 29  1  0  0  0  0
 29 30  1  0  0  0  0
  2 31  1  0  0  0  0
  2 32  1  0  0  0  0
  3 33  1  0  0  0  0
  4 34  1  0  0  0  0
 10 35  1  0  0  0  0
 10 36  1  0  0  0  0
 15 37  1  0  0  0  0
 16 38  1  0  0  0  0
 18 39  1  0  0  0  0
 19 40  1  0  0  0  0
 21 41  1  0  0  0  0
 24 42  1  0  0  0  0
 25 43  1  0  0  0  0
 25 44  1  0  0  0  0
 25 45  1  0  0  0  0
 26 46  1  0  0  0  0
 26 47  1  0  0  0  0
 27 48  1  0  0  0  0
 27 49  1  0  0  0  0
 29 50  1  0  0  0  0
 29 51  1  0  0  0  0
 30 52  1  0  0  0  0
 30 53  1  0  0  0  0
M  END
> <Name>
39

> <IC50[uM]>
0.004

$$$$
39
  -OEChem-05192314333D
 Structure written by MMmdl.
 53 57  0     1  0  0  0  0  0999 V2000
   -6.3502   12.3553  -12.0171 C   0  0  0  0  0  0  0  0  0  0  0  0
   -6.4935   11.7977  -10.7426 C   0  0  0  0  0  0  0  0  0  0  0  0
   -7.7106   10.5751  -13.0385 C   0  0  0  0  0  0  0  0  0  0  0  0
   -6.9725   11.7720  -13.1357 C   0  0  0  0  0  0  0  0  0  0  0  0
   -7.8130   10.0109  -11.7654 C   0  0  0  0  0  0  0  0  0  0  0  0
   -7.2309   10.6170  -10.6058 C   0  0  3  0  0  0  0  0  0  0  0  0
   -7.6111    9.7517   -9.5147 C   0  0  0  0  0  0  0  0  0  0  0  0
   -8.2865    8.7392   -9.9897 N   0  0  0  0  0  0  0  0  0  0  0  0
   -8.4152    8.8682  -11.3006 N   0  0  0  0  0  0  0  0  0  0  0  0
   -7.3373    9.8888   -8.0252 C   0  0  0  0  0  0  0  0  0  0  0  0
   -4.3541   13.7129  -11.4635 N   0  0  0  0  0  0  0  0  0  0  0  0
   -5.5361   13.6428  -12.1728 C   0  0  0  0  0  0  0  0  0  0  0  0
   -5.9526   14.5668  -12.8773 O   0  0  0  0  0  0  0  0  0  0  0  0
   -5.9623   10.4854   -7.7364 C   0  0  0  0  0  0  0  0  0  0  0  0
   -5.8532   11.7571   -7.1646 C   0  0  0  0  0  0  0  0  0  0  0  0
   -4.5945   12.3064   -6.9180 C   0  0  0  0  0  0  0  0  0  0  0  0
   -3.4446   11.5858   -7.2382 C   0  0  0  0  0  0  0  0  0  0  0  0
   -3.5555   10.3115   -7.8022 C   0  0  0  0  0  0  0  0  0  0  0  0
   -4.8126    9.7649   -8.0516 C   0  0  0  0  0  0  0  0  0  0  0  0
   -2.0930   12.1652   -6.9785 C   0  0  0  0  0  0  0  0  0  0  0  0
   -1.7427   13.4236   -6.4970 C   0  0  0  0  0  0  0  0  0  0  0  0
   -0.4061   13.4591   -6.4324 N   0  0  0  0  0  0  0  0  0  0  0  0
    0.1810   12.3567   -6.8070 N   0  0  0  0  0  0  0  0  0  0  0  0
   -0.8030   11.5520   -7.1701 C   0  0  0  0  0  0  0  0  0  0  0  0
    0.4260   14.5701   -5.9973 C   0  0  0  0  0  0  0  0  0  0  0  0
   -3.6444   15.0059  -11.3286 C   0  0  0  0  0  0  0  0  0  0  0  0
   -2.1848   14.8660  -11.7465 C   0  0  0  0  0  0  0  0  0  0  0  0
   -1.5251   13.6965  -11.2881 O   0  0  0  0  0  0  0  0  0  0  0  0
   -2.2131   12.5012  -11.6333 C   0  0  0  0  0  0  0  0  0  0  0  0
   -3.6517   12.4721  -11.0120 C   0  0  0  0  0  0  0  0  0  0  0  0
   -6.0438   12.2692   -9.8813 H   0  0  0  0  0  0  0  0  0  0  0  0
   -8.1720   10.1191  -13.9020 H   0  0  0  0  0  0  0  0  0  0  0  0
   -6.8821   12.2554  -14.0972 H   0  0  0  0  0  0  0  0  0  0  0  0
   -6.3150   10.0266  -10.7560 H   0  0  0  0  0  0  0  0  0  0  0  0
   -8.6504    7.9828   -9.4462 H   0  0  0  0  0  0  0  0  0  0  0  0
   -8.0379    9.5965   -7.2570 H   0  0  0  0  0  0  0  0  0  0  0  0
   -6.7437   12.3143   -6.9138 H   0  0  0  0  0  0  0  0  0  0  0  0
   -4.5109   13.2897   -6.4791 H   0  0  0  0  0  0  0  0  0  0  0  0
   -2.6655    9.7499   -8.0449 H   0  0  0  0  0  0  0  0  0  0  0  0
   -4.8957    8.7813   -8.4899 H   0  0  0  0  0  0  0  0  0  0  0  0
   -2.4205   14.2199   -6.2269 H   0  0  0  0  0  0  0  0  0  0  0  0
   -0.6578   10.5563   -7.5625 H   0  0  0  0  0  0  0  0  0  0  0  0
    1.4856   14.2813   -6.0588 H   0  0  0  0  0  0  0  0  0  0  0  0
    0.2449   15.4398   -6.6461 H   0  0  0  0  0  0  0  0  0  0  0  0
    0.1766   14.8298   -4.9579 H   0  0  0  0  0  0  0  0  0  0  0  0
   -4.1332   15.7546  -11.9693 H   0  0  0  0  0  0  0  0  0  0  0  0
   -3.6898   15.3350  -10.2800 H   0  0  0  0  0  0  0  0  0  0  0  0
   -2.1459   14.8676  -12.8458 H   0  0  0  0  0  0  0  0  0  0  0  0
   -1.6368   15.7375  -11.3590 H   0  0  0  0  0  0  0  0  0  0  0  0
   -2.2945   12.4382  -12.7285 H   0  0  0  0  0  0  0  0  0  0  0  0
   -1.6432   11.6386  -11.2578 H   0  0  0  0  0  0  0  0  0  0  0  0
   -3.5876   12.4537   -9.9140 H   0  0  0  0  0  0  0  0  0  0  0  0
   -4.1956   11.5825  -11.3625 H   0  0  0  0  0  0  0  0  0  0  0  0
  1  2  2  0  0  0  0
  1  4  1  0  0  0  0
  1 12  1  0  0  0  0
  2  6  1  0  0  0  0
  3  4  2  0  0  0  0
  3  5  1  0  0  0  0
  5  6  1  0  0  0  0
  5  9  2  0  0  0  0
  6  7  1  0  0  0  0
  7  8  1  0  0  0  0
  7 10  2  3  0  0  0
  8  9  1  0  0  0  0
 10 14  1  0  0  0  0
 11 12  1  0  0  0  0
 11 26  1  0  0  0  0
 11 30  1  0  0  0  0
 12 13  2  0  0  0  0
 14 15  2  0  0  0  0
 14 19  1  0  0  0  0
 15 16  1  0  0  0  0
 16 17  2  0  0  0  0
 17 18  1  0  0  0  0
 17 20  1  0  0  0  0
 18 19  2  0  0  0  0
 20 21  2  0  0  0  0
 20 24  1  0  0  0  0
 21 22  1  0  0  0  0
 22 23  1  0  0  0  0
 22 25  1  0  0  0  0
 23 24  2  0  0  0  0
 26 27  1  0  0  0  0
 27 28  1  0  0  0  0
 28 29  1  0  0  0  0
 29 30  1  0  0  0  0
  2 31  1  0  0  0  0
  3 32  1  0  0  0  0
  4 33  1  0  0  0  0
  6 34  1  0  0  0  0
  8 35  1  0  0  0  0
 10 36  1  0  0  0  0
 15 37  1  0  0  0  0
 16 38  1  0  0  0  0
 18 39  1  0  0  0  0
 19 40  1  0  0  0  0
 21 41  1  0  0  0  0
 24 42  1  0  0  0  0
 25 43  1  0  0  0  0
 25 44  1  0  0  0  0
 25 45  1  0  0  0  0
 26 46  1  0  0  0  0
 26 47  1  0  0  0  0
 27 48  1  0  0  0  0
 27 49  1  0  0  0  0
 29 50  1  0  0  0  0
 29 51  1  0  0  0  0
 30 52  1  0  0  0  0
 30 53  1  0  0  0  0
M  END
> <Name>
39

> <IC50[uM]>
0.004

$$$$
39
  -OEChem-05192314333D
 Structure written by MMmdl.
 53 57  0     1  0  0  0  0  0999 V2000
   -6.3502   12.3553  -12.0171 C   0  0  0  0  0  0  0  0  0  0  0  0
   -6.4935   11.7977  -10.7426 C   0  0  0  0  0  0  0  0  0  0  0  0
   -7.7106   10.5751  -13.0385 C   0  0  0  0  0  0  0  0  0  0  0  0
   -6.9725   11.7720  -13.1357 C   0  0  0  0  0  0  0  0  0  0  0  0
   -7.8130   10.0109  -11.7654 C   0  0  0  0  0  0  0  0  0  0  0  0
   -7.2309   10.6170  -10.6058 C   0  0  0  0  0  0  0  0  0  0  0  0
   -7.6111    9.7517   -9.5147 C   0  0  0  0  0  0  0  0  0  0  0  0
   -8.2865    8.7392   -9.9897 N   0  0  0  0  0  0  0  0  0  0  0  0
   -8.4152    8.8682  -11.3006 N   0  0  0  0  0  0  0  0  0  0  0  0
   -7.3373    9.8888   -8.0252 C   0  0  0  0  0  0  0  0  0  0  0  0
   -4.3541   13.7129  -11.4635 N   0  0  0  0  0  0  0  0  0  0  0  0
   -5.5361   13.6428  -12.1728 C   0  0  0  0  0  0  0  0  0  0  0  0
   -5.9526   14.5668  -12.8773 O   0  0  0  0  0  0  0  0  0  0  0  0
   -5.9623   10.4854   -7.7364 C   0  0  0  0  0  0  0  0  0  0  0  0
   -5.8532   11.7571   -7.1646 C   0  0  0  0  0  0  0  0  0  0  0  0
   -4.5945   12.3064   -6.9180 C   0  0  0  0  0  0  0  0  0  0  0  0
   -3.4446   11.5858   -7.2382 C   0  0  0  0  0  0  0  0  0  0  0  0
   -3.5555   10.3115   -7.8022 C   0  0  0  0  0  0  0  0  0  0  0  0
   -4.8126    9.7649   -8.0516 C   0  0  0  0  0  0  0  0  0  0  0  0
   -2.0930   12.1652   -6.9785 C   0  0  0  0  0  0  0  0  0  0  0  0
   -1.7427   13.4236   -6.4970 C   0  0  0  0  0  0  0  0  0  0  0  0
   -0.4061   13.4591   -6.4324 N   0  0  3  0  0  0  0  0  0  0  0  0
    0.1810   12.3567   -6.8070 N   0  0  0  0  0  0  0  0  0  0  0  0
   -0.8030   11.5520   -7.1701 C   0  0  0  0  0  0  0  0  0  0  0  0
    0.4260   14.5701   -5.9973 C   0  0  0  0  0  0  0  0  0  0  0  0
   -3.6444   15.0059  -11.3286 C   0  0  0  0  0  0  0  0  0  0  0  0
   -2.1848   14.8660  -11.7465 C   0  0  0  0  0  0  0  0  0  0  0  0
   -1.5251   13.6965  -11.2881 O   0  0  0  0  0  0  0  0  0  0  0  0
   -2.2131   12.5012  -11.6333 C   0  0  0  0  0  0  0  0  0  0  0  0
   -3.6517   12.4721  -11.0120 C   0  0  0  0  0  0  0  0  0  0  0  0
   -6.0438   12.2692   -9.8813 H   0  0  0  0  0  0  0  0  0  0  0  0
   -8.1720   10.1191  -13.9020 H   0  0  0  0  0  0  0  0  0  0  0  0
   -6.8821   12.2554  -14.0972 H   0  0  0  0  0  0  0  0  0  0  0  0
   -8.0379    9.5965   -7.2570 H   0  0  0  0  0  0  0  0  0  0  0  0
   -5.9740   10.0329   -6.7338 H   0  0  0  0  0  0  0  0  0  0  0  0
   -6.7437   12.3143   -6.9138 H   0  0  0  0  0  0  0  0  0  0  0  0
   -4.5109   13.2897   -6.4791 H   0  0  0  0  0  0  0  0  0  0  0  0
   -2.6655    9.7499   -8.0449 H   0  0  0  0  0  0  0  0  0  0  0  0
   -4.8957    8.7813   -8.4899 H   0  0  0  0  0  0  0  0  0  0  0  0
   -2.1089   14.2047   -7.1794 H   0  0  0  0  0  0  0  0  0  0  0  0
   -2.1736   13.5790   -5.4969 H   0  0  0  0  0  0  0  0  0  0  0  0
   -0.6578   10.5563   -7.5625 H   0  0  0  0  0  0  0  0  0  0  0  0
    1.4856   14.2813   -6.0588 H   0  0  0  0  0  0  0  0  0  0  0  0
    0.2449   15.4398   -6.6461 H   0  0  0  0  0  0  0  0  0  0  0  0
    0.1766   14.8298   -4.9579 H   0  0  0  0  0  0  0  0  0  0  0  0
   -4.1332   15.7546  -11.9693 H   0  0  0  0  0  0  0  0  0  0  0  0
   -3.6898   15.3350  -10.2800 H   0  0  0  0  0  0  0  0  0  0  0  0
   -2.1459   14.8676  -12.8458 H   0  0  0  0  0  0  0  0  0  0  0  0
   -1.6368   15.7375  -11.3590 H   0  0  0  0  0  0  0  0  0  0  0  0
   -2.2945   12.4382  -12.7285 H   0  0  0  0  0  0  0  0  0  0  0  0
   -1.6432   11.6386  -11.2578 H   0  0  0  0  0  0  0  0  0  0  0  0
   -3.5876   12.4537   -9.9140 H   0  0  0  0  0  0  0  0  0  0  0  0
   -4.1956   11.5825  -11.3625 H   0  0  0  0  0  0  0  0  0  0  0  0
  1  2  2  0  0  0  0
  1  4  1  0  0  0  0
  1 12  1  0  0  0  0
  2  6  1  0  0  0  0
  3  4  2  0  0  0  0
  3  5  1  0  0  0  0
  5  6  2  0  0  0  0
  5  9  1  0  0  0  0
  6  7  1  0  0  0  0
  7  8  1  0  0  0  0
  7 10  2  3  0  0  0
  8  9  2  0  0  0  0
 10 14  1  0  0  0  0
 11 12  1  0  0  0  0
 11 26  1  0  0  0  0
 11 30  1  0  0  0  0
 12 13  2  0  0  0  0
 14 15  1  0  0  0  0
 14 19  1  0  0  0  0
 15 16  2  0  0  0  0
 16 17  1  0  0  0  0
 17 18  1  0  0  0  0
 17 20  2  0  0  0  0
 18 19  2  0  0  0  0
 20 21  1  0  0  0  0
 20 24  1  0  0  0  0
 21 22  1  0  0  0  0
 22 23  1  0  0  0  0
 22 25  1  0  0  0  0
 23 24  2  0  0  0  0
 26 27  1  0  0  0  0
 27 28  1  0  0  0  0
 28 29  1  0  0  0  0
 29 30  1  0  0  0  0
  2 31  1  0  0  0  0
  3 32  1  0  0  0  0
  4 33  1  0  0  0  0
 10 34  1  0  0  0  0
 14 35  1  0  0  0  0
 15 36  1  0  0  0  0
 16 37  1  0  0  0  0
 18 38  1  0  0  0  0
 19 39  1  0  0  0  0
 21 40  1  0  0  0  0
 21 41  1  0  0  0  0
 24 42  1  0  0  0  0
 25 43  1  0  0  0  0
 25 44  1  0  0  0  0
 25 45  1  0  0  0  0
 26 46  1  0  0  0  0
 26 47  1  0  0  0  0
 27 48  1  0  0  0  0
 27 49  1  0  0  0  0
 29 50  1  0  0  0  0
 29 51  1  0  0  0  0
 30 52  1  0  0  0  0
 30 53  1  0  0  0  0
M  END
> <Name>
39

> <IC50[uM]>
0.004

$$$$
39
  -OEChem-05192314333D
 Structure written by MMmdl.
 53 57  0     1  0  0  0  0  0999 V2000
   -6.3502   12.3553  -12.0171 C   0  0  0  0  0  0  0  0  0  0  0  0
   -6.4935   11.7977  -10.7426 C   0  0  0  0  0  0  0  0  0  0  0  0
   -7.7106   10.5751  -13.0385 C   0  0  0  0  0  0  0  0  0  0  0  0
   -6.9725   11.7720  -13.1357 C   0  0  0  0  0  0  0  0  0  0  0  0
   -7.8130   10.0109  -11.7654 C   0  0  0  0  0  0  0  0  0  0  0  0
   -7.2309   10.6170  -10.6058 C   0  0  0  0  0  0  0  0  0  0  0  0
   -7.6111    9.7517   -9.5147 C   0  0  0  0  0  0  0  0  0  0  0  0
   -8.2865    8.7392   -9.9897 N   0  0  0  0  0  0  0  0  0  0  0  0
   -8.4152    8.8682  -11.3006 N   0  0  0  0  0  0  0  0  0  0  0  0
   -7.3373    9.8888   -8.0252 C   0  0  0  0  0  0  0  0  0  0  0  0
   -4.3541   13.7129  -11.4635 N   0  0  0  0  0  0  0  0  0  0  0  0
   -5.5361   13.6428  -12.1728 C   0  0  0  0  0  0  0  0  0  0  0  0
   -5.9526   14.5668  -12.8773 O   0  0  0  0  0  0  0  0  0  0  0  0
   -5.9623   10.4854   -7.7364 C   0  0  0  0  0  0  0  0  0  0  0  0
   -5.8532   11.7571   -7.1646 C   0  0  0  0  0  0  0  0  0  0  0  0
   -4.5945   12.3064   -6.9180 C   0  0  0  0  0  0  0  0  0  0  0  0
   -3.4446   11.5858   -7.2382 C   0  0  0  0  0  0  0  0  0  0  0  0
   -3.5555   10.3115   -7.8022 C   0  0  0  0  0  0  0  0  0  0  0  0
   -4.8126    9.7649   -8.0516 C   0  0  0  0  0  0  0  0  0  0  0  0
   -2.0930   12.1652   -6.9785 C   0  0  0  0  0  0  0  0  0  0  0  0
   -1.7427   13.4236   -6.4970 C   0  0  0  0  0  0  0  0  0  0  0  0
   -0.4061   13.4591   -6.4324 N   0  0  3  0  0  0  0  0  0  0  0  0
    0.1810   12.3567   -6.8070 N   0  0  0  0  0  0  0  0  0  0  0  0
   -0.8030   11.5520   -7.1701 C   0  0  0  0  0  0  0  0  0  0  0  0
    0.4260   14.5701   -5.9973 C   0  0  0  0  0  0  0  0  0  0  0  0
   -3.6444   15.0059  -11.3286 C   0  0  0  0  0  0  0  0  0  0  0  0
   -2.1848   14.8660  -11.7465 C   0  0  0  0  0  0  0  0  0  0  0  0
   -1.5251   13.6965  -11.2881 O   0  0  0  0  0  0  0  0  0  0  0  0
   -2.2131   12.5012  -11.6333 C   0  0  0  0  0  0  0  0  0  0  0  0
   -3.6517   12.4721  -11.0120 C   0  0  0  0  0  0  0  0  0  0  0  0
   -6.0438   12.2692   -9.8813 H   0  0  0  0  0  0  0  0  0  0  0  0
   -8.1720   10.1191  -13.9020 H   0  0  0  0  0  0  0  0  0  0  0  0
   -6.8821   12.2554  -14.0972 H   0  0  0  0  0  0  0  0  0  0  0  0
   -8.0379    9.5965   -7.2570 H   0  0  0  0  0  0  0  0  0  0  0  0
   -6.7437   12.3143   -6.9138 H   0  0  0  0  0  0  0  0  0  0  0  0
   -4.5444   13.2506   -7.4801 H   0  0  0  0  0  0  0  0  0  0  0  0
   -4.5463   12.5186   -5.8397 H   0  0  0  0  0  0  0  0  0  0  0  0
   -2.6655    9.7499   -8.0449 H   0  0  0  0  0  0  0  0  0  0  0  0
   -4.8957    8.7813   -8.4899 H   0  0  0  0  0  0  0  0  0  0  0  0
   -2.1089   14.2047   -7.1794 H   0  0  0  0  0  0  0  0  0  0  0  0
   -2.1736   13.5790   -5.4969 H   0  0  0  0  0  0  0  0  0  0  0  0
   -0.6578   10.5563   -7.5625 H   0  0  0  0  0  0  0  0  0  0  0  0
    1.4856   14.2813   -6.0588 H   0  0  0  0  0  0  0  0  0  0  0  0
    0.2449   15.4398   -6.6461 H   0  0  0  0  0  0  0  0  0  0  0  0
    0.1766   14.8298   -4.9579 H   0  0  0  0  0  0  0  0  0  0  0  0
   -4.1332   15.7546  -11.9693 H   0  0  0  0  0  0  0  0  0  0  0  0
   -3.6898   15.3350  -10.2800 H   0  0  0  0  0  0  0  0  0  0  0  0
   -2.1459   14.8676  -12.8458 H   0  0  0  0  0  0  0  0  0  0  0  0
   -1.6368   15.7375  -11.3590 H   0  0  0  0  0  0  0  0  0  0  0  0
   -2.2945   12.4382  -12.7285 H   0  0  0  0  0  0  0  0  0  0  0  0
   -1.6432   11.6386  -11.2578 H   0  0  0  0  0  0  0  0  0  0  0  0
   -3.5876   12.4537   -9.9140 H   0  0  0  0  0  0  0  0  0  0  0  0
   -4.1956   11.5825  -11.3625 H   0  0  0  0  0  0  0  0  0  0  0  0
  1  2  2  0  0  0  0
  1  4  1  0  0  0  0
  1 12  1  0  0  0  0
  2  6  1  0  0  0  0
  3  4  2  0  0  0  0
  3  5  1  0  0  0  0
  5  6  2  0  0  0  0
  5  9  1  0  0  0  0
  6  7  1  0  0  0  0
  7  8  1  0  0  0  0
  7 10  2  3  0  0  0
  8  9  2  0  0  0  0
 10 14  1  0  0  0  0
 11 12  1  0  0  0  0
 11 26  1  0  0  0  0
 11 30  1  0  0  0  0
 12 13  2  0  0  0  0
 14 15  2  0  0  0  0
 14 19  1  0  0  0  0
 15 16  1  0  0  0  0
 16 17  1  0  0  0  0
 17 18  1  0  0  0  0
 17 20  2  0  0  0  0
 18 19  2  0  0  0  0
 20 21  1  0  0  0  0
 20 24  1  0  0  0  0
 21 22  1  0  0  0  0
 22 23  1  0  0  0  0
 22 25  1  0  0  0  0
 23 24  2  0  0  0  0
 26 27  1  0  0  0  0
 27 28  1  0  0  0  0
 28 29  1  0  0  0  0
 29 30  1  0  0  0  0
  2 31  1  0  0  0  0
  3 32  1  0  0  0  0
  4 33  1  0  0  0  0
 10 34  1  0  0  0  0
 15 35  1  0  0  0  0
 16 36  1  0  0  0  0
 16 37  1  0  0  0  0
 18 38  1  0  0  0  0
 19 39  1  0  0  0  0
 21 40  1  0  0  0  0
 21 41  1  0  0  0  0
 24 42  1  0  0  0  0
 25 43  1  0  0  0  0
 25 44  1  0  0  0  0
 25 45  1  0  0  0  0
 26 46  1  0  0  0  0
 26 47  1  0  0  0  0
 27 48  1  0  0  0  0
 27 49  1  0  0  0  0
 29 50  1  0  0  0  0
 29 51  1  0  0  0  0
 30 52  1  0  0  0  0
 30 53  1  0  0  0  0
M  END
> <Name>
39

> <IC50[uM]>
0.004

$$$$
39
  -OEChem-05192314333D
 Structure written by MMmdl.
 53 57  0     1  0  0  0  0  0999 V2000
   -6.3502   12.3553  -12.0171 C   0  0  3  0  0  0  0  0  0  0  0  0
   -6.4935   11.7977  -10.7426 C   0  0  0  0  0  0  0  0  0  0  0  0
   -7.7106   10.5751  -13.0385 C   0  0  0  0  0  0  0  0  0  0  0  0
   -6.9725   11.7720  -13.1357 C   0  0  0  0  0  0  0  0  0  0  0  0
   -7.8130   10.0109  -11.7654 C   0  0  0  0  0  0  0  0  0  0  0  0
   -7.2309   10.6170  -10.6058 C   0  0  0  0  0  0  0  0  0  0  0  0
   -7.6111    9.7517   -9.5147 C   0  0  0  0  0  0  0  0  0  0  0  0
   -8.2865    8.7392   -9.9897 N   0  0  0  0  0  0  0  0  0  0  0  0
   -8.4152    8.8682  -11.3006 N   0  0  0  0  0  0  0  0  0  0  0  0
   -7.3373    9.8888   -8.0252 C   0  0  0  0  0  0  0  0  0  0  0  0
   -4.3541   13.7129  -11.4635 N   0  0  0  0  0  0  0  0  0  0  0  0
   -5.5361   13.6428  -12.1728 C   0  0  0  0  0  0  0  0  0  0  0  0
   -5.9526   14.5668  -12.8773 O   0  0  0  0  0  0  0  0  0  0  0  0
   -5.9623   10.4854   -7.7364 C   0  0  0  0  0  0  0  0  0  0  0  0
   -5.8532   11.7571   -7.1646 C   0  0  0  0  0  0  0  0  0  0  0  0
   -4.5945   12.3064   -6.9180 C   0  0  0  0  0  0  0  0  0  0  0  0
   -3.4446   11.5858   -7.2382 C   0  0  0  0  0  0  0  0  0  0  0  0
   -3.5555   10.3115   -7.8022 C   0  0  0  0  0  0  0  0  0  0  0  0
   -4.8126    9.7649   -8.0516 C   0  0  0  0  0  0  0  0  0  0  0  0
   -2.0930   12.1652   -6.9785 C   0  0  0  0  0  0  0  0  0  0  0  0
   -1.7427   13.4236   -6.4970 C   0  0  0  0  0  0  0  0  0  0  0  0
   -0.4061   13.4591   -6.4324 N   0  0  3  0  0  0  0  0  0  0  0  0
    0.1810   12.3567   -6.8070 N   0  0  0  0  0  0  0  0  0  0  0  0
   -0.8030   11.5520   -7.1701 C   0  0  0  0  0  0  0  0  0  0  0  0
    0.4260   14.5701   -5.9973 C   0  0  0  0  0  0  0  0  0  0  0  0
   -3.6444   15.0059  -11.3286 C   0  0  0  0  0  0  0  0  0  0  0  0
   -2.1848   14.8660  -11.7465 C   0  0  0  0  0  0  0  0  0  0  0  0
   -1.5251   13.6965  -11.2881 O   0  0  0  0  0  0  0  0  0  0  0  0
   -2.2131   12.5012  -11.6333 C   0  0  0  0  0  0  0  0  0  0  0  0
   -3.6517   12.4721  -11.0120 C   0  0  0  0  0  0  0  0  0  0  0  0
   -5.4473   11.7517  -12.1914 H   0  0  0  0  0  0  0  0  0  0  0  0
   -6.0438   12.2692   -9.8813 H   0  0  0  0  0  0  0  0  0  0  0  0
   -8.1720   10.1191  -13.9020 H   0  0  0  0  0  0  0  0  0  0  0  0
   -6.8821   12.2554  -14.0972 H   0  0  0  0  0  0  0  0  0  0  0  0
   -8.0379    9.5965   -7.2570 H   0  0  0  0  0  0  0  0  0  0  0  0
   -6.7437   12.3143   -6.9138 H   0  0  0  0  0  0  0  0  0  0  0  0
   -4.5109   13.2897   -6.4791 H   0  0  0  0  0  0  0  0  0  0  0  0
   -2.6655    9.7499   -8.0449 H   0  0  0  0  0  0  0  0  0  0  0  0
   -4.8957    8.7813   -8.4899 H   0  0  0  0  0  0  0  0  0  0  0  0
   -2.1089   14.2047   -7.1794 H   0  0  0  0  0  0  0  0  0  0  0  0
   -2.1736   13.5790   -5.4969 H   0  0  0  0  0  0  0  0  0  0  0  0
   -0.6578   10.5563   -7.5625 H   0  0  0  0  0  0  0  0  0  0  0  0
    1.4856   14.2813   -6.0588 H   0  0  0  0  0  0  0  0  0  0  0  0
    0.2449   15.4398   -6.6461 H   0  0  0  0  0  0  0  0  0  0  0  0
    0.1766   14.8298   -4.9579 H   0  0  0  0  0  0  0  0  0  0  0  0
   -4.1332   15.7546  -11.9693 H   0  0  0  0  0  0  0  0  0  0  0  0
   -3.6898   15.3350  -10.2800 H   0  0  0  0  0  0  0  0  0  0  0  0
   -2.1459   14.8676  -12.8458 H   0  0  0  0  0  0  0  0  0  0  0  0
   -1.6368   15.7375  -11.3590 H   0  0  0  0  0  0  0  0  0  0  0  0
   -2.2945   12.4382  -12.7285 H   0  0  0  0  0  0  0  0  0  0  0  0
   -1.6432   11.6386  -11.2578 H   0  0  0  0  0  0  0  0  0  0  0  0
   -3.5876   12.4537   -9.9140 H   0  0  0  0  0  0  0  0  0  0  0  0
   -4.1956   11.5825  -11.3625 H   0  0  0  0  0  0  0  0  0  0  0  0
  1  2  1  0  0  0  0
  1  4  1  0  0  0  0
  1 12  1  0  0  0  0
  2  6  2  0  0  0  0
  3  4  2  0  0  0  0
  3  5  1  0  0  0  0
  5  6  1  0  0  0  0
  5  9  2  0  0  0  0
  6  7  1  0  0  0  0
  7  8  2  0  0  0  0
  7 10  1  0  0  0  0
  8  9  1  0  0  0  0
 10 14  2  0  0  0  0
 11 12  1  0  0  0  0
 11 26  1  0  0  0  0
 11 30  1  0  0  0  0
 12 13  2  0  0  0  0
 14 15  1  0  0  0  0
 14 19  1  0  0  0  0
 15 16  2  0  0  0  0
 16 17  1  0  0  0  0
 17 18  1  0  0  0  0
 17 20  2  0  0  0  0
 18 19  2  0  0  0  0
 20 21  1  0  0  0  0
 20 24  1  0  0  0  0
 21 22  1  0  0  0  0
 22 23  1  0  0  0  0
 22 25  1  0  0  0  0
 23 24  2  0  0  0  0
 26 27  1  0  0  0  0
 27 28  1  0  0  0  0
 28 29  1  0  0  0  0
 29 30  1  0  0  0  0
  1 31  1  0  0  0  0
  2 32  1  0  0  0  0
  3 33  1  0  0  0  0
  4 34  1  0  0  0  0
 10 35  1  0  0  0  0
 15 36  1  0  0  0  0
 16 37  1  0  0  0  0
 18 38  1  0  0  0  0
 19 39  1  0  0  0  0
 21 40  1  0  0  0  0
 21 41  1  0  0  0  0
 24 42  1  0  0  0  0
 25 43  1  0  0  0  0
 25 44  1  0  0  0  0
 25 45  1  0  0  0  0
 26 46  1  0  0  0  0
 26 47  1  0  0  0  0
 27 48  1  0  0  0  0
 27 49  1  0  0  0  0
 29 50  1  0  0  0  0
 29 51  1  0  0  0  0
 30 52  1  0  0  0  0
 30 53  1  0  0  0  0
M  END
> <Name>
39

> <IC50[uM]>
0.004

$$$$
39
  -OEChem-05192314333D
 Structure written by MMmdl.
 53 57  0     1  0  0  0  0  0999 V2000
   -6.3502   12.3553  -12.0171 C   0  0  0  0  0  0  0  0  0  0  0  0
   -6.4935   11.7977  -10.7426 C   0  0  0  0  0  0  0  0  0  0  0  0
   -7.7106   10.5751  -13.0385 C   0  0  0  0  0  0  0  0  0  0  0  0
   -6.9725   11.7720  -13.1357 C   0  0  0  0  0  0  0  0  0  0  0  0
   -7.8130   10.0109  -11.7654 C   0  0  0  0  0  0  0  0  0  0  0  0
   -7.2309   10.6170  -10.6058 C   0  0  3  0  0  0  0  0  0  0  0  0
   -7.6111    9.7517   -9.5147 C   0  0  0  0  0  0  0  0  0  0  0  0
   -8.2865    8.7392   -9.9897 N   0  0  0  0  0  0  0  0  0  0  0  0
   -8.4152    8.8682  -11.3006 N   0  0  0  0  0  0  0  0  0  0  0  0
   -7.3373    9.8888   -8.0252 C   0  0  0  0  0  0  0  0  0  0  0  0
   -4.3541   13.7129  -11.4635 N   0  0  0  0  0  0  0  0  0  0  0  0
   -5.5361   13.6428  -12.1728 C   0  0  0  0  0  0  0  0  0  0  0  0
   -5.9526   14.5668  -12.8773 O   0  0  0  0  0  0  0  0  0  0  0  0
   -5.9623   10.4854   -7.7364 C   0  0  0  0  0  0  0  0  0  0  0  0
   -5.8532   11.7571   -7.1646 C   0  0  0  0  0  0  0  0  0  0  0  0
   -4.5945   12.3064   -6.9180 C   0  0  0  0  0  0  0  0  0  0  0  0
   -3.4446   11.5858   -7.2382 C   0  0  0  0  0  0  0  0  0  0  0  0
   -3.5555   10.3115   -7.8022 C   0  0  0  0  0  0  0  0  0  0  0  0
   -4.8126    9.7649   -8.0516 C   0  0  0  0  0  0  0  0  0  0  0  0
   -2.0930   12.1652   -6.9785 C   0  0  0  0  0  0  0  0  0  0  0  0
   -1.7427   13.4236   -6.4970 C   0  0  0  0  0  0  0  0  0  0  0  0
   -0.4061   13.4591   -6.4324 N   0  0  3  0  0  0  0  0  0  0  0  0
    0.1810   12.3567   -6.8070 N   0  0  0  0  0  0  0  0  0  0  0  0
   -0.8030   11.5520   -7.1701 C   0  0  0  0  0  0  0  0  0  0  0  0
    0.4260   14.5701   -5.9973 C   0  0  0  0  0  0  0  0  0  0  0  0
   -3.6444   15.0059  -11.3286 C   0  0  0  0  0  0  0  0  0  0  0  0
   -2.1848   14.8660  -11.7465 C   0  0  0  0  0  0  0  0  0  0  0  0
   -1.5251   13.6965  -11.2881 O   0  0  0  0  0  0  0  0  0  0  0  0
   -2.2131   12.5012  -11.6333 C   0  0  0  0  0  0  0  0  0  0  0  0
   -3.6517   12.4721  -11.0120 C   0  0  0  0  0  0  0  0  0  0  0  0
   -6.0438   12.2692   -9.8813 H   0  0  0  0  0  0  0  0  0  0  0  0
   -8.1720   10.1191  -13.9020 H   0  0  0  0  0  0  0  0  0  0  0  0
   -6.8821   12.2554  -14.0972 H   0  0  0  0  0  0  0  0  0  0  0  0
   -6.3150   10.0266  -10.7560 H   0  0  0  0  0  0  0  0  0  0  0  0
   -8.0379    9.5965   -7.2570 H   0  0  0  0  0  0  0  0  0  0  0  0
   -6.7437   12.3143   -6.9138 H   0  0  0  0  0  0  0  0  0  0  0  0
   -4.5109   13.2897   -6.4791 H   0  0  0  0  0  0  0  0  0  0  0  0
   -2.6655    9.7499   -8.0449 H   0  0  0  0  0  0  0  0  0  0  0  0
   -4.8957    8.7813   -8.4899 H   0  0  0  0  0  0  0  0  0  0  0  0
   -2.1089   14.2047   -7.1794 H   0  0  0  0  0  0  0  0  0  0  0  0
   -2.1736   13.5790   -5.4969 H   0  0  0  0  0  0  0  0  0  0  0  0
   -0.6578   10.5563   -7.5625 H   0  0  0  0  0  0  0  0  0  0  0  0
    1.4856   14.2813   -6.0588 H   0  0  0  0  0  0  0  0  0  0  0  0
    0.2449   15.4398   -6.6461 H   0  0  0  0  0  0  0  0  0  0  0  0
    0.1766   14.8298   -4.9579 H   0  0  0  0  0  0  0  0  0  0  0  0
   -4.1332   15.7546  -11.9693 H   0  0  0  0  0  0  0  0  0  0  0  0
   -3.6898   15.3350  -10.2800 H   0  0  0  0  0  0  0  0  0  0  0  0
   -2.1459   14.8676  -12.8458 H   0  0  0  0  0  0  0  0  0  0  0  0
   -1.6368   15.7375  -11.3590 H   0  0  0  0  0  0  0  0  0  0  0  0
   -2.2945   12.4382  -12.7285 H   0  0  0  0  0  0  0  0  0  0  0  0
   -1.6432   11.6386  -11.2578 H   0  0  0  0  0  0  0  0  0  0  0  0
   -3.5876   12.4537   -9.9140 H   0  0  0  0  0  0  0  0  0  0  0  0
   -4.1956   11.5825  -11.3625 H   0  0  0  0  0  0  0  0  0  0  0  0
  1  2  2  0  0  0  0
  1  4  1  0  0  0  0
  1 12  1  0  0  0  0
  2  6  1  0  0  0  0
  3  4  2  0  0  0  0
  3  5  1  0  0  0  0
  5  6  1  0  0  0  0
  5  9  2  0  0  0  0
  6  7  1  0  0  0  0
  7  8  2  0  0  0  0
  7 10  1  0  0  0  0
  8  9  1  0  0  0  0
 10 14  2  0  0  0  0
 11 12  1  0  0  0  0
 11 26  1  0  0  0  0
 11 30  1  0  0  0  0
 12 13  2  0  0  0  0
 14 15  1  0  0  0  0
 14 19  1  0  0  0  0
 15 16  2  0  0  0  0
 16 17  1  0  0  0  0
 17 18  1  0  0  0  0
 17 20  2  0  0  0  0
 18 19  2  0  0  0  0
 20 21  1  0  0  0  0
 20 24  1  0  0  0  0
 21 22  1  0  0  0  0
 22 23  1  0  0  0  0
 22 25  1  0  0  0  0
 23 24  2  0  0  0  0
 26 27  1  0  0  0  0
 27 28  1  0  0  0  0
 28 29  1  0  0  0  0
 29 30  1  0  0  0  0
  2 31  1  0  0  0  0
  3 32  1  0  0  0  0
  4 33  1  0  0  0  0
  6 34  1  0  0  0  0
 10 35  1  0  0  0  0
 15 36  1  0  0  0  0
 16 37  1  0  0  0  0
 18 38  1  0  0  0  0
 19 39  1  0  0  0  0
 21 40  1  0  0  0  0
 21 41  1  0  0  0  0
 24 42  1  0  0  0  0
 25 43  1  0  0  0  0
 25 44  1  0  0  0  0
 25 45  1  0  0  0  0
 26 46  1  0  0  0  0
 26 47  1  0  0  0  0
 27 48  1  0  0  0  0
 27 49  1  0  0  0  0
 29 50  1  0  0  0  0
 29 51  1  0  0  0  0
 30 52  1  0  0  0  0
 30 53  1  0  0  0  0
M  END
> <Name>
39

> <IC50[uM]>
0.004

$$$$
39
  -OEChem-05192314333D
 Structure written by MMmdl.
 53 57  0     1  0  0  0  0  0999 V2000
   -6.3502   12.3553  -12.0171 C   0  0  0  0  0  0  0  0  0  0  0  0
   -6.4935   11.7977  -10.7426 C   0  0  0  0  0  0  0  0  0  0  0  0
   -7.7106   10.5751  -13.0385 C   0  0  0  0  0  0  0  0  0  0  0  0
   -6.9725   11.7720  -13.1357 C   0  0  0  0  0  0  0  0  0  0  0  0
   -7.8130   10.0109  -11.7654 C   0  0  0  0  0  0  0  0  0  0  0  0
   -7.2309   10.6170  -10.6058 C   0  0  0  0  0  0  0  0  0  0  0  0
   -7.6111    9.7517   -9.5147 C   0  0  0  0  0  0  0  0  0  0  0  0
   -8.2865    8.7392   -9.9897 N   0  0  0  0  0  0  0  0  0  0  0  0
   -8.4152    8.8682  -11.3006 N   0  0  0  0  0  0  0  0  0  0  0  0
   -7.3373    9.8888   -8.0252 C   0  0  0  0  0  0  0  0  0  0  0  0
   -4.3541   13.7129  -11.4635 N   0  0  0  0  0  0  0  0  0  0  0  0
   -5.5361   13.6428  -12.1728 C   0  0  0  0  0  0  0  0  0  0  0  0
   -5.9526   14.5668  -12.8773 O   0  0  0  0  0  0  0  0  0  0  0  0
   -5.9623   10.4854   -7.7364 C   0  0  0  0  0  0  0  0  0  0  0  0
   -5.8532   11.7571   -7.1646 C   0  0  0  0  0  0  0  0  0  0  0  0
   -4.5945   12.3064   -6.9180 C   0  0  0  0  0  0  0  0  0  0  0  0
   -3.4446   11.5858   -7.2382 C   0  0  0  0  0  0  0  0  0  0  0  0
   -3.5555   10.3115   -7.8022 C   0  0  0  0  0  0  0  0  0  0  0  0
   -4.8126    9.7649   -8.0516 C   0  0  0  0  0  0  0  0  0  0  0  0
   -2.0930   12.1652   -6.9785 C   0  0  0  0  0  0  0  0  0  0  0  0
   -1.7427   13.4236   -6.4970 C   0  0  0  0  0  0  0  0  0  0  0  0
   -0.4061   13.4591   -6.4324 N   0  0  3  0  0  0  0  0  0  0  0  0
    0.1810   12.3567   -6.8070 N   0  0  0  0  0  0  0  0  0  0  0  0
   -0.8030   11.5520   -7.1701 C   0  0  0  0  0  0  0  0  0  0  0  0
    0.4260   14.5701   -5.9973 C   0  0  0  0  0  0  0  0  0  0  0  0
   -3.6444   15.0059  -11.3286 C   0  0  0  0  0  0  0  0  0  0  0  0
   -2.1848   14.8660  -11.7465 C   0  0  0  0  0  0  0  0  0  0  0  0
   -1.5251   13.6965  -11.2881 O   0  0  0  0  0  0  0  0  0  0  0  0
   -2.2131   12.5012  -11.6333 C   0  0  0  0  0  0  0  0  0  0  0  0
   -3.6517   12.4721  -11.0120 C   0  0  0  0  0  0  0  0  0  0  0  0
   -6.0438   12.2692   -9.8813 H   0  0  0  0  0  0  0  0  0  0  0  0
   -8.7302   10.7806  -13.3966 H   0  0  0  0  0  0  0  0  0  0  0  0
   -7.2336    9.8333  -13.6960 H   0  0  0  0  0  0  0  0  0  0  0  0
   -6.8821   12.2554  -14.0972 H   0  0  0  0  0  0  0  0  0  0  0  0
   -8.0379    9.5965   -7.2570 H   0  0  0  0  0  0  0  0  0  0  0  0
   -6.7437   12.3143   -6.9138 H   0  0  0  0  0  0  0  0  0  0  0  0
   -4.5109   13.2897   -6.4791 H   0  0  0  0  0  0  0  0  0  0  0  0
   -2.6655    9.7499   -8.0449 H   0  0  0  0  0  0  0  0  0  0  0  0
   -4.8957    8.7813   -8.4899 H   0  0  0  0  0  0  0  0  0  0  0  0
   -2.1089   14.2047   -7.1794 H   0  0  0  0  0  0  0  0  0  0  0  0
   -2.1736   13.5790   -5.4969 H   0  0  0  0  0  0  0  0  0  0  0  0
   -0.6578   10.5563   -7.5625 H   0  0  0  0  0  0  0  0  0  0  0  0
    1.4856   14.2813   -6.0588 H   0  0  0  0  0  0  0  0  0  0  0  0
    0.2449   15.4398   -6.6461 H   0  0  0  0  0  0  0  0  0  0  0  0
    0.1766   14.8298   -4.9579 H   0  0  0  0  0  0  0  0  0  0  0  0
   -4.1332   15.7546  -11.9693 H   0  0  0  0  0  0  0  0  0  0  0  0
   -3.6898   15.3350  -10.2800 H   0  0  0  0  0  0  0  0  0  0  0  0
   -2.1459   14.8676  -12.8458 H   0  0  0  0  0  0  0  0  0  0  0  0
   -1.6368   15.7375  -11.3590 H   0  0  0  0  0  0  0  0  0  0  0  0
   -2.2945   12.4382  -12.7285 H   0  0  0  0  0  0  0  0  0  0  0  0
   -1.6432   11.6386  -11.2578 H   0  0  0  0  0  0  0  0  0  0  0  0
   -3.5876   12.4537   -9.9140 H   0  0  0  0  0  0  0  0  0  0  0  0
   -4.1956   11.5825  -11.3625 H   0  0  0  0  0  0  0  0  0  0  0  0
  1  2  1  0  0  0  0
  1  4  2  0  0  0  0
  1 12  1  0  0  0  0
  2  6  2  0  0  0  0
  3  4  1  0  0  0  0
  3  5  1  0  0  0  0
  5  6  1  0  0  0  0
  5  9  2  0  0  0  0
  6  7  1  0  0  0  0
  7  8  2  0  0  0  0
  7 10  1  0  0  0  0
  8  9  1  0  0  0  0
 10 14  2  0  0  0  0
 11 12  1  0  0  0  0
 11 26  1  0  0  0  0
 11 30  1  0  0  0  0
 12 13  2  0  0  0  0
 14 15  1  0  0  0  0
 14 19  1  0  0  0  0
 15 16  2  0  0  0  0
 16 17  1  0  0  0  0
 17 18  1  0  0  0  0
 17 20  2  0  0  0  0
 18 19  2  0  0  0  0
 20 21  1  0  0  0  0
 20 24  1  0  0  0  0
 21 22  1  0  0  0  0
 22 23  1  0  0  0  0
 22 25  1  0  0  0  0
 23 24  2  0  0  0  0
 26 27  1  0  0  0  0
 27 28  1  0  0  0  0
 28 29  1  0  0  0  0
 29 30  1  0  0  0  0
  2 31  1  0  0  0  0
  3 32  1  0  0  0  0
  3 33  1  0  0  0  0
  4 34  1  0  0  0  0
 10 35  1  0  0  0  0
 15 36  1  0  0  0  0
 16 37  1  0  0  0  0
 18 38  1  0  0  0  0
 19 39  1  0  0  0  0
 21 40  1  0  0  0  0
 21 41  1  0  0  0  0
 24 42  1  0  0  0  0
 25 43  1  0  0  0  0
 25 44  1  0  0  0  0
 25 45  1  0  0  0  0
 26 46  1  0  0  0  0
 26 47  1  0  0  0  0
 27 48  1  0  0  0  0
 27 49  1  0  0  0  0
 29 50  1  0  0  0  0
 29 51  1  0  0  0  0
 30 52  1  0  0  0  0
 30 53  1  0  0  0  0
M  END
> <Name>
39

> <IC50[uM]>
0.004

$$$$
39
  -OEChem-05192314333D
 Structure written by MMmdl.
 53 57  0     1  0  0  0  0  0999 V2000
   -6.3502   12.3553  -12.0171 C   0  0  0  0  0  0  0  0  0  0  0  0
   -6.4935   11.7977  -10.7426 C   0  0  0  0  0  0  0  0  0  0  0  0
   -7.7106   10.5751  -13.0385 C   0  0  0  0  0  0  0  0  0  0  0  0
   -6.9725   11.7720  -13.1357 C   0  0  0  0  0  0  0  0  0  0  0  0
   -7.8130   10.0109  -11.7654 C   0  0  3  0  0  0  0  0  0  0  0  0
   -7.2309   10.6170  -10.6058 C   0  0  0  0  0  0  0  0  0  0  0  0
   -7.6111    9.7517   -9.5147 C   0  0  0  0  0  0  0  0  0  0  0  0
   -8.2865    8.7392   -9.9897 N   0  0  0  0  0  0  0  0  0  0  0  0
   -8.4152    8.8682  -11.3006 N   0  0  0  0  0  0  0  0  0  0  0  0
   -7.3373    9.8888   -8.0252 C   0  0  0  0  0  0  0  0  0  0  0  0
   -4.3541   13.7129  -11.4635 N   0  0  0  0  0  0  0  0  0  0  0  0
   -5.5361   13.6428  -12.1728 C   0  0  0  0  0  0  0  0  0  0  0  0
   -5.9526   14.5668  -12.8773 O   0  0  0  0  0  0  0  0  0  0  0  0
   -5.9623   10.4854   -7.7364 C   0  0  0  0  0  0  0  0  0  0  0  0
   -5.8532   11.7571   -7.1646 C   0  0  0  0  0  0  0  0  0  0  0  0
   -4.5945   12.3064   -6.9180 C   0  0  0  0  0  0  0  0  0  0  0  0
   -3.4446   11.5858   -7.2382 C   0  0  0  0  0  0  0  0  0  0  0  0
   -3.5555   10.3115   -7.8022 C   0  0  0  0  0  0  0  0  0  0  0  0
   -4.8126    9.7649   -8.0516 C   0  0  0  0  0  0  0  0  0  0  0  0
   -2.0930   12.1652   -6.9785 C   0  0  0  0  0  0  0  0  0  0  0  0
   -1.7427   13.4236   -6.4970 C   0  0  0  0  0  0  0  0  0  0  0  0
   -0.4061   13.4591   -6.4324 N   0  0  3  0  0  0  0  0  0  0  0  0
    0.1810   12.3567   -6.8070 N   0  0  0  0  0  0  0  0  0  0  0  0
   -0.8030   11.5520   -7.1701 C   0  0  0  0  0  0  0  0  0  0  0  0
    0.4260   14.5701   -5.9973 C   0  0  0  0  0  0  0  0  0  0  0  0
   -3.6444   15.0059  -11.3286 C   0  0  0  0  0  0  0  0  0  0  0  0
   -2.1848   14.8660  -11.7465 C   0  0  0  0  0  0  0  0  0  0  0  0
   -1.5251   13.6965  -11.2881 O   0  0  0  0  0  0  0  0  0  0  0  0
   -2.2131   12.5012  -11.6333 C   0  0  0  0  0  0  0  0  0  0  0  0
   -3.6517   12.4721  -11.0120 C   0  0  0  0  0  0  0  0  0  0  0  0
   -6.0438   12.2692   -9.8813 H   0  0  0  0  0  0  0  0  0  0  0  0
   -8.1720   10.1191  -13.9020 H   0  0  0  0  0  0  0  0  0  0  0  0
   -6.8821   12.2554  -14.0972 H   0  0  0  0  0  0  0  0  0  0  0  0
   -8.7432   10.5718  -11.5916 H   0  0  0  0  0  0  0  0  0  0  0  0
   -8.0379    9.5965   -7.2570 H   0  0  0  0  0  0  0  0  0  0  0  0
   -6.7437   12.3143   -6.9138 H   0  0  0  0  0  0  0  0  0  0  0  0
   -4.5109   13.2897   -6.4791 H   0  0  0  0  0  0  0  0  0  0  0  0
   -2.6655    9.7499   -8.0449 H   0  0  0  0  0  0  0  0  0  0  0  0
   -4.8957    8.7813   -8.4899 H   0  0  0  0  0  0  0  0  0  0  0  0
   -2.1089   14.2047   -7.1794 H   0  0  0  0  0  0  0  0  0  0  0  0
   -2.1736   13.5790   -5.4969 H   0  0  0  0  0  0  0  0  0  0  0  0
   -0.6578   10.5563   -7.5625 H   0  0  0  0  0  0  0  0  0  0  0  0
    1.4856   14.2813   -6.0588 H   0  0  0  0  0  0  0  0  0  0  0  0
    0.2449   15.4398   -6.6461 H   0  0  0  0  0  0  0  0  0  0  0  0
    0.1766   14.8298   -4.9579 H   0  0  0  0  0  0  0  0  0  0  0  0
   -4.1332   15.7546  -11.9693 H   0  0  0  0  0  0  0  0  0  0  0  0
   -3.6898   15.3350  -10.2800 H   0  0  0  0  0  0  0  0  0  0  0  0
   -2.1459   14.8676  -12.8458 H   0  0  0  0  0  0  0  0  0  0  0  0
   -1.6368   15.7375  -11.3590 H   0  0  0  0  0  0  0  0  0  0  0  0
   -2.2945   12.4382  -12.7285 H   0  0  0  0  0  0  0  0  0  0  0  0
   -1.6432   11.6386  -11.2578 H   0  0  0  0  0  0  0  0  0  0  0  0
   -3.5876   12.4537   -9.9140 H   0  0  0  0  0  0  0  0  0  0  0  0
   -4.1956   11.5825  -11.3625 H   0  0  0  0  0  0  0  0  0  0  0  0
  1  2  2  0  0  0  0
  1  4  1  0  0  0  0
  1 12  1  0  0  0  0
  2  6  1  0  0  0  0
  3  4  2  0  0  0  0
  3  5  1  0  0  0  0
  5  6  1  0  0  0  0
  5  9  1  0  0  0  0
  6  7  2  0  0  0  0
  7  8  1  0  0  0  0
  7 10  1  0  0  0  0
  8  9  2  0  0  0  0
 10 14  2  0  0  0  0
 11 12  1  0  0  0  0
 11 26  1  0  0  0  0
 11 30  1  0  0  0  0
 12 13  2  0  0  0  0
 14 15  1  0  0  0  0
 14 19  1  0  0  0  0
 15 16  2  0  0  0  0
 16 17  1  0  0  0  0
 17 18  1  0  0  0  0
 17 20  2  0  0  0  0
 18 19  2  0  0  0  0
 20 21  1  0  0  0  0
 20 24  1  0  0  0  0
 21 22  1  0  0  0  0
 22 23  1  0  0  0  0
 22 25  1  0  0  0  0
 23 24  2  0  0  0  0
 26 27  1  0  0  0  0
 27 28  1  0  0  0  0
 28 29  1  0  0  0  0
 29 30  1  0  0  0  0
  2 31  1  0  0  0  0
  3 32  1  0  0  0  0
  4 33  1  0  0  0  0
  5 34  1  0  0  0  0
 10 35  1  0  0  0  0
 15 36  1  0  0  0  0
 16 37  1  0  0  0  0
 18 38  1  0  0  0  0
 19 39  1  0  0  0  0
 21 40  1  0  0  0  0
 21 41  1  0  0  0  0
 24 42  1  0  0  0  0
 25 43  1  0  0  0  0
 25 44  1  0  0  0  0
 25 45  1  0  0  0  0
 26 46  1  0  0  0  0
 26 47  1  0  0  0  0
 27 48  1  0  0  0  0
 27 49  1  0  0  0  0
 29 50  1  0  0  0  0
 29 51  1  0  0  0  0
 30 52  1  0  0  0  0
 30 53  1  0  0  0  0
M  END
> <Name>
39

> <IC50[uM]>
0.004

$$$$
39
  -OEChem-05192314333D
 Structure written by MMmdl.
 53 57  0     1  0  0  0  0  0999 V2000
   -6.3502   12.3553  -12.0171 C   0  0  0  0  0  0  0  0  0  0  0  0
   -6.4935   11.7977  -10.7426 C   0  0  0  0  0  0  0  0  0  0  0  0
   -7.7106   10.5751  -13.0385 C   0  0  0  0  0  0  0  0  0  0  0  0
   -6.9725   11.7720  -13.1357 C   0  0  0  0  0  0  0  0  0  0  0  0
   -7.8130   10.0109  -11.7654 C   0  0  0  0  0  0  0  0  0  0  0  0
   -7.2309   10.6170  -10.6058 C   0  0  0  0  0  0  0  0  0  0  0  0
   -7.6111    9.7517   -9.5147 C   0  0  0  0  0  0  0  0  0  0  0  0
   -8.2865    8.7392   -9.9897 N   0  0  0  0  0  0  0  0  0  0  0  0
   -8.4152    8.8682  -11.3006 N   0  0  0  0  0  0  0  0  0  0  0  0
   -7.3373    9.8888   -8.0252 C   0  0  0  0  0  0  0  0  0  0  0  0
   -4.3541   13.7129  -11.4635 N   0  0  0  0  0  0  0  0  0  0  0  0
   -5.5361   13.6428  -12.1728 C   0  0  0  0  0  0  0  0  0  0  0  0
   -5.9526   14.5668  -12.8773 O   0  0  0  0  0  0  0  0  0  0  0  0
   -5.9623   10.4854   -7.7364 C   0  0  0  0  0  0  0  0  0  0  0  0
   -5.8532   11.7571   -7.1646 C   0  0  0  0  0  0  0  0  0  0  0  0
   -4.5945   12.3064   -6.9180 C   0  0  0  0  0  0  0  0  0  0  0  0
   -3.4446   11.5858   -7.2382 C   0  0  0  0  0  0  0  0  0  0  0  0
   -3.5555   10.3115   -7.8022 C   0  0  0  0  0  0  0  0  0  0  0  0
   -4.8126    9.7649   -8.0516 C   0  0  0  0  0  0  0  0  0  0  0  0
   -2.0930   12.1652   -6.9785 C   0  0  0  0  0  0  0  0  0  0  0  0
   -1.7427   13.4236   -6.4970 C   0  0  0  0  0  0  0  0  0  0  0  0
   -0.4061   13.4591   -6.4324 N   0  0  3  0  0  0  0  0  0  0  0  0
    0.1810   12.3567   -6.8070 N   0  0  0  0  0  0  0  0  0  0  0  0
   -0.8030   11.5520   -7.1701 C   0  0  0  0  0  0  0  0  0  0  0  0
    0.4260   14.5701   -5.9973 C   0  0  0  0  0  0  0  0  0  0  0  0
   -3.6444   15.0059  -11.3286 C   0  0  0  0  0  0  0  0  0  0  0  0
   -2.1848   14.8660  -11.7465 C   0  0  0  0  0  0  0  0  0  0  0  0
   -1.5251   13.6965  -11.2881 O   0  0  0  0  0  0  0  0  0  0  0  0
   -2.2131   12.5012  -11.6333 C   0  0  0  0  0  0  0  0  0  0  0  0
   -3.6517   12.4721  -11.0120 C   0  0  0  0  0  0  0  0  0  0  0  0
   -6.0438   12.2692   -9.8813 H   0  0  0  0  0  0  0  0  0  0  0  0
   -8.1720   10.1191  -13.9020 H   0  0  0  0  0  0  0  0  0  0  0  0
   -7.6642   12.5292  -13.5334 H   0  0  0  0  0  0  0  0  0  0  0  0
   -6.1745   11.5833  -13.8689 H   0  0  0  0  0  0  0  0  0  0  0  0
   -8.0379    9.5965   -7.2570 H   0  0  0  0  0  0  0  0  0  0  0  0
   -6.7437   12.3143   -6.9138 H   0  0  0  0  0  0  0  0  0  0  0  0
   -4.5109   13.2897   -6.4791 H   0  0  0  0  0  0  0  0  0  0  0  0
   -2.6655    9.7499   -8.0449 H   0  0  0  0  0  0  0  0  0  0  0  0
   -4.8957    8.7813   -8.4899 H   0  0  0  0  0  0  0  0  0  0  0  0
   -2.1089   14.2047   -7.1794 H   0  0  0  0  0  0  0  0  0  0  0  0
   -2.1736   13.5790   -5.4969 H   0  0  0  0  0  0  0  0  0  0  0  0
   -0.6578   10.5563   -7.5625 H   0  0  0  0  0  0  0  0  0  0  0  0
    1.4856   14.2813   -6.0588 H   0  0  0  0  0  0  0  0  0  0  0  0
    0.2449   15.4398   -6.6461 H   0  0  0  0  0  0  0  0  0  0  0  0
    0.1766   14.8298   -4.9579 H   0  0  0  0  0  0  0  0  0  0  0  0
   -4.1332   15.7546  -11.9693 H   0  0  0  0  0  0  0  0  0  0  0  0
   -3.6898   15.3350  -10.2800 H   0  0  0  0  0  0  0  0  0  0  0  0
   -2.1459   14.8676  -12.8458 H   0  0  0  0  0  0  0  0  0  0  0  0
   -1.6368   15.7375  -11.3590 H   0  0  0  0  0  0  0  0  0  0  0  0
   -2.2945   12.4382  -12.7285 H   0  0  0  0  0  0  0  0  0  0  0  0
   -1.6432   11.6386  -11.2578 H   0  0  0  0  0  0  0  0  0  0  0  0
   -3.5876   12.4537   -9.9140 H   0  0  0  0  0  0  0  0  0  0  0  0
   -4.1956   11.5825  -11.3625 H   0  0  0  0  0  0  0  0  0  0  0  0
  1  2  2  0  0  0  0
  1  4  1  0  0  0  0
  1 12  1  0  0  0  0
  2  6  1  0  0  0  0
  3  4  1  0  0  0  0
  3  5  2  0  0  0  0
  5  6  1  0  0  0  0
  5  9  1  0  0  0  0
  6  7  2  0  0  0  0
  7  8  1  0  0  0  0
  7 10  1  0  0  0  0
  8  9  2  0  0  0  0
 10 14  2  0  0  0  0
 11 12  1  0  0  0  0
 11 26  1  0  0  0  0
 11 30  1  0  0  0  0
 12 13  2  0  0  0  0
 14 15  1  0  0  0  0
 14 19  1  0  0  0  0
 15 16  2  0  0  0  0
 16 17  1  0  0  0  0
 17 18  1  0  0  0  0
 17 20  2  0  0  0  0
 18 19  2  0  0  0  0
 20 21  1  0  0  0  0
 20 24  1  0  0  0  0
 21 22  1  0  0  0  0
 22 23  1  0  0  0  0
 22 25  1  0  0  0  0
 23 24  2  0  0  0  0
 26 27  1  0  0  0  0
 27 28  1  0  0  0  0
 28 29  1  0  0  0  0
 29 30  1  0  0  0  0
  2 31  1  0  0  0  0
  3 32  1  0  0  0  0
  4 33  1  0  0  0  0
  4 34  1  0  0  0  0
 10 35  1  0  0  0  0
 15 36  1  0  0  0  0
 16 37  1  0  0  0  0
 18 38  1  0  0  0  0
 19 39  1  0  0  0  0
 21 40  1  0  0  0  0
 21 41  1  0  0  0  0
 24 42  1  0  0  0  0
 25 43  1  0  0  0  0
 25 44  1  0  0  0  0
 25 45  1  0  0  0  0
 26 46  1  0  0  0  0
 26 47  1  0  0  0  0
 27 48  1  0  0  0  0
 27 49  1  0  0  0  0
 29 50  1  0  0  0  0
 29 51  1  0  0  0  0
 30 52  1  0  0  0  0
 30 53  1  0  0  0  0
M  END
> <Name>
39

> <IC50[uM]>
0.004

$$$$
39
  -OEChem-05192314333D
 Structure written by MMmdl.
 53 57  0     1  0  0  0  0  0999 V2000
   -6.3502   12.3553  -12.0171 C   0  0  0  0  0  0  0  0  0  0  0  0
   -6.4935   11.7977  -10.7426 C   0  0  0  0  0  0  0  0  0  0  0  0
   -7.7106   10.5751  -13.0385 C   0  0  0  0  0  0  0  0  0  0  0  0
   -6.9725   11.7720  -13.1357 C   0  0  0  0  0  0  0  0  0  0  0  0
   -7.8130   10.0109  -11.7654 C   0  0  0  0  0  0  0  0  0  0  0  0
   -7.2309   10.6170  -10.6058 C   0  0  0  0  0  0  0  0  0  0  0  0
   -7.6111    9.7517   -9.5147 C   0  0  0  0  0  0  0  0  0  0  0  0
   -8.2865    8.7392   -9.9897 N   0  0  0  0  0  0  0  0  0  0  0  0
   -8.4152    8.8682  -11.3006 N   0  0  0  0  0  0  0  0  0  0  0  0
   -7.3373    9.8888   -8.0252 C   0  0  0  0  0  0  0  0  0  0  0  0
   -4.3541   13.7129  -11.4635 N   0  0  0  0  0  0  0  0  0  0  0  0
   -5.5361   13.6428  -12.1728 C   0  0  0  0  0  0  0  0  0  0  0  0
   -5.9526   14.5668  -12.8773 O   0  0  0  0  0  0  0  0  0  0  0  0
   -5.9623   10.4854   -7.7364 C   0  0  0  0  0  0  0  0  0  0  0  0
   -5.8532   11.7571   -7.1646 C   0  0  0  0  0  0  0  0  0  0  0  0
   -4.5945   12.3064   -6.9180 C   0  0  0  0  0  0  0  0  0  0  0  0
   -3.4446   11.5858   -7.2382 C   0  0  0  0  0  0  0  0  0  0  0  0
   -3.5555   10.3115   -7.8022 C   0  0  0  0  0  0  0  0  0  0  0  0
   -4.8126    9.7649   -8.0516 C   0  0  0  0  0  0  0  0  0  0  0  0
   -2.0930   12.1652   -6.9785 C   0  0  0  0  0  0  0  0  0  0  0  0
   -1.7427   13.4236   -6.4970 C   0  0  0  0  0  0  0  0  0  0  0  0
   -0.4061   13.4591   -6.4324 N   0  0  3  0  0  0  0  0  0  0  0  0
    0.1810   12.3567   -6.8070 N   0  0  0  0  0  0  0  0  0  0  0  0
   -0.8030   11.5520   -7.1701 C   0  0  0  0  0  0  0  0  0  0  0  0
    0.4260   14.5701   -5.9973 C   0  0  0  0  0  0  0  0  0  0  0  0
   -3.6444   15.0059  -11.3286 C   0  0  0  0  0  0  0  0  0  0  0  0
   -2.1848   14.8660  -11.7465 C   0  0  0  0  0  0  0  0  0  0  0  0
   -1.5251   13.6965  -11.2881 O   0  0  0  0  0  0  0  0  0  0  0  0
   -2.2131   12.5012  -11.6333 C   0  0  0  0  0  0  0  0  0  0  0  0
   -3.6517   12.4721  -11.0120 C   0  0  0  0  0  0  0  0  0  0  0  0
   -5.4816   11.5935  -10.3627 H   0  0  0  0  0  0  0  0  0  0  0  0
   -6.9766   12.5565  -10.1095 H   0  0  0  0  0  0  0  0  0  0  0  0
   -8.1720   10.1191  -13.9020 H   0  0  0  0  0  0  0  0  0  0  0  0
   -6.8821   12.2554  -14.0972 H   0  0  0  0  0  0  0  0  0  0  0  0
   -8.0379    9.5965   -7.2570 H   0  0  0  0  0  0  0  0  0  0  0  0
   -6.7437   12.3143   -6.9138 H   0  0  0  0  0  0  0  0  0  0  0  0
   -4.5109   13.2897   -6.4791 H   0  0  0  0  0  0  0  0  0  0  0  0
   -2.6655    9.7499   -8.0449 H   0  0  0  0  0  0  0  0  0  0  0  0
   -4.8957    8.7813   -8.4899 H   0  0  0  0  0  0  0  0  0  0  0  0
   -2.1089   14.2047   -7.1794 H   0  0  0  0  0  0  0  0  0  0  0  0
   -2.1736   13.5790   -5.4969 H   0  0  0  0  0  0  0  0  0  0  0  0
   -0.6578   10.5563   -7.5625 H   0  0  0  0  0  0  0  0  0  0  0  0
    1.4856   14.2813   -6.0588 H   0  0  0  0  0  0  0  0  0  0  0  0
    0.2449   15.4398   -6.6461 H   0  0  0  0  0  0  0  0  0  0  0  0
    0.1766   14.8298   -4.9579 H   0  0  0  0  0  0  0  0  0  0  0  0
   -4.1332   15.7546  -11.9693 H   0  0  0  0  0  0  0  0  0  0  0  0
   -3.6898   15.3350  -10.2800 H   0  0  0  0  0  0  0  0  0  0  0  0
   -2.1459   14.8676  -12.8458 H   0  0  0  0  0  0  0  0  0  0  0  0
   -1.6368   15.7375  -11.3590 H   0  0  0  0  0  0  0  0  0  0  0  0
   -2.2945   12.4382  -12.7285 H   0  0  0  0  0  0  0  0  0  0  0  0
   -1.6432   11.6386  -11.2578 H   0  0  0  0  0  0  0  0  0  0  0  0
   -3.5876   12.4537   -9.9140 H   0  0  0  0  0  0  0  0  0  0  0  0
   -4.1956   11.5825  -11.3625 H   0  0  0  0  0  0  0  0  0  0  0  0
  1  2  1  0  0  0  0
  1  4  2  0  0  0  0
  1 12  1  0  0  0  0
  2  6  1  0  0  0  0
  3  4  1  0  0  0  0
  3  5  2  0  0  0  0
  5  6  1  0  0  0  0
  5  9  1  0  0  0  0
  6  7  2  0  0  0  0
  7  8  1  0  0  0  0
  7 10  1  0  0  0  0
  8  9  2  0  0  0  0
 10 14  2  0  0  0  0
 11 12  1  0  0  0  0
 11 26  1  0  0  0  0
 11 30  1  0  0  0  0
 12 13  2  0  0  0  0
 14 15  1  0  0  0  0
 14 19  1  0  0  0  0
 15 16  2  0  0  0  0
 16 17  1  0  0  0  0
 17 18  1  0  0  0  0
 17 20  2  0  0  0  0
 18 19  2  0  0  0  0
 20 21  1  0  0  0  0
 20 24  1  0  0  0  0
 21 22  1  0  0  0  0
 22 23  1  0  0  0  0
 22 25  1  0  0  0  0
 23 24  2  0  0  0  0
 26 27  1  0  0  0  0
 27 28  1  0  0  0  0
 28 29  1  0  0  0  0
 29 30  1  0  0  0  0
  2 31  1  0  0  0  0
  2 32  1  0  0  0  0
  3 33  1  0  0  0  0
  4 34  1  0  0  0  0
 10 35  1  0  0  0  0
 15 36  1  0  0  0  0
 16 37  1  0  0  0  0
 18 38  1  0  0  0  0
 19 39  1  0  0  0  0
 21 40  1  0  0  0  0
 21 41  1  0  0  0  0
 24 42  1  0  0  0  0
 25 43  1  0  0  0  0
 25 44  1  0  0  0  0
 25 45  1  0  0  0  0
 26 46  1  0  0  0  0
 26 47  1  0  0  0  0
 27 48  1  0  0  0  0
 27 49  1  0  0  0  0
 29 50  1  0  0  0  0
 29 51  1  0  0  0  0
 30 52  1  0  0  0  0
 30 53  1  0  0  0  0
M  END
> <Name>
39

> <IC50[uM]>
0.004

$$$$
39
  -OEChem-05192314333D
 Structure written by MMmdl.
 53 57  0     1  0  0  0  0  0999 V2000
   -6.3502   12.3553  -12.0171 C   0  0  3  0  0  0  0  0  0  0  0  0
   -6.4935   11.7977  -10.7426 C   0  0  0  0  0  0  0  0  0  0  0  0
   -7.7106   10.5751  -13.0385 C   0  0  0  0  0  0  0  0  0  0  0  0
   -6.9725   11.7720  -13.1357 C   0  0  0  0  0  0  0  0  0  0  0  0
   -7.8130   10.0109  -11.7654 C   0  0  0  0  0  0  0  0  0  0  0  0
   -7.2309   10.6170  -10.6058 C   0  0  0  0  0  0  0  0  0  0  0  0
   -7.6111    9.7517   -9.5147 C   0  0  0  0  0  0  0  0  0  0  0  0
   -8.2865    8.7392   -9.9897 N   0  0  0  0  0  0  0  0  0  0  0  0
   -8.4152    8.8682  -11.3006 N   0  0  0  0  0  0  0  0  0  0  0  0
   -7.3373    9.8888   -8.0252 C   0  0  0  0  0  0  0  0  0  0  0  0
   -4.3541   13.7129  -11.4635 N   0  0  0  0  0  0  0  0  0  0  0  0
   -5.5361   13.6428  -12.1728 C   0  0  0  0  0  0  0  0  0  0  0  0
   -5.9526   14.5668  -12.8773 O   0  0  0  0  0  0  0  0  0  0  0  0
   -5.9623   10.4854   -7.7364 C   0  0  0  0  0  0  0  0  0  0  0  0
   -5.8532   11.7571   -7.1646 C   0  0  0  0  0  0  0  0  0  0  0  0
   -4.5945   12.3064   -6.9180 C   0  0  0  0  0  0  0  0  0  0  0  0
   -3.4446   11.5858   -7.2382 C   0  0  0  0  0  0  0  0  0  0  0  0
   -3.5555   10.3115   -7.8022 C   0  0  0  0  0  0  0  0  0  0  0  0
   -4.8126    9.7649   -8.0516 C   0  0  0  0  0  0  0  0  0  0  0  0
   -2.0930   12.1652   -6.9785 C   0  0  0  0  0  0  0  0  0  0  0  0
   -1.7427   13.4236   -6.4970 C   0  0  0  0  0  0  0  0  0  0  0  0
   -0.4061   13.4591   -6.4324 N   0  0  0  0  0  0  0  0  0  0  0  0
    0.1810   12.3567   -6.8070 N   0  0  0  0  0  0  0  0  0  0  0  0
   -0.8030   11.5520   -7.1701 C   0  0  0  0  0  0  0  0  0  0  0  0
    0.4260   14.5701   -5.9973 C   0  0  0  0  0  0  0  0  0  0  0  0
   -3.6444   15.0059  -11.3286 C   0  0  0  0  0  0  0  0  0  0  0  0
   -2.1848   14.8660  -11.7465 C   0  0  0  0  0  0  0  0  0  0  0  0
   -1.5251   13.6965  -11.2881 O   0  0  0  0  0  0  0  0  0  0  0  0
   -2.2131   12.5012  -11.6333 C   0  0  0  0  0  0  0  0  0  0  0  0
   -3.6517   12.4721  -11.0120 C   0  0  0  0  0  0  0  0  0  0  0  0
   -5.4473   11.7517  -12.1914 H   0  0  0  0  0  0  0  0  0  0  0  0
   -6.0438   12.2692   -9.8813 H   0  0  0  0  0  0  0  0  0  0  0  0
   -8.1720   10.1191  -13.9020 H   0  0  0  0  0  0  0  0  0  0  0  0
   -6.8821   12.2554  -14.0972 H   0  0  0  0  0  0  0  0  0  0  0  0
   -8.0379    9.5965   -7.2570 H   0  0  0  0  0  0  0  0  0  0  0  0
   -6.7437   12.3143   -6.9138 H   0  0  0  0  0  0  0  0  0  0  0  0
   -4.5109   13.2897   -6.4791 H   0  0  0  0  0  0  0  0  0  0  0  0
   -3.4437   12.0319   -8.2437 H   0  0  0  0  0  0  0  0  0  0  0  0
   -2.6655    9.7499   -8.0449 H   0  0  0  0  0  0  0  0  0  0  0  0
   -4.8957    8.7813   -8.4899 H   0  0  0  0  0  0  0  0  0  0  0  0
   -2.4205   14.2199   -6.2269 H   0  0  0  0  0  0  0  0  0  0  0  0
   -0.6578   10.5563   -7.5625 H   0  0  0  0  0  0  0  0  0  0  0  0
    1.4856   14.2813   -6.0588 H   0  0  0  0  0  0  0  0  0  0  0  0
    0.2449   15.4398   -6.6461 H   0  0  0  0  0  0  0  0  0  0  0  0
    0.1766   14.8298   -4.9579 H   0  0  0  0  0  0  0  0  0  0  0  0
   -4.1332   15.7546  -11.9693 H   0  0  0  0  0  0  0  0  0  0  0  0
   -3.6898   15.3350  -10.2800 H   0  0  0  0  0  0  0  0  0  0  0  0
   -2.1459   14.8676  -12.8458 H   0  0  0  0  0  0  0  0  0  0  0  0
   -1.6368   15.7375  -11.3590 H   0  0  0  0  0  0  0  0  0  0  0  0
   -2.2945   12.4382  -12.7285 H   0  0  0  0  0  0  0  0  0  0  0  0
   -1.6432   11.6386  -11.2578 H   0  0  0  0  0  0  0  0  0  0  0  0
   -3.5876   12.4537   -9.9140 H   0  0  0  0  0  0  0  0  0  0  0  0
   -4.1956   11.5825  -11.3625 H   0  0  0  0  0  0  0  0  0  0  0  0
  1  2  1  0  0  0  0
  1  4  1  0  0  0  0
  1 12  1  0  0  0  0
  2  6  2  0  0  0  0
  3  4  2  0  0  0  0
  3  5  1  0  0  0  0
  5  6  1  0  0  0  0
  5  9  2  0  0  0  0
  6  7  1  0  0  0  0
  7  8  2  0  0  0  0
  7 10  1  0  0  0  0
  8  9  1  0  0  0  0
 10 14  2  0  0  0  0
 11 12  1  0  0  0  0
 11 26  1  0  0  0  0
 11 30  1  0  0  0  0
 12 13  2  0  0  0  0
 14 15  1  0  0  0  0
 14 19  1  0  0  0  0
 15 16  2  0  0  0  0
 16 17  1  0  0  0  0
 17 18  1  0  0  0  0
 17 20  1  0  0  0  0
 18 19  2  0  0  0  0
 20 21  2  0  0  0  0
 20 24  1  0  0  0  0
 21 22  1  0  0  0  0
 22 23  1  0  0  0  0
 22 25  1  0  0  0  0
 23 24  2  0  0  0  0
 26 27  1  0  0  0  0
 27 28  1  0  0  0  0
 28 29  1  0  0  0  0
 29 30  1  0  0  0  0
  1 31  1  0  0  0  0
  2 32  1  0  0  0  0
  3 33  1  0  0  0  0
  4 34  1  0  0  0  0
 10 35  1  0  0  0  0
 15 36  1  0  0  0  0
 16 37  1  0  0  0  0
 17 38  1  0  0  0  0
 18 39  1  0  0  0  0
 19 40  1  0  0  0  0
 21 41  1  0  0  0  0
 24 42  1  0  0  0  0
 25 43  1  0  0  0  0
 25 44  1  0  0  0  0
 25 45  1  0  0  0  0
 26 46  1  0  0  0  0
 26 47  1  0  0  0  0
 27 48  1  0  0  0  0
 27 49  1  0  0  0  0
 29 50  1  0  0  0  0
 29 51  1  0  0  0  0
 30 52  1  0  0  0  0
 30 53  1  0  0  0  0
M  END
> <Name>
39

> <IC50[uM]>
0.004

$$$$
39
  -OEChem-05192314333D
 Structure written by MMmdl.
 53 57  0     1  0  0  0  0  0999 V2000
   -6.3502   12.3553  -12.0171 C   0  0  0  0  0  0  0  0  0  0  0  0
   -6.4935   11.7977  -10.7426 C   0  0  0  0  0  0  0  0  0  0  0  0
   -7.7106   10.5751  -13.0385 C   0  0  0  0  0  0  0  0  0  0  0  0
   -6.9725   11.7720  -13.1357 C   0  0  0  0  0  0  0  0  0  0  0  0
   -7.8130   10.0109  -11.7654 C   0  0  0  0  0  0  0  0  0  0  0  0
   -7.2309   10.6170  -10.6058 C   0  0  3  0  0  0  0  0  0  0  0  0
   -7.6111    9.7517   -9.5147 C   0  0  0  0  0  0  0  0  0  0  0  0
   -8.2865    8.7392   -9.9897 N   0  0  0  0  0  0  0  0  0  0  0  0
   -8.4152    8.8682  -11.3006 N   0  0  0  0  0  0  0  0  0  0  0  0
   -7.3373    9.8888   -8.0252 C   0  0  0  0  0  0  0  0  0  0  0  0
   -4.3541   13.7129  -11.4635 N   0  0  0  0  0  0  0  0  0  0  0  0
   -5.5361   13.6428  -12.1728 C   0  0  0  0  0  0  0  0  0  0  0  0
   -5.9526   14.5668  -12.8773 O   0  0  0  0  0  0  0  0  0  0  0  0
   -5.9623   10.4854   -7.7364 C   0  0  0  0  0  0  0  0  0  0  0  0
   -5.8532   11.7571   -7.1646 C   0  0  0  0  0  0  0  0  0  0  0  0
   -4.5945   12.3064   -6.9180 C   0  0  0  0  0  0  0  0  0  0  0  0
   -3.4446   11.5858   -7.2382 C   0  0  0  0  0  0  0  0  0  0  0  0
   -3.5555   10.3115   -7.8022 C   0  0  0  0  0  0  0  0  0  0  0  0
   -4.8126    9.7649   -8.0516 C   0  0  0  0  0  0  0  0  0  0  0  0
   -2.0930   12.1652   -6.9785 C   0  0  0  0  0  0  0  0  0  0  0  0
   -1.7427   13.4236   -6.4970 C   0  0  0  0  0  0  0  0  0  0  0  0
   -0.4061   13.4591   -6.4324 N   0  0  0  0  0  0  0  0  0  0  0  0
    0.1810   12.3567   -6.8070 N   0  0  0  0  0  0  0  0  0  0  0  0
   -0.8030   11.5520   -7.1701 C   0  0  0  0  0  0  0  0  0  0  0  0
    0.4260   14.5701   -5.9973 C   0  0  0  0  0  0  0  0  0  0  0  0
   -3.6444   15.0059  -11.3286 C   0  0  0  0  0  0  0  0  0  0  0  0
   -2.1848   14.8660  -11.7465 C   0  0  0  0  0  0  0  0  0  0  0  0
   -1.5251   13.6965  -11.2881 O   0  0  0  0  0  0  0  0  0  0  0  0
   -2.2131   12.5012  -11.6333 C   0  0  0  0  0  0  0  0  0  0  0  0
   -3.6517   12.4721  -11.0120 C   0  0  0  0  0  0  0  0  0  0  0  0
   -6.0438   12.2692   -9.8813 H   0  0  0  0  0  0  0  0  0  0  0  0
   -8.1720   10.1191  -13.9020 H   0  0  0  0  0  0  0  0  0  0  0  0
   -6.8821   12.2554  -14.0972 H   0  0  0  0  0  0  0  0  0  0  0  0
   -6.3150   10.0266  -10.7560 H   0  0  0  0  0  0  0  0  0  0  0  0
   -8.0379    9.5965   -7.2570 H   0  0  0  0  0  0  0  0  0  0  0  0
   -6.7437   12.3143   -6.9138 H   0  0  0  0  0  0  0  0  0  0  0  0
   -4.5109   13.2897   -6.4791 H   0  0  0  0  0  0  0  0  0  0  0  0
   -3.4437   12.0319   -8.2437 H   0  0  0  0  0  0  0  0  0  0  0  0
   -2.6655    9.7499   -8.0449 H   0  0  0  0  0  0  0  0  0  0  0  0
   -4.8957    8.7813   -8.4899 H   0  0  0  0  0  0  0  0  0  0  0  0
   -2.4205   14.2199   -6.2269 H   0  0  0  0  0  0  0  0  0  0  0  0
   -0.6578   10.5563   -7.5625 H   0  0  0  0  0  0  0  0  0  0  0  0
    1.4856   14.2813   -6.0588 H   0  0  0  0  0  0  0  0  0  0  0  0
    0.2449   15.4398   -6.6461 H   0  0  0  0  0  0  0  0  0  0  0  0
    0.1766   14.8298   -4.9579 H   0  0  0  0  0  0  0  0  0  0  0  0
   -4.1332   15.7546  -11.9693 H   0  0  0  0  0  0  0  0  0  0  0  0
   -3.6898   15.3350  -10.2800 H   0  0  0  0  0  0  0  0  0  0  0  0
   -2.1459   14.8676  -12.8458 H   0  0  0  0  0  0  0  0  0  0  0  0
   -1.6368   15.7375  -11.3590 H   0  0  0  0  0  0  0  0  0  0  0  0
   -2.2945   12.4382  -12.7285 H   0  0  0  0  0  0  0  0  0  0  0  0
   -1.6432   11.6386  -11.2578 H   0  0  0  0  0  0  0  0  0  0  0  0
   -3.5876   12.4537   -9.9140 H   0  0  0  0  0  0  0  0  0  0  0  0
   -4.1956   11.5825  -11.3625 H   0  0  0  0  0  0  0  0  0  0  0  0
  1  2  2  0  0  0  0
  1  4  1  0  0  0  0
  1 12  1  0  0  0  0
  2  6  1  0  0  0  0
  3  4  2  0  0  0  0
  3  5  1  0  0  0  0
  5  6  1  0  0  0  0
  5  9  2  0  0  0  0
  6  7  1  0  0  0  0
  7  8  2  0  0  0  0
  7 10  1  0  0  0  0
  8  9  1  0  0  0  0
 10 14  2  0  0  0  0
 11 12  1  0  0  0  0
 11 26  1  0  0  0  0
 11 30  1  0  0  0  0
 12 13  2  0  0  0  0
 14 15  1  0  0  0  0
 14 19  1  0  0  0  0
 15 16  2  0  0  0  0
 16 17  1  0  0  0  0
 17 18  1  0  0  0  0
 17 20  1  0  0  0  0
 18 19  2  0  0  0  0
 20 21  2  0  0  0  0
 20 24  1  0  0  0  0
 21 22  1  0  0  0  0
 22 23  1  0  0  0  0
 22 25  1  0  0  0  0
 23 24  2  0  0  0  0
 26 27  1  0  0  0  0
 27 28  1  0  0  0  0
 28 29  1  0  0  0  0
 29 30  1  0  0  0  0
  2 31  1  0  0  0  0
  3 32  1  0  0  0  0
  4 33  1  0  0  0  0
  6 34  1  0  0  0  0
 10 35  1  0  0  0  0
 15 36  1  0  0  0  0
 16 37  1  0  0  0  0
 17 38  1  0  0  0  0
 18 39  1  0  0  0  0
 19 40  1  0  0  0  0
 21 41  1  0  0  0  0
 24 42  1  0  0  0  0
 25 43  1  0  0  0  0
 25 44  1  0  0  0  0
 25 45  1  0  0  0  0
 26 46  1  0  0  0  0
 26 47  1  0  0  0  0
 27 48  1  0  0  0  0
 27 49  1  0  0  0  0
 29 50  1  0  0  0  0
 29 51  1  0  0  0  0
 30 52  1  0  0  0  0
 30 53  1  0  0  0  0
M  END
> <Name>
39

> <IC50[uM]>
0.004

$$$$
39
  -OEChem-05192314333D
 Structure written by MMmdl.
 53 57  0     0  0  0  0  0  0999 V2000
   -6.3502   12.3553  -12.0171 C   0  0  0  0  0  0  0  0  0  0  0  0
   -6.4935   11.7977  -10.7426 C   0  0  0  0  0  0  0  0  0  0  0  0
   -7.7106   10.5751  -13.0385 C   0  0  0  0  0  0  0  0  0  0  0  0
   -6.9725   11.7720  -13.1357 C   0  0  0  0  0  0  0  0  0  0  0  0
   -7.8130   10.0109  -11.7654 C   0  0  0  0  0  0  0  0  0  0  0  0
   -7.2309   10.6170  -10.6058 C   0  0  0  0  0  0  0  0  0  0  0  0
   -7.6111    9.7517   -9.5147 C   0  0  0  0  0  0  0  0  0  0  0  0
   -8.2865    8.7392   -9.9897 N   0  0  0  0  0  0  0  0  0  0  0  0
   -8.4152    8.8682  -11.3006 N   0  0  0  0  0  0  0  0  0  0  0  0
   -7.3373    9.8888   -8.0252 C   0  0  0  0  0  0  0  0  0  0  0  0
   -4.3541   13.7129  -11.4635 N   0  0  0  0  0  0  0  0  0  0  0  0
   -5.5361   13.6428  -12.1728 C   0  0  0  0  0  0  0  0  0  0  0  0
   -5.9526   14.5668  -12.8773 O   0  0  0  0  0  0  0  0  0  0  0  0
   -5.9623   10.4854   -7.7364 C   0  0  0  0  0  0  0  0  0  0  0  0
   -5.8532   11.7571   -7.1646 C   0  0  0  0  0  0  0  0  0  0  0  0
   -4.5945   12.3064   -6.9180 C   0  0  0  0  0  0  0  0  0  0  0  0
   -3.4446   11.5858   -7.2382 C   0  0  0  0  0  0  0  0  0  0  0  0
   -3.5555   10.3115   -7.8022 C   0  0  0  0  0  0  0  0  0  0  0  0
   -4.8126    9.7649   -8.0516 C   0  0  0  0  0  0  0  0  0  0  0  0
   -2.0930   12.1652   -6.9785 C   0  0  0  0  0  0  0  0  0  0  0  0
   -1.7427   13.4236   -6.4970 C   0  0  0  0  0  0  0  0  0  0  0  0
   -0.4061   13.4591   -6.4324 N   0  0  0  0  0  0  0  0  0  0  0  0
    0.1810   12.3567   -6.8070 N   0  0  0  0  0  0  0  0  0  0  0  0
   -0.8030   11.5520   -7.1701 C   0  0  0  0  0  0  0  0  0  0  0  0
    0.4260   14.5701   -5.9973 C   0  0  0  0  0  0  0  0  0  0  0  0
   -3.6444   15.0059  -11.3286 C   0  0  0  0  0  0  0  0  0  0  0  0
   -2.1848   14.8660  -11.7465 C   0  0  0  0  0  0  0  0  0  0  0  0
   -1.5251   13.6965  -11.2881 O   0  0  0  0  0  0  0  0  0  0  0  0
   -2.2131   12.5012  -11.6333 C   0  0  0  0  0  0  0  0  0  0  0  0
   -3.6517   12.4721  -11.0120 C   0  0  0  0  0  0  0  0  0  0  0  0
   -6.0438   12.2692   -9.8813 H   0  0  0  0  0  0  0  0  0  0  0  0
   -8.7302   10.7806  -13.3966 H   0  0  0  0  0  0  0  0  0  0  0  0
   -7.2336    9.8333  -13.6960 H   0  0  0  0  0  0  0  0  0  0  0  0
   -6.8821   12.2554  -14.0972 H   0  0  0  0  0  0  0  0  0  0  0  0
   -8.0379    9.5965   -7.2570 H   0  0  0  0  0  0  0  0  0  0  0  0
   -6.7437   12.3143   -6.9138 H   0  0  0  0  0  0  0  0  0  0  0  0
   -4.5109   13.2897   -6.4791 H   0  0  0  0  0  0  0  0  0  0  0  0
   -3.4437   12.0319   -8.2437 H   0  0  0  0  0  0  0  0  0  0  0  0
   -2.6655    9.7499   -8.0449 H   0  0  0  0  0  0  0  0  0  0  0  0
   -4.8957    8.7813   -8.4899 H   0  0  0  0  0  0  0  0  0  0  0  0
   -2.4205   14.2199   -6.2269 H   0  0  0  0  0  0  0  0  0  0  0  0
   -0.6578   10.5563   -7.5625 H   0  0  0  0  0  0  0  0  0  0  0  0
    1.4856   14.2813   -6.0588 H   0  0  0  0  0  0  0  0  0  0  0  0
    0.2449   15.4398   -6.6461 H   0  0  0  0  0  0  0  0  0  0  0  0
    0.1766   14.8298   -4.9579 H   0  0  0  0  0  0  0  0  0  0  0  0
   -4.1332   15.7546  -11.9693 H   0  0  0  0  0  0  0  0  0  0  0  0
   -3.6898   15.3350  -10.2800 H   0  0  0  0  0  0  0  0  0  0  0  0
   -2.1459   14.8676  -12.8458 H   0  0  0  0  0  0  0  0  0  0  0  0
   -1.6368   15.7375  -11.3590 H   0  0  0  0  0  0  0  0  0  0  0  0
   -2.2945   12.4382  -12.7285 H   0  0  0  0  0  0  0  0  0  0  0  0
   -1.6432   11.6386  -11.2578 H   0  0  0  0  0  0  0  0  0  0  0  0
   -3.5876   12.4537   -9.9140 H   0  0  0  0  0  0  0  0  0  0  0  0
   -4.1956   11.5825  -11.3625 H   0  0  0  0  0  0  0  0  0  0  0  0
  1  2  1  0  0  0  0
  1  4  2  0  0  0  0
  1 12  1  0  0  0  0
  2  6  2  0  0  0  0
  3  4  1  0  0  0  0
  3  5  1  0  0  0  0
  5  6  1  0  0  0  0
  5  9  2  0  0  0  0
  6  7  1  0  0  0  0
  7  8  2  0  0  0  0
  7 10  1  0  0  0  0
  8  9  1  0  0  0  0
 10 14  2  0  0  0  0
 11 12  1  0  0  0  0
 11 26  1  0  0  0  0
 11 30  1  0  0  0  0
 12 13  2  0  0  0  0
 14 15  1  0  0  0  0
 14 19  1  0  0  0  0
 15 16  2  0  0  0  0
 16 17  1  0  0  0  0
 17 18  1  0  0  0  0
 17 20  1  0  0  0  0
 18 19  2  0  0  0  0
 20 21  2  0  0  0  0
 20 24  1  0  0  0  0
 21 22  1  0  0  0  0
 22 23  1  0  0  0  0
 22 25  1  0  0  0  0
 23 24  2  0  0  0  0
 26 27  1  0  0  0  0
 27 28  1  0  0  0  0
 28 29  1  0  0  0  0
 29 30  1  0  0  0  0
  2 31  1  0  0  0  0
  3 32  1  0  0  0  0
  3 33  1  0  0  0  0
  4 34  1  0  0  0  0
 10 35  1  0  0  0  0
 15 36  1  0  0  0  0
 16 37  1  0  0  0  0
 17 38  1  0  0  0  0
 18 39  1  0  0  0  0
 19 40  1  0  0  0  0
 21 41  1  0  0  0  0
 24 42  1  0  0  0  0
 25 43  1  0  0  0  0
 25 44  1  0  0  0  0
 25 45  1  0  0  0  0
 26 46  1  0  0  0  0
 26 47  1  0  0  0  0
 27 48  1  0  0  0  0
 27 49  1  0  0  0  0
 29 50  1  0  0  0  0
 29 51  1  0  0  0  0
 30 52  1  0  0  0  0
 30 53  1  0  0  0  0
M  END
> <Name>
39

> <IC50[uM]>
0.004

$$$$
39
  -OEChem-05192314333D
 Structure written by MMmdl.
 53 57  0     1  0  0  0  0  0999 V2000
   -6.3502   12.3553  -12.0171 C   0  0  3  0  0  0  0  0  0  0  0  0
   -6.4935   11.7977  -10.7426 C   0  0  0  0  0  0  0  0  0  0  0  0
   -7.7106   10.5751  -13.0385 C   0  0  0  0  0  0  0  0  0  0  0  0
   -6.9725   11.7720  -13.1357 C   0  0  0  0  0  0  0  0  0  0  0  0
   -7.8130   10.0109  -11.7654 C   0  0  0  0  0  0  0  0  0  0  0  0
   -7.2309   10.6170  -10.6058 C   0  0  0  0  0  0  0  0  0  0  0  0
   -7.6111    9.7517   -9.5147 C   0  0  0  0  0  0  0  0  0  0  0  0
   -8.2865    8.7392   -9.9897 N   0  0  0  0  0  0  0  0  0  0  0  0
   -8.4152    8.8682  -11.3006 N   0  0  0  0  0  0  0  0  0  0  0  0
   -7.3373    9.8888   -8.0252 C   0  0  0  0  0  0  0  0  0  0  0  0
   -4.3541   13.7129  -11.4635 N   0  0  0  0  0  0  0  0  0  0  0  0
   -5.5361   13.6428  -12.1728 C   0  0  0  0  0  0  0  0  0  0  0  0
   -5.9526   14.5668  -12.8773 O   0  0  0  0  0  0  0  0  0  0  0  0
   -5.9623   10.4854   -7.7364 C   0  0  0  0  0  0  0  0  0  0  0  0
   -5.8532   11.7571   -7.1646 C   0  0  0  0  0  0  0  0  0  0  0  0
   -4.5945   12.3064   -6.9180 C   0  0  0  0  0  0  0  0  0  0  0  0
   -3.4446   11.5858   -7.2382 C   0  0  0  0  0  0  0  0  0  0  0  0
   -3.5555   10.3115   -7.8022 C   0  0  0  0  0  0  0  0  0  0  0  0
   -4.8126    9.7649   -8.0516 C   0  0  0  0  0  0  0  0  0  0  0  0
   -2.0930   12.1652   -6.9785 C   0  0  0  0  0  0  0  0  0  0  0  0
   -1.7427   13.4236   -6.4970 C   0  0  0  0  0  0  0  0  0  0  0  0
   -0.4061   13.4591   -6.4324 N   0  0  0  0  0  0  0  0  0  0  0  0
    0.1810   12.3567   -6.8070 N   0  0  0  0  0  0  0  0  0  0  0  0
   -0.8030   11.5520   -7.1701 C   0  0  0  0  0  0  0  0  0  0  0  0
    0.4260   14.5701   -5.9973 C   0  0  0  0  0  0  0  0  0  0  0  0
   -3.6444   15.0059  -11.3286 C   0  0  0  0  0  0  0  0  0  0  0  0
   -2.1848   14.8660  -11.7465 C   0  0  0  0  0  0  0  0  0  0  0  0
   -1.5251   13.6965  -11.2881 O   0  0  0  0  0  0  0  0  0  0  0  0
   -2.2131   12.5012  -11.6333 C   0  0  0  0  0  0  0  0  0  0  0  0
   -3.6517   12.4721  -11.0120 C   0  0  0  0  0  0  0  0  0  0  0  0
   -5.4473   11.7517  -12.1914 H   0  0  0  0  0  0  0  0  0  0  0  0
   -6.0438   12.2692   -9.8813 H   0  0  0  0  0  0  0  0  0  0  0  0
   -8.1720   10.1191  -13.9020 H   0  0  0  0  0  0  0  0  0  0  0  0
   -6.8821   12.2554  -14.0972 H   0  0  0  0  0  0  0  0  0  0  0  0
   -8.0379    9.5965   -7.2570 H   0  0  0  0  0  0  0  0  0  0  0  0
   -6.7437   12.3143   -6.9138 H   0  0  0  0  0  0  0  0  0  0  0  0
   -4.5109   13.2897   -6.4791 H   0  0  0  0  0  0  0  0  0  0  0  0
   -2.6655    9.7499   -8.0449 H   0  0  0  0  0  0  0  0  0  0  0  0
   -4.8654    8.8212   -7.4888 H   0  0  0  0  0  0  0  0  0  0  0  0
   -4.8575    9.5518   -9.1298 H   0  0  0  0  0  0  0  0  0  0  0  0
   -2.4205   14.2199   -6.2269 H   0  0  0  0  0  0  0  0  0  0  0  0
   -0.6578   10.5563   -7.5625 H   0  0  0  0  0  0  0  0  0  0  0  0
    1.4856   14.2813   -6.0588 H   0  0  0  0  0  0  0  0  0  0  0  0
    0.2449   15.4398   -6.6461 H   0  0  0  0  0  0  0  0  0  0  0  0
    0.1766   14.8298   -4.9579 H   0  0  0  0  0  0  0  0  0  0  0  0
   -4.1332   15.7546  -11.9693 H   0  0  0  0  0  0  0  0  0  0  0  0
   -3.6898   15.3350  -10.2800 H   0  0  0  0  0  0  0  0  0  0  0  0
   -2.1459   14.8676  -12.8458 H   0  0  0  0  0  0  0  0  0  0  0  0
   -1.6368   15.7375  -11.3590 H   0  0  0  0  0  0  0  0  0  0  0  0
   -2.2945   12.4382  -12.7285 H   0  0  0  0  0  0  0  0  0  0  0  0
   -1.6432   11.6386  -11.2578 H   0  0  0  0  0  0  0  0  0  0  0  0
   -3.5876   12.4537   -9.9140 H   0  0  0  0  0  0  0  0  0  0  0  0
   -4.1956   11.5825  -11.3625 H   0  0  0  0  0  0  0  0  0  0  0  0
  1  2  1  0  0  0  0
  1  4  1  0  0  0  0
  1 12  1  0  0  0  0
  2  6  2  0  0  0  0
  3  4  2  0  0  0  0
  3  5  1  0  0  0  0
  5  6  1  0  0  0  0
  5  9  2  0  0  0  0
  6  7  1  0  0  0  0
  7  8  2  0  0  0  0
  7 10  1  0  0  0  0
  8  9  1  0  0  0  0
 10 14  2  3  0  0  0
 11 12  1  0  0  0  0
 11 26  1  0  0  0  0
 11 30  1  0  0  0  0
 12 13  2  0  0  0  0
 14 15  1  0  0  0  0
 14 19  1  0  0  0  0
 15 16  2  0  0  0  0
 16 17  1  0  0  0  0
 17 18  2  0  0  0  0
 17 20  1  0  0  0  0
 18 19  1  0  0  0  0
 20 21  2  0  0  0  0
 20 24  1  0  0  0  0
 21 22  1  0  0  0  0
 22 23  1  0  0  0  0
 22 25  1  0  0  0  0
 23 24  2  0  0  0  0
 26 27  1  0  0  0  0
 27 28  1  0  0  0  0
 28 29  1  0  0  0  0
 29 30  1  0  0  0  0
  1 31  1  0  0  0  0
  2 32  1  0  0  0  0
  3 33  1  0  0  0  0
  4 34  1  0  0  0  0
 10 35  1  0  0  0  0
 15 36  1  0  0  0  0
 16 37  1  0  0  0  0
 18 38  1  0  0  0  0
 19 39  1  0  0  0  0
 19 40  1  0  0  0  0
 21 41  1  0  0  0  0
 24 42  1  0  0  0  0
 25 43  1  0  0  0  0
 25 44  1  0  0  0  0
 25 45  1  0  0  0  0
 26 46  1  0  0  0  0
 26 47  1  0  0  0  0
 27 48  1  0  0  0  0
 27 49  1  0  0  0  0
 29 50  1  0  0  0  0
 29 51  1  0  0  0  0
 30 52  1  0  0  0  0
 30 53  1  0  0  0  0
M  END
> <Name>
39

> <IC50[uM]>
0.004

$$$$
39
  -OEChem-05192314333D
 Structure written by MMmdl.
 53 57  0     1  0  0  0  0  0999 V2000
   -6.3502   12.3553  -12.0171 C   0  0  0  0  0  0  0  0  0  0  0  0
   -6.4935   11.7977  -10.7426 C   0  0  0  0  0  0  0  0  0  0  0  0
   -7.7106   10.5751  -13.0385 C   0  0  0  0  0  0  0  0  0  0  0  0
   -6.9725   11.7720  -13.1357 C   0  0  0  0  0  0  0  0  0  0  0  0
   -7.8130   10.0109  -11.7654 C   0  0  0  0  0  0  0  0  0  0  0  0
   -7.2309   10.6170  -10.6058 C   0  0  3  0  0  0  0  0  0  0  0  0
   -7.6111    9.7517   -9.5147 C   0  0  0  0  0  0  0  0  0  0  0  0
   -8.2865    8.7392   -9.9897 N   0  0  0  0  0  0  0  0  0  0  0  0
   -8.4152    8.8682  -11.3006 N   0  0  0  0  0  0  0  0  0  0  0  0
   -7.3373    9.8888   -8.0252 C   0  0  0  0  0  0  0  0  0  0  0  0
   -4.3541   13.7129  -11.4635 N   0  0  0  0  0  0  0  0  0  0  0  0
   -5.5361   13.6428  -12.1728 C   0  0  0  0  0  0  0  0  0  0  0  0
   -5.9526   14.5668  -12.8773 O   0  0  0  0  0  0  0  0  0  0  0  0
   -5.9623   10.4854   -7.7364 C   0  0  0  0  0  0  0  0  0  0  0  0
   -5.8532   11.7571   -7.1646 C   0  0  0  0  0  0  0  0  0  0  0  0
   -4.5945   12.3064   -6.9180 C   0  0  0  0  0  0  0  0  0  0  0  0
   -3.4446   11.5858   -7.2382 C   0  0  0  0  0  0  0  0  0  0  0  0
   -3.5555   10.3115   -7.8022 C   0  0  0  0  0  0  0  0  0  0  0  0
   -4.8126    9.7649   -8.0516 C   0  0  0  0  0  0  0  0  0  0  0  0
   -2.0930   12.1652   -6.9785 C   0  0  0  0  0  0  0  0  0  0  0  0
   -1.7427   13.4236   -6.4970 C   0  0  0  0  0  0  0  0  0  0  0  0
   -0.4061   13.4591   -6.4324 N   0  0  0  0  0  0  0  0  0  0  0  0
    0.1810   12.3567   -6.8070 N   0  0  0  0  0  0  0  0  0  0  0  0
   -0.8030   11.5520   -7.1701 C   0  0  0  0  0  0  0  0  0  0  0  0
    0.4260   14.5701   -5.9973 C   0  0  0  0  0  0  0  0  0  0  0  0
   -3.6444   15.0059  -11.3286 C   0  0  0  0  0  0  0  0  0  0  0  0
   -2.1848   14.8660  -11.7465 C   0  0  0  0  0  0  0  0  0  0  0  0
   -1.5251   13.6965  -11.2881 O   0  0  0  0  0  0  0  0  0  0  0  0
   -2.2131   12.5012  -11.6333 C   0  0  0  0  0  0  0  0  0  0  0  0
   -3.6517   12.4721  -11.0120 C   0  0  0  0  0  0  0  0  0  0  0  0
   -6.0438   12.2692   -9.8813 H   0  0  0  0  0  0  0  0  0  0  0  0
   -8.1720   10.1191  -13.9020 H   0  0  0  0  0  0  0  0  0  0  0  0
   -6.8821   12.2554  -14.0972 H   0  0  0  0  0  0  0  0  0  0  0  0
   -6.3150   10.0266  -10.7560 H   0  0  0  0  0  0  0  0  0  0  0  0
   -8.0379    9.5965   -7.2570 H   0  0  0  0  0  0  0  0  0  0  0  0
   -6.7437   12.3143   -6.9138 H   0  0  0  0  0  0  0  0  0  0  0  0
   -4.5109   13.2897   -6.4791 H   0  0  0  0  0  0  0  0  0  0  0  0
   -2.6655    9.7499   -8.0449 H   0  0  0  0  0  0  0  0  0  0  0  0
   -4.8654    8.8212   -7.4888 H   0  0  0  0  0  0  0  0  0  0  0  0
   -4.8575    9.5518   -9.1298 H   0  0  0  0  0  0  0  0  0  0  0  0
   -2.4205   14.2199   -6.2269 H   0  0  0  0  0  0  0  0  0  0  0  0
   -0.6578   10.5563   -7.5625 H   0  0  0  0  0  0  0  0  0  0  0  0
    1.4856   14.2813   -6.0588 H   0  0  0  0  0  0  0  0  0  0  0  0
    0.2449   15.4398   -6.6461 H   0  0  0  0  0  0  0  0  0  0  0  0
    0.1766   14.8298   -4.9579 H   0  0  0  0  0  0  0  0  0  0  0  0
   -4.1332   15.7546  -11.9693 H   0  0  0  0  0  0  0  0  0  0  0  0
   -3.6898   15.3350  -10.2800 H   0  0  0  0  0  0  0  0  0  0  0  0
   -2.1459   14.8676  -12.8458 H   0  0  0  0  0  0  0  0  0  0  0  0
   -1.6368   15.7375  -11.3590 H   0  0  0  0  0  0  0  0  0  0  0  0
   -2.2945   12.4382  -12.7285 H   0  0  0  0  0  0  0  0  0  0  0  0
   -1.6432   11.6386  -11.2578 H   0  0  0  0  0  0  0  0  0  0  0  0
   -3.5876   12.4537   -9.9140 H   0  0  0  0  0  0  0  0  0  0  0  0
   -4.1956   11.5825  -11.3625 H   0  0  0  0  0  0  0  0  0  0  0  0
  1  2  2  0  0  0  0
  1  4  1  0  0  0  0
  1 12  1  0  0  0  0
  2  6  1  0  0  0  0
  3  4  2  0  0  0  0
  3  5  1  0  0  0  0
  5  6  1  0  0  0  0
  5  9  2  0  0  0  0
  6  7  1  0  0  0  0
  7  8  2  0  0  0  0
  7 10  1  0  0  0  0
  8  9  1  0  0  0  0
 10 14  2  3  0  0  0
 11 12  1  0  0  0  0
 11 26  1  0  0  0  0
 11 30  1  0  0  0  0
 12 13  2  0  0  0  0
 14 15  1  0  0  0  0
 14 19  1  0  0  0  0
 15 16  2  0  0  0  0
 16 17  1  0  0  0  0
 17 18  2  0  0  0  0
 17 20  1  0  0  0  0
 18 19  1  0  0  0  0
 20 21  2  0  0  0  0
 20 24  1  0  0  0  0
 21 22  1  0  0  0  0
 22 23  1  0  0  0  0
 22 25  1  0  0  0  0
 23 24  2  0  0  0  0
 26 27  1  0  0  0  0
 27 28  1  0  0  0  0
 28 29  1  0  0  0  0
 29 30  1  0  0  0  0
  2 31  1  0  0  0  0
  3 32  1  0  0  0  0
  4 33  1  0  0  0  0
  6 34  1  0  0  0  0
 10 35  1  0  0  0  0
 15 36  1  0  0  0  0
 16 37  1  0  0  0  0
 18 38  1  0  0  0  0
 19 39  1  0  0  0  0
 19 40  1  0  0  0  0
 21 41  1  0  0  0  0
 24 42  1  0  0  0  0
 25 43  1  0  0  0  0
 25 44  1  0  0  0  0
 25 45  1  0  0  0  0
 26 46  1  0  0  0  0
 26 47  1  0  0  0  0
 27 48  1  0  0  0  0
 27 49  1  0  0  0  0
 29 50  1  0  0  0  0
 29 51  1  0  0  0  0
 30 52  1  0  0  0  0
 30 53  1  0  0  0  0
M  END
> <Name>
39

> <IC50[uM]>
0.004

$$$$
39
  -OEChem-05192314333D
 Structure written by MMmdl.
 53 57  0     0  0  0  0  0  0999 V2000
   -6.3502   12.3553  -12.0171 C   0  0  0  0  0  0  0  0  0  0  0  0
   -6.4935   11.7977  -10.7426 C   0  0  0  0  0  0  0  0  0  0  0  0
   -7.7106   10.5751  -13.0385 C   0  0  0  0  0  0  0  0  0  0  0  0
   -6.9725   11.7720  -13.1357 C   0  0  0  0  0  0  0  0  0  0  0  0
   -7.8130   10.0109  -11.7654 C   0  0  0  0  0  0  0  0  0  0  0  0
   -7.2309   10.6170  -10.6058 C   0  0  0  0  0  0  0  0  0  0  0  0
   -7.6111    9.7517   -9.5147 C   0  0  0  0  0  0  0  0  0  0  0  0
   -8.2865    8.7392   -9.9897 N   0  0  0  0  0  0  0  0  0  0  0  0
   -8.4152    8.8682  -11.3006 N   0  0  0  0  0  0  0  0  0  0  0  0
   -7.3373    9.8888   -8.0252 C   0  0  0  0  0  0  0  0  0  0  0  0
   -4.3541   13.7129  -11.4635 N   0  0  0  0  0  0  0  0  0  0  0  0
   -5.5361   13.6428  -12.1728 C   0  0  0  0  0  0  0  0  0  0  0  0
   -5.9526   14.5668  -12.8773 O   0  0  0  0  0  0  0  0  0  0  0  0
   -5.9623   10.4854   -7.7364 C   0  0  0  0  0  0  0  0  0  0  0  0
   -5.8532   11.7571   -7.1646 C   0  0  0  0  0  0  0  0  0  0  0  0
   -4.5945   12.3064   -6.9180 C   0  0  0  0  0  0  0  0  0  0  0  0
   -3.4446   11.5858   -7.2382 C   0  0  0  0  0  0  0  0  0  0  0  0
   -3.5555   10.3115   -7.8022 C   0  0  0  0  0  0  0  0  0  0  0  0
   -4.8126    9.7649   -8.0516 C   0  0  0  0  0  0  0  0  0  0  0  0
   -2.0930   12.1652   -6.9785 C   0  0  0  0  0  0  0  0  0  0  0  0
   -1.7427   13.4236   -6.4970 C   0  0  0  0  0  0  0  0  0  0  0  0
   -0.4061   13.4591   -6.4324 N   0  0  0  0  0  0  0  0  0  0  0  0
    0.1810   12.3567   -6.8070 N   0  0  0  0  0  0  0  0  0  0  0  0
   -0.8030   11.5520   -7.1701 C   0  0  0  0  0  0  0  0  0  0  0  0
    0.4260   14.5701   -5.9973 C   0  0  0  0  0  0  0  0  0  0  0  0
   -3.6444   15.0059  -11.3286 C   0  0  0  0  0  0  0  0  0  0  0  0
   -2.1848   14.8660  -11.7465 C   0  0  0  0  0  0  0  0  0  0  0  0
   -1.5251   13.6965  -11.2881 O   0  0  0  0  0  0  0  0  0  0  0  0
   -2.2131   12.5012  -11.6333 C   0  0  0  0  0  0  0  0  0  0  0  0
   -3.6517   12.4721  -11.0120 C   0  0  0  0  0  0  0  0  0  0  0  0
   -6.0438   12.2692   -9.8813 H   0  0  0  0  0  0  0  0  0  0  0  0
   -8.7302   10.7806  -13.3966 H   0  0  0  0  0  0  0  0  0  0  0  0
   -7.2336    9.8333  -13.6960 H   0  0  0  0  0  0  0  0  0  0  0  0
   -6.8821   12.2554  -14.0972 H   0  0  0  0  0  0  0  0  0  0  0  0
   -8.0379    9.5965   -7.2570 H   0  0  0  0  0  0  0  0  0  0  0  0
   -6.7437   12.3143   -6.9138 H   0  0  0  0  0  0  0  0  0  0  0  0
   -4.5109   13.2897   -6.4791 H   0  0  0  0  0  0  0  0  0  0  0  0
   -2.6655    9.7499   -8.0449 H   0  0  0  0  0  0  0  0  0  0  0  0
   -4.8654    8.8212   -7.4888 H   0  0  0  0  0  0  0  0  0  0  0  0
   -4.8575    9.5518   -9.1298 H   0  0  0  0  0  0  0  0  0  0  0  0
   -2.4205   14.2199   -6.2269 H   0  0  0  0  0  0  0  0  0  0  0  0
   -0.6578   10.5563   -7.5625 H   0  0  0  0  0  0  0  0  0  0  0  0
    1.4856   14.2813   -6.0588 H   0  0  0  0  0  0  0  0  0  0  0  0
    0.2449   15.4398   -6.6461 H   0  0  0  0  0  0  0  0  0  0  0  0
    0.1766   14.8298   -4.9579 H   0  0  0  0  0  0  0  0  0  0  0  0
   -4.1332   15.7546  -11.9693 H   0  0  0  0  0  0  0  0  0  0  0  0
   -3.6898   15.3350  -10.2800 H   0  0  0  0  0  0  0  0  0  0  0  0
   -2.1459   14.8676  -12.8458 H   0  0  0  0  0  0  0  0  0  0  0  0
   -1.6368   15.7375  -11.3590 H   0  0  0  0  0  0  0  0  0  0  0  0
   -2.2945   12.4382  -12.7285 H   0  0  0  0  0  0  0  0  0  0  0  0
   -1.6432   11.6386  -11.2578 H   0  0  0  0  0  0  0  0  0  0  0  0
   -3.5876   12.4537   -9.9140 H   0  0  0  0  0  0  0  0  0  0  0  0
   -4.1956   11.5825  -11.3625 H   0  0  0  0  0  0  0  0  0  0  0  0
  1  2  1  0  0  0  0
  1  4  2  0  0  0  0
  1 12  1  0  0  0  0
  2  6  2  0  0  0  0
  3  4  1  0  0  0  0
  3  5  1  0  0  0  0
  5  6  1  0  0  0  0
  5  9  2  0  0  0  0
  6  7  1  0  0  0  0
  7  8  2  0  0  0  0
  7 10  1  0  0  0  0
  8  9  1  0  0  0  0
 10 14  2  3  0  0  0
 11 12  1  0  0  0  0
 11 26  1  0  0  0  0
 11 30  1  0  0  0  0
 12 13  2  0  0  0  0
 14 15  1  0  0  0  0
 14 19  1  0  0  0  0
 15 16  2  0  0  0  0
 16 17  1  0  0  0  0
 17 18  2  0  0  0  0
 17 20  1  0  0  0  0
 18 19  1  0  0  0  0
 20 21  2  0  0  0  0
 20 24  1  0  0  0  0
 21 22  1  0  0  0  0
 22 23  1  0  0  0  0
 22 25  1  0  0  0  0
 23 24  2  0  0  0  0
 26 27  1  0  0  0  0
 27 28  1  0  0  0  0
 28 29  1  0  0  0  0
 29 30  1  0  0  0  0
  2 31  1  0  0  0  0
  3 32  1  0  0  0  0
  3 33  1  0  0  0  0
  4 34  1  0  0  0  0
 10 35  1  0  0  0  0
 15 36  1  0  0  0  0
 16 37  1  0  0  0  0
 18 38  1  0  0  0  0
 19 39  1  0  0  0  0
 19 40  1  0  0  0  0
 21 41  1  0  0  0  0
 24 42  1  0  0  0  0
 25 43  1  0  0  0  0
 25 44  1  0  0  0  0
 25 45  1  0  0  0  0
 26 46  1  0  0  0  0
 26 47  1  0  0  0  0
 27 48  1  0  0  0  0
 27 49  1  0  0  0  0
 29 50  1  0  0  0  0
 29 51  1  0  0  0  0
 30 52  1  0  0  0  0
 30 53  1  0  0  0  0
M  END
> <Name>
39

> <IC50[uM]>
0.004

$$$$
39
  -OEChem-05192314333D
 Structure written by MMmdl.
 53 57  0     1  0  0  0  0  0999 V2000
   -6.3502   12.3553  -12.0171 C   0  0  0  0  0  0  0  0  0  0  0  0
   -6.4935   11.7977  -10.7426 C   0  0  0  0  0  0  0  0  0  0  0  0
   -7.7106   10.5751  -13.0385 C   0  0  0  0  0  0  0  0  0  0  0  0
   -6.9725   11.7720  -13.1357 C   0  0  0  0  0  0  0  0  0  0  0  0
   -7.8130   10.0109  -11.7654 C   0  0  3  0  0  0  0  0  0  0  0  0
   -7.2309   10.6170  -10.6058 C   0  0  0  0  0  0  0  0  0  0  0  0
   -7.6111    9.7517   -9.5147 C   0  0  0  0  0  0  0  0  0  0  0  0
   -8.2865    8.7392   -9.9897 N   0  0  0  0  0  0  0  0  0  0  0  0
   -8.4152    8.8682  -11.3006 N   0  0  0  0  0  0  0  0  0  0  0  0
   -7.3373    9.8888   -8.0252 C   0  0  0  0  0  0  0  0  0  0  0  0
   -4.3541   13.7129  -11.4635 N   0  0  0  0  0  0  0  0  0  0  0  0
   -5.5361   13.6428  -12.1728 C   0  0  0  0  0  0  0  0  0  0  0  0
   -5.9526   14.5668  -12.8773 O   0  0  0  0  0  0  0  0  0  0  0  0
   -5.9623   10.4854   -7.7364 C   0  0  0  0  0  0  0  0  0  0  0  0
   -5.8532   11.7571   -7.1646 C   0  0  0  0  0  0  0  0  0  0  0  0
   -4.5945   12.3064   -6.9180 C   0  0  0  0  0  0  0  0  0  0  0  0
   -3.4446   11.5858   -7.2382 C   0  0  0  0  0  0  0  0  0  0  0  0
   -3.5555   10.3115   -7.8022 C   0  0  0  0  0  0  0  0  0  0  0  0
   -4.8126    9.7649   -8.0516 C   0  0  0  0  0  0  0  0  0  0  0  0
   -2.0930   12.1652   -6.9785 C   0  0  0  0  0  0  0  0  0  0  0  0
   -1.7427   13.4236   -6.4970 C   0  0  0  0  0  0  0  0  0  0  0  0
   -0.4061   13.4591   -6.4324 N   0  0  0  0  0  0  0  0  0  0  0  0
    0.1810   12.3567   -6.8070 N   0  0  0  0  0  0  0  0  0  0  0  0
   -0.8030   11.5520   -7.1701 C   0  0  0  0  0  0  0  0  0  0  0  0
    0.4260   14.5701   -5.9973 C   0  0  0  0  0  0  0  0  0  0  0  0
   -3.6444   15.0059  -11.3286 C   0  0  0  0  0  0  0  0  0  0  0  0
   -2.1848   14.8660  -11.7465 C   0  0  0  0  0  0  0  0  0  0  0  0
   -1.5251   13.6965  -11.2881 O   0  0  0  0  0  0  0  0  0  0  0  0
   -2.2131   12.5012  -11.6333 C   0  0  0  0  0  0  0  0  0  0  0  0
   -3.6517   12.4721  -11.0120 C   0  0  0  0  0  0  0  0  0  0  0  0
   -6.0438   12.2692   -9.8813 H   0  0  0  0  0  0  0  0  0  0  0  0
   -8.1720   10.1191  -13.9020 H   0  0  0  0  0  0  0  0  0  0  0  0
   -6.8821   12.2554  -14.0972 H   0  0  0  0  0  0  0  0  0  0  0  0
   -8.7432   10.5718  -11.5916 H   0  0  0  0  0  0  0  0  0  0  0  0
   -8.0379    9.5965   -7.2570 H   0  0  0  0  0  0  0  0  0  0  0  0
   -6.7437   12.3143   -6.9138 H   0  0  0  0  0  0  0  0  0  0  0  0
   -4.5109   13.2897   -6.4791 H   0  0  0  0  0  0  0  0  0  0  0  0
   -3.4437   12.0319   -8.2437 H   0  0  0  0  0  0  0  0  0  0  0  0
   -2.6655    9.7499   -8.0449 H   0  0  0  0  0  0  0  0  0  0  0  0
   -4.8957    8.7813   -8.4899 H   0  0  0  0  0  0  0  0  0  0  0  0
   -2.4205   14.2199   -6.2269 H   0  0  0  0  0  0  0  0  0  0  0  0
   -0.6578   10.5563   -7.5625 H   0  0  0  0  0  0  0  0  0  0  0  0
    1.4856   14.2813   -6.0588 H   0  0  0  0  0  0  0  0  0  0  0  0
    0.2449   15.4398   -6.6461 H   0  0  0  0  0  0  0  0  0  0  0  0
    0.1766   14.8298   -4.9579 H   0  0  0  0  0  0  0  0  0  0  0  0
   -4.1332   15.7546  -11.9693 H   0  0  0  0  0  0  0  0  0  0  0  0
   -3.6898   15.3350  -10.2800 H   0  0  0  0  0  0  0  0  0  0  0  0
   -2.1459   14.8676  -12.8458 H   0  0  0  0  0  0  0  0  0  0  0  0
   -1.6368   15.7375  -11.3590 H   0  0  0  0  0  0  0  0  0  0  0  0
   -2.2945   12.4382  -12.7285 H   0  0  0  0  0  0  0  0  0  0  0  0
   -1.6432   11.6386  -11.2578 H   0  0  0  0  0  0  0  0  0  0  0  0
   -3.5876   12.4537   -9.9140 H   0  0  0  0  0  0  0  0  0  0  0  0
   -4.1956   11.5825  -11.3625 H   0  0  0  0  0  0  0  0  0  0  0  0
  1  2  2  0  0  0  0
  1  4  1  0  0  0  0
  1 12  1  0  0  0  0
  2  6  1  0  0  0  0
  3  4  2  0  0  0  0
  3  5  1  0  0  0  0
  5  6  1  0  0  0  0
  5  9  1  0  0  0  0
  6  7  2  0  0  0  0
  7  8  1  0  0  0  0
  7 10  1  0  0  0  0
  8  9  2  0  0  0  0
 10 14  2  0  0  0  0
 11 12  1  0  0  0  0
 11 26  1  0  0  0  0
 11 30  1  0  0  0  0
 12 13  2  0  0  0  0
 14 15  1  0  0  0  0
 14 19  1  0  0  0  0
 15 16  2  0  0  0  0
 16 17  1  0  0  0  0
 17 18  1  0  0  0  0
 17 20  1  0  0  0  0
 18 19  2  0  0  0  0
 20 21  2  0  0  0  0
 20 24  1  0  0  0  0
 21 22  1  0  0  0  0
 22 23  1  0  0  0  0
 22 25  1  0  0  0  0
 23 24  2  0  0  0  0
 26 27  1  0  0  0  0
 27 28  1  0  0  0  0
 28 29  1  0  0  0  0
 29 30  1  0  0  0  0
  2 31  1  0  0  0  0
  3 32  1  0  0  0  0
  4 33  1  0  0  0  0
  5 34  1  0  0  0  0
 10 35  1  0  0  0  0
 15 36  1  0  0  0  0
 16 37  1  0  0  0  0
 17 38  1  0  0  0  0
 18 39  1  0  0  0  0
 19 40  1  0  0  0  0
 21 41  1  0  0  0  0
 24 42  1  0  0  0  0
 25 43  1  0  0  0  0
 25 44  1  0  0  0  0
 25 45  1  0  0  0  0
 26 46  1  0  0  0  0
 26 47  1  0  0  0  0
 27 48  1  0  0  0  0
 27 49  1  0  0  0  0
 29 50  1  0  0  0  0
 29 51  1  0  0  0  0
 30 52  1  0  0  0  0
 30 53  1  0  0  0  0
M  END
> <Name>
39

> <IC50[uM]>
0.004

$$$$
39
  -OEChem-05192314333D
 Structure written by MMmdl.
 53 57  0     0  0  0  0  0  0999 V2000
   -6.3502   12.3553  -12.0171 C   0  0  0  0  0  0  0  0  0  0  0  0
   -6.4935   11.7977  -10.7426 C   0  0  0  0  0  0  0  0  0  0  0  0
   -7.7106   10.5751  -13.0385 C   0  0  0  0  0  0  0  0  0  0  0  0
   -6.9725   11.7720  -13.1357 C   0  0  0  0  0  0  0  0  0  0  0  0
   -7.8130   10.0109  -11.7654 C   0  0  0  0  0  0  0  0  0  0  0  0
   -7.2309   10.6170  -10.6058 C   0  0  0  0  0  0  0  0  0  0  0  0
   -7.6111    9.7517   -9.5147 C   0  0  0  0  0  0  0  0  0  0  0  0
   -8.2865    8.7392   -9.9897 N   0  0  0  0  0  0  0  0  0  0  0  0
   -8.4152    8.8682  -11.3006 N   0  0  0  0  0  0  0  0  0  0  0  0
   -7.3373    9.8888   -8.0252 C   0  0  0  0  0  0  0  0  0  0  0  0
   -4.3541   13.7129  -11.4635 N   0  0  0  0  0  0  0  0  0  0  0  0
   -5.5361   13.6428  -12.1728 C   0  0  0  0  0  0  0  0  0  0  0  0
   -5.9526   14.5668  -12.8773 O   0  0  0  0  0  0  0  0  0  0  0  0
   -5.9623   10.4854   -7.7364 C   0  0  0  0  0  0  0  0  0  0  0  0
   -5.8532   11.7571   -7.1646 C   0  0  0  0  0  0  0  0  0  0  0  0
   -4.5945   12.3064   -6.9180 C   0  0  0  0  0  0  0  0  0  0  0  0
   -3.4446   11.5858   -7.2382 C   0  0  0  0  0  0  0  0  0  0  0  0
   -3.5555   10.3115   -7.8022 C   0  0  0  0  0  0  0  0  0  0  0  0
   -4.8126    9.7649   -8.0516 C   0  0  0  0  0  0  0  0  0  0  0  0
   -2.0930   12.1652   -6.9785 C   0  0  0  0  0  0  0  0  0  0  0  0
   -1.7427   13.4236   -6.4970 C   0  0  0  0  0  0  0  0  0  0  0  0
   -0.4061   13.4591   -6.4324 N   0  0  0  0  0  0  0  0  0  0  0  0
    0.1810   12.3567   -6.8070 N   0  0  0  0  0  0  0  0  0  0  0  0
   -0.8030   11.5520   -7.1701 C   0  0  0  0  0  0  0  0  0  0  0  0
    0.4260   14.5701   -5.9973 C   0  0  0  0  0  0  0  0  0  0  0  0
   -3.6444   15.0059  -11.3286 C   0  0  0  0  0  0  0  0  0  0  0  0
   -2.1848   14.8660  -11.7465 C   0  0  0  0  0  0  0  0  0  0  0  0
   -1.5251   13.6965  -11.2881 O   0  0  0  0  0  0  0  0  0  0  0  0
   -2.2131   12.5012  -11.6333 C   0  0  0  0  0  0  0  0  0  0  0  0
   -3.6517   12.4721  -11.0120 C   0  0  0  0  0  0  0  0  0  0  0  0
   -6.0438   12.2692   -9.8813 H   0  0  0  0  0  0  0  0  0  0  0  0
   -8.1720   10.1191  -13.9020 H   0  0  0  0  0  0  0  0  0  0  0  0
   -7.6642   12.5292  -13.5334 H   0  0  0  0  0  0  0  0  0  0  0  0
   -6.1745   11.5833  -13.8689 H   0  0  0  0  0  0  0  0  0  0  0  0
   -8.0379    9.5965   -7.2570 H   0  0  0  0  0  0  0  0  0  0  0  0
   -6.7437   12.3143   -6.9138 H   0  0  0  0  0  0  0  0  0  0  0  0
   -4.5109   13.2897   -6.4791 H   0  0  0  0  0  0  0  0  0  0  0  0
   -3.4437   12.0319   -8.2437 H   0  0  0  0  0  0  0  0  0  0  0  0
   -2.6655    9.7499   -8.0449 H   0  0  0  0  0  0  0  0  0  0  0  0
   -4.8957    8.7813   -8.4899 H   0  0  0  0  0  0  0  0  0  0  0  0
   -2.4205   14.2199   -6.2269 H   0  0  0  0  0  0  0  0  0  0  0  0
   -0.6578   10.5563   -7.5625 H   0  0  0  0  0  0  0  0  0  0  0  0
    1.4856   14.2813   -6.0588 H   0  0  0  0  0  0  0  0  0  0  0  0
    0.2449   15.4398   -6.6461 H   0  0  0  0  0  0  0  0  0  0  0  0
    0.1766   14.8298   -4.9579 H   0  0  0  0  0  0  0  0  0  0  0  0
   -4.1332   15.7546  -11.9693 H   0  0  0  0  0  0  0  0  0  0  0  0
   -3.6898   15.3350  -10.2800 H   0  0  0  0  0  0  0  0  0  0  0  0
   -2.1459   14.8676  -12.8458 H   0  0  0  0  0  0  0  0  0  0  0  0
   -1.6368   15.7375  -11.3590 H   0  0  0  0  0  0  0  0  0  0  0  0
   -2.2945   12.4382  -12.7285 H   0  0  0  0  0  0  0  0  0  0  0  0
   -1.6432   11.6386  -11.2578 H   0  0  0  0  0  0  0  0  0  0  0  0
   -3.5876   12.4537   -9.9140 H   0  0  0  0  0  0  0  0  0  0  0  0
   -4.1956   11.5825  -11.3625 H   0  0  0  0  0  0  0  0  0  0  0  0
  1  2  2  0  0  0  0
  1  4  1  0  0  0  0
  1 12  1  0  0  0  0
  2  6  1  0  0  0  0
  3  4  1  0  0  0  0
  3  5  2  0  0  0  0
  5  6  1  0  0  0  0
  5  9  1  0  0  0  0
  6  7  2  0  0  0  0
  7  8  1  0  0  0  0
  7 10  1  0  0  0  0
  8  9  2  0  0  0  0
 10 14  2  0  0  0  0
 11 12  1  0  0  0  0
 11 26  1  0  0  0  0
 11 30  1  0  0  0  0
 12 13  2  0  0  0  0
 14 15  1  0  0  0  0
 14 19  1  0  0  0  0
 15 16  2  0  0  0  0
 16 17  1  0  0  0  0
 17 18  1  0  0  0  0
 17 20  1  0  0  0  0
 18 19  2  0  0  0  0
 20 21  2  0  0  0  0
 20 24  1  0  0  0  0
 21 22  1  0  0  0  0
 22 23  1  0  0  0  0
 22 25  1  0  0  0  0
 23 24  2  0  0  0  0
 26 27  1  0  0  0  0
 27 28  1  0  0  0  0
 28 29  1  0  0  0  0
 29 30  1  0  0  0  0
  2 31  1  0  0  0  0
  3 32  1  0  0  0  0
  4 33  1  0  0  0  0
  4 34  1  0  0  0  0
 10 35  1  0  0  0  0
 15 36  1  0  0  0  0
 16 37  1  0  0  0  0
 17 38  1  0  0  0  0
 18 39  1  0  0  0  0
 19 40  1  0  0  0  0
 21 41  1  0  0  0  0
 24 42  1  0  0  0  0
 25 43  1  0  0  0  0
 25 44  1  0  0  0  0
 25 45  1  0  0  0  0
 26 46  1  0  0  0  0
 26 47  1  0  0  0  0
 27 48  1  0  0  0  0
 27 49  1  0  0  0  0
 29 50  1  0  0  0  0
 29 51  1  0  0  0  0
 30 52  1  0  0  0  0
 30 53  1  0  0  0  0
M  END
> <Name>
39

> <IC50[uM]>
0.004

$$$$
39
  -OEChem-05192314333D
 Structure written by MMmdl.
 53 57  0     1  0  0  0  0  0999 V2000
   -6.3502   12.3553  -12.0171 C   0  0  0  0  0  0  0  0  0  0  0  0
   -6.4935   11.7977  -10.7426 C   0  0  0  0  0  0  0  0  0  0  0  0
   -7.7106   10.5751  -13.0385 C   0  0  0  0  0  0  0  0  0  0  0  0
   -6.9725   11.7720  -13.1357 C   0  0  0  0  0  0  0  0  0  0  0  0
   -7.8130   10.0109  -11.7654 C   0  0  3  0  0  0  0  0  0  0  0  0
   -7.2309   10.6170  -10.6058 C   0  0  0  0  0  0  0  0  0  0  0  0
   -7.6111    9.7517   -9.5147 C   0  0  0  0  0  0  0  0  0  0  0  0
   -8.2865    8.7392   -9.9897 N   0  0  0  0  0  0  0  0  0  0  0  0
   -8.4152    8.8682  -11.3006 N   0  0  0  0  0  0  0  0  0  0  0  0
   -7.3373    9.8888   -8.0252 C   0  0  0  0  0  0  0  0  0  0  0  0
   -4.3541   13.7129  -11.4635 N   0  0  0  0  0  0  0  0  0  0  0  0
   -5.5361   13.6428  -12.1728 C   0  0  0  0  0  0  0  0  0  0  0  0
   -5.9526   14.5668  -12.8773 O   0  0  0  0  0  0  0  0  0  0  0  0
   -5.9623   10.4854   -7.7364 C   0  0  0  0  0  0  0  0  0  0  0  0
   -5.8532   11.7571   -7.1646 C   0  0  0  0  0  0  0  0  0  0  0  0
   -4.5945   12.3064   -6.9180 C   0  0  0  0  0  0  0  0  0  0  0  0
   -3.4446   11.5858   -7.2382 C   0  0  0  0  0  0  0  0  0  0  0  0
   -3.5555   10.3115   -7.8022 C   0  0  0  0  0  0  0  0  0  0  0  0
   -4.8126    9.7649   -8.0516 C   0  0  0  0  0  0  0  0  0  0  0  0
   -2.0930   12.1652   -6.9785 C   0  0  0  0  0  0  0  0  0  0  0  0
   -1.7427   13.4236   -6.4970 C   0  0  0  0  0  0  0  0  0  0  0  0
   -0.4061   13.4591   -6.4324 N   0  0  0  0  0  0  0  0  0  0  0  0
    0.1810   12.3567   -6.8070 N   0  0  0  0  0  0  0  0  0  0  0  0
   -0.8030   11.5520   -7.1701 C   0  0  0  0  0  0  0  0  0  0  0  0
    0.4260   14.5701   -5.9973 C   0  0  0  0  0  0  0  0  0  0  0  0
   -3.6444   15.0059  -11.3286 C   0  0  0  0  0  0  0  0  0  0  0  0
   -2.1848   14.8660  -11.7465 C   0  0  0  0  0  0  0  0  0  0  0  0
   -1.5251   13.6965  -11.2881 O   0  0  0  0  0  0  0  0  0  0  0  0
   -2.2131   12.5012  -11.6333 C   0  0  0  0  0  0  0  0  0  0  0  0
   -3.6517   12.4721  -11.0120 C   0  0  0  0  0  0  0  0  0  0  0  0
   -6.0438   12.2692   -9.8813 H   0  0  0  0  0  0  0  0  0  0  0  0
   -8.1720   10.1191  -13.9020 H   0  0  0  0  0  0  0  0  0  0  0  0
   -6.8821   12.2554  -14.0972 H   0  0  0  0  0  0  0  0  0  0  0  0
   -8.7432   10.5718  -11.5916 H   0  0  0  0  0  0  0  0  0  0  0  0
   -8.0379    9.5965   -7.2570 H   0  0  0  0  0  0  0  0  0  0  0  0
   -6.7437   12.3143   -6.9138 H   0  0  0  0  0  0  0  0  0  0  0  0
   -4.5109   13.2897   -6.4791 H   0  0  0  0  0  0  0  0  0  0  0  0
   -2.6655    9.7499   -8.0449 H   0  0  0  0  0  0  0  0  0  0  0  0
   -4.8654    8.8212   -7.4888 H   0  0  0  0  0  0  0  0  0  0  0  0
   -4.8575    9.5518   -9.1298 H   0  0  0  0  0  0  0  0  0  0  0  0
   -2.4205   14.2199   -6.2269 H   0  0  0  0  0  0  0  0  0  0  0  0
   -0.6578   10.5563   -7.5625 H   0  0  0  0  0  0  0  0  0  0  0  0
    1.4856   14.2813   -6.0588 H   0  0  0  0  0  0  0  0  0  0  0  0
    0.2449   15.4398   -6.6461 H   0  0  0  0  0  0  0  0  0  0  0  0
    0.1766   14.8298   -4.9579 H   0  0  0  0  0  0  0  0  0  0  0  0
   -4.1332   15.7546  -11.9693 H   0  0  0  0  0  0  0  0  0  0  0  0
   -3.6898   15.3350  -10.2800 H   0  0  0  0  0  0  0  0  0  0  0  0
   -2.1459   14.8676  -12.8458 H   0  0  0  0  0  0  0  0  0  0  0  0
   -1.6368   15.7375  -11.3590 H   0  0  0  0  0  0  0  0  0  0  0  0
   -2.2945   12.4382  -12.7285 H   0  0  0  0  0  0  0  0  0  0  0  0
   -1.6432   11.6386  -11.2578 H   0  0  0  0  0  0  0  0  0  0  0  0
   -3.5876   12.4537   -9.9140 H   0  0  0  0  0  0  0  0  0  0  0  0
   -4.1956   11.5825  -11.3625 H   0  0  0  0  0  0  0  0  0  0  0  0
  1  2  2  0  0  0  0
  1  4  1  0  0  0  0
  1 12  1  0  0  0  0
  2  6  1  0  0  0  0
  3  4  2  0  0  0  0
  3  5  1  0  0  0  0
  5  6  1  0  0  0  0
  5  9  1  0  0  0  0
  6  7  2  0  0  0  0
  7  8  1  0  0  0  0
  7 10  1  0  0  0  0
  8  9  2  0  0  0  0
 10 14  2  3  0  0  0
 11 12  1  0  0  0  0
 11 26  1  0  0  0  0
 11 30  1  0  0  0  0
 12 13  2  0  0  0  0
 14 15  1  0  0  0  0
 14 19  1  0  0  0  0
 15 16  2  0  0  0  0
 16 17  1  0  0  0  0
 17 18  2  0  0  0  0
 17 20  1  0  0  0  0
 18 19  1  0  0  0  0
 20 21  2  0  0  0  0
 20 24  1  0  0  0  0
 21 22  1  0  0  0  0
 22 23  1  0  0  0  0
 22 25  1  0  0  0  0
 23 24  2  0  0  0  0
 26 27  1  0  0  0  0
 27 28  1  0  0  0  0
 28 29  1  0  0  0  0
 29 30  1  0  0  0  0
  2 31  1  0  0  0  0
  3 32  1  0  0  0  0
  4 33  1  0  0  0  0
  5 34  1  0  0  0  0
 10 35  1  0  0  0  0
 15 36  1  0  0  0  0
 16 37  1  0  0  0  0
 18 38  1  0  0  0  0
 19 39  1  0  0  0  0
 19 40  1  0  0  0  0
 21 41  1  0  0  0  0
 24 42  1  0  0  0  0
 25 43  1  0  0  0  0
 25 44  1  0  0  0  0
 25 45  1  0  0  0  0
 26 46  1  0  0  0  0
 26 47  1  0  0  0  0
 27 48  1  0  0  0  0
 27 49  1  0  0  0  0
 29 50  1  0  0  0  0
 29 51  1  0  0  0  0
 30 52  1  0  0  0  0
 30 53  1  0  0  0  0
M  END
> <Name>
39

> <IC50[uM]>
0.004

$$$$
39
  -OEChem-05192314333D
 Structure written by MMmdl.
 53 57  0     0  0  0  0  0  0999 V2000
   -6.3502   12.3553  -12.0171 C   0  0  0  0  0  0  0  0  0  0  0  0
   -6.4935   11.7977  -10.7426 C   0  0  0  0  0  0  0  0  0  0  0  0
   -7.7106   10.5751  -13.0385 C   0  0  0  0  0  0  0  0  0  0  0  0
   -6.9725   11.7720  -13.1357 C   0  0  0  0  0  0  0  0  0  0  0  0
   -7.8130   10.0109  -11.7654 C   0  0  0  0  0  0  0  0  0  0  0  0
   -7.2309   10.6170  -10.6058 C   0  0  0  0  0  0  0  0  0  0  0  0
   -7.6111    9.7517   -9.5147 C   0  0  0  0  0  0  0  0  0  0  0  0
   -8.2865    8.7392   -9.9897 N   0  0  0  0  0  0  0  0  0  0  0  0
   -8.4152    8.8682  -11.3006 N   0  0  0  0  0  0  0  0  0  0  0  0
   -7.3373    9.8888   -8.0252 C   0  0  0  0  0  0  0  0  0  0  0  0
   -4.3541   13.7129  -11.4635 N   0  0  0  0  0  0  0  0  0  0  0  0
   -5.5361   13.6428  -12.1728 C   0  0  0  0  0  0  0  0  0  0  0  0
   -5.9526   14.5668  -12.8773 O   0  0  0  0  0  0  0  0  0  0  0  0
   -5.9623   10.4854   -7.7364 C   0  0  0  0  0  0  0  0  0  0  0  0
   -5.8532   11.7571   -7.1646 C   0  0  0  0  0  0  0  0  0  0  0  0
   -4.5945   12.3064   -6.9180 C   0  0  0  0  0  0  0  0  0  0  0  0
   -3.4446   11.5858   -7.2382 C   0  0  0  0  0  0  0  0  0  0  0  0
   -3.5555   10.3115   -7.8022 C   0  0  0  0  0  0  0  0  0  0  0  0
   -4.8126    9.7649   -8.0516 C   0  0  0  0  0  0  0  0  0  0  0  0
   -2.0930   12.1652   -6.9785 C   0  0  0  0  0  0  0  0  0  0  0  0
   -1.7427   13.4236   -6.4970 C   0  0  0  0  0  0  0  0  0  0  0  0
   -0.4061   13.4591   -6.4324 N   0  0  0  0  0  0  0  0  0  0  0  0
    0.1810   12.3567   -6.8070 N   0  0  0  0  0  0  0  0  0  0  0  0
   -0.8030   11.5520   -7.1701 C   0  0  0  0  0  0  0  0  0  0  0  0
    0.4260   14.5701   -5.9973 C   0  0  0  0  0  0  0  0  0  0  0  0
   -3.6444   15.0059  -11.3286 C   0  0  0  0  0  0  0  0  0  0  0  0
   -2.1848   14.8660  -11.7465 C   0  0  0  0  0  0  0  0  0  0  0  0
   -1.5251   13.6965  -11.2881 O   0  0  0  0  0  0  0  0  0  0  0  0
   -2.2131   12.5012  -11.6333 C   0  0  0  0  0  0  0  0  0  0  0  0
   -3.6517   12.4721  -11.0120 C   0  0  0  0  0  0  0  0  0  0  0  0
   -6.0438   12.2692   -9.8813 H   0  0  0  0  0  0  0  0  0  0  0  0
   -8.1720   10.1191  -13.9020 H   0  0  0  0  0  0  0  0  0  0  0  0
   -7.6642   12.5292  -13.5334 H   0  0  0  0  0  0  0  0  0  0  0  0
   -6.1745   11.5833  -13.8689 H   0  0  0  0  0  0  0  0  0  0  0  0
   -8.0379    9.5965   -7.2570 H   0  0  0  0  0  0  0  0  0  0  0  0
   -6.7437   12.3143   -6.9138 H   0  0  0  0  0  0  0  0  0  0  0  0
   -4.5109   13.2897   -6.4791 H   0  0  0  0  0  0  0  0  0  0  0  0
   -2.6655    9.7499   -8.0449 H   0  0  0  0  0  0  0  0  0  0  0  0
   -4.8654    8.8212   -7.4888 H   0  0  0  0  0  0  0  0  0  0  0  0
   -4.8575    9.5518   -9.1298 H   0  0  0  0  0  0  0  0  0  0  0  0
   -2.4205   14.2199   -6.2269 H   0  0  0  0  0  0  0  0  0  0  0  0
   -0.6578   10.5563   -7.5625 H   0  0  0  0  0  0  0  0  0  0  0  0
    1.4856   14.2813   -6.0588 H   0  0  0  0  0  0  0  0  0  0  0  0
    0.2449   15.4398   -6.6461 H   0  0  0  0  0  0  0  0  0  0  0  0
    0.1766   14.8298   -4.9579 H   0  0  0  0  0  0  0  0  0  0  0  0
   -4.1332   15.7546  -11.9693 H   0  0  0  0  0  0  0  0  0  0  0  0
   -3.6898   15.3350  -10.2800 H   0  0  0  0  0  0  0  0  0  0  0  0
   -2.1459   14.8676  -12.8458 H   0  0  0  0  0  0  0  0  0  0  0  0
   -1.6368   15.7375  -11.3590 H   0  0  0  0  0  0  0  0  0  0  0  0
   -2.2945   12.4382  -12.7285 H   0  0  0  0  0  0  0  0  0  0  0  0
   -1.6432   11.6386  -11.2578 H   0  0  0  0  0  0  0  0  0  0  0  0
   -3.5876   12.4537   -9.9140 H   0  0  0  0  0  0  0  0  0  0  0  0
   -4.1956   11.5825  -11.3625 H   0  0  0  0  0  0  0  0  0  0  0  0
  1  2  2  0  0  0  0
  1  4  1  0  0  0  0
  1 12  1  0  0  0  0
  2  6  1  0  0  0  0
  3  4  1  0  0  0  0
  3  5  2  0  0  0  0
  5  6  1  0  0  0  0
  5  9  1  0  0  0  0
  6  7  2  0  0  0  0
  7  8  1  0  0  0  0
  7 10  1  0  0  0  0
  8  9  2  0  0  0  0
 10 14  2  3  0  0  0
 11 12  1  0  0  0  0
 11 26  1  0  0  0  0
 11 30  1  0  0  0  0
 12 13  2  0  0  0  0
 14 15  1  0  0  0  0
 14 19  1  0  0  0  0
 15 16  2  0  0  0  0
 16 17  1  0  0  0  0
 17 18  2  0  0  0  0
 17 20  1  0  0  0  0
 18 19  1  0  0  0  0
 20 21  2  0  0  0  0
 20 24  1  0  0  0  0
 21 22  1  0  0  0  0
 22 23  1  0  0  0  0
 22 25  1  0  0  0  0
 23 24  2  0  0  0  0
 26 27  1  0  0  0  0
 27 28  1  0  0  0  0
 28 29  1  0  0  0  0
 29 30  1  0  0  0  0
  2 31  1  0  0  0  0
  3 32  1  0  0  0  0
  4 33  1  0  0  0  0
  4 34  1  0  0  0  0
 10 35  1  0  0  0  0
 15 36  1  0  0  0  0
 16 37  1  0  0  0  0
 18 38  1  0  0  0  0
 19 39  1  0  0  0  0
 19 40  1  0  0  0  0
 21 41  1  0  0  0  0
 24 42  1  0  0  0  0
 25 43  1  0  0  0  0
 25 44  1  0  0  0  0
 25 45  1  0  0  0  0
 26 46  1  0  0  0  0
 26 47  1  0  0  0  0
 27 48  1  0  0  0  0
 27 49  1  0  0  0  0
 29 50  1  0  0  0  0
 29 51  1  0  0  0  0
 30 52  1  0  0  0  0
 30 53  1  0  0  0  0
M  END
> <Name>
39

> <IC50[uM]>
0.004

$$$$
39
  -OEChem-05192314333D
 Structure written by MMmdl.
 53 57  0     0  0  0  0  0  0999 V2000
   -6.3502   12.3553  -12.0171 C   0  0  0  0  0  0  0  0  0  0  0  0
   -6.4935   11.7977  -10.7426 C   0  0  0  0  0  0  0  0  0  0  0  0
   -7.7106   10.5751  -13.0385 C   0  0  0  0  0  0  0  0  0  0  0  0
   -6.9725   11.7720  -13.1357 C   0  0  0  0  0  0  0  0  0  0  0  0
   -7.8130   10.0109  -11.7654 C   0  0  0  0  0  0  0  0  0  0  0  0
   -7.2309   10.6170  -10.6058 C   0  0  0  0  0  0  0  0  0  0  0  0
   -7.6111    9.7517   -9.5147 C   0  0  0  0  0  0  0  0  0  0  0  0
   -8.2865    8.7392   -9.9897 N   0  0  0  0  0  0  0  0  0  0  0  0
   -8.4152    8.8682  -11.3006 N   0  0  0  0  0  0  0  0  0  0  0  0
   -7.3373    9.8888   -8.0252 C   0  0  0  0  0  0  0  0  0  0  0  0
   -4.3541   13.7129  -11.4635 N   0  0  0  0  0  0  0  0  0  0  0  0
   -5.5361   13.6428  -12.1728 C   0  0  0  0  0  0  0  0  0  0  0  0
   -5.9526   14.5668  -12.8773 O   0  0  0  0  0  0  0  0  0  0  0  0
   -5.9623   10.4854   -7.7364 C   0  0  0  0  0  0  0  0  0  0  0  0
   -5.8532   11.7571   -7.1646 C   0  0  0  0  0  0  0  0  0  0  0  0
   -4.5945   12.3064   -6.9180 C   0  0  0  0  0  0  0  0  0  0  0  0
   -3.4446   11.5858   -7.2382 C   0  0  0  0  0  0  0  0  0  0  0  0
   -3.5555   10.3115   -7.8022 C   0  0  0  0  0  0  0  0  0  0  0  0
   -4.8126    9.7649   -8.0516 C   0  0  0  0  0  0  0  0  0  0  0  0
   -2.0930   12.1652   -6.9785 C   0  0  0  0  0  0  0  0  0  0  0  0
   -1.7427   13.4236   -6.4970 C   0  0  0  0  0  0  0  0  0  0  0  0
   -0.4061   13.4591   -6.4324 N   0  0  0  0  0  0  0  0  0  0  0  0
    0.1810   12.3567   -6.8070 N   0  0  0  0  0  0  0  0  0  0  0  0
   -0.8030   11.5520   -7.1701 C   0  0  0  0  0  0  0  0  0  0  0  0
    0.4260   14.5701   -5.9973 C   0  0  0  0  0  0  0  0  0  0  0  0
   -3.6444   15.0059  -11.3286 C   0  0  0  0  0  0  0  0  0  0  0  0
   -2.1848   14.8660  -11.7465 C   0  0  0  0  0  0  0  0  0  0  0  0
   -1.5251   13.6965  -11.2881 O   0  0  0  0  0  0  0  0  0  0  0  0
   -2.2131   12.5012  -11.6333 C   0  0  0  0  0  0  0  0  0  0  0  0
   -3.6517   12.4721  -11.0120 C   0  0  0  0  0  0  0  0  0  0  0  0
   -5.4816   11.5935  -10.3627 H   0  0  0  0  0  0  0  0  0  0  0  0
   -6.9766   12.5565  -10.1095 H   0  0  0  0  0  0  0  0  0  0  0  0
   -8.1720   10.1191  -13.9020 H   0  0  0  0  0  0  0  0  0  0  0  0
   -6.8821   12.2554  -14.0972 H   0  0  0  0  0  0  0  0  0  0  0  0
   -8.0379    9.5965   -7.2570 H   0  0  0  0  0  0  0  0  0  0  0  0
   -6.7437   12.3143   -6.9138 H   0  0  0  0  0  0  0  0  0  0  0  0
   -4.5109   13.2897   -6.4791 H   0  0  0  0  0  0  0  0  0  0  0  0
   -3.4437   12.0319   -8.2437 H   0  0  0  0  0  0  0  0  0  0  0  0
   -2.6655    9.7499   -8.0449 H   0  0  0  0  0  0  0  0  0  0  0  0
   -4.8957    8.7813   -8.4899 H   0  0  0  0  0  0  0  0  0  0  0  0
   -2.4205   14.2199   -6.2269 H   0  0  0  0  0  0  0  0  0  0  0  0
   -0.6578   10.5563   -7.5625 H   0  0  0  0  0  0  0  0  0  0  0  0
    1.4856   14.2813   -6.0588 H   0  0  0  0  0  0  0  0  0  0  0  0
    0.2449   15.4398   -6.6461 H   0  0  0  0  0  0  0  0  0  0  0  0
    0.1766   14.8298   -4.9579 H   0  0  0  0  0  0  0  0  0  0  0  0
   -4.1332   15.7546  -11.9693 H   0  0  0  0  0  0  0  0  0  0  0  0
   -3.6898   15.3350  -10.2800 H   0  0  0  0  0  0  0  0  0  0  0  0
   -2.1459   14.8676  -12.8458 H   0  0  0  0  0  0  0  0  0  0  0  0
   -1.6368   15.7375  -11.3590 H   0  0  0  0  0  0  0  0  0  0  0  0
   -2.2945   12.4382  -12.7285 H   0  0  0  0  0  0  0  0  0  0  0  0
   -1.6432   11.6386  -11.2578 H   0  0  0  0  0  0  0  0  0  0  0  0
   -3.5876   12.4537   -9.9140 H   0  0  0  0  0  0  0  0  0  0  0  0
   -4.1956   11.5825  -11.3625 H   0  0  0  0  0  0  0  0  0  0  0  0
  1  2  1  0  0  0  0
  1  4  2  0  0  0  0
  1 12  1  0  0  0  0
  2  6  1  0  0  0  0
  3  4  1  0  0  0  0
  3  5  2  0  0  0  0
  5  6  1  0  0  0  0
  5  9  1  0  0  0  0
  6  7  2  0  0  0  0
  7  8  1  0  0  0  0
  7 10  1  0  0  0  0
  8  9  2  0  0  0  0
 10 14  2  0  0  0  0
 11 12  1  0  0  0  0
 11 26  1  0  0  0  0
 11 30  1  0  0  0  0
 12 13  2  0  0  0  0
 14 15  1  0  0  0  0
 14 19  1  0  0  0  0
 15 16  2  0  0  0  0
 16 17  1  0  0  0  0
 17 18  1  0  0  0  0
 17 20  1  0  0  0  0
 18 19  2  0  0  0  0
 20 21  2  0  0  0  0
 20 24  1  0  0  0  0
 21 22  1  0  0  0  0
 22 23  1  0  0  0  0
 22 25  1  0  0  0  0
 23 24  2  0  0  0  0
 26 27  1  0  0  0  0
 27 28  1  0  0  0  0
 28 29  1  0  0  0  0
 29 30  1  0  0  0  0
  2 31  1  0  0  0  0
  2 32  1  0  0  0  0
  3 33  1  0  0  0  0
  4 34  1  0  0  0  0
 10 35  1  0  0  0  0
 15 36  1  0  0  0  0
 16 37  1  0  0  0  0
 17 38  1  0  0  0  0
 18 39  1  0  0  0  0
 19 40  1  0  0  0  0
 21 41  1  0  0  0  0
 24 42  1  0  0  0  0
 25 43  1  0  0  0  0
 25 44  1  0  0  0  0
 25 45  1  0  0  0  0
 26 46  1  0  0  0  0
 26 47  1  0  0  0  0
 27 48  1  0  0  0  0
 27 49  1  0  0  0  0
 29 50  1  0  0  0  0
 29 51  1  0  0  0  0
 30 52  1  0  0  0  0
 30 53  1  0  0  0  0
M  END
> <Name>
39

> <IC50[uM]>
0.004

$$$$
39
  -OEChem-05192314333D
 Structure written by MMmdl.
 53 57  0     0  0  0  0  0  0999 V2000
   -6.3502   12.3553  -12.0171 C   0  0  0  0  0  0  0  0  0  0  0  0
   -6.4935   11.7977  -10.7426 C   0  0  0  0  0  0  0  0  0  0  0  0
   -7.7106   10.5751  -13.0385 C   0  0  0  0  0  0  0  0  0  0  0  0
   -6.9725   11.7720  -13.1357 C   0  0  0  0  0  0  0  0  0  0  0  0
   -7.8130   10.0109  -11.7654 C   0  0  0  0  0  0  0  0  0  0  0  0
   -7.2309   10.6170  -10.6058 C   0  0  0  0  0  0  0  0  0  0  0  0
   -7.6111    9.7517   -9.5147 C   0  0  0  0  0  0  0  0  0  0  0  0
   -8.2865    8.7392   -9.9897 N   0  0  0  0  0  0  0  0  0  0  0  0
   -8.4152    8.8682  -11.3006 N   0  0  0  0  0  0  0  0  0  0  0  0
   -7.3373    9.8888   -8.0252 C   0  0  0  0  0  0  0  0  0  0  0  0
   -4.3541   13.7129  -11.4635 N   0  0  0  0  0  0  0  0  0  0  0  0
   -5.5361   13.6428  -12.1728 C   0  0  0  0  0  0  0  0  0  0  0  0
   -5.9526   14.5668  -12.8773 O   0  0  0  0  0  0  0  0  0  0  0  0
   -5.9623   10.4854   -7.7364 C   0  0  0  0  0  0  0  0  0  0  0  0
   -5.8532   11.7571   -7.1646 C   0  0  0  0  0  0  0  0  0  0  0  0
   -4.5945   12.3064   -6.9180 C   0  0  0  0  0  0  0  0  0  0  0  0
   -3.4446   11.5858   -7.2382 C   0  0  0  0  0  0  0  0  0  0  0  0
   -3.5555   10.3115   -7.8022 C   0  0  0  0  0  0  0  0  0  0  0  0
   -4.8126    9.7649   -8.0516 C   0  0  0  0  0  0  0  0  0  0  0  0
   -2.0930   12.1652   -6.9785 C   0  0  0  0  0  0  0  0  0  0  0  0
   -1.7427   13.4236   -6.4970 C   0  0  0  0  0  0  0  0  0  0  0  0
   -0.4061   13.4591   -6.4324 N   0  0  0  0  0  0  0  0  0  0  0  0
    0.1810   12.3567   -6.8070 N   0  0  0  0  0  0  0  0  0  0  0  0
   -0.8030   11.5520   -7.1701 C   0  0  0  0  0  0  0  0  0  0  0  0
    0.4260   14.5701   -5.9973 C   0  0  0  0  0  0  0  0  0  0  0  0
   -3.6444   15.0059  -11.3286 C   0  0  0  0  0  0  0  0  0  0  0  0
   -2.1848   14.8660  -11.7465 C   0  0  0  0  0  0  0  0  0  0  0  0
   -1.5251   13.6965  -11.2881 O   0  0  0  0  0  0  0  0  0  0  0  0
   -2.2131   12.5012  -11.6333 C   0  0  0  0  0  0  0  0  0  0  0  0
   -3.6517   12.4721  -11.0120 C   0  0  0  0  0  0  0  0  0  0  0  0
   -5.4816   11.5935  -10.3627 H   0  0  0  0  0  0  0  0  0  0  0  0
   -6.9766   12.5565  -10.1095 H   0  0  0  0  0  0  0  0  0  0  0  0
   -8.1720   10.1191  -13.9020 H   0  0  0  0  0  0  0  0  0  0  0  0
   -6.8821   12.2554  -14.0972 H   0  0  0  0  0  0  0  0  0  0  0  0
   -8.0379    9.5965   -7.2570 H   0  0  0  0  0  0  0  0  0  0  0  0
   -6.7437   12.3143   -6.9138 H   0  0  0  0  0  0  0  0  0  0  0  0
   -4.5109   13.2897   -6.4791 H   0  0  0  0  0  0  0  0  0  0  0  0
   -2.6655    9.7499   -8.0449 H   0  0  0  0  0  0  0  0  0  0  0  0
   -4.8654    8.8212   -7.4888 H   0  0  0  0  0  0  0  0  0  0  0  0
   -4.8575    9.5518   -9.1298 H   0  0  0  0  0  0  0  0  0  0  0  0
   -2.4205   14.2199   -6.2269 H   0  0  0  0  0  0  0  0  0  0  0  0
   -0.6578   10.5563   -7.5625 H   0  0  0  0  0  0  0  0  0  0  0  0
    1.4856   14.2813   -6.0588 H   0  0  0  0  0  0  0  0  0  0  0  0
    0.2449   15.4398   -6.6461 H   0  0  0  0  0  0  0  0  0  0  0  0
    0.1766   14.8298   -4.9579 H   0  0  0  0  0  0  0  0  0  0  0  0
   -4.1332   15.7546  -11.9693 H   0  0  0  0  0  0  0  0  0  0  0  0
   -3.6898   15.3350  -10.2800 H   0  0  0  0  0  0  0  0  0  0  0  0
   -2.1459   14.8676  -12.8458 H   0  0  0  0  0  0  0  0  0  0  0  0
   -1.6368   15.7375  -11.3590 H   0  0  0  0  0  0  0  0  0  0  0  0
   -2.2945   12.4382  -12.7285 H   0  0  0  0  0  0  0  0  0  0  0  0
   -1.6432   11.6386  -11.2578 H   0  0  0  0  0  0  0  0  0  0  0  0
   -3.5876   12.4537   -9.9140 H   0  0  0  0  0  0  0  0  0  0  0  0
   -4.1956   11.5825  -11.3625 H   0  0  0  0  0  0  0  0  0  0  0  0
  1  2  1  0  0  0  0
  1  4  2  0  0  0  0
  1 12  1  0  0  0  0
  2  6  1  0  0  0  0
  3  4  1  0  0  0  0
  3  5  2  0  0  0  0
  5  6  1  0  0  0  0
  5  9  1  0  0  0  0
  6  7  2  0  0  0  0
  7  8  1  0  0  0  0
  7 10  1  0  0  0  0
  8  9  2  0  0  0  0
 10 14  2  3  0  0  0
 11 12  1  0  0  0  0
 11 26  1  0  0  0  0
 11 30  1  0  0  0  0
 12 13  2  0  0  0  0
 14 15  1  0  0  0  0
 14 19  1  0  0  0  0
 15 16  2  0  0  0  0
 16 17  1  0  0  0  0
 17 18  2  0  0  0  0
 17 20  1  0  0  0  0
 18 19  1  0  0  0  0
 20 21  2  0  0  0  0
 20 24  1  0  0  0  0
 21 22  1  0  0  0  0
 22 23  1  0  0  0  0
 22 25  1  0  0  0  0
 23 24  2  0  0  0  0
 26 27  1  0  0  0  0
 27 28  1  0  0  0  0
 28 29  1  0  0  0  0
 29 30  1  0  0  0  0
  2 31  1  0  0  0  0
  2 32  1  0  0  0  0
  3 33  1  0  0  0  0
  4 34  1  0  0  0  0
 10 35  1  0  0  0  0
 15 36  1  0  0  0  0
 16 37  1  0  0  0  0
 18 38  1  0  0  0  0
 19 39  1  0  0  0  0
 19 40  1  0  0  0  0
 21 41  1  0  0  0  0
 24 42  1  0  0  0  0
 25 43  1  0  0  0  0
 25 44  1  0  0  0  0
 25 45  1  0  0  0  0
 26 46  1  0  0  0  0
 26 47  1  0  0  0  0
 27 48  1  0  0  0  0
 27 49  1  0  0  0  0
 29 50  1  0  0  0  0
 29 51  1  0  0  0  0
 30 52  1  0  0  0  0
 30 53  1  0  0  0  0
M  END
> <Name>
39

> <IC50[uM]>
0.004

$$$$
39
  -OEChem-05192314333D
 Structure written by MMmdl.
 53 57  0     0  0  0  0  0  0999 V2000
   -6.3502   12.3553  -12.0171 C   0  0  0  0  0  0  0  0  0  0  0  0
   -6.4935   11.7977  -10.7426 C   0  0  0  0  0  0  0  0  0  0  0  0
   -7.7106   10.5751  -13.0385 C   0  0  0  0  0  0  0  0  0  0  0  0
   -6.9725   11.7720  -13.1357 C   0  0  0  0  0  0  0  0  0  0  0  0
   -7.8130   10.0109  -11.7654 C   0  0  0  0  0  0  0  0  0  0  0  0
   -7.2309   10.6170  -10.6058 C   0  0  0  0  0  0  0  0  0  0  0  0
   -7.6111    9.7517   -9.5147 C   0  0  0  0  0  0  0  0  0  0  0  0
   -8.2865    8.7392   -9.9897 N   0  0  0  0  0  0  0  0  0  0  0  0
   -8.4152    8.8682  -11.3006 N   0  0  0  0  0  0  0  0  0  0  0  0
   -7.3373    9.8888   -8.0252 C   0  0  0  0  0  0  0  0  0  0  0  0
   -4.3541   13.7129  -11.4635 N   0  0  0  0  0  0  0  0  0  0  0  0
   -5.5361   13.6428  -12.1728 C   0  0  0  0  0  0  0  0  0  0  0  0
   -5.9526   14.5668  -12.8773 O   0  0  0  0  0  0  0  0  0  0  0  0
   -5.9623   10.4854   -7.7364 C   0  0  0  0  0  0  0  0  0  0  0  0
   -5.8532   11.7571   -7.1646 C   0  0  0  0  0  0  0  0  0  0  0  0
   -4.5945   12.3064   -6.9180 C   0  0  0  0  0  0  0  0  0  0  0  0
   -3.4446   11.5858   -7.2382 C   0  0  0  0  0  0  0  0  0  0  0  0
   -3.5555   10.3115   -7.8022 C   0  0  0  0  0  0  0  0  0  0  0  0
   -4.8126    9.7649   -8.0516 C   0  0  0  0  0  0  0  0  0  0  0  0
   -2.0930   12.1652   -6.9785 C   0  0  0  0  0  0  0  0  0  0  0  0
   -1.7427   13.4236   -6.4970 C   0  0  0  0  0  0  0  0  0  0  0  0
   -0.4061   13.4591   -6.4324 N   0  0  0  0  0  0  0  0  0  0  0  0
    0.1810   12.3567   -6.8070 N   0  0  0  0  0  0  0  0  0  0  0  0
   -0.8030   11.5520   -7.1701 C   0  0  0  0  0  0  0  0  0  0  0  0
    0.4260   14.5701   -5.9973 C   0  0  0  0  0  0  0  0  0  0  0  0
   -3.6444   15.0059  -11.3286 C   0  0  0  0  0  0  0  0  0  0  0  0
   -2.1848   14.8660  -11.7465 C   0  0  0  0  0  0  0  0  0  0  0  0
   -1.5251   13.6965  -11.2881 O   0  0  0  0  0  0  0  0  0  0  0  0
   -2.2131   12.5012  -11.6333 C   0  0  0  0  0  0  0  0  0  0  0  0
   -3.6517   12.4721  -11.0120 C   0  0  0  0  0  0  0  0  0  0  0  0
   -6.0438   12.2692   -9.8813 H   0  0  0  0  0  0  0  0  0  0  0  0
   -8.1720   10.1191  -13.9020 H   0  0  0  0  0  0  0  0  0  0  0  0
   -6.8821   12.2554  -14.0972 H   0  0  0  0  0  0  0  0  0  0  0  0
   -8.6504    7.9828   -9.4462 H   0  0  0  0  0  0  0  0  0  0  0  0
   -8.0379    9.5965   -7.2570 H   0  0  0  0  0  0  0  0  0  0  0  0
   -5.3286   15.2830  -12.8625 H   0  0  0  0  0  0  0  0  0  0  0  0
   -6.7437   12.3143   -6.9138 H   0  0  0  0  0  0  0  0  0  0  0  0
   -4.5109   13.2897   -6.4791 H   0  0  0  0  0  0  0  0  0  0  0  0
   -2.6655    9.7499   -8.0449 H   0  0  0  0  0  0  0  0  0  0  0  0
   -4.8957    8.7813   -8.4899 H   0  0  0  0  0  0  0  0  0  0  0  0
   -2.4205   14.2199   -6.2269 H   0  0  0  0  0  0  0  0  0  0  0  0
   -0.6578   10.5563   -7.5625 H   0  0  0  0  0  0  0  0  0  0  0  0
    1.4856   14.2813   -6.0588 H   0  0  0  0  0  0  0  0  0  0  0  0
    0.2449   15.4398   -6.6461 H   0  0  0  0  0  0  0  0  0  0  0  0
    0.1766   14.8298   -4.9579 H   0  0  0  0  0  0  0  0  0  0  0  0
   -4.1332   15.7546  -11.9693 H   0  0  0  0  0  0  0  0  0  0  0  0
   -3.6898   15.3350  -10.2800 H   0  0  0  0  0  0  0  0  0  0  0  0
   -2.1459   14.8676  -12.8458 H   0  0  0  0  0  0  0  0  0  0  0  0
   -1.6368   15.7375  -11.3590 H   0  0  0  0  0  0  0  0  0  0  0  0
   -2.2945   12.4382  -12.7285 H   0  0  0  0  0  0  0  0  0  0  0  0
   -1.6432   11.6386  -11.2578 H   0  0  0  0  0  0  0  0  0  0  0  0
   -3.5876   12.4537   -9.9140 H   0  0  0  0  0  0  0  0  0  0  0  0
   -4.1956   11.5825  -11.3625 H   0  0  0  0  0  0  0  0  0  0  0  0
  1  2  1  0  0  0  0
  1  4  1  0  0  0  0
  1 12  2  3  0  0  0
  2  6  2  0  0  0  0
  3  4  2  0  0  0  0
  3  5  1  0  0  0  0
  5  6  1  0  0  0  0
  5  9  2  0  0  0  0
  6  7  1  0  0  0  0
  7  8  1  0  0  0  0
  7 10  2  3  0  0  0
  8  9  1  0  0  0  0
 10 14  1  0  0  0  0
 11 12  1  0  0  0  0
 11 26  1  0  0  0  0
 11 30  1  0  0  0  0
 12 13  1  0  0  0  0
 14 15  2  0  0  0  0
 14 19  1  0  0  0  0
 15 16  1  0  0  0  0
 16 17  2  0  0  0  0
 17 18  1  0  0  0  0
 17 20  1  0  0  0  0
 18 19  2  0  0  0  0
 20 21  2  0  0  0  0
 20 24  1  0  0  0  0
 21 22  1  0  0  0  0
 22 23  1  0  0  0  0
 22 25  1  0  0  0  0
 23 24  2  0  0  0  0
 26 27  1  0  0  0  0
 27 28  1  0  0  0  0
 28 29  1  0  0  0  0
 29 30  1  0  0  0  0
  2 31  1  0  0  0  0
  3 32  1  0  0  0  0
  4 33  1  0  0  0  0
  8 34  1  0  0  0  0
 10 35  1  0  0  0  0
 13 36  1  0  0  0  0
 15 37  1  0  0  0  0
 16 38  1  0  0  0  0
 18 39  1  0  0  0  0
 19 40  1  0  0  0  0
 21 41  1  0  0  0  0
 24 42  1  0  0  0  0
 25 43  1  0  0  0  0
 25 44  1  0  0  0  0
 25 45  1  0  0  0  0
 26 46  1  0  0  0  0
 26 47  1  0  0  0  0
 27 48  1  0  0  0  0
 27 49  1  0  0  0  0
 29 50  1  0  0  0  0
 29 51  1  0  0  0  0
 30 52  1  0  0  0  0
 30 53  1  0  0  0  0
M  END
> <Name>
39

> <IC50[uM]>
0.004

$$$$
39
  -OEChem-05192314333D
 Structure written by MMmdl.
 53 57  0     1  0  0  0  0  0999 V2000
   -6.3502   12.3553  -12.0171 C   0  0  0  0  0  0  0  0  0  0  0  0
   -6.4935   11.7977  -10.7426 C   0  0  0  0  0  0  0  0  0  0  0  0
   -7.7106   10.5751  -13.0385 C   0  0  0  0  0  0  0  0  0  0  0  0
   -6.9725   11.7720  -13.1357 C   0  0  0  0  0  0  0  0  0  0  0  0
   -7.8130   10.0109  -11.7654 C   0  0  0  0  0  0  0  0  0  0  0  0
   -7.2309   10.6170  -10.6058 C   0  0  0  0  0  0  0  0  0  0  0  0
   -7.6111    9.7517   -9.5147 C   0  0  0  0  0  0  0  0  0  0  0  0
   -8.2865    8.7392   -9.9897 N   0  0  0  0  0  0  0  0  0  0  0  0
   -8.4152    8.8682  -11.3006 N   0  0  0  0  0  0  0  0  0  0  0  0
   -7.3373    9.8888   -8.0252 C   0  0  0  0  0  0  0  0  0  0  0  0
   -4.3541   13.7129  -11.4635 N   0  0  0  0  0  0  0  0  0  0  0  0
   -5.5361   13.6428  -12.1728 C   0  0  3  0  0  0  0  0  0  0  0  0
   -5.9526   14.5668  -12.8773 O   0  0  0  0  0  0  0  0  0  0  0  0
   -5.9623   10.4854   -7.7364 C   0  0  0  0  0  0  0  0  0  0  0  0
   -5.8532   11.7571   -7.1646 C   0  0  0  0  0  0  0  0  0  0  0  0
   -4.5945   12.3064   -6.9180 C   0  0  0  0  0  0  0  0  0  0  0  0
   -3.4446   11.5858   -7.2382 C   0  0  0  0  0  0  0  0  0  0  0  0
   -3.5555   10.3115   -7.8022 C   0  0  0  0  0  0  0  0  0  0  0  0
   -4.8126    9.7649   -8.0516 C   0  0  0  0  0  0  0  0  0  0  0  0
   -2.0930   12.1652   -6.9785 C   0  0  0  0  0  0  0  0  0  0  0  0
   -1.7427   13.4236   -6.4970 C   0  0  0  0  0  0  0  0  0  0  0  0
   -0.4061   13.4591   -6.4324 N   0  0  0  0  0  0  0  0  0  0  0  0
    0.1810   12.3567   -6.8070 N   0  0  0  0  0  0  0  0  0  0  0  0
   -0.8030   11.5520   -7.1701 C   0  0  0  0  0  0  0  0  0  0  0  0
    0.4260   14.5701   -5.9973 C   0  0  0  0  0  0  0  0  0  0  0  0
   -3.6444   15.0059  -11.3286 C   0  0  0  0  0  0  0  0  0  0  0  0
   -2.1848   14.8660  -11.7465 C   0  0  0  0  0  0  0  0  0  0  0  0
   -1.5251   13.6965  -11.2881 O   0  0  0  0  0  0  0  0  0  0  0  0
   -2.2131   12.5012  -11.6333 C   0  0  0  0  0  0  0  0  0  0  0  0
   -3.6517   12.4721  -11.0120 C   0  0  0  0  0  0  0  0  0  0  0  0
   -6.0438   12.2692   -9.8813 H   0  0  0  0  0  0  0  0  0  0  0  0
   -8.1720   10.1191  -13.9020 H   0  0  0  0  0  0  0  0  0  0  0  0
   -6.8821   12.2554  -14.0972 H   0  0  0  0  0  0  0  0  0  0  0  0
   -8.0379    9.5965   -7.2570 H   0  0  0  0  0  0  0  0  0  0  0  0
   -5.0044   13.2122  -13.0341 H   0  0  0  0  0  0  0  0  0  0  0  0
   -5.3286   15.2830  -12.8625 H   0  0  0  0  0  0  0  0  0  0  0  0
   -6.7437   12.3143   -6.9138 H   0  0  0  0  0  0  0  0  0  0  0  0
   -4.5109   13.2897   -6.4791 H   0  0  0  0  0  0  0  0  0  0  0  0
   -2.6655    9.7499   -8.0449 H   0  0  0  0  0  0  0  0  0  0  0  0
   -4.8957    8.7813   -8.4899 H   0  0  0  0  0  0  0  0  0  0  0  0
   -2.4205   14.2199   -6.2269 H   0  0  0  0  0  0  0  0  0  0  0  0
   -0.6578   10.5563   -7.5625 H   0  0  0  0  0  0  0  0  0  0  0  0
    1.4856   14.2813   -6.0588 H   0  0  0  0  0  0  0  0  0  0  0  0
    0.2449   15.4398   -6.6461 H   0  0  0  0  0  0  0  0  0  0  0  0
    0.1766   14.8298   -4.9579 H   0  0  0  0  0  0  0  0  0  0  0  0
   -4.1332   15.7546  -11.9693 H   0  0  0  0  0  0  0  0  0  0  0  0
   -3.6898   15.3350  -10.2800 H   0  0  0  0  0  0  0  0  0  0  0  0
   -2.1459   14.8676  -12.8458 H   0  0  0  0  0  0  0  0  0  0  0  0
   -1.6368   15.7375  -11.3590 H   0  0  0  0  0  0  0  0  0  0  0  0
   -2.2945   12.4382  -12.7285 H   0  0  0  0  0  0  0  0  0  0  0  0
   -1.6432   11.6386  -11.2578 H   0  0  0  0  0  0  0  0  0  0  0  0
   -3.5876   12.4537   -9.9140 H   0  0  0  0  0  0  0  0  0  0  0  0
   -4.1956   11.5825  -11.3625 H   0  0  0  0  0  0  0  0  0  0  0  0
  1  2  2  0  0  0  0
  1  4  1  0  0  0  0
  1 12  1  0  0  0  0
  2  6  1  0  0  0  0
  3  4  2  0  0  0  0
  3  5  1  0  0  0  0
  5  6  2  0  0  0  0
  5  9  1  0  0  0  0
  6  7  1  0  0  0  0
  7  8  1  0  0  0  0
  7 10  2  3  0  0  0
  8  9  2  0  0  0  0
 10 14  1  0  0  0  0
 11 12  1  0  0  0  0
 11 26  1  0  0  0  0
 11 30  1  0  0  0  0
 12 13  1  0  0  0  0
 14 15  2  0  0  0  0
 14 19  1  0  0  0  0
 15 16  1  0  0  0  0
 16 17  2  0  0  0  0
 17 18  1  0  0  0  0
 17 20  1  0  0  0  0
 18 19  2  0  0  0  0
 20 21  2  0  0  0  0
 20 24  1  0  0  0  0
 21 22  1  0  0  0  0
 22 23  1  0  0  0  0
 22 25  1  0  0  0  0
 23 24  2  0  0  0  0
 26 27  1  0  0  0  0
 27 28  1  0  0  0  0
 28 29  1  0  0  0  0
 29 30  1  0  0  0  0
  2 31  1  0  0  0  0
  3 32  1  0  0  0  0
  4 33  1  0  0  0  0
 10 34  1  0  0  0  0
 12 35  1  0  0  0  0
 13 36  1  0  0  0  0
 15 37  1  0  0  0  0
 16 38  1  0  0  0  0
 18 39  1  0  0  0  0
 19 40  1  0  0  0  0
 21 41  1  0  0  0  0
 24 42  1  0  0  0  0
 25 43  1  0  0  0  0
 25 44  1  0  0  0  0
 25 45  1  0  0  0  0
 26 46  1  0  0  0  0
 26 47  1  0  0  0  0
 27 48  1  0  0  0  0
 27 49  1  0  0  0  0
 29 50  1  0  0  0  0
 29 51  1  0  0  0  0
 30 52  1  0  0  0  0
 30 53  1  0  0  0  0
M  END
> <Name>
39

> <IC50[uM]>
0.004

$$$$
39
  -OEChem-05192314333D
 Structure written by MMmdl.
 53 57  0     0  0  0  0  0  0999 V2000
   -6.3502   12.3553  -12.0171 C   0  0  0  0  0  0  0  0  0  0  0  0
   -6.4935   11.7977  -10.7426 C   0  0  0  0  0  0  0  0  0  0  0  0
   -7.7106   10.5751  -13.0385 C   0  0  0  0  0  0  0  0  0  0  0  0
   -6.9725   11.7720  -13.1357 C   0  0  0  0  0  0  0  0  0  0  0  0
   -7.8130   10.0109  -11.7654 C   0  0  0  0  0  0  0  0  0  0  0  0
   -7.2309   10.6170  -10.6058 C   0  0  0  0  0  0  0  0  0  0  0  0
   -7.6111    9.7517   -9.5147 C   0  0  0  0  0  0  0  0  0  0  0  0
   -8.2865    8.7392   -9.9897 N   0  0  0  0  0  0  0  0  0  0  0  0
   -8.4152    8.8682  -11.3006 N   0  0  0  0  0  0  0  0  0  0  0  0
   -7.3373    9.8888   -8.0252 C   0  0  0  0  0  0  0  0  0  0  0  0
   -4.3541   13.7129  -11.4635 N   0  0  0  0  0  0  0  0  0  0  0  0
   -5.5361   13.6428  -12.1728 C   0  0  0  0  0  0  0  0  0  0  0  0
   -5.9526   14.5668  -12.8773 O   0  0  0  0  0  0  0  0  0  0  0  0
   -5.9623   10.4854   -7.7364 C   0  0  0  0  0  0  0  0  0  0  0  0
   -5.8532   11.7571   -7.1646 C   0  0  0  0  0  0  0  0  0  0  0  0
   -4.5945   12.3064   -6.9180 C   0  0  0  0  0  0  0  0  0  0  0  0
   -3.4446   11.5858   -7.2382 C   0  0  0  0  0  0  0  0  0  0  0  0
   -3.5555   10.3115   -7.8022 C   0  0  0  0  0  0  0  0  0  0  0  0
   -4.8126    9.7649   -8.0516 C   0  0  0  0  0  0  0  0  0  0  0  0
   -2.0930   12.1652   -6.9785 C   0  0  0  0  0  0  0  0  0  0  0  0
   -1.7427   13.4236   -6.4970 C   0  0  0  0  0  0  0  0  0  0  0  0
   -0.4061   13.4591   -6.4324 N   0  0  0  0  0  0  0  0  0  0  0  0
    0.1810   12.3567   -6.8070 N   0  0  0  0  0  0  0  0  0  0  0  0
   -0.8030   11.5520   -7.1701 C   0  0  0  0  0  0  0  0  0  0  0  0
    0.4260   14.5701   -5.9973 C   0  0  0  0  0  0  0  0  0  0  0  0
   -3.6444   15.0059  -11.3286 C   0  0  0  0  0  0  0  0  0  0  0  0
   -2.1848   14.8660  -11.7465 C   0  0  0  0  0  0  0  0  0  0  0  0
   -1.5251   13.6965  -11.2881 O   0  0  0  0  0  0  0  0  0  0  0  0
   -2.2131   12.5012  -11.6333 C   0  0  0  0  0  0  0  0  0  0  0  0
   -3.6517   12.4721  -11.0120 C   0  0  0  0  0  0  0  0  0  0  0  0
   -6.0438   12.2692   -9.8813 H   0  0  0  0  0  0  0  0  0  0  0  0
   -8.1720   10.1191  -13.9020 H   0  0  0  0  0  0  0  0  0  0  0  0
   -6.8821   12.2554  -14.0972 H   0  0  0  0  0  0  0  0  0  0  0  0
   -8.1049   10.5416   -7.5840 H   0  0  0  0  0  0  0  0  0  0  0  0
   -7.3937    8.8922   -7.5629 H   0  0  0  0  0  0  0  0  0  0  0  0
   -5.3286   15.2830  -12.8625 H   0  0  0  0  0  0  0  0  0  0  0  0
   -6.7437   12.3143   -6.9138 H   0  0  0  0  0  0  0  0  0  0  0  0
   -4.5109   13.2897   -6.4791 H   0  0  0  0  0  0  0  0  0  0  0  0
   -2.6655    9.7499   -8.0449 H   0  0  0  0  0  0  0  0  0  0  0  0
   -4.8957    8.7813   -8.4899 H   0  0  0  0  0  0  0  0  0  0  0  0
   -2.4205   14.2199   -6.2269 H   0  0  0  0  0  0  0  0  0  0  0  0
   -0.6578   10.5563   -7.5625 H   0  0  0  0  0  0  0  0  0  0  0  0
    1.4856   14.2813   -6.0588 H   0  0  0  0  0  0  0  0  0  0  0  0
    0.2449   15.4398   -6.6461 H   0  0  0  0  0  0  0  0  0  0  0  0
    0.1766   14.8298   -4.9579 H   0  0  0  0  0  0  0  0  0  0  0  0
   -4.1332   15.7546  -11.9693 H   0  0  0  0  0  0  0  0  0  0  0  0
   -3.6898   15.3350  -10.2800 H   0  0  0  0  0  0  0  0  0  0  0  0
   -2.1459   14.8676  -12.8458 H   0  0  0  0  0  0  0  0  0  0  0  0
   -1.6368   15.7375  -11.3590 H   0  0  0  0  0  0  0  0  0  0  0  0
   -2.2945   12.4382  -12.7285 H   0  0  0  0  0  0  0  0  0  0  0  0
   -1.6432   11.6386  -11.2578 H   0  0  0  0  0  0  0  0  0  0  0  0
   -3.5876   12.4537   -9.9140 H   0  0  0  0  0  0  0  0  0  0  0  0
   -4.1956   11.5825  -11.3625 H   0  0  0  0  0  0  0  0  0  0  0  0
  1  2  1  0  0  0  0
  1  4  1  0  0  0  0
  1 12  2  3  0  0  0
  2  6  2  0  0  0  0
  3  4  2  0  0  0  0
  3  5  1  0  0  0  0
  5  6  1  0  0  0  0
  5  9  2  0  0  0  0
  6  7  1  0  0  0  0
  7  8  2  0  0  0  0
  7 10  1  0  0  0  0
  8  9  1  0  0  0  0
 10 14  1  0  0  0  0
 11 12  1  0  0  0  0
 11 26  1  0  0  0  0
 11 30  1  0  0  0  0
 12 13  1  0  0  0  0
 14 15  2  0  0  0  0
 14 19  1  0  0  0  0
 15 16  1  0  0  0  0
 16 17  2  0  0  0  0
 17 18  1  0  0  0  0
 17 20  1  0  0  0  0
 18 19  2  0  0  0  0
 20 21  2  0  0  0  0
 20 24  1  0  0  0  0
 21 22  1  0  0  0  0
 22 23  1  0  0  0  0
 22 25  1  0  0  0  0
 23 24  2  0  0  0  0
 26 27  1  0  0  0  0
 27 28  1  0  0  0  0
 28 29  1  0  0  0  0
 29 30  1  0  0  0  0
  2 31  1  0  0  0  0
  3 32  1  0  0  0  0
  4 33  1  0  0  0  0
 10 34  1  0  0  0  0
 10 35  1  0  0  0  0
 13 36  1  0  0  0  0
 15 37  1  0  0  0  0
 16 38  1  0  0  0  0
 18 39  1  0  0  0  0
 19 40  1  0  0  0  0
 21 41  1  0  0  0  0
 24 42  1  0  0  0  0
 25 43  1  0  0  0  0
 25 44  1  0  0  0  0
 25 45  1  0  0  0  0
 26 46  1  0  0  0  0
 26 47  1  0  0  0  0
 27 48  1  0  0  0  0
 27 49  1  0  0  0  0
 29 50  1  0  0  0  0
 29 51  1  0  0  0  0
 30 52  1  0  0  0  0
 30 53  1  0  0  0  0
M  END
> <Name>
39

> <IC50[uM]>
0.004

$$$$
39
  -OEChem-05192314333D
 Structure written by MMmdl.
 53 57  0     1  0  0  0  0  0999 V2000
   -6.3502   12.3553  -12.0171 C   0  0  0  0  0  0  0  0  0  0  0  0
   -6.4935   11.7977  -10.7426 C   0  0  0  0  0  0  0  0  0  0  0  0
   -7.7106   10.5751  -13.0385 C   0  0  0  0  0  0  0  0  0  0  0  0
   -6.9725   11.7720  -13.1357 C   0  0  0  0  0  0  0  0  0  0  0  0
   -7.8130   10.0109  -11.7654 C   0  0  0  0  0  0  0  0  0  0  0  0
   -7.2309   10.6170  -10.6058 C   0  0  0  0  0  0  0  0  0  0  0  0
   -7.6111    9.7517   -9.5147 C   0  0  0  0  0  0  0  0  0  0  0  0
   -8.2865    8.7392   -9.9897 N   0  0  0  0  0  0  0  0  0  0  0  0
   -8.4152    8.8682  -11.3006 N   0  0  0  0  0  0  0  0  0  0  0  0
   -7.3373    9.8888   -8.0252 C   0  0  0  0  0  0  0  0  0  0  0  0
   -4.3541   13.7129  -11.4635 N   0  0  0  0  0  0  0  0  0  0  0  0
   -5.5361   13.6428  -12.1728 C   0  0  0  0  0  0  0  0  0  0  0  0
   -5.9526   14.5668  -12.8773 O   0  0  0  0  0  0  0  0  0  0  0  0
   -5.9623   10.4854   -7.7364 C   0  0  0  0  0  0  0  0  0  0  0  0
   -5.8532   11.7571   -7.1646 C   0  0  0  0  0  0  0  0  0  0  0  0
   -4.5945   12.3064   -6.9180 C   0  0  0  0  0  0  0  0  0  0  0  0
   -3.4446   11.5858   -7.2382 C   0  0  0  0  0  0  0  0  0  0  0  0
   -3.5555   10.3115   -7.8022 C   0  0  0  0  0  0  0  0  0  0  0  0
   -4.8126    9.7649   -8.0516 C   0  0  0  0  0  0  0  0  0  0  0  0
   -2.0930   12.1652   -6.9785 C   0  0  0  0  0  0  0  0  0  0  0  0
   -1.7427   13.4236   -6.4970 C   0  0  0  0  0  0  0  0  0  0  0  0
   -0.4061   13.4591   -6.4324 N   0  0  3  0  0  0  0  0  0  0  0  0
    0.1810   12.3567   -6.8070 N   0  0  0  0  0  0  0  0  0  0  0  0
   -0.8030   11.5520   -7.1701 C   0  0  0  0  0  0  0  0  0  0  0  0
    0.4260   14.5701   -5.9973 C   0  0  0  0  0  0  0  0  0  0  0  0
   -3.6444   15.0059  -11.3286 C   0  0  0  0  0  0  0  0  0  0  0  0
   -2.1848   14.8660  -11.7465 C   0  0  0  0  0  0  0  0  0  0  0  0
   -1.5251   13.6965  -11.2881 O   0  0  0  0  0  0  0  0  0  0  0  0
   -2.2131   12.5012  -11.6333 C   0  0  0  0  0  0  0  0  0  0  0  0
   -3.6517   12.4721  -11.0120 C   0  0  0  0  0  0  0  0  0  0  0  0
   -6.0438   12.2692   -9.8813 H   0  0  0  0  0  0  0  0  0  0  0  0
   -8.1720   10.1191  -13.9020 H   0  0  0  0  0  0  0  0  0  0  0  0
   -6.8821   12.2554  -14.0972 H   0  0  0  0  0  0  0  0  0  0  0  0
   -8.0379    9.5965   -7.2570 H   0  0  0  0  0  0  0  0  0  0  0  0
   -5.3286   15.2830  -12.8625 H   0  0  0  0  0  0  0  0  0  0  0  0
   -6.7437   12.3143   -6.9138 H   0  0  0  0  0  0  0  0  0  0  0  0
   -4.5109   13.2897   -6.4791 H   0  0  0  0  0  0  0  0  0  0  0  0
   -2.6655    9.7499   -8.0449 H   0  0  0  0  0  0  0  0  0  0  0  0
   -4.8957    8.7813   -8.4899 H   0  0  0  0  0  0  0  0  0  0  0  0
   -2.1089   14.2047   -7.1794 H   0  0  0  0  0  0  0  0  0  0  0  0
   -2.1736   13.5790   -5.4969 H   0  0  0  0  0  0  0  0  0  0  0  0
   -0.6578   10.5563   -7.5625 H   0  0  0  0  0  0  0  0  0  0  0  0
    1.4856   14.2813   -6.0588 H   0  0  0  0  0  0  0  0  0  0  0  0
    0.2449   15.4398   -6.6461 H   0  0  0  0  0  0  0  0  0  0  0  0
    0.1766   14.8298   -4.9579 H   0  0  0  0  0  0  0  0  0  0  0  0
   -4.1332   15.7546  -11.9693 H   0  0  0  0  0  0  0  0  0  0  0  0
   -3.6898   15.3350  -10.2800 H   0  0  0  0  0  0  0  0  0  0  0  0
   -2.1459   14.8676  -12.8458 H   0  0  0  0  0  0  0  0  0  0  0  0
   -1.6368   15.7375  -11.3590 H   0  0  0  0  0  0  0  0  0  0  0  0
   -2.2945   12.4382  -12.7285 H   0  0  0  0  0  0  0  0  0  0  0  0
   -1.6432   11.6386  -11.2578 H   0  0  0  0  0  0  0  0  0  0  0  0
   -3.5876   12.4537   -9.9140 H   0  0  0  0  0  0  0  0  0  0  0  0
   -4.1956   11.5825  -11.3625 H   0  0  0  0  0  0  0  0  0  0  0  0
  1  2  1  0  0  0  0
  1  4  1  0  0  0  0
  1 12  2  3  0  0  0
  2  6  2  0  0  0  0
  3  4  2  0  0  0  0
  3  5  1  0  0  0  0
  5  6  1  0  0  0  0
  5  9  2  0  0  0  0
  6  7  1  0  0  0  0
  7  8  2  0  0  0  0
  7 10  1  0  0  0  0
  8  9  1  0  0  0  0
 10 14  2  0  0  0  0
 11 12  1  0  0  0  0
 11 26  1  0  0  0  0
 11 30  1  0  0  0  0
 12 13  1  0  0  0  0
 14 15  1  0  0  0  0
 14 19  1  0  0  0  0
 15 16  2  0  0  0  0
 16 17  1  0  0  0  0
 17 18  1  0  0  0  0
 17 20  2  0  0  0  0
 18 19  2  0  0  0  0
 20 21  1  0  0  0  0
 20 24  1  0  0  0  0
 21 22  1  0  0  0  0
 22 23  1  0  0  0  0
 22 25  1  0  0  0  0
 23 24  2  0  0  0  0
 26 27  1  0  0  0  0
 27 28  1  0  0  0  0
 28 29  1  0  0  0  0
 29 30  1  0  0  0  0
  2 31  1  0  0  0  0
  3 32  1  0  0  0  0
  4 33  1  0  0  0  0
 10 34  1  0  0  0  0
 13 35  1  0  0  0  0
 15 36  1  0  0  0  0
 16 37  1  0  0  0  0
 18 38  1  0  0  0  0
 19 39  1  0  0  0  0
 21 40  1  0  0  0  0
 21 41  1  0  0  0  0
 24 42  1  0  0  0  0
 25 43  1  0  0  0  0
 25 44  1  0  0  0  0
 25 45  1  0  0  0  0
 26 46  1  0  0  0  0
 26 47  1  0  0  0  0
 27 48  1  0  0  0  0
 27 49  1  0  0  0  0
 29 50  1  0  0  0  0
 29 51  1  0  0  0  0
 30 52  1  0  0  0  0
 30 53  1  0  0  0  0
M  END
> <Name>
39

> <IC50[uM]>
0.004

$$$$
39
  -OEChem-05192314333D
 Structure written by MMmdl.
 53 57  0     1  0  0  0  0  0999 V2000
   -6.3502   12.3553  -12.0171 C   0  0  0  0  0  0  0  0  0  0  0  0
   -6.4935   11.7977  -10.7426 C   0  0  0  0  0  0  0  0  0  0  0  0
   -7.7106   10.5751  -13.0385 C   0  0  0  0  0  0  0  0  0  0  0  0
   -6.9725   11.7720  -13.1357 C   0  0  0  0  0  0  0  0  0  0  0  0
   -7.8130   10.0109  -11.7654 C   0  0  3  0  0  0  0  0  0  0  0  0
   -7.2309   10.6170  -10.6058 C   0  0  0  0  0  0  0  0  0  0  0  0
   -7.6111    9.7517   -9.5147 C   0  0  0  0  0  0  0  0  0  0  0  0
   -8.2865    8.7392   -9.9897 N   0  0  0  0  0  0  0  0  0  0  0  0
   -8.4152    8.8682  -11.3006 N   0  0  0  0  0  0  0  0  0  0  0  0
   -7.3373    9.8888   -8.0252 C   0  0  0  0  0  0  0  0  0  0  0  0
   -4.3541   13.7129  -11.4635 N   0  0  0  0  0  0  0  0  0  0  0  0
   -5.5361   13.6428  -12.1728 C   0  0  0  0  0  0  0  0  0  0  0  0
   -5.9526   14.5668  -12.8773 O   0  0  0  0  0  0  0  0  0  0  0  0
   -5.9623   10.4854   -7.7364 C   0  0  0  0  0  0  0  0  0  0  0  0
   -5.8532   11.7571   -7.1646 C   0  0  0  0  0  0  0  0  0  0  0  0
   -4.5945   12.3064   -6.9180 C   0  0  0  0  0  0  0  0  0  0  0  0
   -3.4446   11.5858   -7.2382 C   0  0  0  0  0  0  0  0  0  0  0  0
   -3.5555   10.3115   -7.8022 C   0  0  0  0  0  0  0  0  0  0  0  0
   -4.8126    9.7649   -8.0516 C   0  0  0  0  0  0  0  0  0  0  0  0
   -2.0930   12.1652   -6.9785 C   0  0  0  0  0  0  0  0  0  0  0  0
   -1.7427   13.4236   -6.4970 C   0  0  0  0  0  0  0  0  0  0  0  0
   -0.4061   13.4591   -6.4324 N   0  0  0  0  0  0  0  0  0  0  0  0
    0.1810   12.3567   -6.8070 N   0  0  0  0  0  0  0  0  0  0  0  0
   -0.8030   11.5520   -7.1701 C   0  0  0  0  0  0  0  0  0  0  0  0
    0.4260   14.5701   -5.9973 C   0  0  0  0  0  0  0  0  0  0  0  0
   -3.6444   15.0059  -11.3286 C   0  0  0  0  0  0  0  0  0  0  0  0
   -2.1848   14.8660  -11.7465 C   0  0  0  0  0  0  0  0  0  0  0  0
   -1.5251   13.6965  -11.2881 O   0  0  0  0  0  0  0  0  0  0  0  0
   -2.2131   12.5012  -11.6333 C   0  0  0  0  0  0  0  0  0  0  0  0
   -3.6517   12.4721  -11.0120 C   0  0  0  0  0  0  0  0  0  0  0  0
   -6.0438   12.2692   -9.8813 H   0  0  0  0  0  0  0  0  0  0  0  0
   -8.1720   10.1191  -13.9020 H   0  0  0  0  0  0  0  0  0  0  0  0
   -6.8821   12.2554  -14.0972 H   0  0  0  0  0  0  0  0  0  0  0  0
   -8.7432   10.5718  -11.5916 H   0  0  0  0  0  0  0  0  0  0  0  0
   -8.0379    9.5965   -7.2570 H   0  0  0  0  0  0  0  0  0  0  0  0
   -5.3286   15.2830  -12.8625 H   0  0  0  0  0  0  0  0  0  0  0  0
   -6.7437   12.3143   -6.9138 H   0  0  0  0  0  0  0  0  0  0  0  0
   -4.5109   13.2897   -6.4791 H   0  0  0  0  0  0  0  0  0  0  0  0
   -2.6655    9.7499   -8.0449 H   0  0  0  0  0  0  0  0  0  0  0  0
   -4.8957    8.7813   -8.4899 H   0  0  0  0  0  0  0  0  0  0  0  0
   -2.4205   14.2199   -6.2269 H   0  0  0  0  0  0  0  0  0  0  0  0
   -0.6578   10.5563   -7.5625 H   0  0  0  0  0  0  0  0  0  0  0  0
    1.4856   14.2813   -6.0588 H   0  0  0  0  0  0  0  0  0  0  0  0
    0.2449   15.4398   -6.6461 H   0  0  0  0  0  0  0  0  0  0  0  0
    0.1766   14.8298   -4.9579 H   0  0  0  0  0  0  0  0  0  0  0  0
   -4.1332   15.7546  -11.9693 H   0  0  0  0  0  0  0  0  0  0  0  0
   -3.6898   15.3350  -10.2800 H   0  0  0  0  0  0  0  0  0  0  0  0
   -2.1459   14.8676  -12.8458 H   0  0  0  0  0  0  0  0  0  0  0  0
   -1.6368   15.7375  -11.3590 H   0  0  0  0  0  0  0  0  0  0  0  0
   -2.2945   12.4382  -12.7285 H   0  0  0  0  0  0  0  0  0  0  0  0
   -1.6432   11.6386  -11.2578 H   0  0  0  0  0  0  0  0  0  0  0  0
   -3.5876   12.4537   -9.9140 H   0  0  0  0  0  0  0  0  0  0  0  0
   -4.1956   11.5825  -11.3625 H   0  0  0  0  0  0  0  0  0  0  0  0
  1  2  1  0  0  0  0
  1  4  1  0  0  0  0
  1 12  2  3  0  0  0
  2  6  2  0  0  0  0
  3  4  2  0  0  0  0
  3  5  1  0  0  0  0
  5  6  1  0  0  0  0
  5  9  1  0  0  0  0
  6  7  1  0  0  0  0
  7  8  1  0  0  0  0
  7 10  2  3  0  0  0
  8  9  2  0  0  0  0
 10 14  1  0  0  0  0
 11 12  1  0  0  0  0
 11 26  1  0  0  0  0
 11 30  1  0  0  0  0
 12 13  1  0  0  0  0
 14 15  2  0  0  0  0
 14 19  1  0  0  0  0
 15 16  1  0  0  0  0
 16 17  2  0  0  0  0
 17 18  1  0  0  0  0
 17 20  1  0  0  0  0
 18 19  2  0  0  0  0
 20 21  2  0  0  0  0
 20 24  1  0  0  0  0
 21 22  1  0  0  0  0
 22 23  1  0  0  0  0
 22 25  1  0  0  0  0
 23 24  2  0  0  0  0
 26 27  1  0  0  0  0
 27 28  1  0  0  0  0
 28 29  1  0  0  0  0
 29 30  1  0  0  0  0
  2 31  1  0  0  0  0
  3 32  1  0  0  0  0
  4 33  1  0  0  0  0
  5 34  1  0  0  0  0
 10 35  1  0  0  0  0
 13 36  1  0  0  0  0
 15 37  1  0  0  0  0
 16 38  1  0  0  0  0
 18 39  1  0  0  0  0
 19 40  1  0  0  0  0
 21 41  1  0  0  0  0
 24 42  1  0  0  0  0
 25 43  1  0  0  0  0
 25 44  1  0  0  0  0
 25 45  1  0  0  0  0
 26 46  1  0  0  0  0
 26 47  1  0  0  0  0
 27 48  1  0  0  0  0
 27 49  1  0  0  0  0
 29 50  1  0  0  0  0
 29 51  1  0  0  0  0
 30 52  1  0  0  0  0
 30 53  1  0  0  0  0
M  END
> <Name>
39

> <IC50[uM]>
0.004

$$$$
39
  -OEChem-05192314333D
 Structure written by MMmdl.
 53 57  0     0  0  0  0  0  0999 V2000
   -6.3502   12.3553  -12.0171 C   0  0  0  0  0  0  0  0  0  0  0  0
   -6.4935   11.7977  -10.7426 C   0  0  0  0  0  0  0  0  0  0  0  0
   -7.7106   10.5751  -13.0385 C   0  0  0  0  0  0  0  0  0  0  0  0
   -6.9725   11.7720  -13.1357 C   0  0  0  0  0  0  0  0  0  0  0  0
   -7.8130   10.0109  -11.7654 C   0  0  0  0  0  0  0  0  0  0  0  0
   -7.2309   10.6170  -10.6058 C   0  0  0  0  0  0  0  0  0  0  0  0
   -7.6111    9.7517   -9.5147 C   0  0  0  0  0  0  0  0  0  0  0  0
   -8.2865    8.7392   -9.9897 N   0  0  0  0  0  0  0  0  0  0  0  0
   -8.4152    8.8682  -11.3006 N   0  0  0  0  0  0  0  0  0  0  0  0
   -7.3373    9.8888   -8.0252 C   0  0  0  0  0  0  0  0  0  0  0  0
   -4.3541   13.7129  -11.4635 N   0  0  0  0  0  0  0  0  0  0  0  0
   -5.5361   13.6428  -12.1728 C   0  0  0  0  0  0  0  0  0  0  0  0
   -5.9526   14.5668  -12.8773 O   0  0  0  0  0  0  0  0  0  0  0  0
   -5.9623   10.4854   -7.7364 C   0  0  0  0  0  0  0  0  0  0  0  0
   -5.8532   11.7571   -7.1646 C   0  0  0  0  0  0  0  0  0  0  0  0
   -4.5945   12.3064   -6.9180 C   0  0  0  0  0  0  0  0  0  0  0  0
   -3.4446   11.5858   -7.2382 C   0  0  0  0  0  0  0  0  0  0  0  0
   -3.5555   10.3115   -7.8022 C   0  0  0  0  0  0  0  0  0  0  0  0
   -4.8126    9.7649   -8.0516 C   0  0  0  0  0  0  0  0  0  0  0  0
   -2.0930   12.1652   -6.9785 C   0  0  0  0  0  0  0  0  0  0  0  0
   -1.7427   13.4236   -6.4970 C   0  0  0  0  0  0  0  0  0  0  0  0
   -0.4061   13.4591   -6.4324 N   0  0  0  0  0  0  0  0  0  0  0  0
    0.1810   12.3567   -6.8070 N   0  0  0  0  0  0  0  0  0  0  0  0
   -0.8030   11.5520   -7.1701 C   0  0  0  0  0  0  0  0  0  0  0  0
    0.4260   14.5701   -5.9973 C   0  0  0  0  0  0  0  0  0  0  0  0
   -3.6444   15.0059  -11.3286 C   0  0  0  0  0  0  0  0  0  0  0  0
   -2.1848   14.8660  -11.7465 C   0  0  0  0  0  0  0  0  0  0  0  0
   -1.5251   13.6965  -11.2881 O   0  0  0  0  0  0  0  0  0  0  0  0
   -2.2131   12.5012  -11.6333 C   0  0  0  0  0  0  0  0  0  0  0  0
   -3.6517   12.4721  -11.0120 C   0  0  0  0  0  0  0  0  0  0  0  0
   -6.0438   12.2692   -9.8813 H   0  0  0  0  0  0  0  0  0  0  0  0
   -8.1720   10.1191  -13.9020 H   0  0  0  0  0  0  0  0  0  0  0  0
   -7.6642   12.5292  -13.5334 H   0  0  0  0  0  0  0  0  0  0  0  0
   -6.1745   11.5833  -13.8689 H   0  0  0  0  0  0  0  0  0  0  0  0
   -8.0379    9.5965   -7.2570 H   0  0  0  0  0  0  0  0  0  0  0  0
   -5.3286   15.2830  -12.8625 H   0  0  0  0  0  0  0  0  0  0  0  0
   -6.7437   12.3143   -6.9138 H   0  0  0  0  0  0  0  0  0  0  0  0
   -4.5109   13.2897   -6.4791 H   0  0  0  0  0  0  0  0  0  0  0  0
   -2.6655    9.7499   -8.0449 H   0  0  0  0  0  0  0  0  0  0  0  0
   -4.8957    8.7813   -8.4899 H   0  0  0  0  0  0  0  0  0  0  0  0
   -2.4205   14.2199   -6.2269 H   0  0  0  0  0  0  0  0  0  0  0  0
   -0.6578   10.5563   -7.5625 H   0  0  0  0  0  0  0  0  0  0  0  0
    1.4856   14.2813   -6.0588 H   0  0  0  0  0  0  0  0  0  0  0  0
    0.2449   15.4398   -6.6461 H   0  0  0  0  0  0  0  0  0  0  0  0
    0.1766   14.8298   -4.9579 H   0  0  0  0  0  0  0  0  0  0  0  0
   -4.1332   15.7546  -11.9693 H   0  0  0  0  0  0  0  0  0  0  0  0
   -3.6898   15.3350  -10.2800 H   0  0  0  0  0  0  0  0  0  0  0  0
   -2.1459   14.8676  -12.8458 H   0  0  0  0  0  0  0  0  0  0  0  0
   -1.6368   15.7375  -11.3590 H   0  0  0  0  0  0  0  0  0  0  0  0
   -2.2945   12.4382  -12.7285 H   0  0  0  0  0  0  0  0  0  0  0  0
   -1.6432   11.6386  -11.2578 H   0  0  0  0  0  0  0  0  0  0  0  0
   -3.5876   12.4537   -9.9140 H   0  0  0  0  0  0  0  0  0  0  0  0
   -4.1956   11.5825  -11.3625 H   0  0  0  0  0  0  0  0  0  0  0  0
  1  2  1  0  0  0  0
  1  4  1  0  0  0  0
  1 12  2  3  0  0  0
  2  6  2  0  0  0  0
  3  4  1  0  0  0  0
  3  5  2  0  0  0  0
  5  6  1  0  0  0  0
  5  9  1  0  0  0  0
  6  7  1  0  0  0  0
  7  8  1  0  0  0  0
  7 10  2  3  0  0  0
  8  9  2  0  0  0  0
 10 14  1  0  0  0  0
 11 12  1  0  0  0  0
 11 26  1  0  0  0  0
 11 30  1  0  0  0  0
 12 13  1  0  0  0  0
 14 15  2  0  0  0  0
 14 19  1  0  0  0  0
 15 16  1  0  0  0  0
 16 17  2  0  0  0  0
 17 18  1  0  0  0  0
 17 20  1  0  0  0  0
 18 19  2  0  0  0  0
 20 21  2  0  0  0  0
 20 24  1  0  0  0  0
 21 22  1  0  0  0  0
 22 23  1  0  0  0  0
 22 25  1  0  0  0  0
 23 24  2  0  0  0  0
 26 27  1  0  0  0  0
 27 28  1  0  0  0  0
 28 29  1  0  0  0  0
 29 30  1  0  0  0  0
  2 31  1  0  0  0  0
  3 32  1  0  0  0  0
  4 33  1  0  0  0  0
  4 34  1  0  0  0  0
 10 35  1  0  0  0  0
 13 36  1  0  0  0  0
 15 37  1  0  0  0  0
 16 38  1  0  0  0  0
 18 39  1  0  0  0  0
 19 40  1  0  0  0  0
 21 41  1  0  0  0  0
 24 42  1  0  0  0  0
 25 43  1  0  0  0  0
 25 44  1  0  0  0  0
 25 45  1  0  0  0  0
 26 46  1  0  0  0  0
 26 47  1  0  0  0  0
 27 48  1  0  0  0  0
 27 49  1  0  0  0  0
 29 50  1  0  0  0  0
 29 51  1  0  0  0  0
 30 52  1  0  0  0  0
 30 53  1  0  0  0  0
M  END
> <Name>
39

> <IC50[uM]>
0.004

$$$$
39
  -OEChem-05192314333D
 Structure written by MMmdl.
 53 57  0     0  0  0  0  0  0999 V2000
   -6.3502   12.3553  -12.0171 C   0  0  0  0  0  0  0  0  0  0  0  0
   -6.4935   11.7977  -10.7426 C   0  0  0  0  0  0  0  0  0  0  0  0
   -7.7106   10.5751  -13.0385 C   0  0  0  0  0  0  0  0  0  0  0  0
   -6.9725   11.7720  -13.1357 C   0  0  0  0  0  0  0  0  0  0  0  0
   -7.8130   10.0109  -11.7654 C   0  0  0  0  0  0  0  0  0  0  0  0
   -7.2309   10.6170  -10.6058 C   0  0  0  0  0  0  0  0  0  0  0  0
   -7.6111    9.7517   -9.5147 C   0  0  0  0  0  0  0  0  0  0  0  0
   -8.2865    8.7392   -9.9897 N   0  0  0  0  0  0  0  0  0  0  0  0
   -8.4152    8.8682  -11.3006 N   0  0  0  0  0  0  0  0  0  0  0  0
   -7.3373    9.8888   -8.0252 C   0  0  0  0  0  0  0  0  0  0  0  0
   -4.3541   13.7129  -11.4635 N   0  0  0  0  0  0  0  0  0  0  0  0
   -5.5361   13.6428  -12.1728 C   0  0  0  0  0  0  0  0  0  0  0  0
   -5.9526   14.5668  -12.8773 O   0  0  0  0  0  0  0  0  0  0  0  0
   -5.9623   10.4854   -7.7364 C   0  0  0  0  0  0  0  0  0  0  0  0
   -5.8532   11.7571   -7.1646 C   0  0  0  0  0  0  0  0  0  0  0  0
   -4.5945   12.3064   -6.9180 C   0  0  0  0  0  0  0  0  0  0  0  0
   -3.4446   11.5858   -7.2382 C   0  0  0  0  0  0  0  0  0  0  0  0
   -3.5555   10.3115   -7.8022 C   0  0  0  0  0  0  0  0  0  0  0  0
   -4.8126    9.7649   -8.0516 C   0  0  0  0  0  0  0  0  0  0  0  0
   -2.0930   12.1652   -6.9785 C   0  0  0  0  0  0  0  0  0  0  0  0
   -1.7427   13.4236   -6.4970 C   0  0  0  0  0  0  0  0  0  0  0  0
   -0.4061   13.4591   -6.4324 N   0  0  0  0  0  0  0  0  0  0  0  0
    0.1810   12.3567   -6.8070 N   0  0  0  0  0  0  0  0  0  0  0  0
   -0.8030   11.5520   -7.1701 C   0  0  0  0  0  0  0  0  0  0  0  0
    0.4260   14.5701   -5.9973 C   0  0  0  0  0  0  0  0  0  0  0  0
   -3.6444   15.0059  -11.3286 C   0  0  0  0  0  0  0  0  0  0  0  0
   -2.1848   14.8660  -11.7465 C   0  0  0  0  0  0  0  0  0  0  0  0
   -1.5251   13.6965  -11.2881 O   0  0  0  0  0  0  0  0  0  0  0  0
   -2.2131   12.5012  -11.6333 C   0  0  0  0  0  0  0  0  0  0  0  0
   -3.6517   12.4721  -11.0120 C   0  0  0  0  0  0  0  0  0  0  0  0
   -5.4816   11.5935  -10.3627 H   0  0  0  0  0  0  0  0  0  0  0  0
   -6.9766   12.5565  -10.1095 H   0  0  0  0  0  0  0  0  0  0  0  0
   -8.1720   10.1191  -13.9020 H   0  0  0  0  0  0  0  0  0  0  0  0
   -6.8821   12.2554  -14.0972 H   0  0  0  0  0  0  0  0  0  0  0  0
   -8.0379    9.5965   -7.2570 H   0  0  0  0  0  0  0  0  0  0  0  0
   -5.3286   15.2830  -12.8625 H   0  0  0  0  0  0  0  0  0  0  0  0
   -6.7437   12.3143   -6.9138 H   0  0  0  0  0  0  0  0  0  0  0  0
   -4.5109   13.2897   -6.4791 H   0  0  0  0  0  0  0  0  0  0  0  0
   -2.6655    9.7499   -8.0449 H   0  0  0  0  0  0  0  0  0  0  0  0
   -4.8957    8.7813   -8.4899 H   0  0  0  0  0  0  0  0  0  0  0  0
   -2.4205   14.2199   -6.2269 H   0  0  0  0  0  0  0  0  0  0  0  0
   -0.6578   10.5563   -7.5625 H   0  0  0  0  0  0  0  0  0  0  0  0
    1.4856   14.2813   -6.0588 H   0  0  0  0  0  0  0  0  0  0  0  0
    0.2449   15.4398   -6.6461 H   0  0  0  0  0  0  0  0  0  0  0  0
    0.1766   14.8298   -4.9579 H   0  0  0  0  0  0  0  0  0  0  0  0
   -4.1332   15.7546  -11.9693 H   0  0  0  0  0  0  0  0  0  0  0  0
   -3.6898   15.3350  -10.2800 H   0  0  0  0  0  0  0  0  0  0  0  0
   -2.1459   14.8676  -12.8458 H   0  0  0  0  0  0  0  0  0  0  0  0
   -1.6368   15.7375  -11.3590 H   0  0  0  0  0  0  0  0  0  0  0  0
   -2.2945   12.4382  -12.7285 H   0  0  0  0  0  0  0  0  0  0  0  0
   -1.6432   11.6386  -11.2578 H   0  0  0  0  0  0  0  0  0  0  0  0
   -3.5876   12.4537   -9.9140 H   0  0  0  0  0  0  0  0  0  0  0  0
   -4.1956   11.5825  -11.3625 H   0  0  0  0  0  0  0  0  0  0  0  0
  1  2  1  0  0  0  0
  1  4  1  0  0  0  0
  1 12  2  3  0  0  0
  2  6  1  0  0  0  0
  3  4  2  0  0  0  0
  3  5  1  0  0  0  0
  5  6  2  0  0  0  0
  5  9  1  0  0  0  0
  6  7  1  0  0  0  0
  7  8  1  0  0  0  0
  7 10  2  3  0  0  0
  8  9  2  0  0  0  0
 10 14  1  0  0  0  0
 11 12  1  0  0  0  0
 11 26  1  0  0  0  0
 11 30  1  0  0  0  0
 12 13  1  0  0  0  0
 14 15  2  0  0  0  0
 14 19  1  0  0  0  0
 15 16  1  0  0  0  0
 16 17  2  0  0  0  0
 17 18  1  0  0  0  0
 17 20  1  0  0  0  0
 18 19  2  0  0  0  0
 20 21  2  0  0  0  0
 20 24  1  0  0  0  0
 21 22  1  0  0  0  0
 22 23  1  0  0  0  0
 22 25  1  0  0  0  0
 23 24  2  0  0  0  0
 26 27  1  0  0  0  0
 27 28  1  0  0  0  0
 28 29  1  0  0  0  0
 29 30  1  0  0  0  0
  2 31  1  0  0  0  0
  2 32  1  0  0  0  0
  3 33  1  0  0  0  0
  4 34  1  0  0  0  0
 10 35  1  0  0  0  0
 13 36  1  0  0  0  0
 15 37  1  0  0  0  0
 16 38  1  0  0  0  0
 18 39  1  0  0  0  0
 19 40  1  0  0  0  0
 21 41  1  0  0  0  0
 24 42  1  0  0  0  0
 25 43  1  0  0  0  0
 25 44  1  0  0  0  0
 25 45  1  0  0  0  0
 26 46  1  0  0  0  0
 26 47  1  0  0  0  0
 27 48  1  0  0  0  0
 27 49  1  0  0  0  0
 29 50  1  0  0  0  0
 29 51  1  0  0  0  0
 30 52  1  0  0  0  0
 30 53  1  0  0  0  0
M  END
> <Name>
39

> <IC50[uM]>
0.004

$$$$
39
  -OEChem-05192314333D
 Structure written by MMmdl.
 53 57  0     0  0  0  0  0  0999 V2000
   -6.3502   12.3553  -12.0171 C   0  0  0  0  0  0  0  0  0  0  0  0
   -6.4935   11.7977  -10.7426 C   0  0  0  0  0  0  0  0  0  0  0  0
   -7.7106   10.5751  -13.0385 C   0  0  0  0  0  0  0  0  0  0  0  0
   -6.9725   11.7720  -13.1357 C   0  0  0  0  0  0  0  0  0  0  0  0
   -7.8130   10.0109  -11.7654 C   0  0  0  0  0  0  0  0  0  0  0  0
   -7.2309   10.6170  -10.6058 C   0  0  0  0  0  0  0  0  0  0  0  0
   -7.6111    9.7517   -9.5147 C   0  0  0  0  0  0  0  0  0  0  0  0
   -8.2865    8.7392   -9.9897 N   0  0  0  0  0  0  0  0  0  0  0  0
   -8.4152    8.8682  -11.3006 N   0  0  0  0  0  0  0  0  0  0  0  0
   -7.3373    9.8888   -8.0252 C   0  0  0  0  0  0  0  0  0  0  0  0
   -4.3541   13.7129  -11.4635 N   0  0  0  0  0  0  0  0  0  0  0  0
   -5.5361   13.6428  -12.1728 C   0  0  0  0  0  0  0  0  0  0  0  0
   -5.9526   14.5668  -12.8773 O   0  0  0  0  0  0  0  0  0  0  0  0
   -5.9623   10.4854   -7.7364 C   0  0  0  0  0  0  0  0  0  0  0  0
   -5.8532   11.7571   -7.1646 C   0  0  0  0  0  0  0  0  0  0  0  0
   -4.5945   12.3064   -6.9180 C   0  0  0  0  0  0  0  0  0  0  0  0
   -3.4446   11.5858   -7.2382 C   0  0  0  0  0  0  0  0  0  0  0  0
   -3.5555   10.3115   -7.8022 C   0  0  0  0  0  0  0  0  0  0  0  0
   -4.8126    9.7649   -8.0516 C   0  0  0  0  0  0  0  0  0  0  0  0
   -2.0930   12.1652   -6.9785 C   0  0  0  0  0  0  0  0  0  0  0  0
   -1.7427   13.4236   -6.4970 C   0  0  0  0  0  0  0  0  0  0  0  0
   -0.4061   13.4591   -6.4324 N   0  0  0  0  0  0  0  0  0  0  0  0
    0.1810   12.3567   -6.8070 N   0  0  0  0  0  0  0  0  0  0  0  0
   -0.8030   11.5520   -7.1701 C   0  0  0  0  0  0  0  0  0  0  0  0
    0.4260   14.5701   -5.9973 C   0  0  0  0  0  0  0  0  0  0  0  0
   -3.6444   15.0059  -11.3286 C   0  0  0  0  0  0  0  0  0  0  0  0
   -2.1848   14.8660  -11.7465 C   0  0  0  0  0  0  0  0  0  0  0  0
   -1.5251   13.6965  -11.2881 O   0  0  0  0  0  0  0  0  0  0  0  0
   -2.2131   12.5012  -11.6333 C   0  0  0  0  0  0  0  0  0  0  0  0
   -3.6517   12.4721  -11.0120 C   0  0  0  0  0  0  0  0  0  0  0  0
   -6.0438   12.2692   -9.8813 H   0  0  0  0  0  0  0  0  0  0  0  0
   -8.1720   10.1191  -13.9020 H   0  0  0  0  0  0  0  0  0  0  0  0
   -6.8821   12.2554  -14.0972 H   0  0  0  0  0  0  0  0  0  0  0  0
   -8.0379    9.5965   -7.2570 H   0  0  0  0  0  0  0  0  0  0  0  0
   -5.3286   15.2830  -12.8625 H   0  0  0  0  0  0  0  0  0  0  0  0
   -6.7437   12.3143   -6.9138 H   0  0  0  0  0  0  0  0  0  0  0  0
   -4.5109   13.2897   -6.4791 H   0  0  0  0  0  0  0  0  0  0  0  0
   -3.4437   12.0319   -8.2437 H   0  0  0  0  0  0  0  0  0  0  0  0
   -2.6655    9.7499   -8.0449 H   0  0  0  0  0  0  0  0  0  0  0  0
   -4.8957    8.7813   -8.4899 H   0  0  0  0  0  0  0  0  0  0  0  0
   -2.4205   14.2199   -6.2269 H   0  0  0  0  0  0  0  0  0  0  0  0
   -0.6578   10.5563   -7.5625 H   0  0  0  0  0  0  0  0  0  0  0  0
    1.4856   14.2813   -6.0588 H   0  0  0  0  0  0  0  0  0  0  0  0
    0.2449   15.4398   -6.6461 H   0  0  0  0  0  0  0  0  0  0  0  0
    0.1766   14.8298   -4.9579 H   0  0  0  0  0  0  0  0  0  0  0  0
   -4.1332   15.7546  -11.9693 H   0  0  0  0  0  0  0  0  0  0  0  0
   -3.6898   15.3350  -10.2800 H   0  0  0  0  0  0  0  0  0  0  0  0
   -2.1459   14.8676  -12.8458 H   0  0  0  0  0  0  0  0  0  0  0  0
   -1.6368   15.7375  -11.3590 H   0  0  0  0  0  0  0  0  0  0  0  0
   -2.2945   12.4382  -12.7285 H   0  0  0  0  0  0  0  0  0  0  0  0
   -1.6432   11.6386  -11.2578 H   0  0  0  0  0  0  0  0  0  0  0  0
   -3.5876   12.4537   -9.9140 H   0  0  0  0  0  0  0  0  0  0  0  0
   -4.1956   11.5825  -11.3625 H   0  0  0  0  0  0  0  0  0  0  0  0
  1  2  1  0  0  0  0
  1  4  1  0  0  0  0
  1 12  2  3  0  0  0
  2  6  2  0  0  0  0
  3  4  2  0  0  0  0
  3  5  1  0  0  0  0
  5  6  1  0  0  0  0
  5  9  2  0  0  0  0
  6  7  1  0  0  0  0
  7  8  2  0  0  0  0
  7 10  1  0  0  0  0
  8  9  1  0  0  0  0
 10 14  2  0  0  0  0
 11 12  1  0  0  0  0
 11 26  1  0  0  0  0
 11 30  1  0  0  0  0
 12 13  1  0  0  0  0
 14 15  1  0  0  0  0
 14 19  1  0  0  0  0
 15 16  2  0  0  0  0
 16 17  1  0  0  0  0
 17 18  1  0  0  0  0
 17 20  1  0  0  0  0
 18 19  2  0  0  0  0
 20 21  2  0  0  0  0
 20 24  1  0  0  0  0
 21 22  1  0  0  0  0
 22 23  1  0  0  0  0
 22 25  1  0  0  0  0
 23 24  2  0  0  0  0
 26 27  1  0  0  0  0
 27 28  1  0  0  0  0
 28 29  1  0  0  0  0
 29 30  1  0  0  0  0
  2 31  1  0  0  0  0
  3 32  1  0  0  0  0
  4 33  1  0  0  0  0
 10 34  1  0  0  0  0
 13 35  1  0  0  0  0
 15 36  1  0  0  0  0
 16 37  1  0  0  0  0
 17 38  1  0  0  0  0
 18 39  1  0  0  0  0
 19 40  1  0  0  0  0
 21 41  1  0  0  0  0
 24 42  1  0  0  0  0
 25 43  1  0  0  0  0
 25 44  1  0  0  0  0
 25 45  1  0  0  0  0
 26 46  1  0  0  0  0
 26 47  1  0  0  0  0
 27 48  1  0  0  0  0
 27 49  1  0  0  0  0
 29 50  1  0  0  0  0
 29 51  1  0  0  0  0
 30 52  1  0  0  0  0
 30 53  1  0  0  0  0
M  END
> <Name>
39

> <IC50[uM]>
0.004

$$$$
39
  -OEChem-05192314333D
 Structure written by MMmdl.
 53 57  0     0  0  0  0  0  0999 V2000
   -6.3502   12.3553  -12.0171 C   0  0  0  0  0  0  0  0  0  0  0  0
   -6.4935   11.7977  -10.7426 C   0  0  0  0  0  0  0  0  0  0  0  0
   -7.7106   10.5751  -13.0385 C   0  0  0  0  0  0  0  0  0  0  0  0
   -6.9725   11.7720  -13.1357 C   0  0  0  0  0  0  0  0  0  0  0  0
   -7.8130   10.0109  -11.7654 C   0  0  0  0  0  0  0  0  0  0  0  0
   -7.2309   10.6170  -10.6058 C   0  0  0  0  0  0  0  0  0  0  0  0
   -7.6111    9.7517   -9.5147 C   0  0  0  0  0  0  0  0  0  0  0  0
   -8.2865    8.7392   -9.9897 N   0  0  0  0  0  0  0  0  0  0  0  0
   -8.4152    8.8682  -11.3006 N   0  0  0  0  0  0  0  0  0  0  0  0
   -7.3373    9.8888   -8.0252 C   0  0  0  0  0  0  0  0  0  0  0  0
   -4.3541   13.7129  -11.4635 N   0  0  0  0  0  0  0  0  0  0  0  0
   -5.5361   13.6428  -12.1728 C   0  0  0  0  0  0  0  0  0  0  0  0
   -5.9526   14.5668  -12.8773 O   0  0  0  0  0  0  0  0  0  0  0  0
   -5.9623   10.4854   -7.7364 C   0  0  0  0  0  0  0  0  0  0  0  0
   -5.8532   11.7571   -7.1646 C   0  0  0  0  0  0  0  0  0  0  0  0
   -4.5945   12.3064   -6.9180 C   0  0  0  0  0  0  0  0  0  0  0  0
   -3.4446   11.5858   -7.2382 C   0  0  0  0  0  0  0  0  0  0  0  0
   -3.5555   10.3115   -7.8022 C   0  0  0  0  0  0  0  0  0  0  0  0
   -4.8126    9.7649   -8.0516 C   0  0  0  0  0  0  0  0  0  0  0  0
   -2.0930   12.1652   -6.9785 C   0  0  0  0  0  0  0  0  0  0  0  0
   -1.7427   13.4236   -6.4970 C   0  0  0  0  0  0  0  0  0  0  0  0
   -0.4061   13.4591   -6.4324 N   0  0  0  0  0  0  0  0  0  0  0  0
    0.1810   12.3567   -6.8070 N   0  0  0  0  0  0  0  0  0  0  0  0
   -0.8030   11.5520   -7.1701 C   0  0  0  0  0  0  0  0  0  0  0  0
    0.4260   14.5701   -5.9973 C   0  0  0  0  0  0  0  0  0  0  0  0
   -3.6444   15.0059  -11.3286 C   0  0  0  0  0  0  0  0  0  0  0  0
   -2.1848   14.8660  -11.7465 C   0  0  0  0  0  0  0  0  0  0  0  0
   -1.5251   13.6965  -11.2881 O   0  0  0  0  0  0  0  0  0  0  0  0
   -2.2131   12.5012  -11.6333 C   0  0  0  0  0  0  0  0  0  0  0  0
   -3.6517   12.4721  -11.0120 C   0  0  0  0  0  0  0  0  0  0  0  0
   -6.0438   12.2692   -9.8813 H   0  0  0  0  0  0  0  0  0  0  0  0
   -8.1720   10.1191  -13.9020 H   0  0  0  0  0  0  0  0  0  0  0  0
   -6.8821   12.2554  -14.0972 H   0  0  0  0  0  0  0  0  0  0  0  0
   -8.0379    9.5965   -7.2570 H   0  0  0  0  0  0  0  0  0  0  0  0
   -5.3286   15.2830  -12.8625 H   0  0  0  0  0  0  0  0  0  0  0  0
   -6.7437   12.3143   -6.9138 H   0  0  0  0  0  0  0  0  0  0  0  0
   -4.5109   13.2897   -6.4791 H   0  0  0  0  0  0  0  0  0  0  0  0
   -2.6655    9.7499   -8.0449 H   0  0  0  0  0  0  0  0  0  0  0  0
   -4.8654    8.8212   -7.4888 H   0  0  0  0  0  0  0  0  0  0  0  0
   -4.8575    9.5518   -9.1298 H   0  0  0  0  0  0  0  0  0  0  0  0
   -2.4205   14.2199   -6.2269 H   0  0  0  0  0  0  0  0  0  0  0  0
   -0.6578   10.5563   -7.5625 H   0  0  0  0  0  0  0  0  0  0  0  0
    1.4856   14.2813   -6.0588 H   0  0  0  0  0  0  0  0  0  0  0  0
    0.2449   15.4398   -6.6461 H   0  0  0  0  0  0  0  0  0  0  0  0
    0.1766   14.8298   -4.9579 H   0  0  0  0  0  0  0  0  0  0  0  0
   -4.1332   15.7546  -11.9693 H   0  0  0  0  0  0  0  0  0  0  0  0
   -3.6898   15.3350  -10.2800 H   0  0  0  0  0  0  0  0  0  0  0  0
   -2.1459   14.8676  -12.8458 H   0  0  0  0  0  0  0  0  0  0  0  0
   -1.6368   15.7375  -11.3590 H   0  0  0  0  0  0  0  0  0  0  0  0
   -2.2945   12.4382  -12.7285 H   0  0  0  0  0  0  0  0  0  0  0  0
   -1.6432   11.6386  -11.2578 H   0  0  0  0  0  0  0  0  0  0  0  0
   -3.5876   12.4537   -9.9140 H   0  0  0  0  0  0  0  0  0  0  0  0
   -4.1956   11.5825  -11.3625 H   0  0  0  0  0  0  0  0  0  0  0  0
  1  2  1  0  0  0  0
  1  4  1  0  0  0  0
  1 12  2  3  0  0  0
  2  6  2  0  0  0  0
  3  4  2  0  0  0  0
  3  5  1  0  0  0  0
  5  6  1  0  0  0  0
  5  9  2  0  0  0  0
  6  7  1  0  0  0  0
  7  8  2  0  0  0  0
  7 10  1  0  0  0  0
  8  9  1  0  0  0  0
 10 14  2  3  0  0  0
 11 12  1  0  0  0  0
 11 26  1  0  0  0  0
 11 30  1  0  0  0  0
 12 13  1  0  0  0  0
 14 15  1  0  0  0  0
 14 19  1  0  0  0  0
 15 16  2  0  0  0  0
 16 17  1  0  0  0  0
 17 18  2  0  0  0  0
 17 20  1  0  0  0  0
 18 19  1  0  0  0  0
 20 21  2  0  0  0  0
 20 24  1  0  0  0  0
 21 22  1  0  0  0  0
 22 23  1  0  0  0  0
 22 25  1  0  0  0  0
 23 24  2  0  0  0  0
 26 27  1  0  0  0  0
 27 28  1  0  0  0  0
 28 29  1  0  0  0  0
 29 30  1  0  0  0  0
  2 31  1  0  0  0  0
  3 32  1  0  0  0  0
  4 33  1  0  0  0  0
 10 34  1  0  0  0  0
 13 35  1  0  0  0  0
 15 36  1  0  0  0  0
 16 37  1  0  0  0  0
 18 38  1  0  0  0  0
 19 39  1  0  0  0  0
 19 40  1  0  0  0  0
 21 41  1  0  0  0  0
 24 42  1  0  0  0  0
 25 43  1  0  0  0  0
 25 44  1  0  0  0  0
 25 45  1  0  0  0  0
 26 46  1  0  0  0  0
 26 47  1  0  0  0  0
 27 48  1  0  0  0  0
 27 49  1  0  0  0  0
 29 50  1  0  0  0  0
 29 51  1  0  0  0  0
 30 52  1  0  0  0  0
 30 53  1  0  0  0  0
M  END
> <Name>
39

> <IC50[uM]>
0.004

$$$$
